
     RDKit          3D

 66 69  0  0  0  0  0  0  0  0999 V2000
  183.7419  130.0449   30.0849 N   0  0  0  0  0  0  0  0  0  0  0  0
  183.0614  128.5374   33.2374 C   0  0  0  0  0  0  0  0  0  0  0  0
  180.4771  127.2738   30.2554 O   0  0  0  0  0  0  0  0  0  0  0  0
  183.1617  128.8892   31.7898 C   0  0  0  0  0  0  0  0  0  0  0  0
  183.4848  125.4088   31.1212 C   0  0  0  0  0  0  0  0  0  0  0  0
  183.3900  122.1030   29.2643 C   0  0  0  0  0  0  0  0  0  0  0  0
  182.5329  120.9146   29.5935 C   0  0  0  0  0  0  0  0  0  0  0  0
  180.8814  119.5396   29.5571 C   0  0  0  0  0  0  0  0  0  0  0  0
  179.7080  118.8441   29.2758 C   0  0  0  0  0  0  0  0  0  0  0  0
  179.2852  117.8667   30.1673 C   0  0  0  0  0  0  0  0  0  0  0  0
  180.0198  117.5804   31.3150 C   0  0  0  0  0  0  0  0  0  0  0  0
  181.1959  118.2598   31.5938 C   0  0  0  0  0  0  0  0  0  0  0  0
  181.6038  119.2395   30.7041 C   0  0  0  0  0  0  0  0  0  0  0  0
  183.6615  120.2635   31.7997 C   0  0  0  0  0  0  0  0  0  0  0  0
  182.5914  128.2391   30.6515 C   0  0  0  0  0  0  0  0  0  0  0  0
  184.9564  119.4291   31.6677 C   0  0  1  0  0  0  0  0  0  0  0  0
  185.7987  119.4359   32.9376 C   0  0  0  0  0  0  0  0  0  0  0  0
  184.5569  117.9807   31.3914 C   0  0  0  0  0  0  0  0  0  0  0  0
  185.8095  119.9272   30.5089 C   0  0  0  0  0  0  0  0  0  0  0  0
  183.0186  129.0263   29.5955 C   0  0  0  0  0  0  0  0  0  0  0  0
  184.3985  131.1403   29.3803 C   0  0  0  0  0  0  0  0  0  0  0  0
  182.8304  128.8775   28.1249 C   0  0  0  0  0  0  0  0  0  0  0  0
  181.6508  127.0646   30.5415 C   0  0  0  0  0  0  0  0  0  0  0  0
  181.1951  124.6946   30.9144 C   0  0  0  0  0  0  0  0  0  0  0  0
  181.5809  123.6689   29.8725 C   0  0  0  0  0  0  0  0  0  0  0  0
  183.9187  124.3660   30.1017 C   0  0  0  0  0  0  0  0  0  0  0  0
  183.8404  129.9655   31.4411 N   0  0  0  0  0  0  0  0  0  0  0  0
  182.1104  125.8345   30.8352 N   0  0  0  0  0  0  0  0  0  0  0  0
  182.9699  123.2140   30.1747 N   0  0  2  0  0  0  0  0  0  0  0  0
  181.4869  120.5907   28.8649 N   0  0  0  0  0  0  0  0  0  0  0  0
  182.6679  120.1361   30.7154 N   0  0  0  0  0  0  0  0  0  0  0  0
  183.3124  129.4180   33.8470 H   0  0  0  0  0  0  0  0  0  0  0  0
  182.0352  128.2138   33.4659 H   0  0  0  0  0  0  0  0  0  0  0  0
  183.7626  127.7213   33.4659 H   0  0  0  0  0  0  0  0  0  0  0  0
  183.5311  124.9749   32.1310 H   0  0  0  0  0  0  0  0  0  0  0  0
  184.1562  126.2782   31.0630 H   0  0  0  0  0  0  0  0  0  0  0  0
  184.4503  121.8608   29.4289 H   0  0  0  0  0  0  0  0  0  0  0  0
  183.2688  122.3934   28.2103 H   0  0  0  0  0  0  0  0  0  0  0  0
  179.1286  119.0641   28.3670 H   0  0  0  0  0  0  0  0  0  0  0  0
  178.3577  117.3113   29.9640 H   0  0  0  0  0  0  0  0  0  0  0  0
  179.6627  116.8055   32.0092 H   0  0  0  0  0  0  0  0  0  0  0  0
  181.7860  118.0281   32.4927 H   0  0  0  0  0  0  0  0  0  0  0  0
  183.1693  119.9660   32.7373 H   0  0  0  0  0  0  0  0  0  0  0  0
  183.9925  121.3119   31.7616 H   0  0  0  0  0  0  0  0  0  0  0  0
  185.1372  119.4306   33.8165 H   0  0  0  0  0  0  0  0  0  0  0  0
  186.4408  118.5429   32.9565 H   0  0  0  0  0  0  0  0  0  0  0  0
  186.4262  120.3392   32.9565 H   0  0  0  0  0  0  0  0  0  0  0  0
  184.4112  117.4523   32.3451 H   0  0  0  0  0  0  0  0  0  0  0  0
  183.6201  117.9623   30.8151 H   0  0  0  0  0  0  0  0  0  0  0  0
  185.3518  117.4847   30.8151 H   0  0  0  0  0  0  0  0  0  0  0  0
  186.6965  120.4451   30.9026 H   0  0  0  0  0  0  0  0  0  0  0  0
  186.1269  119.0725   29.8934 H   0  0  0  0  0  0  0  0  0  0  0  0
  185.2212  120.6238   29.8934 H   0  0  0  0  0  0  0  0  0  0  0  0
  184.8211  131.8454   30.1112 H   0  0  0  0  0  0  0  0  0  0  0  0
  185.2051  130.7391   28.7491 H   0  0  0  0  0  0  0  0  0  0  0  0
  183.6644  131.6625   28.7491 H   0  0  0  0  0  0  0  0  0  0  0  0
  181.9810  128.2064   27.9300 H   0  0  0  0  0  0  0  0  0  0  0  0
  182.6288  129.8629   27.6795 H   0  0  0  0  0  0  0  0  0  0  0  0
  183.7425  128.4535   27.6795 H   0  0  0  0  0  0  0  0  0  0  0  0
  180.1660  125.0365   30.7297 H   0  0  0  0  0  0  0  0  0  0  0  0
  181.2558  124.2429   31.9155 H   0  0  0  0  0  0  0  0  0  0  0  0
  180.8895  122.8143   29.9143 H   0  0  0  0  0  0  0  0  0  0  0  0
  181.5299  124.1062   28.8645 H   0  0  0  0  0  0  0  0  0  0  0  0
  183.8973  124.8018   29.0920 H   0  0  0  0  0  0  0  0  0  0  0  0
  184.9426  124.0275   30.3186 H   0  0  0  0  0  0  0  0  0  0  0  0
  182.9865  122.8416   31.1349 H   0  0  0  0  0  0  0  0  0  0  0  0
  1 20  1  0
  1 21  1  0
  1 27  1  0
  2  4  1  0
  3 23  2  0
  4 15  1  0
  4 27  2  0
  5 26  1  0
  5 28  1  0
  6  7  1  0
 29  6  1  0
  7 30  2  0
  7 31  1  0
  8  9  2  0
  8 13  1  0
  8 30  1  0
  9 10  1  0
 10 11  2  0
 11 12  1  0
 12 13  2  0
 13 31  1  0
 16 14  1  1
 14 31  1  0
 15 20  2  0
 15 23  1  0
 16 17  1  0
 16 18  1  0
 16 19  1  0
 20 22  1  0
 23 28  1  0
 24 25  1  0
 24 28  1  0
 25 29  1  0
 26 29  1  0
  2 32  1  0
  2 33  1  0
  2 34  1  0
  5 35  1  0
  5 36  1  0
  6 37  1  0
  6 38  1  0
  9 39  1  0
 10 40  1  0
 11 41  1  0
 12 42  1  0
 14 43  1  0
 14 44  1  0
 17 45  1  0
 17 46  1  0
 17 47  1  0
 18 48  1  0
 18 49  1  0
 18 50  1  0
 19 51  1  0
 19 52  1  0
 19 53  1  0
 21 54  1  0
 21 55  1  0
 21 56  1  0
 22 57  1  0
 22 58  1  0
 22 59  1  0
 24 60  1  0
 24 61  1  0
 25 62  1  0
 25 63  1  0
 26 64  1  0
 26 65  1  0
 29 66  1  1
M  CHG  1  29   1
M  END
>  <filename_input>  (1) 
7RNI_60I_docked.sdf

>  <pdb_id>  (1) 
7RNI_60I

>  <pose_rank>  (1) 
0

>  <num_atoms_heavy>  (1) 
31

>  <num_torsions>  (1) 
5

>  <pose>  (1) 
[180.4770756621041, 127.27383841121949, 30.25538475357432, 0.017912010864152474, 0.18248288797116669, 0.009489429358419585, -0.227626332445701, -6.182792591754902, 0.14395578121301844, 0.004177094646156728, 2.10267768008999]

>  <energy>  (1) 
-775.6277905486238

>  <inter_energy>  (1) 
-794.2186060428445

>  <intra_energy>  (1) 
28.5296481547513

>  <rmsd>  (1) 
0.319326

>  <sdf_rank>  (1) 
0

$$$$

     RDKit          3D

 66 69  0  0  0  0  0  0  0  0999 V2000
  184.3074  130.0770   28.3110 N   0  0  0  0  0  0  0  0  0  0  0  0
  184.3447  129.3352   31.7928 C   0  0  0  0  0  0  0  0  0  0  0  0
  180.7691  128.2664   29.8789 O   0  0  0  0  0  0  0  0  0  0  0  0
  184.0633  129.4054   30.3282 C   0  0  0  0  0  0  0  0  0  0  0  0
  183.4952  125.9656   30.6202 C   0  0  0  0  0  0  0  0  0  0  0  0
  182.3121  122.4508   29.8256 C   0  0  0  0  0  0  0  0  0  0  0  0
  183.0829  121.5270   30.7244 C   0  0  0  0  0  0  0  0  0  0  0  0
  184.6362  120.7895   32.0140 C   0  0  0  0  0  0  0  0  0  0  0  0
  185.7611  120.6284   32.8192 C   0  0  0  0  0  0  0  0  0  0  0  0
  186.1089  119.3468   33.2258 C   0  0  0  0  0  0  0  0  0  0  0  0
  185.3475  118.2449   32.8447 C   0  0  0  0  0  0  0  0  0  0  0  0
  184.2189  118.4002   32.0544 C   0  0  0  0  0  0  0  0  0  0  0  0
  183.8862  119.6808   31.6457 C   0  0  0  0  0  0  0  0  0  0  0  0
  181.8954  119.3460   30.0939 C   0  0  0  0  0  0  0  0  0  0  0  0
  183.0562  128.7428   29.5600 C   0  0  0  0  0  0  0  0  0  0  0  0
  180.4469  119.3581   30.6342 C   0  0  1  0  0  0  0  0  0  0  0  0
  180.2698  120.2768   31.8370 C   0  0  0  0  0  0  0  0  0  0  0  0
  179.5347  119.8768   29.5239 C   0  0  0  0  0  0  0  0  0  0  0  0
  179.9966  117.9546   31.0166 C   0  0  0  0  0  0  0  0  0  0  0  0
  183.2844  129.2095   28.2765 C   0  0  0  0  0  0  0  0  0  0  0  0
  184.9172  130.8372   27.2259 C   0  0  0  0  0  0  0  0  0  0  0  0
  182.6293  128.8724   26.9813 C   0  0  0  0  0  0  0  0  0  0  0  0
  181.9166  127.8447   29.9737 C   0  0  0  0  0  0  0  0  0  0  0  0
  181.1372  125.8124   31.0809 C   0  0  0  0  0  0  0  0  0  0  0  0
  181.0446  124.5120   30.3148 C   0  0  0  0  0  0  0  0  0  0  0  0
  183.4507  124.6424   29.8703 C   0  0  0  0  0  0  0  0  0  0  0  0
  184.7992  130.2007   29.5752 N   0  0  0  0  0  0  0  0  0  0  0  0
  182.1979  126.6406   30.5044 N   0  0  0  0  0  0  0  0  0  0  0  0
  182.3544  123.8096   30.4511 N   0  0  2  0  0  0  0  0  0  0  0  0
  184.1097  121.9449   31.4323 N   0  0  0  0  0  0  0  0  0  0  0  0
  182.8862  120.1719   30.8119 N   0  0  0  0  0  0  0  0  0  0  0  0
  183.4268  129.5642   32.3539 H   0  0  0  0  0  0  0  0  0  0  0  0
  184.6900  128.3234   32.0517 H   0  0  0  0  0  0  0  0  0  0  0  0
  185.1248  130.0663   32.0517 H   0  0  0  0  0  0  0  0  0  0  0  0
  183.7168  125.7778   31.6812 H   0  0  0  0  0  0  0  0  0  0  0  0
  184.2794  126.6044   30.1877 H   0  0  0  0  0  0  0  0  0  0  0  0
  182.7749  122.4799   28.8281 H   0  0  0  0  0  0  0  0  0  0  0  0
  181.2742  122.1062   29.7073 H   0  0  0  0  0  0  0  0  0  0  0  0
  186.3612  121.4975   33.1266 H   0  0  0  0  0  0  0  0  0  0  0  0
  186.9975  119.2002   33.8573 H   0  0  0  0  0  0  0  0  0  0  0  0
  185.6453  117.2387   33.1747 H   0  0  0  0  0  0  0  0  0  0  0  0
  183.6074  117.5340   31.7615 H   0  0  0  0  0  0  0  0  0  0  0  0
  182.2503  118.3051   30.1196 H   0  0  0  0  0  0  0  0  0  0  0  0
  181.8290  119.7890   29.0893 H   0  0  0  0  0  0  0  0  0  0  0  0
  180.3821  119.6941   32.7632 H   0  0  0  0  0  0  0  0  0  0  0  0
  181.0316  121.0698   31.8080 H   0  0  0  0  0  0  0  0  0  0  0  0
  179.2677  120.7297   31.8080 H   0  0  0  0  0  0  0  0  0  0  0  0
  178.6606  120.3739   29.9698 H   0  0  0  0  0  0  0  0  0  0  0  0
  180.0873  120.5957   28.9013 H   0  0  0  0  0  0  0  0  0  0  0  0
  179.1994  119.0343   28.9013 H   0  0  0  0  0  0  0  0  0  0  0  0
  179.9677  117.8647   32.1126 H   0  0  0  0  0  0  0  0  0  0  0  0
  178.9932  117.7670   30.6068 H   0  0  0  0  0  0  0  0  0  0  0  0
  180.7036  117.2182   30.6068 H   0  0  0  0  0  0  0  0  0  0  0  0
  185.5534  131.6301   27.6461 H   0  0  0  0  0  0  0  0  0  0  0  0
  185.5297  130.1653   26.6066 H   0  0  0  0  0  0  0  0  0  0  0  0
  184.1285  131.2894   26.6066 H   0  0  0  0  0  0  0  0  0  0  0  0
  181.6665  128.3770   27.1754 H   0  0  0  0  0  0  0  0  0  0  0  0
  182.4579  129.7943   26.4062 H   0  0  0  0  0  0  0  0  0  0  0  0
  183.2798  128.1970   26.4062 H   0  0  0  0  0  0  0  0  0  0  0  0
  180.1778  126.3464   31.0153 H   0  0  0  0  0  0  0  0  0  0  0  0
  181.3670  125.6023   32.1359 H   0  0  0  0  0  0  0  0  0  0  0  0
  180.2400  123.8884   30.7316 H   0  0  0  0  0  0  0  0  0  0  0  0
  180.8196  124.7047   29.2554 H   0  0  0  0  0  0  0  0  0  0  0  0
  183.2531  124.8259   28.8039 H   0  0  0  0  0  0  0  0  0  0  0  0
  184.4141  124.1203   29.9662 H   0  0  0  0  0  0  0  0  0  0  0  0
  182.5466  123.6756   31.4541 H   0  0  0  0  0  0  0  0  0  0  0  0
  1 20  1  0
  1 21  1  0
  1 27  1  0
  2  4  1  0
  3 23  2  0
  4 15  1  0
  4 27  2  0
  5 26  1  0
  5 28  1  0
  6  7  1  0
 29  6  1  0
  7 30  2  0
  7 31  1  0
  8  9  2  0
  8 13  1  0
  8 30  1  0
  9 10  1  0
 10 11  2  0
 11 12  1  0
 12 13  2  0
 13 31  1  0
 16 14  1  6
 14 31  1  0
 15 20  2  0
 15 23  1  0
 16 17  1  0
 16 18  1  0
 16 19  1  0
 20 22  1  0
 23 28  1  0
 24 25  1  0
 24 28  1  0
 25 29  1  0
 26 29  1  0
  2 32  1  0
  2 33  1  0
  2 34  1  0
  5 35  1  0
  5 36  1  0
  6 37  1  0
  6 38  1  0
  9 39  1  0
 10 40  1  0
 11 41  1  0
 12 42  1  0
 14 43  1  0
 14 44  1  0
 17 45  1  0
 17 46  1  0
 17 47  1  0
 18 48  1  0
 18 49  1  0
 18 50  1  0
 19 51  1  0
 19 52  1  0
 19 53  1  0
 21 54  1  0
 21 55  1  0
 21 56  1  0
 22 57  1  0
 22 58  1  0
 22 59  1  0
 24 60  1  0
 24 61  1  0
 25 62  1  0
 25 63  1  0
 26 64  1  0
 26 65  1  0
 29 66  1  1
M  CHG  1  29   1
M  END
>  <filename_input>  (2) 
7RNI_60I_docked.sdf

>  <pdb_id>  (2) 
7RNI_60I

>  <pose_rank>  (2) 
1

>  <num_atoms_heavy>  (2) 
31

>  <num_torsions>  (2) 
5

>  <pose>  (2) 
[180.76911094332664, 128.26635774933393, 29.878883568638802, 2.439516096373772, -4.506685836808172, 2.6188178051513566, -0.14571891718868626, -7.47268719445626, -8.439710477395298, 0.24794745406990076, 5.091734705028683]

>  <energy>  (2) 
-641.3165064288672

>  <inter_energy>  (2) 
-655.8407630513693

>  <intra_energy>  (2) 
21.86505328653837

>  <rmsd>  (2) 
3.36092

>  <sdf_rank>  (2) 
0

$$$$

     RDKit          3D

 66 69  0  0  0  0  0  0  0  0999 V2000
  180.4622  126.3677   25.5195 N   0  0  0  0  0  0  0  0  0  0  0  0
  182.6081  128.4005   27.5037 C   0  0  0  0  0  0  0  0  0  0  0  0
  179.7239  127.0723   29.7501 O   0  0  0  0  0  0  0  0  0  0  0  0
  181.6147  127.4114   26.9899 C   0  0  0  0  0  0  0  0  0  0  0  0
  182.1993  124.4321   29.3304 C   0  0  0  0  0  0  0  0  0  0  0  0
  181.2837  121.5846   31.6625 C   0  0  0  0  0  0  0  0  0  0  0  0
  182.5233  120.7436   31.5563 C   0  0  0  0  0  0  0  0  0  0  0  0
  184.5818  120.1459   31.7148 C   0  0  0  0  0  0  0  0  0  0  0  0
  185.9448  120.0523   31.9853 C   0  0  0  0  0  0  0  0  0  0  0  0
  186.6787  119.0518   31.3615 C   0  0  0  0  0  0  0  0  0  0  0  0
  186.0669  118.1551   30.4893 C   0  0  0  0  0  0  0  0  0  0  0  0
  184.7079  118.2345   30.2263 C   0  0  0  0  0  0  0  0  0  0  0  0
  183.9868  119.2418   30.8453 C   0  0  0  0  0  0  0  0  0  0  0  0
  181.6476  119.0333   29.8615 C   0  0  0  0  0  0  0  0  0  0  0  0
  180.7640  126.5153   27.7088 C   0  0  0  0  0  0  0  0  0  0  0  0
  180.5416  118.1842   30.5294 C   0  0  1  0  0  0  0  0  0  0  0  0
  180.4069  116.7960   29.9154 C   0  0  0  0  0  0  0  0  0  0  0  0
  180.9128  118.0001   31.9998 C   0  0  0  0  0  0  0  0  0  0  0  0
  179.1936  118.8886   30.4533 C   0  0  0  0  0  0  0  0  0  0  0  0
  180.0674  125.8697   26.7012 C   0  0  0  0  0  0  0  0  0  0  0  0
  180.0216  126.0227   24.1726 C   0  0  0  0  0  0  0  0  0  0  0  0
  179.0630  124.7704   26.7548 C   0  0  0  0  0  0  0  0  0  0  0  0
  180.5275  126.3364   29.1881 C   0  0  0  0  0  0  0  0  0  0  0  0
  181.1921  125.3436   31.3180 C   0  0  0  0  0  0  0  0  0  0  0  0
  180.6804  123.9779   31.7175 C   0  0  0  0  0  0  0  0  0  0  0  0
  181.7318  123.0361   29.7146 C   0  0  0  0  0  0  0  0  0  0  0  0
  181.4231  127.3184   25.6878 N   0  0  0  0  0  0  0  0  0  0  0  0
  181.2602  125.4281   29.8580 N   0  0  0  0  0  0  0  0  0  0  0  0
  181.6464  122.9624   31.2046 N   0  0  2  0  0  0  0  0  0  0  0  0
  183.6427  121.0787   32.1604 N   0  0  0  0  0  0  0  0  0  0  0  0
  182.6568  119.6403   30.7515 N   0  0  0  0  0  0  0  0  0  0  0  0
  182.5991  128.3916   28.6037 H   0  0  0  0  0  0  0  0  0  0  0  0
  183.6122  128.1329   27.1431 H   0  0  0  0  0  0  0  0  0  0  0  0
  182.3449  129.4058   27.1431 H   0  0  0  0  0  0  0  0  0  0  0  0
  183.1992  124.6123   29.7520 H   0  0  0  0  0  0  0  0  0  0  0  0
  182.2416  124.5145   28.2343 H   0  0  0  0  0  0  0  0  0  0  0  0
  180.4908  121.1707   31.0222 H   0  0  0  0  0  0  0  0  0  0  0  0
  180.9093  121.6015   32.6967 H   0  0  0  0  0  0  0  0  0  0  0  0
  186.4297  120.7557   32.6782 H   0  0  0  0  0  0  0  0  0  0  0  0
  187.7574  118.9665   31.5589 H   0  0  0  0  0  0  0  0  0  0  0  0
  186.6694  117.3739   30.0028 H   0  0  0  0  0  0  0  0  0  0  0  0
  184.2182  117.5204   29.5479 H   0  0  0  0  0  0  0  0  0  0  0  0
  182.1798  118.3845   29.1503 H   0  0  0  0  0  0  0  0  0  0  0  0
  181.1188  119.8843   29.4074 H   0  0  0  0  0  0  0  0  0  0  0  0
  180.3341  116.0461   30.7168 H   0  0  0  0  0  0  0  0  0  0  0  0
  179.5007  116.7567   29.2931 H   0  0  0  0  0  0  0  0  0  0  0  0
  181.2886  116.5832   29.2931 H   0  0  0  0  0  0  0  0  0  0  0  0
  180.1076  118.3994   32.6340 H   0  0  0  0  0  0  0  0  0  0  0  0
  181.0500  116.9295   32.2121 H   0  0  0  0  0  0  0  0  0  0  0  0
  181.8481  118.5388   32.2121 H   0  0  0  0  0  0  0  0  0  0  0  0
  178.8232  119.0822   31.4708 H   0  0  0  0  0  0  0  0  0  0  0  0
  179.3080  119.8422   29.9171 H   0  0  0  0  0  0  0  0  0  0  0  0
  178.4761  118.2502   29.9171 H   0  0  0  0  0  0  0  0  0  0  0  0
  179.1568  125.3455   24.2319 H   0  0  0  0  0  0  0  0  0  0  0  0
  179.7341  126.9383   23.6351 H   0  0  0  0  0  0  0  0  0  0  0  0
  180.8416  125.5241   23.6351 H   0  0  0  0  0  0  0  0  0  0  0  0
  178.8409  124.5273   27.8044 H   0  0  0  0  0  0  0  0  0  0  0  0
  178.1402  125.0919   26.2497 H   0  0  0  0  0  0  0  0  0  0  0  0
  179.4663  123.8803   26.2497 H   0  0  0  0  0  0  0  0  0  0  0  0
  180.5095  126.1174   31.6991 H   0  0  0  0  0  0  0  0  0  0  0  0
  182.1947  125.4996   31.7427 H   0  0  0  0  0  0  0  0  0  0  0  0
  180.6117  123.9095   32.8132 H   0  0  0  0  0  0  0  0  0  0  0  0
  179.6792  123.8037   31.2965 H   0  0  0  0  0  0  0  0  0  0  0  0
  180.7422  122.8415   29.2755 H   0  0  0  0  0  0  0  0  0  0  0  0
  182.4395  122.2828   29.3382 H   0  0  0  0  0  0  0  0  0  0  0  0
  182.5763  123.1757   31.5928 H   0  0  0  0  0  0  0  0  0  0  0  0
  1 20  1  0
  1 21  1  0
  1 27  1  0
  2  4  1  0
  3 23  2  0
  4 15  1  0
  4 27  2  0
  5 26  1  0
  5 28  1  0
  6  7  1  0
 29  6  1  0
  7 30  2  0
  7 31  1  0
  8  9  2  0
  8 13  1  0
  8 30  1  0
  9 10  1  0
 10 11  2  0
 11 12  1  0
 12 13  2  0
 13 31  1  0
 16 14  1  6
 14 31  1  0
 15 20  2  0
 15 23  1  0
 16 17  1  0
 16 18  1  0
 16 19  1  0
 20 22  1  0
 23 28  1  0
 24 25  1  0
 24 28  1  0
 25 29  1  0
 26 29  1  0
  2 32  1  0
  2 33  1  0
  2 34  1  0
  5 35  1  0
  5 36  1  0
  6 37  1  0
  6 38  1  0
  9 39  1  0
 10 40  1  0
 11 41  1  0
 12 42  1  0
 14 43  1  0
 14 44  1  0
 17 45  1  0
 17 46  1  0
 17 47  1  0
 18 48  1  0
 18 49  1  0
 18 50  1  0
 19 51  1  0
 19 52  1  0
 19 53  1  0
 21 54  1  0
 21 55  1  0
 21 56  1  0
 22 57  1  0
 22 58  1  0
 22 59  1  0
 24 60  1  0
 24 61  1  0
 25 62  1  0
 25 63  1  0
 26 64  1  0
 26 65  1  0
 29 66  1  1
M  CHG  1  29   1
M  END
>  <filename_input>  (3) 
7RNI_60I_docked.sdf

>  <pdb_id>  (3) 
7RNI_60I

>  <pose_rank>  (3) 
2

>  <num_atoms_heavy>  (3) 
31

>  <num_torsions>  (3) 
5

>  <pose>  (3) 
[179.723860500396, 127.07231218754298, 29.750122005568794, 2.537921584574661, -3.746579863818633, 1.1387825463524106, -0.6044548289641324, -1.5160802996480467, -0.6262970062185247, 0.2921343432420915, -3.4440590436492773]

>  <energy>  (3) 
-671.9036428408408

>  <inter_energy>  (3) 
-696.7538380283336

>  <intra_energy>  (3) 
15.932765641271462

>  <rmsd>  (3) 
4.61777

>  <sdf_rank>  (3) 
0

$$$$

     RDKit          3D

 66 69  0  0  0  0  0  0  0  0999 V2000
  182.8534  128.8832   28.2121 N   0  0  0  0  0  0  0  0  0  0  0  0
  180.8092  127.6974   30.8747 C   0  0  0  0  0  0  0  0  0  0  0  0
  180.3805  125.4913   27.3717 O   0  0  0  0  0  0  0  0  0  0  0  0
  181.6112  127.8655   29.6266 C   0  0  0  0  0  0  0  0  0  0  0  0
  182.6103  124.5027   30.0783 C   0  0  0  0  0  0  0  0  0  0  0  0
  183.9169  121.0259   29.3104 C   0  0  0  0  0  0  0  0  0  0  0  0
  183.3526  119.7856   29.9417 C   0  0  0  0  0  0  0  0  0  0  0  0
  181.9191  118.3524   30.6563 C   0  0  0  0  0  0  0  0  0  0  0  0
  180.7688  117.6316   30.9677 C   0  0  0  0  0  0  0  0  0  0  0  0
  180.8671  116.5814   31.8710 C   0  0  0  0  0  0  0  0  0  0  0  0
  182.0893  116.2485   32.4495 C   0  0  0  0  0  0  0  0  0  0  0  0
  183.2406  116.9534   32.1332 C   0  0  0  0  0  0  0  0  0  0  0  0
  183.1304  118.0053   31.2393 C   0  0  0  0  0  0  0  0  0  0  0  0
  185.4590  119.0341   31.1920 C   0  0  0  0  0  0  0  0  0  0  0  0
  181.8100  126.9574   28.5407 C   0  0  0  0  0  0  0  0  0  0  0  0
  185.7551  119.8387   32.4785 C   0  0  1  0  0  0  0  0  0  0  0  0
  185.9941  118.9496   33.6928 C   0  0  0  0  0  0  0  0  0  0  0  0
  187.0303  120.6470   32.2452 C   0  0  0  0  0  0  0  0  0  0  0  0
  184.6191  120.8033   32.7911 C   0  0  0  0  0  0  0  0  0  0  0  0
  182.6276  127.6717   27.6814 C   0  0  0  0  0  0  0  0  0  0  0  0
  183.6412  129.9938   27.6893 C   0  0  0  0  0  0  0  0  0  0  0  0
  183.2607  127.2888   26.3880 C   0  0  0  0  0  0  0  0  0  0  0  0
  181.2210  125.5974   28.2581 C   0  0  0  0  0  0  0  0  0  0  0  0
  180.9038  123.2666   28.9141 C   0  0  0  0  0  0  0  0  0  0  0  0
  181.9084  122.2135   28.5040 C   0  0  0  0  0  0  0  0  0  0  0  0
  183.6445  123.4474   29.7153 C   0  0  0  0  0  0  0  0  0  0  0  0
  182.2330  129.0104   29.4181 N   0  0  0  0  0  0  0  0  0  0  0  0
  181.5790  124.5597   29.0364 N   0  0  0  0  0  0  0  0  0  0  0  0
  182.9462  122.1340   29.5737 N   0  0  2  0  0  0  0  0  0  0  0  0
  182.0803  119.4700   29.8344 N   0  0  0  0  0  0  0  0  0  0  0  0
  184.0477  118.9402   30.7693 N   0  0  0  0  0  0  0  0  0  0  0  0
  181.4607  127.8340   31.7504 H   0  0  0  0  0  0  0  0  0  0  0  0
  180.0037  128.4462   30.8966 H   0  0  0  0  0  0  0  0  0  0  0  0
  180.3723  126.6881   30.8966 H   0  0  0  0  0  0  0  0  0  0  0  0
  182.1447  124.2434   31.0405 H   0  0  0  0  0  0  0  0  0  0  0  0
  183.1021  125.4833   30.1596 H   0  0  0  0  0  0  0  0  0  0  0  0
  184.8934  121.2657   29.7566 H   0  0  0  0  0  0  0  0  0  0  0  0
  184.0644  120.8830   28.2298 H   0  0  0  0  0  0  0  0  0  0  0  0
  179.8031  117.8887   30.5080 H   0  0  0  0  0  0  0  0  0  0  0  0
  179.9677  116.0048   32.1331 H   0  0  0  0  0  0  0  0  0  0  0  0
  182.1420  115.4158   33.1663 H   0  0  0  0  0  0  0  0  0  0  0  0
  184.2103  116.6858   32.5781 H   0  0  0  0  0  0  0  0  0  0  0  0
  186.0207  119.5032   30.3707 H   0  0  0  0  0  0  0  0  0  0  0  0
  185.7558  118.0013   31.4268 H   0  0  0  0  0  0  0  0  0  0  0  0
  185.8371  119.5337   34.6116 H   0  0  0  0  0  0  0  0  0  0  0  0
  185.2915  118.1034   33.6717 H   0  0  0  0  0  0  0  0  0  0  0  0
  187.0262  118.5697   33.6717 H   0  0  0  0  0  0  0  0  0  0  0  0
  187.4701  120.9258   33.2141 H   0  0  0  0  0  0  0  0  0  0  0  0
  187.7503  120.0400   31.6767 H   0  0  0  0  0  0  0  0  0  0  0  0
  186.7886  121.5572   31.6767 H   0  0  0  0  0  0  0  0  0  0  0  0
  184.5078  120.8978   33.8814 H   0  0  0  0  0  0  0  0  0  0  0  0
  184.8457  121.7892   32.3589 H   0  0  0  0  0  0  0  0  0  0  0  0
  183.6830  120.4199   32.3589 H   0  0  0  0  0  0  0  0  0  0  0  0
  184.0544  130.5761   28.5261 H   0  0  0  0  0  0  0  0  0  0  0  0
  184.4643  129.6017   27.0738 H   0  0  0  0  0  0  0  0  0  0  0  0
  182.9992  130.6410   27.0738 H   0  0  0  0  0  0  0  0  0  0  0  0
  184.1867  126.7288   26.5847 H   0  0  0  0  0  0  0  0  0  0  0  0
  182.5665  126.6590   25.8122 H   0  0  0  0  0  0  0  0  0  0  0  0
  183.4961  128.1961   25.8122 H   0  0  0  0  0  0  0  0  0  0  0  0
  180.1129  123.3358   28.1527 H   0  0  0  0  0  0  0  0  0  0  0  0
  180.4569  122.9920   29.8810 H   0  0  0  0  0  0  0  0  0  0  0  0
  181.4075  121.2402   28.3952 H   0  0  0  0  0  0  0  0  0  0  0  0
  182.3688  122.4755   27.5399 H   0  0  0  0  0  0  0  0  0  0  0  0
  184.1305  123.7144   28.7653 H   0  0  0  0  0  0  0  0  0  0  0  0
  184.4131  123.3849   30.4998 H   0  0  0  0  0  0  0  0  0  0  0  0
  182.4763  121.9198   30.4649 H   0  0  0  0  0  0  0  0  0  0  0  0
  1 20  1  0
  1 21  1  0
  1 27  1  0
  2  4  1  0
  3 23  2  0
  4 15  1  0
  4 27  2  0
  5 26  1  0
  5 28  1  0
  6  7  1  0
 29  6  1  0
  7 30  2  0
  7 31  1  0
  8  9  2  0
  8 13  1  0
  8 30  1  0
  9 10  1  0
 10 11  2  0
 11 12  1  0
 12 13  2  0
 13 31  1  0
 16 14  1  6
 14 31  1  0
 15 20  2  0
 15 23  1  0
 16 17  1  0
 16 18  1  0
 16 19  1  0
 20 22  1  0
 23 28  1  0
 24 25  1  0
 24 28  1  0
 25 29  1  0
 26 29  1  0
  2 32  1  0
  2 33  1  0
  2 34  1  0
  5 35  1  0
  5 36  1  0
  6 37  1  0
  6 38  1  0
  9 39  1  0
 10 40  1  0
 11 41  1  0
 12 42  1  0
 14 43  1  0
 14 44  1  0
 17 45  1  0
 17 46  1  0
 17 47  1  0
 18 48  1  0
 18 49  1  0
 18 50  1  0
 19 51  1  0
 19 52  1  0
 19 53  1  0
 21 54  1  0
 21 55  1  0
 21 56  1  0
 22 57  1  0
 22 58  1  0
 22 59  1  0
 24 60  1  0
 24 61  1  0
 25 62  1  0
 25 63  1  0
 26 64  1  0
 26 65  1  0
 29 66  1  1
M  CHG  1  29   1
M  END
>  <filename_input>  (4) 
7RNI_60I_docked.sdf

>  <pdb_id>  (4) 
7RNI_60I

>  <pose_rank>  (4) 
3

>  <num_atoms_heavy>  (4) 
31

>  <num_torsions>  (4) 
5

>  <pose>  (4) 
[180.38048681102123, 125.49129788736884, 27.37172348638948, -0.20888542944229962, -0.3813839349801279, 0.1737826354763196, -0.1981126529862713, -0.2809833997945841, -0.8452934229209897, -3.0865813588756597, 0.5555504434711417]

>  <energy>  (4) 
-668.7984436223304

>  <inter_energy>  (4) 
-715.2974701915183

>  <intra_energy>  (4) 
26.972377664187107

>  <rmsd>  (4) 
2.23773

>  <sdf_rank>  (4) 
0

$$$$

     RDKit          3D

 66 69  0  0  0  0  0  0  0  0999 V2000
  187.5102  131.4214   29.1488 N   0  0  0  0  0  0  0  0  0  0  0  0
  185.5210  129.6229   31.4904 C   0  0  0  0  0  0  0  0  0  0  0  0
  188.9404  127.4320   29.7616 O   0  0  0  0  0  0  0  0  0  0  0  0
  186.5157  130.0591   30.4660 C   0  0  0  0  0  0  0  0  0  0  0  0
  185.3038  127.2331   29.6606 C   0  0  0  0  0  0  0  0  0  0  0  0
  184.2399  124.1899   31.6586 C   0  0  0  0  0  0  0  0  0  0  0  0
  183.4955  123.0991   30.9436 C   0  0  0  0  0  0  0  0  0  0  0  0
  182.0865  122.1289   29.6424 C   0  0  0  0  0  0  0  0  0  0  0  0
  181.1039  121.8188   28.7054 C   0  0  0  0  0  0  0  0  0  0  0  0
  180.6298  120.5148   28.6466 C   0  0  0  0  0  0  0  0  0  0  0  0
  181.1290  119.5339   29.4996 C   0  0  0  0  0  0  0  0  0  0  0  0
  182.1169  119.8330   30.4254 C   0  0  0  0  0  0  0  0  0  0  0  0
  182.5758  121.1383   30.4832 C   0  0  0  0  0  0  0  0  0  0  0  0
  184.1940  121.1471   32.4491 C   0  0  0  0  0  0  0  0  0  0  0  0
  187.4909  129.2916   29.7565 C   0  0  0  0  0  0  0  0  0  0  0  0
  185.6296  120.6395   32.1820 C   0  0  1  0  0  0  0  0  0  0  0  0
  185.8775  120.3042   30.7162 C   0  0  0  0  0  0  0  0  0  0  0  0
  186.6020  121.7529   32.5675 C   0  0  0  0  0  0  0  0  0  0  0  0
  185.9387  119.4107   33.0267 C   0  0  0  0  0  0  0  0  0  0  0  0
  188.0991  130.2333   28.9438 C   0  0  0  0  0  0  0  0  0  0  0  0
  187.7862  132.7135   28.5311 C   0  0  0  0  0  0  0  0  0  0  0  0
  189.2406  130.1153   27.9934 C   0  0  0  0  0  0  0  0  0  0  0  0
  187.7742  127.8097   29.7404 C   0  0  0  0  0  0  0  0  0  0  0  0
  186.9807  125.5213   29.4287 C   0  0  0  0  0  0  0  0  0  0  0  0
  186.3935  124.7510   30.5899 C   0  0  0  0  0  0  0  0  0  0  0  0
  184.6627  126.4713   30.8111 C   0  0  0  0  0  0  0  0  0  0  0  0
  186.5330  131.3246   30.0928 N   0  0  0  0  0  0  0  0  0  0  0  0
  186.7433  126.9524   29.6263 N   0  0  0  0  0  0  0  0  0  0  0  0
  184.9244  125.0135   30.6133 N   0  0  2  0  0  0  0  0  0  0  0  0
  182.6844  123.3554   29.9404 N   0  0  0  0  0  0  0  0  0  0  0  0
  183.4849  121.7794   31.3192 N   0  0  0  0  0  0  0  0  0  0  0  0
  185.9284  129.8015   32.4965 H   0  0  0  0  0  0  0  0  0  0  0  0
  184.5902  130.1954   31.3648 H   0  0  0  0  0  0  0  0  0  0  0  0
  185.3117  128.5503   31.3648 H   0  0  0  0  0  0  0  0  0  0  0  0
  184.8463  126.9164   28.7117 H   0  0  0  0  0  0  0  0  0  0  0  0
  185.1453  128.3122   29.8036 H   0  0  0  0  0  0  0  0  0  0  0  0
  183.5374  124.8139   32.2305 H   0  0  0  0  0  0  0  0  0  0  0  0
  184.9701  123.7678   32.3649 H   0  0  0  0  0  0  0  0  0  0  0  0
  180.7117  122.5903   28.0264 H   0  0  0  0  0  0  0  0  0  0  0  0
  179.8497  120.2533   27.9165 H   0  0  0  0  0  0  0  0  0  0  0  0
  180.7346  118.5089   29.4382 H   0  0  0  0  0  0  0  0  0  0  0  0
  182.5230  119.0584   31.0925 H   0  0  0  0  0  0  0  0  0  0  0  0
  183.5934  120.2860   32.7775 H   0  0  0  0  0  0  0  0  0  0  0  0
  184.3082  121.9456   33.1970 H   0  0  0  0  0  0  0  0  0  0  0  0
  186.5302  119.4215   30.6473 H   0  0  0  0  0  0  0  0  0  0  0  0
  184.9184  120.0907   30.2217 H   0  0  0  0  0  0  0  0  0  0  0  0
  186.3628  121.1586   30.2217 H   0  0  0  0  0  0  0  0  0  0  0  0
  186.6632  121.8230   33.6635 H   0  0  0  0  0  0  0  0  0  0  0  0
  187.5979  121.5279   32.1582 H   0  0  0  0  0  0  0  0  0  0  0  0
  186.2450  122.7094   32.1582 H   0  0  0  0  0  0  0  0  0  0  0  0
  185.8728  119.6728   34.0930 H   0  0  0  0  0  0  0  0  0  0  0  0
  185.2123  118.6168   32.7986 H   0  0  0  0  0  0  0  0  0  0  0  0
  186.9543  119.0550   32.7986 H   0  0  0  0  0  0  0  0  0  0  0  0
  187.9473  133.4678   29.3153 H   0  0  0  0  0  0  0  0  0  0  0  0
  188.6880  132.6359   27.9060 H   0  0  0  0  0  0  0  0  0  0  0  0
  186.9314  133.0111   27.9060 H   0  0  0  0  0  0  0  0  0  0  0  0
  190.1795  130.0183   28.5583 H   0  0  0  0  0  0  0  0  0  0  0  0
  189.1002  129.2269   27.3602 H   0  0  0  0  0  0  0  0  0  0  0  0
  189.2849  131.0137   27.3602 H   0  0  0  0  0  0  0  0  0  0  0  0
  188.0629  125.3329   29.3728 H   0  0  0  0  0  0  0  0  0  0  0  0
  186.5043  125.1952   28.4924 H   0  0  0  0  0  0  0  0  0  0  0  0
  186.5795  123.6750   30.4578 H   0  0  0  0  0  0  0  0  0  0  0  0
  186.8563  125.0687   31.5359 H   0  0  0  0  0  0  0  0  0  0  0  0
  185.0997  126.8014   31.7650 H   0  0  0  0  0  0  0  0  0  0  0  0
  183.5795  126.6617   30.8342 H   0  0  0  0  0  0  0  0  0  0  0  0
  184.5316  124.7349   29.7028 H   0  0  0  0  0  0  0  0  0  0  0  0
  1 20  1  0
  1 21  1  0
  1 27  1  0
  2  4  1  0
  3 23  2  0
  4 15  1  0
  4 27  2  0
  5 26  1  0
  5 28  1  0
  6  7  1  0
 29  6  1  0
  7 30  2  0
  7 31  1  0
  8  9  2  0
  8 13  1  0
  8 30  1  0
  9 10  1  0
 10 11  2  0
 11 12  1  0
 12 13  2  0
 13 31  1  0
 16 14  1  6
 14 31  1  0
 15 20  2  0
 15 23  1  0
 16 17  1  0
 16 18  1  0
 16 19  1  0
 20 22  1  0
 23 28  1  0
 24 25  1  0
 24 28  1  0
 25 29  1  0
 26 29  1  0
  2 32  1  0
  2 33  1  0
  2 34  1  0
  5 35  1  0
  5 36  1  0
  6 37  1  0
  6 38  1  0
  9 39  1  0
 10 40  1  0
 11 41  1  0
 12 42  1  0
 14 43  1  0
 14 44  1  0
 17 45  1  0
 17 46  1  0
 17 47  1  0
 18 48  1  0
 18 49  1  0
 18 50  1  0
 19 51  1  0
 19 52  1  0
 19 53  1  0
 21 54  1  0
 21 55  1  0
 21 56  1  0
 22 57  1  0
 22 58  1  0
 22 59  1  0
 24 60  1  0
 24 61  1  0
 25 62  1  0
 25 63  1  0
 26 64  1  0
 26 65  1  0
 29 66  1  6
M  CHG  1  29   1
M  END
>  <filename_input>  (5) 
7RNI_60I_docked.sdf

>  <pdb_id>  (5) 
7RNI_60I

>  <pose_rank>  (5) 
4

>  <num_atoms_heavy>  (5) 
31

>  <num_torsions>  (5) 
5

>  <pose>  (5) 
[188.9404499017012, 127.43198380138135, 29.761585008275922, -0.6863713877393315, -2.6534457099958733, -0.023098545392636106, 1.8138198776794354, -0.5865111547753723, -2.4893644297722117, 0.08631930008593473, -1.6606326025280909]

>  <energy>  (5) 
-365.11354070530393

>  <inter_energy>  (5) 
-415.3632074606086

>  <intra_energy>  (5) 
50.69880119490923

>  <rmsd>  (5) 
3.88301

>  <sdf_rank>  (5) 
0

$$$$

     RDKit          3D

 66 69  0  0  0  0  0  0  0  0999 V2000
  181.1174  117.8915   30.3740 N   0  0  0  0  0  0  0  0  0  0  0  0
  184.3279  117.6195   31.8884 C   0  0  0  0  0  0  0  0  0  0  0  0
  184.6215  120.3901   29.4512 O   0  0  0  0  0  0  0  0  0  0  0  0
  183.0938  118.0653   31.1759 C   0  0  0  0  0  0  0  0  0  0  0  0
  182.3712  121.9546   31.8520 C   0  0  0  0  0  0  0  0  0  0  0  0
  181.8641  125.5642   30.8039 C   0  0  0  0  0  0  0  0  0  0  0  0
  182.5094  126.6958   31.5511 C   0  0  0  0  0  0  0  0  0  0  0  0
  182.8660  128.1734   33.0707 C   0  0  0  0  0  0  0  0  0  0  0  0
  182.8390  128.9738   34.2101 C   0  0  0  0  0  0  0  0  0  0  0  0
  183.6049  130.1322   34.2266 C   0  0  0  0  0  0  0  0  0  0  0  0
  184.3899  130.4854   33.1321 C   0  0  0  0  0  0  0  0  0  0  0  0
  184.4316  129.6858   32.0000 C   0  0  0  0  0  0  0  0  0  0  0  0
  183.6566  128.5382   31.9893 C   0  0  0  0  0  0  0  0  0  0  0  0
  183.9647  127.5959   29.6441 C   0  0  0  0  0  0  0  0  0  0  0  0
  182.8195  119.3019   30.5133 C   0  0  0  0  0  0  0  0  0  0  0  0
  183.4664  128.7180   28.7045 C   0  0  1  0  0  0  0  0  0  0  0  0
  184.4534  129.8727   28.5836 C   0  0  0  0  0  0  0  0  0  0  0  0
  183.2886  128.1201   27.3100 C   0  0  0  0  0  0  0  0  0  0  0  0
  182.1247  129.2648   29.1732 C   0  0  0  0  0  0  0  0  0  0  0  0
  181.5312  119.1230   30.0384 C   0  0  0  0  0  0  0  0  0  0  0  0
  179.8462  117.2318   30.0983 C   0  0  0  0  0  0  0  0  0  0  0  0
  180.6192  120.0486   29.3091 C   0  0  0  0  0  0  0  0  0  0  0  0
  183.6918  120.5028   30.2426 C   0  0  0  0  0  0  0  0  0  0  0  0
  184.3973  122.7645   30.8347 C   0  0  0  0  0  0  0  0  0  0  0  0
  183.6679  123.9643   30.2736 C   0  0  0  0  0  0  0  0  0  0  0  0
  181.6087  123.1652   31.3343 C   0  0  0  0  0  0  0  0  0  0  0  0
  182.0755  117.2316   31.0826 N   0  0  0  0  0  0  0  0  0  0  0  0
  183.4702  121.6358   30.9339 N   0  0  0  0  0  0  0  0  0  0  0  0
  182.5643  124.3080   31.2177 N   0  0  2  0  0  0  0  0  0  0  0  0
  182.1580  127.0052   32.7802 N   0  0  0  0  0  0  0  0  0  0  0  0
  183.4159  127.5750   31.0143 N   0  0  0  0  0  0  0  0  0  0  0  0
  184.1655  117.6782   32.9747 H   0  0  0  0  0  0  0  0  0  0  0  0
  184.5585  116.5812   31.6076 H   0  0  0  0  0  0  0  0  0  0  0  0
  185.1688  118.2706   31.6076 H   0  0  0  0  0  0  0  0  0  0  0  0
  182.7798  122.1780   32.8485 H   0  0  0  0  0  0  0  0  0  0  0  0
  181.6892  121.0941   31.9181 H   0  0  0  0  0  0  0  0  0  0  0  0
  180.7962  125.5030   31.0604 H   0  0  0  0  0  0  0  0  0  0  0  0
  181.9430  125.7169   29.7174 H   0  0  0  0  0  0  0  0  0  0  0  0
  182.2242  128.6944   35.0785 H   0  0  0  0  0  0  0  0  0  0  0  0
  183.5912  130.7793   35.1160 H   0  0  0  0  0  0  0  0  0  0  0  0
  184.9844  131.4103   33.1659 H   0  0  0  0  0  0  0  0  0  0  0  0
  185.0602  129.9544   31.1382 H   0  0  0  0  0  0  0  0  0  0  0  0
  183.7161  126.6337   29.1725 H   0  0  0  0  0  0  0  0  0  0  0  0
  185.0407  127.7865   29.7706 H   0  0  0  0  0  0  0  0  0  0  0  0
  184.7444  130.2131   29.5883 H   0  0  0  0  0  0  0  0  0  0  0  0
  185.3469  129.5357   28.0376 H   0  0  0  0  0  0  0  0  0  0  0  0
  183.9815  130.7028   28.0376 H   0  0  0  0  0  0  0  0  0  0  0  0
  182.9761  127.0691   27.3988 H   0  0  0  0  0  0  0  0  0  0  0  0
  182.5199  128.6862   26.7636 H   0  0  0  0  0  0  0  0  0  0  0  0
  184.2417  128.1743   26.7636 H   0  0  0  0  0  0  0  0  0  0  0  0
  182.0972  129.2760   30.2728 H   0  0  0  0  0  0  0  0  0  0  0  0
  181.9928  130.2884   28.7926 H   0  0  0  0  0  0  0  0  0  0  0  0
  181.3148  128.6250   28.7926 H   0  0  0  0  0  0  0  0  0  0  0  0
  179.3526  116.9757   31.0474 H   0  0  0  0  0  0  0  0  0  0  0  0
  179.1999  117.9083   29.5198 H   0  0  0  0  0  0  0  0  0  0  0  0
  180.0273  116.3139   29.5198 H   0  0  0  0  0  0  0  0  0  0  0  0
  180.0386  120.6379   30.0341 H   0  0  0  0  0  0  0  0  0  0  0  0
  181.2127  120.7259   28.6775 H   0  0  0  0  0  0  0  0  0  0  0  0
  179.9331  119.4653   28.6775 H   0  0  0  0  0  0  0  0  0  0  0  0
  185.2312  122.4973   30.1690 H   0  0  0  0  0  0  0  0  0  0  0  0
  184.7902  123.0067   31.8332 H   0  0  0  0  0  0  0  0  0  0  0  0
  184.3603  124.8141   30.1816 H   0  0  0  0  0  0  0  0  0  0  0  0
  183.2641  123.7373   29.2759 H   0  0  0  0  0  0  0  0  0  0  0  0
  181.1775  122.9391   30.3479 H   0  0  0  0  0  0  0  0  0  0  0  0
  180.7929  123.4229   32.0257 H   0  0  0  0  0  0  0  0  0  0  0  0
  182.9752  124.4820   32.1460 H   0  0  0  0  0  0  0  0  0  0  0  0
  1 20  1  0
  1 21  1  0
  1 27  1  0
  2  4  1  0
  3 23  2  0
  4 15  1  0
  4 27  2  0
  5 26  1  0
  5 28  1  0
  6  7  1  0
 29  6  1  0
  7 30  2  0
  7 31  1  0
  8  9  2  0
  8 13  1  0
  8 30  1  0
  9 10  1  0
 10 11  2  0
 11 12  1  0
 12 13  2  0
 13 31  1  0
 16 14  1  1
 14 31  1  0
 15 20  2  0
 15 23  1  0
 16 17  1  0
 16 18  1  0
 16 19  1  0
 20 22  1  0
 23 28  1  0
 24 25  1  0
 24 28  1  0
 25 29  1  0
 26 29  1  0
  2 32  1  0
  2 33  1  0
  2 34  1  0
  5 35  1  0
  5 36  1  0
  6 37  1  0
  6 38  1  0
  9 39  1  0
 10 40  1  0
 11 41  1  0
 12 42  1  0
 14 43  1  0
 14 44  1  0
 17 45  1  0
 17 46  1  0
 17 47  1  0
 18 48  1  0
 18 49  1  0
 18 50  1  0
 19 51  1  0
 19 52  1  0
 19 53  1  0
 21 54  1  0
 21 55  1  0
 21 56  1  0
 22 57  1  0
 22 58  1  0
 22 59  1  0
 24 60  1  0
 24 61  1  0
 25 62  1  0
 25 63  1  0
 26 64  1  0
 26 65  1  0
 29 66  1  1
M  CHG  1  29   1
M  END
>  <filename_input>  (6) 
7RNI_60I_docked.sdf

>  <pdb_id>  (6) 
7RNI_60I

>  <pose_rank>  (6) 
5

>  <num_atoms_heavy>  (6) 
31

>  <num_torsions>  (6) 
5

>  <pose>  (6) 
[184.62149134539482, 120.39006891780144, 29.451221196935837, 0.3997104680685277, -0.2868191794772596, 3.083454660312859, -0.8717700065980758, -0.37828206261656455, 3.22254727051772, 3.5032894969205497, 0.5359620871411802]

>  <energy>  (6) 
-625.6160525766895

>  <inter_energy>  (6) 
-646.3166204039097

>  <intra_energy>  (6) 
21.34077883093109

>  <rmsd>  (6) 
9.36717

>  <sdf_rank>  (6) 
0

$$$$

     RDKit          3D

 66 69  0  0  0  0  0  0  0  0999 V2000
  180.8088  118.4462   30.1383 N   0  0  0  0  0  0  0  0  0  0  0  0
  183.6474  118.4231   32.2869 C   0  0  0  0  0  0  0  0  0  0  0  0
  184.2761  120.7874   29.0827 O   0  0  0  0  0  0  0  0  0  0  0  0
  182.6009  118.7404   31.2704 C   0  0  0  0  0  0  0  0  0  0  0  0
  182.6642  122.3625   31.9455 C   0  0  0  0  0  0  0  0  0  0  0  0
  182.4986  126.0948   31.2911 C   0  0  0  0  0  0  0  0  0  0  0  0
  182.1347  126.2246   29.8399 C   0  0  0  0  0  0  0  0  0  0  0  0
  181.1460  125.8764   27.9635 C   0  0  0  0  0  0  0  0  0  0  0  0
  180.3114  125.4450   26.9354 C   0  0  0  0  0  0  0  0  0  0  0  0
  180.6495  125.7645   25.6269 C   0  0  0  0  0  0  0  0  0  0  0  0
  181.7938  126.5064   25.3454 C   0  0  0  0  0  0  0  0  0  0  0  0
  182.6215  126.9504   26.3653 C   0  0  0  0  0  0  0  0  0  0  0  0
  182.2813  126.6180   27.6659 C   0  0  0  0  0  0  0  0  0  0  0  0
  184.2160  127.5023   29.0652 C   0  0  0  0  0  0  0  0  0  0  0  0
  182.5303  119.8249   30.3417 C   0  0  0  0  0  0  0  0  0  0  0  0
  184.1955  129.0210   29.3538 C   0  0  1  0  0  0  0  0  0  0  0  0
  183.0022  129.4482   30.1999 C   0  0  0  0  0  0  0  0  0  0  0  0
  185.4599  129.3684   30.1376 C   0  0  0  0  0  0  0  0  0  0  0  0
  184.1919  129.8215   28.0584 C   0  0  0  0  0  0  0  0  0  0  0  0
  181.3492  119.5784   29.6624 C   0  0  0  0  0  0  0  0  0  0  0  0
  179.5785  117.7681   29.7461 C   0  0  0  0  0  0  0  0  0  0  0  0
  180.6490  120.3566   28.6020 C   0  0  0  0  0  0  0  0  0  0  0  0
  183.5058  120.9317   30.0256 C   0  0  0  0  0  0  0  0  0  0  0  0
  184.5981  123.0185   30.6704 C   0  0  0  0  0  0  0  0  0  0  0  0
  183.9612  124.3491   30.3382 C   0  0  0  0  0  0  0  0  0  0  0  0
  182.0032  123.7034   31.6624 C   0  0  0  0  0  0  0  0  0  0  0  0
  181.5734  117.9235   31.1371 N   0  0  0  0  0  0  0  0  0  0  0  0
  183.5522  122.0071   30.8331 N   0  0  0  0  0  0  0  0  0  0  0  0
  183.0762  124.7271   31.4790 N   0  0  2  0  0  0  0  0  0  0  0  0
  181.0648  125.6466   29.3387 N   0  0  0  0  0  0  0  0  0  0  0  0
  182.9111  126.8354   28.8876 N   0  0  0  0  0  0  0  0  0  0  0  0
  183.2287  118.5500   33.2961 H   0  0  0  0  0  0  0  0  0  0  0  0
  183.9816  117.3832   32.1567 H   0  0  0  0  0  0  0  0  0  0  0  0
  184.5029  119.1022   32.1567 H   0  0  0  0  0  0  0  0  0  0  0  0
  183.2502  122.4320   32.8738 H   0  0  0  0  0  0  0  0  0  0  0  0
  181.8896  121.5894   32.0560 H   0  0  0  0  0  0  0  0  0  0  0  0
  183.2415  126.8588   31.5637 H   0  0  0  0  0  0  0  0  0  0  0  0
  181.6152  126.2381   31.9307 H   0  0  0  0  0  0  0  0  0  0  0  0
  179.4037  124.8636   27.1551 H   0  0  0  0  0  0  0  0  0  0  0  0
  180.0049  125.4271   24.8019 H   0  0  0  0  0  0  0  0  0  0  0  0
  182.0442  126.7432   24.3008 H   0  0  0  0  0  0  0  0  0  0  0  0
  183.5195  127.5475   26.1484 H   0  0  0  0  0  0  0  0  0  0  0  0
  184.7957  127.3477   28.1432 H   0  0  0  0  0  0  0  0  0  0  0  0
  184.6490  127.0462   29.9677 H   0  0  0  0  0  0  0  0  0  0  0  0
  183.2572  129.3569   31.2660 H   0  0  0  0  0  0  0  0  0  0  0  0
  182.7468  130.4936   29.9722 H   0  0  0  0  0  0  0  0  0  0  0  0
  182.1413  128.8025   29.9722 H   0  0  0  0  0  0  0  0  0  0  0  0
  185.2503  129.3108   31.2159 H   0  0  0  0  0  0  0  0  0  0  0  0
  186.2579  128.6562   29.8807 H   0  0  0  0  0  0  0  0  0  0  0  0
  185.7820  130.3883   29.8807 H   0  0  0  0  0  0  0  0  0  0  0  0
  184.1869  130.8965   28.2917 H   0  0  0  0  0  0  0  0  0  0  0  0
  185.0911  129.5772   27.4739 H   0  0  0  0  0  0  0  0  0  0  0  0
  183.2949  129.5690   27.4739 H   0  0  0  0  0  0  0  0  0  0  0  0
  179.0250  117.4630   30.6463 H   0  0  0  0  0  0  0  0  0  0  0  0
  178.9578  118.4515   29.1480 H   0  0  0  0  0  0  0  0  0  0  0  0
  179.8249  116.8784   29.1480 H   0  0  0  0  0  0  0  0  0  0  0  0
  179.9830  121.0967   29.0697 H   0  0  0  0  0  0  0  0  0  0  0  0
  181.3912  120.8745   27.9768 H   0  0  0  0  0  0  0  0  0  0  0  0
  180.0558  119.6730   27.9768 H   0  0  0  0  0  0  0  0  0  0  0  0
  185.2732  122.7206   29.8546 H   0  0  0  0  0  0  0  0  0  0  0  0
  185.1716  123.1082   31.6048 H   0  0  0  0  0  0  0  0  0  0  0  0
  184.7404  125.1130   30.1996 H   0  0  0  0  0  0  0  0  0  0  0  0
  183.3792  124.2755   29.4076 H   0  0  0  0  0  0  0  0  0  0  0  0
  181.3964  123.6330   30.7476 H   0  0  0  0  0  0  0  0  0  0  0  0
  181.3485  123.9871   32.4996 H   0  0  0  0  0  0  0  0  0  0  0  0
  183.6471  124.7543   32.3359 H   0  0  0  0  0  0  0  0  0  0  0  0
  1 20  1  0
  1 21  1  0
  1 27  1  0
  2  4  1  0
  3 23  2  0
  4 15  1  0
  4 27  2  0
  5 26  1  0
  5 28  1  0
  6  7  1  0
 29  6  1  0
  7 30  2  0
  7 31  1  0
  8  9  2  0
  8 13  1  0
  8 30  1  0
  9 10  1  0
 10 11  2  0
 11 12  1  0
 12 13  2  0
 13 31  1  0
 16 14  1  6
 14 31  1  0
 15 20  2  0
 15 23  1  0
 16 17  1  0
 16 18  1  0
 16 19  1  0
 20 22  1  0
 23 28  1  0
 24 25  1  0
 24 28  1  0
 25 29  1  0
 26 29  1  0
  2 32  1  0
  2 33  1  0
  2 34  1  0
  5 35  1  0
  5 36  1  0
  6 37  1  0
  6 38  1  0
  9 39  1  0
 10 40  1  0
 11 41  1  0
 12 42  1  0
 14 43  1  0
 14 44  1  0
 17 45  1  0
 17 46  1  0
 17 47  1  0
 18 48  1  0
 18 49  1  0
 18 50  1  0
 19 51  1  0
 19 52  1  0
 19 53  1  0
 21 54  1  0
 21 55  1  0
 21 56  1  0
 22 57  1  0
 22 58  1  0
 22 59  1  0
 24 60  1  0
 24 61  1  0
 25 62  1  0
 25 63  1  0
 26 64  1  0
 26 65  1  0
 29 66  1  1
M  CHG  1  29   1
M  END
>  <filename_input>  (7) 
7RNI_60I_docked.sdf

>  <pdb_id>  (7) 
7RNI_60I

>  <pose_rank>  (7) 
6

>  <num_atoms_heavy>  (7) 
31

>  <num_torsions>  (7) 
5

>  <pose>  (7) 
[184.276073229612, 120.78740445212854, 29.082657251653785, 0.6065297074687436, -0.43195686140392014, 2.896313924111204, -0.3988919837393956, 1.965044417003178, -0.2735646434627917, 0.030801384711989364, -0.613492254834899]

>  <energy>  (7) 
-623.2335289588896

>  <inter_energy>  (7) 
-650.7181103661625

>  <intra_energy>  (7) 
37.68424456581226

>  <rmsd>  (7) 
8.40344

>  <sdf_rank>  (7) 
0

$$$$

     RDKit          3D

 66 69  0  0  0  0  0  0  0  0999 V2000
  185.3092  128.6787   28.2037 N   0  0  0  0  0  0  0  0  0  0  0  0
  181.8728  129.6055   28.2847 C   0  0  0  0  0  0  0  0  0  0  0  0
  181.9337  125.9325   27.6051 O   0  0  0  0  0  0  0  0  0  0  0  0
  183.1828  128.8901   28.3198 C   0  0  0  0  0  0  0  0  0  0  0  0
  183.0436  126.0181   31.0743 C   0  0  0  0  0  0  0  0  0  0  0  0
  183.2848  122.4427   32.3168 C   0  0  0  0  0  0  0  0  0  0  0  0
  182.4432  121.2951   31.8375 C   0  0  0  0  0  0  0  0  0  0  0  0
  180.8860  119.8147   31.7788 C   0  0  0  0  0  0  0  0  0  0  0  0
  179.7659  119.0215   32.0153 C   0  0  0  0  0  0  0  0  0  0  0  0
  179.6259  117.8394   31.2998 C   0  0  0  0  0  0  0  0  0  0  0  0
  180.5793  117.4558   30.3602 C   0  0  0  0  0  0  0  0  0  0  0  0
  181.6897  118.2477   30.1104 C   0  0  0  0  0  0  0  0  0  0  0  0
  181.8254  119.4193   30.8361 C   0  0  0  0  0  0  0  0  0  0  0  0
  184.0901  120.3393   30.1231 C   0  0  0  0  0  0  0  0  0  0  0  0
  183.4576  127.4979   28.4920 C   0  0  0  0  0  0  0  0  0  0  0  0
  185.3411  119.8187   30.8675 C   0  0  1  0  0  0  0  0  0  0  0  0
  186.2719  120.9379   31.3184 C   0  0  0  0  0  0  0  0  0  0  0  0
  184.8709  119.0820   32.1204 C   0  0  0  0  0  0  0  0  0  0  0  0
  186.1266  118.8460   29.9982 C   0  0  0  0  0  0  0  0  0  0  0  0
  184.8393  127.4410   28.4220 C   0  0  0  0  0  0  0  0  0  0  0  0
  186.6856  129.1353   28.0477 C   0  0  0  0  0  0  0  0  0  0  0  0
  185.7815  126.2980   28.5838 C   0  0  0  0  0  0  0  0  0  0  0  0
  182.5384  126.3067   28.6039 C   0  0  0  0  0  0  0  0  0  0  0  0
  181.3391  124.7010   29.9992 C   0  0  0  0  0  0  0  0  0  0  0  0
  182.0114  123.4208   30.4416 C   0  0  0  0  0  0  0  0  0  0  0  0
  183.7315  124.7538   31.5677 C   0  0  0  0  0  0  0  0  0  0  0  0
  184.2920  129.5828   28.1443 N   0  0  0  0  0  0  0  0  0  0  0  0
  182.3522  125.7408   29.8105 N   0  0  0  0  0  0  0  0  0  0  0  0
  182.6950  123.6915   31.7404 N   0  0  2  0  0  0  0  0  0  0  0  0
  181.2870  121.0034   32.3926 N   0  0  0  0  0  0  0  0  0  0  0  0
  182.8265  120.3847   30.8851 N   0  0  0  0  0  0  0  0  0  0  0  0
  181.5296  129.7928   29.3128 H   0  0  0  0  0  0  0  0  0  0  0  0
  181.9922  130.5636   27.7576 H   0  0  0  0  0  0  0  0  0  0  0  0
  181.1313  128.9870   27.7576 H   0  0  0  0  0  0  0  0  0  0  0  0
  182.3132  126.3543   31.8250 H   0  0  0  0  0  0  0  0  0  0  0  0
  183.7957  126.8046   30.9144 H   0  0  0  0  0  0  0  0  0  0  0  0
  183.2681  122.4898   33.4157 H   0  0  0  0  0  0  0  0  0  0  0  0
  184.3308  122.3208   31.9991 H   0  0  0  0  0  0  0  0  0  0  0  0
  179.0083  119.3248   32.7529 H   0  0  0  0  0  0  0  0  0  0  0  0
  178.7504  117.1977   31.4778 H   0  0  0  0  0  0  0  0  0  0  0  0
  180.4498  116.5126   29.8091 H   0  0  0  0  0  0  0  0  0  0  0  0
  182.4387  117.9548   29.3600 H   0  0  0  0  0  0  0  0  0  0  0  0
  184.3086  121.3619   29.7820 H   0  0  0  0  0  0  0  0  0  0  0  0
  183.9124  119.6098   29.3191 H   0  0  0  0  0  0  0  0  0  0  0  0
  186.2996  120.9713   32.4176 H   0  0  0  0  0  0  0  0  0  0  0  0
  187.2845  120.7509   30.9316 H   0  0  0  0  0  0  0  0  0  0  0  0
  185.9034  121.8995   30.9316 H   0  0  0  0  0  0  0  0  0  0  0  0
  185.2157  119.6222   33.0145 H   0  0  0  0  0  0  0  0  0  0  0  0
  183.7721  119.0299   32.1245 H   0  0  0  0  0  0  0  0  0  0  0  0
  185.2862  118.0635   32.1245 H   0  0  0  0  0  0  0  0  0  0  0  0
  186.6877  118.1512   30.6404 H   0  0  0  0  0  0  0  0  0  0  0  0
  185.4310  118.2778   29.3631 H   0  0  0  0  0  0  0  0  0  0  0  0
  186.8285  119.4063   29.3631 H   0  0  0  0  0  0  0  0  0  0  0  0
  187.1369  129.2850   29.0396 H   0  0  0  0  0  0  0  0  0  0  0  0
  187.2617  128.3802   27.4929 H   0  0  0  0  0  0  0  0  0  0  0  0
  186.6961  130.0851   27.4929 H   0  0  0  0  0  0  0  0  0  0  0  0
  185.9418  126.1036   29.6545 H   0  0  0  0  0  0  0  0  0  0  0  0
  185.3561  125.4020   28.1081 H   0  0  0  0  0  0  0  0  0  0  0  0
  186.7422  126.5446   28.1081 H   0  0  0  0  0  0  0  0  0  0  0  0
  180.8088  124.5286   29.0511 H   0  0  0  0  0  0  0  0  0  0  0  0
  180.6199  125.0231   30.7667 H   0  0  0  0  0  0  0  0  0  0  0  0
  181.2593  122.6287   30.5722 H   0  0  0  0  0  0  0  0  0  0  0  0
  182.7381  123.0869   29.6864 H   0  0  0  0  0  0  0  0  0  0  0  0
  184.4803  124.4264   30.8314 H   0  0  0  0  0  0  0  0  0  0  0  0
  184.2383  124.9474   32.5246 H   0  0  0  0  0  0  0  0  0  0  0  0
  181.9915  124.0320   32.4113 H   0  0  0  0  0  0  0  0  0  0  0  0
  1 20  1  0
  1 21  1  0
  1 27  1  0
  2  4  1  0
  3 23  2  0
  4 15  1  0
  4 27  2  0
  5 26  1  0
  5 28  1  0
  6  7  1  0
 29  6  1  0
  7 30  2  0
  7 31  1  0
  8  9  2  0
  8 13  1  0
  8 30  1  0
  9 10  1  0
 10 11  2  0
 11 12  1  0
 12 13  2  0
 13 31  1  0
 16 14  1  6
 14 31  1  0
 15 20  2  0
 15 23  1  0
 16 17  1  0
 16 18  1  0
 16 19  1  0
 20 22  1  0
 23 28  1  0
 24 25  1  0
 24 28  1  0
 25 29  1  0
 26 29  1  0
  2 32  1  0
  2 33  1  0
  2 34  1  0
  5 35  1  0
  5 36  1  0
  6 37  1  0
  6 38  1  0
  9 39  1  0
 10 40  1  0
 11 41  1  0
 12 42  1  0
 14 43  1  0
 14 44  1  0
 17 45  1  0
 17 46  1  0
 17 47  1  0
 18 48  1  0
 18 49  1  0
 18 50  1  0
 19 51  1  0
 19 52  1  0
 19 53  1  0
 21 54  1  0
 21 55  1  0
 21 56  1  0
 22 57  1  0
 22 58  1  0
 22 59  1  0
 24 60  1  0
 24 61  1  0
 25 62  1  0
 25 63  1  0
 26 64  1  0
 26 65  1  0
 29 66  1  1
M  CHG  1  29   1
M  END
>  <filename_input>  (8) 
7RNI_60I_docked.sdf

>  <pdb_id>  (8) 
7RNI_60I

>  <pose_rank>  (8) 
7

>  <num_atoms_heavy>  (8) 
31

>  <num_torsions>  (8) 
5

>  <pose>  (8) 
[181.9337122084373, 125.93252591076269, 27.60507889743711, -0.7652259292783985, -0.6121201858442753, -0.039102730630463406, -0.8228960038126286, -5.521700446456224, 3.300974235932882, -3.321624321496104, 3.2866388033916105]

>  <energy>  (8) 
-611.4723833081375

>  <inter_energy>  (8) 
-645.3466971816409

>  <intra_energy>  (8) 
37.38807362365555

>  <rmsd>  (8) 
2.40742

>  <sdf_rank>  (8) 
0

$$$$

     RDKit          3D

 66 69  0  0  0  0  0  0  0  0999 V2000
  180.9704  129.6062   27.2573 N   0  0  0  0  0  0  0  0  0  0  0  0
  183.6753  128.1869   29.0857 C   0  0  0  0  0  0  0  0  0  0  0  0
  182.5448  125.8044   25.8274 O   0  0  0  0  0  0  0  0  0  0  0  0
  182.5384  128.4616   28.1578 C   0  0  0  0  0  0  0  0  0  0  0  0
  181.2085  125.4426   29.1976 C   0  0  0  0  0  0  0  0  0  0  0  0
  182.9399  122.4920   30.8351 C   0  0  0  0  0  0  0  0  0  0  0  0
  182.4318  121.0793   30.7973 C   0  0  0  0  0  0  0  0  0  0  0  0
  181.1738  119.3721   31.1473 C   0  0  0  0  0  0  0  0  0  0  0  0
  180.1542  118.4975   31.5148 C   0  0  0  0  0  0  0  0  0  0  0  0
  180.3833  117.1313   31.4166 C   0  0  0  0  0  0  0  0  0  0  0  0
  181.6025  116.6427   30.9542 C   0  0  0  0  0  0  0  0  0  0  0  0
  182.6167  117.5083   30.5739 C   0  0  0  0  0  0  0  0  0  0  0  0
  182.3822  118.8685   30.6851 C   0  0  0  0  0  0  0  0  0  0  0  0
  184.6040  119.9410   30.0551 C   0  0  0  0  0  0  0  0  0  0  0  0
  181.8983  127.5954   27.2179 C   0  0  0  0  0  0  0  0  0  0  0  0
  185.6501  119.7149   31.1708 C   0  0  1  0  0  0  0  0  0  0  0  0
  185.0202  119.3533   32.5105 C   0  0  0  0  0  0  0  0  0  0  0  0
  186.5390  118.5449   30.7526 C   0  0  0  0  0  0  0  0  0  0  0  0
  186.5248  120.9477   31.3552 C   0  0  0  0  0  0  0  0  0  0  0  0
  180.9156  128.4016   26.6688 C   0  0  0  0  0  0  0  0  0  0  0  0
  180.1459  130.7880   27.0321 C   0  0  0  0  0  0  0  0  0  0  0  0
  179.9280  128.1404   25.5839 C   0  0  0  0  0  0  0  0  0  0  0  0
  182.0933  126.1293   26.9201 C   0  0  0  0  0  0  0  0  0  0  0  0
  181.7007  123.7934   27.5143 C   0  0  0  0  0  0  0  0  0  0  0  0
  182.6421  123.0752   28.4548 C   0  0  0  0  0  0  0  0  0  0  0  0
  182.1206  124.7299   30.1851 C   0  0  0  0  0  0  0  0  0  0  0  0
  181.9748  129.6544   28.1762 N   0  0  0  0  0  0  0  0  0  0  0  0
  181.6951  125.2226   27.8312 N   0  0  0  0  0  0  0  0  0  0  0  0
  182.1364  123.2750   29.8447 N   0  0  2  0  0  0  0  0  0  0  0  0
  181.2200  120.7669   31.2021 N   0  0  0  0  0  0  0  0  0  0  0  0
  183.1860  119.9827   30.4635 N   0  0  0  0  0  0  0  0  0  0  0  0
  183.3281  128.2708   30.1261 H   0  0  0  0  0  0  0  0  0  0  0  0
  184.0569  127.1707   28.9074 H   0  0  0  0  0  0  0  0  0  0  0  0
  184.4788  128.9167   28.9074 H   0  0  0  0  0  0  0  0  0  0  0  0
  180.1868  125.0457   29.2907 H   0  0  0  0  0  0  0  0  0  0  0  0
  181.2058  126.5208   29.4154 H   0  0  0  0  0  0  0  0  0  0  0  0
  182.8102  122.9128   31.8432 H   0  0  0  0  0  0  0  0  0  0  0  0
  184.0110  122.5298   30.5878 H   0  0  0  0  0  0  0  0  0  0  0  0
  179.1880  118.8806   31.8751 H   0  0  0  0  0  0  0  0  0  0  0  0
  179.5913  116.4258   31.7081 H   0  0  0  0  0  0  0  0  0  0  0  0
  181.7630  115.5564   30.8897 H   0  0  0  0  0  0  0  0  0  0  0  0
  183.5768  117.1267   30.1961 H   0  0  0  0  0  0  0  0  0  0  0  0
  184.8379  120.9004   29.5706 H   0  0  0  0  0  0  0  0  0  0  0  0
  184.6873  119.0591   29.4029 H   0  0  0  0  0  0  0  0  0  0  0  0
  185.6594  119.7202   33.3271 H   0  0  0  0  0  0  0  0  0  0  0  0
  184.0262  119.8184   32.5858 H   0  0  0  0  0  0  0  0  0  0  0  0
  184.9204  118.2605   32.5858 H   0  0  0  0  0  0  0  0  0  0  0  0
  186.9241  118.0380   31.6497 H   0  0  0  0  0  0  0  0  0  0  0  0
  185.9513  117.8338   30.1535 H   0  0  0  0  0  0  0  0  0  0  0  0
  187.3816  118.9205   30.1535 H   0  0  0  0  0  0  0  0  0  0  0  0
  186.6627  121.1421   32.4290 H   0  0  0  0  0  0  0  0  0  0  0  0
  187.5042  120.7760   30.8848 H   0  0  0  0  0  0  0  0  0  0  0  0
  186.0392  121.8154   30.8848 H   0  0  0  0  0  0  0  0  0  0  0  0
  179.8470  131.2165   28.0002 H   0  0  0  0  0  0  0  0  0  0  0  0
  180.7211  131.5334   26.4632 H   0  0  0  0  0  0  0  0  0  0  0  0
  179.2478  130.5057   26.4632 H   0  0  0  0  0  0  0  0  0  0  0  0
  178.9551  127.8830   26.0280 H   0  0  0  0  0  0  0  0  0  0  0  0
  179.8203  129.0409   24.9615 H   0  0  0  0  0  0  0  0  0  0  0  0
  180.2797  127.3044   24.9615 H   0  0  0  0  0  0  0  0  0  0  0  0
  182.0367  123.6486   26.4770 H   0  0  0  0  0  0  0  0  0  0  0  0
  180.6850  123.3871   27.6293 H   0  0  0  0  0  0  0  0  0  0  0  0
  182.6643  122.0019   28.2151 H   0  0  0  0  0  0  0  0  0  0  0  0
  183.6628  123.4732   28.3557 H   0  0  0  0  0  0  0  0  0  0  0  0
  183.1389  125.1396   30.1132 H   0  0  0  0  0  0  0  0  0  0  0  0
  181.7535  124.8745   31.2119 H   0  0  0  0  0  0  0  0  0  0  0  0
  181.1701  122.9214   29.8912 H   0  0  0  0  0  0  0  0  0  0  0  0
  1 20  1  0
  1 21  1  0
  1 27  1  0
  2  4  1  0
  3 23  2  0
  4 15  1  0
  4 27  2  0
  5 26  1  0
  5 28  1  0
  6  7  1  0
 29  6  1  0
  7 30  2  0
  7 31  1  0
  8  9  2  0
  8 13  1  0
  8 30  1  0
  9 10  1  0
 10 11  2  0
 11 12  1  0
 12 13  2  0
 13 31  1  0
 16 14  1  6
 14 31  1  0
 15 20  2  0
 15 23  1  0
 16 17  1  0
 16 18  1  0
 16 19  1  0
 20 22  1  0
 23 28  1  0
 24 25  1  0
 24 28  1  0
 25 29  1  0
 26 29  1  0
  2 32  1  0
  2 33  1  0
  2 34  1  0
  5 35  1  0
  5 36  1  0
  6 37  1  0
  6 38  1  0
  9 39  1  0
 10 40  1  0
 11 41  1  0
 12 42  1  0
 14 43  1  0
 14 44  1  0
 17 45  1  0
 17 46  1  0
 17 47  1  0
 18 48  1  0
 18 49  1  0
 18 50  1  0
 19 51  1  0
 19 52  1  0
 19 53  1  0
 21 54  1  0
 21 55  1  0
 21 56  1  0
 22 57  1  0
 22 58  1  0
 22 59  1  0
 24 60  1  0
 24 61  1  0
 25 62  1  0
 25 63  1  0
 26 64  1  0
 26 65  1  0
 29 66  1  6
M  CHG  1  29   1
M  END
>  <filename_input>  (9) 
7RNI_60I_docked.sdf

>  <pdb_id>  (9) 
7RNI_60I

>  <pose_rank>  (9) 
8

>  <num_atoms_heavy>  (9) 
31

>  <num_torsions>  (9) 
5

>  <pose>  (9) 
[182.5447715582675, 125.80435416590223, 25.82741078705489, 1.1499140908210868, 4.439328963275668, -1.0154129220845716, 2.2365081264118203, -0.14688366765278701, -2.7656108216962743, 3.2465183752665627, -1.0607161026536902]

>  <energy>  (9) 
-642.4535637390188

>  <inter_energy>  (9) 
-651.2784848118779

>  <intra_energy>  (9) 
16.410072583376827

>  <rmsd>  (9) 
2.68056

>  <sdf_rank>  (9) 
0

$$$$

     RDKit          3D

 66 69  0  0  0  0  0  0  0  0999 V2000
  182.1034  126.5709   26.0007 N   0  0  0  0  0  0  0  0  0  0  0  0
  181.1721  123.3408   27.1728 C   0  0  0  0  0  0  0  0  0  0  0  0
  180.2026  126.4150   29.9056 O   0  0  0  0  0  0  0  0  0  0  0  0
  181.4810  124.7932   27.0166 C   0  0  0  0  0  0  0  0  0  0  0  0
  183.2385  124.4005   29.9217 C   0  0  0  0  0  0  0  0  0  0  0  0
  182.8843  121.7676   32.6286 C   0  0  0  0  0  0  0  0  0  0  0  0
  182.2820  120.8228   31.6286 C   0  0  0  0  0  0  0  0  0  0  0  0
  180.8536  119.9344   30.2906 C   0  0  0  0  0  0  0  0  0  0  0  0
  179.7455  119.6339   29.5022 C   0  0  0  0  0  0  0  0  0  0  0  0
  179.6624  118.3729   28.9262 C   0  0  0  0  0  0  0  0  0  0  0  0
  180.6670  117.4292   29.1243 C   0  0  0  0  0  0  0  0  0  0  0  0
  181.7792  117.7269   29.8968 C   0  0  0  0  0  0  0  0  0  0  0  0
  181.8480  118.9832   30.4752 C   0  0  0  0  0  0  0  0  0  0  0  0
  183.9519  118.8996   31.9070 C   0  0  0  0  0  0  0  0  0  0  0  0
  181.4476  125.8424   27.9869 C   0  0  0  0  0  0  0  0  0  0  0  0
  185.2739  119.0284   31.1158 C   0  0  1  0  0  0  0  0  0  0  0  0
  186.4949  119.1607   32.0179 C   0  0  0  0  0  0  0  0  0  0  0  0
  185.4525  117.7572   30.2876 C   0  0  0  0  0  0  0  0  0  0  0  0
  185.2289  120.2215   30.1707 C   0  0  0  0  0  0  0  0  0  0  0  0
  181.8427  126.9529   27.2603 C   0  0  0  0  0  0  0  0  0  0  0  0
  182.5552  127.3654   24.8641 C   0  0  0  0  0  0  0  0  0  0  0  0
  181.9636  128.3859   27.6504 C   0  0  0  0  0  0  0  0  0  0  0  0
  181.1823  125.8188   29.4720 C   0  0  0  0  0  0  0  0  0  0  0  0
  181.9465  125.3144   31.7359 C   0  0  0  0  0  0  0  0  0  0  0  0
  181.7434  123.9353   32.3217 C   0  0  0  0  0  0  0  0  0  0  0  0
  183.0861  123.0005   30.4976 C   0  0  0  0  0  0  0  0  0  0  0  0
  181.8773  125.2374   25.8391 N   0  0  0  0  0  0  0  0  0  0  0  0
  182.0690  125.2102   30.2808 N   0  0  0  0  0  0  0  0  0  0  0  0
  182.9428  123.1152   31.9806 N   0  0  2  0  0  0  0  0  0  0  0  0
  181.1488  121.0903   31.0168 N   0  0  0  0  0  0  0  0  0  0  0  0
  182.7642  119.5704   31.3426 N   0  0  0  0  0  0  0  0  0  0  0  0
  181.1188  123.0903   28.2426 H   0  0  0  0  0  0  0  0  0  0  0  0
  180.2064  123.1180   26.6955 H   0  0  0  0  0  0  0  0  0  0  0  0
  181.9634  122.7442   26.6955 H   0  0  0  0  0  0  0  0  0  0  0  0
  184.1466  124.8677   30.3304 H   0  0  0  0  0  0  0  0  0  0  0  0
  183.3174  124.3384   28.8263 H   0  0  0  0  0  0  0  0  0  0  0  0
  182.2584  121.8102   33.5321 H   0  0  0  0  0  0  0  0  0  0  0  0
  183.8885  121.4330   32.9279 H   0  0  0  0  0  0  0  0  0  0  0  0
  178.9532  120.3793   29.3393 H   0  0  0  0  0  0  0  0  0  0  0  0
  178.7915  118.1163   28.3052 H   0  0  0  0  0  0  0  0  0  0  0  0
  180.5770  116.4351   28.6620 H   0  0  0  0  0  0  0  0  0  0  0  0
  182.5811  116.9888   30.0455 H   0  0  0  0  0  0  0  0  0  0  0  0
  183.7188  117.8279   31.9913 H   0  0  0  0  0  0  0  0  0  0  0  0
  184.1406  119.4101   32.8629 H   0  0  0  0  0  0  0  0  0  0  0  0
  186.1783  119.1264   33.0708 H   0  0  0  0  0  0  0  0  0  0  0  0
  187.1906  118.3327   31.8171 H   0  0  0  0  0  0  0  0  0  0  0  0
  186.9971  120.1185   31.8171 H   0  0  0  0  0  0  0  0  0  0  0  0
  185.5737  116.8953   30.9602 H   0  0  0  0  0  0  0  0  0  0  0  0
  184.5669  117.6056   29.6530 H   0  0  0  0  0  0  0  0  0  0  0  0
  186.3457  117.8555   29.6530 H   0  0  0  0  0  0  0  0  0  0  0  0
  185.1938  121.1520   30.7563 H   0  0  0  0  0  0  0  0  0  0  0  0
  186.1277  120.2211   29.5366 H   0  0  0  0  0  0  0  0  0  0  0  0
  184.3327  120.1534   29.5366 H   0  0  0  0  0  0  0  0  0  0  0  0
  183.0684  128.2677   25.2283 H   0  0  0  0  0  0  0  0  0  0  0  0
  183.2498  126.7699   24.2534 H   0  0  0  0  0  0  0  0  0  0  0  0
  181.6883  127.6579   24.2534 H   0  0  0  0  0  0  0  0  0  0  0  0
  181.9705  128.4679   28.7474 H   0  0  0  0  0  0  0  0  0  0  0  0
  182.8998  128.7983   27.2460 H   0  0  0  0  0  0  0  0  0  0  0  0
  181.1098  128.9493   27.2460 H   0  0  0  0  0  0  0  0  0  0  0  0
  181.0850  125.9506   31.9872 H   0  0  0  0  0  0  0  0  0  0  0  0
  182.8627  125.7594   32.1513 H   0  0  0  0  0  0  0  0  0  0  0  0
  181.6357  124.0046   33.4142 H   0  0  0  0  0  0  0  0  0  0  0  0
  180.8326  123.4737   31.9127 H   0  0  0  0  0  0  0  0  0  0  0  0
  182.1922  122.5194   30.0739 H   0  0  0  0  0  0  0  0  0  0  0  0
  183.9670  122.3906   30.2484 H   0  0  0  0  0  0  0  0  0  0  0  0
  183.7771  123.5931   32.3501 H   0  0  0  0  0  0  0  0  0  0  0  0
  1 20  1  0
  1 21  1  0
  1 27  1  0
  2  4  1  0
  3 23  2  0
  4 15  1  0
  4 27  2  0
  5 26  1  0
  5 28  1  0
  6  7  1  0
 29  6  1  0
  7 30  2  0
  7 31  1  0
  8  9  2  0
  8 13  1  0
  8 30  1  0
  9 10  1  0
 10 11  2  0
 11 12  1  0
 12 13  2  0
 13 31  1  0
 16 14  1  1
 14 31  1  0
 15 20  2  0
 15 23  1  0
 16 17  1  0
 16 18  1  0
 16 19  1  0
 20 22  1  0
 23 28  1  0
 24 25  1  0
 24 28  1  0
 25 29  1  0
 26 29  1  0
  2 32  1  0
  2 33  1  0
  2 34  1  0
  5 35  1  0
  5 36  1  0
  6 37  1  0
  6 38  1  0
  9 39  1  0
 10 40  1  0
 11 41  1  0
 12 42  1  0
 14 43  1  0
 14 44  1  0
 17 45  1  0
 17 46  1  0
 17 47  1  0
 18 48  1  0
 18 49  1  0
 18 50  1  0
 19 51  1  0
 19 52  1  0
 19 53  1  0
 21 54  1  0
 21 55  1  0
 21 56  1  0
 22 57  1  0
 22 58  1  0
 22 59  1  0
 24 60  1  0
 24 61  1  0
 25 62  1  0
 25 63  1  0
 26 64  1  0
 26 65  1  0
 29 66  1  1
M  CHG  1  29   1
M  END
>  <filename_input>  (10) 
7RNI_60I_docked.sdf

>  <pdb_id>  (10) 
7RNI_60I

>  <pose_rank>  (10) 
9

>  <num_atoms_heavy>  (10) 
31

>  <num_torsions>  (10) 
5

>  <pose>  (10) 
[180.20258164203517, 126.41498839447706, 29.90561683418412, -1.1292651587145153, 1.1281874665227223, -0.3182565226540206, 8.462539506628817, 15.477998311056105, 10.065904344687397, -12.57983666937441, 1.2780274293667677]

>  <energy>  (10) 
-691.7409100294385

>  <inter_energy>  (10) 
-734.5376930872584

>  <intra_energy>  (10) 
50.74108168739965

>  <rmsd>  (10) 
3.23591

>  <sdf_rank>  (10) 
0

$$$$

     RDKit          3D

 66 69  0  0  0  0  0  0  0  0999 V2000
  181.1417  117.6449   31.1212 N   0  0  0  0  0  0  0  0  0  0  0  0
  180.0013  120.0173   28.7242 C   0  0  0  0  0  0  0  0  0  0  0  0
  183.9146  120.5874   29.3615 O   0  0  0  0  0  0  0  0  0  0  0  0
  180.7722  119.2299   29.7317 C   0  0  0  0  0  0  0  0  0  0  0  0
  181.7465  122.0097   31.9211 C   0  0  0  0  0  0  0  0  0  0  0  0
  181.4389  125.7320   31.2613 C   0  0  0  0  0  0  0  0  0  0  0  0
  182.5526  126.6954   30.9665 C   0  0  0  0  0  0  0  0  0  0  0  0
  184.3425  127.8574   31.2220 C   0  0  0  0  0  0  0  0  0  0  0  0
  185.5288  128.4303   31.6741 C   0  0  0  0  0  0  0  0  0  0  0  0
  186.0143  129.5555   31.0207 C   0  0  0  0  0  0  0  0  0  0  0  0
  185.3364  130.0978   29.9320 C   0  0  0  0  0  0  0  0  0  0  0  0
  184.1622  129.5241   29.4686 C   0  0  0  0  0  0  0  0  0  0  0  0
  183.6808  128.4086   30.1330 C   0  0  0  0  0  0  0  0  0  0  0  0
  181.4527  127.9188   29.0022 C   0  0  0  0  0  0  0  0  0  0  0  0
  182.0534  119.4927   30.3086 C   0  0  0  0  0  0  0  0  0  0  0  0
  181.5878  127.2599   27.6102 C   0  0  1  0  0  0  0  0  0  0  0  0
  180.2420  126.9219   26.9803 C   0  0  0  0  0  0  0  0  0  0  0  0
  182.2893  128.2531   26.6854 C   0  0  0  0  0  0  0  0  0  0  0  0
  182.4273  125.9917   27.6872 C   0  0  0  0  0  0  0  0  0  0  0  0
  182.2298  118.4281   31.1763 C   0  0  0  0  0  0  0  0  0  0  0  0
  180.8449  116.4154   31.8475 C   0  0  0  0  0  0  0  0  0  0  0  0
  183.3797  118.0555   32.0476 C   0  0  0  0  0  0  0  0  0  0  0  0
  182.9904  120.6663   30.1634 C   0  0  0  0  0  0  0  0  0  0  0  0
  183.8162  122.8112   30.9885 C   0  0  0  0  0  0  0  0  0  0  0  0
  183.1545  124.1014   30.5594 C   0  0  0  0  0  0  0  0  0  0  0  0
  181.0523  123.3078   31.5364 C   0  0  0  0  0  0  0  0  0  0  0  0
  180.2367  118.1301   30.2262 N   0  0  0  0  0  0  0  0  0  0  0  0
  182.8289  121.7304   30.9710 N   0  0  0  0  0  0  0  0  0  0  0  0
  182.0688  124.4030   31.5380 N   0  0  2  0  0  0  0  0  0  0  0  0
  183.6222  126.7732   31.7280 N   0  0  0  0  0  0  0  0  0  0  0  0
  182.5255  127.6483   29.9795 N   0  0  0  0  0  0  0  0  0  0  0  0
  179.3225  120.7108   29.2423 H   0  0  0  0  0  0  0  0  0  0  0  0
  180.6986  120.5890   28.0941 H   0  0  0  0  0  0  0  0  0  0  0  0
  179.4150  119.3324   28.0941 H   0  0  0  0  0  0  0  0  0  0  0  0
  182.1641  122.1042   32.9344 H   0  0  0  0  0  0  0  0  0  0  0  0
  181.0186  121.1854   31.8983 H   0  0  0  0  0  0  0  0  0  0  0  0
  180.8700  126.0702   32.1398 H   0  0  0  0  0  0  0  0  0  0  0  0
  180.7429  125.6662   30.4120 H   0  0  0  0  0  0  0  0  0  0  0  0
  186.0695  128.0008   32.5304 H   0  0  0  0  0  0  0  0  0  0  0  0
  186.9468  130.0245   31.3678 H   0  0  0  0  0  0  0  0  0  0  0  0
  185.7374  130.9925   29.4333 H   0  0  0  0  0  0  0  0  0  0  0  0
  183.6303  129.9417   28.6010 H   0  0  0  0  0  0  0  0  0  0  0  0
  181.4085  129.0074   28.8510 H   0  0  0  0  0  0  0  0  0  0  0  0
  180.5476  127.4741   29.4417 H   0  0  0  0  0  0  0  0  0  0  0  0
  179.5024  126.7362   27.7731 H   0  0  0  0  0  0  0  0  0  0  0  0
  179.9073  127.7639   26.3566 H   0  0  0  0  0  0  0  0  0  0  0  0
  180.3448  126.0217   26.3566 H   0  0  0  0  0  0  0  0  0  0  0  0
  182.8199  129.0043   27.2889 H   0  0  0  0  0  0  0  0  0  0  0  0
  183.0102  127.7169   26.0507 H   0  0  0  0  0  0  0  0  0  0  0  0
  181.5430  128.7532   26.0507 H   0  0  0  0  0  0  0  0  0  0  0  0
  182.6005  125.7301   28.7415 H   0  0  0  0  0  0  0  0  0  0  0  0
  181.8949  125.1687   27.1878 H   0  0  0  0  0  0  0  0  0  0  0  0
  183.3928  126.1602   27.1878 H   0  0  0  0  0  0  0  0  0  0  0  0
  180.8915  116.6084   32.9295 H   0  0  0  0  0  0  0  0  0  0  0  0
  179.8366  116.0661   31.5804 H   0  0  0  0  0  0  0  0  0  0  0  0
  181.5827  115.6445   31.5804 H   0  0  0  0  0  0  0  0  0  0  0  0
  183.0857  118.1507   33.1033 H   0  0  0  0  0  0  0  0  0  0  0  0
  183.6742  117.0159   31.8414 H   0  0  0  0  0  0  0  0  0  0  0  0
  184.2280  118.7247   31.8414 H   0  0  0  0  0  0  0  0  0  0  0  0
  184.6361  122.5709   30.2956 H   0  0  0  0  0  0  0  0  0  0  0  0
  184.2192  122.9250   32.0057 H   0  0  0  0  0  0  0  0  0  0  0  0
  183.8922  124.9173   30.5553 H   0  0  0  0  0  0  0  0  0  0  0  0
  182.7415  124.0031   29.5446 H   0  0  0  0  0  0  0  0  0  0  0  0
  180.6119  123.2108   30.5331 H   0  0  0  0  0  0  0  0  0  0  0  0
  180.2499  123.5350   32.2538 H   0  0  0  0  0  0  0  0  0  0  0  0
  182.4862  124.4555   32.4782 H   0  0  0  0  0  0  0  0  0  0  0  0
  1 20  1  0
  1 21  1  0
  1 27  1  0
  2  4  1  0
  3 23  2  0
  4 15  1  0
  4 27  2  0
  5 26  1  0
  5 28  1  0
  6  7  1  0
 29  6  1  0
  7 30  2  0
  7 31  1  0
  8  9  2  0
  8 13  1  0
  8 30  1  0
  9 10  1  0
 10 11  2  0
 11 12  1  0
 12 13  2  0
 13 31  1  0
 16 14  1  1
 14 31  1  0
 15 20  2  0
 15 23  1  0
 16 17  1  0
 16 18  1  0
 16 19  1  0
 20 22  1  0
 23 28  1  0
 24 25  1  0
 24 28  1  0
 25 29  1  0
 26 29  1  0
  2 32  1  0
  2 33  1  0
  2 34  1  0
  5 35  1  0
  5 36  1  0
  6 37  1  0
  6 38  1  0
  9 39  1  0
 10 40  1  0
 11 41  1  0
 12 42  1  0
 14 43  1  0
 14 44  1  0
 17 45  1  0
 17 46  1  0
 17 47  1  0
 18 48  1  0
 18 49  1  0
 18 50  1  0
 19 51  1  0
 19 52  1  0
 19 53  1  0
 21 54  1  0
 21 55  1  0
 21 56  1  0
 22 57  1  0
 22 58  1  0
 22 59  1  0
 24 60  1  0
 24 61  1  0
 25 62  1  0
 25 63  1  0
 26 64  1  0
 26 65  1  0
 29 66  1  1
M  CHG  1  29   1
M  END
>  <filename_input>  (11) 
7RNI_60I_docked.sdf

>  <pdb_id>  (11) 
7RNI_60I

>  <pose_rank>  (11) 
10

>  <num_atoms_heavy>  (11) 
31

>  <num_torsions>  (11) 
5

>  <pose>  (11) 
[183.91456527026563, 120.58737418327128, 29.361522035590703, -0.40334293160243406, 0.4718530857856149, -3.1401664324914362, 2.524109951287125, 0.5045284764565654, -2.4258580002597006, -0.04037457804343218, 1.3713886606679784]

>  <energy>  (11) 
-605.1035987120074

>  <inter_energy>  (11) 
-624.6609148352306

>  <intra_energy>  (11) 
28.354735644659048

>  <rmsd>  (11) 
9.28867

>  <sdf_rank>  (11) 
0

$$$$

     RDKit          3D

 66 69  0  0  0  0  0  0  0  0999 V2000
  181.3368  117.8343   31.8223 N   0  0  0  0  0  0  0  0  0  0  0  0
  184.2804  119.5733   30.8296 C   0  0  0  0  0  0  0  0  0  0  0  0
  180.8906  120.1197   28.2671 O   0  0  0  0  0  0  0  0  0  0  0  0
  182.8857  119.0781   31.0263 C   0  0  0  0  0  0  0  0  0  0  0  0
  182.3876  122.4092   30.6737 C   0  0  0  0  0  0  0  0  0  0  0  0
  180.6427  125.7607   30.3460 C   0  0  0  0  0  0  0  0  0  0  0  0
  181.4907  126.9502   29.9979 C   0  0  0  0  0  0  0  0  0  0  0  0
  182.7936  128.6435   30.2321 C   0  0  0  0  0  0  0  0  0  0  0  0
  183.6466  129.6369   30.7068 C   0  0  0  0  0  0  0  0  0  0  0  0
  183.9440  130.7097   29.8766 C   0  0  0  0  0  0  0  0  0  0  0  0
  183.4085  130.7903   28.5937 C   0  0  0  0  0  0  0  0  0  0  0  0
  182.5696  129.7979   28.1102 C   0  0  0  0  0  0  0  0  0  0  0  0
  182.2709  128.7375   28.9493 C   0  0  0  0  0  0  0  0  0  0  0  0
  180.5736  127.3622   27.6412 C   0  0  0  0  0  0  0  0  0  0  0  0
  181.6706  119.5034   30.4051 C   0  0  0  0  0  0  0  0  0  0  0  0
  181.2820  126.9172   26.3411 C   0  0  1  0  0  0  0  0  0  0  0  0
  181.4655  128.0562   25.3455 C   0  0  0  0  0  0  0  0  0  0  0  0
  182.6729  126.4068   26.7139 C   0  0  0  0  0  0  0  0  0  0  0  0
  180.5165  125.7891   25.6626 C   0  0  0  0  0  0  0  0  0  0  0  0
  180.7206  118.6730   30.9754 C   0  0  0  0  0  0  0  0  0  0  0  0
  180.7754  116.7748   32.6527 C   0  0  0  0  0  0  0  0  0  0  0  0
  179.2400  118.6243   30.8152 C   0  0  0  0  0  0  0  0  0  0  0  0
  181.4095  120.5063   29.3085 C   0  0  0  0  0  0  0  0  0  0  0  0
  181.7512  122.7369   28.3752 C   0  0  0  0  0  0  0  0  0  0  0  0
  180.8358  123.8763   28.7629 C   0  0  0  0  0  0  0  0  0  0  0  0
  181.5041  123.5720   31.1005 C   0  0  0  0  0  0  0  0  0  0  0  0
  182.6758  118.0809   31.8645 N   0  0  0  0  0  0  0  0  0  0  0  0
  181.8229  121.7757   29.4770 N   0  0  0  0  0  0  0  0  0  0  0  0
  181.4200  124.5399   29.9653 N   0  0  2  0  0  0  0  0  0  0  0  0
  182.2987  127.5063   30.8742 N   0  0  0  0  0  0  0  0  0  0  0  0
  181.4302  127.6372   28.8116 N   0  0  0  0  0  0  0  0  0  0  0  0
  184.7517  119.7407   31.8094 H   0  0  0  0  0  0  0  0  0  0  0  0
  184.8591  118.8257   30.2673 H   0  0  0  0  0  0  0  0  0  0  0  0
  184.2580  120.5185   30.2673 H   0  0  0  0  0  0  0  0  0  0  0  0
  183.3984  122.7805   30.4490 H   0  0  0  0  0  0  0  0  0  0  0  0
  182.4391  121.6713   31.4879 H   0  0  0  0  0  0  0  0  0  0  0  0
  180.4303  125.7515   31.4253 H   0  0  0  0  0  0  0  0  0  0  0  0
  179.6815  125.7953   29.8122 H   0  0  0  0  0  0  0  0  0  0  0  0
  184.0756  129.5730   31.7177 H   0  0  0  0  0  0  0  0  0  0  0  0
  184.6113  131.5063   30.2372 H   0  0  0  0  0  0  0  0  0  0  0  0
  183.6542  131.6521   27.9558 H   0  0  0  0  0  0  0  0  0  0  0  0
  182.1546  129.8512   27.0929 H   0  0  0  0  0  0  0  0  0  0  0  0
  180.0144  128.2823   27.4160 H   0  0  0  0  0  0  0  0  0  0  0  0
  179.9538  126.5029   27.9369 H   0  0  0  0  0  0  0  0  0  0  0  0
  181.6174  128.9992   25.8911 H   0  0  0  0  0  0  0  0  0  0  0  0
  182.3425  127.8529   24.7134 H   0  0  0  0  0  0  0  0  0  0  0  0
  180.5690  128.1385   24.7134 H   0  0  0  0  0  0  0  0  0  0  0  0
  182.7691  126.3715   27.8091 H   0  0  0  0  0  0  0  0  0  0  0  0
  182.8161  125.3976   26.3004 H   0  0  0  0  0  0  0  0  0  0  0  0
  183.4349  127.0839   26.3004 H   0  0  0  0  0  0  0  0  0  0  0  0
  180.0727  125.1351   26.4276 H   0  0  0  0  0  0  0  0  0  0  0  0
  179.7188  126.2131   25.0350 H   0  0  0  0  0  0  0  0  0  0  0  0
  181.2051  125.2044   25.0350 H   0  0  0  0  0  0  0  0  0  0  0  0
  180.9108  117.0302   33.7141 H   0  0  0  0  0  0  0  0  0  0  0  0
  179.7024  116.6681   32.4352 H   0  0  0  0  0  0  0  0  0  0  0  0
  181.2897  115.8271   32.4352 H   0  0  0  0  0  0  0  0  0  0  0  0
  178.7642  118.6087   31.8068 H   0  0  0  0  0  0  0  0  0  0  0  0
  178.9019  119.5119   30.2602 H   0  0  0  0  0  0  0  0  0  0  0  0
  178.9609  117.7165   30.2602 H   0  0  0  0  0  0  0  0  0  0  0  0
  181.3567  122.2380   27.4777 H   0  0  0  0  0  0  0  0  0  0  0  0
  182.7569  123.1288   28.1628 H   0  0  0  0  0  0  0  0  0  0  0  0
  180.7639  124.5971   27.9352 H   0  0  0  0  0  0  0  0  0  0  0  0
  179.8258  123.5005   28.9834 H   0  0  0  0  0  0  0  0  0  0  0  0
  180.4983  123.2029   31.3497 H   0  0  0  0  0  0  0  0  0  0  0  0
  181.9291  124.0648   31.9875 H   0  0  0  0  0  0  0  0  0  0  0  0
  182.3745  124.8490   29.7324 H   0  0  0  0  0  0  0  0  0  0  0  0
  1 20  1  0
  1 21  1  0
  1 27  1  0
  2  4  1  0
  3 23  2  0
  4 15  1  0
  4 27  2  0
  5 26  1  0
  5 28  1  0
  6  7  1  0
 29  6  1  0
  7 30  2  0
  7 31  1  0
  8  9  2  0
  8 13  1  0
  8 30  1  0
  9 10  1  0
 10 11  2  0
 11 12  1  0
 12 13  2  0
 13 31  1  0
 16 14  1  1
 14 31  1  0
 15 20  2  0
 15 23  1  0
 16 17  1  0
 16 18  1  0
 16 19  1  0
 20 22  1  0
 23 28  1  0
 24 25  1  0
 24 28  1  0
 25 29  1  0
 26 29  1  0
  2 32  1  0
  2 33  1  0
  2 34  1  0
  5 35  1  0
  5 36  1  0
  6 37  1  0
  6 38  1  0
  9 39  1  0
 10 40  1  0
 11 41  1  0
 12 42  1  0
 14 43  1  0
 14 44  1  0
 17 45  1  0
 17 46  1  0
 17 47  1  0
 18 48  1  0
 18 49  1  0
 18 50  1  0
 19 51  1  0
 19 52  1  0
 19 53  1  0
 21 54  1  0
 21 55  1  0
 21 56  1  0
 22 57  1  0
 22 58  1  0
 22 59  1  0
 24 60  1  0
 24 61  1  0
 25 62  1  0
 25 63  1  0
 26 64  1  0
 26 65  1  0
 29 66  1  6
M  CHG  1  29   1
M  END
>  <filename_input>  (12) 
7RNI_60I_docked.sdf

>  <pdb_id>  (12) 
7RNI_60I

>  <pose_rank>  (12) 
11

>  <num_atoms_heavy>  (12) 
31

>  <num_torsions>  (12) 
5

>  <pose>  (12) 
[180.8905650038033, 120.11967830777711, 28.267055382887772, 2.144828905670303, 0.16531351899746075, 2.1109364819379905, 0.010528098764364231, -0.626271246259912, -3.222498907968165, -0.3557560388520383, -2.9487535701051835]

>  <energy>  (12) 
-614.9307887383865

>  <inter_energy>  (12) 
-639.7764422993067

>  <intra_energy>  (12) 
29.12873781147521

>  <rmsd>  (12) 
9.33356

>  <sdf_rank>  (12) 
0

$$$$

     RDKit          3D

 66 69  0  0  0  0  0  0  0  0999 V2000
  184.1661  129.4019   28.8069 N   0  0  0  0  0  0  0  0  0  0  0  0
  185.7592  126.2188   28.7409 C   0  0  0  0  0  0  0  0  0  0  0  0
  181.4691  126.0789   28.2544 O   0  0  0  0  0  0  0  0  0  0  0  0
  184.7920  127.3558   28.7741 C   0  0  0  0  0  0  0  0  0  0  0  0
  183.6017  125.3612   31.1200 C   0  0  0  0  0  0  0  0  0  0  0  0
  183.7941  121.5950   31.5244 C   0  0  0  0  0  0  0  0  0  0  0  0
  182.7716  120.6332   30.9910 C   0  0  0  0  0  0  0  0  0  0  0  0
  180.8787  119.8444   30.3472 C   0  0  0  0  0  0  0  0  0  0  0  0
  179.5484  119.6523   29.9822 C   0  0  0  0  0  0  0  0  0  0  0  0
  179.0942  118.3547   29.7858 C   0  0  0  0  0  0  0  0  0  0  0  0
  179.9494  117.2670   29.9422 C   0  0  0  0  0  0  0  0  0  0  0  0
  181.2782  117.4523   30.2921 C   0  0  0  0  0  0  0  0  0  0  0  0
  181.7189  118.7492   30.4958 C   0  0  0  0  0  0  0  0  0  0  0  0
  184.1217  118.4766   31.2930 C   0  0  0  0  0  0  0  0  0  0  0  0
  183.3658  127.3377   28.8688 C   0  0  0  0  0  0  0  0  0  0  0  0
  185.3087  118.4646   30.3025 C   0  0  1  0  0  0  0  0  0  0  0  0
  185.0227  119.2430   29.0240 C   0  0  0  0  0  0  0  0  0  0  0  0
  186.5002  119.1316   30.9875 C   0  0  0  0  0  0  0  0  0  0  0  0
  185.6961  117.0387   29.9340 C   0  0  0  0  0  0  0  0  0  0  0  0
  183.0354  128.6823   28.8687 C   0  0  0  0  0  0  0  0  0  0  0  0
  184.3459  130.8492   28.7883 C   0  0  0  0  0  0  0  0  0  0  0  0
  181.7110  129.3650   28.8850 C   0  0  0  0  0  0  0  0  0  0  0  0
  182.3932  126.1987   29.0513 C   0  0  0  0  0  0  0  0  0  0  0  0
  181.5055  124.3943   30.4367 C   0  0  0  0  0  0  0  0  0  0  0  0
  182.1264  123.0164   30.3873 C   0  0  0  0  0  0  0  0  0  0  0  0
  184.2550  123.9871   31.1157 C   0  0  0  0  0  0  0  0  0  0  0  0
  185.2578  128.5898   28.7427 N   0  0  0  0  0  0  0  0  0  0  0  0
  182.5250  125.3973   30.1241 N   0  0  0  0  0  0  0  0  0  0  0  0
  183.2058  122.9668   31.4169 N   0  0  2  0  0  0  0  0  0  0  0  0
  181.5616  121.0234   30.6539 N   0  0  0  0  0  0  0  0  0  0  0  0
  182.9386  119.2734   30.9128 N   0  0  0  0  0  0  0  0  0  0  0  0
  186.0116  125.9221   29.7696 H   0  0  0  0  0  0  0  0  0  0  0  0
  185.3051  125.3664   28.2143 H   0  0  0  0  0  0  0  0  0  0  0  0
  186.6733  126.5303   28.2143 H   0  0  0  0  0  0  0  0  0  0  0  0
  183.1848  125.5653   32.1173 H   0  0  0  0  0  0  0  0  0  0  0  0
  184.3542  126.1244   30.8723 H   0  0  0  0  0  0  0  0  0  0  0  0
  184.0189  121.3622   32.5758 H   0  0  0  0  0  0  0  0  0  0  0  0
  184.7322  121.5254   30.9542 H   0  0  0  0  0  0  0  0  0  0  0  0
  178.8720  120.5100   29.8524 H   0  0  0  0  0  0  0  0  0  0  0  0
  178.0450  118.1839   29.5028 H   0  0  0  0  0  0  0  0  0  0  0  0
  179.5659  116.2478   29.7862 H   0  0  0  0  0  0  0  0  0  0  0  0
  181.9603  116.5967   30.4044 H   0  0  0  0  0  0  0  0  0  0  0  0
  183.7914  117.4360   31.4275 H   0  0  0  0  0  0  0  0  0  0  0  0
  184.5121  118.9606   32.2003 H   0  0  0  0  0  0  0  0  0  0  0  0
  184.6538  120.2470   29.2808 H   0  0  0  0  0  0  0  0  0  0  0  0
  185.9470  119.3317   28.4342 H   0  0  0  0  0  0  0  0  0  0  0  0
  184.2609  118.7122   28.4342 H   0  0  0  0  0  0  0  0  0  0  0  0
  186.3804  119.0645   32.0789 H   0  0  0  0  0  0  0  0  0  0  0  0
  187.4278  118.6216   30.6884 H   0  0  0  0  0  0  0  0  0  0  0  0
  186.5503  120.1890   30.6884 H   0  0  0  0  0  0  0  0  0  0  0  0
  185.8551  116.4532   30.8516 H   0  0  0  0  0  0  0  0  0  0  0  0
  184.8897  116.5810   29.3422 H   0  0  0  0  0  0  0  0  0  0  0  0
  186.6232  117.0519   29.3422 H   0  0  0  0  0  0  0  0  0  0  0  0
  184.3927  131.2262   29.8207 H   0  0  0  0  0  0  0  0  0  0  0  0
  185.2816  131.0958   28.2652 H   0  0  0  0  0  0  0  0  0  0  0  0
  183.4990  131.3172   28.2652 H   0  0  0  0  0  0  0  0  0  0  0  0
  181.3952  129.5278   29.9261 H   0  0  0  0  0  0  0  0  0  0  0  0
  181.7916  130.3339   28.3706 H   0  0  0  0  0  0  0  0  0  0  0  0
  180.9685  128.7373   28.3706 H   0  0  0  0  0  0  0  0  0  0  0  0
  180.6910  124.4566   29.7001 H   0  0  0  0  0  0  0  0  0  0  0  0
  181.1027  124.5804   31.4433 H   0  0  0  0  0  0  0  0  0  0  0  0
  181.3643  122.2541   30.6068 H   0  0  0  0  0  0  0  0  0  0  0  0
  182.5387  122.8157   29.3875 H   0  0  0  0  0  0  0  0  0  0  0  0
  184.6947  123.7877   30.1273 H   0  0  0  0  0  0  0  0  0  0  0  0
  185.0525  123.9447   31.8721 H   0  0  0  0  0  0  0  0  0  0  0  0
  182.7901  123.1908   32.3323 H   0  0  0  0  0  0  0  0  0  0  0  0
  1 20  1  0
  1 21  1  0
  1 27  1  0
  2  4  1  0
  3 23  2  0
  4 15  1  0
  4 27  2  0
  5 26  1  0
  5 28  1  0
  6  7  1  0
 29  6  1  0
  7 30  2  0
  7 31  1  0
  8  9  2  0
  8 13  1  0
  8 30  1  0
  9 10  1  0
 10 11  2  0
 11 12  1  0
 12 13  2  0
 13 31  1  0
 16 14  1  1
 14 31  1  0
 15 20  2  0
 15 23  1  0
 16 17  1  0
 16 18  1  0
 16 19  1  0
 20 22  1  0
 23 28  1  0
 24 25  1  0
 24 28  1  0
 25 29  1  0
 26 29  1  0
  2 32  1  0
  2 33  1  0
  2 34  1  0
  5 35  1  0
  5 36  1  0
  6 37  1  0
  6 38  1  0
  9 39  1  0
 10 40  1  0
 11 41  1  0
 12 42  1  0
 14 43  1  0
 14 44  1  0
 17 45  1  0
 17 46  1  0
 17 47  1  0
 18 48  1  0
 18 49  1  0
 18 50  1  0
 19 51  1  0
 19 52  1  0
 19 53  1  0
 21 54  1  0
 21 55  1  0
 21 56  1  0
 22 57  1  0
 22 58  1  0
 22 59  1  0
 24 60  1  0
 24 61  1  0
 25 62  1  0
 25 63  1  0
 26 64  1  0
 26 65  1  0
 29 66  1  1
M  CHG  1  29   1
M  END
>  <filename_input>  (13) 
7RNI_60I_docked.sdf

>  <pdb_id>  (13) 
7RNI_60I

>  <pose_rank>  (13) 
12

>  <num_atoms_heavy>  (13) 
31

>  <num_torsions>  (13) 
5

>  <pose>  (13) 
[181.4691033033524, 126.0789410341458, 28.254361161655453, 5.139027305500608, 2.285552260503121, 0.47961941589960794, -4.272829464312122, 0.8737314910926559, -1.7136248410092731, 0.26423823278995323, -1.2706698411846902]

>  <energy>  (13) 
-556.2922445388714

>  <inter_energy>  (13) 
-669.0585336752978

>  <intra_energy>  (13) 
112.90517406265174

>  <rmsd>  (13) 
1.96363

>  <sdf_rank>  (13) 
0

$$$$

     RDKit          3D

 66 69  0  0  0  0  0  0  0  0999 V2000
  182.9409  128.7713   28.2761 N   0  0  0  0  0  0  0  0  0  0  0  0
  185.0983  126.8197   30.3283 C   0  0  0  0  0  0  0  0  0  0  0  0
  183.7106  124.5244   27.3635 O   0  0  0  0  0  0  0  0  0  0  0  0
  184.1074  127.3187   29.3291 C   0  0  0  0  0  0  0  0  0  0  0  0
  181.3514  125.0069   30.0978 C   0  0  0  0  0  0  0  0  0  0  0  0
  181.4344  121.9054   32.2792 C   0  0  0  0  0  0  0  0  0  0  0  0
  182.5405  120.9304   31.9943 C   0  0  0  0  0  0  0  0  0  0  0  0
  184.5164  120.0945   31.8640 C   0  0  0  0  0  0  0  0  0  0  0  0
  185.8824  119.8360   31.9459 C   0  0  0  0  0  0  0  0  0  0  0  0
  186.4031  118.7765   31.2145 C   0  0  0  0  0  0  0  0  0  0  0  0
  185.5790  117.9828   30.4208 C   0  0  0  0  0  0  0  0  0  0  0  0
  184.2161  118.2265   30.3457 C   0  0  0  0  0  0  0  0  0  0  0  0
  183.7081  119.2914   31.0706 C   0  0  0  0  0  0  0  0  0  0  0  0
  181.2508  119.3838   30.4101 C   0  0  0  0  0  0  0  0  0  0  0  0
  183.2803  126.5874   28.4211 C   0  0  0  0  0  0  0  0  0  0  0  0
  180.2534  118.4694   31.1579 C   0  0  1  0  0  0  0  0  0  0  0  0
  179.6971  119.1085   32.4245 C   0  0  0  0  0  0  0  0  0  0  0  0
  179.0737  118.1982   30.2260 C   0  0  0  0  0  0  0  0  0  0  0  0
  180.9008  117.1398   31.5213 C   0  0  0  0  0  0  0  0  0  0  0  0
  182.5733  127.5842   27.7702 C   0  0  0  0  0  0  0  0  0  0  0  0
  182.4802  130.1111   27.9298 C   0  0  0  0  0  0  0  0  0  0  0  0
  181.5829  127.5160   26.6590 C   0  0  0  0  0  0  0  0  0  0  0  0
  183.0726  125.1046   28.2351 C   0  0  0  0  0  0  0  0  0  0  0  0
  181.7808  123.0873   28.7099 C   0  0  0  0  0  0  0  0  0  0  0  0
  182.0972  122.2455   29.9256 C   0  0  0  0  0  0  0  0  0  0  0  0
  181.6287  124.1849   31.3478 C   0  0  0  0  0  0  0  0  0  0  0  0
  183.8935  128.6174   29.2375 N   0  0  0  0  0  0  0  0  0  0  0  0
  182.1400  124.4810   28.9781 N   0  0  0  0  0  0  0  0  0  0  0  0
  181.2778  122.7610   31.0615 N   0  0  2  0  0  0  0  0  0  0  0  0
  183.7619  121.1158   32.4457 N   0  0  0  0  0  0  0  0  0  0  0  0
  182.4342  119.8435   31.1635 N   0  0  0  0  0  0  0  0  0  0  0  0
  184.7217  127.0093   31.3443 H   0  0  0  0  0  0  0  0  0  0  0  0
  185.2476  125.7389   30.1884 H   0  0  0  0  0  0  0  0  0  0  0  0
  186.0555  127.3433   30.1884 H   0  0  0  0  0  0  0  0  0  0  0  0
  180.2811  124.9484   29.8512 H   0  0  0  0  0  0  0  0  0  0  0  0
  181.6304  126.0552   30.2805 H   0  0  0  0  0  0  0  0  0  0  0  0
  180.4983  121.3650   32.4836 H   0  0  0  0  0  0  0  0  0  0  0  0
  181.6706  122.5189   33.1612 H   0  0  0  0  0  0  0  0  0  0  0  0
  186.5350  120.4578   32.5765 H   0  0  0  0  0  0  0  0  0  0  0  0
  187.4808  118.5614   31.2627 H   0  0  0  0  0  0  0  0  0  0  0  0
  186.0147  117.1521   29.8463 H   0  0  0  0  0  0  0  0  0  0  0  0
  183.5595  117.5943   29.7300 H   0  0  0  0  0  0  0  0  0  0  0  0
  181.6119  118.8313   29.5302 H   0  0  0  0  0  0  0  0  0  0  0  0
  180.6840  120.2988   30.1832 H   0  0  0  0  0  0  0  0  0  0  0  0
  180.1292  118.6121   33.3059 H   0  0  0  0  0  0  0  0  0  0  0  0
  179.9577  120.1770   32.4409 H   0  0  0  0  0  0  0  0  0  0  0  0
  178.6028  118.9977   32.4409 H   0  0  0  0  0  0  0  0  0  0  0  0
  178.1739  117.9915   30.8242 H   0  0  0  0  0  0  0  0  0  0  0  0
  178.8976  119.0793   29.5915 H   0  0  0  0  0  0  0  0  0  0  0  0
  179.2999  117.3287   29.5915 H   0  0  0  0  0  0  0  0  0  0  0  0
  180.9483  117.0422   32.6159 H   0  0  0  0  0  0  0  0  0  0  0  0
  180.3034  116.3152   31.1052 H   0  0  0  0  0  0  0  0  0  0  0  0
  181.9184  117.1016   31.1052 H   0  0  0  0  0  0  0  0  0  0  0  0
  182.2843  130.6808   28.8502 H   0  0  0  0  0  0  0  0  0  0  0  0
  183.2538  130.6235   27.3390 H   0  0  0  0  0  0  0  0  0  0  0  0
  181.5551  130.0395   27.3390 H   0  0  0  0  0  0  0  0  0  0  0  0
  180.5676  127.4461   27.0765 H   0  0  0  0  0  0  0  0  0  0  0  0
  181.6632  128.4218   26.0400 H   0  0  0  0  0  0  0  0  0  0  0  0
  181.7866  126.6298   26.0400 H   0  0  0  0  0  0  0  0  0  0  0  0
  182.3568  122.7189   27.8482 H   0  0  0  0  0  0  0  0  0  0  0  0
  180.7059  123.0209   28.4861 H   0  0  0  0  0  0  0  0  0  0  0  0
  181.8442  121.1932   29.7286 H   0  0  0  0  0  0  0  0  0  0  0  0
  183.1690  122.3045   30.1662 H   0  0  0  0  0  0  0  0  0  0  0  0
  182.6937  124.2593   31.6130 H   0  0  0  0  0  0  0  0  0  0  0  0
  181.0282  124.5610   32.1892 H   0  0  0  0  0  0  0  0  0  0  0  0
  180.2854  122.7210   30.7886 H   0  0  0  0  0  0  0  0  0  0  0  0
  1 20  1  0
  1 21  1  0
  1 27  1  0
  2  4  1  0
  3 23  2  0
  4 15  1  0
  4 27  2  0
  5 26  1  0
  5 28  1  0
  6  7  1  0
 29  6  1  0
  7 30  2  0
  7 31  1  0
  8  9  2  0
  8 13  1  0
  8 30  1  0
  9 10  1  0
 10 11  2  0
 11 12  1  0
 12 13  2  0
 13 31  1  0
 16 14  1  6
 14 31  1  0
 15 20  2  0
 15 23  1  0
 16 17  1  0
 16 18  1  0
 16 19  1  0
 20 22  1  0
 23 28  1  0
 24 25  1  0
 24 28  1  0
 25 29  1  0
 26 29  1  0
  2 32  1  0
  2 33  1  0
  2 34  1  0
  5 35  1  0
  5 36  1  0
  6 37  1  0
  6 38  1  0
  9 39  1  0
 10 40  1  0
 11 41  1  0
 12 42  1  0
 14 43  1  0
 14 44  1  0
 17 45  1  0
 17 46  1  0
 17 47  1  0
 18 48  1  0
 18 49  1  0
 18 50  1  0
 19 51  1  0
 19 52  1  0
 19 53  1  0
 21 54  1  0
 21 55  1  0
 21 56  1  0
 22 57  1  0
 22 58  1  0
 22 59  1  0
 24 60  1  0
 24 61  1  0
 25 62  1  0
 25 63  1  0
 26 64  1  0
 26 65  1  0
 29 66  1  6
M  CHG  1  29   1
M  END
>  <filename_input>  (14) 
7RNI_60I_docked.sdf

>  <pdb_id>  (14) 
7RNI_60I

>  <pose_rank>  (14) 
13

>  <num_atoms_heavy>  (14) 
31

>  <num_torsions>  (14) 
5

>  <pose>  (14) 
[183.71059848546892, 124.5244416699845, 27.363515049872667, -0.7671803536158184, -1.718215698665358, 0.07882260111146677, -3.7479870468190692, 7.6971142366839675, 0.1430677627640618, 0.13725095271480817, -0.21044699304362616]

>  <energy>  (14) 
-618.1304732796391

>  <inter_energy>  (14) 
-689.8171232235377

>  <intra_energy>  (14) 
72.63579500810606

>  <rmsd>  (14) 
3.86673

>  <sdf_rank>  (14) 
0

$$$$

     RDKit          3D

 66 69  0  0  0  0  0  0  0  0999 V2000
  186.8804  120.0975   32.2981 N   0  0  0  0  0  0  0  0  0  0  0  0
  185.4340  117.5658   30.2554 C   0  0  0  0  0  0  0  0  0  0  0  0
  182.5741  119.3762   31.6983 O   0  0  0  0  0  0  0  0  0  0  0  0
  185.7204  118.7838   31.0701 C   0  0  0  0  0  0  0  0  0  0  0  0
  183.8756  122.0548   29.5992 C   0  0  0  0  0  0  0  0  0  0  0  0
  181.4611  124.9734   29.7911 C   0  0  0  0  0  0  0  0  0  0  0  0
  181.0531  125.5303   28.4574 C   0  0  0  0  0  0  0  0  0  0  0  0
  180.5404  125.6144   26.3717 C   0  0  0  0  0  0  0  0  0  0  0  0
  180.2310  125.3312   25.0437 C   0  0  0  0  0  0  0  0  0  0  0  0
  180.1769  126.3806   24.1357 C   0  0  0  0  0  0  0  0  0  0  0  0
  180.4191  127.6903   24.5422 C   0  0  0  0  0  0  0  0  0  0  0  0
  180.7143  127.9805   25.8655 C   0  0  0  0  0  0  0  0  0  0  0  0
  180.7759  126.9262   26.7611 C   0  0  0  0  0  0  0  0  0  0  0  0
  181.5340  127.9998   28.9419 C   0  0  0  0  0  0  0  0  0  0  0  0
  184.8615  119.8731   31.4153 C   0  0  0  0  0  0  0  0  0  0  0  0
  182.9641  128.5402   28.7116 C   0  0  1  0  0  0  0  0  0  0  0  0
  182.9866  130.0144   28.3264 C   0  0  0  0  0  0  0  0  0  0  0  0
  183.7377  128.3976   30.0212 C   0  0  0  0  0  0  0  0  0  0  0  0
  183.6819  127.7391   27.6337 C   0  0  0  0  0  0  0  0  0  0  0  0
  185.6774  120.6815   32.1887 C   0  0  0  0  0  0  0  0  0  0  0  0
  188.0700  120.5483   33.0115 C   0  0  0  0  0  0  0  0  0  0  0  0
  185.4267  122.0082   32.8191 C   0  0  0  0  0  0  0  0  0  0  0  0
  183.3941  120.1072   31.1538 C   0  0  0  0  0  0  0  0  0  0  0  0
  181.6389  121.2024   29.8563 C   0  0  0  0  0  0  0  0  0  0  0  0
  181.1343  122.5708   30.2553 C   0  0  0  0  0  0  0  0  0  0  0  0
  183.4011  123.4540   29.9628 C   0  0  0  0  0  0  0  0  0  0  0  0
  186.9182  118.9255   31.6050 N   0  0  0  0  0  0  0  0  0  0  0  0
  183.0349  121.0594   30.2735 N   0  0  0  0  0  0  0  0  0  0  0  0
  181.9708  123.5869   29.5514 N   0  0  2  0  0  0  0  0  0  0  0  0
  180.7100  124.7501   27.4555 N   0  0  0  0  0  0  0  0  0  0  0  0
  181.1068  126.8569   28.1110 N   0  0  0  0  0  0  0  0  0  0  0  0
  185.2340  116.7158   30.9243 H   0  0  0  0  0  0  0  0  0  0  0  0
  184.5541  117.7478   29.6207 H   0  0  0  0  0  0  0  0  0  0  0  0
  186.3027  117.3366   29.6207 H   0  0  0  0  0  0  0  0  0  0  0  0
  183.8056  121.9159   28.5103 H   0  0  0  0  0  0  0  0  0  0  0  0
  184.9202  121.9284   29.9201 H   0  0  0  0  0  0  0  0  0  0  0  0
  182.2532  125.5955   30.2333 H   0  0  0  0  0  0  0  0  0  0  0  0
  180.6101  124.9629   30.4880 H   0  0  0  0  0  0  0  0  0  0  0  0
  180.0337  124.2983   24.7209 H   0  0  0  0  0  0  0  0  0  0  0  0
  179.9397  126.1746   23.0816 H   0  0  0  0  0  0  0  0  0  0  0  0
  180.3757  128.5048   23.8042 H   0  0  0  0  0  0  0  0  0  0  0  0
  180.8938  129.0151   26.1933 H   0  0  0  0  0  0  0  0  0  0  0  0
  181.4622  127.6896   29.9948 H   0  0  0  0  0  0  0  0  0  0  0  0
  180.8671  128.8262   28.6549 H   0  0  0  0  0  0  0  0  0  0  0  0
  182.9960  130.6312   29.2371 H   0  0  0  0  0  0  0  0  0  0  0  0
  183.8881  130.2243   27.7320 H   0  0  0  0  0  0  0  0  0  0  0  0
  182.0920  130.2518   27.7320 H   0  0  0  0  0  0  0  0  0  0  0  0
  183.0491  128.5245   30.8695 H   0  0  0  0  0  0  0  0  0  0  0  0
  184.1978  127.3995   30.0684 H   0  0  0  0  0  0  0  0  0  0  0  0
  184.5234  129.1661   30.0684 H   0  0  0  0  0  0  0  0  0  0  0  0
  184.3447  126.9995   28.1068 H   0  0  0  0  0  0  0  0  0  0  0  0
  182.9410  127.2201   27.0079 H   0  0  0  0  0  0  0  0  0  0  0  0
  184.2787  128.4189   27.0079 H   0  0  0  0  0  0  0  0  0  0  0  0
  187.8947  120.4819   34.0954 H   0  0  0  0  0  0  0  0  0  0  0  0
  188.9245  119.9117   32.7386 H   0  0  0  0  0  0  0  0  0  0  0  0
  188.2879  121.5914   32.7386 H   0  0  0  0  0  0  0  0  0  0  0  0
  185.4465  121.9035   33.9139 H   0  0  0  0  0  0  0  0  0  0  0  0
  186.2069  122.7169   32.5043 H   0  0  0  0  0  0  0  0  0  0  0  0
  184.4418  122.3835   32.5043 H   0  0  0  0  0  0  0  0  0  0  0  0
  181.0285  120.4289   30.3454 H   0  0  0  0  0  0  0  0  0  0  0  0
  181.5676  121.0878   28.7646 H   0  0  0  0  0  0  0  0  0  0  0  0
  180.0809  122.6826   29.9588 H   0  0  0  0  0  0  0  0  0  0  0  0
  181.2031  122.7038   31.3450 H   0  0  0  0  0  0  0  0  0  0  0  0
  183.4915  123.6069   31.0483 H   0  0  0  0  0  0  0  0  0  0  0  0
  184.0148  124.2076   29.4477 H   0  0  0  0  0  0  0  0  0  0  0  0
  181.9079  123.4119   28.5384 H   0  0  0  0  0  0  0  0  0  0  0  0
  1 20  1  0
  1 21  1  0
  1 27  1  0
  2  4  1  0
  3 23  2  0
  4 15  1  0
  4 27  2  0
  5 26  1  0
  5 28  1  0
  6  7  1  0
 29  6  1  0
  7 30  2  0
  7 31  1  0
  8  9  2  0
  8 13  1  0
  8 30  1  0
  9 10  1  0
 10 11  2  0
 11 12  1  0
 12 13  2  0
 13 31  1  0
 16 14  1  1
 14 31  1  0
 15 20  2  0
 15 23  1  0
 16 17  1  0
 16 18  1  0
 16 19  1  0
 20 22  1  0
 23 28  1  0
 24 25  1  0
 24 28  1  0
 25 29  1  0
 26 29  1  0
  2 32  1  0
  2 33  1  0
  2 34  1  0
  5 35  1  0
  5 36  1  0
  6 37  1  0
  6 38  1  0
  9 39  1  0
 10 40  1  0
 11 41  1  0
 12 42  1  0
 14 43  1  0
 14 44  1  0
 17 45  1  0
 17 46  1  0
 17 47  1  0
 18 48  1  0
 18 49  1  0
 18 50  1  0
 19 51  1  0
 19 52  1  0
 19 53  1  0
 21 54  1  0
 21 55  1  0
 21 56  1  0
 22 57  1  0
 22 58  1  0
 22 59  1  0
 24 60  1  0
 24 61  1  0
 25 62  1  0
 25 63  1  0
 26 64  1  0
 26 65  1  0
 29 66  1  6
M  CHG  1  29   1
M  END
>  <filename_input>  (15) 
7RNI_60I_docked.sdf

>  <pdb_id>  (15) 
7RNI_60I

>  <pose_rank>  (15) 
14

>  <num_atoms_heavy>  (15) 
31

>  <num_torsions>  (15) 
5

>  <pose>  (15) 
[182.5740792765042, 119.37622209102136, 31.69829875004868, 2.534468304931628, 0.9927177935441801, 0.21834704418550502, 5.379485009019205, -0.7880173699072266, 11.395893602117104, -2.894996561474508, 0.9117422099187537]

>  <energy>  (15) 
-612.6878012951342

>  <inter_energy>  (15) 
-642.1421307295983

>  <intra_energy>  (15) 
25.182885285351354

>  <rmsd>  (15) 
8.47855

>  <sdf_rank>  (15) 
0

$$$$

     RDKit          3D

 66 69  0  0  0  0  0  0  0  0999 V2000
  183.8007  129.4653   28.9053 N   0  0  0  0  0  0  0  0  0  0  0  0
  182.9148  127.5826   26.0165 C   0  0  0  0  0  0  0  0  0  0  0  0
  180.5154  126.4458   28.6987 O   0  0  0  0  0  0  0  0  0  0  0  0
  183.0692  128.1393   27.3933 C   0  0  0  0  0  0  0  0  0  0  0  0
  183.7256  125.2480   29.9374 C   0  0  0  0  0  0  0  0  0  0  0  0
  183.9271  121.5215   29.2608 C   0  0  0  0  0  0  0  0  0  0  0  0
  182.9415  120.4658   29.6724 C   0  0  0  0  0  0  0  0  0  0  0  0
  181.0659  119.4782   30.0284 C   0  0  0  0  0  0  0  0  0  0  0  0
  179.7243  119.1117   30.1026 C   0  0  0  0  0  0  0  0  0  0  0  0
  179.3756  118.0234   30.8918 C   0  0  0  0  0  0  0  0  0  0  0  0
  180.3446  117.3071   31.5896 C   0  0  0  0  0  0  0  0  0  0  0  0
  181.6835  117.6586   31.5091 C   0  0  0  0  0  0  0  0  0  0  0  0
  182.0199  118.7513   30.7278 C   0  0  0  0  0  0  0  0  0  0  0  0
  184.5207  119.0455   31.1054 C   0  0  0  0  0  0  0  0  0  0  0  0
  182.5267  127.6743   28.6314 C   0  0  0  0  0  0  0  0  0  0  0  0
  185.2234  120.1378   31.9441 C   0  0  1  0  0  0  0  0  0  0  0  0
  186.1228  121.0407   31.1086 C   0  0  0  0  0  0  0  0  0  0  0  0
  184.1433  121.0194   32.5685 C   0  0  0  0  0  0  0  0  0  0  0  0
  186.0507  119.5179   33.0622 C   0  0  0  0  0  0  0  0  0  0  0  0
  183.0251  128.5812   29.5513 C   0  0  0  0  0  0  0  0  0  0  0  0
  184.5507  130.6005   29.4307 C   0  0  0  0  0  0  0  0  0  0  0  0
  182.7987  128.7124   31.0182 C   0  0  0  0  0  0  0  0  0  0  0  0
  181.7122  126.4490   28.9652 C   0  0  0  0  0  0  0  0  0  0  0  0
  181.5188  124.3020   30.1127 C   0  0  0  0  0  0  0  0  0  0  0  0
  181.9810  123.0302   29.4378 C   0  0  0  0  0  0  0  0  0  0  0  0
  184.2380  123.9718   29.2862 C   0  0  0  0  0  0  0  0  0  0  0  0
  183.8297  129.2031   27.5690 N   0  0  0  0  0  0  0  0  0  0  0  0
  182.3065  125.4303   29.6130 N   0  0  0  0  0  0  0  0  0  0  0  0
  183.4180  122.8271   29.7860 N   0  0  2  0  0  0  0  0  0  0  0  0
  181.6661  120.5486   29.3616 N   0  0  0  0  0  0  0  0  0  0  0  0
  183.2272  119.4010   30.4894 N   0  0  0  0  0  0  0  0  0  0  0  0
  182.6214  126.5244   26.0797 H   0  0  0  0  0  0  0  0  0  0  0  0
  182.1392  128.1467   25.4778 H   0  0  0  0  0  0  0  0  0  0  0  0
  183.8702  127.6666   25.4778 H   0  0  0  0  0  0  0  0  0  0  0  0
  183.8454  125.1759   31.0284 H   0  0  0  0  0  0  0  0  0  0  0  0
  184.2999  126.1068   29.5599 H   0  0  0  0  0  0  0  0  0  0  0  0
  184.9161  121.3021   29.6894 H   0  0  0  0  0  0  0  0  0  0  0  0
  184.0321  121.5538   28.1663 H   0  0  0  0  0  0  0  0  0  0  0  0
  178.9574  119.6722   29.5480 H   0  0  0  0  0  0  0  0  0  0  0  0
  178.3200  117.7234   30.9667 H   0  0  0  0  0  0  0  0  0  0  0  0
  180.0442  116.4518   32.2125 H   0  0  0  0  0  0  0  0  0  0  0  0
  182.4537  117.0877   32.0486 H   0  0  0  0  0  0  0  0  0  0  0  0
  185.2062  118.7576   30.2947 H   0  0  0  0  0  0  0  0  0  0  0  0
  184.2853  118.2438   31.8208 H   0  0  0  0  0  0  0  0  0  0  0  0
  186.7405  121.6607   31.7749 H   0  0  0  0  0  0  0  0  0  0  0  0
  186.7749  120.4226   30.4739 H   0  0  0  0  0  0  0  0  0  0  0  0
  185.5023  121.6904   30.4739 H   0  0  0  0  0  0  0  0  0  0  0  0
  184.2124  120.9629   33.6649 H   0  0  0  0  0  0  0  0  0  0  0  0
  184.2877  122.0608   32.2451 H   0  0  0  0  0  0  0  0  0  0  0  0
  183.1519  120.6692   32.2451 H   0  0  0  0  0  0  0  0  0  0  0  0
  185.6405  119.8252   34.0354 H   0  0  0  0  0  0  0  0  0  0  0  0
  186.0160  118.4216   32.9793 H   0  0  0  0  0  0  0  0  0  0  0  0
  187.0931  119.8591   32.9793 H   0  0  0  0  0  0  0  0  0  0  0  0
  184.5333  130.5742   30.5302 H   0  0  0  0  0  0  0  0  0  0  0  0
  185.5916  130.5467   29.0790 H   0  0  0  0  0  0  0  0  0  0  0  0
  184.0928  131.5368   29.0790 H   0  0  0  0  0  0  0  0  0  0  0  0
  183.6264  128.2330   31.5613 H   0  0  0  0  0  0  0  0  0  0  0  0
  182.7513  129.7777   31.2881 H   0  0  0  0  0  0  0  0  0  0  0  0
  181.8511  128.2233   31.2881 H   0  0  0  0  0  0  0  0  0  0  0  0
  180.4547  124.4699   29.8902 H   0  0  0  0  0  0  0  0  0  0  0  0
  181.6546  124.2115   31.2005 H   0  0  0  0  0  0  0  0  0  0  0  0
  181.3848  122.1781   29.7962 H   0  0  0  0  0  0  0  0  0  0  0  0
  181.8561  123.1058   28.3475 H   0  0  0  0  0  0  0  0  0  0  0  0
  184.1427  124.0481   28.1930 H   0  0  0  0  0  0  0  0  0  0  0  0
  185.2975  123.8172   29.5384 H   0  0  0  0  0  0  0  0  0  0  0  0
  183.5006  122.7937   30.8121 H   0  0  0  0  0  0  0  0  0  0  0  0
  1 20  1  0
  1 21  1  0
  1 27  1  0
  2  4  1  0
  3 23  2  0
  4 15  1  0
  4 27  2  0
  5 26  1  0
  5 28  1  0
  6  7  1  0
 29  6  1  0
  7 30  2  0
  7 31  1  0
  8  9  2  0
  8 13  1  0
  8 30  1  0
  9 10  1  0
 10 11  2  0
 11 12  1  0
 12 13  2  0
 13 31  1  0
 16 14  1  6
 14 31  1  0
 15 20  2  0
 15 23  1  0
 16 17  1  0
 16 18  1  0
 16 19  1  0
 20 22  1  0
 23 28  1  0
 24 25  1  0
 24 28  1  0
 25 29  1  0
 26 29  1  0
  2 32  1  0
  2 33  1  0
  2 34  1  0
  5 35  1  0
  5 36  1  0
  6 37  1  0
  6 38  1  0
  9 39  1  0
 10 40  1  0
 11 41  1  0
 12 42  1  0
 14 43  1  0
 14 44  1  0
 17 45  1  0
 17 46  1  0
 17 47  1  0
 18 48  1  0
 18 49  1  0
 18 50  1  0
 19 51  1  0
 19 52  1  0
 19 53  1  0
 21 54  1  0
 21 55  1  0
 21 56  1  0
 22 57  1  0
 22 58  1  0
 22 59  1  0
 24 60  1  0
 24 61  1  0
 25 62  1  0
 25 63  1  0
 26 64  1  0
 26 65  1  0
 29 66  1  1
M  CHG  1  29   1
M  END
>  <filename_input>  (16) 
7RNI_60I_docked.sdf

>  <pdb_id>  (16) 
7RNI_60I

>  <pose_rank>  (16) 
15

>  <num_atoms_heavy>  (16) 
31

>  <num_torsions>  (16) 
5

>  <pose>  (16) 
[180.51535733346213, 126.44581207001208, 28.698701395954146, 9.746493161407178, -6.884983377889751, -2.3539365598937234, 2.8553645229186397, 6.684959257379865, -6.911832717533863, 2.5723686643568344, -2.7491843208513758]

>  <energy>  (16) 
-623.9644977156611

>  <inter_energy>  (16) 
-729.048266541018

>  <intra_energy>  (16) 
103.92367545973917

>  <rmsd>  (16) 
2.0597

>  <sdf_rank>  (16) 
0

$$$$

     RDKit          3D

 66 69  0  0  0  0  0  0  0  0999 V2000
  180.1335  125.7084   23.2252 N   0  0  0  0  0  0  0  0  0  0  0  0
  182.9332  124.1938   24.8195 C   0  0  0  0  0  0  0  0  0  0  0  0
  179.2732  125.2554   27.3290 O   0  0  0  0  0  0  0  0  0  0  0  0
  181.6214  124.8219   24.4821 C   0  0  0  0  0  0  0  0  0  0  0  0
  182.8855  124.8056   27.1733 C   0  0  0  0  0  0  0  0  0  0  0  0
  183.8965  122.4567   29.9744 C   0  0  0  0  0  0  0  0  0  0  0  0
  182.9093  121.3340   29.8314 C   0  0  0  0  0  0  0  0  0  0  0  0
  181.2441  120.1849   29.1061 C   0  0  0  0  0  0  0  0  0  0  0  0
  180.1470  119.6890   28.4059 C   0  0  0  0  0  0  0  0  0  0  0  0
  179.4406  118.6226   28.9466 C   0  0  0  0  0  0  0  0  0  0  0  0
  179.8224  118.0538   30.1589 C   0  0  0  0  0  0  0  0  0  0  0  0
  180.9217  118.5340   30.8541 C   0  0  0  0  0  0  0  0  0  0  0  0
  181.6134  119.6042   30.3119 C   0  0  0  0  0  0  0  0  0  0  0  0
  183.3641  120.1746   32.0705 C   0  0  0  0  0  0  0  0  0  0  0  0
  180.5355  125.1825   25.3389 C   0  0  0  0  0  0  0  0  0  0  0  0
  184.5441  119.1768   32.1166 C   0  0  1  0  0  0  0  0  0  0  0  0
  185.5583  119.5068   33.2050 C   0  0  0  0  0  0  0  0  0  0  0  0
  183.9777  117.7917   32.4238 C   0  0  0  0  0  0  0  0  0  0  0  0
  185.2627  119.1210   30.7752 C   0  0  0  0  0  0  0  0  0  0  0  0
  179.6138  125.7293   24.4621 C   0  0  0  0  0  0  0  0  0  0  0  0
  179.5587  126.1748   21.9685 C   0  0  0  0  0  0  0  0  0  0  0  0
  178.2360  126.2496   24.6888 C   0  0  0  0  0  0  0  0  0  0  0  0
  180.3908  125.1322   26.8398 C   0  0  0  0  0  0  0  0  0  0  0  0
  181.4227  125.1564   29.0530 C   0  0  0  0  0  0  0  0  0  0  0  0
  181.8910  123.8686   29.6922 C   0  0  0  0  0  0  0  0  0  0  0  0
  183.4078  123.5210   27.7995 C   0  0  0  0  0  0  0  0  0  0  0  0
  181.3731  125.1438   23.2269 N   0  0  0  0  0  0  0  0  0  0  0  0
  181.4989  125.0308   27.5964 N   0  0  0  0  0  0  0  0  0  0  0  0
  183.3099  123.6485   29.2850 N   0  0  2  0  0  0  0  0  0  0  0  0
  182.0776  121.2669   28.8147 N   0  0  0  0  0  0  0  0  0  0  0  0
  182.6903  120.3572   30.7699 N   0  0  0  0  0  0  0  0  0  0  0  0
  183.0440  124.1408   25.9126 H   0  0  0  0  0  0  0  0  0  0  0  0
  182.9732  123.1788   24.3972 H   0  0  0  0  0  0  0  0  0  0  0  0
  183.7490  124.7990   24.3972 H   0  0  0  0  0  0  0  0  0  0  0  0
  183.5093  125.6513   27.4983 H   0  0  0  0  0  0  0  0  0  0  0  0
  182.9237  124.7197   26.0774 H   0  0  0  0  0  0  0  0  0  0  0  0
  184.0624  122.6801   31.0386 H   0  0  0  0  0  0  0  0  0  0  0  0
  184.8655  122.1850   29.5303 H   0  0  0  0  0  0  0  0  0  0  0  0
  179.8465  120.1326   27.4452 H   0  0  0  0  0  0  0  0  0  0  0  0
  178.5679  118.2218   28.4100 H   0  0  0  0  0  0  0  0  0  0  0  0
  179.2445  117.2130   30.5702 H   0  0  0  0  0  0  0  0  0  0  0  0
  181.2344  118.0795   31.8058 H   0  0  0  0  0  0  0  0  0  0  0  0
  182.6079  119.8274   32.7900 H   0  0  0  0  0  0  0  0  0  0  0  0
  183.8092  121.1537   32.3012 H   0  0  0  0  0  0  0  0  0  0  0  0
  185.0980  119.3570   34.1927 H   0  0  0  0  0  0  0  0  0  0  0  0
  186.4325  118.8468   33.1040 H   0  0  0  0  0  0  0  0  0  0  0  0
  185.8766  120.5549   33.1040 H   0  0  0  0  0  0  0  0  0  0  0  0
  183.9207  117.6523   33.5134 H   0  0  0  0  0  0  0  0  0  0  0  0
  182.9709  117.7027   31.9896 H   0  0  0  0  0  0  0  0  0  0  0  0
  184.6336  117.0227   31.9896 H   0  0  0  0  0  0  0  0  0  0  0  0
  186.3466  119.0368   30.9430 H   0  0  0  0  0  0  0  0  0  0  0  0
  184.9108  118.2474   30.2067 H   0  0  0  0  0  0  0  0  0  0  0  0
  185.0499  120.0383   30.2067 H   0  0  0  0  0  0  0  0  0  0  0  0
  178.7202  126.8550   22.1789 H   0  0  0  0  0  0  0  0  0  0  0  0
  180.3270  126.7080   21.3894 H   0  0  0  0  0  0  0  0  0  0  0  0
  179.1952  125.3130   21.3894 H   0  0  0  0  0  0  0  0  0  0  0  0
  178.0446  126.3219   25.7696 H   0  0  0  0  0  0  0  0  0  0  0  0
  178.1405  127.2457   24.2321 H   0  0  0  0  0  0  0  0  0  0  0  0
  177.5059  125.5652   24.2321 H   0  0  0  0  0  0  0  0  0  0  0  0
  180.3829  125.3571   29.3504 H   0  0  0  0  0  0  0  0  0  0  0  0
  182.0641  125.9863   29.3847 H   0  0  0  0  0  0  0  0  0  0  0  0
  181.8237  123.9479   30.7873 H   0  0  0  0  0  0  0  0  0  0  0  0
  181.2623  123.0266   29.3669 H   0  0  0  0  0  0  0  0  0  0  0  0
  182.8020  122.6683   27.4588 H   0  0  0  0  0  0  0  0  0  0  0  0
  184.4533  123.3527   27.5020 H   0  0  0  0  0  0  0  0  0  0  0  0
  183.8609  124.4686   29.5763 H   0  0  0  0  0  0  0  0  0  0  0  0
  1 20  1  0
  1 21  1  0
  1 27  1  0
  2  4  1  0
  3 23  2  0
  4 15  1  0
  4 27  2  0
  5 26  1  0
  5 28  1  0
  6  7  1  0
 29  6  1  0
  7 30  2  0
  7 31  1  0
  8  9  2  0
  8 13  1  0
  8 30  1  0
  9 10  1  0
 10 11  2  0
 11 12  1  0
 12 13  2  0
 13 31  1  0
 16 14  1  6
 14 31  1  0
 15 20  2  0
 15 23  1  0
 16 17  1  0
 16 18  1  0
 16 19  1  0
 20 22  1  0
 23 28  1  0
 24 25  1  0
 24 28  1  0
 25 29  1  0
 26 29  1  0
  2 32  1  0
  2 33  1  0
  2 34  1  0
  5 35  1  0
  5 36  1  0
  6 37  1  0
  6 38  1  0
  9 39  1  0
 10 40  1  0
 11 41  1  0
 12 42  1  0
 14 43  1  0
 14 44  1  0
 17 45  1  0
 17 46  1  0
 17 47  1  0
 18 48  1  0
 18 49  1  0
 18 50  1  0
 19 51  1  0
 19 52  1  0
 19 53  1  0
 21 54  1  0
 21 55  1  0
 21 56  1  0
 22 57  1  0
 22 58  1  0
 22 59  1  0
 24 60  1  0
 24 61  1  0
 25 62  1  0
 25 63  1  0
 26 64  1  0
 26 65  1  0
 29 66  1  1
M  CHG  1  29   1
M  END
>  <filename_input>  (17) 
7RNI_60I_docked.sdf

>  <pdb_id>  (17) 
7RNI_60I

>  <pose_rank>  (17) 
16

>  <num_atoms_heavy>  (17) 
31

>  <num_torsions>  (17) 
5

>  <pose>  (17) 
[179.27322760655008, 125.2554297038093, 27.32902426999927, -1.4108350213973206, 0.8876361485249289, 0.05567662101485409, 1.3191932758447729, 2.101342476358948, -1.1164509280674566, -0.05192871059721083, 1.449428609249501]

>  <energy>  (17) 
-512.7809096705689

>  <inter_energy>  (17) 
-677.219120688228

>  <intra_energy>  (17) 
168.9413955446111

>  <rmsd>  (17) 
4.53949

>  <sdf_rank>  (17) 
0

$$$$

     RDKit          3D

 66 69  0  0  0  0  0  0  0  0999 V2000
  177.7424  125.3740   24.0937 N   0  0  0  0  0  0  0  0  0  0  0  0
  178.4636  127.4703   26.8794 C   0  0  0  0  0  0  0  0  0  0  0  0
  181.8332  126.6240   25.3689 O   0  0  0  0  0  0  0  0  0  0  0  0
  178.5151  126.5333   25.7180 C   0  0  0  0  0  0  0  0  0  0  0  0
  180.6616  123.4268   26.6651 C   0  0  0  0  0  0  0  0  0  0  0  0
  182.4904  122.7382   29.9157 C   0  0  0  0  0  0  0  0  0  0  0  0
  182.3033  121.2601   30.1043 C   0  0  0  0  0  0  0  0  0  0  0  0
  181.3390  119.3724   30.4598 C   0  0  0  0  0  0  0  0  0  0  0  0
  180.4323  118.3381   30.6785 C   0  0  0  0  0  0  0  0  0  0  0  0
  180.9215  117.0951   31.0584 C   0  0  0  0  0  0  0  0  0  0  0  0
  182.2890  116.8816   31.2111 C   0  0  0  0  0  0  0  0  0  0  0  0
  183.1977  117.9035   30.9817 C   0  0  0  0  0  0  0  0  0  0  0  0
  182.6995  119.1419   30.6133 C   0  0  0  0  0  0  0  0  0  0  0  0
  184.7542  120.6432   30.5254 C   0  0  0  0  0  0  0  0  0  0  0  0
  179.6259  125.8192   25.1706 C   0  0  0  0  0  0  0  0  0  0  0  0
  185.3446  120.5669   31.9522 C   0  0  1  0  0  0  0  0  0  0  0  0
  184.2904  120.7308   33.0403 C   0  0  0  0  0  0  0  0  0  0  0  0
  185.9731  119.1856   32.1284 C   0  0  0  0  0  0  0  0  0  0  0  0
  186.4253  121.6211   32.1514 C   0  0  0  0  0  0  0  0  0  0  0  0
  179.0578  125.1112   24.1251 C   0  0  0  0  0  0  0  0  0  0  0  0
  176.7159  124.8693   23.1887 C   0  0  0  0  0  0  0  0  0  0  0  0
  179.6687  124.2141   23.1041 C   0  0  0  0  0  0  0  0  0  0  0  0
  181.0604  125.7071   25.6245 C   0  0  0  0  0  0  0  0  0  0  0  0
  182.8806  124.3497   26.5234 C   0  0  0  0  0  0  0  0  0  0  0  0
  183.0635  124.2094   28.0179 C   0  0  0  0  0  0  0  0  0  0  0  0
  180.8192  123.2374   28.1665 C   0  0  0  0  0  0  0  0  0  0  0  0
  177.3983  126.2570   25.0721 N   0  0  0  0  0  0  0  0  0  0  0  0
  181.4646  124.5738   26.2269 N   0  0  0  0  0  0  0  0  0  0  0  0
  182.2684  123.0280   28.4644 N   0  0  2  0  0  0  0  0  0  0  0  0
  181.1089  120.7098   30.1296 N   0  0  0  0  0  0  0  0  0  0  0  0
  183.3105  120.3704   30.3813 N   0  0  0  0  0  0  0  0  0  0  0  0
  178.4952  126.8949   27.8164 H   0  0  0  0  0  0  0  0  0  0  0  0
  179.3256  128.1524   26.8387 H   0  0  0  0  0  0  0  0  0  0  0  0
  177.5321  128.0538   26.8387 H   0  0  0  0  0  0  0  0  0  0  0  0
  181.0031  122.5203   26.1439 H   0  0  0  0  0  0  0  0  0  0  0  0
  179.6030  123.6104   26.4291 H   0  0  0  0  0  0  0  0  0  0  0  0
  181.7622  123.2917   30.5267 H   0  0  0  0  0  0  0  0  0  0  0  0
  183.4988  123.0481   30.2271 H   0  0  0  0  0  0  0  0  0  0  0  0
  179.3519  118.5022   30.5531 H   0  0  0  0  0  0  0  0  0  0  0  0
  180.2195  116.2682   31.2409 H   0  0  0  0  0  0  0  0  0  0  0  0
  182.6530  115.8899   31.5177 H   0  0  0  0  0  0  0  0  0  0  0  0
  184.2795  117.7359   31.0889 H   0  0  0  0  0  0  0  0  0  0  0  0
  184.9397  121.6579   30.1435 H   0  0  0  0  0  0  0  0  0  0  0  0
  185.2538  119.8382   29.9665 H   0  0  0  0  0  0  0  0  0  0  0  0
  184.7685  120.6565   34.0282 H   0  0  0  0  0  0  0  0  0  0  0  0
  183.8089  121.7146   32.9391 H   0  0  0  0  0  0  0  0  0  0  0  0
  183.5329  119.9397   32.9391 H   0  0  0  0  0  0  0  0  0  0  0  0
  186.0744  118.9630   33.2008 H   0  0  0  0  0  0  0  0  0  0  0  0
  185.3312  118.4277   31.6556 H   0  0  0  0  0  0  0  0  0  0  0  0
  186.9662  119.1716   31.6556 H   0  0  0  0  0  0  0  0  0  0  0  0
  186.5884  121.7802   33.2276 H   0  0  0  0  0  0  0  0  0  0  0  0
  187.3612  121.2794   31.6853 H   0  0  0  0  0  0  0  0  0  0  0  0
  186.1069  122.5652   31.6853 H   0  0  0  0  0  0  0  0  0  0  0  0
  175.8804  124.4584   23.7745 H   0  0  0  0  0  0  0  0  0  0  0  0
  176.3503  125.6903   22.5546 H   0  0  0  0  0  0  0  0  0  0  0  0
  177.1430  124.0784   22.5546 H   0  0  0  0  0  0  0  0  0  0  0  0
  180.2189  123.4060   23.6083 H   0  0  0  0  0  0  0  0  0  0  0  0
  178.8766  123.7815   22.4752 H   0  0  0  0  0  0  0  0  0  0  0  0
  180.3614  124.7926   22.4752 H   0  0  0  0  0  0  0  0  0  0  0  0
  183.4714  125.2033   26.1597 H   0  0  0  0  0  0  0  0  0  0  0  0
  183.2203  123.4308   26.0233 H   0  0  0  0  0  0  0  0  0  0  0  0
  184.1271  124.0552   28.2521 H   0  0  0  0  0  0  0  0  0  0  0  0
  182.7238  125.1194   28.5343 H   0  0  0  0  0  0  0  0  0  0  0  0
  180.4567  124.1320   28.6942 H   0  0  0  0  0  0  0  0  0  0  0  0
  180.2343  122.3683   28.5020 H   0  0  0  0  0  0  0  0  0  0  0  0
  182.5909  122.2035   27.9380 H   0  0  0  0  0  0  0  0  0  0  0  0
  1 20  1  0
  1 21  1  0
  1 27  1  0
  2  4  1  0
  3 23  2  0
  4 15  1  0
  4 27  2  0
  5 26  1  0
  5 28  1  0
  6  7  1  0
 29  6  1  0
  7 30  2  0
  7 31  1  0
  8  9  2  0
  8 13  1  0
  8 30  1  0
  9 10  1  0
 10 11  2  0
 11 12  1  0
 12 13  2  0
 13 31  1  0
 16 14  1  6
 14 31  1  0
 15 20  2  0
 15 23  1  0
 16 17  1  0
 16 18  1  0
 16 19  1  0
 20 22  1  0
 23 28  1  0
 24 25  1  0
 24 28  1  0
 25 29  1  0
 26 29  1  0
  2 32  1  0
  2 33  1  0
  2 34  1  0
  5 35  1  0
  5 36  1  0
  6 37  1  0
  6 38  1  0
  9 39  1  0
 10 40  1  0
 11 41  1  0
 12 42  1  0
 14 43  1  0
 14 44  1  0
 17 45  1  0
 17 46  1  0
 17 47  1  0
 18 48  1  0
 18 49  1  0
 18 50  1  0
 19 51  1  0
 19 52  1  0
 19 53  1  0
 21 54  1  0
 21 55  1  0
 21 56  1  0
 22 57  1  0
 22 58  1  0
 22 59  1  0
 24 60  1  0
 24 61  1  0
 25 62  1  0
 25 63  1  0
 26 64  1  0
 26 65  1  0
 29 66  1  6
M  CHG  1  29   1
M  END
>  <filename_input>  (18) 
7RNI_60I_docked.sdf

>  <pdb_id>  (18) 
7RNI_60I

>  <pose_rank>  (18) 
17

>  <num_atoms_heavy>  (18) 
31

>  <num_torsions>  (18) 
5

>  <pose>  (18) 
[181.8332221343625, 126.6240091348864, 25.36891161220746, -0.9645482774340426, 3.0034476301892865, -1.2696378307042402, 2.835107513008267, -1.3657798273207602, -2.936699615277929, 3.5165103997131664, -1.5897576951347552]

>  <energy>  (18) 
-530.9619205019453

>  <inter_energy>  (18) 
-563.3339547237784

>  <intra_energy>  (18) 
31.777922068634577

>  <rmsd>  (18) 
4.9482

>  <sdf_rank>  (18) 
0

$$$$

     RDKit          3D

 66 69  0  0  0  0  0  0  0  0999 V2000
  183.4014  119.3207   31.4880 N   0  0  0  0  0  0  0  0  0  0  0  0
  186.1399  121.1009   32.9043 C   0  0  0  0  0  0  0  0  0  0  0  0
  182.6615  123.5064   32.3248 O   0  0  0  0  0  0  0  0  0  0  0  0
  184.8485  120.6822   32.2828 C   0  0  0  0  0  0  0  0  0  0  0  0
  185.6018  123.2109   30.1936 C   0  0  0  0  0  0  0  0  0  0  0  0
  187.7602  126.2813   30.7410 C   0  0  0  0  0  0  0  0  0  0  0  0
  187.2787  127.4178   31.5964 C   0  0  0  0  0  0  0  0  0  0  0  0
  185.9794  128.6301   32.8055 C   0  0  0  0  0  0  0  0  0  0  0  0
  184.9274  129.1512   33.5548 C   0  0  0  0  0  0  0  0  0  0  0  0
  184.9809  130.4854   33.9368 C   0  0  0  0  0  0  0  0  0  0  0  0
  186.0648  131.2861   33.5862 C   0  0  0  0  0  0  0  0  0  0  0  0
  187.1217  130.7697   32.8520 C   0  0  0  0  0  0  0  0  0  0  0  0
  187.0543  129.4412   32.4672 C   0  0  0  0  0  0  0  0  0  0  0  0
  189.1158  129.1053   31.0110 C   0  0  0  0  0  0  0  0  0  0  0  0
  183.7582  121.4815   31.8184 C   0  0  0  0  0  0  0  0  0  0  0  0
  190.4550  128.8461   31.7387 C   0  0  1  0  0  0  0  0  0  0  0  0
  191.5820  129.7456   31.2458 C   0  0  0  0  0  0  0  0  0  0  0  0
  190.2491  129.1422   33.2231 C   0  0  0  0  0  0  0  0  0  0  0  0
  190.8840  127.3927   31.5883 C   0  0  0  0  0  0  0  0  0  0  0  0
  182.8633  120.5406   31.3378 C   0  0  0  0  0  0  0  0  0  0  0  0
  182.8571  118.0154   31.1313 C   0  0  0  0  0  0  0  0  0  0  0  0
  181.4947  120.6926   30.7684 C   0  0  0  0  0  0  0  0  0  0  0  0
  183.5892  122.9777   31.7221 C   0  0  0  0  0  0  0  0  0  0  0  0
  184.1765  125.0951   30.6566 C   0  0  0  0  0  0  0  0  0  0  0  0
  185.3563  125.8997   31.1539 C   0  0  0  0  0  0  0  0  0  0  0  0
  186.8194  123.9989   30.6535 C   0  0  0  0  0  0  0  0  0  0  0  0
  184.6273  119.3979   32.0768 N   0  0  0  0  0  0  0  0  0  0  0  0
  184.4134  123.6743   30.9183 N   0  0  0  0  0  0  0  0  0  0  0  0
  186.5637  125.4493   30.4009 N   0  0  2  0  0  0  0  0  0  0  0  0
  186.1427  127.3563   32.2565 N   0  0  0  0  0  0  0  0  0  0  0  0
  187.8858  128.6452   31.6853 N   0  0  0  0  0  0  0  0  0  0  0  0
  186.0464  121.0705   33.9999 H   0  0  0  0  0  0  0  0  0  0  0  0
  186.9394  120.4159   32.5855 H   0  0  0  0  0  0  0  0  0  0  0  0
  186.3854  122.1246   32.5855 H   0  0  0  0  0  0  0  0  0  0  0  0
  185.4543  123.3620   29.1140 H   0  0  0  0  0  0  0  0  0  0  0  0
  185.7602  122.1417   30.3974 H   0  0  0  0  0  0  0  0  0  0  0  0
  188.2229  126.6703   29.8220 H   0  0  0  0  0  0  0  0  0  0  0  0
  188.5147  125.6831   31.2729 H   0  0  0  0  0  0  0  0  0  0  0  0
  184.0726  128.5196   33.8380 H   0  0  0  0  0  0  0  0  0  0  0  0
  184.1560  130.9152   34.5240 H   0  0  0  0  0  0  0  0  0  0  0  0
  186.0829  132.3415   33.8957 H   0  0  0  0  0  0  0  0  0  0  0  0
  187.9858  131.3953   32.5838 H   0  0  0  0  0  0  0  0  0  0  0  0
  189.0250  130.1911   30.8601 H   0  0  0  0  0  0  0  0  0  0  0  0
  189.1736  128.5115   30.0868 H   0  0  0  0  0  0  0  0  0  0  0  0
  192.1153  130.1712   32.1086 H   0  0  0  0  0  0  0  0  0  0  0  0
  192.2824  129.1554   30.6365 H   0  0  0  0  0  0  0  0  0  0  0  0
  191.1618  130.5594   30.6365 H   0  0  0  0  0  0  0  0  0  0  0  0
  190.7749  128.3858   33.8243 H   0  0  0  0  0  0  0  0  0  0  0  0
  190.6496  130.1397   33.4570 H   0  0  0  0  0  0  0  0  0  0  0  0
  189.1747  129.1144   33.4570 H   0  0  0  0  0  0  0  0  0  0  0  0
  191.0163  126.9446   32.5841 H   0  0  0  0  0  0  0  0  0  0  0  0
  190.1115  126.8376   31.0361 H   0  0  0  0  0  0  0  0  0  0  0  0
  191.8343  127.3462   31.0361 H   0  0  0  0  0  0  0  0  0  0  0  0
  182.6227  117.4532   32.0472 H   0  0  0  0  0  0  0  0  0  0  0  0
  181.9401  118.1500   30.5388 H   0  0  0  0  0  0  0  0  0  0  0  0
  183.5981  117.4587   30.5388 H   0  0  0  0  0  0  0  0  0  0  0  0
  180.7640  120.7737   31.5866 H   0  0  0  0  0  0  0  0  0  0  0  0
  181.4540  121.6007   30.1490 H   0  0  0  0  0  0  0  0  0  0  0  0
  181.2558  119.8154   30.1490 H   0  0  0  0  0  0  0  0  0  0  0  0
  183.2648  125.4180   31.1805 H   0  0  0  0  0  0  0  0  0  0  0  0
  184.0522  125.2543   29.5753 H   0  0  0  0  0  0  0  0  0  0  0  0
  185.1813  126.9708   30.9747 H   0  0  0  0  0  0  0  0  0  0  0  0
  185.4977  125.7480   32.2341 H   0  0  0  0  0  0  0  0  0  0  0  0
  186.9859  123.8324   31.7281 H   0  0  0  0  0  0  0  0  0  0  0  0
  187.7131  123.6705   30.1027 H   0  0  0  0  0  0  0  0  0  0  0  0
  186.3830  125.5754   29.3948 H   0  0  0  0  0  0  0  0  0  0  0  0
  1 20  1  0
  1 21  1  0
  1 27  1  0
  2  4  1  0
  3 23  2  0
  4 15  1  0
  4 27  2  0
  5 26  1  0
  5 28  1  0
  6  7  1  0
 29  6  1  0
  7 30  2  0
  7 31  1  0
  8  9  2  0
  8 13  1  0
  8 30  1  0
  9 10  1  0
 10 11  2  0
 11 12  1  0
 12 13  2  0
 13 31  1  0
 16 14  1  6
 14 31  1  0
 15 20  2  0
 15 23  1  0
 16 17  1  0
 16 18  1  0
 16 19  1  0
 20 22  1  0
 23 28  1  0
 24 25  1  0
 24 28  1  0
 25 29  1  0
 26 29  1  0
  2 32  1  0
  2 33  1  0
  2 34  1  0
  5 35  1  0
  5 36  1  0
  6 37  1  0
  6 38  1  0
  9 39  1  0
 10 40  1  0
 11 41  1  0
 12 42  1  0
 14 43  1  0
 14 44  1  0
 17 45  1  0
 17 46  1  0
 17 47  1  0
 18 48  1  0
 18 49  1  0
 18 50  1  0
 19 51  1  0
 19 52  1  0
 19 53  1  0
 21 54  1  0
 21 55  1  0
 21 56  1  0
 22 57  1  0
 22 58  1  0
 22 59  1  0
 24 60  1  0
 24 61  1  0
 25 62  1  0
 25 63  1  0
 26 64  1  0
 26 65  1  0
 29 66  1  6
M  CHG  1  29   1
M  END
>  <filename_input>  (19) 
7RNI_60I_docked.sdf

>  <pdb_id>  (19) 
7RNI_60I

>  <pose_rank>  (19) 
18

>  <num_atoms_heavy>  (19) 
31

>  <num_torsions>  (19) 
5

>  <pose>  (19) 
[182.66150949576797, 123.50642030596515, 32.324830907370966, 2.7176164024155964, -0.7508752902411981, -0.21014180449803294, 2.1048532693811697, 1.1300293648761461, 5.050133218211965, 0.08277693300367356, -4.00882114152334]

>  <energy>  (19) 
-250.03971952611886

>  <inter_energy>  (19) 
-371.1317033671144

>  <intra_energy>  (19) 
124.48274203854162

>  <rmsd>  (19) 
9.50426

>  <sdf_rank>  (19) 
0

$$$$

     RDKit          3D

 66 69  0  0  0  0  0  0  0  0999 V2000
  183.5224  118.8697   31.2802 N   0  0  0  0  0  0  0  0  0  0  0  0
  179.9907  118.7350   30.8522 C   0  0  0  0  0  0  0  0  0  0  0  0
  180.7726  120.9171   28.3126 O   0  0  0  0  0  0  0  0  0  0  0  0
  181.4480  119.0533   30.7875 C   0  0  0  0  0  0  0  0  0  0  0  0
  183.0697  122.9080   30.3212 C   0  0  0  0  0  0  0  0  0  0  0  0
  181.5169  126.3305   30.8317 C   0  0  0  0  0  0  0  0  0  0  0  0
  182.2909  127.5201   30.3409 C   0  0  0  0  0  0  0  0  0  0  0  0
  182.9627  129.1058   29.0549 C   0  0  0  0  0  0  0  0  0  0  0  0
  183.1416  130.0274   28.0261 C   0  0  0  0  0  0  0  0  0  0  0  0
  184.2916  130.8060   28.0241 C   0  0  0  0  0  0  0  0  0  0  0  0
  185.2441  130.6761   29.0314 C   0  0  0  0  0  0  0  0  0  0  0  0
  185.0655  129.7701   30.0658 C   0  0  0  0  0  0  0  0  0  0  0  0
  183.9206  128.9912   30.0534 C   0  0  0  0  0  0  0  0  0  0  0  0
  184.2156  127.4119   32.0287 C   0  0  0  0  0  0  0  0  0  0  0  0
  182.1281  120.0678   30.0448 C   0  0  0  0  0  0  0  0  0  0  0  0
  185.4487  126.5334   31.7154 C   0  0  1  0  0  0  0  0  0  0  0  0
  186.7683  127.2363   32.0098 C   0  0  0  0  0  0  0  0  0  0  0  0
  185.3820  125.2938   32.6057 C   0  0  0  0  0  0  0  0  0  0  0  0
  185.4434  126.0867   30.2596 C   0  0  0  0  0  0  0  0  0  0  0  0
  183.4534  119.8787   30.3984 C   0  0  0  0  0  0  0  0  0  0  0  0
  184.6861  118.2992   31.9492 C   0  0  0  0  0  0  0  0  0  0  0  0
  184.6962  120.5597   29.9380 C   0  0  0  0  0  0  0  0  0  0  0  0
  181.6071  121.1820   29.1710 C   0  0  0  0  0  0  0  0  0  0  0  0
  181.7840  123.4815   28.3683 C   0  0  0  0  0  0  0  0  0  0  0  0
  181.1021  124.6062   29.1143 C   0  0  0  0  0  0  0  0  0  0  0  0
  182.4315  124.0512   31.0964 C   0  0  0  0  0  0  0  0  0  0  0  0
  182.2872  118.3493   31.5230 N   0  0  0  0  0  0  0  0  0  0  0  0
  182.1292  122.4144   29.3092 N   0  0  0  0  0  0  0  0  0  0  0  0
  182.0647  125.1286   30.1282 N   0  0  2  0  0  0  0  0  0  0  0  0
  181.9388  128.1780   29.2578 N   0  0  0  0  0  0  0  0  0  0  0  0
  183.4741  127.9624   30.8771 N   0  0  0  0  0  0  0  0  0  0  0  0
  179.6766  118.6664   31.9042 H   0  0  0  0  0  0  0  0  0  0  0  0
  179.4192  119.5295   30.3500 H   0  0  0  0  0  0  0  0  0  0  0  0
  179.8025  117.7746   30.3500 H   0  0  0  0  0  0  0  0  0  0  0  0
  183.9845  123.2667   29.8268 H   0  0  0  0  0  0  0  0  0  0  0  0
  183.3216  122.0922   31.0147 H   0  0  0  0  0  0  0  0  0  0  0  0
  181.6423  126.2211   31.9191 H   0  0  0  0  0  0  0  0  0  0  0  0
  180.4430  126.4496   30.6251 H   0  0  0  0  0  0  0  0  0  0  0  0
  182.3881  130.1362   27.2320 H   0  0  0  0  0  0  0  0  0  0  0  0
  184.4521  131.5349   27.2161 H   0  0  0  0  0  0  0  0  0  0  0  0
  186.1497  131.3000   29.0063 H   0  0  0  0  0  0  0  0  0  0  0  0
  185.8093  129.6732   30.8704 H   0  0  0  0  0  0  0  0  0  0  0  0
  183.5130  126.8006   32.6141 H   0  0  0  0  0  0  0  0  0  0  0  0
  184.6173  128.2900   32.5555 H   0  0  0  0  0  0  0  0  0  0  0  0
  186.9090  127.3113   33.0982 H   0  0  0  0  0  0  0  0  0  0  0  0
  187.5965  126.6599   31.5719 H   0  0  0  0  0  0  0  0  0  0  0  0
  186.7521  128.2453   31.5719 H   0  0  0  0  0  0  0  0  0  0  0  0
  185.3985  125.5998   33.6621 H   0  0  0  0  0  0  0  0  0  0  0  0
  184.4529  124.7428   32.3980 H   0  0  0  0  0  0  0  0  0  0  0  0
  186.2466  124.6462   32.3980 H   0  0  0  0  0  0  0  0  0  0  0  0
  185.4303  124.9878   30.2133 H   0  0  0  0  0  0  0  0  0  0  0  0
  184.5499  126.4856   29.7570 H   0  0  0  0  0  0  0  0  0  0  0  0
  186.3461  126.4642   29.7570 H   0  0  0  0  0  0  0  0  0  0  0  0
  184.5515  118.3652   33.0390 H   0  0  0  0  0  0  0  0  0  0  0  0
  184.7969  117.2447   31.6567 H   0  0  0  0  0  0  0  0  0  0  0  0
  185.5876  118.8575   31.6567 H   0  0  0  0  0  0  0  0  0  0  0  0
  185.2831  120.8812   30.8110 H   0  0  0  0  0  0  0  0  0  0  0  0
  185.2930  119.8625   29.3315 H   0  0  0  0  0  0  0  0  0  0  0  0
  184.4300  121.4379   29.3315 H   0  0  0  0  0  0  0  0  0  0  0  0
  181.1048  123.0867   27.5984 H   0  0  0  0  0  0  0  0  0  0  0  0
  182.6990  123.8596   27.8889 H   0  0  0  0  0  0  0  0  0  0  0  0
  180.8255  125.4072   28.4130 H   0  0  0  0  0  0  0  0  0  0  0  0
  180.1864  124.2435   29.6041 H   0  0  0  0  0  0  0  0  0  0  0  0
  181.5289  123.6921   31.6125 H   0  0  0  0  0  0  0  0  0  0  0  0
  183.1361  124.4399   31.8463 H   0  0  0  0  0  0  0  0  0  0  0  0
  182.9198  125.4280   29.6382 H   0  0  0  0  0  0  0  0  0  0  0  0
  1 20  1  0
  1 21  1  0
  1 27  1  0
  2  4  1  0
  3 23  2  0
  4 15  1  0
  4 27  2  0
  5 26  1  0
  5 28  1  0
  6  7  1  0
 29  6  1  0
  7 30  2  0
  7 31  1  0
  8  9  2  0
  8 13  1  0
  8 30  1  0
  9 10  1  0
 10 11  2  0
 11 12  1  0
 12 13  2  0
 13 31  1  0
 16 14  1  6
 14 31  1  0
 15 20  2  0
 15 23  1  0
 16 17  1  0
 16 18  1  0
 16 19  1  0
 20 22  1  0
 23 28  1  0
 24 25  1  0
 24 28  1  0
 25 29  1  0
 26 29  1  0
  2 32  1  0
  2 33  1  0
  2 34  1  0
  5 35  1  0
  5 36  1  0
  6 37  1  0
  6 38  1  0
  9 39  1  0
 10 40  1  0
 11 41  1  0
 12 42  1  0
 14 43  1  0
 14 44  1  0
 17 45  1  0
 17 46  1  0
 17 47  1  0
 18 48  1  0
 18 49  1  0
 18 50  1  0
 19 51  1  0
 19 52  1  0
 19 53  1  0
 21 54  1  0
 21 55  1  0
 21 56  1  0
 22 57  1  0
 22 58  1  0
 22 59  1  0
 24 60  1  0
 24 61  1  0
 25 62  1  0
 25 63  1  0
 26 64  1  0
 26 65  1  0
 29 66  1  6
M  CHG  1  29   1
M  END
>  <filename_input>  (20) 
7RNI_60I_docked.sdf

>  <pdb_id>  (20) 
7RNI_60I

>  <pose_rank>  (20) 
19

>  <num_atoms_heavy>  (20) 
31

>  <num_torsions>  (20) 
5

>  <pose>  (20) 
[180.7726012981799, 120.9171053819294, 28.312569132850697, 2.495790108550708, 0.04508974395057783, 1.7789534372244016, 9.646528163837408, 11.938709786379508, 18.766072725297647, -2.875090699793698, 0.6470941059684325]

>  <energy>  (20) 
-574.4137916957606

>  <inter_energy>  (20) 
-642.7734101716396

>  <intra_energy>  (20) 
65.86047708143266

>  <rmsd>  (20) 
8.66396

>  <sdf_rank>  (20) 
0

$$$$

     RDKit          3D

 66 69  0  0  0  0  0  0  0  0999 V2000
  184.6510  130.0722   29.7578 N   0  0  0  0  0  0  0  0  0  0  0  0
  183.9505  129.5799   33.2135 C   0  0  0  0  0  0  0  0  0  0  0  0
  181.2011  127.8788   31.3766 O   0  0  0  0  0  0  0  0  0  0  0  0
  184.0324  129.4996   31.7248 C   0  0  0  0  0  0  0  0  0  0  0  0
  183.9849  125.6798   30.5462 C   0  0  0  0  0  0  0  0  0  0  0  0
  182.6012  122.7018   28.6485 C   0  0  0  0  0  0  0  0  0  0  0  0
  182.1990  121.4052   29.2907 C   0  0  0  0  0  0  0  0  0  0  0  0
  180.9571  119.8389   30.0807 C   0  0  0  0  0  0  0  0  0  0  0  0
  179.9023  119.0145   30.4647 C   0  0  0  0  0  0  0  0  0  0  0  0
  180.1642  117.9600   31.3298 C   0  0  0  0  0  0  0  0  0  0  0  0
  181.4538  117.7245   31.7993 C   0  0  0  0  0  0  0  0  0  0  0  0
  182.5106  118.5333   31.4100 C   0  0  0  0  0  0  0  0  0  0  0  0
  182.2375  119.5881   30.5554 C   0  0  0  0  0  0  0  0  0  0  0  0
  184.4577  120.8173   30.3478 C   0  0  0  0  0  0  0  0  0  0  0  0
  183.3732  128.6090   30.8217 C   0  0  0  0  0  0  0  0  0  0  0  0
  184.7885  121.6636   31.5987 C   0  0  1  0  0  0  0  0  0  0  0  0
  185.9553  121.1032   32.4028 C   0  0  0  0  0  0  0  0  0  0  0  0
  185.1861  123.0620   31.1293 C   0  0  0  0  0  0  0  0  0  0  0  0
  183.5752  121.7843   32.5109 C   0  0  0  0  0  0  0  0  0  0  0  0
  183.8298  129.0257   29.5827 C   0  0  0  0  0  0  0  0  0  0  0  0
  185.3731  130.8619   28.7668 C   0  0  0  0  0  0  0  0  0  0  0  0
  183.5819  128.4864   28.2159 C   0  0  0  0  0  0  0  0  0  0  0  0
  182.3350  127.5397   31.0562 C   0  0  0  0  0  0  0  0  0  0  0  0
  181.7794  125.1829   31.3734 C   0  0  0  0  0  0  0  0  0  0  0  0
  181.5026  124.2955   30.1807 C   0  0  0  0  0  0  0  0  0  0  0  0
  183.7583  124.7687   29.3489 C   0  0  0  0  0  0  0  0  0  0  0  0
  184.7867  130.3693   31.0802 N   0  0  0  0  0  0  0  0  0  0  0  0
  182.7043  126.2479   30.9815 N   0  0  0  0  0  0  0  0  0  0  0  0
  182.7994  123.6952   29.7500 N   0  0  2  0  0  0  0  0  0  0  0  0
  180.9539  120.9816   29.2778 N   0  0  0  0  0  0  0  0  0  0  0  0
  183.0297  120.6083   30.0376 N   0  0  0  0  0  0  0  0  0  0  0  0
  184.6686  128.8757   33.6588 H   0  0  0  0  0  0  0  0  0  0  0  0
  184.1901  130.6029   33.5392 H   0  0  0  0  0  0  0  0  0  0  0  0
  182.9324  129.3204   33.5392 H   0  0  0  0  0  0  0  0  0  0  0  0
  184.4268  125.0994   31.3696 H   0  0  0  0  0  0  0  0  0  0  0  0
  184.6679  126.4939   30.2617 H   0  0  0  0  0  0  0  0  0  0  0  0
  183.5374  122.5700   28.0862 H   0  0  0  0  0  0  0  0  0  0  0  0
  181.8292  123.0462   27.9446 H   0  0  0  0  0  0  0  0  0  0  0  0
  178.8836  119.1948   30.0910 H   0  0  0  0  0  0  0  0  0  0  0  0
  179.3421  117.3023   31.6482 H   0  0  0  0  0  0  0  0  0  0  0  0
  181.6364  116.8862   32.4878 H   0  0  0  0  0  0  0  0  0  0  0  0
  183.5330  118.3431   31.7685 H   0  0  0  0  0  0  0  0  0  0  0  0
  184.9163  121.3144   29.4803 H   0  0  0  0  0  0  0  0  0  0  0  0
  184.8512  119.8144   30.5697 H   0  0  0  0  0  0  0  0  0  0  0  0
  185.7427  121.2053   33.4773 H   0  0  0  0  0  0  0  0  0  0  0  0
  186.0938  120.0402   32.1559 H   0  0  0  0  0  0  0  0  0  0  0  0
  186.8716  121.6594   32.1559 H   0  0  0  0  0  0  0  0  0  0  0  0
  185.3687  123.7041   32.0035 H   0  0  0  0  0  0  0  0  0  0  0  0
  186.1019  122.9987   30.5232 H   0  0  0  0  0  0  0  0  0  0  0  0
  184.3741  123.4900   30.5232 H   0  0  0  0  0  0  0  0  0  0  0  0
  183.9013  121.7518   33.5610 H   0  0  0  0  0  0  0  0  0  0  0  0
  183.0628  122.7378   32.3154 H   0  0  0  0  0  0  0  0  0  0  0  0
  182.8850  120.9503   32.3154 H   0  0  0  0  0  0  0  0  0  0  0  0
  186.0302  131.5804   29.2785 H   0  0  0  0  0  0  0  0  0  0  0  0
  185.9797  130.1943   28.1372 H   0  0  0  0  0  0  0  0  0  0  0  0
  184.6541  131.4065   28.1372 H   0  0  0  0  0  0  0  0  0  0  0  0
  183.1237  127.4893   28.2927 H   0  0  0  0  0  0  0  0  0  0  0  0
  182.9035  129.1609   27.6731 H   0  0  0  0  0  0  0  0  0  0  0  0
  184.5356  128.4108   27.6731 H   0  0  0  0  0  0  0  0  0  0  0  0
  180.8372  125.6267   31.7274 H   0  0  0  0  0  0  0  0  0  0  0  0
  182.2275  124.5850   32.1807 H   0  0  0  0  0  0  0  0  0  0  0  0
  180.7967  123.5001   30.4616 H   0  0  0  0  0  0  0  0  0  0  0  0
  181.0579  124.8795   29.3614 H   0  0  0  0  0  0  0  0  0  0  0  0
  183.3387  125.3492   28.5141 H   0  0  0  0  0  0  0  0  0  0  0  0
  184.7111  124.3239   29.0260 H   0  0  0  0  0  0  0  0  0  0  0  0
  183.2010  123.1850   30.5495 H   0  0  0  0  0  0  0  0  0  0  0  0
  1 20  1  0
  1 21  1  0
  1 27  1  0
  2  4  1  0
  3 23  2  0
  4 15  1  0
  4 27  2  0
  5 26  1  0
  5 28  1  0
  6  7  1  0
 29  6  1  0
  7 30  2  0
  7 31  1  0
  8  9  2  0
  8 13  1  0
  8 30  1  0
  9 10  1  0
 10 11  2  0
 11 12  1  0
 12 13  2  0
 13 31  1  0
 16 14  1  6
 14 31  1  0
 15 20  2  0
 15 23  1  0
 16 17  1  0
 16 18  1  0
 16 19  1  0
 20 22  1  0
 23 28  1  0
 24 25  1  0
 24 28  1  0
 25 29  1  0
 26 29  1  0
  2 32  1  0
  2 33  1  0
  2 34  1  0
  5 35  1  0
  5 36  1  0
  6 37  1  0
  6 38  1  0
  9 39  1  0
 10 40  1  0
 11 41  1  0
 12 42  1  0
 14 43  1  0
 14 44  1  0
 17 45  1  0
 17 46  1  0
 17 47  1  0
 18 48  1  0
 18 49  1  0
 18 50  1  0
 19 51  1  0
 19 52  1  0
 19 53  1  0
 21 54  1  0
 21 55  1  0
 21 56  1  0
 22 57  1  0
 22 58  1  0
 22 59  1  0
 24 60  1  0
 24 61  1  0
 25 62  1  0
 25 63  1  0
 26 64  1  0
 26 65  1  0
 29 66  1  1
M  CHG  1  29   1
M  END
>  <filename_input>  (21) 
7RNI_60I_docked.sdf

>  <pdb_id>  (21) 
7RNI_60I

>  <pose_rank>  (21) 
20

>  <num_atoms_heavy>  (21) 
31

>  <num_torsions>  (21) 
5

>  <pose>  (21) 
[181.20106503261653, 127.8787822988555, 31.376618694426156, -1.2770346957833163, -5.390009354800599, 0.7777497052058034, 5.4356424560917596, 6.106794394206464, 6.489808383079217, -3.124047564351385, 1.2157554022888473]

>  <energy>  (21) 
-518.603571922714

>  <inter_energy>  (21) 
-621.4898787105444

>  <intra_energy>  (21) 
99.59192030118838

>  <rmsd>  (21) 
1.50365

>  <sdf_rank>  (21) 
0

$$$$

     RDKit          3D

 66 69  0  0  0  0  0  0  0  0999 V2000
  182.2496  118.1964   31.2574 N   0  0  0  0  0  0  0  0  0  0  0  0
  179.0166  118.6059   29.8241 C   0  0  0  0  0  0  0  0  0  0  0  0
  180.7956  120.7811   27.8291 O   0  0  0  0  0  0  0  0  0  0  0  0
  180.4551  118.7095   30.2106 C   0  0  0  0  0  0  0  0  0  0  0  0
  182.5797  122.3118   30.6128 C   0  0  0  0  0  0  0  0  0  0  0  0
  181.3527  125.8827   30.9705 C   0  0  0  0  0  0  0  0  0  0  0  0
  182.4937  126.7793   31.3571 C   0  0  0  0  0  0  0  0  0  0  0  0
  184.0601  127.6680   32.5303 C   0  0  0  0  0  0  0  0  0  0  0  0
  184.9946  127.9969   33.5091 C   0  0  0  0  0  0  0  0  0  0  0  0
  185.6834  129.1974   33.3934 C   0  0  0  0  0  0  0  0  0  0  0  0
  185.4526  130.0528   32.3192 C   0  0  0  0  0  0  0  0  0  0  0  0
  184.5334  129.7248   31.3343 C   0  0  0  0  0  0  0  0  0  0  0  0
  183.8444  128.5306   31.4640 C   0  0  0  0  0  0  0  0  0  0  0  0
  182.1911  128.5475   29.5277 C   0  0  0  0  0  0  0  0  0  0  0  0
  181.4459  119.6520   29.7942 C   0  0  0  0  0  0  0  0  0  0  0  0
  182.9982  128.5271   28.2092 C   0  0  1  0  0  0  0  0  0  0  0  0
  182.2487  127.8554   27.0649 C   0  0  0  0  0  0  0  0  0  0  0  0
  183.2621  129.9740   27.7964 C   0  0  0  0  0  0  0  0  0  0  0  0
  184.3358  127.8249   28.4003 C   0  0  0  0  0  0  0  0  0  0  0  0
  182.5719  119.2512   30.4932 C   0  0  0  0  0  0  0  0  0  0  0  0
  183.0814  117.4254   32.1744 C   0  0  0  0  0  0  0  0  0  0  0  0
  183.9701  119.7660   30.4754 C   0  0  0  0  0  0  0  0  0  0  0  0
  181.3510  120.8766   28.9180 C   0  0  0  0  0  0  0  0  0  0  0  0
  182.0311  123.1712   28.4320 C   0  0  0  0  0  0  0  0  0  0  0  0
  181.2882  124.3354   29.0479 C   0  0  0  0  0  0  0  0  0  0  0  0
  181.8713  123.4864   31.2712 C   0  0  0  0  0  0  0  0  0  0  0  0
  180.9434  117.8507   31.0852 N   0  0  0  0  0  0  0  0  0  0  0  0
  181.9447  122.0138   29.3243 N   0  0  0  0  0  0  0  0  0  0  0  0
  181.9469  124.6586   30.3476 N   0  0  2  0  0  0  0  0  0  0  0  0
  183.2073  126.5655   32.4411 N   0  0  0  0  0  0  0  0  0  0  0  0
  182.8292  127.9443   30.7143 N   0  0  0  0  0  0  0  0  0  0  0  0
  178.3956  118.5612   30.7309 H   0  0  0  0  0  0  0  0  0  0  0  0
  178.7327  119.4860   29.2283 H   0  0  0  0  0  0  0  0  0  0  0  0
  178.8617  117.6943   29.2283 H   0  0  0  0  0  0  0  0  0  0  0  0
  183.6372  122.5667   30.4496 H   0  0  0  0  0  0  0  0  0  0  0  0
  182.5103  121.4301   31.2669 H   0  0  0  0  0  0  0  0  0  0  0  0
  180.7701  125.6076   31.8620 H   0  0  0  0  0  0  0  0  0  0  0  0
  180.6762  126.3908   30.2675 H   0  0  0  0  0  0  0  0  0  0  0  0
  185.1832  127.3205   34.3558 H   0  0  0  0  0  0  0  0  0  0  0  0
  186.4210  129.4760   34.1604 H   0  0  0  0  0  0  0  0  0  0  0  0
  186.0064  131.0008   32.2512 H   0  0  0  0  0  0  0  0  0  0  0  0
  184.3572  130.3917   30.4774 H   0  0  0  0  0  0  0  0  0  0  0  0
  181.9729  129.5988   29.7668 H   0  0  0  0  0  0  0  0  0  0  0  0
  181.3071  127.9231   29.3308 H   0  0  0  0  0  0  0  0  0  0  0  0
  181.4884  127.1741   27.4745 H   0  0  0  0  0  0  0  0  0  0  0  0
  181.7590  128.6226   26.4471 H   0  0  0  0  0  0  0  0  0  0  0  0
  182.9577  127.2848   26.4471 H   0  0  0  0  0  0  0  0  0  0  0  0
  183.3758  130.5970   28.6958 H   0  0  0  0  0  0  0  0  0  0  0  0
  184.1839  130.0223   27.1980 H   0  0  0  0  0  0  0  0  0  0  0  0
  182.4168  130.3446   27.1980 H   0  0  0  0  0  0  0  0  0  0  0  0
  184.5426  127.7163   29.4752 H   0  0  0  0  0  0  0  0  0  0  0  0
  184.2981  126.8303   27.9319 H   0  0  0  0  0  0  0  0  0  0  0  0
  185.1330  128.4207   27.9319 H   0  0  0  0  0  0  0  0  0  0  0  0
  182.8123  117.6748   33.2114 H   0  0  0  0  0  0  0  0  0  0  0  0
  182.9191  116.3512   32.0017 H   0  0  0  0  0  0  0  0  0  0  0  0
  184.1402  117.6686   32.0017 H   0  0  0  0  0  0  0  0  0  0  0  0
  184.3258  119.8970   31.5080 H   0  0  0  0  0  0  0  0  0  0  0  0
  184.6187  119.0478   29.9525 H   0  0  0  0  0  0  0  0  0  0  0  0
  183.9980  120.7334   29.9525 H   0  0  0  0  0  0  0  0  0  0  0  0
  181.5800  122.9204   27.4606 H   0  0  0  0  0  0  0  0  0  0  0  0
  183.0864  123.4444   28.2849 H   0  0  0  0  0  0  0  0  0  0  0  0
  181.3351  125.2063   28.3776 H   0  0  0  0  0  0  0  0  0  0  0  0
  180.2308  124.0768   29.2061 H   0  0  0  0  0  0  0  0  0  0  0  0
  180.8187  123.2281   31.4587 H   0  0  0  0  0  0  0  0  0  0  0  0
  182.3518  123.7288   32.2306 H   0  0  0  0  0  0  0  0  0  0  0  0
  182.9397  124.8630   30.1650 H   0  0  0  0  0  0  0  0  0  0  0  0
  1 20  1  0
  1 21  1  0
  1 27  1  0
  2  4  1  0
  3 23  2  0
  4 15  1  0
  4 27  2  0
  5 26  1  0
  5 28  1  0
  6  7  1  0
 29  6  1  0
  7 30  2  0
  7 31  1  0
  8  9  2  0
  8 13  1  0
  8 30  1  0
  9 10  1  0
 10 11  2  0
 11 12  1  0
 12 13  2  0
 13 31  1  0
 16 14  1  1
 14 31  1  0
 15 20  2  0
 15 23  1  0
 16 17  1  0
 16 18  1  0
 16 19  1  0
 20 22  1  0
 23 28  1  0
 24 25  1  0
 24 28  1  0
 25 29  1  0
 26 29  1  0
  2 32  1  0
  2 33  1  0
  2 34  1  0
  5 35  1  0
  5 36  1  0
  6 37  1  0
  6 38  1  0
  9 39  1  0
 10 40  1  0
 11 41  1  0
 12 42  1  0
 14 43  1  0
 14 44  1  0
 17 45  1  0
 17 46  1  0
 17 47  1  0
 18 48  1  0
 18 49  1  0
 18 50  1  0
 19 51  1  0
 19 52  1  0
 19 53  1  0
 21 54  1  0
 21 55  1  0
 21 56  1  0
 22 57  1  0
 22 58  1  0
 22 59  1  0
 24 60  1  0
 24 61  1  0
 25 62  1  0
 25 63  1  0
 26 64  1  0
 26 65  1  0
 29 66  1  6
M  CHG  1  29   1
M  END
>  <filename_input>  (22) 
7RNI_60I_docked.sdf

>  <pdb_id>  (22) 
7RNI_60I

>  <pose_rank>  (22) 
21

>  <num_atoms_heavy>  (22) 
31

>  <num_torsions>  (22) 
5

>  <pose>  (22) 
[180.79555901411956, 120.7811095906323, 27.829134375985028, -2.3146310075834684, 0.21681584564302678, -2.2461818712288553, 3.3500858071641413, -1.0191463031919759, -2.974144066805814, -0.28386681045378154, 0.9482908624018479]

>  <energy>  (22) 
-577.1695771510441

>  <inter_energy>  (22) 
-630.0100333101076

>  <intra_energy>  (22) 
63.53614878358785

>  <rmsd>  (22) 
9.20517

>  <sdf_rank>  (22) 
0

$$$$

     RDKit          3D

 66 69  0  0  0  0  0  0  0  0999 V2000
  184.4278  118.1378   31.1976 N   0  0  0  0  0  0  0  0  0  0  0  0
  186.1366  120.5178   33.2201 C   0  0  0  0  0  0  0  0  0  0  0  0
  182.6025  121.3816   33.7084 O   0  0  0  0  0  0  0  0  0  0  0  0
  185.1377  119.7311   32.4374 C   0  0  0  0  0  0  0  0  0  0  0  0
  182.7249  121.9175   30.1066 C   0  0  0  0  0  0  0  0  0  0  0  0
  182.7772  125.6576   29.4787 C   0  0  0  0  0  0  0  0  0  0  0  0
  182.0807  125.9134   28.1731 C   0  0  0  0  0  0  0  0  0  0  0  0
  181.2406  125.5628   26.2260 C   0  0  0  0  0  0  0  0  0  0  0  0
  180.7767  125.0131   25.0334 C   0  0  0  0  0  0  0  0  0  0  0  0
  180.4123  125.8711   24.0039 C   0  0  0  0  0  0  0  0  0  0  0  0
  180.5005  127.2521   24.1597 C   0  0  0  0  0  0  0  0  0  0  0  0
  180.9487  127.8058   25.3493 C   0  0  0  0  0  0  0  0  0  0  0  0
  181.3193  126.9418   26.3661 C   0  0  0  0  0  0  0  0  0  0  0  0
  182.2265  128.4713   28.1884 C   0  0  0  0  0  0  0  0  0  0  0  0
  183.7582  120.0056   32.1819 C   0  0  0  0  0  0  0  0  0  0  0  0
  183.7234  128.8575   28.1646 C   0  0  1  0  0  0  0  0  0  0  0  0
  184.4775  128.3867   29.4023 C   0  0  0  0  0  0  0  0  0  0  0  0
  184.3646  128.1822   26.9537 C   0  0  0  0  0  0  0  0  0  0  0  0
  183.8948  130.3644   28.0277 C   0  0  0  0  0  0  0  0  0  0  0  0
  183.3669  118.9351   31.3956 C   0  0  0  0  0  0  0  0  0  0  0  0
  184.5280  116.8974   30.4369 C   0  0  0  0  0  0  0  0  0  0  0  0
  182.0373  118.5697   30.8308 C   0  0  0  0  0  0  0  0  0  0  0  0
  182.8965  121.1932   32.5330 C   0  0  0  0  0  0  0  0  0  0  0  0
  181.4356  123.0149   31.8182 C   0  0  0  0  0  0  0  0  0  0  0  0
  182.0183  124.3565   31.4348 C   0  0  0  0  0  0  0  0  0  0  0  0
  183.3081  123.2526   29.6679 C   0  0  0  0  0  0  0  0  0  0  0  0
  185.5266  118.6194   31.8427 N   0  0  0  0  0  0  0  0  0  0  0  0
  182.4151  121.9631   31.5399 N   0  0  0  0  0  0  0  0  0  0  0  0
  182.3114  124.3236   29.9717 N   0  0  2  0  0  0  0  0  0  0  0  0
  181.7153  124.9315   27.3778 N   0  0  0  0  0  0  0  0  0  0  0  0
  181.8645  127.1542   27.6287 N   0  0  0  0  0  0  0  0  0  0  0  0
  185.9548  120.3746   34.2955 H   0  0  0  0  0  0  0  0  0  0  0  0
  187.1511  120.1735   32.9707 H   0  0  0  0  0  0  0  0  0  0  0  0
  186.0398  121.5847   32.9707 H   0  0  0  0  0  0  0  0  0  0  0  0
  181.8042  121.7161   29.5394 H   0  0  0  0  0  0  0  0  0  0  0  0
  183.4568  121.1188   29.9162 H   0  0  0  0  0  0  0  0  0  0  0  0
  183.8669  125.6451   29.3290 H   0  0  0  0  0  0  0  0  0  0  0  0
  182.5447  126.4476   30.2080 H   0  0  0  0  0  0  0  0  0  0  0  0
  180.7006  123.9228   24.9095 H   0  0  0  0  0  0  0  0  0  0  0  0
  180.0491  125.4544   23.0529 H   0  0  0  0  0  0  0  0  0  0  0  0
  180.2111  127.9119   23.3286 H   0  0  0  0  0  0  0  0  0  0  0  0
  181.0080  128.8962   25.4810 H   0  0  0  0  0  0  0  0  0  0  0  0
  181.8963  128.4880   29.2375 H   0  0  0  0  0  0  0  0  0  0  0  0
  181.7322  129.2049   27.5345 H   0  0  0  0  0  0  0  0  0  0  0  0
  183.9444  128.7195   30.3051 H   0  0  0  0  0  0  0  0  0  0  0  0
  184.5405  127.2886   29.3976 H   0  0  0  0  0  0  0  0  0  0  0  0
  185.4918  128.8123   29.3976 H   0  0  0  0  0  0  0  0  0  0  0  0
  185.0845  127.4239   27.2952 H   0  0  0  0  0  0  0  0  0  0  0  0
  183.5842  127.6997   26.3469 H   0  0  0  0  0  0  0  0  0  0  0  0
  184.8868  128.9366   26.3469 H   0  0  0  0  0  0  0  0  0  0  0  0
  183.9467  130.8199   29.0276 H   0  0  0  0  0  0  0  0  0  0  0  0
  184.8232  130.5794   27.4782 H   0  0  0  0  0  0  0  0  0  0  0  0
  183.0385  130.7825   27.4782 H   0  0  0  0  0  0  0  0  0  0  0  0
  184.5967  116.0465   31.1306 H   0  0  0  0  0  0  0  0  0  0  0  0
  183.6362  116.7828   29.8033 H   0  0  0  0  0  0  0  0  0  0  0  0
  185.4266  116.9275   29.8033 H   0  0  0  0  0  0  0  0  0  0  0  0
  181.3311  118.3756   31.6515 H   0  0  0  0  0  0  0  0  0  0  0  0
  181.6617  119.3979   30.2120 H   0  0  0  0  0  0  0  0  0  0  0  0
  182.1377  117.6659   30.2120 H   0  0  0  0  0  0  0  0  0  0  0  0
  181.1904  123.0139   32.8905 H   0  0  0  0  0  0  0  0  0  0  0  0
  180.5217  122.8303   31.2344 H   0  0  0  0  0  0  0  0  0  0  0  0
  181.2947  125.1555   31.6538 H   0  0  0  0  0  0  0  0  0  0  0  0
  182.9367  124.5549   32.0069 H   0  0  0  0  0  0  0  0  0  0  0  0
  184.2422  123.4480   30.2150 H   0  0  0  0  0  0  0  0  0  0  0  0
  183.5274  123.2341   28.5902 H   0  0  0  0  0  0  0  0  0  0  0  0
  181.4381  124.1039   29.4718 H   0  0  0  0  0  0  0  0  0  0  0  0
  1 20  1  0
  1 21  1  0
  1 27  1  0
  2  4  1  0
  3 23  2  0
  4 15  1  0
  4 27  2  0
  5 26  1  0
  5 28  1  0
  6  7  1  0
 29  6  1  0
  7 30  2  0
  7 31  1  0
  8  9  2  0
  8 13  1  0
  8 30  1  0
  9 10  1  0
 10 11  2  0
 11 12  1  0
 12 13  2  0
 13 31  1  0
 16 14  1  1
 14 31  1  0
 15 20  2  0
 15 23  1  0
 16 17  1  0
 16 18  1  0
 16 19  1  0
 20 22  1  0
 23 28  1  0
 24 25  1  0
 24 28  1  0
 25 29  1  0
 26 29  1  0
  2 32  1  0
  2 33  1  0
  2 34  1  0
  5 35  1  0
  5 36  1  0
  6 37  1  0
  6 38  1  0
  9 39  1  0
 10 40  1  0
 11 41  1  0
 12 42  1  0
 14 43  1  0
 14 44  1  0
 17 45  1  0
 17 46  1  0
 17 47  1  0
 18 48  1  0
 18 49  1  0
 18 50  1  0
 19 51  1  0
 19 52  1  0
 19 53  1  0
 21 54  1  0
 21 55  1  0
 21 56  1  0
 22 57  1  0
 22 58  1  0
 22 59  1  0
 24 60  1  0
 24 61  1  0
 25 62  1  0
 25 63  1  0
 26 64  1  0
 26 65  1  0
 29 66  1  6
M  CHG  1  29   1
M  END
>  <filename_input>  (23) 
7RNI_60I_docked.sdf

>  <pdb_id>  (23) 
7RNI_60I

>  <pose_rank>  (23) 
22

>  <num_atoms_heavy>  (23) 
31

>  <num_torsions>  (23) 
5

>  <pose>  (23) 
[182.60247043217007, 121.38155550850298, 33.70839383408815, -3.3280585666937914, -0.33437365185478995, 1.5980825469429731, -3.2799079744601958, -1.1261742297348434, -2.1147946288057202, -3.3745053504187394, 3.5243801858157076]

>  <energy>  (23) 
-563.9703053166706

>  <inter_energy>  (23) 
-602.1005313224126

>  <intra_energy>  (23) 
39.62295667241037

>  <rmsd>  (23) 
8.60877

>  <sdf_rank>  (23) 
0

$$$$

     RDKit          3D

 66 69  0  0  0  0  0  0  0  0999 V2000
  180.8265  128.9204   26.1788 N   0  0  0  0  0  0  0  0  0  0  0  0
  180.3558  125.7609   24.6071 C   0  0  0  0  0  0  0  0  0  0  0  0
  184.0250  126.0814   26.4872 O   0  0  0  0  0  0  0  0  0  0  0  0
  180.8012  126.9071   25.4538 C   0  0  0  0  0  0  0  0  0  0  0  0
  181.1435  124.6145   28.1665 C   0  0  0  0  0  0  0  0  0  0  0  0
  182.3361  123.0969   31.4314 C   0  0  0  0  0  0  0  0  0  0  0  0
  183.4786  122.1422   31.6274 C   0  0  0  0  0  0  0  0  0  0  0  0
  185.4209  121.3953   32.1657 C   0  0  0  0  0  0  0  0  0  0  0  0
  186.7189  121.2240   32.6406 C   0  0  0  0  0  0  0  0  0  0  0  0
  187.4121  120.0760   32.2798 C   0  0  0  0  0  0  0  0  0  0  0  0
  186.8228  119.1112   31.4668 C   0  0  0  0  0  0  0  0  0  0  0  0
  185.5262  119.2694   31.0019 C   0  0  0  0  0  0  0  0  0  0  0  0
  184.8469  120.4222   31.3587 C   0  0  0  0  0  0  0  0  0  0  0  0
  182.6455  120.2710   30.0882 C   0  0  0  0  0  0  0  0  0  0  0  0
  181.8409  126.9679   26.4330 C   0  0  0  0  0  0  0  0  0  0  0  0
  181.7858  119.1163   30.6520 C   0  0  1  0  0  0  0  0  0  0  0  0
  182.6204  117.9369   31.1364 C   0  0  0  0  0  0  0  0  0  0  0  0
  181.0088  119.6512   31.8536 C   0  0  0  0  0  0  0  0  0  0  0  0
  180.7905  118.6203   29.6117 C   0  0  0  0  0  0  0  0  0  0  0  0
  181.7872  128.2825   26.8647 C   0  0  0  0  0  0  0  0  0  0  0  0
  180.3920  130.3101   26.2634 C   0  0  0  0  0  0  0  0  0  0  0  0
  182.5576  128.9985   27.9202 C   0  0  0  0  0  0  0  0  0  0  0  0
  182.8657  125.9478   26.8636 C   0  0  0  0  0  0  0  0  0  0  0  0
  183.3833  123.7835   27.8693 C   0  0  0  0  0  0  0  0  0  0  0  0
  183.5647  123.6596   29.3654 C   0  0  0  0  0  0  0  0  0  0  0  0
  181.2741  124.4722   29.6757 C   0  0  0  0  0  0  0  0  0  0  0  0
  180.2074  128.0762   25.3073 N   0  0  0  0  0  0  0  0  0  0  0  0
  182.4617  124.8841   27.5819 N   0  0  0  0  0  0  0  0  0  0  0  0
  182.2299  123.3599   29.9621 N   0  0  2  0  0  0  0  0  0  0  0  0
  184.5408  122.4669   32.3320 N   0  0  0  0  0  0  0  0  0  0  0  0
  183.5922  120.9182   31.0177 N   0  0  0  0  0  0  0  0  0  0  0  0
  180.0333  124.9312   25.2534 H   0  0  0  0  0  0  0  0  0  0  0  0
  179.5157  126.0788   23.9721 H   0  0  0  0  0  0  0  0  0  0  0  0
  181.1900  125.4281   23.9721 H   0  0  0  0  0  0  0  0  0  0  0  0
  180.7394  123.6825   27.7445 H   0  0  0  0  0  0  0  0  0  0  0  0
  180.4640  125.4482   27.9356 H   0  0  0  0  0  0  0  0  0  0  0  0
  181.4025  122.6495   31.8031 H   0  0  0  0  0  0  0  0  0  0  0  0
  182.5075  124.0317   31.9853 H   0  0  0  0  0  0  0  0  0  0  0  0
  187.1850  121.9817   33.2876 H   0  0  0  0  0  0  0  0  0  0  0  0
  188.4404  119.9268   32.6410 H   0  0  0  0  0  0  0  0  0  0  0  0
  187.3931  118.2123   31.1900 H   0  0  0  0  0  0  0  0  0  0  0  0
  185.0523  118.5039   30.3699 H   0  0  0  0  0  0  0  0  0  0  0  0
  183.2289  119.8698   29.2465 H   0  0  0  0  0  0  0  0  0  0  0  0
  181.9254  121.0583   29.8204 H   0  0  0  0  0  0  0  0  0  0  0  0
  182.6308  117.9223   32.2363 H   0  0  0  0  0  0  0  0  0  0  0  0
  182.1833  116.9998   30.7613 H   0  0  0  0  0  0  0  0  0  0  0  0
  183.6496  118.0374   30.7613 H   0  0  0  0  0  0  0  0  0  0  0  0
  181.4942  119.3170   32.7824 H   0  0  0  0  0  0  0  0  0  0  0  0
  180.9955  120.7506   31.8218 H   0  0  0  0  0  0  0  0  0  0  0  0
  179.9770  119.2710   31.8218 H   0  0  0  0  0  0  0  0  0  0  0  0
  179.9168  118.1848   30.1186 H   0  0  0  0  0  0  0  0  0  0  0  0
  180.4673  119.4627   28.9825 H   0  0  0  0  0  0  0  0  0  0  0  0
  181.2685  117.8550   28.9825 H   0  0  0  0  0  0  0  0  0  0  0  0
  180.3007  130.6020   27.3200 H   0  0  0  0  0  0  0  0  0  0  0  0
  181.1310  130.9562   25.7670 H   0  0  0  0  0  0  0  0  0  0  0  0
  179.4166  130.4202   25.7670 H   0  0  0  0  0  0  0  0  0  0  0  0
  182.2090  128.6745   28.9120 H   0  0  0  0  0  0  0  0  0  0  0  0
  183.6276  128.7669   27.8140 H   0  0  0  0  0  0  0  0  0  0  0  0
  182.4047  130.0826   27.8140 H   0  0  0  0  0  0  0  0  0  0  0  0
  184.3559  123.9861   27.3970 H   0  0  0  0  0  0  0  0  0  0  0  0
  182.9716  122.8450   27.4696 H   0  0  0  0  0  0  0  0  0  0  0  0
  184.2674  122.8439   29.5911 H   0  0  0  0  0  0  0  0  0  0  0  0
  183.9720  124.5925   29.7822 H   0  0  0  0  0  0  0  0  0  0  0  0
  181.6553  125.4100   30.1060 H   0  0  0  0  0  0  0  0  0  0  0  0
  180.2928  124.2523   30.1216 H   0  0  0  0  0  0  0  0  0  0  0  0
  181.8663  122.5006   29.5259 H   0  0  0  0  0  0  0  0  0  0  0  0
  1 20  1  0
  1 21  1  0
  1 27  1  0
  2  4  1  0
  3 23  2  0
  4 15  1  0
  4 27  2  0
  5 26  1  0
  5 28  1  0
  6  7  1  0
 29  6  1  0
  7 30  2  0
  7 31  1  0
  8  9  2  0
  8 13  1  0
  8 30  1  0
  9 10  1  0
 10 11  2  0
 11 12  1  0
 12 13  2  0
 13 31  1  0
 16 14  1  6
 14 31  1  0
 15 20  2  0
 15 23  1  0
 16 17  1  0
 16 18  1  0
 16 19  1  0
 20 22  1  0
 23 28  1  0
 24 25  1  0
 24 28  1  0
 25 29  1  0
 26 29  1  0
  2 32  1  0
  2 33  1  0
  2 34  1  0
  5 35  1  0
  5 36  1  0
  6 37  1  0
  6 38  1  0
  9 39  1  0
 10 40  1  0
 11 41  1  0
 12 42  1  0
 14 43  1  0
 14 44  1  0
 17 45  1  0
 17 46  1  0
 17 47  1  0
 18 48  1  0
 18 49  1  0
 18 50  1  0
 19 51  1  0
 19 52  1  0
 19 53  1  0
 21 54  1  0
 21 55  1  0
 21 56  1  0
 22 57  1  0
 22 58  1  0
 22 59  1  0
 24 60  1  0
 24 61  1  0
 25 62  1  0
 25 63  1  0
 26 64  1  0
 26 65  1  0
 29 66  1  6
M  CHG  1  29   1
M  END
>  <filename_input>  (24) 
7RNI_60I_docked.sdf

>  <pdb_id>  (24) 
7RNI_60I

>  <pose_rank>  (24) 
23

>  <num_atoms_heavy>  (24) 
31

>  <num_torsions>  (24) 
5

>  <pose>  (24) 
[184.02498848896636, 126.08135335638454, 26.48719102730938, 0.19315805604137606, 3.502391525778014, -1.300402606602154, -0.240437943085815, 0.4445253404520508, -5.820688964609658, -0.19753251642851535, -2.2931008551637135]

>  <energy>  (24) 
-541.6523363533006

>  <inter_energy>  (24) 
-584.2398493527141

>  <intra_energy>  (24) 
44.192529708388335

>  <rmsd>  (24) 
4.71585

>  <sdf_rank>  (24) 
0

$$$$

     RDKit          3D

 66 69  0  0  0  0  0  0  0  0999 V2000
  186.1253  118.8719   32.0823 N   0  0  0  0  0  0  0  0  0  0  0  0
  183.5060  120.9232   33.3494 C   0  0  0  0  0  0  0  0  0  0  0  0
  182.0160  118.0467   30.8133 O   0  0  0  0  0  0  0  0  0  0  0  0
  184.3473  119.9457   32.5971 C   0  0  0  0  0  0  0  0  0  0  0  0
  183.2246  121.2139   29.4778 C   0  0  0  0  0  0  0  0  0  0  0  0
  180.2154  123.4072   28.7569 C   0  0  0  0  0  0  0  0  0  0  0  0
  180.7892  124.4558   27.8477 C   0  0  0  0  0  0  0  0  0  0  0  0
  181.7756  125.3500   26.1604 C   0  0  0  0  0  0  0  0  0  0  0  0
  182.4143  125.6106   24.9505 C   0  0  0  0  0  0  0  0  0  0  0  0
  182.9779  126.8645   24.7534 C   0  0  0  0  0  0  0  0  0  0  0  0
  182.9016  127.8451   25.7391 C   0  0  0  0  0  0  0  0  0  0  0  0
  182.2553  127.5964   26.9403 C   0  0  0  0  0  0  0  0  0  0  0  0
  181.7055  126.3399   27.1314 C   0  0  0  0  0  0  0  0  0  0  0  0
  180.8490  126.3885   29.5287 C   0  0  0  0  0  0  0  0  0  0  0  0
  184.0072  119.1171   31.4830 C   0  0  0  0  0  0  0  0  0  0  0  0
  182.0593  126.4520   30.4886 C   0  0  1  0  0  0  0  0  0  0  0  0
  183.3393  125.9071   29.8666 C   0  0  0  0  0  0  0  0  0  0  0  0
  182.3079  127.9187   30.8363 C   0  0  0  0  0  0  0  0  0  0  0  0
  181.7743  125.6894   31.7755 C   0  0  0  0  0  0  0  0  0  0  0  0
  185.1900  118.4474   31.2190 C   0  0  0  0  0  0  0  0  0  0  0  0
  187.5238  118.4763   32.2048 C   0  0  0  0  0  0  0  0  0  0  0  0
  185.5139  117.3884   30.2220 C   0  0  0  0  0  0  0  0  0  0  0  0
  182.7457  119.0202   30.6611 C   0  0  0  0  0  0  0  0  0  0  0  0
  181.3858  119.8175   28.7960 C   0  0  0  0  0  0  0  0  0  0  0  0
  180.4120  120.9576   28.9925 C   0  0  0  0  0  0  0  0  0  0  0  0
  182.2823  122.3954   29.6547 C   0  0  0  0  0  0  0  0  0  0  0  0
  185.6118  119.7950   32.9423 N   0  0  0  0  0  0  0  0  0  0  0  0
  182.5001  119.9642   29.7341 N   0  0  0  0  0  0  0  0  0  0  0  0
  181.1382  122.2300   28.7079 N   0  0  2  0  0  0  0  0  0  0  0  0
  181.1847  124.1731   26.6256 N   0  0  0  0  0  0  0  0  0  0  0  0
  181.0663  125.7481   28.2165 N   0  0  0  0  0  0  0  0  0  0  0  0
  183.6403  120.7672   34.4300 H   0  0  0  0  0  0  0  0  0  0  0  0
  183.8097  121.9471   33.0863 H   0  0  0  0  0  0  0  0  0  0  0  0
  182.4482  120.7754   33.0863 H   0  0  0  0  0  0  0  0  0  0  0  0
  183.6140  121.2069   28.4491 H   0  0  0  0  0  0  0  0  0  0  0  0
  184.0604  121.3037   30.1873 H   0  0  0  0  0  0  0  0  0  0  0  0
  180.1507  123.7934   29.7848 H   0  0  0  0  0  0  0  0  0  0  0  0
  179.2018  123.1237   28.4372 H   0  0  0  0  0  0  0  0  0  0  0  0
  182.4712  124.8398   24.1679 H   0  0  0  0  0  0  0  0  0  0  0  0
  183.4913  127.0860   23.8061 H   0  0  0  0  0  0  0  0  0  0  0  0
  183.3598  128.8294   25.5625 H   0  0  0  0  0  0  0  0  0  0  0  0
  182.1816  128.3723   27.7166 H   0  0  0  0  0  0  0  0  0  0  0  0
  180.0488  125.8335   30.0402 H   0  0  0  0  0  0  0  0  0  0  0  0
  180.6121  127.4377   29.2984 H   0  0  0  0  0  0  0  0  0  0  0  0
  184.0368  125.6102   30.6637 H   0  0  0  0  0  0  0  0  0  0  0  0
  183.1007  125.0325   29.2435 H   0  0  0  0  0  0  0  0  0  0  0  0
  183.8043  126.6853   29.2435 H   0  0  0  0  0  0  0  0  0  0  0  0
  182.3281  128.0379   31.9296 H   0  0  0  0  0  0  0  0  0  0  0  0
  183.2728  128.2369   30.4148 H   0  0  0  0  0  0  0  0  0  0  0  0
  181.5018  128.5371   30.4148 H   0  0  0  0  0  0  0  0  0  0  0  0
  182.0125  126.3267   32.6398 H   0  0  0  0  0  0  0  0  0  0  0  0
  180.7110  125.4096   31.8081 H   0  0  0  0  0  0  0  0  0  0  0  0
  182.3937  124.7809   31.8081 H   0  0  0  0  0  0  0  0  0  0  0  0
  187.7916  118.4006   33.2690 H   0  0  0  0  0  0  0  0  0  0  0  0
  187.6729  117.5008   31.7189 H   0  0  0  0  0  0  0  0  0  0  0  0
  188.1618  119.2293   31.7189 H   0  0  0  0  0  0  0  0  0  0  0  0
  185.7965  116.4643   30.7475 H   0  0  0  0  0  0  0  0  0  0  0  0
  184.6332  117.1969   29.5913 H   0  0  0  0  0  0  0  0  0  0  0  0
  186.3510  117.7222   29.5913 H   0  0  0  0  0  0  0  0  0  0  0  0
  180.8740  118.8615   28.9804 H   0  0  0  0  0  0  0  0  0  0  0  0
  181.7684  119.8340   27.7648 H   0  0  0  0  0  0  0  0  0  0  0  0
  179.5632  120.8483   28.3015 H   0  0  0  0  0  0  0  0  0  0  0  0
  180.0229  120.9583   30.0214 H   0  0  0  0  0  0  0  0  0  0  0  0
  181.9084  122.4211   30.6888 H   0  0  0  0  0  0  0  0  0  0  0  0
  182.8124  123.3367   29.4473 H   0  0  0  0  0  0  0  0  0  0  0  0
  181.5151  122.1802   27.7507 H   0  0  0  0  0  0  0  0  0  0  0  0
  1 20  1  0
  1 21  1  0
  1 27  1  0
  2  4  1  0
  3 23  2  0
  4 15  1  0
  4 27  2  0
  5 26  1  0
  5 28  1  0
  6  7  1  0
 29  6  1  0
  7 30  2  0
  7 31  1  0
  8  9  2  0
  8 13  1  0
  8 30  1  0
  9 10  1  0
 10 11  2  0
 11 12  1  0
 12 13  2  0
 13 31  1  0
 16 14  1  6
 14 31  1  0
 15 20  2  0
 15 23  1  0
 16 17  1  0
 16 18  1  0
 16 19  1  0
 20 22  1  0
 23 28  1  0
 24 25  1  0
 24 28  1  0
 25 29  1  0
 26 29  1  0
  2 32  1  0
  2 33  1  0
  2 34  1  0
  5 35  1  0
  5 36  1  0
  6 37  1  0
  6 38  1  0
  9 39  1  0
 10 40  1  0
 11 41  1  0
 12 42  1  0
 14 43  1  0
 14 44  1  0
 17 45  1  0
 17 46  1  0
 17 47  1  0
 18 48  1  0
 18 49  1  0
 18 50  1  0
 19 51  1  0
 19 52  1  0
 19 53  1  0
 21 54  1  0
 21 55  1  0
 21 56  1  0
 22 57  1  0
 22 58  1  0
 22 59  1  0
 24 60  1  0
 24 61  1  0
 25 62  1  0
 25 63  1  0
 26 64  1  0
 26 65  1  0
 29 66  1  6
M  CHG  1  29   1
M  END
>  <filename_input>  (25) 
7RNI_60I_docked.sdf

>  <pdb_id>  (25) 
7RNI_60I

>  <pose_rank>  (25) 
24

>  <num_atoms_heavy>  (25) 
31

>  <num_torsions>  (25) 
5

>  <pose>  (25) 
[182.01598160501666, 118.04673349778446, 30.813271527471613, -3.0410789107818252, -1.5548467033765445, -1.1055758803297513, 2.3604857454580253, 4.885411910967106, -0.7583421520488589, 3.318737713040238, -1.1491729201821674]

>  <energy>  (25) 
-581.4784125856517

>  <inter_energy>  (25) 
-607.1132981377594

>  <intra_energy>  (25) 
16.368741856678483

>  <rmsd>  (25) 
8.35256

>  <sdf_rank>  (25) 
0

$$$$

     RDKit          3D

 66 69  0  0  0  0  0  0  0  0999 V2000
  183.5630  130.3160   30.0390 N   0  0  0  0  0  0  0  0  0  0  0  0
  182.8970  128.4220   32.9790 C   0  0  0  0  0  0  0  0  0  0  0  0
  180.4260  127.4780   29.6160 O   0  0  0  0  0  0  0  0  0  0  0  0
  182.9970  128.9500   31.5860 C   0  0  0  0  0  0  0  0  0  0  0  0
  183.2060  125.6060   31.0450 C   0  0  0  0  0  0  0  0  0  0  0  0
  183.4130  122.2670   29.2580 C   0  0  0  0  0  0  0  0  0  0  0  0
  182.5800  121.0540   29.5580 C   0  0  0  0  0  0  0  0  0  0  0  0
  180.9530  119.6510   29.4930 C   0  0  0  0  0  0  0  0  0  0  0  0
  179.7900  118.9430   29.2000 C   0  0  0  0  0  0  0  0  0  0  0  0
  179.3920  117.9320   30.0650 C   0  0  0  0  0  0  0  0  0  0  0  0
  180.1410  117.6250   31.1980 C   0  0  0  0  0  0  0  0  0  0  0  0
  181.3070  118.3170   31.4880 C   0  0  0  0  0  0  0  0  0  0  0  0
  181.6900  119.3300   30.6250 C   0  0  0  0  0  0  0  0  0  0  0  0
  183.7380  120.3580   31.7350 C   0  0  0  0  0  0  0  0  0  0  0  0
  182.4440  128.4340   30.3730 C   0  0  0  0  0  0  0  0  0  0  0  0
  185.0440  119.5470   31.5710 C   0  0  1  0  0  0  0  0  0  0  0  0
  185.9400  120.0830   30.4610 C   0  0  0  0  0  0  0  0  0  0  0  0
  185.8270  119.6460   32.8790 C   0  0  0  0  0  0  0  0  0  0  0  0
  184.7430  118.0800   31.2950 C   0  0  0  0  0  0  0  0  0  0  0  0
  182.8610  129.3520   29.4240 C   0  0  0  0  0  0  0  0  0  0  0  0
  184.2020  131.5010   29.4780 C   0  0  0  0  0  0  0  0  0  0  0  0
  182.6820  129.3810   27.9450 C   0  0  0  0  0  0  0  0  0  0  0  0
  181.5260  127.2650   30.1140 C   0  0  0  0  0  0  0  0  0  0  0  0
  180.9840  124.9060   30.4380 C   0  0  0  0  0  0  0  0  0  0  0  0
  181.5410  123.8580   29.5010 C   0  0  0  0  0  0  0  0  0  0  0  0
  183.8060  124.5410   30.1390 C   0  0  0  0  0  0  0  0  0  0  0  0
  183.6570  130.0730   31.3760 N   0  0  0  0  0  0  0  0  0  0  0  0
  181.9110  126.0370   30.5070 N   0  0  0  0  0  0  0  0  0  0  0  0
  182.8470  123.3980   30.0580 N   0  0  2  0  0  0  0  0  0  0  0  0
  181.5340  120.7330   28.8280 N   0  0  0  0  0  0  0  0  0  0  0  0
  182.7380  120.2450   30.6550 N   0  0  0  0  0  0  0  0  0  0  0  0
  183.0525  129.2430   33.6944 H   0  0  0  0  0  0  0  0  0  0  0  0
  181.9000  127.9841   33.1345 H   0  0  0  0  0  0  0  0  0  0  0  0
  183.6649  127.6499   33.1345 H   0  0  0  0  0  0  0  0  0  0  0  0
  183.0635  125.1908   32.0536 H   0  0  0  0  0  0  0  0  0  0  0  0
  183.8864  126.4689   31.0948 H   0  0  0  0  0  0  0  0  0  0  0  0
  184.4591  122.0871   29.5465 H   0  0  0  0  0  0  0  0  0  0  0  0
  183.3934  122.4994   28.1830 H   0  0  0  0  0  0  0  0  0  0  0  0
  179.1993  119.1795   28.3027 H   0  0  0  0  0  0  0  0  0  0  0  0
  178.4729  117.3663   29.8523 H   0  0  0  0  0  0  0  0  0  0  0  0
  179.8034  116.8234   31.8714 H   0  0  0  0  0  0  0  0  0  0  0  0
  181.9085  118.0693   32.3751 H   0  0  0  0  0  0  0  0  0  0  0  0
  183.2575  120.0279   32.6678 H   0  0  0  0  0  0  0  0  0  0  0  0
  184.0531  121.4118   31.7229 H   0  0  0  0  0  0  0  0  0  0  0  0
  186.8039  120.5998   30.9045 H   0  0  0  0  0  0  0  0  0  0  0  0
  186.2925  119.2473   29.8386 H   0  0  0  0  0  0  0  0  0  0  0  0
  185.3704  120.7888   29.8386 H   0  0  0  0  0  0  0  0  0  0  0  0
  185.1340  119.5584   33.7287 H   0  0  0  0  0  0  0  0  0  0  0  0
  186.5681  118.8344   32.9250 H   0  0  0  0  0  0  0  0  0  0  0  0
  186.3428  120.6165   32.9250 H   0  0  0  0  0  0  0  0  0  0  0  0
  184.6328  117.5426   32.2484 H   0  0  0  0  0  0  0  0  0  0  0  0
  183.8096  117.9994   30.7186 H   0  0  0  0  0  0  0  0  0  0  0  0
  185.5692  117.6383   30.7186 H   0  0  0  0  0  0  0  0  0  0  0  0
  184.5520  132.1500   30.2943 H   0  0  0  0  0  0  0  0  0  0  0  0
  185.0585  131.1971   28.8583 H   0  0  0  0  0  0  0  0  0  0  0  0
  183.4774  132.0496   28.8583 H   0  0  0  0  0  0  0  0  0  0  0  0
  181.6218  129.5528   27.7073 H   0  0  0  0  0  0  0  0  0  0  0  0
  183.2897  130.1924   27.5180 H   0  0  0  0  0  0  0  0  0  0  0  0
  183.0024  128.4192   27.5180 H   0  0  0  0  0  0  0  0  0  0  0  0
  180.0093  125.2524   30.0638 H   0  0  0  0  0  0  0  0  0  0  0  0
  180.8571  124.4726   31.4410 H   0  0  0  0  0  0  0  0  0  0  0  0
  180.8441  123.0098   29.4311 H   0  0  0  0  0  0  0  0  0  0  0  0
  181.6785  124.2769   28.4932 H   0  0  0  0  0  0  0  0  0  0  0  0
  183.9730  124.9581   29.1349 H   0  0  0  0  0  0  0  0  0  0  0  0
  184.7698  124.1986   30.5439 H   0  0  0  0  0  0  0  0  0  0  0  0
  182.6851  123.0435   31.0114 H   0  0  0  0  0  0  0  0  0  0  0  0
  1 20  1  0
  1 21  1  0
  1 27  1  0
  2  4  1  0
  3 23  2  0
  4 15  1  0
  4 27  2  0
  5 26  1  0
  5 28  1  0
  6  7  1  0
 29  6  1  0
  7 30  2  0
  7 31  1  0
  8  9  2  0
  8 13  1  0
  8 30  1  0
  9 10  1  0
 10 11  2  0
 11 12  1  0
 12 13  2  0
 13 31  1  0
 16 14  1  1
 14 31  1  0
 15 20  2  0
 15 23  1  0
 16 17  1  0
 16 18  1  0
 16 19  1  0
 20 22  1  0
 23 28  1  0
 24 25  1  0
 24 28  1  0
 25 29  1  0
 26 29  1  0
  2 32  1  0
  2 33  1  0
  2 34  1  0
  5 35  1  0
  5 36  1  0
  6 37  1  0
  6 38  1  0
  9 39  1  0
 10 40  1  0
 11 41  1  0
 12 42  1  0
 14 43  1  0
 14 44  1  0
 17 45  1  0
 17 46  1  0
 17 47  1  0
 18 48  1  0
 18 49  1  0
 18 50  1  0
 19 51  1  0
 19 52  1  0
 19 53  1  0
 21 54  1  0
 21 55  1  0
 21 56  1  0
 22 57  1  0
 22 58  1  0
 22 59  1  0
 24 60  1  0
 24 61  1  0
 25 62  1  0
 25 63  1  0
 26 64  1  0
 26 65  1  0
 29 66  1  1
M  CHG  1  29   1
M  END
>  <filename_input>  (26) 
7RNI_60I_docked.sdf

>  <pdb_id>  (26) 
7RNI_60I

>  <pose_rank>  (26) 
25

>  <num_atoms_heavy>  (26) 
31

>  <num_torsions>  (26) 
5

>  <pose>  (26) 
[180.426, 127.478, 29.616, 1e-06, 1e-06, 1e-06, 0.0, 0.0, 0.0, 0.0, 0.0]

>  <energy>  (26) 
-771.91583360553

>  <inter_energy>  (26) 
-806.5808618881703

>  <intra_energy>  (26) 
31.093034543510676

>  <rmsd>  (26) 
0.0

>  <sdf_rank>  (26) 
0

$$$$
