
     RDKit          3D

 58 61  0  0  0  0  0  0  0  0999 V2000
    7.1913   -2.0980   52.5744 C   0  0  1  0  0  0  0  0  0  0  0  0
    7.2552   -0.6009   52.1435 C   0  0  0  0  0  0  0  0  0  0  0  0
    7.8373   -0.3925   50.8052 C   0  0  0  0  0  0  0  0  0  0  0  0
    9.1433   -0.8590   50.4628 C   0  0  0  0  0  0  0  0  0  0  0  0
    9.6768   -0.6916   49.1737 C   0  0  0  0  0  0  0  0  0  0  0  0
    8.9289   -0.0473   48.1491 C   0  0  0  0  0  0  0  0  0  0  0  0
    7.6065    0.4541   48.4775 C   0  0  0  0  0  0  0  0  0  0  0  0
    7.1110    0.2469   49.7549 C   0  0  0  0  0  0  0  0  0  0  0  0
    6.6504   -2.1259   54.0005 C   0  0  0  0  0  0  0  0  0  0  0  0
    9.8490   -1.2238   56.3616 C   0  0  0  0  0  0  0  0  0  0  0  0
   11.0468   -2.1220   56.0774 C   0  0  2  0  0  0  0  0  0  0  0  0
   11.3577   -4.1414   57.2397 C   0  0  2  0  0  0  0  0  0  0  0  0
   10.3326   -4.4287   56.1246 C   0  0  1  0  0  0  0  0  0  0  0  0
   10.6792   -3.3533   55.1076 C   0  0  2  0  0  0  0  0  0  0  0  0
    9.6500   -4.6554   59.0855 C   0  0  0  0  0  0  0  0  0  0  0  0
   10.9297   -5.9253   60.4104 C   0  0  0  0  0  0  0  0  0  0  0  0
   11.5272   -6.7722   61.4024 C   0  0  0  0  0  0  0  0  0  0  0  0
   13.5646   -6.7074   60.1106 C   0  0  0  0  0  0  0  0  0  0  0  0
   11.7229   -5.5322   59.3173 C   0  0  0  0  0  0  0  0  0  0  0  0
    6.3454   -2.9314   51.6702 N   0  0  0  0  0  0  0  0  0  0  0  0
   10.9405   -4.7397   58.4469 N   0  0  0  0  0  0  0  0  0  0  0  0
    9.6363   -5.3693   60.2475 N   0  0  0  0  0  0  0  0  0  0  0  0
   10.8747   -7.2398   62.5173 N   0  0  0  0  0  0  0  0  0  0  0  0
   12.8680   -7.1516   61.2096 N   0  0  0  0  0  0  0  0  0  0  0  0
   13.0903   -5.9041   59.1276 N   0  0  0  0  0  0  0  0  0  0  0  0
    9.4428    0.1420   46.9060 O   0  0  0  0  0  0  0  0  0  0  0  0
    5.5233   -2.1616   54.3278 O   0  0  0  0  0  0  0  0  0  0  0  0
    7.6085   -2.0374   54.9090 O   0  0  0  0  0  0  0  0  0  0  0  0
    6.6369   -2.9391   57.1582 O   0  0  0  0  0  0  0  0  0  0  0  0
    6.9476   -0.3315   56.7290 O   0  0  0  0  0  0  0  0  0  0  0  0
    8.9564   -1.8979   57.1495 O   0  0  0  0  0  0  0  0  0  0  0  0
   11.4309   -2.7576   57.3299 O   0  0  0  0  0  0  0  0  0  0  0  0
   10.4605   -5.7917   55.6061 O   0  0  0  0  0  0  0  0  0  0  0  0
   11.8266   -3.6219   54.3343 O   0  0  0  0  0  0  0  0  0  0  0  0
    7.2957   -1.7599   56.5812 P   0  0  2  0  0  0  0  0  0  0  0  0
    8.1982   -2.5367   52.5142 H   0  0  0  0  0  0  0  0  0  0  0  0
    6.2325   -0.1956   52.1440 H   0  0  0  0  0  0  0  0  0  0  0  0
    7.9111   -0.0878   52.8622 H   0  0  0  0  0  0  0  0  0  0  0  0
    9.7486   -1.3638   51.2301 H   0  0  0  0  0  0  0  0  0  0  0  0
   10.6880   -1.0643   48.9533 H   0  0  0  0  0  0  0  0  0  0  0  0
    7.0082    0.9891   47.7253 H   0  0  0  0  0  0  0  0  0  0  0  0
    6.0918    0.5978   49.9742 H   0  0  0  0  0  0  0  0  0  0  0  0
   10.1861   -0.3153   56.8823 H   0  0  0  0  0  0  0  0  0  0  0  0
    9.3659   -0.9424   55.4143 H   0  0  0  0  0  0  0  0  0  0  0  0
   11.8217   -1.4902   55.6187 H   0  0  0  0  0  0  0  0  0  0  0  0
   12.3504   -4.5634   57.0238 H   0  0  0  0  0  0  0  0  0  0  0  0
    9.2815   -4.3887   56.4463 H   0  0  0  0  0  0  0  0  0  0  0  0
    9.8625   -3.2197   54.3828 H   0  0  0  0  0  0  0  0  0  0  0  0
    8.7928   -4.0915   58.6890 H   0  0  0  0  0  0  0  0  0  0  0  0
   14.6103   -7.0366   60.0203 H   0  0  0  0  0  0  0  0  0  0  0  0
    5.7317   -3.5360   52.2348 H   0  0  0  0  0  0  0  0  0  0  0  0
    5.7701   -2.3176   51.0759 H   0  0  0  0  0  0  0  0  0  0  0  0
    6.9506   -3.5157   51.0759 H   0  0  0  0  0  0  0  0  0  0  0  0
   11.3696   -7.8453   63.1876 H   0  0  0  0  0  0  0  0  0  0  0  0
    9.8906   -6.9848   62.6828 H   0  0  0  0  0  0  0  0  0  0  0  0
    8.9021    0.5933   46.2102 H   0  0  0  0  0  0  0  0  0  0  0  0
   10.5203   -6.4281   56.3621 H   0  0  0  0  0  0  0  0  0  0  0  0
   12.5938   -3.8015   54.9336 H   0  0  0  0  0  0  0  0  0  0  0  0
  1  2  1  0
  1  9  1  0
  1 20  1  0
  2  3  1  0
  3  4  2  0
  3  8  1  0
  4  5  1  0
  5  6  2  0
  6  7  1  0
  6 26  1  0
  7  8  2  0
  9 27  2  0
  9 28  1  0
 11 10  1  0
 10 31  1  0
 11 14  1  0
 11 32  1  0
 12 13  1  0
 12 21  1  0
 12 32  1  0
 13 14  1  0
 13 33  1  0
 14 34  1  0
 15 21  1  0
 15 22  2  0
 16 17  2  0
 16 19  1  0
 16 22  1  0
 17 23  1  0
 17 24  1  0
 18 24  2  0
 18 25  1  0
 19 21  1  0
 19 25  2  0
 28 35  1  0
 35 29  1  1
 30 35  2  0
 31 35  1  0
  1 36  1  1
  2 37  1  0
  2 38  1  0
  4 39  1  0
  5 40  1  0
  7 41  1  0
  8 42  1  0
 10 43  1  0
 10 44  1  0
 11 45  1  6
 12 46  1  6
 13 47  1  1
 14 48  1  6
 15 49  1  0
 18 50  1  0
 20 51  1  0
 20 52  1  0
 20 53  1  0
 23 54  1  0
 23 55  1  0
 26 56  1  0
 33 57  1  0
 34 58  1  0
M  CHG  2  20   1  29  -1
M  END
>  <filename_input>  (1) 
7ROR_69X_docked.sdf

>  <pdb_id>  (1) 
7ROR_69X

>  <pose_rank>  (1) 
0

>  <num_atoms_heavy>  (1) 
35

>  <num_torsions>  (1) 
9

>  <pose>  (1) 
[9.849028889368666, -1.2237598155746128, 56.36161186068362, -0.08583654179585591, 0.2753274967297849, -0.21516658913373166, 6.426705006692509, 0.2441683449348786, -5.913671782888425, -6.648568742587109, -0.0025545960042810227, -6.153539023721494, -0.06083377926503517, 6.339423989689911, 0.13106644104120535]

>  <energy>  (1) 
-1169.5819217611636

>  <inter_energy>  (1) 
-1182.9548594652954

>  <intra_energy>  (1) 
16.60557838117147

>  <rmsd>  (1) 
0.535014

>  <sdf_rank>  (1) 
0

$$$$

     RDKit          3D

 58 61  0  0  0  0  0  0  0  0999 V2000
    9.1506   -5.2842   58.3955 C   0  0  1  0  0  0  0  0  0  0  0  0
    9.8808   -4.5091   59.5344 C   0  0  0  0  0  0  0  0  0  0  0  0
   11.1706   -5.1058   59.9265 C   0  0  0  0  0  0  0  0  0  0  0  0
   12.4212   -4.5035   59.5891 C   0  0  0  0  0  0  0  0  0  0  0  0
   13.6460   -5.0567   59.9995 C   0  0  0  0  0  0  0  0  0  0  0  0
   13.6883   -6.2478   60.7766 C   0  0  0  0  0  0  0  0  0  0  0  0
   12.4314   -6.8905   61.1155 C   0  0  0  0  0  0  0  0  0  0  0  0
   11.2465   -6.2979   60.7093 C   0  0  0  0  0  0  0  0  0  0  0  0
    9.7038   -4.7568   57.0753 C   0  0  0  0  0  0  0  0  0  0  0  0
    8.3457   -2.1878   56.3497 C   0  0  0  0  0  0  0  0  0  0  0  0
    7.0687   -1.5807   55.7814 C   0  0  2  0  0  0  0  0  0  0  0  0
    6.7336   -1.3997   53.4618 C   0  0  2  0  0  0  0  0  0  0  0  0
    6.3841   -2.8515   53.8451 C   0  0  1  0  0  0  0  0  0  0  0  0
    6.0099   -2.6983   55.3105 C   0  0  2  0  0  0  0  0  0  0  0  0
    8.7129   -2.1182   51.9944 C   0  0  0  0  0  0  0  0  0  0  0  0
    8.2812   -0.8783   50.1828 C   0  0  0  0  0  0  0  0  0  0  0  0
    8.2126   -0.2112   48.9145 C   0  0  0  0  0  0  0  0  0  0  0  0
    6.2083    0.8845   49.6931 C   0  0  0  0  0  0  0  0  0  0  0  0
    7.2751   -0.6022   51.1263 C   0  0  0  0  0  0  0  0  0  0  0  0
    9.3244   -6.7635   58.4900 N   0  0  0  0  0  0  0  0  0  0  0  0
    7.5058   -1.3828   52.2817 N   0  0  0  0  0  0  0  0  0  0  0  0
    9.1702   -1.8297   50.7423 N   0  0  0  0  0  0  0  0  0  0  0  0
    9.1181   -0.3867   47.8964 N   0  0  0  0  0  0  0  0  0  0  0  0
    7.1392    0.6733   48.7037 N   0  0  0  0  0  0  0  0  0  0  0  0
    6.1922    0.3082   50.9196 N   0  0  0  0  0  0  0  0  0  0  0  0
   14.8666   -6.8054   61.1589 O   0  0  0  0  0  0  0  0  0  0  0  0
    9.5590   -5.2289   56.0100 O   0  0  0  0  0  0  0  0  0  0  0  0
   10.4658   -3.6868   57.2351 O   0  0  0  0  0  0  0  0  0  0  0  0
   11.5114   -3.4145   54.8585 O   0  0  0  0  0  0  0  0  0  0  0  0
   11.3348   -1.3588   56.5388 O   0  0  0  0  0  0  0  0  0  0  0  0
    9.2629   -2.3320   55.3446 O   0  0  0  0  0  0  0  0  0  0  0  0
    7.4190   -0.8819   54.5530 O   0  0  0  0  0  0  0  0  0  0  0  0
    5.3041   -3.3882   53.0152 O   0  0  0  0  0  0  0  0  0  0  0  0
    4.7247   -2.1659   55.5375 O   0  0  0  0  0  0  0  0  0  0  0  0
   10.8926   -2.6345   55.9383 P   0  0  2  0  0  0  0  0  0  0  0  0
    8.0668   -5.1144   58.4775 H   0  0  0  0  0  0  0  0  0  0  0  0
   10.0644   -3.4801   59.1916 H   0  0  0  0  0  0  0  0  0  0  0  0
    9.2276   -4.5473   60.4186 H   0  0  0  0  0  0  0  0  0  0  0  0
   12.4256   -3.5804   58.9910 H   0  0  0  0  0  0  0  0  0  0  0  0
   14.5862   -4.5614   59.7157 H   0  0  0  0  0  0  0  0  0  0  0  0
   12.4199   -7.8315   61.6849 H   0  0  0  0  0  0  0  0  0  0  0  0
   10.3028   -6.7769   61.0093 H   0  0  0  0  0  0  0  0  0  0  0  0
    8.7535   -1.5251   57.1272 H   0  0  0  0  0  0  0  0  0  0  0  0
    8.1228   -3.1711   56.7896 H   0  0  0  0  0  0  0  0  0  0  0  0
    6.6342   -0.9483   56.5696 H   0  0  0  0  0  0  0  0  0  0  0  0
    5.8433   -0.7908   53.2458 H   0  0  0  0  0  0  0  0  0  0  0  0
    7.1961   -3.5762   53.6858 H   0  0  0  0  0  0  0  0  0  0  0  0
    6.0179   -3.6720   55.8222 H   0  0  0  0  0  0  0  0  0  0  0  0
    9.1990   -2.8172   52.6910 H   0  0  0  0  0  0  0  0  0  0  0  0
    5.3961    1.5911   49.4669 H   0  0  0  0  0  0  0  0  0  0  0  0
    9.3572   -7.0428   59.4809 H   0  0  0  0  0  0  0  0  0  0  0  0
    8.5327   -7.2325   58.0272 H   0  0  0  0  0  0  0  0  0  0  0  0
   10.2032   -7.0363   58.0272 H   0  0  0  0  0  0  0  0  0  0  0  0
    9.0041    0.1278   47.0114 H   0  0  0  0  0  0  0  0  0  0  0  0
    9.9111   -1.0326   48.0181 H   0  0  0  0  0  0  0  0  0  0  0  0
   14.8694   -7.6348   61.6995 H   0  0  0  0  0  0  0  0  0  0  0  0
    4.5868   -3.7447   53.5971 H   0  0  0  0  0  0  0  0  0  0  0  0
    4.5628   -2.0988   56.5119 H   0  0  0  0  0  0  0  0  0  0  0  0
  1  2  1  0
  1  9  1  0
  1 20  1  0
  2  3  1  0
  3  4  2  0
  3  8  1  0
  4  5  1  0
  5  6  2  0
  6  7  1  0
  6 26  1  0
  7  8  2  0
  9 27  2  0
  9 28  1  0
 11 10  1  0
 10 31  1  0
 11 14  1  0
 11 32  1  0
 12 13  1  0
 12 21  1  0
 12 32  1  0
 13 14  1  0
 13 33  1  0
 14 34  1  0
 15 21  1  0
 15 22  2  0
 16 17  2  0
 16 19  1  0
 16 22  1  0
 17 23  1  0
 17 24  1  0
 18 24  2  0
 18 25  1  0
 19 21  1  0
 19 25  2  0
 28 35  1  0
 35 29  1  6
 30 35  2  0
 31 35  1  0
  1 36  1  6
  2 37  1  0
  2 38  1  0
  4 39  1  0
  5 40  1  0
  7 41  1  0
  8 42  1  0
 10 43  1  0
 10 44  1  0
 11 45  1  1
 12 46  1  6
 13 47  1  1
 14 48  1  1
 15 49  1  0
 18 50  1  0
 20 51  1  0
 20 52  1  0
 20 53  1  0
 23 54  1  0
 23 55  1  0
 26 56  1  0
 33 57  1  0
 34 58  1  0
M  CHG  2  20   1  29  -1
M  END
>  <filename_input>  (2) 
7ROR_69X_docked.sdf

>  <pdb_id>  (2) 
7ROR_69X

>  <pose_rank>  (2) 
1

>  <num_atoms_heavy>  (2) 
35

>  <num_torsions>  (2) 
9

>  <pose>  (2) 
[8.345741371673993, -2.1878158431794055, 56.34968650287585, -0.6859042885262575, -2.5689416026710026, -2.1985159500103464, 0.5315565448500893, 0.20421169381406667, -0.6961472812122598, -0.4578236316485085, -2.150754416498521, 0.6126558071895544, 1.3255971553158454, 1.7604548778851274, 2.9979254798507355]

>  <energy>  (2) 
-856.3881712518601

>  <inter_energy>  (2) 
-930.3879772157063

>  <intra_energy>  (2) 
70.38268594332591

>  <rmsd>  (2) 
10.0536

>  <sdf_rank>  (2) 
0

$$$$

     RDKit          3D

 58 61  0  0  0  0  0  0  0  0999 V2000
    5.5902   -5.5668   55.7512 C   0  0  1  0  0  0  0  0  0  0  0  0
    4.2847   -6.1870   56.3362 C   0  0  0  0  0  0  0  0  0  0  0  0
    4.3253   -7.6561   56.4521 C   0  0  0  0  0  0  0  0  0  0  0  0
    3.4898   -8.3706   57.3642 C   0  0  0  0  0  0  0  0  0  0  0  0
    3.5054   -9.7735   57.4419 C   0  0  0  0  0  0  0  0  0  0  0  0
    4.3602  -10.5442   56.6054 C   0  0  0  0  0  0  0  0  0  0  0  0
    5.2340   -9.8407   55.6839 C   0  0  0  0  0  0  0  0  0  0  0  0
    5.1692   -8.4578   55.6245 C   0  0  0  0  0  0  0  0  0  0  0  0
    5.2505   -4.1430   55.3217 C   0  0  0  0  0  0  0  0  0  0  0  0
    9.3105   -1.8396   55.7289 C   0  0  0  0  0  0  0  0  0  0  0  0
   10.7523   -2.3320   55.7601 C   0  0  2  0  0  0  0  0  0  0  0  0
   11.4168   -4.0641   57.2038 C   0  0  2  0  0  0  0  0  0  0  0  0
   10.7606   -4.7370   55.9817 C   0  0  1  0  0  0  0  0  0  0  0  0
   10.9629   -3.6810   54.9070 C   0  0  2  0  0  0  0  0  0  0  0  0
    9.6696   -4.5853   59.0101 C   0  0  0  0  0  0  0  0  0  0  0  0
   10.9071   -5.8977   60.3337 C   0  0  0  0  0  0  0  0  0  0  0  0
   11.4746   -6.7710   61.3204 C   0  0  0  0  0  0  0  0  0  0  0  0
   13.5351   -6.7136   60.0654 C   0  0  0  0  0  0  0  0  0  0  0  0
   11.7250   -5.4970   59.2618 C   0  0  0  0  0  0  0  0  0  0  0  0
    6.7254   -5.5717   56.7203 N   0  0  0  0  0  0  0  0  0  0  0  0
   10.9697   -4.6775   58.3925 N   0  0  0  0  0  0  0  0  0  0  0  0
    9.6250   -5.3196   60.1586 N   0  0  0  0  0  0  0  0  0  0  0  0
   10.7958   -7.2487   62.4151 N   0  0  0  0  0  0  0  0  0  0  0  0
   12.8129   -7.1670   61.1439 N   0  0  0  0  0  0  0  0  0  0  0  0
   13.0900   -5.8859   59.0890 N   0  0  0  0  0  0  0  0  0  0  0  0
    4.4019  -11.8995   56.6879 O   0  0  0  0  0  0  0  0  0  0  0  0
    4.3580   -3.8058   54.6372 O   0  0  0  0  0  0  0  0  0  0  0  0
    6.1328   -3.2574   55.7555 O   0  0  0  0  0  0  0  0  0  0  0  0
    6.9073   -0.7965   55.3551 O   0  0  0  0  0  0  0  0  0  0  0  0
    6.5672   -2.4894   53.3304 O   0  0  0  0  0  0  0  0  0  0  0  0
    8.5610   -2.6867   54.9589 O   0  0  0  0  0  0  0  0  0  0  0  0
   11.0566   -2.7250   57.1287 O   0  0  0  0  0  0  0  0  0  0  0  0
   11.3859   -6.0229   55.6678 O   0  0  0  0  0  0  0  0  0  0  0  0
   12.2658   -3.6275   54.3718 O   0  0  0  0  0  0  0  0  0  0  0  0
    6.9111   -2.1207   54.7194 P   0  0  2  0  0  0  0  0  0  0  0  0
    5.9326   -6.1757   54.9015 H   0  0  0  0  0  0  0  0  0  0  0  0
    4.1183   -5.7644   57.3381 H   0  0  0  0  0  0  0  0  0  0  0  0
    3.4718   -5.9427   55.6366 H   0  0  0  0  0  0  0  0  0  0  0  0
    2.8148   -7.8064   58.0246 H   0  0  0  0  0  0  0  0  0  0  0  0
    2.8469  -10.2836   58.1603 H   0  0  0  0  0  0  0  0  0  0  0  0
    5.9355  -10.3959   55.0438 H   0  0  0  0  0  0  0  0  0  0  0  0
    5.8093   -7.9439   54.8923 H   0  0  0  0  0  0  0  0  0  0  0  0
    8.9069   -1.8187   56.7519 H   0  0  0  0  0  0  0  0  0  0  0  0
    9.2759   -0.8260   55.3030 H   0  0  0  0  0  0  0  0  0  0  0  0
   11.3782   -1.5218   55.3579 H   0  0  0  0  0  0  0  0  0  0  0  0
   12.5121   -4.1656   57.2080 H   0  0  0  0  0  0  0  0  0  0  0  0
    9.7035   -5.0080   56.1197 H   0  0  0  0  0  0  0  0  0  0  0  0
   10.3008   -3.8626   54.0477 H   0  0  0  0  0  0  0  0  0  0  0  0
    8.8278   -4.0017   58.6091 H   0  0  0  0  0  0  0  0  0  0  0  0
   14.5773   -7.0568   59.9872 H   0  0  0  0  0  0  0  0  0  0  0  0
    6.3560   -5.5701   57.6818 H   0  0  0  0  0  0  0  0  0  0  0  0
    7.2982   -6.4151   56.5739 H   0  0  0  0  0  0  0  0  0  0  0  0
    7.3053   -4.7331   56.5739 H   0  0  0  0  0  0  0  0  0  0  0  0
   11.2699   -7.8734   63.0828 H   0  0  0  0  0  0  0  0  0  0  0  0
    9.8128   -6.9820   62.5682 H   0  0  0  0  0  0  0  0  0  0  0  0
    5.0054  -12.4132   56.0946 H   0  0  0  0  0  0  0  0  0  0  0  0
   11.6144   -6.4928   56.5087 H   0  0  0  0  0  0  0  0  0  0  0  0
   12.9249   -3.6004   55.1100 H   0  0  0  0  0  0  0  0  0  0  0  0
  1  2  1  0
  1  9  1  0
  1 20  1  0
  2  3  1  0
  3  4  2  0
  3  8  1  0
  4  5  1  0
  5  6  2  0
  6  7  1  0
  6 26  1  0
  7  8  2  0
  9 27  2  0
  9 28  1  0
 11 10  1  0
 10 31  1  0
 11 14  1  0
 11 32  1  0
 12 13  1  0
 12 21  1  0
 12 32  1  0
 13 14  1  0
 13 33  1  0
 14 34  1  0
 15 21  1  0
 15 22  2  0
 16 17  2  0
 16 19  1  0
 16 22  1  0
 17 23  1  0
 17 24  1  0
 18 24  2  0
 18 25  1  0
 19 21  1  0
 19 25  2  0
 28 35  1  0
 35 29  1  1
 30 35  2  0
 31 35  1  0
  1 36  1  6
  2 37  1  0
  2 38  1  0
  4 39  1  0
  5 40  1  0
  7 41  1  0
  8 42  1  0
 10 43  1  0
 10 44  1  0
 11 45  1  6
 12 46  1  6
 13 47  1  1
 14 48  1  6
 15 49  1  0
 18 50  1  0
 20 51  1  0
 20 52  1  0
 20 53  1  0
 23 54  1  0
 23 55  1  0
 26 56  1  0
 33 57  1  0
 34 58  1  0
M  CHG  2  20   1  29  -1
M  END
>  <filename_input>  (3) 
7ROR_69X_docked.sdf

>  <pdb_id>  (3) 
7ROR_69X

>  <pose_rank>  (3) 
2

>  <num_atoms_heavy>  (3) 
35

>  <num_torsions>  (3) 
9

>  <pose>  (3) 
[9.310463615087121, -1.8396312622782842, 55.72886635516621, 0.933931304005492, -0.3728106136426429, 0.08601059009297142, -1.0775537425854502, -0.14224965594198447, -0.33899926794760465, -3.0136192635513126, 1.1644527899485126, -0.5834928661940062, -2.488822720946186, -0.16513536552197666, -2.4187924974881057]

>  <energy>  (3) 
-887.1911614620926

>  <inter_energy>  (3) 
-900.8489590673377

>  <intra_energy>  (3) 
15.125486665697768

>  <rmsd>  (3) 
6.22039

>  <sdf_rank>  (3) 
0

$$$$

     RDKit          3D

 58 61  0  0  0  0  0  0  0  0999 V2000
   13.7420   -3.2080   57.4411 C   0  0  1  0  0  0  0  0  0  0  0  0
   14.2954   -3.4171   58.8837 C   0  0  0  0  0  0  0  0  0  0  0  0
   15.6358   -2.8410   59.0949 C   0  0  0  0  0  0  0  0  0  0  0  0
   15.8298   -1.4611   59.4091 C   0  0  0  0  0  0  0  0  0  0  0  0
   17.1073   -0.9268   59.6477 C   0  0  0  0  0  0  0  0  0  0  0  0
   18.2678   -1.7477   59.5877 C   0  0  0  0  0  0  0  0  0  0  0  0
   18.0993   -3.1497   59.2502 C   0  0  0  0  0  0  0  0  0  0  0  0
   16.8192   -3.6390   59.0452 C   0  0  0  0  0  0  0  0  0  0  0  0
   12.2215   -3.1558   57.5530 C   0  0  0  0  0  0  0  0  0  0  0  0
    8.4897   -3.8184   55.7411 C   0  0  0  0  0  0  0  0  0  0  0  0
    7.4209   -2.7541   55.5238 C   0  0  2  0  0  0  0  0  0  0  0  0
    7.0602   -1.8054   53.4036 C   0  0  2  0  0  0  0  0  0  0  0  0
    6.3217   -3.1587   53.4117 C   0  0  1  0  0  0  0  0  0  0  0  0
    6.0665   -3.3578   54.8970 C   0  0  2  0  0  0  0  0  0  0  0  0
    9.0545   -2.1560   51.8266 C   0  0  0  0  0  0  0  0  0  0  0  0
    8.3263   -0.9832   50.0659 C   0  0  0  0  0  0  0  0  0  0  0  0
    8.0804   -0.3203   48.8176 C   0  0  0  0  0  0  0  0  0  0  0  0
    5.9621    0.4070   49.7164 C   0  0  0  0  0  0  0  0  0  0  0  0
    7.3378   -0.8955   51.0629 C   0  0  0  0  0  0  0  0  0  0  0  0
   14.2680   -1.9744   56.7859 N   0  0  0  0  0  0  0  0  0  0  0  0
    7.7567   -1.6411   52.1882 N   0  0  0  0  0  0  0  0  0  0  0  0
    9.3913   -1.7767   50.5605 N   0  0  0  0  0  0  0  0  0  0  0  0
    8.9490   -0.3249   47.7532 N   0  0  0  0  0  0  0  0  0  0  0  0
    6.8632    0.3712   48.6786 N   0  0  0  0  0  0  0  0  0  0  0  0
    6.1071   -0.1802   50.9290 N   0  0  0  0  0  0  0  0  0  0  0  0
   19.5103   -1.2381   59.7926 O   0  0  0  0  0  0  0  0  0  0  0  0
   11.5579   -2.2013   57.7181 O   0  0  0  0  0  0  0  0  0  0  0  0
   11.6675   -4.3568   57.5102 O   0  0  0  0  0  0  0  0  0  0  0  0
    9.5834   -4.1378   59.0673 O   0  0  0  0  0  0  0  0  0  0  0  0
    9.6445   -5.8980   57.0726 O   0  0  0  0  0  0  0  0  0  0  0  0
    9.4022   -3.3620   56.6528 O   0  0  0  0  0  0  0  0  0  0  0  0
    7.9089   -1.8384   54.5023 O   0  0  0  0  0  0  0  0  0  0  0  0
    5.1005   -3.1169   52.6055 O   0  0  0  0  0  0  0  0  0  0  0  0
    5.0001   -2.5978   55.4183 O   0  0  0  0  0  0  0  0  0  0  0  0
    9.9797   -4.6221   57.7384 P   0  0  2  0  0  0  0  0  0  0  0  0
   14.0730   -4.0391   56.8010 H   0  0  0  0  0  0  0  0  0  0  0  0
   13.5996   -2.9464   59.5939 H   0  0  0  0  0  0  0  0  0  0  0  0
   14.3844   -4.5024   59.0391 H   0  0  0  0  0  0  0  0  0  0  0  0
   14.9541   -0.7978   59.4660 H   0  0  0  0  0  0  0  0  0  0  0  0
   17.2117    0.1423   59.8845 H   0  0  0  0  0  0  0  0  0  0  0  0
   18.9728   -3.8121   59.1589 H   0  0  0  0  0  0  0  0  0  0  0  0
   16.7072   -4.7119   58.8301 H   0  0  0  0  0  0  0  0  0  0  0  0
    8.0206   -4.7386   56.1196 H   0  0  0  0  0  0  0  0  0  0  0  0
    8.9957   -4.0331   54.7883 H   0  0  0  0  0  0  0  0  0  0  0  0
    7.2195   -2.2952   56.5030 H   0  0  0  0  0  0  0  0  0  0  0  0
    6.3759   -0.9471   53.4749 H   0  0  0  0  0  0  0  0  0  0  0  0
    6.8827   -3.9902   52.9602 H   0  0  0  0  0  0  0  0  0  0  0  0
    5.8132   -4.4057   55.1155 H   0  0  0  0  0  0  0  0  0  0  0  0
    9.6872   -2.7714   52.4831 H   0  0  0  0  0  0  0  0  0  0  0  0
    5.0314    0.9679   49.5454 H   0  0  0  0  0  0  0  0  0  0  0  0
   14.5563   -1.2985   57.5077 H   0  0  0  0  0  0  0  0  0  0  0  0
   15.0790   -2.2166   56.1989 H   0  0  0  0  0  0  0  0  0  0  0  0
   13.5319   -1.5569   56.1989 H   0  0  0  0  0  0  0  0  0  0  0  0
    8.7040    0.1746   46.8864 H   0  0  0  0  0  0  0  0  0  0  0  0
    9.8452   -0.8279   47.8221 H   0  0  0  0  0  0  0  0  0  0  0  0
   20.3022   -1.8303   59.7455 H   0  0  0  0  0  0  0  0  0  0  0  0
    4.3115   -3.0898   53.2028 H   0  0  0  0  0  0  0  0  0  0  0  0
    5.0315   -2.6202   56.4076 H   0  0  0  0  0  0  0  0  0  0  0  0
  1  2  1  0
  1  9  1  0
  1 20  1  0
  2  3  1  0
  3  4  2  0
  3  8  1  0
  4  5  1  0
  5  6  2  0
  6  7  1  0
  6 26  1  0
  7  8  2  0
  9 27  2  0
  9 28  1  0
 11 10  1  0
 10 31  1  0
 11 14  1  0
 11 32  1  0
 12 13  1  0
 12 21  1  0
 12 32  1  0
 13 14  1  0
 13 33  1  0
 14 34  1  0
 15 21  1  0
 15 22  2  0
 16 17  2  0
 16 19  1  0
 16 22  1  0
 17 23  1  0
 17 24  1  0
 18 24  2  0
 18 25  1  0
 19 21  1  0
 19 25  2  0
 28 35  1  0
 35 29  1  1
 30 35  2  0
 31 35  1  0
  1 36  1  6
  2 37  1  0
  2 38  1  0
  4 39  1  0
  5 40  1  0
  7 41  1  0
  8 42  1  0
 10 43  1  0
 10 44  1  0
 11 45  1  1
 12 46  1  1
 13 47  1  6
 14 48  1  6
 15 49  1  0
 18 50  1  0
 20 51  1  0
 20 52  1  0
 20 53  1  0
 23 54  1  0
 23 55  1  0
 26 56  1  0
 33 57  1  0
 34 58  1  0
M  CHG  2  20   1  29  -1
M  END
>  <filename_input>  (4) 
7ROR_69X_docked.sdf

>  <pdb_id>  (4) 
7ROR_69X

>  <pose_rank>  (4) 
3

>  <num_atoms_heavy>  (4) 
35

>  <num_torsions>  (4) 
9

>  <pose>  (4) 
[8.489688239699044, -3.8184386992128916, 55.74114702691984, 0.5616306393509386, 0.3603230779757458, -3.4226359711563252, 8.70504346595956, -0.33047299583081274, -1.0969583226156605, 1.0928659075040623, 4.042096016723092, -6.043358432845898, -6.2997203538223445, 6.907009775196663, 2.5735450836391864]

>  <energy>  (4) 
-789.898554917493

>  <inter_energy>  (4) 
-809.3560656469627

>  <intra_energy>  (4) 
30.30634629162252

>  <rmsd>  (4) 
10.2727

>  <sdf_rank>  (4) 
0

$$$$

     RDKit          3D

 58 61  0  0  0  0  0  0  0  0999 V2000
    7.8573   -1.6996   53.0081 C   0  0  1  0  0  0  0  0  0  0  0  0
    6.9747   -1.7197   51.7229 C   0  0  0  0  0  0  0  0  0  0  0  0
    7.6321   -1.1316   50.5418 C   0  0  0  0  0  0  0  0  0  0  0  0
    8.9624   -1.4829   50.1580 C   0  0  0  0  0  0  0  0  0  0  0  0
    9.5690   -0.9482   49.0088 C   0  0  0  0  0  0  0  0  0  0  0  0
    8.8741   -0.0295   48.1736 C   0  0  0  0  0  0  0  0  0  0  0  0
    7.5278    0.3592   48.5531 C   0  0  0  0  0  0  0  0  0  0  0  0
    6.9604   -0.2103   49.6818 C   0  0  0  0  0  0  0  0  0  0  0  0
    6.9509   -2.0816   54.1741 C   0  0  0  0  0  0  0  0  0  0  0  0
    9.7010   -3.4114   56.2499 C   0  0  0  0  0  0  0  0  0  0  0  0
   10.6155   -4.5164   56.7644 C   0  0  2  0  0  0  0  0  0  0  0  0
   12.5176   -4.0215   58.0540 C   0  0  2  0  0  0  0  0  0  0  0  0
   11.3120   -3.9813   59.0142 C   0  0  1  0  0  0  0  0  0  0  0  0
   10.3250   -4.8925   58.3025 C   0  0  2  0  0  0  0  0  0  0  0  0
   13.1460   -1.5338   57.9929 C   0  0  0  0  0  0  0  0  0  0  0  0
   15.1700   -1.6550   58.9387 C   0  0  0  0  0  0  0  0  0  0  0  0
   16.4639   -1.4665   59.5292 C   0  0  0  0  0  0  0  0  0  0  0  0
   16.5512   -3.8500   59.8969 C   0  0  0  0  0  0  0  0  0  0  0  0
   14.6589   -2.9641   58.8787 C   0  0  0  0  0  0  0  0  0  0  0  0
    9.0311   -2.6179   52.9261 N   0  0  0  0  0  0  0  0  0  0  0  0
   13.3698   -2.9251   58.3006 N   0  0  0  0  0  0  0  0  0  0  0  0
   14.2096   -0.7739   58.3820 N   0  0  0  0  0  0  0  0  0  0  0  0
   17.0852   -0.2485   59.6621 N   0  0  0  0  0  0  0  0  0  0  0  0
   17.1307   -2.6083   60.0093 N   0  0  0  0  0  0  0  0  0  0  0  0
   15.3419   -4.1276   59.3520 N   0  0  0  0  0  0  0  0  0  0  0  0
    9.4582    0.5128   47.0735 O   0  0  0  0  0  0  0  0  0  0  0  0
    5.9318   -2.6619   54.1158 O   0  0  0  0  0  0  0  0  0  0  0  0
    7.3956   -1.6252   55.3339 O   0  0  0  0  0  0  0  0  0  0  0  0
    5.9936   -3.1981   56.8754 O   0  0  0  0  0  0  0  0  0  0  0  0
    8.0115   -1.7542   57.8366 O   0  0  0  0  0  0  0  0  0  0  0  0
    8.3995   -3.8234   56.3420 O   0  0  0  0  0  0  0  0  0  0  0  0
   11.9756   -3.9965   56.7756 O   0  0  0  0  0  0  0  0  0  0  0  0
   11.6712   -4.4385   60.3577 O   0  0  0  0  0  0  0  0  0  0  0  0
   10.5880   -6.2701   58.4437 O   0  0  0  0  0  0  0  0  0  0  0  0
    7.2984   -2.5279   56.7991 P   0  0  2  0  0  0  0  0  0  0  0  0
    8.2849   -0.6947   53.1395 H   0  0  0  0  0  0  0  0  0  0  0  0
    6.7193   -2.7648   51.4936 H   0  0  0  0  0  0  0  0  0  0  0  0
    6.0862   -1.1066   51.9342 H   0  0  0  0  0  0  0  0  0  0  0  0
    9.5282   -2.1923   50.7798 H   0  0  0  0  0  0  0  0  0  0  0  0
   10.5965   -1.2442   48.7510 H   0  0  0  0  0  0  0  0  0  0  0  0
    6.9677    1.0931   47.9550 H   0  0  0  0  0  0  0  0  0  0  0  0
    5.9252    0.0653   49.9317 H   0  0  0  0  0  0  0  0  0  0  0  0
    9.8433   -2.5045   56.8559 H   0  0  0  0  0  0  0  0  0  0  0  0
    9.9445   -3.1898   55.2003 H   0  0  0  0  0  0  0  0  0  0  0  0
   10.4571   -5.3926   56.1185 H   0  0  0  0  0  0  0  0  0  0  0  0
   13.1385   -4.9196   58.1884 H   0  0  0  0  0  0  0  0  0  0  0  0
   10.9067   -2.9758   59.1999 H   0  0  0  0  0  0  0  0  0  0  0  0
    9.3060   -4.7479   58.6907 H   0  0  0  0  0  0  0  0  0  0  0  0
   12.2401   -1.1391   57.5098 H   0  0  0  0  0  0  0  0  0  0  0  0
   17.1261   -4.7024   60.2880 H   0  0  0  0  0  0  0  0  0  0  0  0
    9.3431   -2.8621   53.8768 H   0  0  0  0  0  0  0  0  0  0  0  0
    8.7618   -3.4751   52.4224 H   0  0  0  0  0  0  0  0  0  0  0  0
    9.7983   -2.1504   52.4224 H   0  0  0  0  0  0  0  0  0  0  0  0
   18.0168   -0.1904   60.0977 H   0  0  0  0  0  0  0  0  0  0  0  0
   16.6195    0.6066   59.3263 H   0  0  0  0  0  0  0  0  0  0  0  0
    8.9534    1.1498   46.5083 H   0  0  0  0  0  0  0  0  0  0  0  0
   11.2230   -3.8680   61.0312 H   0  0  0  0  0  0  0  0  0  0  0  0
   10.6320   -6.5007   59.4055 H   0  0  0  0  0  0  0  0  0  0  0  0
  1  2  1  0
  1  9  1  0
  1 20  1  0
  2  3  1  0
  3  4  2  0
  3  8  1  0
  4  5  1  0
  5  6  2  0
  6  7  1  0
  6 26  1  0
  7  8  2  0
  9 27  2  0
  9 28  1  0
 11 10  1  0
 10 31  1  0
 11 14  1  0
 11 32  1  0
 12 13  1  0
 12 21  1  0
 12 32  1  0
 13 14  1  0
 13 33  1  0
 14 34  1  0
 15 21  1  0
 15 22  2  0
 16 17  2  0
 16 19  1  0
 16 22  1  0
 17 23  1  0
 17 24  1  0
 18 24  2  0
 18 25  1  0
 19 21  1  0
 19 25  2  0
 28 35  1  0
 35 29  1  1
 30 35  2  0
 31 35  1  0
  1 36  1  1
  2 37  1  0
  2 38  1  0
  4 39  1  0
  5 40  1  0
  7 41  1  0
  8 42  1  0
 10 43  1  0
 10 44  1  0
 11 45  1  6
 12 46  1  6
 13 47  1  1
 14 48  1  1
 15 49  1  0
 18 50  1  0
 20 51  1  0
 20 52  1  0
 20 53  1  0
 23 54  1  0
 23 55  1  0
 26 56  1  0
 33 57  1  0
 34 58  1  0
M  CHG  2  20   1  29  -1
M  END
>  <filename_input>  (5) 
7ROR_69X_docked.sdf

>  <pdb_id>  (5) 
7ROR_69X

>  <pose_rank>  (5) 
4

>  <num_atoms_heavy>  (5) 
35

>  <num_torsions>  (5) 
9

>  <pose>  (5) 
[9.70103236818548, -3.411390024247992, 56.24986100598266, -0.06506865552978089, -0.3741720179785602, -0.43582703267164136, -2.1206073103272334, -0.14610299453988787, -7.373644008233539, 6.350539042109358, -1.920957797736064, 13.566578874846664, -13.792215808229171, -0.07222825013291413, -4.3209712463507985]

>  <energy>  (5) 
-785.0653135292272

>  <inter_energy>  (5) 
-807.7328057372222

>  <intra_energy>  (5) 
27.156427599733014

>  <rmsd>  (5) 
3.69922

>  <sdf_rank>  (5) 
0

$$$$

     RDKit          3D

 58 61  0  0  0  0  0  0  0  0999 V2000
    7.0477    1.7527   58.2500 C   0  0  1  0  0  0  0  0  0  0  0  0
    8.5447    1.8316   58.6787 C   0  0  0  0  0  0  0  0  0  0  0  0
    8.9372    3.1426   59.2269 C   0  0  0  0  0  0  0  0  0  0  0  0
    9.5878    3.2742   60.4917 C   0  0  0  0  0  0  0  0  0  0  0  0
    9.9944    4.5233   60.9907 C   0  0  0  0  0  0  0  0  0  0  0  0
    9.7741    5.7163   60.2473 C   0  0  0  0  0  0  0  0  0  0  0  0
    9.0964    5.6115   58.9676 C   0  0  0  0  0  0  0  0  0  0  0  0
    8.7333    4.3572   58.5039 C   0  0  0  0  0  0  0  0  0  0  0  0
    6.7319    0.2793   58.0126 C   0  0  0  0  0  0  0  0  0  0  0  0
    9.7756   -1.3432   56.2436 C   0  0  0  0  0  0  0  0  0  0  0  0
   11.0599   -2.1388   56.0440 C   0  0  2  0  0  0  0  0  0  0  0  0
   11.4191   -4.1731   57.1657 C   0  0  2  0  0  0  0  0  0  0  0  0
   10.5245   -4.4920   55.9513 C   0  0  1  0  0  0  0  0  0  0  0  0
   10.8778   -3.3554   55.0056 C   0  0  2  0  0  0  0  0  0  0  0  0
    9.5919   -4.9008   58.8147 C   0  0  0  0  0  0  0  0  0  0  0  0
   10.8464   -6.0940   60.2318 C   0  0  0  0  0  0  0  0  0  0  0  0
   11.4187   -6.9164   61.2586 C   0  0  0  0  0  0  0  0  0  0  0  0
   13.5593   -6.6247   60.1832 C   0  0  0  0  0  0  0  0  0  0  0  0
   11.7041   -5.5944   59.2351 C   0  0  0  0  0  0  0  0  0  0  0  0
    6.1182    2.3380   59.2605 N   0  0  0  0  0  0  0  0  0  0  0  0
   10.9417   -4.8469   58.3091 N   0  0  0  0  0  0  0  0  0  0  0  0
    9.5294   -5.6517   59.9515 N   0  0  0  0  0  0  0  0  0  0  0  0
   10.7051   -7.4781   62.2894 N   0  0  0  0  0  0  0  0  0  0  0  0
   12.8015   -7.1667   61.1943 N   0  0  0  0  0  0  0  0  0  0  0  0
   13.1123   -5.8349   59.1768 N   0  0  0  0  0  0  0  0  0  0  0  0
   10.1408    6.9321   60.7296 O   0  0  0  0  0  0  0  0  0  0  0  0
    5.8735   -0.3482   58.5108 O   0  0  0  0  0  0  0  0  0  0  0  0
    7.5948   -0.2996   57.1933 O   0  0  0  0  0  0  0  0  0  0  0  0
    6.4146   -1.0995   55.0061 O   0  0  0  0  0  0  0  0  0  0  0  0
    6.8859   -2.7749   57.0190 O   0  0  0  0  0  0  0  0  0  0  0  0
    8.7773   -1.9023   55.4934 O   0  0  0  0  0  0  0  0  0  0  0  0
   11.3769   -2.7922   57.3061 O   0  0  0  0  0  0  0  0  0  0  0  0
   10.8037   -5.8208   55.4040 O   0  0  0  0  0  0  0  0  0  0  0  0
   12.1078   -3.5084   54.3346 O   0  0  0  0  0  0  0  0  0  0  0  0
    7.1725   -1.6100   56.1561 P   0  0  2  0  0  0  0  0  0  0  0  0
    6.8987    2.3510   57.3391 H   0  0  0  0  0  0  0  0  0  0  0  0
    8.7265    1.0656   59.4470 H   0  0  0  0  0  0  0  0  0  0  0  0
    9.1470    1.6693   57.7727 H   0  0  0  0  0  0  0  0  0  0  0  0
    9.7760    2.3720   61.0923 H   0  0  0  0  0  0  0  0  0  0  0  0
   10.4905    4.5797   61.9709 H   0  0  0  0  0  0  0  0  0  0  0  0
    8.8750    6.5123   58.3764 H   0  0  0  0  0  0  0  0  0  0  0  0
    8.2571    4.2928   57.5145 H   0  0  0  0  0  0  0  0  0  0  0  0
    9.4921   -1.3631   57.3063 H   0  0  0  0  0  0  0  0  0  0  0  0
    9.9344   -0.3012   55.9287 H   0  0  0  0  0  0  0  0  0  0  0  0
   11.8221   -1.4342   55.6799 H   0  0  0  0  0  0  0  0  0  0  0  0
   12.4568   -4.5119   57.0300 H   0  0  0  0  0  0  0  0  0  0  0  0
    9.4486   -4.5423   56.1746 H   0  0  0  0  0  0  0  0  0  0  0  0
   10.1223   -3.2547   54.2124 H   0  0  0  0  0  0  0  0  0  0  0  0
    8.7295   -4.4035   58.3466 H   0  0  0  0  0  0  0  0  0  0  0  0
   14.6349   -6.8551   60.1920 H   0  0  0  0  0  0  0  0  0  0  0  0
    6.4607    2.1223   60.2076 H   0  0  0  0  0  0  0  0  0  0  0  0
    6.0744    3.3595   59.1356 H   0  0  0  0  0  0  0  0  0  0  0  0
    5.1781    1.9362   59.1356 H   0  0  0  0  0  0  0  0  0  0  0  0
   11.1852   -8.0588   62.9917 H   0  0  0  0  0  0  0  0  0  0  0  0
    9.6900   -7.3187   62.3599 H   0  0  0  0  0  0  0  0  0  0  0  0
    9.9766    7.7476   60.1928 H   0  0  0  0  0  0  0  0  0  0  0  0
   10.9383   -6.4618   56.1463 H   0  0  0  0  0  0  0  0  0  0  0  0
   12.8367   -3.5991   54.9983 H   0  0  0  0  0  0  0  0  0  0  0  0
  1  2  1  0
  1  9  1  0
  1 20  1  0
  2  3  1  0
  3  4  2  0
  3  8  1  0
  4  5  1  0
  5  6  2  0
  6  7  1  0
  6 26  1  0
  7  8  2  0
  9 27  2  0
  9 28  1  0
 11 10  1  0
 10 31  1  0
 11 14  1  0
 11 32  1  0
 12 13  1  0
 12 21  1  0
 12 32  1  0
 13 14  1  0
 13 33  1  0
 14 34  1  0
 15 21  1  0
 15 22  2  0
 16 17  2  0
 16 19  1  0
 16 22  1  0
 17 23  1  0
 17 24  1  0
 18 24  2  0
 18 25  1  0
 19 21  1  0
 19 25  2  0
 28 35  1  0
 35 29  1  6
 30 35  2  0
 31 35  1  0
  1 36  1  6
  2 37  1  0
  2 38  1  0
  4 39  1  0
  5 40  1  0
  7 41  1  0
  8 42  1  0
 10 43  1  0
 10 44  1  0
 11 45  1  6
 12 46  1  6
 13 47  1  1
 14 48  1  6
 15 49  1  0
 18 50  1  0
 20 51  1  0
 20 52  1  0
 20 53  1  0
 23 54  1  0
 23 55  1  0
 26 56  1  0
 33 57  1  0
 34 58  1  0
M  CHG  2  20   1  29  -1
M  END
>  <filename_input>  (6) 
7ROR_69X_docked.sdf

>  <pdb_id>  (6) 
7ROR_69X

>  <pose_rank>  (6) 
5

>  <num_atoms_heavy>  (6) 
35

>  <num_torsions>  (6) 
9

>  <pose>  (6) 
[9.775613425647245, -1.3431741036009883, 56.243603413139475, 0.9980345997791358, -0.3786764334066552, -0.19826179319574194, -19.895854956452247, 6.546789692414465, -13.476717048222142, 30.577245186773865, -6.146408472645768, 13.419388771576157, -5.6966477680814815, 6.618268615245473, -2.9367750900119964]

>  <energy>  (6) 
-786.1861907538232

>  <inter_energy>  (6) 
-799.5958453030884

>  <intra_energy>  (6) 
13.032208602998615

>  <rmsd>  (6) 
6.25116

>  <sdf_rank>  (6) 
0

$$$$

     RDKit          3D

 58 61  0  0  0  0  0  0  0  0999 V2000
    6.0851   -1.4826   52.5573 C   0  0  1  0  0  0  0  0  0  0  0  0
    6.2671   -2.4834   53.7390 C   0  0  0  0  0  0  0  0  0  0  0  0
    5.0296   -3.1915   54.1134 C   0  0  0  0  0  0  0  0  0  0  0  0
    3.8088   -2.4998   54.3814 C   0  0  0  0  0  0  0  0  0  0  0  0
    2.6230   -3.1833   54.6996 C   0  0  0  0  0  0  0  0  0  0  0  0
    2.5912   -4.6042   54.7650 C   0  0  0  0  0  0  0  0  0  0  0  0
    3.8239   -5.3298   54.5166 C   0  0  0  0  0  0  0  0  0  0  0  0
    4.9644   -4.6164   54.1840 C   0  0  0  0  0  0  0  0  0  0  0  0
    7.3499   -0.6318   52.4985 C   0  0  0  0  0  0  0  0  0  0  0  0
    9.9371   -3.1619   54.5243 C   0  0  0  0  0  0  0  0  0  0  0  0
    8.9373   -3.8575   55.4400 C   0  0  2  0  0  0  0  0  0  0  0  0
    9.6111   -4.8035   57.4838 C   0  0  2  0  0  0  0  0  0  0  0  0
    9.4408   -3.2917   57.7334 C   0  0  1  0  0  0  0  0  0  0  0  0
    8.4457   -2.9138   56.6481 C   0  0  2  0  0  0  0  0  0  0  0  0
   12.1233   -5.3268   57.5325 C   0  0  0  0  0  0  0  0  0  0  0  0
   12.2755   -6.1476   59.6082 C   0  0  0  0  0  0  0  0  0  0  0  0
   12.6348   -6.6846   60.8892 C   0  0  0  0  0  0  0  0  0  0  0  0
   10.3192   -6.4721   61.5348 C   0  0  0  0  0  0  0  0  0  0  0  0
   10.9284   -5.8043   59.3935 C   0  0  0  0  0  0  0  0  0  0  0  0
    5.8403   -2.1596   51.2498 N   0  0  0  0  0  0  0  0  0  0  0  0
   10.7962   -5.2645   58.0939 N   0  0  0  0  0  0  0  0  0  0  0  0
   13.0080   -5.8403   58.4345 N   0  0  0  0  0  0  0  0  0  0  0  0
   13.9087   -7.0570   61.2439 N   0  0  0  0  0  0  0  0  0  0  0  0
   11.6109   -6.8285   61.8430 N   0  0  0  0  0  0  0  0  0  0  0  0
    9.8836   -5.9643   60.3563 N   0  0  0  0  0  0  0  0  0  0  0  0
    1.4572   -5.2753   55.0951 O   0  0  0  0  0  0  0  0  0  0  0  0
    7.4732    0.4155   51.9819 O   0  0  0  0  0  0  0  0  0  0  0  0
    8.3902   -1.2288   53.0574 O   0  0  0  0  0  0  0  0  0  0  0  0
   10.8763   -1.4663   52.2963 O   0  0  0  0  0  0  0  0  0  0  0  0
    8.8948   -2.6063   50.9344 O   0  0  0  0  0  0  0  0  0  0  0  0
    9.6741   -3.5046   53.2260 O   0  0  0  0  0  0  0  0  0  0  0  0
    9.6314   -4.9524   56.1033 O   0  0  0  0  0  0  0  0  0  0  0  0
    8.9652   -3.0144   59.0899 O   0  0  0  0  0  0  0  0  0  0  0  0
    7.1096   -3.2667   56.9255 O   0  0  0  0  0  0  0  0  0  0  0  0
    9.5642   -2.1114   52.1552 P   0  0  2  0  0  0  0  0  0  0  0  0
    5.1909   -0.8676   52.7365 H   0  0  0  0  0  0  0  0  0  0  0  0
    7.0201   -3.2307   53.4481 H   0  0  0  0  0  0  0  0  0  0  0  0
    6.5767   -1.8935   54.6143 H   0  0  0  0  0  0  0  0  0  0  0  0
    3.7967   -1.4008   54.3375 H   0  0  0  0  0  0  0  0  0  0  0  0
    1.7054   -2.6111   54.9010 H   0  0  0  0  0  0  0  0  0  0  0  0
    3.8521   -6.4270   54.5911 H   0  0  0  0  0  0  0  0  0  0  0  0
    5.8792   -5.1847   53.9598 H   0  0  0  0  0  0  0  0  0  0  0  0
    9.8471   -2.0719   54.6422 H   0  0  0  0  0  0  0  0  0  0  0  0
   10.9584   -3.4736   54.7885 H   0  0  0  0  0  0  0  0  0  0  0  0
    8.0831   -4.1578   54.8155 H   0  0  0  0  0  0  0  0  0  0  0  0
    8.7973   -5.4009   57.9207 H   0  0  0  0  0  0  0  0  0  0  0  0
   10.3727   -2.7098   57.6789 H   0  0  0  0  0  0  0  0  0  0  0  0
    8.4336   -1.8256   56.4873 H   0  0  0  0  0  0  0  0  0  0  0  0
   12.3863   -5.0038   56.5144 H   0  0  0  0  0  0  0  0  0  0  0  0
    9.5648   -6.6131   62.3228 H   0  0  0  0  0  0  0  0  0  0  0  0
    5.4947   -3.1153   51.4175 H   0  0  0  0  0  0  0  0  0  0  0  0
    5.1378   -1.6294   50.7149 H   0  0  0  0  0  0  0  0  0  0  0  0
    6.7195   -2.2014   50.7149 H   0  0  0  0  0  0  0  0  0  0  0  0
   14.0915   -7.4358   62.1841 H   0  0  0  0  0  0  0  0  0  0  0  0
   14.6809   -6.9575   60.5696 H   0  0  0  0  0  0  0  0  0  0  0  0
    1.4609   -6.2645   55.1338 H   0  0  0  0  0  0  0  0  0  0  0  0
    9.6052   -3.3875   59.7466 H   0  0  0  0  0  0  0  0  0  0  0  0
    6.9743   -3.3024   57.9055 H   0  0  0  0  0  0  0  0  0  0  0  0
  1  2  1  0
  1  9  1  0
  1 20  1  0
  2  3  1  0
  3  4  2  0
  3  8  1  0
  4  5  1  0
  5  6  2  0
  6  7  1  0
  6 26  1  0
  7  8  2  0
  9 27  2  0
  9 28  1  0
 11 10  1  0
 10 31  1  0
 11 14  1  0
 11 32  1  0
 12 13  1  0
 12 21  1  0
 12 32  1  0
 13 14  1  0
 13 33  1  0
 14 34  1  0
 15 21  1  0
 15 22  2  0
 16 17  2  0
 16 19  1  0
 16 22  1  0
 17 23  1  0
 17 24  1  0
 18 24  2  0
 18 25  1  0
 19 21  1  0
 19 25  2  0
 28 35  1  0
 35 29  1  6
 30 35  2  0
 31 35  1  0
  1 36  1  1
  2 37  1  0
  2 38  1  0
  4 39  1  0
  5 40  1  0
  7 41  1  0
  8 42  1  0
 10 43  1  0
 10 44  1  0
 11 45  1  6
 12 46  1  1
 13 47  1  6
 14 48  1  6
 15 49  1  0
 18 50  1  0
 20 51  1  0
 20 52  1  0
 20 53  1  0
 23 54  1  0
 23 55  1  0
 26 56  1  0
 33 57  1  0
 34 58  1  0
M  CHG  2  20   1  29  -1
M  END
>  <filename_input>  (7) 
7ROR_69X_docked.sdf

>  <pdb_id>  (7) 
7ROR_69X

>  <pose_rank>  (7) 
6

>  <num_atoms_heavy>  (7) 
35

>  <num_torsions>  (7) 
9

>  <pose>  (7) 
[9.937105580621756, -3.161882350041491, 54.52426044044945, -0.19784218590201944, -2.0043469201307462, -0.728347716464926, 2.759973587364256, -0.4501305183579271, -1.3167663870294608, -2.0777680296421646, 0.8509062030963161, -1.1274877531751886, 1.8948519294176747, -0.09283057065618515, 0.2242622048996824]

>  <energy>  (7) 
-635.1090955539272

>  <inter_energy>  (7) 
-649.7832544624073

>  <intra_energy>  (7) 
16.426869168429647

>  <rmsd>  (7) 
5.00709

>  <sdf_rank>  (7) 
0

$$$$

     RDKit          3D

 58 61  0  0  0  0  0  0  0  0999 V2000
    8.3263   -1.5529   52.1722 C   0  0  1  0  0  0  0  0  0  0  0  0
    6.8762   -1.0340   52.4147 C   0  0  0  0  0  0  0  0  0  0  0  0
    6.0712   -1.9073   53.2880 C   0  0  0  0  0  0  0  0  0  0  0  0
    5.6702   -3.2194   52.8903 C   0  0  0  0  0  0  0  0  0  0  0  0
    4.9364   -4.0615   53.7428 C   0  0  0  0  0  0  0  0  0  0  0  0
    4.5631   -3.6371   55.0485 C   0  0  0  0  0  0  0  0  0  0  0  0
    4.9413   -2.2999   55.4692 C   0  0  0  0  0  0  0  0  0  0  0  0
    5.6842   -1.5120   54.6047 C   0  0  0  0  0  0  0  0  0  0  0  0
    9.0830   -1.3838   53.4859 C   0  0  0  0  0  0  0  0  0  0  0  0
    8.9009   -4.1039   55.0971 C   0  0  0  0  0  0  0  0  0  0  0  0
    8.1496   -4.7457   56.2571 C   0  0  2  0  0  0  0  0  0  0  0  0
    9.0985   -4.8674   58.4043 C   0  0  2  0  0  0  0  0  0  0  0  0
    8.5241   -3.4443   58.2569 C   0  0  1  0  0  0  0  0  0  0  0  0
    7.4418   -3.6593   57.2113 C   0  0  2  0  0  0  0  0  0  0  0  0
   11.4042   -3.8185   58.8178 C   0  0  0  0  0  0  0  0  0  0  0  0
   12.2365   -5.3364   60.2351 C   0  0  0  0  0  0  0  0  0  0  0  0
   12.9781   -6.1436   61.1607 C   0  0  0  0  0  0  0  0  0  0  0  0
   11.0878   -7.6418   61.2401 C   0  0  0  0  0  0  0  0  0  0  0  0
   10.9426   -5.7608   59.8824 C   0  0  0  0  0  0  0  0  0  0  0  0
    8.3705   -2.9727   51.7139 N   0  0  0  0  0  0  0  0  0  0  0  0
   10.3767   -4.8145   58.9982 N   0  0  0  0  0  0  0  0  0  0  0  0
   12.5072   -4.1193   59.5614 N   0  0  0  0  0  0  0  0  0  0  0  0
   14.2464   -5.8516   61.6007 N   0  0  0  0  0  0  0  0  0  0  0  0
   12.3556   -7.3053   61.6524 N   0  0  0  0  0  0  0  0  0  0  0  0
   10.3142   -6.9493   60.3692 N   0  0  0  0  0  0  0  0  0  0  0  0
    3.8332   -4.4326   55.8729 O   0  0  0  0  0  0  0  0  0  0  0  0
    8.8486   -0.6150   54.3420 O   0  0  0  0  0  0  0  0  0  0  0  0
   10.1364   -2.1801   53.5716 O   0  0  0  0  0  0  0  0  0  0  0  0
   10.4198   -1.6232   56.1064 O   0  0  0  0  0  0  0  0  0  0  0  0
   12.3720   -2.7770   54.7141 O   0  0  0  0  0  0  0  0  0  0  0  0
   10.2355   -4.0570   55.3946 O   0  0  0  0  0  0  0  0  0  0  0  0
    9.1312   -5.3902   57.1182 O   0  0  0  0  0  0  0  0  0  0  0  0
    8.0179   -2.9275   59.5296 O   0  0  0  0  0  0  0  0  0  0  0  0
    6.2601   -4.2520   57.7001 O   0  0  0  0  0  0  0  0  0  0  0  0
   10.9624   -2.4904   55.0523 P   0  0  2  0  0  0  0  0  0  0  0  0
    8.7889   -0.9724   51.3604 H   0  0  0  0  0  0  0  0  0  0  0  0
    6.9369   -0.0390   52.8799 H   0  0  0  0  0  0  0  0  0  0  0  0
    6.3758   -1.0103   51.4354 H   0  0  0  0  0  0  0  0  0  0  0  0
    5.9437   -3.5808   51.8880 H   0  0  0  0  0  0  0  0  0  0  0  0
    4.6461   -5.0640   53.3954 H   0  0  0  0  0  0  0  0  0  0  0  0
    4.6432   -1.9189   56.4571 H   0  0  0  0  0  0  0  0  0  0  0  0
    5.9962   -0.5172   54.9554 H   0  0  0  0  0  0  0  0  0  0  0  0
    8.7482   -4.7000   54.1853 H   0  0  0  0  0  0  0  0  0  0  0  0
    8.5236   -3.0838   54.9325 H   0  0  0  0  0  0  0  0  0  0  0  0
    7.3984   -5.4205   55.8206 H   0  0  0  0  0  0  0  0  0  0  0  0
    8.4894   -5.5059   59.0611 H   0  0  0  0  0  0  0  0  0  0  0  0
    9.2587   -2.6815   57.9597 H   0  0  0  0  0  0  0  0  0  0  0  0
    7.1276   -2.7028   56.7681 H   0  0  0  0  0  0  0  0  0  0  0  0
   11.3108   -2.9356   58.1683 H   0  0  0  0  0  0  0  0  0  0  0  0
   10.6591   -8.5643   61.6585 H   0  0  0  0  0  0  0  0  0  0  0  0
    8.3900   -3.5973   52.5326 H   0  0  0  0  0  0  0  0  0  0  0  0
    7.5355   -3.1764   51.1464 H   0  0  0  0  0  0  0  0  0  0  0  0
    9.2167   -3.1241   51.1464 H   0  0  0  0  0  0  0  0  0  0  0  0
   14.7175   -6.4796   62.2674 H   0  0  0  0  0  0  0  0  0  0  0  0
   14.7260   -5.0046   61.2639 H   0  0  0  0  0  0  0  0  0  0  0  0
    3.5861   -4.1142   56.7771 H   0  0  0  0  0  0  0  0  0  0  0  0
    8.4716   -3.3907   60.2778 H   0  0  0  0  0  0  0  0  0  0  0  0
    6.2728   -4.2457   58.6900 H   0  0  0  0  0  0  0  0  0  0  0  0
  1  2  1  0
  1  9  1  0
  1 20  1  0
  2  3  1  0
  3  4  2  0
  3  8  1  0
  4  5  1  0
  5  6  2  0
  6  7  1  0
  6 26  1  0
  7  8  2  0
  9 27  2  0
  9 28  1  0
 11 10  1  0
 10 31  1  0
 11 14  1  0
 11 32  1  0
 12 13  1  0
 12 21  1  0
 12 32  1  0
 13 14  1  0
 13 33  1  0
 14 34  1  0
 15 21  1  0
 15 22  2  0
 16 17  2  0
 16 19  1  0
 16 22  1  0
 17 23  1  0
 17 24  1  0
 18 24  2  0
 18 25  1  0
 19 21  1  0
 19 25  2  0
 28 35  1  0
 35 29  1  1
 30 35  2  0
 31 35  1  0
  1 36  1  6
  2 37  1  0
  2 38  1  0
  4 39  1  0
  5 40  1  0
  7 41  1  0
  8 42  1  0
 10 43  1  0
 10 44  1  0
 11 45  1  6
 12 46  1  1
 13 47  1  6
 14 48  1  6
 15 49  1  0
 18 50  1  0
 20 51  1  0
 20 52  1  0
 20 53  1  0
 23 54  1  0
 23 55  1  0
 26 56  1  0
 33 57  1  0
 34 58  1  0
M  CHG  2  20   1  29  -1
M  END
>  <filename_input>  (8) 
7ROR_69X_docked.sdf

>  <pdb_id>  (8) 
7ROR_69X

>  <pose_rank>  (8) 
7

>  <num_atoms_heavy>  (8) 
35

>  <num_torsions>  (8) 
9

>  <pose>  (8) 
[8.9008673678256, -4.103851916141301, 55.09706508379738, 1.0914347748787216, -2.157341323850117, 1.9730838995890403, -5.608435073639576, 0.48391978198173385, -5.912083793953117, 10.721127081641106, -7.600331937664349, 0.5856376935972437, -2.0336495938112806, 2.02533414235129, -0.04763740673003175]

>  <energy>  (8) 
-661.560835512533

>  <inter_energy>  (8) 
-741.7076785510894

>  <intra_energy>  (8) 
82.54117259627931

>  <rmsd>  (8) 
4.64113

>  <sdf_rank>  (8) 
0

$$$$

     RDKit          3D

 58 61  0  0  0  0  0  0  0  0999 V2000
    5.1715   -3.5880   53.6290 C   0  0  1  0  0  0  0  0  0  0  0  0
    4.3742   -2.4545   54.3436 C   0  0  0  0  0  0  0  0  0  0  0  0
    5.0558   -1.9063   55.5302 C   0  0  0  0  0  0  0  0  0  0  0  0
    6.2257   -1.0932   55.4274 C   0  0  0  0  0  0  0  0  0  0  0  0
    6.8479   -0.5414   56.5601 C   0  0  0  0  0  0  0  0  0  0  0  0
    6.3302   -0.7711   57.8654 C   0  0  0  0  0  0  0  0  0  0  0  0
    5.1534   -1.6110   57.9983 C   0  0  0  0  0  0  0  0  0  0  0  0
    4.5591   -2.1156   56.8527 C   0  0  0  0  0  0  0  0  0  0  0  0
    6.2489   -2.9098   52.7886 C   0  0  0  0  0  0  0  0  0  0  0  0
   10.1132   -3.1112   55.0002 C   0  0  0  0  0  0  0  0  0  0  0  0
    9.2460   -4.0819   55.7926 C   0  0  2  0  0  0  0  0  0  0  0  0
   10.0251   -5.0683   57.7790 C   0  0  2  0  0  0  0  0  0  0  0  0
    9.5362   -3.6546   58.1519 C   0  0  1  0  0  0  0  0  0  0  0  0
    8.5252   -3.3812   57.0501 C   0  0  2  0  0  0  0  0  0  0  0  0
   12.5770   -4.9190   58.0093 C   0  0  0  0  0  0  0  0  0  0  0  0
   12.8386   -6.1393   59.8662 C   0  0  0  0  0  0  0  0  0  0  0  0
   13.2630   -6.8521   61.0366 C   0  0  0  0  0  0  0  0  0  0  0  0
   10.9484   -7.4059   61.4368 C   0  0  0  0  0  0  0  0  0  0  0  0
   11.4631   -6.1161   59.5730 C   0  0  0  0  0  0  0  0  0  0  0  0
    5.7780   -4.5656   54.5799 N   0  0  0  0  0  0  0  0  0  0  0  0
   11.2566   -5.3374   58.4117 N   0  0  0  0  0  0  0  0  0  0  0  0
   13.5192   -5.3841   58.8788 N   0  0  0  0  0  0  0  0  0  0  0  0
   14.5688   -6.9547   61.4508 N   0  0  0  0  0  0  0  0  0  0  0  0
   12.2694   -7.4778   61.8113 N   0  0  0  0  0  0  0  0  0  0  0  0
   10.4534   -6.7644   60.3505 N   0  0  0  0  0  0  0  0  0  0  0  0
    6.9364   -0.2633   58.9699 O   0  0  0  0  0  0  0  0  0  0  0  0
    6.0881   -2.2671   51.8191 O   0  0  0  0  0  0  0  0  0  0  0  0
    7.4711   -3.1674   53.2255 O   0  0  0  0  0  0  0  0  0  0  0  0
    8.3077   -0.7493   52.7068 O   0  0  0  0  0  0  0  0  0  0  0  0
    9.8399   -2.8751   52.2441 O   0  0  0  0  0  0  0  0  0  0  0  0
    9.3606   -2.0282   54.6356 O   0  0  0  0  0  0  0  0  0  0  0  0
   10.1269   -5.0732   56.3940 O   0  0  0  0  0  0  0  0  0  0  0  0
    8.9636   -3.6146   59.4986 O   0  0  0  0  0  0  0  0  0  0  0  0
    7.2819   -4.0232   57.2191 O   0  0  0  0  0  0  0  0  0  0  0  0
    8.8050   -2.1068   52.9667 P   0  0  2  0  0  0  0  0  0  0  0  0
    4.4838   -4.1789   53.0062 H   0  0  0  0  0  0  0  0  0  0  0  0
    4.2153   -1.6364   53.6257 H   0  0  0  0  0  0  0  0  0  0  0  0
    3.4295   -2.8974   54.6921 H   0  0  0  0  0  0  0  0  0  0  0  0
    6.6518   -0.8933   54.4332 H   0  0  0  0  0  0  0  0  0  0  0  0
    7.7487    0.0774   56.4359 H   0  0  0  0  0  0  0  0  0  0  0  0
    4.7407   -1.8428   58.9913 H   0  0  0  0  0  0  0  0  0  0  0  0
    3.6453   -2.7166   56.9696 H   0  0  0  0  0  0  0  0  0  0  0  0
   10.9571   -2.7796   55.6229 H   0  0  0  0  0  0  0  0  0  0  0  0
   10.4995   -3.6119   54.1002 H   0  0  0  0  0  0  0  0  0  0  0  0
    8.4962   -4.4861   55.0966 H   0  0  0  0  0  0  0  0  0  0  0  0
    9.3372   -5.8584   58.1145 H   0  0  0  0  0  0  0  0  0  0  0  0
   10.3287   -2.8934   58.2020 H   0  0  0  0  0  0  0  0  0  0  0  0
    8.2939   -2.3077   56.9862 H   0  0  0  0  0  0  0  0  0  0  0  0
   12.7946   -4.3075   57.1211 H   0  0  0  0  0  0  0  0  0  0  0  0
   10.2214   -7.9198   62.0829 H   0  0  0  0  0  0  0  0  0  0  0  0
    5.5913   -4.2647   55.5472 H   0  0  0  0  0  0  0  0  0  0  0  0
    5.3660   -5.4967   54.4244 H   0  0  0  0  0  0  0  0  0  0  0  0
    6.7952   -4.6099   54.4244 H   0  0  0  0  0  0  0  0  0  0  0  0
   14.7985   -7.4845   62.3037 H   0  0  0  0  0  0  0  0  0  0  0  0
   15.3182   -6.5019   60.9083 H   0  0  0  0  0  0  0  0  0  0  0  0
    6.5563   -0.4374   59.8673 H   0  0  0  0  0  0  0  0  0  0  0  0
    9.6911   -3.6654   60.1682 H   0  0  0  0  0  0  0  0  0  0  0  0
    7.0903   -4.1222   58.1853 H   0  0  0  0  0  0  0  0  0  0  0  0
  1  2  1  0
  1  9  1  0
  1 20  1  0
  2  3  1  0
  3  4  2  0
  3  8  1  0
  4  5  1  0
  5  6  2  0
  6  7  1  0
  6 26  1  0
  7  8  2  0
  9 27  2  0
  9 28  1  0
 11 10  1  0
 10 31  1  0
 11 14  1  0
 11 32  1  0
 12 13  1  0
 12 21  1  0
 12 32  1  0
 13 14  1  0
 13 33  1  0
 14 34  1  0
 15 21  1  0
 15 22  2  0
 16 17  2  0
 16 19  1  0
 16 22  1  0
 17 23  1  0
 17 24  1  0
 18 24  2  0
 18 25  1  0
 19 21  1  0
 19 25  2  0
 28 35  1  0
 35 29  1  6
 30 35  2  0
 31 35  1  0
  1 36  1  6
  2 37  1  0
  2 38  1  0
  4 39  1  0
  5 40  1  0
  7 41  1  0
  8 42  1  0
 10 43  1  0
 10 44  1  0
 11 45  1  6
 12 46  1  6
 13 47  1  1
 14 48  1  6
 15 49  1  0
 18 50  1  0
 20 51  1  0
 20 52  1  0
 20 53  1  0
 23 54  1  0
 23 55  1  0
 26 56  1  0
 33 57  1  0
 34 58  1  0
M  CHG  2  20   1  29  -1
M  END
>  <filename_input>  (9) 
7ROR_69X_docked.sdf

>  <pdb_id>  (9) 
7ROR_69X

>  <pose_rank>  (9) 
8

>  <num_atoms_heavy>  (9) 
35

>  <num_torsions>  (9) 
9

>  <pose>  (9) 
[10.113177687382022, -3.1111947384898113, 55.00018047902746, -0.46704871589127056, -0.6604367264684616, -1.6664800720195754, -2.0164578055876605, -0.2932822577064117, 0.9486571799981498, 0.25727581864537863, -0.8132579880328891, 0.7870215407999487, -2.8114639509993617, -4.406082436961536, -3.922212820176934]

>  <energy>  (9) 
-713.931125484326

>  <inter_energy>  (9) 
-765.1798344100747

>  <intra_energy>  (9) 
54.159231403286135

>  <rmsd>  (9) 
4.95536

>  <sdf_rank>  (9) 
0

$$$$

     RDKit          3D

 58 61  0  0  0  0  0  0  0  0999 V2000
    3.6821   -6.7852   56.5548 C   0  0  1  0  0  0  0  0  0  0  0  0
    3.7159   -6.9955   58.0994 C   0  0  0  0  0  0  0  0  0  0  0  0
    2.7820   -8.0308   58.5783 C   0  0  0  0  0  0  0  0  0  0  0  0
    1.4153   -7.7426   58.8774 C   0  0  0  0  0  0  0  0  0  0  0  0
    0.5206   -8.7420   59.2960 C   0  0  0  0  0  0  0  0  0  0  0  0
    0.9445  -10.0928   59.4369 C   0  0  0  0  0  0  0  0  0  0  0  0
    2.3341  -10.4080   59.1585 C   0  0  0  0  0  0  0  0  0  0  0  0
    3.1758   -9.3955   58.7264 C   0  0  0  0  0  0  0  0  0  0  0  0
    3.6977   -5.2792   56.3122 C   0  0  0  0  0  0  0  0  0  0  0  0
    7.6056   -3.6322   56.4016 C   0  0  0  0  0  0  0  0  0  0  0  0
    8.7517   -2.7508   55.9201 C   0  0  2  0  0  0  0  0  0  0  0  0
   10.9704   -3.1747   56.5708 C   0  0  2  0  0  0  0  0  0  0  0  0
   10.6588   -4.1430   55.4124 C   0  0  1  0  0  0  0  0  0  0  0  0
    9.5518   -3.3993   54.6828 C   0  0  2  0  0  0  0  0  0  0  0  0
   13.0413   -3.7229   57.9845 C   0  0  0  0  0  0  0  0  0  0  0  0
   12.1520   -5.2715   59.3324 C   0  0  0  0  0  0  0  0  0  0  0  0
   11.8195   -6.2601   60.3174 C   0  0  0  0  0  0  0  0  0  0  0  0
    9.5742   -6.2661   59.4327 C   0  0  0  0  0  0  0  0  0  0  0  0
   11.1359   -4.8481   58.4566 C   0  0  0  0  0  0  0  0  0  0  0  0
    4.8183   -7.4476   55.8492 N   0  0  0  0  0  0  0  0  0  0  0  0
   11.6578   -3.8539   57.5982 N   0  0  0  0  0  0  0  0  0  0  0  0
   13.3357   -4.5558   59.0236 N   0  0  0  0  0  0  0  0  0  0  0  0
   12.7039   -6.7622   61.2410 N   0  0  0  0  0  0  0  0  0  0  0  0
   10.4959   -6.7360   60.3383 N   0  0  0  0  0  0  0  0  0  0  0  0
    9.7942   -5.3419   58.4662 N   0  0  0  0  0  0  0  0  0  0  0  0
    0.0953  -11.0633   59.8639 O   0  0  0  0  0  0  0  0  0  0  0  0
    2.7783   -4.5494   56.3422 O   0  0  0  0  0  0  0  0  0  0  0  0
    4.8976   -4.8306   55.9802 O   0  0  0  0  0  0  0  0  0  0  0  0
    4.0952   -2.3463   55.9565 O   0  0  0  0  0  0  0  0  0  0  0  0
    5.8243   -3.2616   54.1529 O   0  0  0  0  0  0  0  0  0  0  0  0
    6.4980   -2.8569   56.6122 O   0  0  0  0  0  0  0  0  0  0  0  0
    9.7394   -2.6858   56.9881 O   0  0  0  0  0  0  0  0  0  0  0  0
   11.8392   -4.3997   54.5855 O   0  0  0  0  0  0  0  0  0  0  0  0
    9.9928   -2.3312   53.8757 O   0  0  0  0  0  0  0  0  0  0  0  0
    5.1900   -3.2052   55.4863 P   0  0  2  0  0  0  0  0  0  0  0  0
    2.7748   -7.2524   56.1443 H   0  0  0  0  0  0  0  0  0  0  0  0
    4.7363   -7.2885   58.3875 H   0  0  0  0  0  0  0  0  0  0  0  0
    3.4056   -6.0458   58.5594 H   0  0  0  0  0  0  0  0  0  0  0  0
    1.0528   -6.7089   58.7771 H   0  0  0  0  0  0  0  0  0  0  0  0
   -0.5234   -8.4759   59.5181 H   0  0  0  0  0  0  0  0  0  0  0  0
    2.7122  -11.4328   59.2882 H   0  0  0  0  0  0  0  0  0  0  0  0
    4.2150   -9.6603   58.4816 H   0  0  0  0  0  0  0  0  0  0  0  0
    7.3820   -4.3934   55.6397 H   0  0  0  0  0  0  0  0  0  0  0  0
    7.8917   -4.1295   57.3401 H   0  0  0  0  0  0  0  0  0  0  0  0
    8.3147   -1.7839   55.6302 H   0  0  0  0  0  0  0  0  0  0  0  0
   11.6276   -2.3464   56.2676 H   0  0  0  0  0  0  0  0  0  0  0  0
   10.3582   -5.1533   55.7272 H   0  0  0  0  0  0  0  0  0  0  0  0
    9.0063   -4.0724   54.0050 H   0  0  0  0  0  0  0  0  0  0  0  0
   13.7615   -3.0432   57.5058 H   0  0  0  0  0  0  0  0  0  0  0  0
    8.5578   -6.6813   59.4992 H   0  0  0  0  0  0  0  0  0  0  0  0
    5.4763   -7.8312   56.5426 H   0  0  0  0  0  0  0  0  0  0  0  0
    4.4578   -8.2110   55.2590 H   0  0  0  0  0  0  0  0  0  0  0  0
    5.3050   -6.7579   55.2590 H   0  0  0  0  0  0  0  0  0  0  0  0
   12.3926   -7.4722   61.9192 H   0  0  0  0  0  0  0  0  0  0  0  0
   13.6784   -6.4287   61.2552 H   0  0  0  0  0  0  0  0  0  0  0  0
    0.4147  -11.9961   59.9537 H   0  0  0  0  0  0  0  0  0  0  0  0
   12.6205   -4.5695   55.1692 H   0  0  0  0  0  0  0  0  0  0  0  0
   10.3000   -1.5871   54.4519 H   0  0  0  0  0  0  0  0  0  0  0  0
  1  2  1  0
  1  9  1  0
  1 20  1  0
  2  3  1  0
  3  4  2  0
  3  8  1  0
  4  5  1  0
  5  6  2  0
  6  7  1  0
  6 26  1  0
  7  8  2  0
  9 27  2  0
  9 28  1  0
 11 10  1  0
 10 31  1  0
 11 14  1  0
 11 32  1  0
 12 13  1  0
 12 21  1  0
 12 32  1  0
 13 14  1  0
 13 33  1  0
 14 34  1  0
 15 21  1  0
 15 22  2  0
 16 17  2  0
 16 19  1  0
 16 22  1  0
 17 23  1  0
 17 24  1  0
 18 24  2  0
 18 25  1  0
 19 21  1  0
 19 25  2  0
 28 35  1  0
 35 29  1  6
 30 35  2  0
 31 35  1  0
  1 36  1  6
  2 37  1  0
  2 38  1  0
  4 39  1  0
  5 40  1  0
  7 41  1  0
  8 42  1  0
 10 43  1  0
 10 44  1  0
 11 45  1  6
 12 46  1  6
 13 47  1  1
 14 48  1  6
 15 49  1  0
 18 50  1  0
 20 51  1  0
 20 52  1  0
 20 53  1  0
 23 54  1  0
 23 55  1  0
 26 56  1  0
 33 57  1  0
 34 58  1  0
M  CHG  2  20   1  29  -1
M  END
>  <filename_input>  (10) 
7ROR_69X_docked.sdf

>  <pdb_id>  (10) 
7ROR_69X

>  <pose_rank>  (10) 
9

>  <num_atoms_heavy>  (10) 
35

>  <num_torsions>  (10) 
9

>  <pose>  (10) 
[7.605565302155229, -3.6321540559707426, 56.40162096699491, 3.2407486696750696, 0.284877481061814, -0.8032647689177002, 2.848063638592756, -3.2682231518277094, -1.6075957142950044, -0.03324927870691339, -0.8371341302328223, 0.21150299886361942, -3.034330352658865, -0.6443942244539564, -0.377518449329035]

>  <energy>  (10) 
-637.5552327016061

>  <inter_energy>  (10) 
-658.562718490945

>  <intra_energy>  (10) 
30.923746870664097

>  <rmsd>  (10) 
7.75632

>  <sdf_rank>  (10) 
0

$$$$

     RDKit          3D

 58 61  0  0  0  0  0  0  0  0999 V2000
   10.4827   -2.5929   57.7080 C   0  0  1  0  0  0  0  0  0  0  0  0
   11.9159   -3.1739   57.5090 C   0  0  0  0  0  0  0  0  0  0  0  0
   12.2617   -4.2418   58.4646 C   0  0  0  0  0  0  0  0  0  0  0  0
   12.8130   -3.9612   59.7521 C   0  0  0  0  0  0  0  0  0  0  0  0
   13.1039   -4.9815   60.6734 C   0  0  0  0  0  0  0  0  0  0  0  0
   12.8557   -6.3465   60.3576 C   0  0  0  0  0  0  0  0  0  0  0  0
   12.3144   -6.6597   59.0473 C   0  0  0  0  0  0  0  0  0  0  0  0
   12.0214   -5.6203   58.1790 C   0  0  0  0  0  0  0  0  0  0  0  0
   10.1778   -1.7364   56.4830 C   0  0  0  0  0  0  0  0  0  0  0  0
    9.8547   -2.7107   51.8402 C   0  0  0  0  0  0  0  0  0  0  0  0
    8.9260   -1.9067   50.9384 C   0  0  2  0  0  0  0  0  0  0  0  0
    6.6417   -1.6723   51.4416 C   0  0  2  0  0  0  0  0  0  0  0  0
    7.3918   -0.6432   52.3107 C   0  0  1  0  0  0  0  0  0  0  0  0
    8.6564   -0.4210   51.4968 C   0  0  2  0  0  0  0  0  0  0  0  0
    4.3007   -2.6472   51.8369 C   0  0  0  0  0  0  0  0  0  0  0  0
    4.5691   -3.3776   53.9346 C   0  0  0  0  0  0  0  0  0  0  0  0
    4.4951   -3.9443   55.2505 C   0  0  0  0  0  0  0  0  0  0  0  0
    6.7870   -3.2647   55.5816 C   0  0  0  0  0  0  0  0  0  0  0  0
    5.7836   -2.7878   53.5400 C   0  0  0  0  0  0  0  0  0  0  0  0
    9.4434   -3.6487   57.8887 N   0  0  0  0  0  0  0  0  0  0  0  0
    5.6572   -2.3284   52.2093 N   0  0  0  0  0  0  0  0  0  0  0  0
    3.6543   -3.2821   52.8564 N   0  0  0  0  0  0  0  0  0  0  0  0
    3.3804   -4.5575   55.7688 N   0  0  0  0  0  0  0  0  0  0  0  0
    5.6471   -3.8709   56.0545 N   0  0  0  0  0  0  0  0  0  0  0  0
    6.9505   -2.6984   54.3613 N   0  0  0  0  0  0  0  0  0  0  0  0
   13.1550   -7.3436   61.2302 O   0  0  0  0  0  0  0  0  0  0  0  0
    9.3283   -0.9327   56.3769 O   0  0  0  0  0  0  0  0  0  0  0  0
   10.9550   -2.0286   55.4526 O   0  0  0  0  0  0  0  0  0  0  0  0
    9.4601   -4.0699   54.8088 O   0  0  0  0  0  0  0  0  0  0  0  0
   11.8381   -3.6824   53.6793 O   0  0  0  0  0  0  0  0  0  0  0  0
    9.7967   -2.2074   53.1112 O   0  0  0  0  0  0  0  0  0  0  0  0
    7.6165   -2.5426   50.9715 O   0  0  0  0  0  0  0  0  0  0  0  0
    6.6033    0.5730   52.5161 O   0  0  0  0  0  0  0  0  0  0  0  0
    8.4946    0.4153   50.3738 O   0  0  0  0  0  0  0  0  0  0  0  0
   10.5686   -3.2511   54.3005 P   0  0  2  0  0  0  0  0  0  0  0  0
   10.4565   -1.9997   58.6340 H   0  0  0  0  0  0  0  0  0  0  0  0
   11.9859   -3.5836   56.4905 H   0  0  0  0  0  0  0  0  0  0  0  0
   12.6232   -2.3490   57.6798 H   0  0  0  0  0  0  0  0  0  0  0  0
   13.0157   -2.9164   60.0304 H   0  0  0  0  0  0  0  0  0  0  0  0
   13.5299   -4.7211   61.6535 H   0  0  0  0  0  0  0  0  0  0  0  0
   12.1400   -7.7040   58.7491 H   0  0  0  0  0  0  0  0  0  0  0  0
   11.5745   -5.8735   57.2063 H   0  0  0  0  0  0  0  0  0  0  0  0
    9.5389   -3.7644   51.8472 H   0  0  0  0  0  0  0  0  0  0  0  0
   10.8857   -2.6422   51.4629 H   0  0  0  0  0  0  0  0  0  0  0  0
    9.3981   -1.8638   49.9458 H   0  0  0  0  0  0  0  0  0  0  0  0
    6.1058   -1.2083   50.6005 H   0  0  0  0  0  0  0  0  0  0  0  0
    7.5991   -0.9751   53.3388 H   0  0  0  0  0  0  0  0  0  0  0  0
    9.4378    0.0560   52.1067 H   0  0  0  0  0  0  0  0  0  0  0  0
    3.8486   -2.4104   50.8625 H   0  0  0  0  0  0  0  0  0  0  0  0
    7.6517   -3.2366   56.2609 H   0  0  0  0  0  0  0  0  0  0  0  0
    9.2868   -3.8078   58.8942 H   0  0  0  0  0  0  0  0  0  0  0  0
    8.5637   -3.3435   57.4483 H   0  0  0  0  0  0  0  0  0  0  0  0
    9.7624   -4.5235   57.4483 H   0  0  0  0  0  0  0  0  0  0  0  0
    3.4015   -4.9421   56.7241 H   0  0  0  0  0  0  0  0  0  0  0  0
    2.5236   -4.6328   55.2021 H   0  0  0  0  0  0  0  0  0  0  0  0
   12.9726   -8.2857   60.9868 H   0  0  0  0  0  0  0  0  0  0  0  0
    6.4968    0.7372   53.4866 H   0  0  0  0  0  0  0  0  0  0  0  0
    8.3155    1.3412   50.6749 H   0  0  0  0  0  0  0  0  0  0  0  0
  1  2  1  0
  1  9  1  0
  1 20  1  0
  2  3  1  0
  3  4  2  0
  3  8  1  0
  4  5  1  0
  5  6  2  0
  6  7  1  0
  6 26  1  0
  7  8  2  0
  9 27  2  0
  9 28  1  0
 11 10  1  0
 10 31  1  0
 11 14  1  0
 11 32  1  0
 12 13  1  0
 12 21  1  0
 12 32  1  0
 13 14  1  0
 13 33  1  0
 14 34  1  0
 15 21  1  0
 15 22  2  0
 16 17  2  0
 16 19  1  0
 16 22  1  0
 17 23  1  0
 17 24  1  0
 18 24  2  0
 18 25  1  0
 19 21  1  0
 19 25  2  0
 28 35  1  0
 35 29  1  1
 30 35  2  0
 31 35  1  0
  1 36  1  1
  2 37  1  0
  2 38  1  0
  4 39  1  0
  5 40  1  0
  7 41  1  0
  8 42  1  0
 10 43  1  0
 10 44  1  0
 11 45  1  6
 12 46  1  6
 13 47  1  1
 14 48  1  1
 15 49  1  0
 18 50  1  0
 20 51  1  0
 20 52  1  0
 20 53  1  0
 23 54  1  0
 23 55  1  0
 26 56  1  0
 33 57  1  0
 34 58  1  0
M  CHG  2  20   1  29  -1
M  END
>  <filename_input>  (11) 
7ROR_69X_docked.sdf

>  <pdb_id>  (11) 
7ROR_69X

>  <pose_rank>  (11) 
10

>  <num_atoms_heavy>  (11) 
35

>  <num_torsions>  (11) 
9

>  <pose>  (11) 
[9.854679195527385, -2.710706301439624, 51.840187255707384, -1.46662279577109, -0.6639358223865434, 2.712977168955884, -0.6473425022143954, -2.781576680644126, -0.646120422893533, 1.5449457202040813, -1.4164909001702464, -1.2775744687525907, 1.8322844510747247, 0.32315632735408395, -0.3866532646205783]

>  <energy>  (11) 
-600.192412846094

>  <inter_energy>  (11) 
-697.6732800935972

>  <intra_energy>  (11) 
81.33160471611482

>  <rmsd>  (11) 
8.83594

>  <sdf_rank>  (11) 
0

$$$$

     RDKit          3D

 58 61  0  0  0  0  0  0  0  0999 V2000
    4.3156   -9.5650   54.5470 C   0  0  1  0  0  0  0  0  0  0  0  0
    3.1374  -10.3853   55.1552 C   0  0  0  0  0  0  0  0  0  0  0  0
    2.3056  -11.0670   54.1469 C   0  0  0  0  0  0  0  0  0  0  0  0
    1.4774  -10.3479   53.2318 C   0  0  0  0  0  0  0  0  0  0  0  0
    0.7172  -11.0019   52.2475 C   0  0  0  0  0  0  0  0  0  0  0  0
    0.7452  -12.4188   52.1212 C   0  0  0  0  0  0  0  0  0  0  0  0
    1.5636  -13.1742   53.0526 C   0  0  0  0  0  0  0  0  0  0  0  0
    2.3146  -12.4868   53.9926 C   0  0  0  0  0  0  0  0  0  0  0  0
    4.9416   -8.7736   55.6910 C   0  0  0  0  0  0  0  0  0  0  0  0
    5.6655   -3.8642   55.1010 C   0  0  0  0  0  0  0  0  0  0  0  0
    7.1388   -3.9046   54.7135 C   0  0  2  0  0  0  0  0  0  0  0  0
    8.0463   -2.3408   53.2112 C   0  0  2  0  0  0  0  0  0  0  0  0
    7.9837   -1.6456   54.5858 C   0  0  1  0  0  0  0  0  0  0  0  0
    8.0221   -2.8355   55.5312 C   0  0  2  0  0  0  0  0  0  0  0  0
    6.3045   -0.8368   52.0748 C   0  0  0  0  0  0  0  0  0  0  0  0
    7.5094   -0.1653   50.3133 C   0  0  0  0  0  0  0  0  0  0  0  0
    8.0708    0.4185   49.1291 C   0  0  0  0  0  0  0  0  0  0  0  0
   10.1113   -0.7782   49.6070 C   0  0  0  0  0  0  0  0  0  0  0  0
    8.3221   -1.0295   51.0692 C   0  0  0  0  0  0  0  0  0  0  0  0
    5.3367  -10.4197   53.8727 N   0  0  0  0  0  0  0  0  0  0  0  0
    7.5979   -1.4619   52.2033 N   0  0  0  0  0  0  0  0  0  0  0  0
    6.2522   -0.0553   50.9582 N   0  0  0  0  0  0  0  0  0  0  0  0
    7.4004    1.2834   48.2986 N   0  0  0  0  0  0  0  0  0  0  0  0
    9.3993    0.0852   48.8083 N   0  0  0  0  0  0  0  0  0  0  0  0
    9.6672   -1.3816   50.7363 N   0  0  0  0  0  0  0  0  0  0  0  0
   -0.0037  -13.0642   51.1896 O   0  0  0  0  0  0  0  0  0  0  0  0
    5.0466   -9.1132   56.8102 O   0  0  0  0  0  0  0  0  0  0  0  0
    5.3300   -7.5644   55.3194 O   0  0  0  0  0  0  0  0  0  0  0  0
    5.6959   -5.6803   57.0892 O   0  0  0  0  0  0  0  0  0  0  0  0
    3.2748   -6.2329   56.1334 O   0  0  0  0  0  0  0  0  0  0  0  0
    5.0650   -5.0309   54.7134 O   0  0  0  0  0  0  0  0  0  0  0  0
    7.2445   -3.4686   53.3282 O   0  0  0  0  0  0  0  0  0  0  0  0
    9.0937   -0.7096   54.7731 O   0  0  0  0  0  0  0  0  0  0  0  0
    9.2983   -3.4076   55.7063 O   0  0  0  0  0  0  0  0  0  0  0  0
    4.7464   -6.1209   56.0588 P   0  0  2  0  0  0  0  0  0  0  0  0
    3.9282   -8.9017   53.7597 H   0  0  0  0  0  0  0  0  0  0  0  0
    3.5562  -11.1454   55.8311 H   0  0  0  0  0  0  0  0  0  0  0  0
    2.4855   -9.6706   55.6789 H   0  0  0  0  0  0  0  0  0  0  0  0
    1.4336   -9.2509   53.2995 H   0  0  0  0  0  0  0  0  0  0  0  0
    0.0910  -10.4094   51.5642 H   0  0  0  0  0  0  0  0  0  0  0  0
    1.5871  -14.2732   53.0127 H   0  0  0  0  0  0  0  0  0  0  0  0
    2.9597  -13.0728   54.6637 H   0  0  0  0  0  0  0  0  0  0  0  0
    5.5752   -3.7487   56.1911 H   0  0  0  0  0  0  0  0  0  0  0  0
    5.1762   -3.0142   54.6030 H   0  0  0  0  0  0  0  0  0  0  0  0
    7.4955   -4.9266   54.9087 H   0  0  0  0  0  0  0  0  0  0  0  0
    9.0693   -2.6270   52.9256 H   0  0  0  0  0  0  0  0  0  0  0  0
    7.1001   -1.0083   54.7380 H   0  0  0  0  0  0  0  0  0  0  0  0
    7.6896   -2.5475   56.5394 H   0  0  0  0  0  0  0  0  0  0  0  0
    5.4726   -0.9720   52.7817 H   0  0  0  0  0  0  0  0  0  0  0  0
   11.1434   -1.0012   49.2989 H   0  0  0  0  0  0  0  0  0  0  0  0
    5.9079  -10.8980   54.5839 H   0  0  0  0  0  0  0  0  0  0  0  0
    4.8635  -11.1204   53.2844 H   0  0  0  0  0  0  0  0  0  0  0  0
    5.9432   -9.8307   53.2844 H   0  0  0  0  0  0  0  0  0  0  0  0
    7.8693    1.6635   47.4640 H   0  0  0  0  0  0  0  0  0  0  0  0
    6.4288    1.5517   48.5104 H   0  0  0  0  0  0  0  0  0  0  0  0
    0.0334  -14.0512   51.1218 H   0  0  0  0  0  0  0  0  0  0  0  0
    9.2526   -0.5756   55.7410 H   0  0  0  0  0  0  0  0  0  0  0  0
    9.4912   -3.4941   56.6735 H   0  0  0  0  0  0  0  0  0  0  0  0
  1  2  1  0
  1  9  1  0
  1 20  1  0
  2  3  1  0
  3  4  2  0
  3  8  1  0
  4  5  1  0
  5  6  2  0
  6  7  1  0
  6 26  1  0
  7  8  2  0
  9 27  2  0
  9 28  1  0
 11 10  1  0
 10 31  1  0
 11 14  1  0
 11 32  1  0
 12 13  1  0
 12 21  1  0
 12 32  1  0
 13 14  1  0
 13 33  1  0
 14 34  1  0
 15 21  1  0
 15 22  2  0
 16 17  2  0
 16 19  1  0
 16 22  1  0
 17 23  1  0
 17 24  1  0
 18 24  2  0
 18 25  1  0
 19 21  1  0
 19 25  2  0
 28 35  1  0
 35 29  1  1
 30 35  2  0
 31 35  1  0
  1 36  1  6
  2 37  1  0
  2 38  1  0
  4 39  1  0
  5 40  1  0
  7 41  1  0
  8 42  1  0
 10 43  1  0
 10 44  1  0
 11 45  1  6
 12 46  1  6
 13 47  1  6
 14 48  1  1
 15 49  1  0
 18 50  1  0
 20 51  1  0
 20 52  1  0
 20 53  1  0
 23 54  1  0
 23 55  1  0
 26 56  1  0
 33 57  1  0
 34 58  1  0
M  CHG  2  20   1  29  -1
M  END
>  <filename_input>  (12) 
7ROR_69X_docked.sdf

>  <pdb_id>  (12) 
7ROR_69X

>  <pose_rank>  (12) 
11

>  <num_atoms_heavy>  (12) 
35

>  <num_torsions>  (12) 
9

>  <pose>  (12) 
[5.665541578669763, -3.8642460598082873, 55.10096052058489, -5.145176264593798, -0.4746354684346163, -1.6255416504397568, 2.403429620146691, 0.05973878055298318, -1.7516722351873053, 2.794572429470176, -5.801466240208682, -0.6889259076913136, -0.9939825762477833, -0.022498697170640247, -0.06342362798191752]

>  <energy>  (12) 
-631.3331355918351

>  <inter_energy>  (12) 
-630.4712388132843

>  <intra_energy>  (12) 
2.7701733174332372

>  <rmsd>  (12) 
10.1583

>  <sdf_rank>  (12) 
0

$$$$

     RDKit          3D

 58 61  0  0  0  0  0  0  0  0999 V2000
    4.1263   -7.0426   56.9731 C   0  0  1  0  0  0  0  0  0  0  0  0
    3.9908   -8.2392   55.9826 C   0  0  0  0  0  0  0  0  0  0  0  0
    4.4384   -9.5273   56.5427 C   0  0  0  0  0  0  0  0  0  0  0  0
    5.1414  -10.4937   55.7603 C   0  0  0  0  0  0  0  0  0  0  0  0
    5.5996  -11.7028   56.3106 C   0  0  0  0  0  0  0  0  0  0  0  0
    5.3814  -12.0130   57.6818 C   0  0  0  0  0  0  0  0  0  0  0  0
    4.6514  -11.0560   58.4937 C   0  0  0  0  0  0  0  0  0  0  0  0
    4.2379   -9.8665   57.9155 C   0  0  0  0  0  0  0  0  0  0  0  0
    4.6541   -5.8589   56.1685 C   0  0  0  0  0  0  0  0  0  0  0  0
    6.7961   -2.4800   55.4639 C   0  0  0  0  0  0  0  0  0  0  0  0
    7.8382   -3.4740   54.9658 C   0  0  2  0  0  0  0  0  0  0  0  0
    9.0939   -3.0517   53.0239 C   0  0  2  0  0  0  0  0  0  0  0  0
    9.7664   -2.2609   54.1637 C   0  0  1  0  0  0  0  0  0  0  0  0
    9.3366   -3.0594   55.3837 C   0  0  2  0  0  0  0  0  0  0  0  0
    9.9599   -2.1405   50.7863 C   0  0  0  0  0  0  0  0  0  0  0  0
    8.2772   -0.7511   50.2929 C   0  0  0  0  0  0  0  0  0  0  0  0
    7.3294    0.1777   49.7475 C   0  0  0  0  0  0  0  0  0  0  0  0
    5.9547   -0.2111   51.6925 C   0  0  0  0  0  0  0  0  0  0  0  0
    7.9727   -1.3524   51.5275 C   0  0  0  0  0  0  0  0  0  0  0  0
    2.8417   -6.6940   57.6485 N   0  0  0  0  0  0  0  0  0  0  0  0
    9.0088   -2.2528   51.8648 N   0  0  0  0  0  0  0  0  0  0  0  0
    9.5224   -1.2572   49.8437 N   0  0  0  0  0  0  0  0  0  0  0  0
    7.4881    0.8347   48.5514 N   0  0  0  0  0  0  0  0  0  0  0  0
    6.1584    0.4203   50.4882 N   0  0  0  0  0  0  0  0  0  0  0  0
    6.7904   -1.0954   52.2892 N   0  0  0  0  0  0  0  0  0  0  0  0
    5.7981  -13.1888   58.2196 O   0  0  0  0  0  0  0  0  0  0  0  0
    5.6481   -5.8159   55.5449 O   0  0  0  0  0  0  0  0  0  0  0  0
    3.8883   -4.7857   56.2819 O   0  0  0  0  0  0  0  0  0  0  0  0
    3.5464   -2.1975   56.2722 O   0  0  0  0  0  0  0  0  0  0  0  0
    4.5104   -3.4762   54.1471 O   0  0  0  0  0  0  0  0  0  0  0  0
    5.9133   -3.1258   56.2860 O   0  0  0  0  0  0  0  0  0  0  0  0
    7.8455   -3.4165   53.5109 O   0  0  0  0  0  0  0  0  0  0  0  0
   11.2182   -2.1863   53.9910 O   0  0  0  0  0  0  0  0  0  0  0  0
   10.0516   -4.2573   55.5853 O   0  0  0  0  0  0  0  0  0  0  0  0
    4.3001   -3.2600   55.5937 P   0  0  2  0  0  0  0  0  0  0  0  0
    4.8143   -7.3195   57.7855 H   0  0  0  0  0  0  0  0  0  0  0  0
    2.9332   -8.3342   55.6958 H   0  0  0  0  0  0  0  0  0  0  0  0
    4.6414   -8.0196   55.1232 H   0  0  0  0  0  0  0  0  0  0  0  0
    5.3295  -10.2856   54.6967 H   0  0  0  0  0  0  0  0  0  0  0  0
    6.1351  -12.4203   55.6714 H   0  0  0  0  0  0  0  0  0  0  0  0
    4.4304  -11.2714   59.5495 H   0  0  0  0  0  0  0  0  0  0  0  0
    3.7217   -9.1358   58.5555 H   0  0  0  0  0  0  0  0  0  0  0  0
    7.2945   -1.6731   56.0211 H   0  0  0  0  0  0  0  0  0  0  0  0
    6.2561   -2.0511   54.6069 H   0  0  0  0  0  0  0  0  0  0  0  0
    7.5782   -4.4542   55.3920 H   0  0  0  0  0  0  0  0  0  0  0  0
    9.6656   -3.9446   52.7309 H   0  0  0  0  0  0  0  0  0  0  0  0
    9.4740   -1.2021   54.2223 H   0  0  0  0  0  0  0  0  0  0  0  0
    9.4778   -2.4758   56.3054 H   0  0  0  0  0  0  0  0  0  0  0  0
   10.9097   -2.6926   50.7315 H   0  0  0  0  0  0  0  0  0  0  0  0
    5.0211    0.0249   52.2242 H   0  0  0  0  0  0  0  0  0  0  0  0
    2.9703   -6.7289   58.6698 H   0  0  0  0  0  0  0  0  0  0  0  0
    2.5544   -5.7446   57.3708 H   0  0  0  0  0  0  0  0  0  0  0  0
    2.1139   -7.3679   57.3708 H   0  0  0  0  0  0  0  0  0  0  0  0
    6.7635    1.4889   48.2231 H   0  0  0  0  0  0  0  0  0  0  0  0
    8.3318    0.6730   47.9831 H   0  0  0  0  0  0  0  0  0  0  0  0
    5.6342  -13.3811   59.1768 H   0  0  0  0  0  0  0  0  0  0  0  0
   11.6554   -2.1639   54.8790 H   0  0  0  0  0  0  0  0  0  0  0  0
   10.1506   -4.4232   56.5563 H   0  0  0  0  0  0  0  0  0  0  0  0
  1  2  1  0
  1  9  1  0
  1 20  1  0
  2  3  1  0
  3  4  2  0
  3  8  1  0
  4  5  1  0
  5  6  2  0
  6  7  1  0
  6 26  1  0
  7  8  2  0
  9 27  2  0
  9 28  1  0
 11 10  1  0
 10 31  1  0
 11 14  1  0
 11 32  1  0
 12 13  1  0
 12 21  1  0
 12 32  1  0
 13 14  1  0
 13 33  1  0
 14 34  1  0
 15 21  1  0
 15 22  2  0
 16 17  2  0
 16 19  1  0
 16 22  1  0
 17 23  1  0
 17 24  1  0
 18 24  2  0
 18 25  1  0
 19 21  1  0
 19 25  2  0
 28 35  1  0
 35 29  1  6
 30 35  2  0
 31 35  1  0
  1 36  1  1
  2 37  1  0
  2 38  1  0
  4 39  1  0
  5 40  1  0
  7 41  1  0
  8 42  1  0
 10 43  1  0
 10 44  1  0
 11 45  1  6
 12 46  1  6
 13 47  1  1
 14 48  1  1
 15 49  1  0
 18 50  1  0
 20 51  1  0
 20 52  1  0
 20 53  1  0
 23 54  1  0
 23 55  1  0
 26 56  1  0
 33 57  1  0
 34 58  1  0
M  CHG  2  20   1  29  -1
M  END
>  <filename_input>  (13) 
7ROR_69X_docked.sdf

>  <pdb_id>  (13) 
7ROR_69X

>  <pose_rank>  (13) 
12

>  <num_atoms_heavy>  (13) 
35

>  <num_torsions>  (13) 
9

>  <pose>  (13) 
[6.796091583335687, -2.480046150521399, 55.46393076260573, -0.15580935204455207, -4.532146279904022, 3.573795846511354, -3.1685802355873958, 2.701264351797328, 0.7527206060100464, 1.4109501072113229, 2.2978251477662432, 0.23538443864114986, -2.5976962198851417, -0.6073514633672005, -1.3550133431219016]

>  <energy>  (13) 
-618.729655302313

>  <inter_energy>  (13) 
-656.6440027008573

>  <intra_energy>  (13) 
38.73068374676102

>  <rmsd>  (13) 
9.77964

>  <sdf_rank>  (13) 
0

$$$$

     RDKit          3D

 58 61  0  0  0  0  0  0  0  0999 V2000
    7.9194    1.0553   58.8843 C   0  0  1  0  0  0  0  0  0  0  0  0
    6.9666    2.2876   58.8146 C   0  0  0  0  0  0  0  0  0  0  0  0
    7.5142    3.4985   59.4528 C   0  0  0  0  0  0  0  0  0  0  0  0
    8.0228    4.5954   58.6922 C   0  0  0  0  0  0  0  0  0  0  0  0
    8.5072    5.7629   59.3061 C   0  0  0  0  0  0  0  0  0  0  0  0
    8.5075    5.9001   60.7222 C   0  0  0  0  0  0  0  0  0  0  0  0
    8.0144    4.7908   61.5187 C   0  0  0  0  0  0  0  0  0  0  0  0
    7.5251    3.6679   60.8708 C   0  0  0  0  0  0  0  0  0  0  0  0
    7.6754    0.2347   57.6218 C   0  0  0  0  0  0  0  0  0  0  0  0
    6.9436   -3.9226   56.5958 C   0  0  0  0  0  0  0  0  0  0  0  0
    8.0503   -4.3201   55.6265 C   0  0  2  0  0  0  0  0  0  0  0  0
    8.6279   -2.9471   53.8080 C   0  0  2  0  0  0  0  0  0  0  0  0
    9.3335   -2.3581   55.0457 C   0  0  1  0  0  0  0  0  0  0  0  0
    9.4444   -3.5798   55.9435 C   0  0  2  0  0  0  0  0  0  0  0  0
    6.9033   -1.1001   53.3585 C   0  0  0  0  0  0  0  0  0  0  0  0
    7.6190   -0.4267   51.3485 C   0  0  0  0  0  0  0  0  0  0  0  0
    7.8889    0.1918   50.0825 C   0  0  0  0  0  0  0  0  0  0  0  0
    9.7479   -1.3264   49.8311 C   0  0  0  0  0  0  0  0  0  0  0  0
    8.4642   -1.4719   51.7633 C   0  0  0  0  0  0  0  0  0  0  0  0
    9.3583    1.4343   59.0005 N   0  0  0  0  0  0  0  0  0  0  0  0
    8.0517   -1.9130   53.0412 N   0  0  0  0  0  0  0  0  0  0  0  0
    6.6503   -0.2069   52.3594 N   0  0  0  0  0  0  0  0  0  0  0  0
    7.1551    1.2252   49.5525 N   0  0  0  0  0  0  0  0  0  0  0  0
    8.9844   -0.2918   49.3443 N   0  0  0  0  0  0  0  0  0  0  0  0
    9.5685   -1.9751   51.0074 N   0  0  0  0  0  0  0  0  0  0  0  0
    8.9953    7.0136   61.3283 O   0  0  0  0  0  0  0  0  0  0  0  0
    8.4457    0.0127   56.7638 O   0  0  0  0  0  0  0  0  0  0  0  0
    6.4252   -0.1880   57.5243 O   0  0  0  0  0  0  0  0  0  0  0  0
    6.3383   -1.2117   55.1242 O   0  0  0  0  0  0  0  0  0  0  0  0
    4.6709   -2.0164   57.0355 O   0  0  0  0  0  0  0  0  0  0  0  0
    7.1735   -2.6513   57.0463 O   0  0  0  0  0  0  0  0  0  0  0  0
    7.6796   -3.8309   54.3061 O   0  0  0  0  0  0  0  0  0  0  0  0
   10.6254   -1.7611   54.7027 O   0  0  0  0  0  0  0  0  0  0  0  0
   10.4732   -4.4770   55.5926 O   0  0  0  0  0  0  0  0  0  0  0  0
    5.9528   -1.5006   56.5118 P   0  0  2  0  0  0  0  0  0  0  0  0
    7.6985    0.4763   59.7931 H   0  0  0  0  0  0  0  0  0  0  0  0
    6.7674    2.5129   57.7565 H   0  0  0  0  0  0  0  0  0  0  0  0
    6.0537    2.0190   59.3663 H   0  0  0  0  0  0  0  0  0  0  0  0
    8.0355    4.5242   57.5946 H   0  0  0  0  0  0  0  0  0  0  0  0
    8.8921    6.5831   58.6823 H   0  0  0  0  0  0  0  0  0  0  0  0
    8.0291    4.8410   62.6174 H   0  0  0  0  0  0  0  0  0  0  0  0
    7.1185    2.8540   61.4890 H   0  0  0  0  0  0  0  0  0  0  0  0
    5.9726   -3.9601   56.0804 H   0  0  0  0  0  0  0  0  0  0  0  0
    6.9310   -4.6191   57.4471 H   0  0  0  0  0  0  0  0  0  0  0  0
    8.1690   -5.4110   55.7028 H   0  0  0  0  0  0  0  0  0  0  0  0
    9.3205   -3.4705   53.1325 H   0  0  0  0  0  0  0  0  0  0  0  0
    8.7997   -1.5240   55.5246 H   0  0  0  0  0  0  0  0  0  0  0  0
    9.6538   -3.2864   56.9827 H   0  0  0  0  0  0  0  0  0  0  0  0
    6.3115   -1.1887   54.2815 H   0  0  0  0  0  0  0  0  0  0  0  0
   10.5874   -1.6607   49.2039 H   0  0  0  0  0  0  0  0  0  0  0  0
    9.6163    1.5022   59.9953 H   0  0  0  0  0  0  0  0  0  0  0  0
    9.9401    0.7179   58.5431 H   0  0  0  0  0  0  0  0  0  0  0  0
    9.5117    2.3444   58.5431 H   0  0  0  0  0  0  0  0  0  0  0  0
    7.4089    1.6198   48.6356 H   0  0  0  0  0  0  0  0  0  0  0  0
    6.3512    1.6054   50.0722 H   0  0  0  0  0  0  0  0  0  0  0  0
    8.9843    7.0849   62.3157 H   0  0  0  0  0  0  0  0  0  0  0  0
   11.1151   -1.5347   55.5328 H   0  0  0  0  0  0  0  0  0  0  0  0
   10.8892   -4.8398   56.4145 H   0  0  0  0  0  0  0  0  0  0  0  0
  1  2  1  0
  1  9  1  0
  1 20  1  0
  2  3  1  0
  3  4  2  0
  3  8  1  0
  4  5  1  0
  5  6  2  0
  6  7  1  0
  6 26  1  0
  7  8  2  0
  9 27  2  0
  9 28  1  0
 11 10  1  0
 10 31  1  0
 11 14  1  0
 11 32  1  0
 12 13  1  0
 12 21  1  0
 12 32  1  0
 13 14  1  0
 13 33  1  0
 14 34  1  0
 15 21  1  0
 15 22  2  0
 16 17  2  0
 16 19  1  0
 16 22  1  0
 17 23  1  0
 17 24  1  0
 18 24  2  0
 18 25  1  0
 19 21  1  0
 19 25  2  0
 28 35  1  0
 35 29  1  6
 30 35  2  0
 31 35  1  0
  1 36  1  1
  2 37  1  0
  2 38  1  0
  4 39  1  0
  5 40  1  0
  7 41  1  0
  8 42  1  0
 10 43  1  0
 10 44  1  0
 11 45  1  6
 12 46  1  6
 13 47  1  1
 14 48  1  1
 15 49  1  0
 18 50  1  0
 20 51  1  0
 20 52  1  0
 20 53  1  0
 23 54  1  0
 23 55  1  0
 26 56  1  0
 33 57  1  0
 34 58  1  0
M  CHG  2  20   1  29  -1
M  END
>  <filename_input>  (14) 
7ROR_69X_docked.sdf

>  <pdb_id>  (14) 
7ROR_69X

>  <pose_rank>  (14) 
13

>  <num_atoms_heavy>  (14) 
35

>  <num_torsions>  (14) 
9

>  <pose>  (14) 
[6.943622283249884, -3.922606321899303, 56.595750872768, -2.2198747134969175, 1.1449624449934004, 0.9022934547814102, -0.5669807816489507, -0.12628787641469932, -1.5953080900612635, 1.8061751126239192, -2.2030759698650138, 0.6643739127487966, 0.4423372973113429, 0.6751297851192962, 2.952300781021911]

>  <energy>  (14) 
-426.3260890177057

>  <inter_energy>  (14) 
-606.6944256187974

>  <intra_energy>  (14) 
182.4446320987645

>  <rmsd>  (14) 
9.04566

>  <sdf_rank>  (14) 
0

$$$$

     RDKit          3D

 58 61  0  0  0  0  0  0  0  0999 V2000
    4.5447   -8.5715   57.4433 C   0  0  1  0  0  0  0  0  0  0  0  0
    4.7553  -10.1146   57.3685 C   0  0  0  0  0  0  0  0  0  0  0  0
    3.5283  -10.8940   57.6140 C   0  0  0  0  0  0  0  0  0  0  0  0
    3.1931  -11.3974   58.9081 C   0  0  0  0  0  0  0  0  0  0  0  0
    2.0027  -12.1060   59.1433 C   0  0  0  0  0  0  0  0  0  0  0  0
    1.0751  -12.3496   58.0923 C   0  0  0  0  0  0  0  0  0  0  0  0
    1.4023  -11.8657   56.7631 C   0  0  0  0  0  0  0  0  0  0  0  0
    2.5761  -11.1520   56.5814 C   0  0  0  0  0  0  0  0  0  0  0  0
    4.4941   -8.0610   56.0067 C   0  0  0  0  0  0  0  0  0  0  0  0
    5.2276   -3.9927   53.7770 C   0  0  0  0  0  0  0  0  0  0  0  0
    6.4952   -3.5195   54.4780 C   0  0  2  0  0  0  0  0  0  0  0  0
    8.0742   -2.1794   53.3658 C   0  0  2  0  0  0  0  0  0  0  0  0
    6.9481   -1.2362   53.8339 C   0  0  1  0  0  0  0  0  0  0  0  0
    6.3765   -2.0059   55.0137 C   0  0  2  0  0  0  0  0  0  0  0  0
    9.6154   -2.3069   51.3174 C   0  0  0  0  0  0  0  0  0  0  0  0
    8.4767   -0.9694   49.9318 C   0  0  0  0  0  0  0  0  0  0  0  0
    7.9310   -0.1819   48.8639 C   0  0  0  0  0  0  0  0  0  0  0  0
    6.1027    0.3902   50.3317 C   0  0  0  0  0  0  0  0  0  0  0  0
    7.7659   -1.0150   51.1448 C   0  0  0  0  0  0  0  0  0  0  0  0
    3.3096   -8.1851   58.1870 N   0  0  0  0  0  0  0  0  0  0  0  0
    8.4486   -1.8671   52.0424 N   0  0  0  0  0  0  0  0  0  0  0  0
    9.6291   -1.7846   50.0576 N   0  0  0  0  0  0  0  0  0  0  0  0
    8.5091   -0.0494   47.6248 N   0  0  0  0  0  0  0  0  0  0  0  0
    6.7189    0.4896   49.1066 N   0  0  0  0  0  0  0  0  0  0  0  0
    6.5420   -0.3208   51.3984 N   0  0  0  0  0  0  0  0  0  0  0  0
   -0.0674  -13.0540   58.3018 O   0  0  0  0  0  0  0  0  0  0  0  0
    5.0037   -8.5460   55.0665 O   0  0  0  0  0  0  0  0  0  0  0  0
    3.8401   -6.9159   55.8972 O   0  0  0  0  0  0  0  0  0  0  0  0
    5.9649   -5.5216   56.4948 O   0  0  0  0  0  0  0  0  0  0  0  0
    3.5875   -4.3649   56.1937 O   0  0  0  0  0  0  0  0  0  0  0  0
    4.9352   -5.2658   54.1843 O   0  0  0  0  0  0  0  0  0  0  0  0
    7.5569   -3.4629   53.4830 O   0  0  0  0  0  0  0  0  0  0  0  0
    7.4604    0.0885   54.1886 O   0  0  0  0  0  0  0  0  0  0  0  0
    7.1425   -1.9284   56.1943 O   0  0  0  0  0  0  0  0  0  0  0  0
    4.6235   -5.3806   55.9133 P   0  0  2  0  0  0  0  0  0  0  0  0
    5.3745   -8.1183   58.0055 H   0  0  0  0  0  0  0  0  0  0  0  0
    5.1309  -10.3653   56.3655 H   0  0  0  0  0  0  0  0  0  0  0  0
    5.4684  -10.3800   58.1629 H   0  0  0  0  0  0  0  0  0  0  0  0
    3.8866  -11.2254   59.7444 H   0  0  0  0  0  0  0  0  0  0  0  0
    1.7847  -12.4780   60.1552 H   0  0  0  0  0  0  0  0  0  0  0  0
    0.7300  -12.0623   55.9149 H   0  0  0  0  0  0  0  0  0  0  0  0
    2.7882  -10.7585   55.5763 H   0  0  0  0  0  0  0  0  0  0  0  0
    4.3934   -3.3236   54.0345 H   0  0  0  0  0  0  0  0  0  0  0  0
    5.3817   -3.9800   52.6879 H   0  0  0  0  0  0  0  0  0  0  0  0
    6.6774   -4.2096   55.3149 H   0  0  0  0  0  0  0  0  0  0  0  0
    8.9898   -2.0800   53.9674 H   0  0  0  0  0  0  0  0  0  0  0  0
    6.1929   -1.0076   53.0676 H   0  0  0  0  0  0  0  0  0  0  0  0
    5.3806   -1.6262   55.2855 H   0  0  0  0  0  0  0  0  0  0  0  0
   10.3895   -2.9735   51.7255 H   0  0  0  0  0  0  0  0  0  0  0  0
    5.1600    0.9426   50.4585 H   0  0  0  0  0  0  0  0  0  0  0  0
    3.4873   -8.2407   59.2000 H   0  0  0  0  0  0  0  0  0  0  0  0
    3.0457   -7.2213   57.9371 H   0  0  0  0  0  0  0  0  0  0  0  0
    2.5435   -8.8266   57.9371 H   0  0  0  0  0  0  0  0  0  0  0  0
    8.0583    0.5345   46.9060 H   0  0  0  0  0  0  0  0  0  0  0  0
    9.3933   -0.5341   47.4145 H   0  0  0  0  0  0  0  0  0  0  0  0
   -0.6969  -13.2100   57.5538 H   0  0  0  0  0  0  0  0  0  0  0  0
    7.4943    0.1762   55.1741 H   0  0  0  0  0  0  0  0  0  0  0  0
    6.5440   -1.9890   56.9805 H   0  0  0  0  0  0  0  0  0  0  0  0
  1  2  1  0
  1  9  1  0
  1 20  1  0
  2  3  1  0
  3  4  2  0
  3  8  1  0
  4  5  1  0
  5  6  2  0
  6  7  1  0
  6 26  1  0
  7  8  2  0
  9 27  2  0
  9 28  1  0
 11 10  1  0
 10 31  1  0
 11 14  1  0
 11 32  1  0
 12 13  1  0
 12 21  1  0
 12 32  1  0
 13 14  1  0
 13 33  1  0
 14 34  1  0
 15 21  1  0
 15 22  2  0
 16 17  2  0
 16 19  1  0
 16 22  1  0
 17 23  1  0
 17 24  1  0
 18 24  2  0
 18 25  1  0
 19 21  1  0
 19 25  2  0
 28 35  1  0
 35 29  1  1
 30 35  2  0
 31 35  1  0
  1 36  1  1
  2 37  1  0
  2 38  1  0
  4 39  1  0
  5 40  1  0
  7 41  1  0
  8 42  1  0
 10 43  1  0
 10 44  1  0
 11 45  1  1
 12 46  1  1
 13 47  1  6
 14 48  1  1
 15 49  1  0
 18 50  1  0
 20 51  1  0
 20 52  1  0
 20 53  1  0
 23 54  1  0
 23 55  1  0
 26 56  1  0
 33 57  1  0
 34 58  1  0
M  CHG  2  20   1  29  -1
M  END
>  <filename_input>  (15) 
7ROR_69X_docked.sdf

>  <pdb_id>  (15) 
7ROR_69X

>  <pose_rank>  (15) 
14

>  <num_atoms_heavy>  (15) 
35

>  <num_torsions>  (15) 
9

>  <pose>  (15) 
[5.227638003118616, -3.9927178647518655, 53.776975861898904, 1.2586251196340492, 2.9443818070311534, -4.363449338266157, 2.8297624579575986, -2.2629145556868675, -2.507814642426902, -4.585728450041601, -1.5217599472745822, -1.1600770585002618, 4.216583438004325, 1.4693432951800345, -0.5249523236097563]

>  <energy>  (15) 
-580.8967046141743

>  <inter_energy>  (15) 
-654.7327323806761

>  <intra_energy>  (15) 
69.7086630882068

>  <rmsd>  (15) 
10.9149

>  <sdf_rank>  (15) 
0

$$$$

     RDKit          3D

 58 61  0  0  0  0  0  0  0  0999 V2000
    7.9663   -2.1143   52.8757 C   0  0  1  0  0  0  0  0  0  0  0  0
    7.1303   -1.1028   52.0337 C   0  0  0  0  0  0  0  0  0  0  0  0
    7.7722   -0.7129   50.7652 C   0  0  0  0  0  0  0  0  0  0  0  0
    9.0918   -1.1361   50.4189 C   0  0  0  0  0  0  0  0  0  0  0  0
    9.6829   -0.7933   49.1911 C   0  0  0  0  0  0  0  0  0  0  0  0
    8.9824   -0.0062   48.2350 C   0  0  0  0  0  0  0  0  0  0  0  0
    7.6470    0.4536   48.5715 C   0  0  0  0  0  0  0  0  0  0  0  0
    7.0944    0.0728   49.7839 C   0  0  0  0  0  0  0  0  0  0  0  0
    7.8872   -1.6539   54.3279 C   0  0  0  0  0  0  0  0  0  0  0  0
    6.9632    0.3567   58.0483 C   0  0  0  0  0  0  0  0  0  0  0  0
    7.7442    1.6637   58.1120 C   0  0  2  0  0  0  0  0  0  0  0  0
    7.0924    3.4030   59.5528 C   0  0  2  0  0  0  0  0  0  0  0  0
    7.8786    2.3919   60.4109 C   0  0  1  0  0  0  0  0  0  0  0  0
    8.7534    1.7197   59.3650 C   0  0  2  0  0  0  0  0  0  0  0  0
    4.6300    3.2154   60.2519 C   0  0  0  0  0  0  0  0  0  0  0  0
    4.4871    5.0370   61.5430 C   0  0  0  0  0  0  0  0  0  0  0  0
    4.1481    6.1193   62.4217 C   0  0  0  0  0  0  0  0  0  0  0  0
    6.4170    6.9082   62.1898 C   0  0  0  0  0  0  0  0  0  0  0  0
    5.8032    4.9779   61.0499 C   0  0  0  0  0  0  0  0  0  0  0  0
    7.4906   -3.5225   52.7394 N   0  0  0  0  0  0  0  0  0  0  0  0
    5.9364    3.8266   60.2409 N   0  0  0  0  0  0  0  0  0  0  0  0
    3.7687    3.9260   61.0350 N   0  0  0  0  0  0  0  0  0  0  0  0
    2.9082    6.3018   62.9842 N   0  0  0  0  0  0  0  0  0  0  0  0
    5.1603    7.0464   62.7299 N   0  0  0  0  0  0  0  0  0  0  0  0
    6.8288    5.9278   61.3497 N   0  0  0  0  0  0  0  0  0  0  0  0
    9.5519    0.3519   47.0549 O   0  0  0  0  0  0  0  0  0  0  0  0
    8.7749   -1.2804   54.9998 O   0  0  0  0  0  0  0  0  0  0  0  0
    6.6698   -1.7727   54.8329 O   0  0  0  0  0  0  0  0  0  0  0  0
    7.3900   -2.3829   57.2671 O   0  0  0  0  0  0  0  0  0  0  0  0
    4.8723   -1.7485   56.6843 O   0  0  0  0  0  0  0  0  0  0  0  0
    6.7518    0.0208   56.7389 O   0  0  0  0  0  0  0  0  0  0  0  0
    6.7936    2.7356   58.3722 O   0  0  0  0  0  0  0  0  0  0  0  0
    8.6363    3.0539   61.4742 O   0  0  0  0  0  0  0  0  0  0  0  0
    9.8705    2.4763   58.9573 O   0  0  0  0  0  0  0  0  0  0  0  0
    6.3393   -1.6770   56.5219 P   0  0  2  0  0  0  0  0  0  0  0  0
    9.0033   -2.1225   52.5090 H   0  0  0  0  0  0  0  0  0  0  0  0
    6.1580   -1.5629   51.8036 H   0  0  0  0  0  0  0  0  0  0  0  0
    7.0303   -0.1885   52.6371 H   0  0  0  0  0  0  0  0  0  0  0  0
    9.6616   -1.7479   51.1339 H   0  0  0  0  0  0  0  0  0  0  0  0
   10.7026   -1.1387   48.9657 H   0  0  0  0  0  0  0  0  0  0  0  0
    7.0837    1.0932   47.8761 H   0  0  0  0  0  0  0  0  0  0  0  0
    6.0667    0.3968   50.0049 H   0  0  0  0  0  0  0  0  0  0  0  0
    7.5379   -0.4395   58.5439 H   0  0  0  0  0  0  0  0  0  0  0  0
    5.9964    0.4794   58.5584 H   0  0  0  0  0  0  0  0  0  0  0  0
    8.3001    1.7533   57.1671 H   0  0  0  0  0  0  0  0  0  0  0  0
    7.6662    4.3171   59.3403 H   0  0  0  0  0  0  0  0  0  0  0  0
    7.2532    1.6777   60.9666 H   0  0  0  0  0  0  0  0  0  0  0  0
    9.1644    0.7730   59.7457 H   0  0  0  0  0  0  0  0  0  0  0  0
    4.3643    2.3000   59.7029 H   0  0  0  0  0  0  0  0  0  0  0  0
    7.1620    7.6686   62.4670 H   0  0  0  0  0  0  0  0  0  0  0  0
    7.3529   -3.9305   53.6751 H   0  0  0  0  0  0  0  0  0  0  0  0
    6.5987   -3.5353   52.2246 H   0  0  0  0  0  0  0  0  0  0  0  0
    8.1922   -4.0735   52.2246 H   0  0  0  0  0  0  0  0  0  0  0  0
    2.7383    7.1042   63.6072 H   0  0  0  0  0  0  0  0  0  0  0  0
    2.1483    5.6361   62.7829 H   0  0  0  0  0  0  0  0  0  0  0  0
    9.0434    0.9002   46.4061 H   0  0  0  0  0  0  0  0  0  0  0  0
    8.2966    2.7571   62.3554 H   0  0  0  0  0  0  0  0  0  0  0  0
   10.3556    2.8049   59.7553 H   0  0  0  0  0  0  0  0  0  0  0  0
  1  2  1  0
  1  9  1  0
  1 20  1  0
  2  3  1  0
  3  4  2  0
  3  8  1  0
  4  5  1  0
  5  6  2  0
  6  7  1  0
  6 26  1  0
  7  8  2  0
  9 27  2  0
  9 28  1  0
 11 10  1  0
 10 31  1  0
 11 14  1  0
 11 32  1  0
 12 13  1  0
 12 21  1  0
 12 32  1  0
 13 14  1  0
 13 33  1  0
 14 34  1  0
 15 21  1  0
 15 22  2  0
 16 17  2  0
 16 19  1  0
 16 22  1  0
 17 23  1  0
 17 24  1  0
 18 24  2  0
 18 25  1  0
 19 21  1  0
 19 25  2  0
 28 35  1  0
 35 29  1  1
 30 35  2  0
 31 35  1  0
  1 36  1  6
  2 37  1  0
  2 38  1  0
  4 39  1  0
  5 40  1  0
  7 41  1  0
  8 42  1  0
 10 43  1  0
 10 44  1  0
 11 45  1  6
 12 46  1  6
 13 47  1  1
 14 48  1  1
 15 49  1  0
 18 50  1  0
 20 51  1  0
 20 52  1  0
 20 53  1  0
 23 54  1  0
 23 55  1  0
 26 56  1  0
 33 57  1  0
 34 58  1  0
M  CHG  2  20   1  29  -1
M  END
>  <filename_input>  (16) 
7ROR_69X_docked.sdf

>  <pdb_id>  (16) 
7ROR_69X

>  <pose_rank>  (16) 
15

>  <num_atoms_heavy>  (16) 
35

>  <num_torsions>  (16) 
9

>  <pose>  (16) 
[6.963167676308153, 0.35674572882358235, 58.048272039882306, 1.9948259369730115, 0.6188671594677458, 0.9694327775098971, -3.6195381693726625, -0.4131487138156148, 5.516322033138844, 2.2981957419890118, -1.8998438912903803, 0.07799653703851249, 2.6676910876321798, -0.626932329356592, 1.0258002346947759]

>  <energy>  (16) 
-589.6923169953423

>  <inter_energy>  (16) 
-603.568852101793

>  <intra_energy>  (16) 
14.798498590262145

>  <rmsd>  (16) 
8.09057

>  <sdf_rank>  (16) 
0

$$$$

     RDKit          3D

 58 61  0  0  0  0  0  0  0  0999 V2000
   11.0572   -2.5494   49.3057 C   0  0  1  0  0  0  0  0  0  0  0  0
   11.1536   -2.7252   47.7594 C   0  0  0  0  0  0  0  0  0  0  0  0
   11.7437   -4.0105   47.3436 C   0  0  0  0  0  0  0  0  0  0  0  0
   13.0122   -4.0896   46.6914 C   0  0  0  0  0  0  0  0  0  0  0  0
   13.5868   -5.3207   46.3329 C   0  0  0  0  0  0  0  0  0  0  0  0
   12.9226   -6.5479   46.6104 C   0  0  0  0  0  0  0  0  0  0  0  0
   11.6226   -6.4936   47.2545 C   0  0  0  0  0  0  0  0  0  0  0  0
   11.1040   -5.2590   47.6110 C   0  0  0  0  0  0  0  0  0  0  0  0
   10.0380   -1.4439   49.5632 C   0  0  0  0  0  0  0  0  0  0  0  0
    6.2959   -2.6738   52.2943 C   0  0  0  0  0  0  0  0  0  0  0  0
    5.9938   -3.2965   53.6519 C   0  0  2  0  0  0  0  0  0  0  0  0
    7.5125   -3.1207   55.4376 C   0  0  2  0  0  0  0  0  0  0  0  0
    6.7310   -1.7925   55.3920 C   0  0  1  0  0  0  0  0  0  0  0  0
    5.4395   -2.2219   54.7148 C   0  0  2  0  0  0  0  0  0  0  0  0
    9.7088   -1.8665   55.0012 C   0  0  0  0  0  0  0  0  0  0  0  0
   11.0508   -3.0091   56.3794 C   0  0  0  0  0  0  0  0  0  0  0  0
   12.0957   -3.5630   57.1915 C   0  0  0  0  0  0  0  0  0  0  0  0
   10.4776   -5.1298   58.0582 C   0  0  0  0  0  0  0  0  0  0  0  0
    9.7679   -3.5770   56.4810 C   0  0  0  0  0  0  0  0  0  0  0  0
   10.6685   -3.8043   50.0140 N   0  0  0  0  0  0  0  0  0  0  0  0
    8.8860   -2.8678   55.6343 N   0  0  0  0  0  0  0  0  0  0  0  0
   10.9943   -1.9398   55.4510 N   0  0  0  0  0  0  0  0  0  0  0  0
   13.3920   -3.1083   57.2030 N   0  0  0  0  0  0  0  0  0  0  0  0
   11.7611   -4.6374   58.0358 N   0  0  0  0  0  0  0  0  0  0  0  0
    9.4296   -4.6789   57.3269 N   0  0  0  0  0  0  0  0  0  0  0  0
   13.4566   -7.7430   46.2472 O   0  0  0  0  0  0  0  0  0  0  0  0
    9.8766   -0.4700   48.9274 O   0  0  0  0  0  0  0  0  0  0  0  0
    9.3402   -1.6440   50.6696 O   0  0  0  0  0  0  0  0  0  0  0  0
    6.8345   -1.5884   49.9385 O   0  0  0  0  0  0  0  0  0  0  0  0
    7.9232    0.4158   51.3091 O   0  0  0  0  0  0  0  0  0  0  0  0
    7.3909   -1.8608   52.4044 O   0  0  0  0  0  0  0  0  0  0  0  0
    7.2554   -3.7451   54.2241 O   0  0  0  0  0  0  0  0  0  0  0  0
    6.5351   -1.2304   56.7294 O   0  0  0  0  0  0  0  0  0  0  0  0
    4.5340   -2.9042   55.5523 O   0  0  0  0  0  0  0  0  0  0  0  0
    7.7606   -0.9989   50.9143 P   0  0  2  0  0  0  0  0  0  0  0  0
   12.0485   -2.2876   49.7041 H   0  0  0  0  0  0  0  0  0  0  0  0
   10.1397   -2.6565   47.3384 H   0  0  0  0  0  0  0  0  0  0  0  0
   11.8181   -1.9316   47.3870 H   0  0  0  0  0  0  0  0  0  0  0  0
   13.5546   -3.1602   46.4635 H   0  0  0  0  0  0  0  0  0  0  0  0
   14.5650   -5.3359   45.8300 H   0  0  0  0  0  0  0  0  0  0  0  0
   11.0590   -7.4165   47.4559 H   0  0  0  0  0  0  0  0  0  0  0  0
   10.1365   -5.2394   48.1341 H   0  0  0  0  0  0  0  0  0  0  0  0
    6.5005   -3.4691   51.5624 H   0  0  0  0  0  0  0  0  0  0  0  0
    5.4305   -2.0837   51.9583 H   0  0  0  0  0  0  0  0  0  0  0  0
    5.2501   -4.0895   53.4844 H   0  0  0  0  0  0  0  0  0  0  0  0
    7.2044   -3.7669   56.2728 H   0  0  0  0  0  0  0  0  0  0  0  0
    7.2419   -0.9776   54.8583 H   0  0  0  0  0  0  0  0  0  0  0  0
    4.8864   -1.3505   54.3344 H   0  0  0  0  0  0  0  0  0  0  0  0
    9.3483   -1.1418   54.2564 H   0  0  0  0  0  0  0  0  0  0  0  0
   10.2822   -5.9732   58.7367 H   0  0  0  0  0  0  0  0  0  0  0  0
   10.7154   -3.6528   51.0317 H   0  0  0  0  0  0  0  0  0  0  0  0
    9.7075   -4.0643   49.7495 H   0  0  0  0  0  0  0  0  0  0  0  0
   11.3142   -4.5619   49.7495 H   0  0  0  0  0  0  0  0  0  0  0  0
   14.0896   -3.5568   57.8138 H   0  0  0  0  0  0  0  0  0  0  0  0
   13.6663   -2.3190   56.6009 H   0  0  0  0  0  0  0  0  0  0  0  0
   12.9746   -8.5832   46.4519 H   0  0  0  0  0  0  0  0  0  0  0  0
    6.7715   -1.9090   57.4105 H   0  0  0  0  0  0  0  0  0  0  0  0
    4.7650   -2.7302   56.4991 H   0  0  0  0  0  0  0  0  0  0  0  0
  1  2  1  0
  1  9  1  0
  1 20  1  0
  2  3  1  0
  3  4  2  0
  3  8  1  0
  4  5  1  0
  5  6  2  0
  6  7  1  0
  6 26  1  0
  7  8  2  0
  9 27  2  0
  9 28  1  0
 11 10  1  0
 10 31  1  0
 11 14  1  0
 11 32  1  0
 12 13  1  0
 12 21  1  0
 12 32  1  0
 13 14  1  0
 13 33  1  0
 14 34  1  0
 15 21  1  0
 15 22  2  0
 16 17  2  0
 16 19  1  0
 16 22  1  0
 17 23  1  0
 17 24  1  0
 18 24  2  0
 18 25  1  0
 19 21  1  0
 19 25  2  0
 28 35  1  0
 35 29  1  6
 30 35  2  0
 31 35  1  0
  1 36  1  1
  2 37  1  0
  2 38  1  0
  4 39  1  0
  5 40  1  0
  7 41  1  0
  8 42  1  0
 10 43  1  0
 10 44  1  0
 11 45  1  6
 12 46  1  1
 13 47  1  6
 14 48  1  6
 15 49  1  0
 18 50  1  0
 20 51  1  0
 20 52  1  0
 20 53  1  0
 23 54  1  0
 23 55  1  0
 26 56  1  0
 33 57  1  0
 34 58  1  0
M  CHG  2  20   1  29  -1
M  END
>  <filename_input>  (17) 
7ROR_69X_docked.sdf

>  <pdb_id>  (17) 
7ROR_69X

>  <pose_rank>  (17) 
16

>  <num_atoms_heavy>  (17) 
35

>  <num_torsions>  (17) 
9

>  <pose>  (17) 
[6.2959002288866905, -2.6738052352389547, 52.2943108099371, 1.8282910092490732, -1.6202209216828316, 2.2887124786532675, 0.1493116707693123, 0.3523959875592945, -0.3705151928821539, -3.231362150322642, -0.07653904006465154, 0.7734104035486971, -2.241295671464714, 0.4415602293641685, -0.8454159766243335]

>  <energy>  (17) 
-571.0447468714173

>  <inter_energy>  (17) 
-593.8602944273052

>  <intra_energy>  (17) 
35.30061820194349

>  <rmsd>  (17) 
5.82094

>  <sdf_rank>  (17) 
0

$$$$

     RDKit          3D

 58 61  0  0  0  0  0  0  0  0999 V2000
    9.6162   -3.1895   57.6710 C   0  0  1  0  0  0  0  0  0  0  0  0
   10.6697   -4.2866   57.3280 C   0  0  0  0  0  0  0  0  0  0  0  0
   11.1265   -5.0578   58.4984 C   0  0  0  0  0  0  0  0  0  0  0  0
   12.5111   -5.2867   58.7651 C   0  0  0  0  0  0  0  0  0  0  0  0
   12.9412   -5.9892   59.9036 C   0  0  0  0  0  0  0  0  0  0  0  0
   12.0058   -6.5020   60.8450 C   0  0  0  0  0  0  0  0  0  0  0  0
   10.5916   -6.3001   60.5861 C   0  0  0  0  0  0  0  0  0  0  0  0
   10.2132   -5.5820   59.4630 C   0  0  0  0  0  0  0  0  0  0  0  0
    9.1671   -2.5774   56.3478 C   0  0  0  0  0  0  0  0  0  0  0  0
    6.4335   -5.4326   56.1966 C   0  0  0  0  0  0  0  0  0  0  0  0
    5.0627   -5.5757   55.5467 C   0  0  2  0  0  0  0  0  0  0  0  0
    4.0200   -7.6735   55.3520 C   0  0  2  0  0  0  0  0  0  0  0  0
    3.7627   -7.1860   56.7918 C   0  0  1  0  0  0  0  0  0  0  0  0
    3.8742   -5.6788   56.6277 C   0  0  2  0  0  0  0  0  0  0  0  0
    3.8570  -10.1039   54.5432 C   0  0  0  0  0  0  0  0  0  0  0  0
    5.3802  -11.0312   55.8943 C   0  0  0  0  0  0  0  0  0  0  0  0
    6.3090  -11.8481   56.6212 C   0  0  0  0  0  0  0  0  0  0  0  0
    6.9669   -9.8709   57.8386 C   0  0  0  0  0  0  0  0  0  0  0  0
    5.3242   -9.6611   56.2078 C   0  0  0  0  0  0  0  0  0  0  0  0
    8.4477   -3.7187   58.4339 N   0  0  0  0  0  0  0  0  0  0  0  0
    4.3814   -9.0368   55.3597 N   0  0  0  0  0  0  0  0  0  0  0  0
    4.4574  -11.2894   54.8501 N   0  0  0  0  0  0  0  0  0  0  0  0
    6.4784  -13.1964   56.4195 N   0  0  0  0  0  0  0  0  0  0  0  0
    7.1013  -11.2179   57.5979 N   0  0  0  0  0  0  0  0  0  0  0  0
    6.1175   -9.0219   57.2108 N   0  0  0  0  0  0  0  0  0  0  0  0
   12.4080   -7.2034   61.9366 O   0  0  0  0  0  0  0  0  0  0  0  0
    9.8528   -2.1096   55.5172 O   0  0  0  0  0  0  0  0  0  0  0  0
    7.8502   -2.5525   56.2206 O   0  0  0  0  0  0  0  0  0  0  0  0
    7.8105   -3.0420   53.6564 O   0  0  0  0  0  0  0  0  0  0  0  0
    5.5764   -3.0400   55.1019 O   0  0  0  0  0  0  0  0  0  0  0  0
    7.3187   -4.9371   55.2784 O   0  0  0  0  0  0  0  0  0  0  0  0
    5.0304   -6.8586   54.8585 O   0  0  0  0  0  0  0  0  0  0  0  0
    2.4597   -7.6284   57.2913 O   0  0  0  0  0  0  0  0  0  0  0  0
    2.7437   -5.0637   56.0530 O   0  0  0  0  0  0  0  0  0  0  0  0
    7.0221   -3.2483   54.8785 P   0  0  2  0  0  0  0  0  0  0  0  0
   10.0756   -2.4381   58.3300 H   0  0  0  0  0  0  0  0  0  0  0  0
   10.2211   -4.9848   56.6059 H   0  0  0  0  0  0  0  0  0  0  0  0
   11.5508   -3.7693   56.9207 H   0  0  0  0  0  0  0  0  0  0  0  0
   13.2619   -4.9022   58.0592 H   0  0  0  0  0  0  0  0  0  0  0  0
   14.0174   -6.1449   60.0695 H   0  0  0  0  0  0  0  0  0  0  0  0
    9.8335   -6.7101   61.2697 H   0  0  0  0  0  0  0  0  0  0  0  0
    9.1393   -5.4042   59.3041 H   0  0  0  0  0  0  0  0  0  0  0  0
    6.3652   -4.7430   57.0508 H   0  0  0  0  0  0  0  0  0  0  0  0
    6.7792   -6.4156   56.5491 H   0  0  0  0  0  0  0  0  0  0  0  0
    4.9190   -4.6969   54.9009 H   0  0  0  0  0  0  0  0  0  0  0  0
    3.1269   -7.6041   54.7136 H   0  0  0  0  0  0  0  0  0  0  0  0
    4.4596   -7.5859   57.5431 H   0  0  0  0  0  0  0  0  0  0  0  0
    4.0118   -5.1863   57.6017 H   0  0  0  0  0  0  0  0  0  0  0  0
    3.0781   -9.9785   53.7767 H   0  0  0  0  0  0  0  0  0  0  0  0
    7.6126   -9.4398   58.6178 H   0  0  0  0  0  0  0  0  0  0  0  0
    8.6311   -3.6357   59.4441 H   0  0  0  0  0  0  0  0  0  0  0  0
    7.6058   -3.1768   58.1921 H   0  0  0  0  0  0  0  0  0  0  0  0
    8.2997   -4.7089   58.1921 H   0  0  0  0  0  0  0  0  0  0  0  0
    7.1662  -13.7187   56.9808 H   0  0  0  0  0  0  0  0  0  0  0  0
    5.9177  -13.6849   55.7069 H   0  0  0  0  0  0  0  0  0  0  0  0
   11.7373   -7.5499   62.5771 H   0  0  0  0  0  0  0  0  0  0  0  0
    2.4676   -7.6258   58.2813 H   0  0  0  0  0  0  0  0  0  0  0  0
    2.1447   -4.7379   56.7707 H   0  0  0  0  0  0  0  0  0  0  0  0
  1  2  1  0
  1  9  1  0
  1 20  1  0
  2  3  1  0
  3  4  2  0
  3  8  1  0
  4  5  1  0
  5  6  2  0
  6  7  1  0
  6 26  1  0
  7  8  2  0
  9 27  2  0
  9 28  1  0
 11 10  1  0
 10 31  1  0
 11 14  1  0
 11 32  1  0
 12 13  1  0
 12 21  1  0
 12 32  1  0
 13 14  1  0
 13 33  1  0
 14 34  1  0
 15 21  1  0
 15 22  2  0
 16 17  2  0
 16 19  1  0
 16 22  1  0
 17 23  1  0
 17 24  1  0
 18 24  2  0
 18 25  1  0
 19 21  1  0
 19 25  2  0
 28 35  1  0
 35 29  1  6
 30 35  2  0
 31 35  1  0
  1 36  1  1
  2 37  1  0
  2 38  1  0
  4 39  1  0
  5 40  1  0
  7 41  1  0
  8 42  1  0
 10 43  1  0
 10 44  1  0
 11 45  1  6
 12 46  1  6
 13 47  1  1
 14 48  1  1
 15 49  1  0
 18 50  1  0
 20 51  1  0
 20 52  1  0
 20 53  1  0
 23 54  1  0
 23 55  1  0
 26 56  1  0
 33 57  1  0
 34 58  1  0
M  CHG  2  20   1  29  -1
M  END
>  <filename_input>  (18) 
7ROR_69X_docked.sdf

>  <pdb_id>  (18) 
7ROR_69X

>  <pose_rank>  (18) 
17

>  <num_atoms_heavy>  (18) 
35

>  <num_torsions>  (18) 
9

>  <pose>  (18) 
[6.433541632065339, -5.432631367883838, 56.19660351173863, -0.13738884990011488, 2.3066280059849937, 2.1810412897611737, -3.881271950487913, 3.409519656360594, 3.9338664591103925, 0.29703982601950824, -1.838328284310204, -4.998806911152526, -2.5438625322834967, 0.19987944074300593, -1.1707479373226028]

>  <energy>  (18) 
-529.1346361430848

>  <inter_energy>  (18) 
-603.991796952746

>  <intra_energy>  (18) 
78.3432239438717

>  <rmsd>  (18) 
8.78587

>  <sdf_rank>  (18) 
0

$$$$

     RDKit          3D

 58 61  0  0  0  0  0  0  0  0999 V2000
    7.4540    2.5660   59.1292 C   0  0  1  0  0  0  0  0  0  0  0  0
    8.2704    2.4987   60.4559 C   0  0  0  0  0  0  0  0  0  0  0  0
    9.1326    3.6726   60.6828 C   0  0  0  0  0  0  0  0  0  0  0  0
    8.7377    4.7545   61.5279 C   0  0  0  0  0  0  0  0  0  0  0  0
    9.5807    5.8522   61.7709 C   0  0  0  0  0  0  0  0  0  0  0  0
   10.8734    5.9281   61.1814 C   0  0  0  0  0  0  0  0  0  0  0  0
   11.2904    4.8506   60.3022 C   0  0  0  0  0  0  0  0  0  0  0  0
   10.4362    3.7768   60.1088 C   0  0  0  0  0  0  0  0  0  0  0  0
    7.9575    1.4325   58.2411 C   0  0  0  0  0  0  0  0  0  0  0  0
    8.8672   -2.2740   56.7791 C   0  0  0  0  0  0  0  0  0  0  0  0
   10.1978   -2.4142   56.0496 C   0  0  2  0  0  0  0  0  0  0  0  0
   11.8579   -3.8909   56.8172 C   0  0  2  0  0  0  0  0  0  0  0  0
   10.8440   -4.7412   56.0262 C   0  0  1  0  0  0  0  0  0  0  0  0
   10.2428   -3.7057   55.0895 C   0  0  2  0  0  0  0  0  0  0  0  0
   13.5284   -4.7142   58.5833 C   0  0  0  0  0  0  0  0  0  0  0  0
   12.1050   -5.7511   59.9632 C   0  0  0  0  0  0  0  0  0  0  0  0
   11.4070   -6.4530   61.0018 C   0  0  0  0  0  0  0  0  0  0  0  0
    9.3593   -6.0299   59.7968 C   0  0  0  0  0  0  0  0  0  0  0  0
   11.3479   -5.2289   58.8989 C   0  0  0  0  0  0  0  0  0  0  0  0
    5.9808    2.4578   59.3427 N   0  0  0  0  0  0  0  0  0  0  0  0
   12.2141   -4.5496   58.0124 N   0  0  0  0  0  0  0  0  0  0  0  0
   13.4659   -5.4179   59.7499 N   0  0  0  0  0  0  0  0  0  0  0  0
   12.0115   -7.0093   62.1029 N   0  0  0  0  0  0  0  0  0  0  0  0
   10.0101   -6.5678   60.8819 N   0  0  0  0  0  0  0  0  0  0  0  0
    9.9301   -5.3580   58.7676 N   0  0  0  0  0  0  0  0  0  0  0  0
   11.6878    6.9952   61.3894 O   0  0  0  0  0  0  0  0  0  0  0  0
    9.0629    1.0481   58.1453 O   0  0  0  0  0  0  0  0  0  0  0  0
    7.0018    0.9168   57.4849 O   0  0  0  0  0  0  0  0  0  0  0  0
    5.7289   -1.0181   56.2801 O   0  0  0  0  0  0  0  0  0  0  0  0
    6.9593   -1.4065   58.6073 O   0  0  0  0  0  0  0  0  0  0  0  0
    8.2670   -1.1037   56.4019 O   0  0  0  0  0  0  0  0  0  0  0  0
   11.2248   -2.6766   57.0480 O   0  0  0  0  0  0  0  0  0  0  0  0
   11.4924   -5.8555   55.3327 O   0  0  0  0  0  0  0  0  0  0  0  0
   11.0533   -3.3680   53.9870 O   0  0  0  0  0  0  0  0  0  0  0  0
    6.7767   -0.7800   57.2816 P   0  0  2  0  0  0  0  0  0  0  0  0
    7.6066    3.5483   58.6582 H   0  0  0  0  0  0  0  0  0  0  0  0
    7.5633    2.4201   61.2949 H   0  0  0  0  0  0  0  0  0  0  0  0
    8.9327    1.6237   60.3810 H   0  0  0  0  0  0  0  0  0  0  0  0
    7.7455    4.7276   62.0018 H   0  0  0  0  0  0  0  0  0  0  0  0
    9.2359    6.6651   62.4269 H   0  0  0  0  0  0  0  0  0  0  0  0
   12.2676    4.8861   59.7983 H   0  0  0  0  0  0  0  0  0  0  0  0
   10.7849    2.9507   59.4717 H   0  0  0  0  0  0  0  0  0  0  0  0
    8.2152   -3.1215   56.5207 H   0  0  0  0  0  0  0  0  0  0  0  0
    9.0409   -2.2662   57.8652 H   0  0  0  0  0  0  0  0  0  0  0  0
   10.3422   -1.4948   55.4633 H   0  0  0  0  0  0  0  0  0  0  0  0
   12.7991   -3.7333   56.2702 H   0  0  0  0  0  0  0  0  0  0  0  0
   10.0878   -5.2469   56.6447 H   0  0  0  0  0  0  0  0  0  0  0  0
    9.2978   -4.0673   54.6581 H   0  0  0  0  0  0  0  0  0  0  0  0
   14.4558   -4.3247   58.1380 H   0  0  0  0  0  0  0  0  0  0  0  0
    8.2674   -6.1576   59.7605 H   0  0  0  0  0  0  0  0  0  0  0  0
    5.7805    2.4431   60.3530 H   0  0  0  0  0  0  0  0  0  0  0  0
    5.5110    3.2665   58.9113 H   0  0  0  0  0  0  0  0  0  0  0  0
    5.6342    1.5890   58.9113 H   0  0  0  0  0  0  0  0  0  0  0  0
   11.4443   -7.4995   62.8091 H   0  0  0  0  0  0  0  0  0  0  0  0
   13.0320   -6.9361   62.2222 H   0  0  0  0  0  0  0  0  0  0  0  0
   12.5830    7.0243   60.9678 H   0  0  0  0  0  0  0  0  0  0  0  0
   11.8610   -6.4889   55.9983 H   0  0  0  0  0  0  0  0  0  0  0  0
   11.9171   -3.0081   54.3103 H   0  0  0  0  0  0  0  0  0  0  0  0
  1  2  1  0
  1  9  1  0
  1 20  1  0
  2  3  1  0
  3  4  2  0
  3  8  1  0
  4  5  1  0
  5  6  2  0
  6  7  1  0
  6 26  1  0
  7  8  2  0
  9 27  2  0
  9 28  1  0
 11 10  1  0
 10 31  1  0
 11 14  1  0
 11 32  1  0
 12 13  1  0
 12 21  1  0
 12 32  1  0
 13 14  1  0
 13 33  1  0
 14 34  1  0
 15 21  1  0
 15 22  2  0
 16 17  2  0
 16 19  1  0
 16 22  1  0
 17 23  1  0
 17 24  1  0
 18 24  2  0
 18 25  1  0
 19 21  1  0
 19 25  2  0
 28 35  1  0
 35 29  1  6
 30 35  2  0
 31 35  1  0
  1 36  1  6
  2 37  1  0
  2 38  1  0
  4 39  1  0
  5 40  1  0
  7 41  1  0
  8 42  1  0
 10 43  1  0
 10 44  1  0
 11 45  1  6
 12 46  1  6
 13 47  1  1
 14 48  1  6
 15 49  1  0
 18 50  1  0
 20 51  1  0
 20 52  1  0
 20 53  1  0
 23 54  1  0
 23 55  1  0
 26 56  1  0
 33 57  1  0
 34 58  1  0
M  CHG  2  20   1  29  -1
M  END
>  <filename_input>  (19) 
7ROR_69X_docked.sdf

>  <pdb_id>  (19) 
7ROR_69X

>  <pose_rank>  (19) 
18

>  <num_atoms_heavy>  (19) 
35

>  <num_torsions>  (19) 
9

>  <pose>  (19) 
[8.867212475620676, -2.273999920966485, 56.77906181200882, 2.74736604796809, -0.6537062203894579, -0.6624449116430976, 3.156660289716853, -2.803508190145404, -0.36346582307856323, 1.3013036467488237, -4.23742985876833, -5.171636757762048, -2.235522458857229, -1.0167609925015797, -3.4459261963991463]

>  <energy>  (19) 
-553.325531504548

>  <inter_energy>  (19) 
-572.984636947846

>  <intra_energy>  (19) 
25.37876096921619

>  <rmsd>  (19) 
7.1046

>  <sdf_rank>  (19) 
0

$$$$

     RDKit          3D

 58 61  0  0  0  0  0  0  0  0999 V2000
    9.8519    0.3350   51.5585 C   0  0  1  0  0  0  0  0  0  0  0  0
    8.4013    0.4035   50.9909 C   0  0  0  0  0  0  0  0  0  0  0  0
    7.8782   -0.8986   50.5393 C   0  0  0  0  0  0  0  0  0  0  0  0
    7.9206   -1.3017   49.1695 C   0  0  0  0  0  0  0  0  0  0  0  0
    7.4560   -2.5602   48.7515 C   0  0  0  0  0  0  0  0  0  0  0  0
    6.9229   -3.4917   49.6855 C   0  0  0  0  0  0  0  0  0  0  0  0
    6.8502   -3.0982   51.0811 C   0  0  0  0  0  0  0  0  0  0  0  0
    7.3407   -1.8564   51.4521 C   0  0  0  0  0  0  0  0  0  0  0  0
   10.1412   -1.1323   51.8591 C   0  0  0  0  0  0  0  0  0  0  0  0
   11.3423   -2.1595   55.9479 C   0  0  0  0  0  0  0  0  0  0  0  0
   11.0517   -2.6762   57.3517 C   0  0  2  0  0  0  0  0  0  0  0  0
    9.0258   -3.7560   57.8570 C   0  0  2  0  0  0  0  0  0  0  0  0
    9.9326   -4.8104   57.1916 C   0  0  1  0  0  0  0  0  0  0  0  0
   11.3160   -4.2578   57.4948 C   0  0  2  0  0  0  0  0  0  0  0  0
    7.1312   -4.9191   56.5745 C   0  0  0  0  0  0  0  0  0  0  0  0
    5.5528   -3.3452   56.7672 C   0  0  0  0  0  0  0  0  0  0  0  0
    4.3836   -2.5137   56.7688 C   0  0  0  0  0  0  0  0  0  0  0  0
    5.6420   -0.8900   58.0353 C   0  0  0  0  0  0  0  0  0  0  0  0
    6.7014   -2.8661   57.4228 C   0  0  0  0  0  0  0  0  0  0  0  0
   10.8724    0.8961   50.6249 N   0  0  0  0  0  0  0  0  0  0  0  0
    7.7180   -3.8442   57.3364 N   0  0  0  0  0  0  0  0  0  0  0  0
    5.8395   -4.6310   56.2446 N   0  0  0  0  0  0  0  0  0  0  0  0
    3.1910   -2.8521   56.1769 N   0  0  0  0  0  0  0  0  0  0  0  0
    4.4692   -1.2748   57.4297 N   0  0  0  0  0  0  0  0  0  0  0  0
    6.7950   -1.6006   58.0816 N   0  0  0  0  0  0  0  0  0  0  0  0
    6.4485   -4.7018   49.2905 O   0  0  0  0  0  0  0  0  0  0  0  0
   10.8953   -1.8335   51.2948 O   0  0  0  0  0  0  0  0  0  0  0  0
    9.3817   -1.6110   52.8313 O   0  0  0  0  0  0  0  0  0  0  0  0
   11.2442   -3.3084   53.5137 O   0  0  0  0  0  0  0  0  0  0  0  0
    8.7014   -3.6918   54.1976 O   0  0  0  0  0  0  0  0  0  0  0  0
   10.1611   -1.8798   55.3165 O   0  0  0  0  0  0  0  0  0  0  0  0
    9.6227   -2.5308   57.5903 O   0  0  0  0  0  0  0  0  0  0  0  0
    9.7015   -6.1490   57.7373 O   0  0  0  0  0  0  0  0  0  0  0  0
   11.7632   -4.4804   58.8128 O   0  0  0  0  0  0  0  0  0  0  0  0
    9.8922   -2.8733   53.8881 P   0  0  2  0  0  0  0  0  0  0  0  0
    9.9171    0.9550   52.4648 H   0  0  0  0  0  0  0  0  0  0  0  0
    7.7381    0.7894   51.7792 H   0  0  0  0  0  0  0  0  0  0  0  0
    8.4324    1.0602   50.1090 H   0  0  0  0  0  0  0  0  0  0  0  0
    8.3286   -0.6070   48.4205 H   0  0  0  0  0  0  0  0  0  0  0  0
    7.5053   -2.8293   47.6861 H   0  0  0  0  0  0  0  0  0  0  0  0
    6.4132   -3.7740   51.8310 H   0  0  0  0  0  0  0  0  0  0  0  0
    7.3144   -1.5911   52.5193 H   0  0  0  0  0  0  0  0  0  0  0  0
   11.9508   -1.2453   56.0112 H   0  0  0  0  0  0  0  0  0  0  0  0
   11.8923   -2.9242   55.3797 H   0  0  0  0  0  0  0  0  0  0  0  0
   11.6987   -2.1149   58.0419 H   0  0  0  0  0  0  0  0  0  0  0  0
    8.9267   -3.9046   58.9425 H   0  0  0  0  0  0  0  0  0  0  0  0
    9.7569   -4.9531   56.1151 H   0  0  0  0  0  0  0  0  0  0  0  0
   12.0748   -4.7199   56.8463 H   0  0  0  0  0  0  0  0  0  0  0  0
    7.6546   -5.8460   56.2970 H   0  0  0  0  0  0  0  0  0  0  0  0
    5.6448    0.0918   58.5313 H   0  0  0  0  0  0  0  0  0  0  0  0
   11.6394    1.3178   51.1679 H   0  0  0  0  0  0  0  0  0  0  0  0
   11.2462    0.1419   50.0313 H   0  0  0  0  0  0  0  0  0  0  0  0
   10.4358    1.6158   50.0313 H   0  0  0  0  0  0  0  0  0  0  0  0
    2.3927   -2.2026   56.2189 H   0  0  0  0  0  0  0  0  0  0  0  0
    3.0951   -3.7552   55.6911 H   0  0  0  0  0  0  0  0  0  0  0  0
    6.0824   -5.3326   49.9601 H   0  0  0  0  0  0  0  0  0  0  0  0
    9.7086   -6.1079   58.7264 H   0  0  0  0  0  0  0  0  0  0  0  0
   11.0866   -4.1435   59.4522 H   0  0  0  0  0  0  0  0  0  0  0  0
  1  2  1  0
  1  9  1  0
  1 20  1  0
  2  3  1  0
  3  4  2  0
  3  8  1  0
  4  5  1  0
  5  6  2  0
  6  7  1  0
  6 26  1  0
  7  8  2  0
  9 27  2  0
  9 28  1  0
 11 10  1  0
 10 31  1  0
 11 14  1  0
 11 32  1  0
 12 13  1  0
 12 21  1  0
 12 32  1  0
 13 14  1  0
 13 33  1  0
 14 34  1  0
 15 21  1  0
 15 22  2  0
 16 17  2  0
 16 19  1  0
 16 22  1  0
 17 23  1  0
 17 24  1  0
 18 24  2  0
 18 25  1  0
 19 21  1  0
 19 25  2  0
 28 35  1  0
 35 29  1  6
 30 35  2  0
 31 35  1  0
  1 36  1  1
  2 37  1  0
  2 38  1  0
  4 39  1  0
  5 40  1  0
  7 41  1  0
  8 42  1  0
 10 43  1  0
 10 44  1  0
 11 45  1  1
 12 46  1  1
 13 47  1  6
 14 48  1  6
 15 49  1  0
 18 50  1  0
 20 51  1  0
 20 52  1  0
 20 53  1  0
 23 54  1  0
 23 55  1  0
 26 56  1  0
 33 57  1  0
 34 58  1  0
M  CHG  2  20   1  29  -1
M  END
>  <filename_input>  (20) 
7ROR_69X_docked.sdf

>  <pdb_id>  (20) 
7ROR_69X

>  <pose_rank>  (20) 
19

>  <num_atoms_heavy>  (20) 
35

>  <num_torsions>  (20) 
9

>  <pose>  (20) 
[11.342319508515846, -2.1594674071532722, 55.947871882906625, 2.3395422618946635, 2.9877488923671986, 2.652600000505641, 0.8006611039889233, -4.898937647326569, 0.6533892114752774, -3.490640890061612, 5.0709623823840255, -11.72062222060563, -12.222478727615622, 9.249839620928453, -0.5709734764566649]

>  <energy>  (20) 
-127.48598052243128

>  <inter_energy>  (20) 
-264.19072593291884

>  <intra_energy>  (20) 
132.95728159481652

>  <rmsd>  (20) 
5.20163

>  <sdf_rank>  (20) 
0

$$$$

     RDKit          3D

 58 61  0  0  0  0  0  0  0  0999 V2000
    9.6633   -3.5635   56.3734 C   0  0  1  0  0  0  0  0  0  0  0  0
   10.7129   -3.1240   57.4393 C   0  0  0  0  0  0  0  0  0  0  0  0
   10.9704   -4.1420   58.4741 C   0  0  0  0  0  0  0  0  0  0  0  0
    9.9128   -4.8243   59.1497 C   0  0  0  0  0  0  0  0  0  0  0  0
   10.1653   -5.8215   60.1069 C   0  0  0  0  0  0  0  0  0  0  0  0
   11.4966   -6.1957   60.4416 C   0  0  0  0  0  0  0  0  0  0  0  0
   12.5896   -5.5028   59.7836 C   0  0  0  0  0  0  0  0  0  0  0  0
   12.2945   -4.5421   58.8296 C   0  0  0  0  0  0  0  0  0  0  0  0
    8.3058   -3.0612   56.8549 C   0  0  0  0  0  0  0  0  0  0  0  0
    7.4238    1.1756   58.8292 C   0  0  0  0  0  0  0  0  0  0  0  0
    7.6335    2.6818   58.9260 C   0  0  2  0  0  0  0  0  0  0  0  0
    7.6842    3.7731   61.0075 C   0  0  2  0  0  0  0  0  0  0  0  0
    9.0825    3.1584   60.7985 C   0  0  1  0  0  0  0  0  0  0  0  0
    9.1541    3.0721   59.2825 C   0  0  2  0  0  0  0  0  0  0  0  0
    8.0138    3.0601   63.4509 C   0  0  0  0  0  0  0  0  0  0  0  0
    5.9282    3.3744   64.1975 C   0  0  0  0  0  0  0  0  0  0  0  0
    4.6930    3.5117   64.9141 C   0  0  0  0  0  0  0  0  0  0  0  0
    3.6842    4.2819   62.8615 C   0  0  0  0  0  0  0  0  0  0  0  0
    5.9385    3.7163   62.8331 C   0  0  0  0  0  0  0  0  0  0  0  0
    9.9658   -3.0459   55.0065 N   0  0  0  0  0  0  0  0  0  0  0  0
    7.2480    3.5461   62.3294 N   0  0  0  0  0  0  0  0  0  0  0  0
    7.2349    2.9682   64.5667 N   0  0  0  0  0  0  0  0  0  0  0  0
    4.5343    3.2230   66.2478 N   0  0  0  0  0  0  0  0  0  0  0  0
    3.5765    3.9818   64.1989 N   0  0  0  0  0  0  0  0  0  0  0  0
    4.8011    4.1794   62.1009 N   0  0  0  0  0  0  0  0  0  0  0  0
   11.7539   -7.1410   61.3826 O   0  0  0  0  0  0  0  0  0  0  0  0
    7.2933   -3.6558   56.8583 O   0  0  0  0  0  0  0  0  0  0  0  0
    8.3394   -1.7951   57.2382 O   0  0  0  0  0  0  0  0  0  0  0  0
    6.0430   -0.9852   58.1798 O   0  0  0  0  0  0  0  0  0  0  0  0
    6.7279   -0.5626   55.6435 O   0  0  0  0  0  0  0  0  0  0  0  0
    7.8098    0.7451   57.5891 O   0  0  0  0  0  0  0  0  0  0  0  0
    6.8657    3.1636   60.0656 O   0  0  0  0  0  0  0  0  0  0  0  0
   10.1347    3.9862   61.3909 O   0  0  0  0  0  0  0  0  0  0  0  0
    9.4254    4.2945   58.6352 O   0  0  0  0  0  0  0  0  0  0  0  0
    6.9917   -0.7311   57.0876 P   0  0  2  0  0  0  0  0  0  0  0  0
    9.6794   -4.6592   56.2778 H   0  0  0  0  0  0  0  0  0  0  0  0
   11.6600   -2.9054   56.9243 H   0  0  0  0  0  0  0  0  0  0  0  0
   10.3000   -2.2427   57.9520 H   0  0  0  0  0  0  0  0  0  0  0  0
    8.8710   -4.5617   58.9138 H   0  0  0  0  0  0  0  0  0  0  0  0
    9.3210   -6.3204   60.6051 H   0  0  0  0  0  0  0  0  0  0  0  0
   13.6340   -5.7363   60.0380 H   0  0  0  0  0  0  0  0  0  0  0  0
   13.1348   -4.0559   58.3123 H   0  0  0  0  0  0  0  0  0  0  0  0
    8.0268    0.6702   59.5979 H   0  0  0  0  0  0  0  0  0  0  0  0
    6.3610    0.9401   58.9872 H   0  0  0  0  0  0  0  0  0  0  0  0
    7.3447    3.1105   57.9550 H   0  0  0  0  0  0  0  0  0  0  0  0
    7.6751    4.8648   60.8724 H   0  0  0  0  0  0  0  0  0  0  0  0
    9.2339    2.1854   61.2887 H   0  0  0  0  0  0  0  0  0  0  0  0
    9.9555    2.3887   58.9650 H   0  0  0  0  0  0  0  0  0  0  0  0
    9.0816    2.7990   63.4116 H   0  0  0  0  0  0  0  0  0  0  0  0
    2.7738    4.6408   62.3592 H   0  0  0  0  0  0  0  0  0  0  0  0
   10.4840   -2.1590   55.0821 H   0  0  0  0  0  0  0  0  0  0  0  0
   10.5371   -3.7351   54.4971 H   0  0  0  0  0  0  0  0  0  0  0  0
    9.0849   -2.8864   54.4971 H   0  0  0  0  0  0  0  0  0  0  0  0
    3.6150    3.3463   66.6956 H   0  0  0  0  0  0  0  0  0  0  0  0
    5.3347    2.8833   66.8000 H   0  0  0  0  0  0  0  0  0  0  0  0
   12.6893   -7.3838   61.5975 H   0  0  0  0  0  0  0  0  0  0  0  0
   10.0750    3.9393   62.3780 H   0  0  0  0  0  0  0  0  0  0  0  0
    9.5818    4.9991   59.3128 H   0  0  0  0  0  0  0  0  0  0  0  0
  1  2  1  0
  1  9  1  0
  1 20  1  0
  2  3  1  0
  3  4  2  0
  3  8  1  0
  4  5  1  0
  5  6  2  0
  6  7  1  0
  6 26  1  0
  7  8  2  0
  9 27  2  0
  9 28  1  0
 11 10  1  0
 10 31  1  0
 11 14  1  0
 11 32  1  0
 12 13  1  0
 12 21  1  0
 12 32  1  0
 13 14  1  0
 13 33  1  0
 14 34  1  0
 15 21  1  0
 15 22  2  0
 16 17  2  0
 16 19  1  0
 16 22  1  0
 17 23  1  0
 17 24  1  0
 18 24  2  0
 18 25  1  0
 19 21  1  0
 19 25  2  0
 28 35  1  0
 35 29  1  1
 30 35  2  0
 31 35  1  0
  1 36  1  6
  2 37  1  0
  2 38  1  0
  4 39  1  0
  5 40  1  0
  7 41  1  0
  8 42  1  0
 10 43  1  0
 10 44  1  0
 11 45  1  6
 12 46  1  6
 13 47  1  1
 14 48  1  1
 15 49  1  0
 18 50  1  0
 20 51  1  0
 20 52  1  0
 20 53  1  0
 23 54  1  0
 23 55  1  0
 26 56  1  0
 33 57  1  0
 34 58  1  0
M  CHG  2  20   1  29  -1
M  END
>  <filename_input>  (21) 
7ROR_69X_docked.sdf

>  <pdb_id>  (21) 
7ROR_69X

>  <pose_rank>  (21) 
20

>  <num_atoms_heavy>  (21) 
35

>  <num_torsions>  (21) 
9

>  <pose>  (21) 
[7.423783504569638, 1.1755854938343646, 58.8291731793905, -2.7464138179097795, -1.448354653373164, -2.472824362352842, -40.20576307599502, -11.25239250391769, -43.97246085955675, -28.167363131582487, 0.18502905730073232, -44.19972974804352, 2.322255469487878, 36.29518787348677, 0.2945056861107497]

>  <energy>  (21) 
-483.98533119166854

>  <inter_energy>  (21) 
-507.0306686001578

>  <intra_energy>  (21) 
21.12330813849286

>  <rmsd>  (21) 
9.79127

>  <sdf_rank>  (21) 
0

$$$$

     RDKit          3D

 58 61  0  0  0  0  0  0  0  0999 V2000
   10.9463   -4.0758   56.2551 C   0  0  1  0  0  0  0  0  0  0  0  0
   10.0804   -5.1308   57.0089 C   0  0  0  0  0  0  0  0  0  0  0  0
   10.6924   -5.6179   58.2585 C   0  0  0  0  0  0  0  0  0  0  0  0
   11.9785   -6.2389   58.2839 C   0  0  0  0  0  0  0  0  0  0  0  0
   12.5731   -6.6655   59.4835 C   0  0  0  0  0  0  0  0  0  0  0  0
   11.9121   -6.4914   60.7314 C   0  0  0  0  0  0  0  0  0  0  0  0
   10.5948   -5.8810   60.7303 C   0  0  0  0  0  0  0  0  0  0  0  0
   10.0563   -5.4547   59.5268 C   0  0  0  0  0  0  0  0  0  0  0  0
   10.6153   -2.7159   56.8619 C   0  0  0  0  0  0  0  0  0  0  0  0
    7.7596    0.9708   57.4788 C   0  0  0  0  0  0  0  0  0  0  0  0
    8.0421    1.6422   58.8172 C   0  0  2  0  0  0  0  0  0  0  0  0
    9.1439    3.7156   58.9312 C   0  0  2  0  0  0  0  0  0  0  0  0
    7.6683    4.0187   58.6029 C   0  0  1  0  0  0  0  0  0  0  0  0
    6.9718    2.7920   59.1697 C   0  0  2  0  0  0  0  0  0  0  0  0
    9.6371    5.3266   56.9950 C   0  0  0  0  0  0  0  0  0  0  0  0
   11.8527    5.5136   57.2435 C   0  0  0  0  0  0  0  0  0  0  0  0
   13.2554    5.8125   57.2059 C   0  0  0  0  0  0  0  0  0  0  0  0
   13.5323    4.3532   59.1080 C   0  0  0  0  0  0  0  0  0  0  0  0
   11.3938    4.6362   58.2426 C   0  0  0  0  0  0  0  0  0  0  0  0
   12.4106   -4.3521   56.3404 N   0  0  0  0  0  0  0  0  0  0  0  0
    9.9911    4.5065   58.1274 N   0  0  0  0  0  0  0  0  0  0  0  0
   10.7401    5.9367   56.4742 N   0  0  0  0  0  0  0  0  0  0  0  0
   13.8443    6.6546   56.2942 N   0  0  0  0  0  0  0  0  0  0  0  0
   14.0744    5.2058   58.1755 N   0  0  0  0  0  0  0  0  0  0  0  0
   12.2270    4.0065   59.2191 N   0  0  0  0  0  0  0  0  0  0  0  0
   12.4658   -6.9213   61.8950 O   0  0  0  0  0  0  0  0  0  0  0  0
   10.9010   -2.3326   57.9344 O   0  0  0  0  0  0  0  0  0  0  0  0
    9.8760   -1.9677   56.0589 O   0  0  0  0  0  0  0  0  0  0  0  0
    7.8259   -2.1207   57.6682 O   0  0  0  0  0  0  0  0  0  0  0  0
    7.6009   -1.0729   55.2326 O   0  0  0  0  0  0  0  0  0  0  0  0
    8.8135    0.1635   57.1475 O   0  0  0  0  0  0  0  0  0  0  0  0
    9.3053    2.3564   58.6967 O   0  0  0  0  0  0  0  0  0  0  0  0
    7.2247    5.2774   59.2044 O   0  0  0  0  0  0  0  0  0  0  0  0
    6.8212    2.7953   60.5711 O   0  0  0  0  0  0  0  0  0  0  0  0
    8.3101   -1.3900   56.4896 P   0  0  2  0  0  0  0  0  0  0  0  0
   10.7075   -4.1097   55.1819 H   0  0  0  0  0  0  0  0  0  0  0  0
    9.1103   -4.6732   57.2530 H   0  0  0  0  0  0  0  0  0  0  0  0
    9.9795   -5.9992   56.3413 H   0  0  0  0  0  0  0  0  0  0  0  0
   12.5190   -6.3874   57.3374 H   0  0  0  0  0  0  0  0  0  0  0  0
   13.5645   -7.1413   59.4574 H   0  0  0  0  0  0  0  0  0  0  0  0
   10.0339   -5.7591   61.6686 H   0  0  0  0  0  0  0  0  0  0  0  0
    9.0751   -4.9582   59.5497 H   0  0  0  0  0  0  0  0  0  0  0  0
    6.8438    0.3663   57.5568 H   0  0  0  0  0  0  0  0  0  0  0  0
    7.6243    1.7381   56.7023 H   0  0  0  0  0  0  0  0  0  0  0  0
    8.0243    0.8533   59.5836 H   0  0  0  0  0  0  0  0  0  0  0  0
    9.4064    3.9577   59.9716 H   0  0  0  0  0  0  0  0  0  0  0  0
    7.4583    4.1727   57.5342 H   0  0  0  0  0  0  0  0  0  0  0  0
    5.9530    2.6968   58.7660 H   0  0  0  0  0  0  0  0  0  0  0  0
    8.6155    5.4442   56.6043 H   0  0  0  0  0  0  0  0  0  0  0  0
   14.2269    3.9084   59.8358 H   0  0  0  0  0  0  0  0  0  0  0  0
   12.6929   -4.4054   57.3295 H   0  0  0  0  0  0  0  0  0  0  0  0
   12.6187   -5.2472   55.8752 H   0  0  0  0  0  0  0  0  0  0  0  0
   12.9306   -3.5944   55.8752 H   0  0  0  0  0  0  0  0  0  0  0  0
   14.8601    6.8217   56.3287 H   0  0  0  0  0  0  0  0  0  0  0  0
   13.2701    7.1190   55.5762 H   0  0  0  0  0  0  0  0  0  0  0  0
   11.9857   -6.7882   62.7505 H   0  0  0  0  0  0  0  0  0  0  0  0
    7.2521    5.1995   60.1909 H   0  0  0  0  0  0  0  0  0  0  0  0
    7.7137    2.7759   60.9990 H   0  0  0  0  0  0  0  0  0  0  0  0
  1  2  1  0
  1  9  1  0
  1 20  1  0
  2  3  1  0
  3  4  2  0
  3  8  1  0
  4  5  1  0
  5  6  2  0
  6  7  1  0
  6 26  1  0
  7  8  2  0
  9 27  2  0
  9 28  1  0
 11 10  1  0
 10 31  1  0
 11 14  1  0
 11 32  1  0
 12 13  1  0
 12 21  1  0
 12 32  1  0
 13 14  1  0
 13 33  1  0
 14 34  1  0
 15 21  1  0
 15 22  2  0
 16 17  2  0
 16 19  1  0
 16 22  1  0
 17 23  1  0
 17 24  1  0
 18 24  2  0
 18 25  1  0
 19 21  1  0
 19 25  2  0
 28 35  1  0
 35 29  1  1
 30 35  2  0
 31 35  1  0
  1 36  1  6
  2 37  1  0
  2 38  1  0
  4 39  1  0
  5 40  1  0
  7 41  1  0
  8 42  1  0
 10 43  1  0
 10 44  1  0
 11 45  1  1
 12 46  1  1
 13 47  1  6
 14 48  1  6
 15 49  1  0
 18 50  1  0
 20 51  1  0
 20 52  1  0
 20 53  1  0
 23 54  1  0
 23 55  1  0
 26 56  1  0
 33 57  1  0
 34 58  1  0
M  CHG  2  20   1  29  -1
M  END
>  <filename_input>  (22) 
7ROR_69X_docked.sdf

>  <pdb_id>  (22) 
7ROR_69X

>  <pose_rank>  (22) 
21

>  <num_atoms_heavy>  (22) 
35

>  <num_torsions>  (22) 
9

>  <pose>  (22) 
[7.759551646137839, 0.9707713734563176, 57.47878386549258, -1.5232207500330124, 2.1889286819962606, -3.386828927549379, 1.9069485470551535, 0.9370401777457164, -1.1825264243794142, 1.8871908854026307, -1.4468302054533562, -0.7220082960607805, -0.37025686947748476, -4.516622217084293, 0.11165161405718059]

>  <energy>  (22) 
-546.7417095503463

>  <inter_energy>  (22) 
-576.5427622721394

>  <intra_energy>  (22) 
36.4924355168041

>  <rmsd>  (22) 
9.91667

>  <sdf_rank>  (22) 
0

$$$$

     RDKit          3D

 58 61  0  0  0  0  0  0  0  0999 V2000
    9.6399   -2.1723   56.8369 C   0  0  1  0  0  0  0  0  0  0  0  0
   11.0782   -2.6081   56.4214 C   0  0  0  0  0  0  0  0  0  0  0  0
   11.6261   -3.7049   57.2401 C   0  0  0  0  0  0  0  0  0  0  0  0
   12.2698   -3.4701   58.4935 C   0  0  0  0  0  0  0  0  0  0  0  0
   12.7550   -4.5231   59.2873 C   0  0  0  0  0  0  0  0  0  0  0  0
   12.6204   -5.8769   58.8708 C   0  0  0  0  0  0  0  0  0  0  0  0
   11.9879   -6.1409   57.5910 C   0  0  0  0  0  0  0  0  0  0  0  0
   11.5037   -5.0737   56.8515 C   0  0  0  0  0  0  0  0  0  0  0  0
    9.0767   -1.3470   55.6842 C   0  0  0  0  0  0  0  0  0  0  0  0
   10.2834   -3.3282   51.1552 C   0  0  0  0  0  0  0  0  0  0  0  0
   10.5624   -2.6678   49.8105 C   0  0  2  0  0  0  0  0  0  0  0  0
    9.3385   -0.7916   49.0977 C   0  0  2  0  0  0  0  0  0  0  0  0
   10.4207   -0.2701   50.0639 C   0  0  1  0  0  0  0  0  0  0  0  0
   11.4813   -1.3529   49.9469 C   0  0  2  0  0  0  0  0  0  0  0  0
    7.3454    0.7234   48.5322 C   0  0  0  0  0  0  0  0  0  0  0  0
    6.1866    0.5116   50.4342 C   0  0  0  0  0  0  0  0  0  0  0  0
    5.2601    0.5240   51.5295 C   0  0  0  0  0  0  0  0  0  0  0  0
    6.7524   -0.9682   52.7001 C   0  0  0  0  0  0  0  0  0  0  0  0
    7.3512   -0.2661   50.5669 C   0  0  0  0  0  0  0  0  0  0  0  0
    8.7463   -3.3264   57.1490 N   0  0  0  0  0  0  0  0  0  0  0  0
    8.1028   -0.1702   49.3737 N   0  0  0  0  0  0  0  0  0  0  0  0
    6.1992    1.1214   49.1550 N   0  0  0  0  0  0  0  0  0  0  0  0
    4.0813    1.2295   51.5397 N   0  0  0  0  0  0  0  0  0  0  0  0
    5.5827   -0.2466   52.6613 N   0  0  0  0  0  0  0  0  0  0  0  0
    7.6884   -1.0374   51.7225 N   0  0  0  0  0  0  0  0  0  0  0  0
   13.1067   -6.9020   59.6178 O   0  0  0  0  0  0  0  0  0  0  0  0
    8.1219   -0.6638   55.7053 O   0  0  0  0  0  0  0  0  0  0  0  0
    9.7534   -1.5167   54.5598 O   0  0  0  0  0  0  0  0  0  0  0  0
    8.4382   -3.5305   53.5445 O   0  0  0  0  0  0  0  0  0  0  0  0
   11.0216   -3.7267   54.1513 O   0  0  0  0  0  0  0  0  0  0  0  0
   10.1925   -2.3637   52.1214 O   0  0  0  0  0  0  0  0  0  0  0  0
    9.2974   -2.1660   49.2924 O   0  0  0  0  0  0  0  0  0  0  0  0
   10.8948    1.0613   49.6822 O   0  0  0  0  0  0  0  0  0  0  0  0
   12.2694   -1.2816   48.7805 O   0  0  0  0  0  0  0  0  0  0  0  0
    9.8038   -3.0155   53.7100 P   0  0  2  0  0  0  0  0  0  0  0  0
    9.6920   -1.5871   57.7669 H   0  0  0  0  0  0  0  0  0  0  0  0
   11.0514   -2.9381   55.3724 H   0  0  0  0  0  0  0  0  0  0  0  0
   11.7333   -1.7373   56.5716 H   0  0  0  0  0  0  0  0  0  0  0  0
   12.3890   -2.4354   58.8474 H   0  0  0  0  0  0  0  0  0  0  0  0
   13.2464   -4.2974   60.2453 H   0  0  0  0  0  0  0  0  0  0  0  0
   11.8946   -7.1704   57.2147 H   0  0  0  0  0  0  0  0  0  0  0  0
   10.9917   -5.2952   55.9035 H   0  0  0  0  0  0  0  0  0  0  0  0
    9.3365   -3.8854   51.1017 H   0  0  0  0  0  0  0  0  0  0  0  0
   11.1006   -4.0219   51.4021 H   0  0  0  0  0  0  0  0  0  0  0  0
   11.0591   -3.4193   49.1793 H   0  0  0  0  0  0  0  0  0  0  0  0
    9.5611   -0.5612   48.0454 H   0  0  0  0  0  0  0  0  0  0  0  0
   10.0780   -0.1188   51.0982 H   0  0  0  0  0  0  0  0  0  0  0  0
   12.1924   -1.2989   50.7844 H   0  0  0  0  0  0  0  0  0  0  0  0
    7.6510    1.0410   47.5243 H   0  0  0  0  0  0  0  0  0  0  0  0
    6.9479   -1.5464   53.6152 H   0  0  0  0  0  0  0  0  0  0  0  0
    8.6650   -3.4313   58.1704 H   0  0  0  0  0  0  0  0  0  0  0  0
    7.8136   -3.1572   56.7459 H   0  0  0  0  0  0  0  0  0  0  0  0
    9.1435   -4.1870   56.7459 H   0  0  0  0  0  0  0  0  0  0  0  0
    3.4647    1.1902   52.3638 H   0  0  0  0  0  0  0  0  0  0  0  0
    3.8141    1.7977   50.7232 H   0  0  0  0  0  0  0  0  0  0  0  0
   13.0003   -7.8356   59.3061 H   0  0  0  0  0  0  0  0  0  0  0  0
   11.0833    1.5907   50.4972 H   0  0  0  0  0  0  0  0  0  0  0  0
   13.2232   -1.1953   49.0315 H   0  0  0  0  0  0  0  0  0  0  0  0
  1  2  1  0
  1  9  1  0
  1 20  1  0
  2  3  1  0
  3  4  2  0
  3  8  1  0
  4  5  1  0
  5  6  2  0
  6  7  1  0
  6 26  1  0
  7  8  2  0
  9 27  2  0
  9 28  1  0
 11 10  1  0
 10 31  1  0
 11 14  1  0
 11 32  1  0
 12 13  1  0
 12 21  1  0
 12 32  1  0
 13 14  1  0
 13 33  1  0
 14 34  1  0
 15 21  1  0
 15 22  2  0
 16 17  2  0
 16 19  1  0
 16 22  1  0
 17 23  1  0
 17 24  1  0
 18 24  2  0
 18 25  1  0
 19 21  1  0
 19 25  2  0
 28 35  1  0
 35 29  1  6
 30 35  2  0
 31 35  1  0
  1 36  1  1
  2 37  1  0
  2 38  1  0
  4 39  1  0
  5 40  1  0
  7 41  1  0
  8 42  1  0
 10 43  1  0
 10 44  1  0
 11 45  1  6
 12 46  1  6
 13 47  1  1
 14 48  1  1
 15 49  1  0
 18 50  1  0
 20 51  1  0
 20 52  1  0
 20 53  1  0
 23 54  1  0
 23 55  1  0
 26 56  1  0
 33 57  1  0
 34 58  1  0
M  CHG  2  20   1  29  -1
M  END
>  <filename_input>  (23) 
7ROR_69X_docked.sdf

>  <pdb_id>  (23) 
7ROR_69X

>  <pose_rank>  (23) 
22

>  <num_atoms_heavy>  (23) 
35

>  <num_torsions>  (23) 
9

>  <pose>  (23) 
[10.283398380867746, -3.3281918876398224, 51.155172214093206, -1.9789119488039895, 0.33134362360338804, 1.9425391548319246, -0.4788916159363277, -3.162175121654549, -0.4833843999015154, 2.0182003597357148, -0.33843203213997824, -1.6674728950407647, 1.7870427099925452, 0.39365140932679, -0.3469819199697667]

>  <energy>  (23) 
-380.1416510643712

>  <inter_energy>  (23) 
-501.31629336154657

>  <intra_energy>  (23) 
139.1475656668001

>  <rmsd>  (23) 
9.52187

>  <sdf_rank>  (23) 
0

$$$$

     RDKit          3D

 58 61  0  0  0  0  0  0  0  0999 V2000
   10.1979   -3.6140   54.5339 C   0  0  1  0  0  0  0  0  0  0  0  0
    9.6138   -3.2484   55.9326 C   0  0  0  0  0  0  0  0  0  0  0  0
   10.2657   -3.9535   57.0511 C   0  0  0  0  0  0  0  0  0  0  0  0
   11.6562   -4.2805   57.0371 C   0  0  0  0  0  0  0  0  0  0  0  0
   12.2796   -4.9178   58.1232 C   0  0  0  0  0  0  0  0  0  0  0  0
   11.5439   -5.2630   59.2910 C   0  0  0  0  0  0  0  0  0  0  0  0
   10.1244   -4.9596   59.3219 C   0  0  0  0  0  0  0  0  0  0  0  0
    9.5558   -4.3100   58.2379 C   0  0  0  0  0  0  0  0  0  0  0  0
    9.5108   -2.7086   53.5164 C   0  0  0  0  0  0  0  0  0  0  0  0
   10.3531   -4.0261   48.9100 C   0  0  0  0  0  0  0  0  0  0  0  0
   11.6736   -4.4928   48.3094 C   0  0  2  0  0  0  0  0  0  0  0  0
   11.9483   -6.6950   47.5342 C   0  0  2  0  0  0  0  0  0  0  0  0
   11.2186   -5.9228   46.4170 C   0  0  1  0  0  0  0  0  0  0  0  0
   11.6538   -4.4940   46.6996 C   0  0  2  0  0  0  0  0  0  0  0  0
    9.9824   -8.3442   47.4821 C   0  0  0  0  0  0  0  0  0  0  0  0
   11.0291  -10.1695   48.2425 C   0  0  0  0  0  0  0  0  0  0  0  0
   11.4685  -11.4626   48.6821 C   0  0  0  0  0  0  0  0  0  0  0  0
   13.6677  -10.5181   48.9913 C   0  0  0  0  0  0  0  0  0  0  0  0
   11.9756   -9.1294   48.2099 C   0  0  0  0  0  0  0  0  0  0  0  0
   11.6810   -3.4628   54.4616 N   0  0  0  0  0  0  0  0  0  0  0  0
   11.3528   -7.9604   47.7168 N   0  0  0  0  0  0  0  0  0  0  0  0
    9.7891   -9.6605   47.7822 N   0  0  0  0  0  0  0  0  0  0  0  0
   10.6605  -12.5709   48.7591 N   0  0  0  0  0  0  0  0  0  0  0  0
   12.8197  -11.5989   49.0489 N   0  0  0  0  0  0  0  0  0  0  0  0
   13.3455   -9.2623   48.5970 N   0  0  0  0  0  0  0  0  0  0  0  0
   12.1299   -5.9008   60.3375 O   0  0  0  0  0  0  0  0  0  0  0  0
    8.4124   -2.2963   53.5661 O   0  0  0  0  0  0  0  0  0  0  0  0
   10.2746   -2.4530   52.4665 O   0  0  0  0  0  0  0  0  0  0  0  0
   10.3063   -1.3051   50.1218 O   0  0  0  0  0  0  0  0  0  0  0  0
    8.2438   -2.7901   50.9103 O   0  0  0  0  0  0  0  0  0  0  0  0
   10.5118   -3.8358   50.2556 O   0  0  0  0  0  0  0  0  0  0  0  0
   11.8511   -5.8938   48.6643 O   0  0  0  0  0  0  0  0  0  0  0  0
   11.5992   -6.4015   45.0869 O   0  0  0  0  0  0  0  0  0  0  0  0
   12.9607   -4.1814   46.2740 O   0  0  0  0  0  0  0  0  0  0  0  0
    9.6703   -2.4091   50.8527 P   0  0  2  0  0  0  0  0  0  0  0  0
   10.0050   -4.6768   54.3261 H   0  0  0  0  0  0  0  0  0  0  0  0
    9.7347   -2.1660   56.0870 H   0  0  0  0  0  0  0  0  0  0  0  0
    8.5580   -3.5573   55.9302 H   0  0  0  0  0  0  0  0  0  0  0  0
   12.2560   -4.0261   56.1508 H   0  0  0  0  0  0  0  0  0  0  0  0
   13.3528   -5.1534   58.0697 H   0  0  0  0  0  0  0  0  0  0  0  0
    9.5110   -5.2405   60.1906 H   0  0  0  0  0  0  0  0  0  0  0  0
    8.4880   -4.0521   58.2954 H   0  0  0  0  0  0  0  0  0  0  0  0
   10.0486   -3.0802   48.4383 H   0  0  0  0  0  0  0  0  0  0  0  0
    9.5783   -4.7868   48.7338 H   0  0  0  0  0  0  0  0  0  0  0  0
   12.4551   -3.8149   48.6832 H   0  0  0  0  0  0  0  0  0  0  0  0
   13.0037   -6.8924   47.2952 H   0  0  0  0  0  0  0  0  0  0  0  0
   10.1251   -6.0431   46.4149 H   0  0  0  0  0  0  0  0  0  0  0  0
   10.9989   -3.7746   46.1862 H   0  0  0  0  0  0  0  0  0  0  0  0
    9.1990   -7.6669   47.1111 H   0  0  0  0  0  0  0  0  0  0  0  0
   14.7107  -10.6899   49.2954 H   0  0  0  0  0  0  0  0  0  0  0  0
   12.0689   -3.4233   55.4150 H   0  0  0  0  0  0  0  0  0  0  0  0
   12.0841   -4.2671   53.9601 H   0  0  0  0  0  0  0  0  0  0  0  0
   11.9135   -2.5938   53.9601 H   0  0  0  0  0  0  0  0  0  0  0  0
   11.0470  -13.4684   49.0849 H   0  0  0  0  0  0  0  0  0  0  0  0
    9.6682  -12.5045   48.4911 H   0  0  0  0  0  0  0  0  0  0  0  0
   11.5961   -6.1302   61.1391 H   0  0  0  0  0  0  0  0  0  0  0  0
   12.2129   -7.1731   45.1770 H   0  0  0  0  0  0  0  0  0  0  0  0
   13.5407   -4.0426   47.0642 H   0  0  0  0  0  0  0  0  0  0  0  0
  1  2  1  0
  1  9  1  0
  1 20  1  0
  2  3  1  0
  3  4  2  0
  3  8  1  0
  4  5  1  0
  5  6  2  0
  6  7  1  0
  6 26  1  0
  7  8  2  0
  9 27  2  0
  9 28  1  0
 11 10  1  0
 10 31  1  0
 11 14  1  0
 11 32  1  0
 12 13  1  0
 12 21  1  0
 12 32  1  0
 13 14  1  0
 13 33  1  0
 14 34  1  0
 15 21  1  0
 15 22  2  0
 16 17  2  0
 16 19  1  0
 16 22  1  0
 17 23  1  0
 17 24  1  0
 18 24  2  0
 18 25  1  0
 19 21  1  0
 19 25  2  0
 28 35  1  0
 35 29  1  6
 30 35  2  0
 31 35  1  0
  1 36  1  6
  2 37  1  0
  2 38  1  0
  4 39  1  0
  5 40  1  0
  7 41  1  0
  8 42  1  0
 10 43  1  0
 10 44  1  0
 11 45  1  6
 12 46  1  6
 13 47  1  1
 14 48  1  1
 15 49  1  0
 18 50  1  0
 20 51  1  0
 20 52  1  0
 20 53  1  0
 23 54  1  0
 23 55  1  0
 26 56  1  0
 33 57  1  0
 34 58  1  0
M  CHG  2  20   1  29  -1
M  END
>  <filename_input>  (24) 
7ROR_69X_docked.sdf

>  <pdb_id>  (24) 
7ROR_69X

>  <pose_rank>  (24) 
23

>  <num_atoms_heavy>  (24) 
35

>  <num_torsions>  (24) 
9

>  <pose>  (24) 
[10.353137300154344, -4.026123907474987, 48.91001524683457, -1.1398223469417934, 0.8184767290467605, 0.32956497952093267, 2.2479268548337585, 0.611420124247522, -7.420393297894215, 2.1047273148283807, -5.031219852749079, -0.380917790392702, 4.124006828358349, 0.20813342255089853, 1.7171633451137314]

>  <energy>  (24) 
-491.93475307376946

>  <inter_energy>  (24) 
-532.3032972547207

>  <intra_energy>  (24) 
44.70662687688488

>  <rmsd>  (24) 
9.92079

>  <sdf_rank>  (24) 
0

$$$$

     RDKit          3D

 58 61  0  0  0  0  0  0  0  0999 V2000
    7.4242   -0.6967   51.3760 C   0  0  1  0  0  0  0  0  0  0  0  0
    7.4266   -2.2453   51.5576 C   0  0  0  0  0  0  0  0  0  0  0  0
    7.5380   -2.6783   52.9623 C   0  0  0  0  0  0  0  0  0  0  0  0
    8.7850   -2.6869   53.6590 C   0  0  0  0  0  0  0  0  0  0  0  0
    8.8780   -3.0635   55.0096 C   0  0  0  0  0  0  0  0  0  0  0  0
    7.7225   -3.4520   55.7432 C   0  0  0  0  0  0  0  0  0  0  0  0
    6.4458   -3.4711   55.0521 C   0  0  0  0  0  0  0  0  0  0  0  0
    6.3969   -3.0701   53.7266 C   0  0  0  0  0  0  0  0  0  0  0  0
    8.2508   -0.3955   50.1297 C   0  0  0  0  0  0  0  0  0  0  0  0
   11.5833   -3.0518   47.9009 C   0  0  0  0  0  0  0  0  0  0  0  0
   11.6008   -3.8646   46.6120 C   0  0  2  0  0  0  0  0  0  0  0  0
   12.9680   -5.7637   46.3881 C   0  0  2  0  0  0  0  0  0  0  0  0
   11.7126   -6.2138   47.1615 C   0  0  1  0  0  0  0  0  0  0  0  0
   10.6885   -5.1879   46.7038 C   0  0  2  0  0  0  0  0  0  0  0  0
   14.2731   -6.8530   48.3110 C   0  0  0  0  0  0  0  0  0  0  0  0
   16.2823   -7.0013   47.3381 C   0  0  0  0  0  0  0  0  0  0  0  0
   17.6416   -7.2247   46.9370 C   0  0  0  0  0  0  0  0  0  0  0  0
   17.0858   -6.2428   44.8037 C   0  0  0  0  0  0  0  0  0  0  0  0
   15.4124   -6.4028   46.4087 C   0  0  0  0  0  0  0  0  0  0  0  0
    6.0514   -0.1242   51.2528 N   0  0  0  0  0  0  0  0  0  0  0  0
   14.1248   -6.3079   46.9839 N   0  0  0  0  0  0  0  0  0  0  0  0
   15.5521   -7.2775   48.5209 N   0  0  0  0  0  0  0  0  0  0  0  0
   18.5995   -7.8040   47.7332 N   0  0  0  0  0  0  0  0  0  0  0  0
   18.0082   -6.8293   45.6376 N   0  0  0  0  0  0  0  0  0  0  0  0
   15.7870   -5.9862   45.0933 N   0  0  0  0  0  0  0  0  0  0  0  0
    7.8030   -3.8412   57.0422 O   0  0  0  0  0  0  0  0  0  0  0  0
    8.0053    0.3902   49.2923 O   0  0  0  0  0  0  0  0  0  0  0  0
    9.3084   -1.1831   50.0190 O   0  0  0  0  0  0  0  0  0  0  0  0
   11.8899   -1.0748   49.6453 O   0  0  0  0  0  0  0  0  0  0  0  0
   10.2065    0.2786   48.0912 O   0  0  0  0  0  0  0  0  0  0  0  0
   10.4493   -2.2872   47.9368 O   0  0  0  0  0  0  0  0  0  0  0  0
   12.9520   -4.3757   46.4289 O   0  0  0  0  0  0  0  0  0  0  0  0
   11.3442   -7.5946   46.8442 O   0  0  0  0  0  0  0  0  0  0  0  0
   10.1641   -5.4136   45.4151 O   0  0  0  0  0  0  0  0  0  0  0  0
   10.6170   -0.8545   48.9463 P   0  0  2  0  0  0  0  0  0  0  0  0
    7.8549   -0.2252   52.2717 H   0  0  0  0  0  0  0  0  0  0  0  0
    6.4884   -2.6445   51.1447 H   0  0  0  0  0  0  0  0  0  0  0  0
    8.3137   -2.6287   51.0323 H   0  0  0  0  0  0  0  0  0  0  0  0
    9.6986   -2.3902   53.1229 H   0  0  0  0  0  0  0  0  0  0  0  0
    9.8590   -3.0579   55.5071 H   0  0  0  0  0  0  0  0  0  0  0  0
    5.5332   -3.7982   55.5717 H   0  0  0  0  0  0  0  0  0  0  0  0
    5.4152   -3.0525   53.2306 H   0  0  0  0  0  0  0  0  0  0  0  0
   11.5953   -3.7325   48.7650 H   0  0  0  0  0  0  0  0  0  0  0  0
   12.4689   -2.4004   47.9383 H   0  0  0  0  0  0  0  0  0  0  0  0
   11.2398   -3.2043   45.8098 H   0  0  0  0  0  0  0  0  0  0  0  0
   12.9743   -6.1154   45.3459 H   0  0  0  0  0  0  0  0  0  0  0  0
   11.8317   -6.2391   48.2547 H   0  0  0  0  0  0  0  0  0  0  0  0
    9.8177   -5.1747   47.3758 H   0  0  0  0  0  0  0  0  0  0  0  0
   13.4640   -6.9177   49.0535 H   0  0  0  0  0  0  0  0  0  0  0  0
   17.4368   -5.9530   43.8023 H   0  0  0  0  0  0  0  0  0  0  0  0
    5.6616    0.0383   52.1922 H   0  0  0  0  0  0  0  0  0  0  0  0
    6.0962    0.7682   50.7406 H   0  0  0  0  0  0  0  0  0  0  0  0
    5.4489   -0.7842   50.7406 H   0  0  0  0  0  0  0  0  0  0  0  0
   19.5571   -7.9323   47.3763 H   0  0  0  0  0  0  0  0  0  0  0  0
   18.3601   -8.1100   48.6871 H   0  0  0  0  0  0  0  0  0  0  0  0
    6.9841   -4.1069   57.5310 H   0  0  0  0  0  0  0  0  0  0  0  0
   11.2090   -8.1014   47.6838 H   0  0  0  0  0  0  0  0  0  0  0  0
    9.2576   -5.8040   45.4914 H   0  0  0  0  0  0  0  0  0  0  0  0
  1  2  1  0
  1  9  1  0
  1 20  1  0
  2  3  1  0
  3  4  2  0
  3  8  1  0
  4  5  1  0
  5  6  2  0
  6  7  1  0
  6 26  1  0
  7  8  2  0
  9 27  2  0
  9 28  1  0
 11 10  1  0
 10 31  1  0
 11 14  1  0
 11 32  1  0
 12 13  1  0
 12 21  1  0
 12 32  1  0
 13 14  1  0
 13 33  1  0
 14 34  1  0
 15 21  1  0
 15 22  2  0
 16 17  2  0
 16 19  1  0
 16 22  1  0
 17 23  1  0
 17 24  1  0
 18 24  2  0
 18 25  1  0
 19 21  1  0
 19 25  2  0
 28 35  1  0
 35 29  1  1
 30 35  2  0
 31 35  1  0
  1 36  1  1
  2 37  1  0
  2 38  1  0
  4 39  1  0
  5 40  1  0
  7 41  1  0
  8 42  1  0
 10 43  1  0
 10 44  1  0
 11 45  1  6
 12 46  1  6
 13 47  1  1
 14 48  1  1
 15 49  1  0
 18 50  1  0
 20 51  1  0
 20 52  1  0
 20 53  1  0
 23 54  1  0
 23 55  1  0
 26 56  1  0
 33 57  1  0
 34 58  1  0
M  CHG  2  20   1  29  -1
M  END
>  <filename_input>  (25) 
7ROR_69X_docked.sdf

>  <pdb_id>  (25) 
7ROR_69X

>  <pose_rank>  (25) 
24

>  <num_atoms_heavy>  (25) 
35

>  <num_torsions>  (25) 
9

>  <pose>  (25) 
[11.583345410640932, -3.051831996249699, 47.900913225346336, 1.36539486761807, -0.17170505576440181, -1.4224704826086985, -2.480737873291079, 0.7946616027420457, -0.009258363192662527, -3.281754241432804, -5.12127896696593, 0.5864225413430447, 0.8250800644753833, -0.5682113661872589, -0.2532177817309928]

>  <energy>  (25) 
-465.7162824549359

>  <inter_energy>  (25) 
-489.336489630804

>  <intra_energy>  (25) 
25.506249526154704

>  <rmsd>  (25) 
10.1901

>  <sdf_rank>  (25) 
0

$$$$

     RDKit          3D

 58 61  0  0  0  0  0  0  0  0999 V2000
    6.9570   -2.4010   51.9230 C   0  0  1  0  0  0  0  0  0  0  0  0
    7.0960   -0.8720   51.6510 C   0  0  0  0  0  0  0  0  0  0  0  0
    7.7680   -0.5540   50.3780 C   0  0  0  0  0  0  0  0  0  0  0  0
    9.1320   -0.8990   50.1310 C   0  0  0  0  0  0  0  0  0  0  0  0
    9.7550   -0.6280   48.9010 C   0  0  0  0  0  0  0  0  0  0  0  0
    9.0440    0.0040   47.8430 C   0  0  0  0  0  0  0  0  0  0  0  0
    7.6620    0.3830   48.0760 C   0  0  0  0  0  0  0  0  0  0  0  0
    7.0810    0.0760   49.2960 C   0  0  0  0  0  0  0  0  0  0  0  0
    6.4020   -2.5510   53.3360 C   0  0  0  0  0  0  0  0  0  0  0  0
    9.5650   -1.5470   56.0490 C   0  0  0  0  0  0  0  0  0  0  0  0
   10.9640   -2.1510   56.0610 C   0  0  2  0  0  0  0  0  0  0  0  0
   11.4690   -4.0280   57.3830 C   0  0  2  0  0  0  0  0  0  0  0  0
   10.7840   -4.5590   56.1080 C   0  0  1  0  0  0  0  0  0  0  0  0
   11.0850   -3.4480   55.1150 C   0  0  2  0  0  0  0  0  0  0  0  0
    9.6090   -4.6620   59.0340 C   0  0  0  0  0  0  0  0  0  0  0  0
   10.7920   -5.9580   60.4220 C   0  0  0  0  0  0  0  0  0  0  0  0
   11.3160   -6.8330   61.4310 C   0  0  0  0  0  0  0  0  0  0  0  0
   13.4640   -6.6640   60.3440 C   0  0  0  0  0  0  0  0  0  0  0  0
   11.6740   -5.4990   59.4270 C   0  0  0  0  0  0  0  0  0  0  0  0
    6.0810   -3.0940   50.9330 N   0  0  0  0  0  0  0  0  0  0  0  0
   10.9560   -4.6880   58.5190 N   0  0  0  0  0  0  0  0  0  0  0  0
    9.5050   -5.4260   60.1590 N   0  0  0  0  0  0  0  0  0  0  0  0
   10.5740   -7.3640   62.4580 N   0  0  0  0  0  0  0  0  0  0  0  0
   12.6790   -7.1720   61.3520 N   0  0  0  0  0  0  0  0  0  0  0  0
   13.0630   -5.8300   59.3540 N   0  0  0  0  0  0  0  0  0  0  0  0
    9.6420    0.2930   46.6580 O   0  0  0  0  0  0  0  0  0  0  0  0
    5.2720   -2.6230   53.6470 O   0  0  0  0  0  0  0  0  0  0  0  0
    7.3500   -2.5300   54.2590 O   0  0  0  0  0  0  0  0  0  0  0  0
    6.2770   -3.3260   56.5020 O   0  0  0  0  0  0  0  0  0  0  0  0
    6.7980   -0.7560   56.0500 O   0  0  0  0  0  0  0  0  0  0  0  0
    8.6710   -2.4700   56.5190 O   0  0  0  0  0  0  0  0  0  0  0  0
   11.2140   -2.6630   57.4010 O   0  0  0  0  0  0  0  0  0  0  0  0
   11.3140   -5.8640   55.7090 O   0  0  0  0  0  0  0  0  0  0  0  0
   12.3970   -3.4580   54.6000 O   0  0  0  0  0  0  0  0  0  0  0  0
    7.0350   -2.2090   55.9230 P   0  0  2  0  0  0  0  0  0  0  0  0
    7.9425   -2.8791   51.8217 H   0  0  0  0  0  0  0  0  0  0  0  0
    6.0889   -0.4300   51.6317 H   0  0  0  0  0  0  0  0  0  0  0  0
    7.7212   -0.4584   52.4560 H   0  0  0  0  0  0  0  0  0  0  0  0
    9.7112   -1.3908   50.9264 H   0  0  0  0  0  0  0  0  0  0  0  0
   10.8083   -0.9087   48.7539 H   0  0  0  0  0  0  0  0  0  0  0  0
    7.0861    0.9048   47.2975 H   0  0  0  0  0  0  0  0  0  0  0  0
    6.0216    0.3344   49.4405 H   0  0  0  0  0  0  0  0  0  0  0  0
    9.5443   -0.6546   56.6918 H   0  0  0  0  0  0  0  0  0  0  0  0
    9.2950   -1.2618   55.0215 H   0  0  0  0  0  0  0  0  0  0  0  0
   11.6570   -1.3653   55.7257 H   0  0  0  0  0  0  0  0  0  0  0  0
   12.5531   -4.2144   57.3924 H   0  0  0  0  0  0  0  0  0  0  0  0
    9.7070   -4.7561   56.2139 H   0  0  0  0  0  0  0  0  0  0  0  0
   10.4256   -3.5159   54.2372 H   0  0  0  0  0  0  0  0  0  0  0  0
    8.7780   -4.1017   58.5807 H   0  0  0  0  0  0  0  0  0  0  0  0
   14.5222   -6.9642   60.3408 H   0  0  0  0  0  0  0  0  0  0  0  0
    5.3743   -3.6530   51.4320 H   0  0  0  0  0  0  0  0  0  0  0  0
    5.6103   -2.3940   50.3419 H   0  0  0  0  0  0  0  0  0  0  0  0
    6.6538   -3.7132   50.3419 H   0  0  0  0  0  0  0  0  0  0  0  0
   11.0197   -7.9864   63.1471 H   0  0  0  0  0  0  0  0  0  0  0  0
    9.5720   -7.1398   62.5389 H   0  0  0  0  0  0  0  0  0  0  0  0
    9.1254    0.7332   45.9372 H   0  0  0  0  0  0  0  0  0  0  0  0
   11.5292   -6.3939   56.5171 H   0  0  0  0  0  0  0  0  0  0  0  0
   13.0452   -3.4629   55.3483 H   0  0  0  0  0  0  0  0  0  0  0  0
  1  2  1  0
  1  9  1  0
  1 20  1  0
  2  3  1  0
  3  4  2  0
  3  8  1  0
  4  5  1  0
  5  6  2  0
  6  7  1  0
  6 26  1  0
  7  8  2  0
  9 27  2  0
  9 28  1  0
 11 10  1  0
 10 31  1  0
 11 14  1  0
 11 32  1  0
 12 13  1  0
 12 21  1  0
 12 32  1  0
 13 14  1  0
 13 33  1  0
 14 34  1  0
 15 21  1  0
 15 22  2  0
 16 17  2  0
 16 19  1  0
 16 22  1  0
 17 23  1  0
 17 24  1  0
 18 24  2  0
 18 25  1  0
 19 21  1  0
 19 25  2  0
 28 35  1  0
 35 29  1  1
 30 35  2  0
 31 35  1  0
  1 36  1  1
  2 37  1  0
  2 38  1  0
  4 39  1  0
  5 40  1  0
  7 41  1  0
  8 42  1  0
 10 43  1  0
 10 44  1  0
 11 45  1  6
 12 46  1  6
 13 47  1  1
 14 48  1  6
 15 49  1  0
 18 50  1  0
 20 51  1  0
 20 52  1  0
 20 53  1  0
 23 54  1  0
 23 55  1  0
 26 56  1  0
 33 57  1  0
 34 58  1  0
M  CHG  2  20   1  29  -1
M  END
>  <filename_input>  (26) 
7ROR_69X_docked.sdf

>  <pdb_id>  (26) 
7ROR_69X

>  <pose_rank>  (26) 
25

>  <num_atoms_heavy>  (26) 
35

>  <num_torsions>  (26) 
9

>  <pose>  (26) 
[9.565, -1.547, 56.049, 1e-06, 1e-06, 1e-06, 0.0, 0.0, 0.0, 0.0, 0.0, 0.0, 0.0, 0.0, 0.0]

>  <energy>  (26) 
-1109.7365752353646

>  <inter_energy>  (26) 
-1128.4357081694711

>  <intra_energy>  (26) 
16.329339304233624

>  <rmsd>  (26) 
0.0

>  <sdf_rank>  (26) 
0

$$$$
