
     RDKit          3D

 63 66  0  0  0  0  0  0  0  0999 V2000
   64.9252   13.5420   42.8625 C   0  0  1  0  0  0  0  0  0  0  0  0
   67.2340   14.1521   41.9364 C   0  0  0  0  0  0  0  0  0  0  0  0
   67.6167   15.3082   41.2615 C   0  0  0  0  0  0  0  0  0  0  0  0
   68.4957   15.2773   40.1789 C   0  0  0  0  0  0  0  0  0  0  0  0
   68.9894   14.0344   39.7036 C   0  0  0  0  0  0  0  0  0  0  0  0
   66.2792   14.2805   43.1226 C   0  0  0  0  0  0  0  0  0  0  0  0
   68.6371   12.8453   40.3704 C   0  0  0  0  0  0  0  0  0  0  0  0
   67.7604   12.8897   41.4794 C   0  0  0  0  0  0  0  0  0  0  0  0
   57.3374   19.2182   48.4056 C   0  0  2  0  0  0  0  0  0  0  0  0
   63.9462   14.0181   43.9256 C   0  0  0  0  0  0  0  0  0  0  0  0
   61.8336   20.4444   45.1006 C   0  0  2  0  0  0  0  0  0  0  0  0
   62.2073   18.6483   43.7245 C   0  0  2  0  0  0  0  0  0  0  0  0
   61.1042   17.6454   44.0583 C   0  0  0  0  0  0  0  0  0  0  0  0
   58.9405   22.7078   48.4259 C   0  0  0  0  0  0  0  0  0  0  0  0
   61.0399   23.7180   47.9753 C   0  0  0  0  0  0  0  0  0  0  0  0
   60.5357   21.8187   46.8056 C   0  0  0  0  0  0  0  0  0  0  0  0
   59.2845   21.6863   47.4596 C   0  0  0  0  0  0  0  0  0  0  0  0
   58.6964   20.4902   46.8996 C   0  0  0  0  0  0  0  0  0  0  0  0
   63.2904   18.5328   44.8128 C   0  0  2  0  0  0  0  0  0  0  0  0
   62.5535   19.3055   45.8863 C   0  0  1  0  0  0  0  0  0  0  0  0
   57.1276   17.9284   48.0723 F   0  0  0  0  0  0  0  0  0  0  0  0
   56.1801   19.6368   48.9553 F   0  0  0  0  0  0  0  0  0  0  0  0
   57.7325   22.6662   49.1262 N   0  0  0  0  0  0  0  0  0  0  0  0
   59.8424   23.6861   48.6624 N   0  0  0  0  0  0  0  0  0  0  0  0
   61.4432   22.8159   47.0391 N   0  0  0  0  0  0  0  0  0  0  0  0
   59.5487   19.9310   45.9880 N   0  0  0  0  0  0  0  0  0  0  0  0
   60.6370   20.7687   45.8919 N   0  0  0  0  0  0  0  0  0  0  0  0
   62.8073   14.5085   43.4071 N   0  0  0  0  0  0  0  0  0  0  0  0
   64.3647   13.8673   41.5203 N   0  0  0  0  0  0  0  0  0  0  0  0
   57.4870   19.9518   47.2218 O   0  0  0  0  0  0  0  0  0  0  0  0
   61.5545   19.8615   43.8440 O   0  0  0  0  0  0  0  0  0  0  0  0
   61.2574   16.5296   43.4525 O   0  0  0  0  0  0  0  0  0  0  0  0
   60.4018   14.3270   44.1462 O   0  0  0  0  0  0  0  0  0  0  0  0
   69.8523   14.0100   38.6463 O   0  0  0  0  0  0  0  0  0  0  0  0
   64.1648   13.9419   45.1231 O   0  0  0  0  0  0  0  0  0  0  0  0
   61.9075   15.3883   45.6590 O   0  0  0  0  0  0  0  0  0  0  0  0
   64.4436   19.2165   44.4368 O   0  0  0  0  0  0  0  0  0  0  0  0
   63.5144   19.8741   46.7231 O   0  0  0  0  0  0  0  0  0  0  0  0
   61.5600   15.0704   44.3276 S   0  0  1  0  0  0  0  0  0  0  0  0
   65.0917   12.4554   42.9009 H   0  0  0  0  0  0  0  0  0  0  0  0
   67.2132   16.2765   41.5924 H   0  0  0  0  0  0  0  0  0  0  0  0
   68.8057   16.2148   39.6942 H   0  0  0  0  0  0  0  0  0  0  0  0
   66.0746   15.3465   43.3009 H   0  0  0  0  0  0  0  0  0  0  0  0
   66.7580   13.8174   43.9980 H   0  0  0  0  0  0  0  0  0  0  0  0
   69.0437   11.8820   40.0288 H   0  0  0  0  0  0  0  0  0  0  0  0
   67.4794   11.9591   41.9944 H   0  0  0  0  0  0  0  0  0  0  0  0
   58.2105   19.3358   49.0643 H   0  0  0  0  0  0  0  0  0  0  0  0
   62.3912   21.3799   44.9460 H   0  0  0  0  0  0  0  0  0  0  0  0
   62.6834   18.5067   42.7430 H   0  0  0  0  0  0  0  0  0  0  0  0
   61.1106   17.4618   45.1428 H   0  0  0  0  0  0  0  0  0  0  0  0
   60.1483   18.0772   43.7269 H   0  0  0  0  0  0  0  0  0  0  0  0
   61.7281   24.5449   48.2045 H   0  0  0  0  0  0  0  0  0  0  0  0
   63.6316   17.5180   45.0653 H   0  0  0  0  0  0  0  0  0  0  0  0
   61.8593   18.6951   46.4826 H   0  0  0  0  0  0  0  0  0  0  0  0
   57.5077   23.4034   49.8094 H   0  0  0  0  0  0  0  0  0  0  0  0
   57.0667   21.8983   48.9593 H   0  0  0  0  0  0  0  0  0  0  0  0
   62.7085   14.5346   42.3822 H   0  0  0  0  0  0  0  0  0  0  0  0
   63.4793   14.3813   41.6333 H   0  0  0  0  0  0  0  0  0  0  0  0
   65.0360   14.4501   41.0000 H   0  0  0  0  0  0  0  0  0  0  0  0
   64.1916   12.9954   41.0000 H   0  0  0  0  0  0  0  0  0  0  0  0
   70.1998   13.1458   38.3107 H   0  0  0  0  0  0  0  0  0  0  0  0
   64.9338   19.5071   45.2465 H   0  0  0  0  0  0  0  0  0  0  0  0
   63.2599   19.7235   47.6679 H   0  0  0  0  0  0  0  0  0  0  0  0
  1  6  1  0
  1 10  1  0
  1 29  1  0
  2  3  2  0
  2  6  1  0
  2  8  1  0
  3  4  1  0
  4  5  2  0
  5  7  1  0
  5 34  1  0
  7  8  2  0
  9 21  1  0
  9 22  1  0
  9 30  1  0
 10 28  1  0
 10 35  2  0
 11 20  1  0
 11 27  1  0
 11 31  1  0
 12 13  1  0
 12 19  1  0
 12 31  1  0
 13 32  1  0
 14 17  2  0
 14 23  1  0
 14 24  1  0
 15 24  2  0
 15 25  1  0
 16 17  1  0
 16 25  2  0
 16 27  1  0
 17 18  1  0
 18 26  2  0
 18 30  1  0
 19 20  1  0
 19 37  1  0
 20 38  1  0
 26 27  1  0
 39 28  1  0
 39 32  1  6
 33 39  2  0
 36 39  2  0
  1 40  1  6
  3 41  1  0
  4 42  1  0
  6 43  1  0
  6 44  1  0
  7 45  1  0
  8 46  1  0
  9 47  1  1
 11 48  1  6
 12 49  1  6
 13 50  1  0
 13 51  1  0
 15 52  1  0
 19 53  1  1
 20 54  1  1
 23 55  1  0
 23 56  1  0
 28 57  1  0
 29 58  1  0
 29 59  1  0
 29 60  1  0
 34 61  1  0
 37 62  1  0
 38 63  1  0
M  CHG  1  29   1
M  END
>  <filename_input>  (1) 
7ROU_66I_docked.sdf

>  <pdb_id>  (1) 
7ROU_66I

>  <pose_rank>  (1) 
0

>  <num_atoms_heavy>  (1) 
39

>  <num_torsions>  (1) 
10

>  <pose>  (1) 
[61.83360932360986, 20.44440516321348, 45.10064972402721, 3.997704522433, 0.26287227806024627, 4.645605764579608, -0.2979722182438535, 2.193337684651487, -0.8049850501468716, -6.30518719004318, -0.052046860420471026, -6.612672137614552, -0.1268296803054159, -3.246988700066772, 0.3137736871731186, -3.231499967232406]

>  <energy>  (1) 
-1185.6552152260213

>  <inter_energy>  (1) 
-1189.8741717337273

>  <intra_energy>  (1) 
18.800326239649046

>  <rmsd>  (1) 
1.10135

>  <sdf_rank>  (1) 
0

$$$$

     RDKit          3D

 63 66  0  0  0  0  0  0  0  0999 V2000
   65.1800   15.0067   43.7277 C   0  0  1  0  0  0  0  0  0  0  0  0
   66.8947   15.0460   41.8255 C   0  0  0  0  0  0  0  0  0  0  0  0
   67.7595   15.6978   40.9502 C   0  0  0  0  0  0  0  0  0  0  0  0
   68.6269   15.0003   40.1097 C   0  0  0  0  0  0  0  0  0  0  0  0
   68.6098   13.5811   40.0952 C   0  0  0  0  0  0  0  0  0  0  0  0
   65.9899   15.8898   42.7224 C   0  0  0  0  0  0  0  0  0  0  0  0
   67.7601   12.8870   40.9776 C   0  0  0  0  0  0  0  0  0  0  0  0
   66.8981   13.6040   41.8399 C   0  0  0  0  0  0  0  0  0  0  0  0
   62.2700   21.7448   44.0905 C   0  0  2  0  0  0  0  0  0  0  0  0
   63.7819   14.8417   43.1503 C   0  0  0  0  0  0  0  0  0  0  0  0
   60.2512   18.5211   47.7589 C   0  0  2  0  0  0  0  0  0  0  0  0
   60.9931   16.6191   46.7142 C   0  0  2  0  0  0  0  0  0  0  0  0
   61.3924   17.0591   45.3067 C   0  0  0  0  0  0  0  0  0  0  0  0
   59.4428   23.4016   47.4812 C   0  0  0  0  0  0  0  0  0  0  0  0
   58.2847   22.2237   49.1848 C   0  0  0  0  0  0  0  0  0  0  0  0
   59.6914   21.0023   47.8585 C   0  0  0  0  0  0  0  0  0  0  0  0
   60.0444   22.1432   47.0940 C   0  0  0  0  0  0  0  0  0  0  0  0
   60.9774   21.6538   46.1040 C   0  0  0  0  0  0  0  0  0  0  0  0
   59.4607   16.4717   46.7420 C   0  0  2  0  0  0  0  0  0  0  0  0
   59.1369   17.9481   46.8301 C   0  0  1  0  0  0  0  0  0  0  0  0
   63.4921   21.3938   44.5400 F   0  0  0  0  0  0  0  0  0  0  0  0
   62.4921   22.6914   43.1572 F   0  0  0  0  0  0  0  0  0  0  0  0
   59.7231   24.5826   46.7899 N   0  0  0  0  0  0  0  0  0  0  0  0
   58.5668   23.3953   48.5103 N   0  0  0  0  0  0  0  0  0  0  0  0
   58.8120   21.0000   48.9068 N   0  0  0  0  0  0  0  0  0  0  0  0
   61.1534   20.3057   46.2513 N   0  0  0  0  0  0  0  0  0  0  0  0
   60.4171   19.9241   47.3502 N   0  0  0  0  0  0  0  0  0  0  0  0
   62.9729   15.8772   43.4326 N   0  0  0  0  0  0  0  0  0  0  0  0
   65.7879   13.6561   43.8943 N   0  0  0  0  0  0  0  0  0  0  0  0
   61.5933   22.3874   45.1351 O   0  0  0  0  0  0  0  0  0  0  0  0
   61.3707   17.7035   47.4848 O   0  0  0  0  0  0  0  0  0  0  0  0
   60.6963   16.4871   44.3991 O   0  0  0  0  0  0  0  0  0  0  0  0
   61.2143   17.0551   42.0595 O   0  0  0  0  0  0  0  0  0  0  0  0
   69.4634   12.9034   39.2736 O   0  0  0  0  0  0  0  0  0  0  0  0
   63.4395   13.8799   42.4831 O   0  0  0  0  0  0  0  0  0  0  0  0
   60.8428   14.7455   42.5179 O   0  0  0  0  0  0  0  0  0  0  0  0
   59.0477   15.8207   47.9015 O   0  0  0  0  0  0  0  0  0  0  0  0
   57.9068   18.0661   47.4779 O   0  0  0  0  0  0  0  0  0  0  0  0
   61.4118   15.9767   42.9112 S   0  0  1  0  0  0  0  0  0  0  0  0
   65.1725   15.4941   44.7138 H   0  0  0  0  0  0  0  0  0  0  0  0
   67.7585   16.7974   40.9206 H   0  0  0  0  0  0  0  0  0  0  0  0
   69.3234   15.5493   39.4589 H   0  0  0  0  0  0  0  0  0  0  0  0
   65.2838   16.4486   42.0906 H   0  0  0  0  0  0  0  0  0  0  0  0
   66.6267   16.5726   43.3040 H   0  0  0  0  0  0  0  0  0  0  0  0
   67.7666   11.7872   40.9964 H   0  0  0  0  0  0  0  0  0  0  0  0
   66.2288   13.0604   42.5230 H   0  0  0  0  0  0  0  0  0  0  0  0
   61.7042   20.8778   43.7186 H   0  0  0  0  0  0  0  0  0  0  0  0
   60.0578   18.5129   48.8418 H   0  0  0  0  0  0  0  0  0  0  0  0
   61.4402   15.6718   47.0499 H   0  0  0  0  0  0  0  0  0  0  0  0
   61.2536   18.1472   45.2245 H   0  0  0  0  0  0  0  0  0  0  0  0
   62.4432   16.7727   45.1524 H   0  0  0  0  0  0  0  0  0  0  0  0
   57.5713   22.2847   50.0199 H   0  0  0  0  0  0  0  0  0  0  0  0
   59.0035   15.9027   45.9190 H   0  0  0  0  0  0  0  0  0  0  0  0
   59.0915   18.4570   45.8559 H   0  0  0  0  0  0  0  0  0  0  0  0
   59.2839   25.4672   47.0824 H   0  0  0  0  0  0  0  0  0  0  0  0
   60.3690   24.5688   45.9877 H   0  0  0  0  0  0  0  0  0  0  0  0
   63.3472   16.6481   44.0040 H   0  0  0  0  0  0  0  0  0  0  0  0
   65.8834   13.4440   44.8977 H   0  0  0  0  0  0  0  0  0  0  0  0
   65.1834   12.9503   43.4502 H   0  0  0  0  0  0  0  0  0  0  0  0
   66.7171   13.6407   43.4502 H   0  0  0  0  0  0  0  0  0  0  0  0
   69.4556   11.9136   39.2596 H   0  0  0  0  0  0  0  0  0  0  0  0
   59.3662   16.3228   48.6931 H   0  0  0  0  0  0  0  0  0  0  0  0
   58.0472   18.0526   48.4578 H   0  0  0  0  0  0  0  0  0  0  0  0
  1  6  1  0
  1 10  1  0
  1 29  1  0
  2  3  2  0
  2  6  1  0
  2  8  1  0
  3  4  1  0
  4  5  2  0
  5  7  1  0
  5 34  1  0
  7  8  2  0
  9 21  1  0
  9 22  1  0
  9 30  1  0
 10 28  1  0
 10 35  2  0
 11 20  1  0
 11 27  1  0
 11 31  1  0
 12 13  1  0
 12 19  1  0
 12 31  1  0
 13 32  1  0
 14 17  2  0
 14 23  1  0
 14 24  1  0
 15 24  2  0
 15 25  1  0
 16 17  1  0
 16 25  2  0
 16 27  1  0
 17 18  1  0
 18 26  2  0
 18 30  1  0
 19 20  1  0
 19 37  1  0
 20 38  1  0
 26 27  1  0
 39 28  1  0
 39 32  1  1
 33 39  2  0
 36 39  2  0
  1 40  1  1
  3 41  1  0
  4 42  1  0
  6 43  1  0
  6 44  1  0
  7 45  1  0
  8 46  1  0
  9 47  1  6
 11 48  1  1
 12 49  1  1
 13 50  1  0
 13 51  1  0
 15 52  1  0
 19 53  1  6
 20 54  1  6
 23 55  1  0
 23 56  1  0
 28 57  1  0
 29 58  1  0
 29 59  1  0
 29 60  1  0
 34 61  1  0
 37 62  1  0
 38 63  1  0
M  CHG  1  29   1
M  END
>  <filename_input>  (2) 
7ROU_66I_docked.sdf

>  <pdb_id>  (2) 
7ROU_66I

>  <pose_rank>  (2) 
1

>  <num_atoms_heavy>  (2) 
39

>  <num_torsions>  (2) 
10

>  <pose>  (2) 
[60.2511947645421, 18.521085263207127, 47.75894811785175, 0.5750041302511506, -1.9068241117360016, -1.359875539510642, -6.738821983193777, -5.664259869932602, -0.2790167438494689, 13.520370943621348, -17.10311053262195, -22.74637295872883, -25.24975086669255, -19.457731929295974, -17.37944596353036, 4.238117179819938]

>  <energy>  (2) 
-975.5657674162389

>  <inter_energy>  (2) 
-1037.5011830574565

>  <intra_energy>  (2) 
79.74267067323649

>  <rmsd>  (2) 
3.57399

>  <sdf_rank>  (2) 
0

$$$$

     RDKit          3D

 63 66  0  0  0  0  0  0  0  0999 V2000
   65.4318   14.8359   43.2641 C   0  0  1  0  0  0  0  0  0  0  0  0
   66.8259   14.6912   41.1202 C   0  0  0  0  0  0  0  0  0  0  0  0
   67.7626   15.5587   40.5645 C   0  0  0  0  0  0  0  0  0  0  0  0
   68.9342   15.0979   39.9642 C   0  0  0  0  0  0  0  0  0  0  0  0
   69.1761   13.7030   39.8629 C   0  0  0  0  0  0  0  0  0  0  0  0
   65.5776   15.2838   41.7725 C   0  0  0  0  0  0  0  0  0  0  0  0
   68.2594   12.7954   40.4272 C   0  0  0  0  0  0  0  0  0  0  0  0
   67.0836   13.2739   41.0510 C   0  0  0  0  0  0  0  0  0  0  0  0
   58.9416   23.4807   47.3560 C   0  0  2  0  0  0  0  0  0  0  0  0
   64.0255   15.2119   43.7071 C   0  0  0  0  0  0  0  0  0  0  0  0
   60.1305   18.1719   48.0431 C   0  0  2  0  0  0  0  0  0  0  0  0
   60.8668   16.0505   47.5773 C   0  0  2  0  0  0  0  0  0  0  0  0
   61.1925   16.0530   46.0847 C   0  0  0  0  0  0  0  0  0  0  0  0
   62.1507   21.6280   45.1233 C   0  0  0  0  0  0  0  0  0  0  0  0
   63.4054   19.6403   45.4491 C   0  0  0  0  0  0  0  0  0  0  0  0
   61.3683   19.7563   46.4819 C   0  0  0  0  0  0  0  0  0  0  0  0
   61.1288   21.0594   45.9766 C   0  0  0  0  0  0  0  0  0  0  0  0
   59.8333   21.4297   46.5008 C   0  0  0  0  0  0  0  0  0  0  0  0
   59.3409   15.9062   47.7237 C   0  0  2  0  0  0  0  0  0  0  0  0
   58.9886   17.3389   47.3836 C   0  0  1  0  0  0  0  0  0  0  0  0
   58.8498   22.7474   48.4842 F   0  0  0  0  0  0  0  0  0  0  0  0
   57.7069   23.9830   47.1562 F   0  0  0  0  0  0  0  0  0  0  0  0
   62.0115   22.9065   44.5781 N   0  0  0  0  0  0  0  0  0  0  0  0
   63.2672   20.8999   44.9000 N   0  0  0  0  0  0  0  0  0  0  0  0
   62.4951   19.0166   46.2461 N   0  0  0  0  0  0  0  0  0  0  0  0
   59.3404   20.4247   47.2862 N   0  0  0  0  0  0  0  0  0  0  0  0
   60.2466   19.3900   47.2270 N   0  0  0  0  0  0  0  0  0  0  0  0
   63.1848   14.1634   43.7276 N   0  0  0  0  0  0  0  0  0  0  0  0
   65.6017   13.3635   43.4203 N   0  0  0  0  0  0  0  0  0  0  0  0
   59.1765   22.6044   46.2888 O   0  0  0  0  0  0  0  0  0  0  0  0
   61.2545   17.3186   47.9700 O   0  0  0  0  0  0  0  0  0  0  0  0
   61.8645   15.0248   45.7286 O   0  0  0  0  0  0  0  0  0  0  0  0
   60.9157   15.2349   43.4658 O   0  0  0  0  0  0  0  0  0  0  0  0
   70.3261   13.2575   39.2779 O   0  0  0  0  0  0  0  0  0  0  0  0
   63.7023   16.3426   44.0302 O   0  0  0  0  0  0  0  0  0  0  0  0
   60.9593   13.0347   44.3819 O   0  0  0  0  0  0  0  0  0  0  0  0
   58.9950   15.6282   49.0435 O   0  0  0  0  0  0  0  0  0  0  0  0
   57.7865   17.6354   48.0269 O   0  0  0  0  0  0  0  0  0  0  0  0
   61.6069   14.2753   44.1929 S   0  0  1  0  0  0  0  0  0  0  0  0
   66.2083   15.3282   43.8680 H   0  0  0  0  0  0  0  0  0  0  0  0
   67.5725   16.6415   40.6000 H   0  0  0  0  0  0  0  0  0  0  0  0
   69.6697   15.8145   39.5699 H   0  0  0  0  0  0  0  0  0  0  0  0
   64.6913   14.9507   41.2127 H   0  0  0  0  0  0  0  0  0  0  0  0
   65.6696   16.3798   41.7526 H   0  0  0  0  0  0  0  0  0  0  0  0
   68.4576   11.7143   40.3829 H   0  0  0  0  0  0  0  0  0  0  0  0
   66.3642   12.5635   41.4843 H   0  0  0  0  0  0  0  0  0  0  0  0
   59.7273   24.2473   47.4268 H   0  0  0  0  0  0  0  0  0  0  0  0
   59.9862   18.4862   49.0873 H   0  0  0  0  0  0  0  0  0  0  0  0
   61.3495   15.2503   48.1575 H   0  0  0  0  0  0  0  0  0  0  0  0
   60.2500   16.0721   45.5179 H   0  0  0  0  0  0  0  0  0  0  0  0
   61.8067   16.9418   45.8780 H   0  0  0  0  0  0  0  0  0  0  0  0
   64.3323   19.0931   45.2226 H   0  0  0  0  0  0  0  0  0  0  0  0
   58.8600   15.1138   47.1313 H   0  0  0  0  0  0  0  0  0  0  0  0
   58.8882   17.5331   46.3056 H   0  0  0  0  0  0  0  0  0  0  0  0
   62.7509   23.2918   43.9734 H   0  0  0  0  0  0  0  0  0  0  0  0
   61.1694   23.4639   44.7809 H   0  0  0  0  0  0  0  0  0  0  0  0
   63.5446   13.2429   43.4378 H   0  0  0  0  0  0  0  0  0  0  0  0
   65.6292   13.1254   44.4220 H   0  0  0  0  0  0  0  0  0  0  0  0
   64.8113   12.8773   42.9734 H   0  0  0  0  0  0  0  0  0  0  0  0
   66.4822   13.0701   42.9734 H   0  0  0  0  0  0  0  0  0  0  0  0
   70.4999   12.2856   39.2046 H   0  0  0  0  0  0  0  0  0  0  0  0
   59.6027   16.1166   49.6537 H   0  0  0  0  0  0  0  0  0  0  0  0
   57.9200   17.6025   49.0073 H   0  0  0  0  0  0  0  0  0  0  0  0
  1  6  1  0
  1 10  1  0
  1 29  1  0
  2  3  2  0
  2  6  1  0
  2  8  1  0
  3  4  1  0
  4  5  2  0
  5  7  1  0
  5 34  1  0
  7  8  2  0
  9 21  1  0
  9 22  1  0
  9 30  1  0
 10 28  1  0
 10 35  2  0
 11 20  1  0
 11 27  1  0
 11 31  1  0
 12 13  1  0
 12 19  1  0
 12 31  1  0
 13 32  1  0
 14 17  2  0
 14 23  1  0
 14 24  1  0
 15 24  2  0
 15 25  1  0
 16 17  1  0
 16 25  2  0
 16 27  1  0
 17 18  1  0
 18 26  2  0
 18 30  1  0
 19 20  1  0
 19 37  1  0
 20 38  1  0
 26 27  1  0
 39 28  1  0
 39 32  1  1
 33 39  2  0
 36 39  2  0
  1 40  1  1
  3 41  1  0
  4 42  1  0
  6 43  1  0
  6 44  1  0
  7 45  1  0
  8 46  1  0
  9 47  1  1
 11 48  1  1
 12 49  1  1
 13 50  1  0
 13 51  1  0
 15 52  1  0
 19 53  1  6
 20 54  1  6
 23 55  1  0
 23 56  1  0
 28 57  1  0
 29 58  1  0
 29 59  1  0
 29 60  1  0
 34 61  1  0
 37 62  1  0
 38 63  1  0
M  CHG  1  29   1
M  END
>  <filename_input>  (3) 
7ROU_66I_docked.sdf

>  <pdb_id>  (3) 
7ROU_66I

>  <pose_rank>  (3) 
2

>  <num_atoms_heavy>  (3) 
39

>  <num_torsions>  (3) 
10

>  <pose>  (3) 
[60.13049691334036, 18.171939381224067, 48.043069390510205, 0.40132179692699305, -2.014279834305802, -1.0374269757226924, 2.256209462961442, -4.734207588218154, 0.639644021085705, 12.206785621190948, 13.007789166478249, 16.863780951210792, 2.8836840625174047, 8.90808854159455, 6.574853323049118, 5.144559068925728]

>  <energy>  (3) 
-954.2653205960072

>  <inter_energy>  (3) 
-1030.3949458738552

>  <intra_energy>  (3) 
80.20047804053017

>  <rmsd>  (3) 
3.80615

>  <sdf_rank>  (3) 
0

$$$$

     RDKit          3D

 63 66  0  0  0  0  0  0  0  0999 V2000
   65.4272   14.7755   43.5808 C   0  0  1  0  0  0  0  0  0  0  0  0
   66.6962   13.9050   41.5333 C   0  0  0  0  0  0  0  0  0  0  0  0
   67.1401   12.7962   40.8176 C   0  0  0  0  0  0  0  0  0  0  0  0
   68.2742   12.8432   40.0072 C   0  0  0  0  0  0  0  0  0  0  0  0
   69.0422   14.0346   39.9331 C   0  0  0  0  0  0  0  0  0  0  0  0
   65.4342   13.7685   42.3839 C   0  0  0  0  0  0  0  0  0  0  0  0
   68.6159   15.1812   40.6302 C   0  0  0  0  0  0  0  0  0  0  0  0
   67.4533   15.1285   41.4341 C   0  0  0  0  0  0  0  0  0  0  0  0
   57.6132   16.4116   46.0957 C   0  0  2  0  0  0  0  0  0  0  0  0
   64.4996   15.9188   43.1963 C   0  0  0  0  0  0  0  0  0  0  0  0
   60.3501   21.0554   45.6515 C   0  0  2  0  0  0  0  0  0  0  0  0
   61.8372   20.4444   44.0160 C   0  0  2  0  0  0  0  0  0  0  0  0
   61.9397   18.9229   44.1090 C   0  0  0  0  0  0  0  0  0  0  0  0
   57.2507   19.6410   49.2492 C   0  0  0  0  0  0  0  0  0  0  0  0
   57.9019   21.9229   49.2380 C   0  0  0  0  0  0  0  0  0  0  0  0
   58.7357   20.6031   47.5669 C   0  0  0  0  0  0  0  0  0  0  0  0
   58.0703   19.4566   48.0703 C   0  0  0  0  0  0  0  0  0  0  0  0
   58.4364   18.3876   47.1683 C   0  0  0  0  0  0  0  0  0  0  0  0
   62.7142   21.0423   45.1314 C   0  0  2  0  0  0  0  0  0  0  0  0
   61.7546   20.7870   46.2745 C   0  0  1  0  0  0  0  0  0  0  0  0
   56.4706   16.9902   45.6730 F   0  0  0  0  0  0  0  0  0  0  0  0
   57.2579   15.1767   46.5025 F   0  0  0  0  0  0  0  0  0  0  0  0
   56.5572   18.5737   49.8246 N   0  0  0  0  0  0  0  0  0  0  0  0
   57.2067   20.8725   49.8042 N   0  0  0  0  0  0  0  0  0  0  0  0
   58.6816   21.8515   48.1245 N   0  0  0  0  0  0  0  0  0  0  0  0
   59.2829   18.8579   46.2027 N   0  0  0  0  0  0  0  0  0  0  0  0
   59.4171   20.2117   46.4136 N   0  0  0  0  0  0  0  0  0  0  0  0
   65.0610   17.1283   43.3649 N   0  0  0  0  0  0  0  0  0  0  0  0
   64.9145   14.1474   44.8314 N   0  0  0  0  0  0  0  0  0  0  0  0
   58.0396   17.0866   47.2466 O   0  0  0  0  0  0  0  0  0  0  0  0
   60.5030   20.6721   44.2999 O   0  0  0  0  0  0  0  0  0  0  0  0
   63.1410   18.5234   44.2902 O   0  0  0  0  0  0  0  0  0  0  0  0
   65.0841   19.6498   43.2801 O   0  0  0  0  0  0  0  0  0  0  0  0
   70.1490   14.0764   39.1354 O   0  0  0  0  0  0  0  0  0  0  0  0
   63.3727   15.7525   42.7606 O   0  0  0  0  0  0  0  0  0  0  0  0
   63.6126   18.5429   41.7662 O   0  0  0  0  0  0  0  0  0  0  0  0
   62.8846   22.4116   44.9458 O   0  0  0  0  0  0  0  0  0  0  0  0
   62.0052   21.7516   47.2510 O   0  0  0  0  0  0  0  0  0  0  0  0
   64.2940   18.5424   43.0031 S   0  0  1  0  0  0  0  0  0  0  0  0
   66.4553   15.1155   43.7745 H   0  0  0  0  0  0  0  0  0  0  0  0
   66.5785   11.8534   40.8938 H   0  0  0  0  0  0  0  0  0  0  0  0
   68.5731   11.9582   39.4262 H   0  0  0  0  0  0  0  0  0  0  0  0
   65.3815   12.7439   42.7807 H   0  0  0  0  0  0  0  0  0  0  0  0
   64.5664   13.9910   41.7455 H   0  0  0  0  0  0  0  0  0  0  0  0
   69.1870   16.1178   40.5497 H   0  0  0  0  0  0  0  0  0  0  0  0
   67.1259   16.0227   41.9848 H   0  0  0  0  0  0  0  0  0  0  0  0
   58.3893   16.4166   45.3162 H   0  0  0  0  0  0  0  0  0  0  0  0
   59.9704   22.0870   45.6908 H   0  0  0  0  0  0  0  0  0  0  0  0
   62.1555   20.8742   43.0547 H   0  0  0  0  0  0  0  0  0  0  0  0
   61.3225   18.5787   44.9520 H   0  0  0  0  0  0  0  0  0  0  0  0
   61.5889   18.5051   43.1539 H   0  0  0  0  0  0  0  0  0  0  0  0
   57.8184   22.9032   49.7300 H   0  0  0  0  0  0  0  0  0  0  0  0
   63.7334   20.6400   45.2284 H   0  0  0  0  0  0  0  0  0  0  0  0
   61.8394   19.7834   46.7166 H   0  0  0  0  0  0  0  0  0  0  0  0
   55.9796   18.7273   50.6634 H   0  0  0  0  0  0  0  0  0  0  0  0
   56.6234   17.6332   49.4099 H   0  0  0  0  0  0  0  0  0  0  0  0
   66.0194   17.1742   43.7392 H   0  0  0  0  0  0  0  0  0  0  0  0
   65.3116   14.6339   45.6478 H   0  0  0  0  0  0  0  0  0  0  0  0
   63.8872   14.2189   44.8553 H   0  0  0  0  0  0  0  0  0  0  0  0
   65.1902   13.1553   44.8553 H   0  0  0  0  0  0  0  0  0  0  0  0
   70.6883   14.9048   39.0800 H   0  0  0  0  0  0  0  0  0  0  0  0
   62.9403   22.8597   45.8268 H   0  0  0  0  0  0  0  0  0  0  0  0
   61.9002   21.3475   48.1486 H   0  0  0  0  0  0  0  0  0  0  0  0
  1  6  1  0
  1 10  1  0
  1 29  1  0
  2  3  2  0
  2  6  1  0
  2  8  1  0
  3  4  1  0
  4  5  2  0
  5  7  1  0
  5 34  1  0
  7  8  2  0
  9 21  1  0
  9 22  1  0
  9 30  1  0
 10 28  1  0
 10 35  2  0
 11 20  1  0
 11 27  1  0
 11 31  1  0
 12 13  1  0
 12 19  1  0
 12 31  1  0
 13 32  1  0
 14 17  2  0
 14 23  1  0
 14 24  1  0
 15 24  2  0
 15 25  1  0
 16 17  1  0
 16 25  2  0
 16 27  1  0
 17 18  1  0
 18 26  2  0
 18 30  1  0
 19 20  1  0
 19 37  1  0
 20 38  1  0
 26 27  1  0
 39 28  1  0
 39 32  1  1
 33 39  2  0
 36 39  2  0
  1 40  1  1
  3 41  1  0
  4 42  1  0
  6 43  1  0
  6 44  1  0
  7 45  1  0
  8 46  1  0
  9 47  1  6
 11 48  1  6
 12 49  1  6
 13 50  1  0
 13 51  1  0
 15 52  1  0
 19 53  1  1
 20 54  1  1
 23 55  1  0
 23 56  1  0
 28 57  1  0
 29 58  1  0
 29 59  1  0
 29 60  1  0
 34 61  1  0
 37 62  1  0
 38 63  1  0
M  CHG  1  29   1
M  END
>  <filename_input>  (4) 
7ROU_66I_docked.sdf

>  <pdb_id>  (4) 
7ROU_66I

>  <pose_rank>  (4) 
3

>  <num_atoms_heavy>  (4) 
39

>  <num_torsions>  (4) 
10

>  <pose>  (4) 
[60.35013386758566, 21.055400271245908, 45.65145307052978, -0.6759220546783558, 0.1307434685764487, -5.461865309653086, -6.702499182238664, -0.3768389283576689, -0.007947163843518994, 0.8585827276638842, 2.913098885474419, -0.4754181702628043, -7.5139920753982326, -1.4130523678763232, 4.9961508857271, -2.596453180663581]

>  <energy>  (4) 
-967.1288135070336

>  <inter_energy>  (4) 
-973.9090347767127

>  <intra_energy>  (4) 
21.42124226579184

>  <rmsd>  (4) 
2.40371

>  <sdf_rank>  (4) 
0

$$$$

     RDKit          3D

 63 66  0  0  0  0  0  0  0  0999 V2000
   65.6344   15.1715   43.6172 C   0  0  1  0  0  0  0  0  0  0  0  0
   66.6287   14.7447   41.2956 C   0  0  0  0  0  0  0  0  0  0  0  0
   66.8133   13.5426   40.6176 C   0  0  0  0  0  0  0  0  0  0  0  0
   67.9518   13.2913   39.8521 C   0  0  0  0  0  0  0  0  0  0  0  0
   68.9889   14.2581   39.7878 C   0  0  0  0  0  0  0  0  0  0  0  0
   65.3431   14.9414   42.0977 C   0  0  0  0  0  0  0  0  0  0  0  0
   68.8312   15.4920   40.4473 C   0  0  0  0  0  0  0  0  0  0  0  0
   67.6640   15.7446   41.2052 C   0  0  0  0  0  0  0  0  0  0  0  0
   59.7508   21.8088   45.7451 C   0  0  2  0  0  0  0  0  0  0  0  0
   64.4100   15.8553   44.2075 C   0  0  0  0  0  0  0  0  0  0  0  0
   57.7158   16.5702   46.6614 C   0  0  2  0  0  0  0  0  0  0  0  0
   59.2467   15.1036   45.7868 C   0  0  2  0  0  0  0  0  0  0  0  0
   60.2600   15.9712   45.0423 C   0  0  0  0  0  0  0  0  0  0  0  0
   56.9773   21.1133   48.4959 C   0  0  0  0  0  0  0  0  0  0  0  0
   56.2240   19.2931   49.8189 C   0  0  0  0  0  0  0  0  0  0  0  0
   57.2522   18.7770   47.8425 C   0  0  0  0  0  0  0  0  0  0  0  0
   57.4423   20.1458   47.5247 C   0  0  0  0  0  0  0  0  0  0  0  0
   58.1058   20.1410   46.2402 C   0  0  0  0  0  0  0  0  0  0  0  0
   58.0077   14.9519   44.8852 C   0  0  2  0  0  0  0  0  0  0  0  0
   57.4204   16.3220   45.1502 C   0  0  1  0  0  0  0  0  0  0  0  0
   60.6682   21.0785   45.0789 F   0  0  0  0  0  0  0  0  0  0  0  0
   60.0202   21.6133   47.0512 F   0  0  0  0  0  0  0  0  0  0  0  0
   57.1149   22.4858   48.2754 N   0  0  0  0  0  0  0  0  0  0  0  0
   56.3670   20.6506   49.6094 N   0  0  0  0  0  0  0  0  0  0  0  0
   56.6432   18.3103   48.9755 N   0  0  0  0  0  0  0  0  0  0  0  0
   58.2804   18.8557   45.8072 N   0  0  0  0  0  0  0  0  0  0  0  0
   57.8135   18.0307   46.8055 N   0  0  0  0  0  0  0  0  0  0  0  0
   63.9346   15.2291   45.2975 N   0  0  0  0  0  0  0  0  0  0  0  0
   65.8564   13.8872   44.3402 N   0  0  0  0  0  0  0  0  0  0  0  0
   58.4941   21.2319   45.5222 O   0  0  0  0  0  0  0  0  0  0  0  0
   58.9319   15.8855   46.8832 O   0  0  0  0  0  0  0  0  0  0  0  0
   61.4154   15.4270   44.9761 O   0  0  0  0  0  0  0  0  0  0  0  0
   62.3186   14.9180   47.2099 O   0  0  0  0  0  0  0  0  0  0  0  0
   70.0993   14.0087   39.0341 O   0  0  0  0  0  0  0  0  0  0  0  0
   63.9251   16.8770   43.7507 O   0  0  0  0  0  0  0  0  0  0  0  0
   62.6404   17.1491   46.4347 O   0  0  0  0  0  0  0  0  0  0  0  0
   57.1580   13.9636   45.3750 O   0  0  0  0  0  0  0  0  0  0  0  0
   56.0400   16.2242   44.9719 O   0  0  0  0  0  0  0  0  0  0  0  0
   62.6325   15.7648   46.1556 S   0  0  1  0  0  0  0  0  0  0  0  0
   66.5464   15.7772   43.7238 H   0  0  0  0  0  0  0  0  0  0  0  0
   66.0367   12.7668   40.6879 H   0  0  0  0  0  0  0  0  0  0  0  0
   68.0458   12.3451   39.2991 H   0  0  0  0  0  0  0  0  0  0  0  0
   64.7143   14.0456   41.9876 H   0  0  0  0  0  0  0  0  0  0  0  0
   64.8315   15.8344   41.7092 H   0  0  0  0  0  0  0  0  0  0  0  0
   69.6157   16.2595   40.3732 H   0  0  0  0  0  0  0  0  0  0  0  0
   67.5456   16.7059   41.7267 H   0  0  0  0  0  0  0  0  0  0  0  0
   59.7674   22.8659   45.4412 H   0  0  0  0  0  0  0  0  0  0  0  0
   56.9676   16.2159   47.3857 H   0  0  0  0  0  0  0  0  0  0  0  0
   59.6046   14.0995   46.0585 H   0  0  0  0  0  0  0  0  0  0  0  0
   59.8926   16.1445   44.0201 H   0  0  0  0  0  0  0  0  0  0  0  0
   60.3659   16.9140   45.5991 H   0  0  0  0  0  0  0  0  0  0  0  0
   55.7278   18.9784   50.7489 H   0  0  0  0  0  0  0  0  0  0  0  0
   58.1903   14.6750   43.8363 H   0  0  0  0  0  0  0  0  0  0  0  0
   57.8210   17.1155   44.5022 H   0  0  0  0  0  0  0  0  0  0  0  0
   56.7770   23.1570   48.9798 H   0  0  0  0  0  0  0  0  0  0  0  0
   57.5542   22.8266   47.4084 H   0  0  0  0  0  0  0  0  0  0  0  0
   64.4080   14.3704   45.6131 H   0  0  0  0  0  0  0  0  0  0  0  0
   65.8273   14.0555   45.3559 H   0  0  0  0  0  0  0  0  0  0  0  0
   65.1190   13.2160   44.0821 H   0  0  0  0  0  0  0  0  0  0  0  0
   66.7764   13.5025   44.0821 H   0  0  0  0  0  0  0  0  0  0  0  0
   70.8256   14.6796   38.9857 H   0  0  0  0  0  0  0  0  0  0  0  0
   57.1707   13.9783   46.3648 H   0  0  0  0  0  0  0  0  0  0  0  0
   55.5946   16.1926   45.8555 H   0  0  0  0  0  0  0  0  0  0  0  0
  1  6  1  0
  1 10  1  0
  1 29  1  0
  2  3  2  0
  2  6  1  0
  2  8  1  0
  3  4  1  0
  4  5  2  0
  5  7  1  0
  5 34  1  0
  7  8  2  0
  9 21  1  0
  9 22  1  0
  9 30  1  0
 10 28  1  0
 10 35  2  0
 11 20  1  0
 11 27  1  0
 11 31  1  0
 12 13  1  0
 12 19  1  0
 12 31  1  0
 13 32  1  0
 14 17  2  0
 14 23  1  0
 14 24  1  0
 15 24  2  0
 15 25  1  0
 16 17  1  0
 16 25  2  0
 16 27  1  0
 17 18  1  0
 18 26  2  0
 18 30  1  0
 19 20  1  0
 19 37  1  0
 20 38  1  0
 26 27  1  0
 39 28  1  0
 39 32  1  6
 33 39  2  0
 36 39  2  0
  1 40  1  6
  3 41  1  0
  4 42  1  0
  6 43  1  0
  6 44  1  0
  7 45  1  0
  8 46  1  0
  9 47  1  6
 11 48  1  1
 12 49  1  1
 13 50  1  0
 13 51  1  0
 15 52  1  0
 19 53  1  6
 20 54  1  6
 23 55  1  0
 23 56  1  0
 28 57  1  0
 29 58  1  0
 29 59  1  0
 29 60  1  0
 34 61  1  0
 37 62  1  0
 38 63  1  0
M  CHG  1  29   1
M  END
>  <filename_input>  (5) 
7ROU_66I_docked.sdf

>  <pdb_id>  (5) 
7ROU_66I

>  <pose_rank>  (5) 
4

>  <num_atoms_heavy>  (5) 
39

>  <num_torsions>  (5) 
10

>  <pose>  (5) 
[57.715823345401155, 16.57022651275547, 46.6614101699751, 1.3506724909745975, -2.087238701736628, -1.5449725536090773, 0.3948716224527394, -1.2092777144909381, 2.549645393571722, -13.16838041207437, -28.8313964248628, -25.9689637139086, -7.537339647071827, -3.2073755799730086, 5.991595595105155, -9.478605160603012]

>  <energy>  (5) 
-893.7429200205647

>  <inter_energy>  (5) 
-898.7344395296243

>  <intra_energy>  (5) 
13.484709680536298

>  <rmsd>  (5) 
3.90933

>  <sdf_rank>  (5) 
0

$$$$

     RDKit          3D

 63 66  0  0  0  0  0  0  0  0999 V2000
   64.8377   14.6567   42.9638 C   0  0  1  0  0  0  0  0  0  0  0  0
   66.6308   13.6077   41.4654 C   0  0  0  0  0  0  0  0  0  0  0  0
   67.4637   12.5405   41.1399 C   0  0  0  0  0  0  0  0  0  0  0  0
   68.5904   12.6996   40.3333 C   0  0  0  0  0  0  0  0  0  0  0  0
   68.9445   13.9895   39.8586 C   0  0  0  0  0  0  0  0  0  0  0  0
   65.4081   13.3397   42.3419 C   0  0  0  0  0  0  0  0  0  0  0  0
   68.1179   15.0903   40.1540 C   0  0  0  0  0  0  0  0  0  0  0  0
   66.9666   14.9148   40.9567 C   0  0  0  0  0  0  0  0  0  0  0  0
   56.2658   20.8907   47.2096 C   0  0  2  0  0  0  0  0  0  0  0  0
   63.3705   14.4029   43.2771 C   0  0  0  0  0  0  0  0  0  0  0  0
   61.2341   18.4628   47.6085 C   0  0  2  0  0  0  0  0  0  0  0  0
   61.7070   16.4574   46.6013 C   0  0  2  0  0  0  0  0  0  0  0  0
   60.6840   16.3181   45.4752 C   0  0  0  0  0  0  0  0  0  0  0  0
   59.7900   23.0768   46.5244 C   0  0  0  0  0  0  0  0  0  0  0  0
   62.0625   22.7879   47.1433 C   0  0  0  0  0  0  0  0  0  0  0  0
   60.7654   20.9060   47.0693 C   0  0  0  0  0  0  0  0  0  0  0  0
   59.6181   21.6493   46.6926 C   0  0  0  0  0  0  0  0  0  0  0  0
   58.5627   20.6688   46.5709 C   0  0  0  0  0  0  0  0  0  0  0  0
   61.0090   16.0727   47.9187 C   0  0  2  0  0  0  0  0  0  0  0  0
   60.2424   17.3653   48.1033 C   0  0  1  0  0  0  0  0  0  0  0  0
   56.8303   21.2310   48.3863 F   0  0  0  0  0  0  0  0  0  0  0  0
   55.9074   19.5986   47.3470 F   0  0  0  0  0  0  0  0  0  0  0  0
   58.7208   23.8978   46.1582 N   0  0  0  0  0  0  0  0  0  0  0  0
   61.0105   23.6018   46.7717 N   0  0  0  0  0  0  0  0  0  0  0  0
   62.0030   21.4382   47.3092 N   0  0  0  0  0  0  0  0  0  0  0  0
   59.0407   19.4247   46.8767 N   0  0  0  0  0  0  0  0  0  0  0  0
   60.3881   19.5635   47.1230 N   0  0  0  0  0  0  0  0  0  0  0  0
   62.5655   15.3921   42.8532 N   0  0  0  0  0  0  0  0  0  0  0  0
   65.5375   15.0217   44.2280 N   0  0  0  0  0  0  0  0  0  0  0  0
   57.2658   20.9090   46.2291 O   0  0  0  0  0  0  0  0  0  0  0  0
   61.9754   17.8141   46.5953 O   0  0  0  0  0  0  0  0  0  0  0  0
   60.8813   15.2759   44.7608 O   0  0  0  0  0  0  0  0  0  0  0  0
   60.3534   16.6013   42.7535 O   0  0  0  0  0  0  0  0  0  0  0  0
   70.0460   14.1390   39.0665 O   0  0  0  0  0  0  0  0  0  0  0  0
   62.9667   13.3964   43.8353 O   0  0  0  0  0  0  0  0  0  0  0  0
   60.2897   14.2330   42.4901 O   0  0  0  0  0  0  0  0  0  0  0  0
   61.9387   15.9167   48.9434 O   0  0  0  0  0  0  0  0  0  0  0  0
   60.0330   17.5326   49.4725 O   0  0  0  0  0  0  0  0  0  0  0  0
   60.9269   15.3690   43.0358 S   0  0  1  0  0  0  0  0  0  0  0  0
   64.9785   15.4840   42.2526 H   0  0  0  0  0  0  0  0  0  0  0  0
   67.2256   11.5404   41.5311 H   0  0  0  0  0  0  0  0  0  0  0  0
   69.2038   11.8266   40.0655 H   0  0  0  0  0  0  0  0  0  0  0  0
   65.6961   12.6576   43.1554 H   0  0  0  0  0  0  0  0  0  0  0  0
   64.6260   12.8939   41.7097 H   0  0  0  0  0  0  0  0  0  0  0  0
   68.3673   16.0867   39.7604 H   0  0  0  0  0  0  0  0  0  0  0  0
   66.3260   15.7771   41.1936 H   0  0  0  0  0  0  0  0  0  0  0  0
   55.4319   21.5577   46.9456 H   0  0  0  0  0  0  0  0  0  0  0  0
   61.9306   18.8830   48.3490 H   0  0  0  0  0  0  0  0  0  0  0  0
   62.6083   15.8366   46.4905 H   0  0  0  0  0  0  0  0  0  0  0  0
   59.6786   16.2577   45.9174 H   0  0  0  0  0  0  0  0  0  0  0  0
   60.7857   17.1963   44.8206 H   0  0  0  0  0  0  0  0  0  0  0  0
   63.0338   23.2729   47.3208 H   0  0  0  0  0  0  0  0  0  0  0  0
   60.4293   15.1378   47.9166 H   0  0  0  0  0  0  0  0  0  0  0  0
   59.2775   17.3946   47.5758 H   0  0  0  0  0  0  0  0  0  0  0  0
   58.8653   24.9112   46.0440 H   0  0  0  0  0  0  0  0  0  0  0  0
   57.7880   23.4898   46.0025 H   0  0  0  0  0  0  0  0  0  0  0  0
   62.9941   16.2065   42.3905 H   0  0  0  0  0  0  0  0  0  0  0  0
   64.9684   14.7248   45.0335 H   0  0  0  0  0  0  0  0  0  0  0  0
   66.4529   14.5505   44.2621 H   0  0  0  0  0  0  0  0  0  0  0  0
   65.6750   16.0419   44.2621 H   0  0  0  0  0  0  0  0  0  0  0  0
   70.2975   15.0364   38.7326 H   0  0  0  0  0  0  0  0  0  0  0  0
   61.4816   15.9934   49.8182 H   0  0  0  0  0  0  0  0  0  0  0  0
   60.6990   17.0004   49.9757 H   0  0  0  0  0  0  0  0  0  0  0  0
  1  6  1  0
  1 10  1  0
  1 29  1  0
  2  3  2  0
  2  6  1  0
  2  8  1  0
  3  4  1  0
  4  5  2  0
  5  7  1  0
  5 34  1  0
  7  8  2  0
  9 21  1  0
  9 22  1  0
  9 30  1  0
 10 28  1  0
 10 35  2  0
 11 20  1  0
 11 27  1  0
 11 31  1  0
 12 13  1  0
 12 19  1  0
 12 31  1  0
 13 32  1  0
 14 17  2  0
 14 23  1  0
 14 24  1  0
 15 24  2  0
 15 25  1  0
 16 17  1  0
 16 25  2  0
 16 27  1  0
 17 18  1  0
 18 26  2  0
 18 30  1  0
 19 20  1  0
 19 37  1  0
 20 38  1  0
 26 27  1  0
 39 28  1  0
 39 32  1  1
 33 39  2  0
 36 39  2  0
  1 40  1  6
  3 41  1  0
  4 42  1  0
  6 43  1  0
  6 44  1  0
  7 45  1  0
  8 46  1  0
  9 47  1  6
 11 48  1  1
 12 49  1  6
 13 50  1  0
 13 51  1  0
 15 52  1  0
 19 53  1  6
 20 54  1  6
 23 55  1  0
 23 56  1  0
 28 57  1  0
 29 58  1  0
 29 59  1  0
 29 60  1  0
 34 61  1  0
 37 62  1  0
 38 63  1  0
M  CHG  1  29   1
M  END
>  <filename_input>  (6) 
7ROU_66I_docked.sdf

>  <pdb_id>  (6) 
7ROU_66I

>  <pose_rank>  (6) 
5

>  <num_atoms_heavy>  (6) 
39

>  <num_torsions>  (6) 
10

>  <pose>  (6) 
[61.23413816755069, 18.462773901462327, 47.60852783969159, -0.22940977407871338, 3.9403044399877456, 2.925234708460223, 0.6921750527079539, -4.557530012563427, 1.6285731773064258, -19.05527555367588, -48.3305915267312, -27.690985372902162, 4.861287788692638, -1.472319043996631, 5.933789772705177, 3.8484135042629455]

>  <energy>  (6) 
-889.0422555973132

>  <inter_energy>  (6) 
-897.0842761307135

>  <intra_energy>  (6) 
10.497642902087101

>  <rmsd>  (6) 
2.52166

>  <sdf_rank>  (6) 
0

$$$$

     RDKit          3D

 63 66  0  0  0  0  0  0  0  0999 V2000
   62.0897   20.5540   46.5006 C   0  0  1  0  0  0  0  0  0  0  0  0
   60.5992   22.6357   46.5765 C   0  0  0  0  0  0  0  0  0  0  0  0
   60.6011   23.8242   47.3018 C   0  0  0  0  0  0  0  0  0  0  0  0
   59.4224   24.4206   47.7494 C   0  0  0  0  0  0  0  0  0  0  0  0
   58.1744   23.7880   47.5109 C   0  0  0  0  0  0  0  0  0  0  0  0
   61.9367   22.0612   46.1114 C   0  0  0  0  0  0  0  0  0  0  0  0
   58.1313   22.5932   46.7673 C   0  0  0  0  0  0  0  0  0  0  0  0
   59.3310   22.0067   46.3011 C   0  0  0  0  0  0  0  0  0  0  0  0
   67.6888   14.0989   40.2721 C   0  0  2  0  0  0  0  0  0  0  0  0
   61.4347   19.7393   45.3949 C   0  0  0  0  0  0  0  0  0  0  0  0
   63.7293   13.6878   43.8369 C   0  0  2  0  0  0  0  0  0  0  0  0
   61.5125   14.2272   44.0695 C   0  0  2  0  0  0  0  0  0  0  0  0
   61.4501   15.7485   43.9447 C   0  0  0  0  0  0  0  0  0  0  0  0
   66.3619   17.7410   42.7452 C   0  0  0  0  0  0  0  0  0  0  0  0
   64.4557   18.0466   44.1250 C   0  0  0  0  0  0  0  0  0  0  0  0
   64.9179   15.9074   43.4619 C   0  0  0  0  0  0  0  0  0  0  0  0
   66.0496   16.3277   42.7181 C   0  0  0  0  0  0  0  0  0  0  0  0
   66.5837   15.1166   42.1365 C   0  0  0  0  0  0  0  0  0  0  0  0
   61.9805   13.8931   45.4979 C   0  0  2  0  0  0  0  0  0  0  0  0
   63.4485   14.1963   45.2844 C   0  0  1  0  0  0  0  0  0  0  0  0
   68.8835   14.1918   39.6534 F   0  0  0  0  0  0  0  0  0  0  0  0
   66.7886   14.5556   39.3789 F   0  0  0  0  0  0  0  0  0  0  0  0
   67.4540   18.2560   42.0428 N   0  0  0  0  0  0  0  0  0  0  0  0
   65.5401   18.5585   43.4400 N   0  0  0  0  0  0  0  0  0  0  0  0
   64.0930   16.7355   44.1733 N   0  0  0  0  0  0  0  0  0  0  0  0
   65.8099   14.0459   42.4897 N   0  0  0  0  0  0  0  0  0  0  0  0
   64.8350   14.5198   43.3384 N   0  0  0  0  0  0  0  0  0  0  0  0
   60.7355   18.6903   45.8610 N   0  0  0  0  0  0  0  0  0  0  0  0
   63.5206   20.1503   46.6045 N   0  0  0  0  0  0  0  0  0  0  0  0
   67.6778   15.0159   41.3308 O   0  0  0  0  0  0  0  0  0  0  0  0
   62.5035   13.8933   43.1646 O   0  0  0  0  0  0  0  0  0  0  0  0
   60.9820   16.3072   44.9955 O   0  0  0  0  0  0  0  0  0  0  0  0
   58.7384   17.1934   45.4913 O   0  0  0  0  0  0  0  0  0  0  0  0
   57.0235   24.3778   47.9477 O   0  0  0  0  0  0  0  0  0  0  0  0
   61.5185   20.0225   44.2115 O   0  0  0  0  0  0  0  0  0  0  0  0
   59.7989   18.0617   43.5410 O   0  0  0  0  0  0  0  0  0  0  0  0
   61.8059   12.5390   45.7711 O   0  0  0  0  0  0  0  0  0  0  0  0
   64.1702   13.4117   46.1846 O   0  0  0  0  0  0  0  0  0  0  0  0
   59.9019   17.6520   44.8885 S   0  0  1  0  0  0  0  0  0  0  0  0
   61.6220   20.3836   47.4815 H   0  0  0  0  0  0  0  0  0  0  0  0
   61.5625   24.3081   47.5290 H   0  0  0  0  0  0  0  0  0  0  0  0
   59.4599   25.3798   48.2866 H   0  0  0  0  0  0  0  0  0  0  0  0
   62.7516   22.6338   46.5785 H   0  0  0  0  0  0  0  0  0  0  0  0
   61.9778   22.1366   45.0148 H   0  0  0  0  0  0  0  0  0  0  0  0
   57.1646   22.1158   46.5489 H   0  0  0  0  0  0  0  0  0  0  0  0
   59.2967   21.0689   45.7273 H   0  0  0  0  0  0  0  0  0  0  0  0
   67.4865   13.0765   40.6240 H   0  0  0  0  0  0  0  0  0  0  0  0
   64.0293   12.6358   43.7219 H   0  0  0  0  0  0  0  0  0  0  0  0
   60.5619   13.7058   43.8837 H   0  0  0  0  0  0  0  0  0  0  0  0
   62.4662   16.1298   43.7653 H   0  0  0  0  0  0  0  0  0  0  0  0
   60.7751   15.9881   43.1098 H   0  0  0  0  0  0  0  0  0  0  0  0
   63.8301   18.7610   44.6802 H   0  0  0  0  0  0  0  0  0  0  0  0
   61.4712   14.4166   46.3204 H   0  0  0  0  0  0  0  0  0  0  0  0
   63.7132   15.2550   45.4225 H   0  0  0  0  0  0  0  0  0  0  0  0
   67.6581   19.2650   42.0758 H   0  0  0  0  0  0  0  0  0  0  0  0
   68.0550   17.6267   41.4917 H   0  0  0  0  0  0  0  0  0  0  0  0
   60.7196   18.5266   46.8778 H   0  0  0  0  0  0  0  0  0  0  0  0
   63.7851   20.0757   47.5972 H   0  0  0  0  0  0  0  0  0  0  0  0
   63.6545   19.2387   46.1441 H   0  0  0  0  0  0  0  0  0  0  0  0
   64.1112   20.8575   46.1441 H   0  0  0  0  0  0  0  0  0  0  0  0
   56.1504   23.9409   47.7840 H   0  0  0  0  0  0  0  0  0  0  0  0
   61.7879   12.3998   46.7511 H   0  0  0  0  0  0  0  0  0  0  0  0
   63.9332   13.6693   47.1106 H   0  0  0  0  0  0  0  0  0  0  0  0
  1  6  1  0
  1 10  1  0
  1 29  1  0
  2  3  2  0
  2  6  1  0
  2  8  1  0
  3  4  1  0
  4  5  2  0
  5  7  1  0
  5 34  1  0
  7  8  2  0
  9 21  1  0
  9 22  1  0
  9 30  1  0
 10 28  1  0
 10 35  2  0
 11 20  1  0
 11 27  1  0
 11 31  1  0
 12 13  1  0
 12 19  1  0
 12 31  1  0
 13 32  1  0
 14 17  2  0
 14 23  1  0
 14 24  1  0
 15 24  2  0
 15 25  1  0
 16 17  1  0
 16 25  2  0
 16 27  1  0
 17 18  1  0
 18 26  2  0
 18 30  1  0
 19 20  1  0
 19 37  1  0
 20 38  1  0
 26 27  1  0
 39 28  1  0
 39 32  1  6
 33 39  2  0
 36 39  2  0
  1 40  1  1
  3 41  1  0
  4 42  1  0
  6 43  1  0
  6 44  1  0
  7 45  1  0
  8 46  1  0
  9 47  1  1
 11 48  1  1
 12 49  1  6
 13 50  1  0
 13 51  1  0
 15 52  1  0
 19 53  1  1
 20 54  1  6
 23 55  1  0
 23 56  1  0
 28 57  1  0
 29 58  1  0
 29 59  1  0
 29 60  1  0
 34 61  1  0
 37 62  1  0
 38 63  1  0
M  CHG  1  29   1
M  END
>  <filename_input>  (7) 
7ROU_66I_docked.sdf

>  <pdb_id>  (7) 
7ROU_66I

>  <pose_rank>  (7) 
6

>  <num_atoms_heavy>  (7) 
39

>  <num_torsions>  (7) 
10

>  <pose>  (7) 
[63.7293147016541, 13.687823391823171, 43.83689081259818, 1.9387510321667263, -0.22134800432551546, 3.292657296737537, -2.795509168697486, 1.0468721492690178, 4.297572156417969, -5.357015504943801, -4.51499082612187, -6.492974832708799, -0.6180308721843845, -1.5953417996988963, -1.5704544315154736, 3.2622401239144527]

>  <energy>  (7) 
-832.2167009372199

>  <inter_energy>  (7) 
-911.7044036924773

>  <intra_energy>  (7) 
81.78246717821173

>  <rmsd>  (7) 
9.98229

>  <sdf_rank>  (7) 
0

$$$$

     RDKit          3D

 63 66  0  0  0  0  0  0  0  0999 V2000
   59.1534   15.2202   46.3276 C   0  0  1  0  0  0  0  0  0  0  0  0
   58.3141   14.7909   48.7091 C   0  0  0  0  0  0  0  0  0  0  0  0
   58.5147   14.0463   49.8684 C   0  0  0  0  0  0  0  0  0  0  0  0
   58.2358   14.5586   51.1353 C   0  0  0  0  0  0  0  0  0  0  0  0
   57.6843   15.8598   51.2668 C   0  0  0  0  0  0  0  0  0  0  0  0
   58.6621   14.1561   47.3634 C   0  0  0  0  0  0  0  0  0  0  0  0
   57.4822   16.6487   50.1182 C   0  0  0  0  0  0  0  0  0  0  0  0
   57.7865   16.1267   48.8393 C   0  0  0  0  0  0  0  0  0  0  0  0
   57.4623   19.4654   46.8537 C   0  0  2  0  0  0  0  0  0  0  0  0
   60.4663   14.7096   45.7524 C   0  0  0  0  0  0  0  0  0  0  0  0
   62.7307   20.2010   44.6493 C   0  0  2  0  0  0  0  0  0  0  0  0
   63.0552   18.6115   43.0283 C   0  0  2  0  0  0  0  0  0  0  0  0
   61.9290   17.5978   43.2232 C   0  0  0  0  0  0  0  0  0  0  0  0
   59.6054   22.5083   47.7248 C   0  0  0  0  0  0  0  0  0  0  0  0
   61.3718   23.8115   46.8234 C   0  0  0  0  0  0  0  0  0  0  0  0
   61.2574   21.6266   46.1582 C   0  0  0  0  0  0  0  0  0  0  0  0
   60.1184   21.3861   46.9678 C   0  0  0  0  0  0  0  0  0  0  0  0
   59.7955   19.9935   46.7520 C   0  0  0  0  0  0  0  0  0  0  0  0
   64.1390   18.3159   44.0813 C   0  0  2  0  0  0  0  0  0  0  0  0
   63.4251   18.9446   45.2593 C   0  0  1  0  0  0  0  0  0  0  0  0
   56.6337   19.4467   47.9177 F   0  0  0  0  0  0  0  0  0  0  0  0
   57.1743   18.3474   46.1582 F   0  0  0  0  0  0  0  0  0  0  0  0
   58.4898   22.3741   48.5546 N   0  0  0  0  0  0  0  0  0  0  0  0
   60.2632   23.6857   47.6372 N   0  0  0  0  0  0  0  0  0  0  0  0
   61.9158   22.8223   46.0630 N   0  0  0  0  0  0  0  0  0  0  0  0
   60.6950   19.4318   45.8887 N   0  0  0  0  0  0  0  0  0  0  0  0
   61.5452   20.4373   45.4870 N   0  0  0  0  0  0  0  0  0  0  0  0
   60.8578   15.3864   44.6591 N   0  0  0  0  0  0  0  0  0  0  0  0
   58.1821   15.3972   45.2110 N   0  0  0  0  0  0  0  0  0  0  0  0
   58.7717   19.2988   47.3225 O   0  0  0  0  0  0  0  0  0  0  0  0
   62.4329   19.8104   43.3242 O   0  0  0  0  0  0  0  0  0  0  0  0
   62.2376   16.4342   42.7917 O   0  0  0  0  0  0  0  0  0  0  0  0
   63.3779   15.2680   44.6368 O   0  0  0  0  0  0  0  0  0  0  0  0
   57.4168   16.3579   52.5091 O   0  0  0  0  0  0  0  0  0  0  0  0
   61.1061   13.7958   46.2456 O   0  0  0  0  0  0  0  0  0  0  0  0
   62.2290   13.8820   43.0744 O   0  0  0  0  0  0  0  0  0  0  0  0
   65.3074   19.0186   43.7987 O   0  0  0  0  0  0  0  0  0  0  0  0
   64.4026   19.3648   46.1618 O   0  0  0  0  0  0  0  0  0  0  0  0
   62.2554   15.0647   43.8456 S   0  0  1  0  0  0  0  0  0  0  0  0
   59.2648   16.1918   46.8311 H   0  0  0  0  0  0  0  0  0  0  0  0
   58.9054   13.0216   49.7824 H   0  0  0  0  0  0  0  0  0  0  0  0
   58.4430   13.9552   52.0314 H   0  0  0  0  0  0  0  0  0  0  0  0
   57.7673   13.6568   46.9634 H   0  0  0  0  0  0  0  0  0  0  0  0
   59.4778   13.4362   47.5263 H   0  0  0  0  0  0  0  0  0  0  0  0
   57.0876   17.6709   50.2154 H   0  0  0  0  0  0  0  0  0  0  0  0
   57.6204   16.7411   47.9421 H   0  0  0  0  0  0  0  0  0  0  0  0
   57.3596   20.3915   46.2690 H   0  0  0  0  0  0  0  0  0  0  0  0
   63.3106   21.1355   44.6259 H   0  0  0  0  0  0  0  0  0  0  0  0
   63.5242   18.6002   42.0333 H   0  0  0  0  0  0  0  0  0  0  0  0
   61.7001   17.5268   44.2967 H   0  0  0  0  0  0  0  0  0  0  0  0
   61.0601   17.9485   42.6469 H   0  0  0  0  0  0  0  0  0  0  0  0
   61.8578   24.7976   46.7865 H   0  0  0  0  0  0  0  0  0  0  0  0
   64.4561   17.2676   44.1840 H   0  0  0  0  0  0  0  0  0  0  0  0
   62.7182   18.2721   45.7672 H   0  0  0  0  0  0  0  0  0  0  0  0
   58.1414   23.1858   49.0844 H   0  0  0  0  0  0  0  0  0  0  0  0
   58.0155   21.4635   48.6366 H   0  0  0  0  0  0  0  0  0  0  0  0
   60.2537   16.1448   44.3117 H   0  0  0  0  0  0  0  0  0  0  0  0
   57.2427   15.5684   45.5971 H   0  0  0  0  0  0  0  0  0  0  0  0
   58.4670   16.2001   44.6322 H   0  0  0  0  0  0  0  0  0  0  0  0
   58.1655   14.5454   44.6322 H   0  0  0  0  0  0  0  0  0  0  0  0
   57.0321   17.2649   52.6065 H   0  0  0  0  0  0  0  0  0  0  0  0
   65.7466   19.2828   44.6457 H   0  0  0  0  0  0  0  0  0  0  0  0
   64.0791   19.2258   47.0871 H   0  0  0  0  0  0  0  0  0  0  0  0
  1  6  1  0
  1 10  1  0
  1 29  1  0
  2  3  2  0
  2  6  1  0
  2  8  1  0
  3  4  1  0
  4  5  2  0
  5  7  1  0
  5 34  1  0
  7  8  2  0
  9 21  1  0
  9 22  1  0
  9 30  1  0
 10 28  1  0
 10 35  2  0
 11 20  1  0
 11 27  1  0
 11 31  1  0
 12 13  1  0
 12 19  1  0
 12 31  1  0
 13 32  1  0
 14 17  2  0
 14 23  1  0
 14 24  1  0
 15 24  2  0
 15 25  1  0
 16 17  1  0
 16 25  2  0
 16 27  1  0
 17 18  1  0
 18 26  2  0
 18 30  1  0
 19 20  1  0
 19 37  1  0
 20 38  1  0
 26 27  1  0
 39 28  1  0
 39 32  1  6
 33 39  2  0
 36 39  2  0
  1 40  1  1
  3 41  1  0
  4 42  1  0
  6 43  1  0
  6 44  1  0
  7 45  1  0
  8 46  1  0
  9 47  1  6
 11 48  1  6
 12 49  1  6
 13 50  1  0
 13 51  1  0
 15 52  1  0
 19 53  1  1
 20 54  1  1
 23 55  1  0
 23 56  1  0
 28 57  1  0
 29 58  1  0
 29 59  1  0
 29 60  1  0
 34 61  1  0
 37 62  1  0
 38 63  1  0
M  CHG  1  29   1
M  END
>  <filename_input>  (8) 
7ROU_66I_docked.sdf

>  <pdb_id>  (8) 
7ROU_66I

>  <pose_rank>  (8) 
7

>  <num_atoms_heavy>  (8) 
39

>  <num_torsions>  (8) 
10

>  <pose>  (8) 
[62.730710444706595, 20.200988526108233, 44.649250079322826, -1.950777297697487, -0.3459916422565332, 5.810231309396577, 19.012550594435766, -1.3908459580857833, -1.3277094343012823, 50.58625676834933, 0.03037017666202354, 21.597169161146645, -11.731018066427064, -2.5197146407191675, 5.466785886297392, -1.576859080184339]

>  <energy>  (8) 
-845.9316190103416

>  <inter_energy>  (8) 
-840.8497782838843

>  <intra_energy>  (8) 
10.19190519164132

>  <rmsd>  (8) 
6.76861

>  <sdf_rank>  (8) 
0

$$$$

     RDKit          3D

 63 66  0  0  0  0  0  0  0  0999 V2000
   58.4289   15.2248   46.8515 C   0  0  1  0  0  0  0  0  0  0  0  0
   56.3967   13.7461   46.3574 C   0  0  0  0  0  0  0  0  0  0  0  0
   55.0959   14.0914   46.7142 C   0  0  0  0  0  0  0  0  0  0  0  0
   54.0110   13.8667   45.8668 C   0  0  0  0  0  0  0  0  0  0  0  0
   54.2103   13.2231   44.6175 C   0  0  0  0  0  0  0  0  0  0  0  0
   57.5277   14.0437   47.3409 C   0  0  0  0  0  0  0  0  0  0  0  0
   55.5136   12.8735   44.2155 C   0  0  0  0  0  0  0  0  0  0  0  0
   56.6095   13.1235   45.0741 C   0  0  0  0  0  0  0  0  0  0  0  0
   56.8127   19.2763   47.3316 C   0  0  2  0  0  0  0  0  0  0  0  0
   59.6633   14.6079   46.2104 C   0  0  0  0  0  0  0  0  0  0  0  0
   61.9535   20.3658   45.1404 C   0  0  2  0  0  0  0  0  0  0  0  0
   62.3771   18.6819   43.6422 C   0  0  2  0  0  0  0  0  0  0  0  0
   61.3790   17.5763   43.9820 C   0  0  0  0  0  0  0  0  0  0  0  0
   58.8711   22.5047   48.3768 C   0  0  0  0  0  0  0  0  0  0  0  0
   60.5821   23.8747   47.4677 C   0  0  0  0  0  0  0  0  0  0  0  0
   60.4950   21.7098   46.7360 C   0  0  0  0  0  0  0  0  0  0  0  0
   59.3856   21.4186   47.5697 C   0  0  0  0  0  0  0  0  0  0  0  0
   59.0863   20.0267   47.3185 C   0  0  0  0  0  0  0  0  0  0  0  0
   63.5333   18.5971   44.6556 C   0  0  2  0  0  0  0  0  0  0  0  0
   62.8086   19.2489   45.8142 C   0  0  1  0  0  0  0  0  0  0  0  0
   56.0724   20.2155   47.9552 F   0  0  0  0  0  0  0  0  0  0  0  0
   56.2665   18.0970   47.6890 F   0  0  0  0  0  0  0  0  0  0  0  0
   57.7834   22.3195   49.2334 N   0  0  0  0  0  0  0  0  0  0  0  0
   59.5007   23.6986   48.3084 N   0  0  0  0  0  0  0  0  0  0  0  0
   61.1246   22.9224   46.6605 N   0  0  0  0  0  0  0  0  0  0  0  0
   59.9720   19.5127   46.4121 N   0  0  0  0  0  0  0  0  0  0  0  0
   60.7883   20.5491   46.0189 N   0  0  0  0  0  0  0  0  0  0  0  0
   60.2222   15.4008   45.2801 N   0  0  0  0  0  0  0  0  0  0  0  0
   57.7362   16.0671   45.8356 N   0  0  0  0  0  0  0  0  0  0  0  0
   58.0948   19.2917   47.8954 O   0  0  0  0  0  0  0  0  0  0  0  0
   61.6408   19.8300   43.8707 O   0  0  0  0  0  0  0  0  0  0  0  0
   61.7252   16.4410   43.5059 O   0  0  0  0  0  0  0  0  0  0  0  0
   62.7150   15.0125   45.2507 O   0  0  0  0  0  0  0  0  0  0  0  0
   53.1458   13.0091   43.7905 O   0  0  0  0  0  0  0  0  0  0  0  0
   60.1098   13.5172   46.5244 O   0  0  0  0  0  0  0  0  0  0  0  0
   61.4387   13.8903   43.5791 O   0  0  0  0  0  0  0  0  0  0  0  0
   64.6034   19.3913   44.2521 O   0  0  0  0  0  0  0  0  0  0  0  0
   63.7738   19.8484   46.6240 O   0  0  0  0  0  0  0  0  0  0  0  0
   61.5850   14.9967   44.4444 S   0  0  1  0  0  0  0  0  0  0  0  0
   58.6776   15.8697   47.7073 H   0  0  0  0  0  0  0  0  0  0  0  0
   54.9182   14.5562   47.6952 H   0  0  0  0  0  0  0  0  0  0  0  0
   53.0025   14.1877   46.1664 H   0  0  0  0  0  0  0  0  0  0  0  0
   58.1499   13.1432   47.4507 H   0  0  0  0  0  0  0  0  0  0  0  0
   57.0773   14.3333   48.3017 H   0  0  0  0  0  0  0  0  0  0  0  0
   55.6795   12.4060   43.2337 H   0  0  0  0  0  0  0  0  0  0  0  0
   57.6262   12.8424   44.7622 H   0  0  0  0  0  0  0  0  0  0  0  0
   56.8499   19.4375   46.2441 H   0  0  0  0  0  0  0  0  0  0  0  0
   62.4255   21.3505   45.0076 H   0  0  0  0  0  0  0  0  0  0  0  0
   62.7991   18.6320   42.6276 H   0  0  0  0  0  0  0  0  0  0  0  0
   61.3047   17.4922   45.0763 H   0  0  0  0  0  0  0  0  0  0  0  0
   60.4132   17.8476   43.5309 H   0  0  0  0  0  0  0  0  0  0  0  0
   61.0456   24.8721   47.4486 H   0  0  0  0  0  0  0  0  0  0  0  0
   63.9679   17.6014   44.8278 H   0  0  0  0  0  0  0  0  0  0  0  0
   62.2035   18.5533   46.4142 H   0  0  0  0  0  0  0  0  0  0  0  0
   57.4335   23.1061   49.7989 H   0  0  0  0  0  0  0  0  0  0  0  0
   57.3313   21.3964   49.2997 H   0  0  0  0  0  0  0  0  0  0  0  0
   59.7764   16.3072   45.0790 H   0  0  0  0  0  0  0  0  0  0  0  0
   57.1562   16.7724   46.3121 H   0  0  0  0  0  0  0  0  0  0  0  0
   58.4364   16.5397   45.2463 H   0  0  0  0  0  0  0  0  0  0  0  0
   57.1373   15.4713   45.2463 H   0  0  0  0  0  0  0  0  0  0  0  0
   53.2791   12.5607   42.9180 H   0  0  0  0  0  0  0  0  0  0  0  0
   65.0742   19.7407   45.0499 H   0  0  0  0  0  0  0  0  0  0  0  0
   63.5419   19.7044   47.5756 H   0  0  0  0  0  0  0  0  0  0  0  0
  1  6  1  0
  1 10  1  0
  1 29  1  0
  2  3  2  0
  2  6  1  0
  2  8  1  0
  3  4  1  0
  4  5  2  0
  5  7  1  0
  5 34  1  0
  7  8  2  0
  9 21  1  0
  9 22  1  0
  9 30  1  0
 10 28  1  0
 10 35  2  0
 11 20  1  0
 11 27  1  0
 11 31  1  0
 12 13  1  0
 12 19  1  0
 12 31  1  0
 13 32  1  0
 14 17  2  0
 14 23  1  0
 14 24  1  0
 15 24  2  0
 15 25  1  0
 16 17  1  0
 16 25  2  0
 16 27  1  0
 17 18  1  0
 18 26  2  0
 18 30  1  0
 19 20  1  0
 19 37  1  0
 20 38  1  0
 26 27  1  0
 39 28  1  0
 39 32  1  6
 33 39  2  0
 36 39  2  0
  1 40  1  1
  3 41  1  0
  4 42  1  0
  6 43  1  0
  6 44  1  0
  7 45  1  0
  8 46  1  0
  9 47  1  6
 11 48  1  6
 12 49  1  6
 13 50  1  0
 13 51  1  0
 15 52  1  0
 19 53  1  1
 20 54  1  1
 23 55  1  0
 23 56  1  0
 28 57  1  0
 29 58  1  0
 29 59  1  0
 29 60  1  0
 34 61  1  0
 37 62  1  0
 38 63  1  0
M  CHG  1  29   1
M  END
>  <filename_input>  (9) 
7ROU_66I_docked.sdf

>  <pdb_id>  (9) 
7ROU_66I

>  <pose_rank>  (9) 
8

>  <num_atoms_heavy>  (9) 
39

>  <num_torsions>  (9) 
10

>  <pose>  (9) 
[61.95352503718478, 20.36584851104547, 45.140359931098345, -0.04416794370663398, 0.05457253093466788, -0.030009766059893774, 6.298321114610772, -1.2077725897208442, -0.5070062795486219, 6.480223357595174, 6.6109055527342795, 8.876541284159492, 0.6974405156762946, 3.523459674136156, -4.800398489368602, -0.8787806952496224]

>  <energy>  (9) 
-834.9776885267333

>  <inter_energy>  (9) 
-823.3111100205995

>  <intra_energy>  (9) 
17.711524350401422

>  <rmsd>  (9) 
6.67994

>  <sdf_rank>  (9) 
0

$$$$

     RDKit          3D

 63 66  0  0  0  0  0  0  0  0999 V2000
   58.2794   22.0834   47.2429 C   0  0  1  0  0  0  0  0  0  0  0  0
   57.2678   21.2527   49.4445 C   0  0  0  0  0  0  0  0  0  0  0  0
   56.3702   20.2045   49.6295 C   0  0  0  0  0  0  0  0  0  0  0  0
   56.4836   19.3116   50.6950 C   0  0  0  0  0  0  0  0  0  0  0  0
   57.5100   19.4873   51.6594 C   0  0  0  0  0  0  0  0  0  0  0  0
   57.0777   22.1737   48.2401 C   0  0  0  0  0  0  0  0  0  0  0  0
   58.4460   20.5265   51.4972 C   0  0  0  0  0  0  0  0  0  0  0  0
   58.3336   21.4150   50.4023 C   0  0  0  0  0  0  0  0  0  0  0  0
   61.3100   12.9017   44.2664 C   0  0  2  0  0  0  0  0  0  0  0  0
   57.9689   20.9542   46.2714 C   0  0  0  0  0  0  0  0  0  0  0  0
   63.3237   17.7659   44.9990 C   0  0  2  0  0  0  0  0  0  0  0  0
   61.3342   18.7817   45.5179 C   0  0  2  0  0  0  0  0  0  0  0  0
   60.2542   17.9036   44.8881 C   0  0  0  0  0  0  0  0  0  0  0  0
   65.5890   13.9985   42.7130 C   0  0  0  0  0  0  0  0  0  0  0  0
   66.8702   15.9672   43.0505 C   0  0  0  0  0  0  0  0  0  0  0  0
   64.7259   15.9820   43.8452 C   0  0  0  0  0  0  0  0  0  0  0  0
   64.4874   14.6662   43.3734 C   0  0  0  0  0  0  0  0  0  0  0  0
   63.1196   14.3801   43.7440 C   0  0  0  0  0  0  0  0  0  0  0  0
   61.9354   19.6571   44.4030 C   0  0  2  0  0  0  0  0  0  0  0  0
   62.8039   18.5857   43.7782 C   0  0  1  0  0  0  0  0  0  0  0  0
   61.0796   11.5802   44.1269 F   0  0  0  0  0  0  0  0  0  0  0  0
   60.2664   13.5103   43.6688 F   0  0  0  0  0  0  0  0  0  0  0  0
   65.4547   12.7024   42.2097 N   0  0  0  0  0  0  0  0  0  0  0  0
   66.7448   14.6822   42.5603 N   0  0  0  0  0  0  0  0  0  0  0  0
   65.9004   16.6687   43.6987 N   0  0  0  0  0  0  0  0  0  0  0  0
   62.5687   15.4610   44.3751 N   0  0  0  0  0  0  0  0  0  0  0  0
   63.5614   16.4084   44.4851 N   0  0  0  0  0  0  0  0  0  0  0  0
   58.1806   19.7362   46.7988 N   0  0  0  0  0  0  0  0  0  0  0  0
   58.4522   23.3441   46.4668 N   0  0  0  0  0  0  0  0  0  0  0  0
   62.4352   13.2278   43.4986 O   0  0  0  0  0  0  0  0  0  0  0  0
   62.2691   17.8523   45.9356 O   0  0  0  0  0  0  0  0  0  0  0  0
   59.1328   18.5087   44.7800 O   0  0  0  0  0  0  0  0  0  0  0  0
   58.3005   17.2178   46.7051 O   0  0  0  0  0  0  0  0  0  0  0  0
   57.6189   18.6084   52.6980 O   0  0  0  0  0  0  0  0  0  0  0  0
   57.5511   21.1366   45.1401 O   0  0  0  0  0  0  0  0  0  0  0  0
   56.6409   18.2601   45.3480 O   0  0  0  0  0  0  0  0  0  0  0  0
   62.7310   20.6652   44.9410 O   0  0  0  0  0  0  0  0  0  0  0  0
   63.8856   19.2273   43.1739 O   0  0  0  0  0  0  0  0  0  0  0  0
   57.9017   18.3325   45.9800 S   0  0  1  0  0  0  0  0  0  0  0  0
   59.2069   21.9086   47.8078 H   0  0  0  0  0  0  0  0  0  0  0  0
   55.5456   20.0766   48.9128 H   0  0  0  0  0  0  0  0  0  0  0  0
   55.7786   18.4723   50.7877 H   0  0  0  0  0  0  0  0  0  0  0  0
   56.9876   23.2107   48.5958 H   0  0  0  0  0  0  0  0  0  0  0  0
   56.1683   21.8571   47.7083 H   0  0  0  0  0  0  0  0  0  0  0  0
   59.2647   20.6475   52.2219 H   0  0  0  0  0  0  0  0  0  0  0  0
   59.0607   22.2315   50.2812 H   0  0  0  0  0  0  0  0  0  0  0  0
   61.4465   13.1861   45.3202 H   0  0  0  0  0  0  0  0  0  0  0  0
   64.2549   18.1068   45.4750 H   0  0  0  0  0  0  0  0  0  0  0  0
   60.9852   19.4398   46.3273 H   0  0  0  0  0  0  0  0  0  0  0  0
   60.5882   17.5980   43.8856 H   0  0  0  0  0  0  0  0  0  0  0  0
   60.1035   17.0352   45.5462 H   0  0  0  0  0  0  0  0  0  0  0  0
   67.8388   16.4677   42.9043 H   0  0  0  0  0  0  0  0  0  0  0  0
   61.2240   20.1777   43.7450 H   0  0  0  0  0  0  0  0  0  0  0  0
   62.2837   17.9615   43.0367 H   0  0  0  0  0  0  0  0  0  0  0  0
   66.2515   12.2460   41.7432 H   0  0  0  0  0  0  0  0  0  0  0  0
   64.5588   12.2032   42.3050 H   0  0  0  0  0  0  0  0  0  0  0  0
   58.5352   19.6767   47.7640 H   0  0  0  0  0  0  0  0  0  0  0  0
   58.5607   24.1354   47.1171 H   0  0  0  0  0  0  0  0  0  0  0  0
   59.2909   23.2698   45.8735 H   0  0  0  0  0  0  0  0  0  0  0  0
   57.6245   23.4982   45.8735 H   0  0  0  0  0  0  0  0  0  0  0  0
   58.3329   18.7263   53.3735 H   0  0  0  0  0  0  0  0  0  0  0  0
   62.6961   20.6210   45.9294 H   0  0  0  0  0  0  0  0  0  0  0  0
   64.4890   19.5853   43.8724 H   0  0  0  0  0  0  0  0  0  0  0  0
  1  6  1  0
  1 10  1  0
  1 29  1  0
  2  3  2  0
  2  6  1  0
  2  8  1  0
  3  4  1  0
  4  5  2  0
  5  7  1  0
  5 34  1  0
  7  8  2  0
  9 21  1  0
  9 22  1  0
  9 30  1  0
 10 28  1  0
 10 35  2  0
 11 20  1  0
 11 27  1  0
 11 31  1  0
 12 13  1  0
 12 19  1  0
 12 31  1  0
 13 32  1  0
 14 17  2  0
 14 23  1  0
 14 24  1  0
 15 24  2  0
 15 25  1  0
 16 17  1  0
 16 25  2  0
 16 27  1  0
 17 18  1  0
 18 26  2  0
 18 30  1  0
 19 20  1  0
 19 37  1  0
 20 38  1  0
 26 27  1  0
 39 28  1  0
 39 32  1  6
 33 39  2  0
 36 39  2  0
  1 40  1  1
  3 41  1  0
  4 42  1  0
  6 43  1  0
  6 44  1  0
  7 45  1  0
  8 46  1  0
  9 47  1  1
 11 48  1  1
 12 49  1  1
 13 50  1  0
 13 51  1  0
 15 52  1  0
 19 53  1  6
 20 54  1  6
 23 55  1  0
 23 56  1  0
 28 57  1  0
 29 58  1  0
 29 59  1  0
 29 60  1  0
 34 61  1  0
 37 62  1  0
 38 63  1  0
M  CHG  1  29   1
M  END
>  <filename_input>  (10) 
7ROU_66I_docked.sdf

>  <pdb_id>  (10) 
7ROU_66I

>  <pose_rank>  (10) 
9

>  <num_atoms_heavy>  (10) 
39

>  <num_torsions>  (10) 
10

>  <pose>  (10) 
[63.32372125831154, 17.7658688298118, 44.99897302683766, -2.7205697878467836, -2.3224358465917936, -0.40992035389136927, -0.5185250006319273, -12.531119369758363, -1.668514002106703, 6.457962383050499, -3.7371190417228513, 3.7354749393448867, -7.588636533403422, 5.777144992809692, 4.752954185191544, -7.301661692891725]

>  <energy>  (10) 
-624.7607580713026

>  <inter_energy>  (10) 
-655.1750992973409

>  <intra_energy>  (10) 
24.958397798677765

>  <rmsd>  (10) 
10.1352

>  <sdf_rank>  (10) 
0

$$$$

     RDKit          3D

 63 66  0  0  0  0  0  0  0  0999 V2000
   65.7518   15.0628   43.6223 C   0  0  1  0  0  0  0  0  0  0  0  0
   66.6988   14.4626   41.3193 C   0  0  0  0  0  0  0  0  0  0  0  0
   67.0438   13.2325   40.7659 C   0  0  0  0  0  0  0  0  0  0  0  0
   68.1702   13.0731   39.9589 C   0  0  0  0  0  0  0  0  0  0  0  0
   69.0320   14.1755   39.7210 C   0  0  0  0  0  0  0  0  0  0  0  0
   65.4380   14.5498   42.1784 C   0  0  0  0  0  0  0  0  0  0  0  0
   68.7073   15.4389   40.2508 C   0  0  0  0  0  0  0  0  0  0  0  0
   67.5521   15.5941   41.0521 C   0  0  0  0  0  0  0  0  0  0  0  0
   57.1098   20.2294   47.1689 C   0  0  2  0  0  0  0  0  0  0  0  0
   64.4224   15.4356   44.2619 C   0  0  0  0  0  0  0  0  0  0  0  0
   57.6505   14.7490   46.2217 C   0  0  2  0  0  0  0  0  0  0  0  0
   59.1972   13.9142   44.7486 C   0  0  2  0  0  0  0  0  0  0  0  0
   60.1910   15.0511   44.5166 C   0  0  0  0  0  0  0  0  0  0  0  0
   58.7260   17.6749   50.0730 C   0  0  0  0  0  0  0  0  0  0  0  0
   59.7439   15.5315   50.0446 C   0  0  0  0  0  0  0  0  0  0  0  0
   58.3946   16.0572   48.2747 C   0  0  0  0  0  0  0  0  0  0  0  0
   58.0931   17.3322   48.8170 C   0  0  0  0  0  0  0  0  0  0  0  0
   57.1926   17.9392   47.8626 C   0  0  0  0  0  0  0  0  0  0  0  0
   57.9539   14.1952   43.8849 C   0  0  2  0  0  0  0  0  0  0  0  0
   57.3472   15.2564   44.7783 C   0  0  1  0  0  0  0  0  0  0  0  0
   56.4334   20.2257   46.0021 F   0  0  0  0  0  0  0  0  0  0  0  0
   58.3763   19.8987   46.8475 F   0  0  0  0  0  0  0  0  0  0  0  0
   58.4917   18.9054   50.6912 N   0  0  0  0  0  0  0  0  0  0  0  0
   59.5227   16.7508   50.6542 N   0  0  0  0  0  0  0  0  0  0  0  0
   59.2098   15.1269   48.8598 N   0  0  0  0  0  0  0  0  0  0  0  0
   56.9527   17.0762   46.8294 N   0  0  0  0  0  0  0  0  0  0  0  0
   57.7264   15.9596   47.0534 N   0  0  0  0  0  0  0  0  0  0  0  0
   63.8726   14.4239   44.9552 N   0  0  0  0  0  0  0  0  0  0  0  0
   66.4020   14.0118   44.4554 N   0  0  0  0  0  0  0  0  0  0  0  0
   56.6252   19.1746   47.9528 O   0  0  0  0  0  0  0  0  0  0  0  0
   58.8788   14.0637   46.0860 O   0  0  0  0  0  0  0  0  0  0  0  0
   61.3946   14.6338   44.4035 O   0  0  0  0  0  0  0  0  0  0  0  0
   62.0923   13.3657   46.3960 O   0  0  0  0  0  0  0  0  0  0  0  0
   70.1308   14.0150   38.9273 O   0  0  0  0  0  0  0  0  0  0  0  0
   63.9204   16.5434   44.1717 O   0  0  0  0  0  0  0  0  0  0  0  0
   62.3105   15.7353   46.5346 O   0  0  0  0  0  0  0  0  0  0  0  0
   57.1236   13.0785   43.8358 O   0  0  0  0  0  0  0  0  0  0  0  0
   55.9672   15.2327   44.5740 O   0  0  0  0  0  0  0  0  0  0  0  0
   62.4465   14.5543   45.7724 S   0  0  1  0  0  0  0  0  0  0  0  0
   66.4429   15.9164   43.5615 H   0  0  0  0  0  0  0  0  0  0  0  0
   66.4080   12.3587   40.9717 H   0  0  0  0  0  0  0  0  0  0  0  0
   68.3903   12.0944   39.5075 H   0  0  0  0  0  0  0  0  0  0  0  0
   64.9842   13.5501   42.2467 H   0  0  0  0  0  0  0  0  0  0  0  0
   64.7503   15.2652   41.7038 H   0  0  0  0  0  0  0  0  0  0  0  0
   69.3521   16.3052   40.0417 H   0  0  0  0  0  0  0  0  0  0  0  0
   67.3040   16.5800   41.4722 H   0  0  0  0  0  0  0  0  0  0  0  0
   57.0211   21.1928   47.6923 H   0  0  0  0  0  0  0  0  0  0  0  0
   56.9135   14.0759   46.6842 H   0  0  0  0  0  0  0  0  0  0  0  0
   59.5730   12.9102   44.5018 H   0  0  0  0  0  0  0  0  0  0  0  0
   59.9128   15.5800   43.5931 H   0  0  0  0  0  0  0  0  0  0  0  0
   60.1486   15.7160   45.3918 H   0  0  0  0  0  0  0  0  0  0  0  0
   60.4101   14.8254   50.5619 H   0  0  0  0  0  0  0  0  0  0  0  0
   58.1325   14.4626   42.8330 H   0  0  0  0  0  0  0  0  0  0  0  0
   57.7303   16.2710   44.5946 H   0  0  0  0  0  0  0  0  0  0  0  0
   58.9525   19.1288   51.5848 H   0  0  0  0  0  0  0  0  0  0  0  0
   57.8580   19.5893   50.2534 H   0  0  0  0  0  0  0  0  0  0  0  0
   64.3676   13.5209   44.9772 H   0  0  0  0  0  0  0  0  0  0  0  0
   66.2662   14.2313   45.4525 H   0  0  0  0  0  0  0  0  0  0  0  0
   65.9794   13.0964   44.2447 H   0  0  0  0  0  0  0  0  0  0  0  0
   67.4098   13.9813   44.2447 H   0  0  0  0  0  0  0  0  0  0  0  0
   70.7352   14.7806   38.7581 H   0  0  0  0  0  0  0  0  0  0  0  0
   56.9072   12.7874   44.7569 H   0  0  0  0  0  0  0  0  0  0  0  0
   55.5041   15.2248   45.4490 H   0  0  0  0  0  0  0  0  0  0  0  0
  1  6  1  0
  1 10  1  0
  1 29  1  0
  2  3  2  0
  2  6  1  0
  2  8  1  0
  3  4  1  0
  4  5  2  0
  5  7  1  0
  5 34  1  0
  7  8  2  0
  9 21  1  0
  9 22  1  0
  9 30  1  0
 10 28  1  0
 10 35  2  0
 11 20  1  0
 11 27  1  0
 11 31  1  0
 12 13  1  0
 12 19  1  0
 12 31  1  0
 13 32  1  0
 14 17  2  0
 14 23  1  0
 14 24  1  0
 15 24  2  0
 15 25  1  0
 16 17  1  0
 16 25  2  0
 16 27  1  0
 17 18  1  0
 18 26  2  0
 18 30  1  0
 19 20  1  0
 19 37  1  0
 20 38  1  0
 26 27  1  0
 39 28  1  0
 39 32  1  6
 33 39  2  0
 36 39  2  0
  1 40  1  6
  3 41  1  0
  4 42  1  0
  6 43  1  0
  6 44  1  0
  7 45  1  0
  8 46  1  0
  9 47  1  1
 11 48  1  1
 12 49  1  1
 13 50  1  0
 13 51  1  0
 15 52  1  0
 19 53  1  6
 20 54  1  6
 23 55  1  0
 23 56  1  0
 28 57  1  0
 29 58  1  0
 29 59  1  0
 29 60  1  0
 34 61  1  0
 37 62  1  0
 38 63  1  0
M  CHG  1  29   1
M  END
>  <filename_input>  (11) 
7ROU_66I_docked.sdf

>  <pdb_id>  (11) 
7ROU_66I

>  <pose_rank>  (11) 
10

>  <num_atoms_heavy>  (11) 
39

>  <num_torsions>  (11) 
10

>  <pose>  (11) 
[57.650452148139095, 14.748974376676603, 46.22169841792903, 1.5004362193566076, -1.7382450758476056, -2.1585741047514673, 1.5398174298399716, -0.9169726479209596, 2.7064092630854057, -13.347116908774662, -28.82616144568667, -25.988940793282048, -7.512828378529747, -3.8289298214546776, 6.1152355004492565, -9.433539997991065]

>  <energy>  (11) 
-800.1303880559933

>  <inter_energy>  (11) 
-808.201942810635

>  <intra_energy>  (11) 
23.570684850534178

>  <rmsd>  (11) 
4.5005

>  <sdf_rank>  (11) 
0

$$$$

     RDKit          3D

 63 66  0  0  0  0  0  0  0  0999 V2000
   57.6507   13.4389   45.4747 C   0  0  1  0  0  0  0  0  0  0  0  0
   55.6712   12.0500   46.3191 C   0  0  0  0  0  0  0  0  0  0  0  0
   54.4184   11.9244   45.7246 C   0  0  0  0  0  0  0  0  0  0  0  0
   53.2429   11.8893   46.4745 C   0  0  0  0  0  0  0  0  0  0  0  0
   53.2990   12.0331   47.8854 C   0  0  0  0  0  0  0  0  0  0  0  0
   56.9079   12.0634   45.4217 C   0  0  0  0  0  0  0  0  0  0  0  0
   54.5489   12.1464   48.5237 C   0  0  0  0  0  0  0  0  0  0  0  0
   55.7364   12.1614   47.7555 C   0  0  0  0  0  0  0  0  0  0  0  0
   57.6390   18.6289   48.2075 C   0  0  2  0  0  0  0  0  0  0  0  0
   59.0058   13.2398   44.8118 C   0  0  0  0  0  0  0  0  0  0  0  0
   61.7553   19.9533   44.6672 C   0  0  2  0  0  0  0  0  0  0  0  0
   62.1430   18.0076   43.5169 C   0  0  2  0  0  0  0  0  0  0  0  0
   61.1226   17.0070   44.0570 C   0  0  0  0  0  0  0  0  0  0  0  0
   58.9508   22.5094   47.8533 C   0  0  0  0  0  0  0  0  0  0  0  0
   60.9512   23.5528   47.1180 C   0  0  0  0  0  0  0  0  0  0  0  0
   60.4891   21.4848   46.2582 C   0  0  0  0  0  0  0  0  0  0  0  0
   59.2932   21.3815   47.0131 C   0  0  0  0  0  0  0  0  0  0  0  0
   58.7441   20.0900   46.6657 C   0  0  0  0  0  0  0  0  0  0  0  0
   63.2980   18.0930   44.5315 C   0  0  2  0  0  0  0  0  0  0  0  0
   62.5878   18.9673   45.5433 C   0  0  1  0  0  0  0  0  0  0  0  0
   57.7601   19.3302   49.3531 F   0  0  0  0  0  0  0  0  0  0  0  0
   58.8032   17.9633   48.0725 F   0  0  0  0  0  0  0  0  0  0  0  0
   57.7954   22.5046   48.6384 N   0  0  0  0  0  0  0  0  0  0  0  0
   59.8048   23.5562   47.8881 N   0  0  0  0  0  0  0  0  0  0  0  0
   61.3473   22.5502   46.2870 N   0  0  0  0  0  0  0  0  0  0  0  0
   59.5681   19.4529   45.7796 N   0  0  0  0  0  0  0  0  0  0  0  0
   60.5948   20.3235   45.4914 N   0  0  0  0  0  0  0  0  0  0  0  0
   59.7847   14.3334   44.8728 N   0  0  0  0  0  0  0  0  0  0  0  0
   56.9098   14.4984   44.7331 N   0  0  0  0  0  0  0  0  0  0  0  0
   57.5931   19.5407   47.1452 O   0  0  0  0  0  0  0  0  0  0  0  0
   61.4306   19.1929   43.5212 O   0  0  0  0  0  0  0  0  0  0  0  0
   61.6730   16.0316   44.6743 O   0  0  0  0  0  0  0  0  0  0  0  0
   62.2098   13.6529   45.0185 O   0  0  0  0  0  0  0  0  0  0  0  0
   52.1460   11.9941   48.6149 O   0  0  0  0  0  0  0  0  0  0  0  0
   59.3551   12.1901   44.2983 O   0  0  0  0  0  0  0  0  0  0  0  0
   61.3921   14.2389   42.8574 O   0  0  0  0  0  0  0  0  0  0  0  0
   64.3839   18.7743   43.9881 O   0  0  0  0  0  0  0  0  0  0  0  0
   63.5658   19.6897   46.2277 O   0  0  0  0  0  0  0  0  0  0  0  0
   61.3138   14.3930   44.2590 S   0  0  1  0  0  0  0  0  0  0  0  0
   57.7389   13.7632   46.5221 H   0  0  0  0  0  0  0  0  0  0  0  0
   54.3537   11.8506   44.6290 H   0  0  0  0  0  0  0  0  0  0  0  0
   52.2737   11.7505   45.9731 H   0  0  0  0  0  0  0  0  0  0  0  0
   56.5975   11.8663   44.3850 H   0  0  0  0  0  0  0  0  0  0  0  0
   57.5996   11.2877   45.7821 H   0  0  0  0  0  0  0  0  0  0  0  0
   54.6018   12.2232   49.6197 H   0  0  0  0  0  0  0  0  0  0  0  0
   56.7118   12.2582   48.2547 H   0  0  0  0  0  0  0  0  0  0  0  0
   56.7529   17.9772   48.2162 H   0  0  0  0  0  0  0  0  0  0  0  0
   62.2473   20.8851   44.3516 H   0  0  0  0  0  0  0  0  0  0  0  0
   62.5630   17.7576   42.5314 H   0  0  0  0  0  0  0  0  0  0  0  0
   60.4498   17.5300   44.7525 H   0  0  0  0  0  0  0  0  0  0  0  0
   60.5740   16.5925   43.1984 H   0  0  0  0  0  0  0  0  0  0  0  0
   61.6011   24.4380   47.1818 H   0  0  0  0  0  0  0  0  0  0  0  0
   63.7122   17.1393   44.8908 H   0  0  0  0  0  0  0  0  0  0  0  0
   61.9690   18.4105   46.2624 H   0  0  0  0  0  0  0  0  0  0  0  0
   57.5708   23.3179   49.2291 H   0  0  0  0  0  0  0  0  0  0  0  0
   57.1682   21.6877   48.6266 H   0  0  0  0  0  0  0  0  0  0  0  0
   59.4069   15.1776   45.3262 H   0  0  0  0  0  0  0  0  0  0  0  0
   56.4622   15.1384   45.4046 H   0  0  0  0  0  0  0  0  0  0  0  0
   57.5668   15.0264   44.1411 H   0  0  0  0  0  0  0  0  0  0  0  0
   56.1884   14.0625   44.1411 H   0  0  0  0  0  0  0  0  0  0  0  0
   52.1794   12.0939   49.5993 H   0  0  0  0  0  0  0  0  0  0  0  0
   64.9498   19.1294   44.7187 H   0  0  0  0  0  0  0  0  0  0  0  0
   63.4288   19.5885   47.2029 H   0  0  0  0  0  0  0  0  0  0  0  0
  1  6  1  0
  1 10  1  0
  1 29  1  0
  2  3  2  0
  2  6  1  0
  2  8  1  0
  3  4  1  0
  4  5  2  0
  5  7  1  0
  5 34  1  0
  7  8  2  0
  9 21  1  0
  9 22  1  0
  9 30  1  0
 10 28  1  0
 10 35  2  0
 11 20  1  0
 11 27  1  0
 11 31  1  0
 12 13  1  0
 12 19  1  0
 12 31  1  0
 13 32  1  0
 14 17  2  0
 14 23  1  0
 14 24  1  0
 15 24  2  0
 15 25  1  0
 16 17  1  0
 16 25  2  0
 16 27  1  0
 17 18  1  0
 18 26  2  0
 18 30  1  0
 19 20  1  0
 19 37  1  0
 20 38  1  0
 26 27  1  0
 39 28  1  0
 39 32  1  6
 33 39  2  0
 36 39  2  0
  1 40  1  1
  3 41  1  0
  4 42  1  0
  6 43  1  0
  6 44  1  0
  7 45  1  0
  8 46  1  0
  9 47  1  1
 11 48  1  6
 12 49  1  6
 13 50  1  0
 13 51  1  0
 15 52  1  0
 19 53  1  1
 20 54  1  1
 23 55  1  0
 23 56  1  0
 28 57  1  0
 29 58  1  0
 29 59  1  0
 29 60  1  0
 34 61  1  0
 37 62  1  0
 38 63  1  0
M  CHG  1  29   1
M  END
>  <filename_input>  (12) 
7ROU_66I_docked.sdf

>  <pdb_id>  (12) 
7ROU_66I

>  <pose_rank>  (12) 
11

>  <num_atoms_heavy>  (12) 
39

>  <num_torsions>  (12) 
10

>  <pose>  (12) 
[61.75529445919664, 19.953314924867524, 44.66722416649373, 5.746244577721065, -1.247753740090874, 1.3671758834801717, -0.29183133054783966, 1.849207707272038, 2.540742287743617, 1.0046193062888684, 1.9972322005498204, 0.7420719958494697, 0.6675942045553597, -2.2218205547464804, -0.1462315490354509, 3.013031225137076]

>  <energy>  (12) 
-699.9274547274857

>  <inter_energy>  (12) 
-709.2305390551497

>  <intra_energy>  (12) 
15.890197771877908

>  <rmsd>  (12) 
7.47054

>  <sdf_rank>  (12) 
0

$$$$

     RDKit          3D

 63 66  0  0  0  0  0  0  0  0999 V2000
   56.5102   19.3854   48.4357 C   0  0  1  0  0  0  0  0  0  0  0  0
   58.4504   21.0355   48.1653 C   0  0  0  0  0  0  0  0  0  0  0  0
   59.0869   20.8848   46.9361 C   0  0  0  0  0  0  0  0  0  0  0  0
   59.5564   21.9768   46.2063 C   0  0  0  0  0  0  0  0  0  0  0  0
   59.4351   23.2875   46.7372 C   0  0  0  0  0  0  0  0  0  0  0  0
   57.9530   19.7848   48.8888 C   0  0  0  0  0  0  0  0  0  0  0  0
   58.7832   23.4809   47.9701 C   0  0  0  0  0  0  0  0  0  0  0  0
   58.2933   22.3683   48.6931 C   0  0  0  0  0  0  0  0  0  0  0  0
   62.8031   12.3638   44.8126 C   0  0  2  0  0  0  0  0  0  0  0  0
   56.6147   18.0242   47.7636 C   0  0  0  0  0  0  0  0  0  0  0  0
   63.3404   17.6896   44.5117 C   0  0  2  0  0  0  0  0  0  0  0  0
   61.2730   18.2349   45.3410 C   0  0  2  0  0  0  0  0  0  0  0  0
   60.4070   16.9963   45.1178 C   0  0  0  0  0  0  0  0  0  0  0  0
   66.2916   14.2677   42.4792 C   0  0  0  0  0  0  0  0  0  0  0  0
   67.0527   16.5141   42.4029 C   0  0  0  0  0  0  0  0  0  0  0  0
   65.0494   16.1373   43.4396 C   0  0  0  0  0  0  0  0  0  0  0  0
   65.1154   14.7459   43.1744 C   0  0  0  0  0  0  0  0  0  0  0  0
   63.9014   14.2012   43.7399 C   0  0  0  0  0  0  0  0  0  0  0  0
   61.3637   18.9906   44.0025 C   0  0  2  0  0  0  0  0  0  0  0  0
   62.3791   18.0789   43.3467 C   0  0  1  0  0  0  0  0  0  0  0  0
   63.3386   12.8607   45.9464 F   0  0  0  0  0  0  0  0  0  0  0  0
   63.0880   11.0466   44.8316 F   0  0  0  0  0  0  0  0  0  0  0  0
   66.4504   12.9153   42.1679 N   0  0  0  0  0  0  0  0  0  0  0  0
   67.2182   15.1765   42.1021 N   0  0  0  0  0  0  0  0  0  0  0  0
   65.9937   17.0544   43.0660 N   0  0  0  0  0  0  0  0  0  0  0  0
   63.1481   15.2028   44.2867 N   0  0  0  0  0  0  0  0  0  0  0  0
   63.8723   16.3660   44.1535 N   0  0  0  0  0  0  0  0  0  0  0  0
   57.6018   17.9637   46.8535 N   0  0  0  0  0  0  0  0  0  0  0  0
   55.5764   19.2741   49.5921 N   0  0  0  0  0  0  0  0  0  0  0  0
   63.5151   12.8946   43.7295 O   0  0  0  0  0  0  0  0  0  0  0  0
   62.5043   17.6870   45.6509 O   0  0  0  0  0  0  0  0  0  0  0  0
   59.1705   17.2845   44.9648 O   0  0  0  0  0  0  0  0  0  0  0  0
   58.6528   15.6722   46.7529 O   0  0  0  0  0  0  0  0  0  0  0  0
   59.8927   24.3530   46.0172 O   0  0  0  0  0  0  0  0  0  0  0  0
   55.8914   17.0815   48.0386 O   0  0  0  0  0  0  0  0  0  0  0  0
   56.8980   16.1124   45.2007 O   0  0  0  0  0  0  0  0  0  0  0  0
   61.9075   20.2591   44.1869 O   0  0  0  0  0  0  0  0  0  0  0  0
   63.0853   18.8433   42.4174 O   0  0  0  0  0  0  0  0  0  0  0  0
   57.9592   16.6038   45.9924 S   0  0  1  0  0  0  0  0  0  0  0  0
   56.1153   20.1584   47.7602 H   0  0  0  0  0  0  0  0  0  0  0  0
   59.2237   19.8726   46.5276 H   0  0  0  0  0  0  0  0  0  0  0  0
   60.0199   21.8224   45.2208 H   0  0  0  0  0  0  0  0  0  0  0  0
   57.9448   19.9796   49.9714 H   0  0  0  0  0  0  0  0  0  0  0  0
   58.6308   18.9547   48.6410 H   0  0  0  0  0  0  0  0  0  0  0  0
   58.6549   24.4972   48.3710 H   0  0  0  0  0  0  0  0  0  0  0  0
   57.7915   22.5200   49.6602 H   0  0  0  0  0  0  0  0  0  0  0  0
   61.7284   12.5851   44.7343 H   0  0  0  0  0  0  0  0  0  0  0  0
   64.1990   18.3513   44.6987 H   0  0  0  0  0  0  0  0  0  0  0  0
   60.9019   18.9298   46.1087 H   0  0  0  0  0  0  0  0  0  0  0  0
   60.7620   16.4754   44.2163 H   0  0  0  0  0  0  0  0  0  0  0  0
   60.4942   16.3618   46.0121 H   0  0  0  0  0  0  0  0  0  0  0  0
   67.8461   17.2034   42.0783 H   0  0  0  0  0  0  0  0  0  0  0  0
   60.4186   19.1621   43.4664 H   0  0  0  0  0  0  0  0  0  0  0  0
   61.9398   17.2031   42.8468 H   0  0  0  0  0  0  0  0  0  0  0  0
   67.2954   12.5966   41.6726 H   0  0  0  0  0  0  0  0  0  0  0  0
   65.7224   12.2368   42.4336 H   0  0  0  0  0  0  0  0  0  0  0  0
   58.1640   18.8103   46.6854 H   0  0  0  0  0  0  0  0  0  0  0  0
   56.1094   19.3376   50.4711 H   0  0  0  0  0  0  0  0  0  0  0  0
   54.8877   20.0389   49.5521 H   0  0  0  0  0  0  0  0  0  0  0  0
   55.0868   18.3688   49.5521 H   0  0  0  0  0  0  0  0  0  0  0  0
   59.8106   25.2694   46.3827 H   0  0  0  0  0  0  0  0  0  0  0  0
   61.9876   20.4461   45.1558 H   0  0  0  0  0  0  0  0  0  0  0  0
   63.6741   19.4808   42.8938 H   0  0  0  0  0  0  0  0  0  0  0  0
  1  6  1  0
  1 10  1  0
  1 29  1  0
  2  3  2  0
  2  6  1  0
  2  8  1  0
  3  4  1  0
  4  5  2  0
  5  7  1  0
  5 34  1  0
  7  8  2  0
  9 21  1  0
  9 22  1  0
  9 30  1  0
 10 28  1  0
 10 35  2  0
 11 20  1  0
 11 27  1  0
 11 31  1  0
 12 13  1  0
 12 19  1  0
 12 31  1  0
 13 32  1  0
 14 17  2  0
 14 23  1  0
 14 24  1  0
 15 24  2  0
 15 25  1  0
 16 17  1  0
 16 25  2  0
 16 27  1  0
 17 18  1  0
 18 26  2  0
 18 30  1  0
 19 20  1  0
 19 37  1  0
 20 38  1  0
 26 27  1  0
 39 28  1  0
 39 32  1  6
 33 39  2  0
 36 39  2  0
  1 40  1  6
  3 41  1  0
  4 42  1  0
  6 43  1  0
  6 44  1  0
  7 45  1  0
  8 46  1  0
  9 47  1  6
 11 48  1  1
 12 49  1  1
 13 50  1  0
 13 51  1  0
 15 52  1  0
 19 53  1  6
 20 54  1  6
 23 55  1  0
 23 56  1  0
 28 57  1  0
 29 58  1  0
 29 59  1  0
 29 60  1  0
 34 61  1  0
 37 62  1  0
 38 63  1  0
M  CHG  1  29   1
M  END
>  <filename_input>  (13) 
7ROU_66I_docked.sdf

>  <pdb_id>  (13) 
7ROU_66I

>  <pose_rank>  (13) 
12

>  <num_atoms_heavy>  (13) 
39

>  <num_torsions>  (13) 
10

>  <pose>  (13) 
[63.34041797382334, 17.68964857717549, 44.511701161376976, 1.7388332910491804, 2.106959407610124, 0.01580869079853183, -0.3928078363632086, -0.19541951051903095, 0.4382377434218332, 38.071953860308255, 14.633207540381395, -27.533937030255448, -18.26415396886842, -37.69858908019325, -38.74116837000662, 5.768915739501536]

>  <energy>  (13) 
-770.7234272405141

>  <inter_energy>  (13) 
-791.1029173751315

>  <intra_energy>  (13) 
17.9096339538695

>  <rmsd>  (13) 
9.68025

>  <sdf_rank>  (13) 
0

$$$$

     RDKit          3D

 63 66  0  0  0  0  0  0  0  0999 V2000
   57.2929   12.2971   45.8080 C   0  0  1  0  0  0  0  0  0  0  0  0
   54.8785   11.9072   45.0467 C   0  0  0  0  0  0  0  0  0  0  0  0
   54.3197   10.7076   44.6139 C   0  0  0  0  0  0  0  0  0  0  0  0
   53.4176   10.6514   43.5516 C   0  0  0  0  0  0  0  0  0  0  0  0
   53.0821   11.8357   42.8448 C   0  0  0  0  0  0  0  0  0  0  0  0
   55.8460   11.8781   46.2293 C   0  0  0  0  0  0  0  0  0  0  0  0
   53.6150   13.0699   43.2633 C   0  0  0  0  0  0  0  0  0  0  0  0
   54.5140   13.1185   44.3542 C   0  0  0  0  0  0  0  0  0  0  0  0
   57.3572   20.3627   47.7951 C   0  0  2  0  0  0  0  0  0  0  0  0
   57.5702   13.6488   46.4493 C   0  0  0  0  0  0  0  0  0  0  0  0
   61.9326   19.2487   44.4839 C   0  0  2  0  0  0  0  0  0  0  0  0
   62.0493   17.0056   44.0210 C   0  0  2  0  0  0  0  0  0  0  0  0
   61.3112   16.3161   45.1673 C   0  0  0  0  0  0  0  0  0  0  0  0
   60.2295   22.8613   47.4163 C   0  0  0  0  0  0  0  0  0  0  0  0
   61.9392   23.4511   45.8800 C   0  0  0  0  0  0  0  0  0  0  0  0
   61.2141   21.2827   45.8353 C   0  0  0  0  0  0  0  0  0  0  0  0
   60.2926   21.5151   46.8876 C   0  0  0  0  0  0  0  0  0  0  0  0
   59.6467   20.2401   47.1053 C   0  0  0  0  0  0  0  0  0  0  0  0
   63.4585   17.3701   44.5231 C   0  0  2  0  0  0  0  0  0  0  0  0
   63.0546   18.5811   45.3372 C   0  0  1  0  0  0  0  0  0  0  0  0
   56.5587   19.6443   48.6108 F   0  0  0  0  0  0  0  0  0  0  0  0
   57.0589   19.9470   46.5482 F   0  0  0  0  0  0  0  0  0  0  0  0
   59.3570   23.1921   48.4558 N   0  0  0  0  0  0  0  0  0  0  0  0
   61.0710   23.7847   46.9009 N   0  0  0  0  0  0  0  0  0  0  0  0
   62.0581   22.2218   45.3078 N   0  0  0  0  0  0  0  0  0  0  0  0
   60.1635   19.3015   46.2557 N   0  0  0  0  0  0  0  0  0  0  0  0
   61.0722   19.9491   45.4494 N   0  0  0  0  0  0  0  0  0  0  0  0
   58.4691   14.3782   45.7663 N   0  0  0  0  0  0  0  0  0  0  0  0
   58.3144   11.3241   46.2890 N   0  0  0  0  0  0  0  0  0  0  0  0
   58.6804   19.9653   48.0256 O   0  0  0  0  0  0  0  0  0  0  0  0
   61.3074   18.1583   43.8381 O   0  0  0  0  0  0  0  0  0  0  0  0
   60.0603   16.1858   44.9358 O   0  0  0  0  0  0  0  0  0  0  0  0
   57.9395   16.8332   46.0072 O   0  0  0  0  0  0  0  0  0  0  0  0
   52.1957   11.7757   41.8085 O   0  0  0  0  0  0  0  0  0  0  0  0
   57.0178   14.0369   47.4650 O   0  0  0  0  0  0  0  0  0  0  0  0
   59.6174   15.9547   47.4546 O   0  0  0  0  0  0  0  0  0  0  0  0
   64.2761   17.7558   43.4641 O   0  0  0  0  0  0  0  0  0  0  0  0
   64.1551   19.4376   45.3824 O   0  0  0  0  0  0  0  0  0  0  0  0
   58.9389   15.8929   46.2177 S   0  0  1  0  0  0  0  0  0  0  0  0
   57.3550   12.3320   44.7103 H   0  0  0  0  0  0  0  0  0  0  0  0
   54.5985    9.7747   45.1259 H   0  0  0  0  0  0  0  0  0  0  0  0
   52.9668    9.6907   43.2621 H   0  0  0  0  0  0  0  0  0  0  0  0
   55.8761   10.8578   46.6393 H   0  0  0  0  0  0  0  0  0  0  0  0
   55.4877   12.5966   46.9812 H   0  0  0  0  0  0  0  0  0  0  0  0
   53.3321   13.9962   42.7420 H   0  0  0  0  0  0  0  0  0  0  0  0
   54.9361   14.0823   44.6750 H   0  0  0  0  0  0  0  0  0  0  0  0
   57.2308   21.4451   47.9450 H   0  0  0  0  0  0  0  0  0  0  0  0
   62.2452   19.9827   43.7265 H   0  0  0  0  0  0  0  0  0  0  0  0
   62.1505   16.4051   43.1049 H   0  0  0  0  0  0  0  0  0  0  0  0
   61.7480   15.3179   45.3183 H   0  0  0  0  0  0  0  0  0  0  0  0
   61.4218   16.9455   46.0626 H   0  0  0  0  0  0  0  0  0  0  0  0
   62.5919   24.2488   45.4957 H   0  0  0  0  0  0  0  0  0  0  0  0
   64.0193   16.5779   45.0407 H   0  0  0  0  0  0  0  0  0  0  0  0
   62.7277   18.3456   46.3608 H   0  0  0  0  0  0  0  0  0  0  0  0
   59.3283   24.1562   48.8169 H   0  0  0  0  0  0  0  0  0  0  0  0
   58.7424   22.4718   48.8611 H   0  0  0  0  0  0  0  0  0  0  0  0
   58.8858   13.9700   44.9174 H   0  0  0  0  0  0  0  0  0  0  0  0
   58.3228   11.3161   47.3189 H   0  0  0  0  0  0  0  0  0  0  0  0
   58.0831   10.3830   45.9402 H   0  0  0  0  0  0  0  0  0  0  0  0
   59.2432   11.6009   45.9402 H   0  0  0  0  0  0  0  0  0  0  0  0
   51.9582   12.5987   41.3121 H   0  0  0  0  0  0  0  0  0  0  0  0
   65.1119   18.1501   43.8191 H   0  0  0  0  0  0  0  0  0  0  0  0
   64.3915   19.6216   46.3259 H   0  0  0  0  0  0  0  0  0  0  0  0
  1  6  1  0
  1 10  1  0
  1 29  1  0
  2  3  2  0
  2  6  1  0
  2  8  1  0
  3  4  1  0
  4  5  2  0
  5  7  1  0
  5 34  1  0
  7  8  2  0
  9 21  1  0
  9 22  1  0
  9 30  1  0
 10 28  1  0
 10 35  2  0
 11 20  1  0
 11 27  1  0
 11 31  1  0
 12 13  1  0
 12 19  1  0
 12 31  1  0
 13 32  1  0
 14 17  2  0
 14 23  1  0
 14 24  1  0
 15 24  2  0
 15 25  1  0
 16 17  1  0
 16 25  2  0
 16 27  1  0
 17 18  1  0
 18 26  2  0
 18 30  1  0
 19 20  1  0
 19 37  1  0
 20 38  1  0
 26 27  1  0
 39 28  1  0
 39 32  1  6
 33 39  2  0
 36 39  2  0
  1 40  1  6
  3 41  1  0
  4 42  1  0
  6 43  1  0
  6 44  1  0
  7 45  1  0
  8 46  1  0
  9 47  1  6
 11 48  1  6
 12 49  1  6
 13 50  1  0
 13 51  1  0
 15 52  1  0
 19 53  1  1
 20 54  1  1
 23 55  1  0
 23 56  1  0
 28 57  1  0
 29 58  1  0
 29 59  1  0
 29 60  1  0
 34 61  1  0
 37 62  1  0
 38 63  1  0
M  CHG  1  29   1
M  END
>  <filename_input>  (14) 
7ROU_66I_docked.sdf

>  <pdb_id>  (14) 
7ROU_66I

>  <pose_rank>  (14) 
13

>  <num_atoms_heavy>  (14) 
39

>  <num_torsions>  (14) 
10

>  <pose>  (14) 
[61.93262495955798, 19.248716432660192, 44.48388131549831, 4.750310702397807, -2.9111465375627583, 0.20396416009714202, 12.181081600506724, 4.896530223987951, -2.319089521648125, -1.7179075106721657, 1.4013460238382813, 6.282910182635916, 0.6700970175658455, -1.8297743037276304, -1.135380859210608, 3.009341454085775]

>  <energy>  (14) 
-771.2587739322809

>  <inter_energy>  (14) 
-771.6093225763769

>  <intra_energy>  (14) 
8.240517514845445

>  <rmsd>  (14) 
7.40658

>  <sdf_rank>  (14) 
0

$$$$

     RDKit          3D

 63 66  0  0  0  0  0  0  0  0999 V2000
   61.6997   20.2540   46.2647 C   0  0  1  0  0  0  0  0  0  0  0  0
   60.7187   22.5742   46.7282 C   0  0  0  0  0  0  0  0  0  0  0  0
   59.6015   21.8894   47.1988 C   0  0  0  0  0  0  0  0  0  0  0  0
   58.4073   22.5419   47.5048 C   0  0  0  0  0  0  0  0  0  0  0  0
   58.2902   23.9403   47.2914 C   0  0  0  0  0  0  0  0  0  0  0  0
   61.9914   21.7814   46.4336 C   0  0  0  0  0  0  0  0  0  0  0  0
   59.4036   24.6692   46.8316 C   0  0  0  0  0  0  0  0  0  0  0  0
   60.6161   24.0007   46.5426 C   0  0  0  0  0  0  0  0  0  0  0  0
   57.9435   17.8862   46.4372 C   0  0  2  0  0  0  0  0  0  0  0  0
   62.7756   19.6934   45.3462 C   0  0  0  0  0  0  0  0  0  0  0  0
   61.5495   13.6822   45.5490 C   0  0  2  0  0  0  0  0  0  0  0  0
   63.5135   14.7315   45.0001 C   0  0  2  0  0  0  0  0  0  0  0  0
   63.2114   16.2268   45.0837 C   0  0  0  0  0  0  0  0  0  0  0  0
   56.8666   14.0260   47.1308 C   0  0  0  0  0  0  0  0  0  0  0  0
   57.5811   11.8957   46.3676 C   0  0  0  0  0  0  0  0  0  0  0  0
   59.1310   13.5769   46.3362 C   0  0  0  0  0  0  0  0  0  0  0  0
   58.1970   14.5171   46.8406 C   0  0  0  0  0  0  0  0  0  0  0  0
   58.9300   15.7603   46.9272 C   0  0  0  0  0  0  0  0  0  0  0  0
   62.9627   14.2164   43.6577 C   0  0  2  0  0  0  0  0  0  0  0  0
   61.5057   14.1643   44.0663 C   0  0  1  0  0  0  0  0  0  0  0  0
   57.3259   17.2011   45.4532 F   0  0  0  0  0  0  0  0  0  0  0  0
   59.0198   18.4521   45.8559 F   0  0  0  0  0  0  0  0  0  0  0  0
   55.8732   14.8730   47.6278 N   0  0  0  0  0  0  0  0  0  0  0  0
   56.5990   12.7275   46.8685 N   0  0  0  0  0  0  0  0  0  0  0  0
   58.8609   12.2600   46.0809 N   0  0  0  0  0  0  0  0  0  0  0  0
   60.2107   15.5817   46.4825 N   0  0  0  0  0  0  0  0  0  0  0  0
   60.3457   14.2457   46.1786 N   0  0  0  0  0  0  0  0  0  0  0  0
   62.2854   18.8600   44.4127 N   0  0  0  0  0  0  0  0  0  0  0  0
   61.7612   19.5302   47.5661 N   0  0  0  0  0  0  0  0  0  0  0  0
   58.4479   16.9595   47.3583 O   0  0  0  0  0  0  0  0  0  0  0  0
   62.7621   14.2161   46.0405 O   0  0  0  0  0  0  0  0  0  0  0  0
   63.9266   16.9164   44.2785 O   0  0  0  0  0  0  0  0  0  0  0  0
   62.4622   17.4044   42.3596 O   0  0  0  0  0  0  0  0  0  0  0  0
   57.1206   24.5746   47.5962 O   0  0  0  0  0  0  0  0  0  0  0  0
   63.9558   19.9876   45.4358 O   0  0  0  0  0  0  0  0  0  0  0  0
   64.2430   18.9438   42.7348 O   0  0  0  0  0  0  0  0  0  0  0  0
   63.4315   12.9328   43.3909 O   0  0  0  0  0  0  0  0  0  0  0  0
   60.8915   13.1800   43.2913 O   0  0  0  0  0  0  0  0  0  0  0  0
   63.2210   18.1286   43.2689 S   0  0  1  0  0  0  0  0  0  0  0  0
   60.6872   20.1214   45.8557 H   0  0  0  0  0  0  0  0  0  0  0  0
   59.6625   20.7994   47.3334 H   0  0  0  0  0  0  0  0  0  0  0  0
   57.5575   21.9736   47.9109 H   0  0  0  0  0  0  0  0  0  0  0  0
   62.6970   21.9190   47.2662 H   0  0  0  0  0  0  0  0  0  0  0  0
   62.4152   22.1545   45.4896 H   0  0  0  0  0  0  0  0  0  0  0  0
   59.3304   25.7585   46.6971 H   0  0  0  0  0  0  0  0  0  0  0  0
   61.4828   24.5701   46.1756 H   0  0  0  0  0  0  0  0  0  0  0  0
   57.2690   18.6078   46.9214 H   0  0  0  0  0  0  0  0  0  0  0  0
   61.5379   12.5966   45.7262 H   0  0  0  0  0  0  0  0  0  0  0  0
   64.5796   14.4681   45.0632 H   0  0  0  0  0  0  0  0  0  0  0  0
   62.1509   16.3866   44.8390 H   0  0  0  0  0  0  0  0  0  0  0  0
   63.4449   16.5584   46.1061 H   0  0  0  0  0  0  0  0  0  0  0  0
   57.3049   10.8469   46.1843 H   0  0  0  0  0  0  0  0  0  0  0  0
   63.2152   14.8027   42.7619 H   0  0  0  0  0  0  0  0  0  0  0  0
   60.9705   15.1176   43.9444 H   0  0  0  0  0  0  0  0  0  0  0  0
   54.9331   14.5026   47.8275 H   0  0  0  0  0  0  0  0  0  0  0  0
   56.0809   15.8680   47.7946 H   0  0  0  0  0  0  0  0  0  0  0  0
   61.2734   18.6684   44.4117 H   0  0  0  0  0  0  0  0  0  0  0  0
   61.7036   20.2084   48.3392 H   0  0  0  0  0  0  0  0  0  0  0  0
   60.9733   18.8698   47.6292 H   0  0  0  0  0  0  0  0  0  0  0  0
   62.6493   19.0122   47.6292 H   0  0  0  0  0  0  0  0  0  0  0  0
   57.0335   25.5497   47.4494 H   0  0  0  0  0  0  0  0  0  0  0  0
   63.6040   12.4606   44.2438 H   0  0  0  0  0  0  0  0  0  0  0  0
   60.4718   12.5073   43.8841 H   0  0  0  0  0  0  0  0  0  0  0  0
  1  6  1  0
  1 10  1  0
  1 29  1  0
  2  3  2  0
  2  6  1  0
  2  8  1  0
  3  4  1  0
  4  5  2  0
  5  7  1  0
  5 34  1  0
  7  8  2  0
  9 21  1  0
  9 22  1  0
  9 30  1  0
 10 28  1  0
 10 35  2  0
 11 20  1  0
 11 27  1  0
 11 31  1  0
 12 13  1  0
 12 19  1  0
 12 31  1  0
 13 32  1  0
 14 17  2  0
 14 23  1  0
 14 24  1  0
 15 24  2  0
 15 25  1  0
 16 17  1  0
 16 25  2  0
 16 27  1  0
 17 18  1  0
 18 26  2  0
 18 30  1  0
 19 20  1  0
 19 37  1  0
 20 38  1  0
 26 27  1  0
 39 28  1  0
 39 32  1  1
 33 39  2  0
 36 39  2  0
  1 40  1  6
  3 41  1  0
  4 42  1  0
  6 43  1  0
  6 44  1  0
  7 45  1  0
  8 46  1  0
  9 47  1  1
 11 48  1  6
 12 49  1  1
 13 50  1  0
 13 51  1  0
 15 52  1  0
 19 53  1  6
 20 54  1  1
 23 55  1  0
 23 56  1  0
 28 57  1  0
 29 58  1  0
 29 59  1  0
 29 60  1  0
 34 61  1  0
 37 62  1  0
 38 63  1  0
M  CHG  1  29   1
M  END
>  <filename_input>  (15) 
7ROU_66I_docked.sdf

>  <pdb_id>  (15) 
7ROU_66I

>  <pose_rank>  (15) 
14

>  <num_atoms_heavy>  (15) 
39

>  <num_torsions>  (15) 
10

>  <pose>  (15) 
[61.54950205456624, 13.682176469601307, 45.5489654732955, -2.824482548200708, 0.8276872449932577, 1.7909431406708618, -0.3262619209476262, 8.190194514123458, 1.7602713866936277, 82.06724504831404, 63.08203482678624, 46.78639342620582, 36.56336146719815, 17.320263495304218, 5.875467852567083, 1.3368960619926162]

>  <energy>  (15) 
-732.786532317816

>  <inter_energy>  (15) 
-747.5465385043314

>  <intra_energy>  (15) 
24.039371020473936

>  <rmsd>  (15) 
8.64244

>  <sdf_rank>  (15) 
0

$$$$

     RDKit          3D

 63 66  0  0  0  0  0  0  0  0999 V2000
   57.1634   18.0531   46.6515 C   0  0  1  0  0  0  0  0  0  0  0  0
   57.2764   20.2586   47.9489 C   0  0  0  0  0  0  0  0  0  0  0  0
   56.9741   21.1420   46.9160 C   0  0  0  0  0  0  0  0  0  0  0  0
   57.4667   22.4467   46.8892 C   0  0  0  0  0  0  0  0  0  0  0  0
   58.3441   22.8930   47.9117 C   0  0  0  0  0  0  0  0  0  0  0  0
   56.6799   18.8524   47.9060 C   0  0  0  0  0  0  0  0  0  0  0  0
   58.6600   22.0333   48.9811 C   0  0  0  0  0  0  0  0  0  0  0  0
   58.1396   20.7183   49.0088 C   0  0  0  0  0  0  0  0  0  0  0  0
   67.6431   15.0110   40.2442 C   0  0  2  0  0  0  0  0  0  0  0  0
   58.6097   17.6550   46.9066 C   0  0  0  0  0  0  0  0  0  0  0  0
   64.2477   17.9117   43.7985 C   0  0  2  0  0  0  0  0  0  0  0  0
   62.8305   18.0022   45.5993 C   0  0  2  0  0  0  0  0  0  0  0  0
   62.3890   16.5597   45.8407 C   0  0  0  0  0  0  0  0  0  0  0  0
   65.1651   13.1705   42.6896 C   0  0  0  0  0  0  0  0  0  0  0  0
   63.1370   13.6252   43.8345 C   0  0  0  0  0  0  0  0  0  0  0  0
   64.4562   15.4205   43.3186 C   0  0  0  0  0  0  0  0  0  0  0  0
   65.4373   14.5920   42.7172 C   0  0  0  0  0  0  0  0  0  0  0  0
   66.4706   15.5007   42.2735 C   0  0  0  0  0  0  0  0  0  0  0  0
   62.0006   18.5562   44.4266 C   0  0  2  0  0  0  0  0  0  0  0  0
   62.7644   17.8623   43.3187 C   0  0  1  0  0  0  0  0  0  0  0  0
   67.6521   13.6899   39.9732 F   0  0  0  0  0  0  0  0  0  0  0  0
   68.8439   15.4666   39.8353 F   0  0  0  0  0  0  0  0  0  0  0  0
   66.0699   12.2698   42.1228 N   0  0  0  0  0  0  0  0  0  0  0  0
   64.0241   12.7323   43.2662 N   0  0  0  0  0  0  0  0  0  0  0  0
   63.2965   14.9757   43.8928 N   0  0  0  0  0  0  0  0  0  0  0  0
   66.1409   16.7850   42.6077 N   0  0  0  0  0  0  0  0  0  0  0  0
   64.8943   16.7392   43.1899 N   0  0  0  0  0  0  0  0  0  0  0  0
   58.8017   16.3253   46.8683 N   0  0  0  0  0  0  0  0  0  0  0  0
   56.3603   16.8157   46.4387 N   0  0  0  0  0  0  0  0  0  0  0  0
   67.6275   15.1667   41.6361 O   0  0  0  0  0  0  0  0  0  0  0  0
   64.1478   17.8500   45.2068 O   0  0  0  0  0  0  0  0  0  0  0  0
   61.1175   16.4256   45.8118 O   0  0  0  0  0  0  0  0  0  0  0  0
   60.9040   16.0610   48.2379 O   0  0  0  0  0  0  0  0  0  0  0  0
   58.8201   24.1719   47.8828 O   0  0  0  0  0  0  0  0  0  0  0  0
   59.5039   18.4607   47.1036 O   0  0  0  0  0  0  0  0  0  0  0  0
   60.2969   14.2233   46.8463 O   0  0  0  0  0  0  0  0  0  0  0  0
   62.1529   19.9362   44.3218 O   0  0  0  0  0  0  0  0  0  0  0  0
   62.6366   18.6460   42.1714 O   0  0  0  0  0  0  0  0  0  0  0  0
   60.2741   15.6151   47.0839 S   0  0  1  0  0  0  0  0  0  0  0  0
   57.0524   18.6821   45.7559 H   0  0  0  0  0  0  0  0  0  0  0  0
   56.3264   20.8002   46.0952 H   0  0  0  0  0  0  0  0  0  0  0  0
   57.1755   23.1287   46.0768 H   0  0  0  0  0  0  0  0  0  0  0  0
   55.5832   18.9319   47.8763 H   0  0  0  0  0  0  0  0  0  0  0  0
   57.0136   18.3125   48.8044 H   0  0  0  0  0  0  0  0  0  0  0  0
   59.3116   22.3842   49.7949 H   0  0  0  0  0  0  0  0  0  0  0  0
   58.3938   20.0449   49.8406 H   0  0  0  0  0  0  0  0  0  0  0  0
   66.7901   15.5214   39.7731 H   0  0  0  0  0  0  0  0  0  0  0  0
   64.8381   18.7969   43.5194 H   0  0  0  0  0  0  0  0  0  0  0  0
   62.7096   18.6760   46.4603 H   0  0  0  0  0  0  0  0  0  0  0  0
   62.8290   15.9209   45.0607 H   0  0  0  0  0  0  0  0  0  0  0  0
   62.7332   16.2681   46.8439 H   0  0  0  0  0  0  0  0  0  0  0  0
   62.2211   13.2084   44.2790 H   0  0  0  0  0  0  0  0  0  0  0  0
   60.9136   18.3931   44.4694 H   0  0  0  0  0  0  0  0  0  0  0  0
   62.4193   16.8394   43.1075 H   0  0  0  0  0  0  0  0  0  0  0  0
   65.8563   11.2622   42.1138 H   0  0  0  0  0  0  0  0  0  0  0  0
   66.9507   12.6132   41.7138 H   0  0  0  0  0  0  0  0  0  0  0  0
   57.9874   15.7188   46.6954 H   0  0  0  0  0  0  0  0  0  0  0  0
   56.0998   16.4143   47.3508 H   0  0  0  0  0  0  0  0  0  0  0  0
   55.5076   17.0467   45.9091 H   0  0  0  0  0  0  0  0  0  0  0  0
   56.9184   16.1309   45.9091 H   0  0  0  0  0  0  0  0  0  0  0  0
   59.4324   24.4884   48.5935 H   0  0  0  0  0  0  0  0  0  0  0  0
   62.1967   20.3331   45.2277 H   0  0  0  0  0  0  0  0  0  0  0  0
   62.4827   19.5888   42.4313 H   0  0  0  0  0  0  0  0  0  0  0  0
  1  6  1  0
  1 10  1  0
  1 29  1  0
  2  3  2  0
  2  6  1  0
  2  8  1  0
  3  4  1  0
  4  5  2  0
  5  7  1  0
  5 34  1  0
  7  8  2  0
  9 21  1  0
  9 22  1  0
  9 30  1  0
 10 28  1  0
 10 35  2  0
 11 20  1  0
 11 27  1  0
 11 31  1  0
 12 13  1  0
 12 19  1  0
 12 31  1  0
 13 32  1  0
 14 17  2  0
 14 23  1  0
 14 24  1  0
 15 24  2  0
 15 25  1  0
 16 17  1  0
 16 25  2  0
 16 27  1  0
 17 18  1  0
 18 26  2  0
 18 30  1  0
 19 20  1  0
 19 37  1  0
 20 38  1  0
 26 27  1  0
 39 28  1  0
 39 32  1  6
 33 39  2  0
 36 39  2  0
  1 40  1  6
  3 41  1  0
  4 42  1  0
  6 43  1  0
  6 44  1  0
  7 45  1  0
  8 46  1  0
  9 47  1  6
 11 48  1  1
 12 49  1  1
 13 50  1  0
 13 51  1  0
 15 52  1  0
 19 53  1  1
 20 54  1  6
 23 55  1  0
 23 56  1  0
 28 57  1  0
 29 58  1  0
 29 59  1  0
 29 60  1  0
 34 61  1  0
 37 62  1  0
 38 63  1  0
M  CHG  1  29   1
M  END
>  <filename_input>  (16) 
7ROU_66I_docked.sdf

>  <pdb_id>  (16) 
7ROU_66I

>  <pose_rank>  (16) 
15

>  <num_atoms_heavy>  (16) 
39

>  <num_torsions>  (16) 
10

>  <pose>  (16) 
[64.24769511353219, 17.91171069050497, 43.798508687363125, 1.4844991963743375, 2.7054310556157115, -0.493207572081877, -2.9531563958784384, -1.2466281712436447, -0.6549259064879677, 0.8568970594584673, -4.32674208682284, -1.5625863502256816, -3.465369623484851, -3.31889348616169, -1.777593374718284, 2.0914537999962826]

>  <energy>  (16) 
-749.3905468284779

>  <inter_energy>  (16) 
-829.9530065720253

>  <intra_energy>  (16) 
88.02773742082766

>  <rmsd>  (16) 
10.2546

>  <sdf_rank>  (16) 
0

$$$$

     RDKit          3D

 63 66  0  0  0  0  0  0  0  0999 V2000
   60.4131   11.8605   45.6650 C   0  0  1  0  0  0  0  0  0  0  0  0
   58.5392   12.8690   47.0905 C   0  0  0  0  0  0  0  0  0  0  0  0
   57.6212   12.1577   46.3224 C   0  0  0  0  0  0  0  0  0  0  0  0
   56.2634   12.4764   46.3076 C   0  0  0  0  0  0  0  0  0  0  0  0
   55.7889   13.5867   47.0536 C   0  0  0  0  0  0  0  0  0  0  0  0
   60.0057   12.4404   47.0594 C   0  0  0  0  0  0  0  0  0  0  0  0
   56.6848   14.3202   47.8548 C   0  0  0  0  0  0  0  0  0  0  0  0
   58.0567   13.9766   47.8779 C   0  0  0  0  0  0  0  0  0  0  0  0
   59.1904   23.5957   47.4591 C   0  0  2  0  0  0  0  0  0  0  0  0
   61.7123   12.5419   45.2610 C   0  0  0  0  0  0  0  0  0  0  0  0
   62.6203   19.9570   44.5684 C   0  0  2  0  0  0  0  0  0  0  0  0
   62.7900   18.0082   43.3713 C   0  0  2  0  0  0  0  0  0  0  0  0
   61.6561   17.1198   43.8800 C   0  0  0  0  0  0  0  0  0  0  0  0
   58.7331   19.8470   47.6389 C   0  0  0  0  0  0  0  0  0  0  0  0
   59.9594   17.8298   47.3977 C   0  0  0  0  0  0  0  0  0  0  0  0
   60.7097   19.6413   46.2207 C   0  0  0  0  0  0  0  0  0  0  0  0
   59.6610   20.4596   46.7119 C   0  0  0  0  0  0  0  0  0  0  0  0
   59.8764   21.7501   46.0967 C   0  0  0  0  0  0  0  0  0  0  0  0
   63.9384   17.9342   44.3943 C   0  0  2  0  0  0  0  0  0  0  0  0
   63.3255   18.8599   45.4239 C   0  0  1  0  0  0  0  0  0  0  0  0
   57.9835   24.1545   47.6825 F   0  0  0  0  0  0  0  0  0  0  0  0
   60.0204   24.6282   47.2102 F   0  0  0  0  0  0  0  0  0  0  0  0
   57.6641   20.5671   48.1772 N   0  0  0  0  0  0  0  0  0  0  0  0
   58.9071   18.5410   47.9398 N   0  0  0  0  0  0  0  0  0  0  0  0
   60.8901   18.3218   46.5347 N   0  0  0  0  0  0  0  0  0  0  0  0
   60.9677   21.7013   45.2741 N   0  0  0  0  0  0  0  0  0  0  0  0
   61.5034   20.4389   45.3951 N   0  0  0  0  0  0  0  0  0  0  0  0
   61.5320   13.8047   44.8376 N   0  0  0  0  0  0  0  0  0  0  0  0
   60.6458   10.3895   45.7224 N   0  0  0  0  0  0  0  0  0  0  0  0
   59.1153   22.8676   46.2649 O   0  0  0  0  0  0  0  0  0  0  0  0
   62.2196   19.2677   43.4016 O   0  0  0  0  0  0  0  0  0  0  0  0
   62.0437   16.2995   44.7813 O   0  0  0  0  0  0  0  0  0  0  0  0
   63.8623   14.6960   45.2128 O   0  0  0  0  0  0  0  0  0  0  0  0
   54.4586   13.8919   47.0387 O   0  0  0  0  0  0  0  0  0  0  0  0
   62.8045   12.0042   45.3348 O   0  0  0  0  0  0  0  0  0  0  0  0
   63.0381   14.7666   42.9772 O   0  0  0  0  0  0  0  0  0  0  0  0
   65.1005   18.4982   43.8746 O   0  0  0  0  0  0  0  0  0  0  0  0
   64.3746   19.4470   46.1319 O   0  0  0  0  0  0  0  0  0  0  0  0
   62.7682   14.7873   44.3632 S   0  0  1  0  0  0  0  0  0  0  0  0
   59.6015   12.0429   44.9453 H   0  0  0  0  0  0  0  0  0  0  0  0
   57.9780   11.3180   45.7080 H   0  0  0  0  0  0  0  0  0  0  0  0
   55.5613   11.8681   45.7184 H   0  0  0  0  0  0  0  0  0  0  0  0
   60.1673   11.6689   47.8266 H   0  0  0  0  0  0  0  0  0  0  0  0
   60.6250   13.3284   47.2541 H   0  0  0  0  0  0  0  0  0  0  0  0
   56.3178   15.1603   48.4626 H   0  0  0  0  0  0  0  0  0  0  0  0
   58.7570   14.5556   48.4978 H   0  0  0  0  0  0  0  0  0  0  0  0
   59.5107   22.9602   48.2978 H   0  0  0  0  0  0  0  0  0  0  0  0
   63.2196   20.8329   44.2793 H   0  0  0  0  0  0  0  0  0  0  0  0
   63.1867   17.7355   42.3822 H   0  0  0  0  0  0  0  0  0  0  0  0
   60.8678   17.7607   44.3017 H   0  0  0  0  0  0  0  0  0  0  0  0
   61.2855   16.5303   43.0285 H   0  0  0  0  0  0  0  0  0  0  0  0
   60.0539   16.7732   47.6887 H   0  0  0  0  0  0  0  0  0  0  0  0
   64.2363   16.9305   44.7316 H   0  0  0  0  0  0  0  0  0  0  0  0
   62.6402   18.3611   46.1250 H   0  0  0  0  0  0  0  0  0  0  0  0
   57.0156   20.1117   48.8352 H   0  0  0  0  0  0  0  0  0  0  0  0
   57.5242   21.5536   47.9161 H   0  0  0  0  0  0  0  0  0  0  0  0
   60.5724   14.1777   44.8079 H   0  0  0  0  0  0  0  0  0  0  0  0
   60.6935   10.0876   46.7060 H   0  0  0  0  0  0  0  0  0  0  0  0
   59.8716    9.9007   45.2505 H   0  0  0  0  0  0  0  0  0  0  0  0
   61.5330   10.1635   45.2505 H   0  0  0  0  0  0  0  0  0  0  0  0
   54.1223   14.6652   47.5573 H   0  0  0  0  0  0  0  0  0  0  0  0
   65.6893   18.7840   44.6173 H   0  0  0  0  0  0  0  0  0  0  0  0
   64.2093   19.3545   47.1037 H   0  0  0  0  0  0  0  0  0  0  0  0
  1  6  1  0
  1 10  1  0
  1 29  1  0
  2  3  2  0
  2  6  1  0
  2  8  1  0
  3  4  1  0
  4  5  2  0
  5  7  1  0
  5 34  1  0
  7  8  2  0
  9 21  1  0
  9 22  1  0
  9 30  1  0
 10 28  1  0
 10 35  2  0
 11 20  1  0
 11 27  1  0
 11 31  1  0
 12 13  1  0
 12 19  1  0
 12 31  1  0
 13 32  1  0
 14 17  2  0
 14 23  1  0
 14 24  1  0
 15 24  2  0
 15 25  1  0
 16 17  1  0
 16 25  2  0
 16 27  1  0
 17 18  1  0
 18 26  2  0
 18 30  1  0
 19 20  1  0
 19 37  1  0
 20 38  1  0
 26 27  1  0
 39 28  1  0
 39 32  1  1
 33 39  2  0
 36 39  2  0
  1 40  1  6
  3 41  1  0
  4 42  1  0
  6 43  1  0
  6 44  1  0
  7 45  1  0
  8 46  1  0
  9 47  1  1
 11 48  1  6
 12 49  1  6
 13 50  1  0
 13 51  1  0
 15 52  1  0
 19 53  1  1
 20 54  1  1
 23 55  1  0
 23 56  1  0
 28 57  1  0
 29 58  1  0
 29 59  1  0
 29 60  1  0
 34 61  1  0
 37 62  1  0
 38 63  1  0
M  CHG  1  29   1
M  END
>  <filename_input>  (17) 
7ROU_66I_docked.sdf

>  <pdb_id>  (17) 
7ROU_66I

>  <pose_rank>  (17) 
16

>  <num_atoms_heavy>  (17) 
39

>  <num_torsions>  (17) 
10

>  <pose>  (17) 
[62.620274387898306, 19.956984524233622, 44.56836957666568, 4.5144259039228825, -1.2707304774818744, 3.756718556509465, -2.6547534378767743, 4.840404245287288, -1.45806781430115, -4.952740520341252, 15.313666087886254, -6.20183058241439, -5.111095371406257, -6.75938130315436, -0.771490656118796, 1.5753607834402892]

>  <energy>  (17) 
-683.9507871944218

>  <inter_energy>  (17) 
-772.1457345530708

>  <intra_energy>  (17) 
91.50070545976328

>  <rmsd>  (17) 
6.70584

>  <sdf_rank>  (17) 
0

$$$$

     RDKit          3D

 63 66  0  0  0  0  0  0  0  0999 V2000
   58.6944   13.5634   46.7565 C   0  0  1  0  0  0  0  0  0  0  0  0
   58.2188   11.2584   47.7672 C   0  0  0  0  0  0  0  0  0  0  0  0
   57.5591   11.8065   48.8640 C   0  0  0  0  0  0  0  0  0  0  0  0
   57.4305   11.1188   50.0706 C   0  0  0  0  0  0  0  0  0  0  0  0
   58.0249    9.8389   50.2224 C   0  0  0  0  0  0  0  0  0  0  0  0
   58.2982   12.0760   46.4786 C   0  0  0  0  0  0  0  0  0  0  0  0
   58.6866    9.2455   49.1304 C   0  0  0  0  0  0  0  0  0  0  0  0
   58.7946    9.9434   47.9049 C   0  0  0  0  0  0  0  0  0  0  0  0
   58.8718   23.8128   47.6484 C   0  0  2  0  0  0  0  0  0  0  0  0
   60.1196   13.7462   46.2558 C   0  0  0  0  0  0  0  0  0  0  0  0
   62.1658   20.0433   44.8221 C   0  0  2  0  0  0  0  0  0  0  0  0
   62.2328   18.1627   43.5112 C   0  0  2  0  0  0  0  0  0  0  0  0
   61.0321   17.3233   43.9446 C   0  0  0  0  0  0  0  0  0  0  0  0
   58.3307   20.0193   47.9592 C   0  0  0  0  0  0  0  0  0  0  0  0
   59.5429   17.9910   47.7407 C   0  0  0  0  0  0  0  0  0  0  0  0
   60.2820   19.7730   46.5127 C   0  0  0  0  0  0  0  0  0  0  0  0
   59.2457   20.6070   47.0038 C   0  0  0  0  0  0  0  0  0  0  0  0
   59.4569   21.8829   46.3576 C   0  0  0  0  0  0  0  0  0  0  0  0
   63.3514   17.9508   44.5479 C   0  0  2  0  0  0  0  0  0  0  0  0
   62.7786   18.8522   45.6211 C   0  0  1  0  0  0  0  0  0  0  0  0
   58.7332   23.0306   48.7383 F   0  0  0  0  0  0  0  0  0  0  0  0
   57.8117   24.6449   47.6701 F   0  0  0  0  0  0  0  0  0  0  0  0
   57.2744   20.7563   48.4998 N   0  0  0  0  0  0  0  0  0  0  0  0
   58.5033   18.7191   48.2851 N   0  0  0  0  0  0  0  0  0  0  0  0
   60.4612   18.4595   46.8518 N   0  0  0  0  0  0  0  0  0  0  0  0
   60.5339   21.8109   45.5180 N   0  0  0  0  0  0  0  0  0  0  0  0
   61.0654   20.5486   45.6569 N   0  0  0  0  0  0  0  0  0  0  0  0
   60.1847   14.4222   45.0959 N   0  0  0  0  0  0  0  0  0  0  0  0
   57.8094   14.5181   46.0309 N   0  0  0  0  0  0  0  0  0  0  0  0
   58.7043   23.0077   46.5145 O   0  0  0  0  0  0  0  0  0  0  0  0
   61.7460   19.4534   43.6085 O   0  0  0  0  0  0  0  0  0  0  0  0
   61.0446   16.1509   43.4342 O   0  0  0  0  0  0  0  0  0  0  0  0
   62.5372   15.3267   45.2111 O   0  0  0  0  0  0  0  0  0  0  0  0
   57.8929    9.1685   51.4041 O   0  0  0  0  0  0  0  0  0  0  0  0
   61.1004   13.3400   46.8563 O   0  0  0  0  0  0  0  0  0  0  0  0
   62.0662   13.7951   43.4463 O   0  0  0  0  0  0  0  0  0  0  0  0
   64.5590   18.4658   44.0842 O   0  0  0  0  0  0  0  0  0  0  0  0
   63.8485   19.3243   46.3822 O   0  0  0  0  0  0  0  0  0  0  0  0
   61.6026   14.7874   44.3376 S   0  0  1  0  0  0  0  0  0  0  0  0
   58.5975   13.7693   47.8327 H   0  0  0  0  0  0  0  0  0  0  0  0
   57.1256   12.8137   48.7761 H   0  0  0  0  0  0  0  0  0  0  0  0
   56.8692   11.5677   50.9033 H   0  0  0  0  0  0  0  0  0  0  0  0
   57.3162   12.0559   45.9834 H   0  0  0  0  0  0  0  0  0  0  0  0
   59.0737   11.6299   45.8386 H   0  0  0  0  0  0  0  0  0  0  0  0
   59.1196    8.2392   49.2303 H   0  0  0  0  0  0  0  0  0  0  0  0
   59.3189    9.4821   47.0550 H   0  0  0  0  0  0  0  0  0  0  0  0
   59.8426   24.3298   47.6343 H   0  0  0  0  0  0  0  0  0  0  0  0
   62.8275   20.8928   44.5977 H   0  0  0  0  0  0  0  0  0  0  0  0
   62.6320   17.9237   42.5144 H   0  0  0  0  0  0  0  0  0  0  0  0
   61.0434   17.2311   45.0407 H   0  0  0  0  0  0  0  0  0  0  0  0
   60.1233   17.8323   43.5911 H   0  0  0  0  0  0  0  0  0  0  0  0
   59.6371   16.9404   48.0527 H   0  0  0  0  0  0  0  0  0  0  0  0
   63.5752   16.9110   44.8284 H   0  0  0  0  0  0  0  0  0  0  0  0
   62.0470   18.3594   46.2784 H   0  0  0  0  0  0  0  0  0  0  0  0
   56.6350   20.3184   49.1783 H   0  0  0  0  0  0  0  0  0  0  0  0
   57.1350   21.7377   48.2200 H   0  0  0  0  0  0  0  0  0  0  0  0
   59.3038   14.7278   44.6584 H   0  0  0  0  0  0  0  0  0  0  0  0
   57.2841   15.0848   46.7119 H   0  0  0  0  0  0  0  0  0  0  0  0
   58.3830   15.1364   45.4396 H   0  0  0  0  0  0  0  0  0  0  0  0
   57.1495   13.9930   45.4396 H   0  0  0  0  0  0  0  0  0  0  0  0
   58.3055    8.2755   51.5154 H   0  0  0  0  0  0  0  0  0  0  0  0
   65.1312   18.7097   44.8543 H   0  0  0  0  0  0  0  0  0  0  0  0
   63.6358   19.2304   47.3445 H   0  0  0  0  0  0  0  0  0  0  0  0
  1  6  1  0
  1 10  1  0
  1 29  1  0
  2  3  2  0
  2  6  1  0
  2  8  1  0
  3  4  1  0
  4  5  2  0
  5  7  1  0
  5 34  1  0
  7  8  2  0
  9 21  1  0
  9 22  1  0
  9 30  1  0
 10 28  1  0
 10 35  2  0
 11 20  1  0
 11 27  1  0
 11 31  1  0
 12 13  1  0
 12 19  1  0
 12 31  1  0
 13 32  1  0
 14 17  2  0
 14 23  1  0
 14 24  1  0
 15 24  2  0
 15 25  1  0
 16 17  1  0
 16 25  2  0
 16 27  1  0
 17 18  1  0
 18 26  2  0
 18 30  1  0
 19 20  1  0
 19 37  1  0
 20 38  1  0
 26 27  1  0
 39 28  1  0
 39 32  1  6
 33 39  2  0
 36 39  2  0
  1 40  1  1
  3 41  1  0
  4 42  1  0
  6 43  1  0
  6 44  1  0
  7 45  1  0
  8 46  1  0
  9 47  1  6
 11 48  1  6
 12 49  1  6
 13 50  1  0
 13 51  1  0
 15 52  1  0
 19 53  1  1
 20 54  1  1
 23 55  1  0
 23 56  1  0
 28 57  1  0
 29 58  1  0
 29 59  1  0
 29 60  1  0
 34 61  1  0
 37 62  1  0
 38 63  1  0
M  CHG  1  29   1
M  END
>  <filename_input>  (18) 
7ROU_66I_docked.sdf

>  <pdb_id>  (18) 
7ROU_66I

>  <pose_rank>  (18) 
17

>  <num_atoms_heavy>  (18) 
39

>  <num_torsions>  (18) 
10

>  <pose>  (18) 
[62.16579333190339, 20.043275068703302, 44.822075665875914, 3.0293133422166485, -1.076370723835434, 5.06817381209065, -2.545975231293197, -1.3634161786718475, 0.2003031945878898, 6.317646150367947, 5.951146837574667, -2.786242782130487, -5.193616074234949, -3.6103918089942777, 5.106933066349247, -4.482794372642379]

>  <energy>  (18) 
-648.9634521459972

>  <inter_energy>  (18) 
-722.8039138686208

>  <intra_energy>  (18) 
88.13617630666967

>  <rmsd>  (18) 
7.03985

>  <sdf_rank>  (18) 
0

$$$$

     RDKit          3D

 63 66  0  0  0  0  0  0  0  0999 V2000
   57.2187   14.3191   46.7363 C   0  0  1  0  0  0  0  0  0  0  0  0
   57.7052   12.3139   48.2539 C   0  0  0  0  0  0  0  0  0  0  0  0
   58.3089   11.0805   48.0239 C   0  0  0  0  0  0  0  0  0  0  0  0
   57.8433    9.9062   48.6153 C   0  0  0  0  0  0  0  0  0  0  0  0
   56.6903    9.9394   49.4424 C   0  0  0  0  0  0  0  0  0  0  0  0
   58.2917   13.5522   47.5772 C   0  0  0  0  0  0  0  0  0  0  0  0
   56.0622   11.1706   49.7108 C   0  0  0  0  0  0  0  0  0  0  0  0
   56.5541   12.3586   49.1215 C   0  0  0  0  0  0  0  0  0  0  0  0
   67.1648   15.0221   40.4839 C   0  0  2  0  0  0  0  0  0  0  0  0
   57.5728   15.7974   46.8033 C   0  0  0  0  0  0  0  0  0  0  0  0
   64.0290   17.9658   44.4193 C   0  0  2  0  0  0  0  0  0  0  0  0
   61.8432   18.2364   45.0585 C   0  0  2  0  0  0  0  0  0  0  0  0
   61.0518   17.2202   44.2369 C   0  0  0  0  0  0  0  0  0  0  0  0
   64.8849   13.3621   42.7995 C   0  0  0  0  0  0  0  0  0  0  0  0
   62.9262   13.6890   44.0985 C   0  0  0  0  0  0  0  0  0  0  0  0
   64.2116   15.5349   43.6861 C   0  0  0  0  0  0  0  0  0  0  0  0
   65.1569   14.7758   42.9507 C   0  0  0  0  0  0  0  0  0  0  0  0
   66.1619   15.7303   42.5395 C   0  0  0  0  0  0  0  0  0  0  0  0
   62.1334   19.4472   44.1527 C   0  0  2  0  0  0  0  0  0  0  0  0
   63.2611   18.8178   43.3624 C   0  0  1  0  0  0  0  0  0  0  0  0
   66.9996   13.6838   40.5087 F   0  0  0  0  0  0  0  0  0  0  0  0
   68.3729   15.2214   39.9206 F   0  0  0  0  0  0  0  0  0  0  0  0
   65.7561   12.5271   42.0958 N   0  0  0  0  0  0  0  0  0  0  0  0
   63.7797   12.8620   43.3952 N   0  0  0  0  0  0  0  0  0  0  0  0
   63.0876   15.0284   44.2798 N   0  0  0  0  0  0  0  0  0  0  0  0
   65.8510   16.9736   43.0165 N   0  0  0  0  0  0  0  0  0  0  0  0
   64.6403   16.8628   43.6624 N   0  0  0  0  0  0  0  0  0  0  0  0
   58.3456   16.1980   45.7792 N   0  0  0  0  0  0  0  0  0  0  0  0
   57.2248   13.8931   45.3081 N   0  0  0  0  0  0  0  0  0  0  0  0
   67.2801   15.4680   41.8067 O   0  0  0  0  0  0  0  0  0  0  0  0
   63.0196   17.5580   45.3203 O   0  0  0  0  0  0  0  0  0  0  0  0
   59.8092   17.5131   44.1614 O   0  0  0  0  0  0  0  0  0  0  0  0
   57.8345   18.5907   45.1632 O   0  0  0  0  0  0  0  0  0  0  0  0
   56.2412    8.7880   50.0218 O   0  0  0  0  0  0  0  0  0  0  0  0
   57.1781   16.5439   47.6834 O   0  0  0  0  0  0  0  0  0  0  0  0
   59.6854   18.2348   46.6225 O   0  0  0  0  0  0  0  0  0  0  0  0
   62.6126   20.5199   44.8999 O   0  0  0  0  0  0  0  0  0  0  0  0
   64.0919   19.8512   42.9282 O   0  0  0  0  0  0  0  0  0  0  0  0
   58.8583   17.7530   45.5843 S   0  0  1  0  0  0  0  0  0  0  0  0
   56.2193   14.1075   47.1442 H   0  0  0  0  0  0  0  0  0  0  0  0
   59.1805   11.0306   47.3547 H   0  0  0  0  0  0  0  0  0  0  0  0
   58.3689    8.9558   48.4409 H   0  0  0  0  0  0  0  0  0  0  0  0
   59.1094   13.2399   46.9110 H   0  0  0  0  0  0  0  0  0  0  0  0
   58.6577   14.2294   48.3629 H   0  0  0  0  0  0  0  0  0  0  0  0
   55.1891   11.2085   50.3788 H   0  0  0  0  0  0  0  0  0  0  0  0
   56.0575   13.3188   49.3255 H   0  0  0  0  0  0  0  0  0  0  0  0
   66.3409   15.5283   39.9596 H   0  0  0  0  0  0  0  0  0  0  0  0
   64.8315   18.4651   44.9821 H   0  0  0  0  0  0  0  0  0  0  0  0
   61.3377   18.5947   45.9674 H   0  0  0  0  0  0  0  0  0  0  0  0
   61.4690   17.1873   43.2196 H   0  0  0  0  0  0  0  0  0  0  0  0
   61.1356   16.2456   44.7400 H   0  0  0  0  0  0  0  0  0  0  0  0
   62.0381   13.2247   44.5521 H   0  0  0  0  0  0  0  0  0  0  0  0
   61.2842   19.8542   43.5841 H   0  0  0  0  0  0  0  0  0  0  0  0
   62.9276   18.2244   42.4983 H   0  0  0  0  0  0  0  0  0  0  0  0
   65.5432   11.5239   42.0003 H   0  0  0  0  0  0  0  0  0  0  0  0
   66.6113   12.9147   41.6724 H   0  0  0  0  0  0  0  0  0  0  0  0
   58.6322   15.4978   45.0803 H   0  0  0  0  0  0  0  0  0  0  0  0
   57.2396   12.8645   45.2567 H   0  0  0  0  0  0  0  0  0  0  0  0
   56.3787   14.2482   44.8403 H   0  0  0  0  0  0  0  0  0  0  0  0
   58.0605   14.2723   44.8403 H   0  0  0  0  0  0  0  0  0  0  0  0
   55.4375    8.8054   50.5996 H   0  0  0  0  0  0  0  0  0  0  0  0
   62.5219   20.3168   45.8646 H   0  0  0  0  0  0  0  0  0  0  0  0
   64.4704   20.3220   43.7126 H   0  0  0  0  0  0  0  0  0  0  0  0
  1  6  1  0
  1 10  1  0
  1 29  1  0
  2  3  2  0
  2  6  1  0
  2  8  1  0
  3  4  1  0
  4  5  2  0
  5  7  1  0
  5 34  1  0
  7  8  2  0
  9 21  1  0
  9 22  1  0
  9 30  1  0
 10 28  1  0
 10 35  2  0
 11 20  1  0
 11 27  1  0
 11 31  1  0
 12 13  1  0
 12 19  1  0
 12 31  1  0
 13 32  1  0
 14 17  2  0
 14 23  1  0
 14 24  1  0
 15 24  2  0
 15 25  1  0
 16 17  1  0
 16 25  2  0
 16 27  1  0
 17 18  1  0
 18 26  2  0
 18 30  1  0
 19 20  1  0
 19 37  1  0
 20 38  1  0
 26 27  1  0
 39 28  1  0
 39 32  1  6
 33 39  2  0
 36 39  2  0
  1 40  1  1
  3 41  1  0
  4 42  1  0
  6 43  1  0
  6 44  1  0
  7 45  1  0
  8 46  1  0
  9 47  1  6
 11 48  1  1
 12 49  1  1
 13 50  1  0
 13 51  1  0
 15 52  1  0
 19 53  1  6
 20 54  1  6
 23 55  1  0
 23 56  1  0
 28 57  1  0
 29 58  1  0
 29 59  1  0
 29 60  1  0
 34 61  1  0
 37 62  1  0
 38 63  1  0
M  CHG  1  29   1
M  END
>  <filename_input>  (19) 
7ROU_66I_docked.sdf

>  <pdb_id>  (19) 
7ROU_66I

>  <pose_rank>  (19) 
18

>  <num_atoms_heavy>  (19) 
39

>  <num_torsions>  (19) 
10

>  <pose>  (19) 
[64.02904004108453, 17.96575536697481, 44.419311312281195, -2.2508474782927346, -2.4689578214824723, -0.7090422046354554, 2.42421747215675, -1.6092790000738655, -0.337907790859871, 0.22533978369552246, -3.035571406174385, 6.700185553841396, 0.6379652432501617, 2.4703446049234175, -0.49628587200966673, -3.0975288441408613]

>  <energy>  (19) 
-601.456405379098

>  <inter_energy>  (19) 
-699.8852220602872

>  <intra_energy>  (19) 
99.6087873238802

>  <rmsd>  (19) 
9.888

>  <sdf_rank>  (19) 
0

$$$$

     RDKit          3D

 63 66  0  0  0  0  0  0  0  0999 V2000
   61.7312   20.3106   46.3080 C   0  0  1  0  0  0  0  0  0  0  0  0
   60.2265   22.2233   47.1067 C   0  0  0  0  0  0  0  0  0  0  0  0
   59.4977   23.0240   46.2313 C   0  0  0  0  0  0  0  0  0  0  0  0
   58.1906   23.4245   46.5078 C   0  0  0  0  0  0  0  0  0  0  0  0
   57.5823   23.0557   47.7360 C   0  0  0  0  0  0  0  0  0  0  0  0
   61.6472   21.8183   46.7159 C   0  0  0  0  0  0  0  0  0  0  0  0
   58.2823   22.2334   48.6394 C   0  0  0  0  0  0  0  0  0  0  0  0
   59.6005   21.8166   48.3407 C   0  0  0  0  0  0  0  0  0  0  0  0
   60.0464   15.7583   47.2922 C   0  0  2  0  0  0  0  0  0  0  0  0
   62.5556   20.2395   45.0310 C   0  0  0  0  0  0  0  0  0  0  0  0
   64.1371   13.3670   44.3610 C   0  0  2  0  0  0  0  0  0  0  0  0
   65.5087   15.1387   43.8724 C   0  0  2  0  0  0  0  0  0  0  0  0
   64.8435   16.3554   44.5136 C   0  0  0  0  0  0  0  0  0  0  0  0
   60.1332   11.6519   46.7228 C   0  0  0  0  0  0  0  0  0  0  0  0
   61.1364   10.2033   45.1335 C   0  0  0  0  0  0  0  0  0  0  0  0
   62.1339   12.2364   45.4513 C   0  0  0  0  0  0  0  0  0  0  0  0
   61.1626   12.6206   46.4104 C   0  0  0  0  0  0  0  0  0  0  0  0
   61.5467   13.9542   46.8156 C   0  0  0  0  0  0  0  0  0  0  0  0
   64.7733   14.8442   42.5520 C   0  0  2  0  0  0  0  0  0  0  0  0
   63.5571   14.1822   43.1644 C   0  0  1  0  0  0  0  0  0  0  0  0
   59.5511   15.3996   46.0901 F   0  0  0  0  0  0  0  0  0  0  0  0
   60.8292   16.8284   47.0500 F   0  0  0  0  0  0  0  0  0  0  0  0
   59.1288   11.9350   47.6514 N   0  0  0  0  0  0  0  0  0  0  0  0
   60.1475   10.4752   46.0582 N   0  0  0  0  0  0  0  0  0  0  0  0
   62.1524   11.0403   44.7871 N   0  0  0  0  0  0  0  0  0  0  0  0
   62.6602   14.3509   46.1281 N   0  0  0  0  0  0  0  0  0  0  0  0
   63.0462   13.2870   45.3443 N   0  0  0  0  0  0  0  0  0  0  0  0
   63.1590   19.0504   44.8625 N   0  0  0  0  0  0  0  0  0  0  0  0
   62.4037   19.4895   47.3543 N   0  0  0  0  0  0  0  0  0  0  0  0
   60.9083   14.7426   47.7251 O   0  0  0  0  0  0  0  0  0  0  0  0
   65.2433   14.1361   44.7871 O   0  0  0  0  0  0  0  0  0  0  0  0
   64.0575   16.9642   43.7093 O   0  0  0  0  0  0  0  0  0  0  0  0
   63.4318   18.9253   42.3574 O   0  0  0  0  0  0  0  0  0  0  0  0
   56.3015   23.4470   48.0000 O   0  0  0  0  0  0  0  0  0  0  0  0
   62.6412   21.1588   44.2341 O   0  0  0  0  0  0  0  0  0  0  0  0
   65.4296   19.1336   43.6410 O   0  0  0  0  0  0  0  0  0  0  0  0
   65.4839   13.9247   41.7850 O   0  0  0  0  0  0  0  0  0  0  0  0
   63.0478   13.2919   42.2185 O   0  0  0  0  0  0  0  0  0  0  0  0
   64.0934   18.6850   43.5540 S   0  0  1  0  0  0  0  0  0  0  0  0
   60.7140   19.9141   46.1741 H   0  0  0  0  0  0  0  0  0  0  0  0
   59.9676   23.3511   45.2921 H   0  0  0  0  0  0  0  0  0  0  0  0
   57.6319   24.0253   45.7751 H   0  0  0  0  0  0  0  0  0  0  0  0
   62.3153   21.9931   47.5721 H   0  0  0  0  0  0  0  0  0  0  0  0
   61.9484   22.4240   45.8485 H   0  0  0  0  0  0  0  0  0  0  0  0
   57.8041   21.9151   49.5775 H   0  0  0  0  0  0  0  0  0  0  0  0
   60.1495   21.1810   49.0510 H   0  0  0  0  0  0  0  0  0  0  0  0
   59.2486   15.9479   48.0254 H   0  0  0  0  0  0  0  0  0  0  0  0
   64.4725   12.3398   44.1552 H   0  0  0  0  0  0  0  0  0  0  0  0
   66.5808   15.2551   43.6553 H   0  0  0  0  0  0  0  0  0  0  0  0
   64.2647   16.0214   45.3874 H   0  0  0  0  0  0  0  0  0  0  0  0
   65.6389   17.0590   44.8004 H   0  0  0  0  0  0  0  0  0  0  0  0
   61.1000    9.2244   44.6330 H   0  0  0  0  0  0  0  0  0  0  0  0
   64.5992   15.6987   41.8816 H   0  0  0  0  0  0  0  0  0  0  0  0
   62.7692   14.8859   43.4710 H   0  0  0  0  0  0  0  0  0  0  0  0
   58.4060   11.2312   47.8587 H   0  0  0  0  0  0  0  0  0  0  0  0
   59.1111   12.8475   48.1288 H   0  0  0  0  0  0  0  0  0  0  0  0
   63.0311   18.3304   45.5879 H   0  0  0  0  0  0  0  0  0  0  0  0
   62.1267   19.8277   48.2869 H   0  0  0  0  0  0  0  0  0  0  0  0
   62.1240   18.5037   47.2496 H   0  0  0  0  0  0  0  0  0  0  0  0
   63.4253   19.5694   47.2496 H   0  0  0  0  0  0  0  0  0  0  0  0
   55.8724   23.1925   48.8551 H   0  0  0  0  0  0  0  0  0  0  0  0
   65.9667   13.2999   42.3822 H   0  0  0  0  0  0  0  0  0  0  0  0
   62.6132   12.5320   42.6809 H   0  0  0  0  0  0  0  0  0  0  0  0
  1  6  1  0
  1 10  1  0
  1 29  1  0
  2  3  2  0
  2  6  1  0
  2  8  1  0
  3  4  1  0
  4  5  2  0
  5  7  1  0
  5 34  1  0
  7  8  2  0
  9 21  1  0
  9 22  1  0
  9 30  1  0
 10 28  1  0
 10 35  2  0
 11 20  1  0
 11 27  1  0
 11 31  1  0
 12 13  1  0
 12 19  1  0
 12 31  1  0
 13 32  1  0
 14 17  2  0
 14 23  1  0
 14 24  1  0
 15 24  2  0
 15 25  1  0
 16 17  1  0
 16 25  2  0
 16 27  1  0
 17 18  1  0
 18 26  2  0
 18 30  1  0
 19 20  1  0
 19 37  1  0
 20 38  1  0
 26 27  1  0
 39 28  1  0
 39 32  1  1
 33 39  2  0
 36 39  2  0
  1 40  1  6
  3 41  1  0
  4 42  1  0
  6 43  1  0
  6 44  1  0
  7 45  1  0
  8 46  1  0
  9 47  1  1
 11 48  1  6
 12 49  1  6
 13 50  1  0
 13 51  1  0
 15 52  1  0
 19 53  1  6
 20 54  1  1
 23 55  1  0
 23 56  1  0
 28 57  1  0
 29 58  1  0
 29 59  1  0
 29 60  1  0
 34 61  1  0
 37 62  1  0
 38 63  1  0
M  CHG  1  29   1
M  END
>  <filename_input>  (20) 
7ROU_66I_docked.sdf

>  <pdb_id>  (20) 
7ROU_66I

>  <pose_rank>  (20) 
19

>  <num_atoms_heavy>  (20) 
39

>  <num_torsions>  (20) 
10

>  <pose>  (20) 
[64.13707627041303, 13.36695677544732, 44.36098509481423, -2.6958070670357746, 0.0039020944105940935, 2.0710483749563546, -0.3539960426507582, 1.802824769886054, 1.6179156204234786, -4.8791172199724855, 1.8783917767302913, -5.7189046902129, 0.9955597531760731, 3.544248925216052, -0.7228452586320022, -0.8624768807848671]

>  <energy>  (20) 
-731.2391744713267

>  <inter_energy>  (20) 
-735.1434521427066

>  <intra_energy>  (20) 
25.455986806354066

>  <rmsd>  (20) 
9.45358

>  <sdf_rank>  (20) 
0

$$$$

     RDKit          3D

 63 66  0  0  0  0  0  0  0  0999 V2000
   57.6330   16.1432   47.0426 C   0  0  1  0  0  0  0  0  0  0  0  0
   57.1969   14.0349   45.6550 C   0  0  0  0  0  0  0  0  0  0  0  0
   58.3016   13.1920   45.7433 C   0  0  0  0  0  0  0  0  0  0  0  0
   58.1718   11.8045   45.8021 C   0  0  0  0  0  0  0  0  0  0  0  0
   56.8854   11.2101   45.7223 C   0  0  0  0  0  0  0  0  0  0  0  0
   57.4309   15.5443   45.6118 C   0  0  0  0  0  0  0  0  0  0  0  0
   55.7436   12.0306   45.6482 C   0  0  0  0  0  0  0  0  0  0  0  0
   55.8851   13.4374   45.6087 C   0  0  0  0  0  0  0  0  0  0  0  0
   65.6057   15.8098   42.9691 C   0  0  2  0  0  0  0  0  0  0  0  0
   57.1453   17.5837   46.9960 C   0  0  0  0  0  0  0  0  0  0  0  0
   62.6306   19.8668   45.5544 C   0  0  2  0  0  0  0  0  0  0  0  0
   60.7161   20.8992   46.2812 C   0  0  2  0  0  0  0  0  0  0  0  0
   59.5673   20.0461   45.7462 C   0  0  0  0  0  0  0  0  0  0  0  0
   62.4794   14.9240   45.2440 C   0  0  0  0  0  0  0  0  0  0  0  0
   61.3056   15.9158   47.0522 C   0  0  0  0  0  0  0  0  0  0  0  0
   62.3625   17.3359   45.6045 C   0  0  0  0  0  0  0  0  0  0  0  0
   62.8541   16.2581   44.8252 C   0  0  0  0  0  0  0  0  0  0  0  0
   63.6194   16.8812   43.7686 C   0  0  0  0  0  0  0  0  0  0  0  0
   61.2185   21.7857   45.1268 C   0  0  2  0  0  0  0  0  0  0  0  0
   62.0063   20.7141   44.4033 C   0  0  1  0  0  0  0  0  0  0  0  0
   66.4198   16.8795   42.8596 F   0  0  0  0  0  0  0  0  0  0  0  0
   65.9016   15.0274   41.9123 F   0  0  0  0  0  0  0  0  0  0  0  0
   62.9149   13.7955   44.5455 N   0  0  0  0  0  0  0  0  0  0  0  0
   61.7258   14.7979   46.3587 N   0  0  0  0  0  0  0  0  0  0  0  0
   61.5909   17.2065   46.7270 N   0  0  0  0  0  0  0  0  0  0  0  0
   63.6059   18.2404   43.9187 N   0  0  0  0  0  0  0  0  0  0  0  0
   62.7973   18.5154   44.9984 N   0  0  0  0  0  0  0  0  0  0  0  0
   58.0027   18.4459   47.5688 N   0  0  0  0  0  0  0  0  0  0  0  0
   56.8424   15.4065   48.0691 N   0  0  0  0  0  0  0  0  0  0  0  0
   64.2899   16.2455   42.7674 O   0  0  0  0  0  0  0  0  0  0  0  0
   61.6738   19.9508   46.5908 O   0  0  0  0  0  0  0  0  0  0  0  0
   58.4217   20.4876   46.1042 O   0  0  0  0  0  0  0  0  0  0  0  0
   56.3977   20.3915   47.5038 O   0  0  0  0  0  0  0  0  0  0  0  0
   56.7637    9.8520   45.7842 O   0  0  0  0  0  0  0  0  0  0  0  0
   56.0960   17.9216   46.4741 O   0  0  0  0  0  0  0  0  0  0  0  0
   58.4533   20.7398   48.6594 O   0  0  0  0  0  0  0  0  0  0  0  0
   62.0773   22.7741   45.6003 O   0  0  0  0  0  0  0  0  0  0  0  0
   63.0330   21.3519   43.7064 O   0  0  0  0  0  0  0  0  0  0  0  0
   57.7422   20.0726   47.6380 S   0  0  1  0  0  0  0  0  0  0  0  0
   58.6947   16.0677   47.3204 H   0  0  0  0  0  0  0  0  0  0  0  0
   59.3085   13.6343   45.7674 H   0  0  0  0  0  0  0  0  0  0  0  0
   59.0652   11.1719   45.9103 H   0  0  0  0  0  0  0  0  0  0  0  0
   56.5596   16.0262   45.1442 H   0  0  0  0  0  0  0  0  0  0  0  0
   58.3461   15.7314   45.0309 H   0  0  0  0  0  0  0  0  0  0  0  0
   54.7416   11.5776   45.6210 H   0  0  0  0  0  0  0  0  0  0  0  0
   54.9927   14.0771   45.5425 H   0  0  0  0  0  0  0  0  0  0  0  0
   65.7177   15.3058   43.9405 H   0  0  0  0  0  0  0  0  0  0  0  0
   63.6087   20.1875   45.9424 H   0  0  0  0  0  0  0  0  0  0  0  0
   60.4574   21.5478   47.1311 H   0  0  0  0  0  0  0  0  0  0  0  0
   59.6150   20.0392   44.6472 H   0  0  0  0  0  0  0  0  0  0  0  0
   59.6805   19.0341   46.1621 H   0  0  0  0  0  0  0  0  0  0  0  0
   60.6862   15.7486   47.9457 H   0  0  0  0  0  0  0  0  0  0  0  0
   60.4539   22.3266   44.5498 H   0  0  0  0  0  0  0  0  0  0  0  0
   61.4072   20.1095   43.7065 H   0  0  0  0  0  0  0  0  0  0  0  0
   62.6364   12.8553   44.8610 H   0  0  0  0  0  0  0  0  0  0  0  0
   63.5146   13.9034   43.7151 H   0  0  0  0  0  0  0  0  0  0  0  0
   58.8668   18.0713   47.9858 H   0  0  0  0  0  0  0  0  0  0  0  0
   57.1497   15.6928   49.0096 H   0  0  0  0  0  0  0  0  0  0  0  0
   55.8423   15.6242   47.9535 H   0  0  0  0  0  0  0  0  0  0  0  0
   56.9889   14.3936   47.9535 H   0  0  0  0  0  0  0  0  0  0  0  0
   55.8689    9.4321   45.7290 H   0  0  0  0  0  0  0  0  0  0  0  0
   62.0727   22.7688   46.5902 H   0  0  0  0  0  0  0  0  0  0  0  0
   63.6719   21.7488   44.3502 H   0  0  0  0  0  0  0  0  0  0  0  0
  1  6  1  0
  1 10  1  0
  1 29  1  0
  2  3  2  0
  2  6  1  0
  2  8  1  0
  3  4  1  0
  4  5  2  0
  5  7  1  0
  5 34  1  0
  7  8  2  0
  9 21  1  0
  9 22  1  0
  9 30  1  0
 10 28  1  0
 10 35  2  0
 11 20  1  0
 11 27  1  0
 11 31  1  0
 12 13  1  0
 12 19  1  0
 12 31  1  0
 13 32  1  0
 14 17  2  0
 14 23  1  0
 14 24  1  0
 15 24  2  0
 15 25  1  0
 16 17  1  0
 16 25  2  0
 16 27  1  0
 17 18  1  0
 18 26  2  0
 18 30  1  0
 19 20  1  0
 19 37  1  0
 20 38  1  0
 26 27  1  0
 39 28  1  0
 39 32  1  6
 33 39  2  0
 36 39  2  0
  1 40  1  1
  3 41  1  0
  4 42  1  0
  6 43  1  0
  6 44  1  0
  7 45  1  0
  8 46  1  0
  9 47  1  1
 11 48  1  1
 12 49  1  1
 13 50  1  0
 13 51  1  0
 15 52  1  0
 19 53  1  6
 20 54  1  6
 23 55  1  0
 23 56  1  0
 28 57  1  0
 29 58  1  0
 29 59  1  0
 29 60  1  0
 34 61  1  0
 37 62  1  0
 38 63  1  0
M  CHG  1  29   1
M  END
>  <filename_input>  (21) 
7ROU_66I_docked.sdf

>  <pdb_id>  (21) 
7ROU_66I

>  <pose_rank>  (21) 
20

>  <num_atoms_heavy>  (21) 
39

>  <num_torsions>  (21) 
10

>  <pose>  (21) 
[62.63064558978044, 19.866816462872087, 45.55435030679128, 2.096722659605147, 1.7765052632342415, 0.2201337996557554, 2.0256181586833746, 2.035395942390371, -0.22236384399227854, 6.125266706314487, 2.7449098544062305, 7.439583916475911, -3.9797613990457266, -1.4801821191325615, -11.992498317983756, -0.43159470052759585]

>  <energy>  (21) 
-664.3628027914402

>  <inter_energy>  (21) 
-711.1282511250471

>  <intra_energy>  (21) 
45.06269795734996

>  <rmsd>  (21) 
8.59227

>  <sdf_rank>  (21) 
0

$$$$

     RDKit          3D

 63 66  0  0  0  0  0  0  0  0999 V2000
   56.4580   16.3586   47.5094 C   0  0  1  0  0  0  0  0  0  0  0  0
   58.3270   14.7887   48.2859 C   0  0  0  0  0  0  0  0  0  0  0  0
   58.1672   13.4295   48.0293 C   0  0  0  0  0  0  0  0  0  0  0  0
   59.2291   12.6232   47.6198 C   0  0  0  0  0  0  0  0  0  0  0  0
   60.5316   13.1747   47.5012 C   0  0  0  0  0  0  0  0  0  0  0  0
   57.1051   15.6000   48.7146 C   0  0  0  0  0  0  0  0  0  0  0  0
   60.7291   14.5487   47.7370 C   0  0  0  0  0  0  0  0  0  0  0  0
   59.6415   15.3617   48.1331 C   0  0  0  0  0  0  0  0  0  0  0  0
   61.3208   14.9294   43.9096 C   0  0  2  0  0  0  0  0  0  0  0  0
   56.4578   17.8387   47.8624 C   0  0  0  0  0  0  0  0  0  0  0  0
   62.9306   20.1756   45.2828 C   0  0  2  0  0  0  0  0  0  0  0  0
   61.3407   21.1030   46.6510 C   0  0  2  0  0  0  0  0  0  0  0  0
   60.3527   19.9758   46.9466 C   0  0  0  0  0  0  0  0  0  0  0  0
   65.0510   16.1449   43.3315 C   0  0  0  0  0  0  0  0  0  0  0  0
   66.1799   18.2069   43.0078 C   0  0  0  0  0  0  0  0  0  0  0  0
   64.2422   18.2700   44.2207 C   0  0  0  0  0  0  0  0  0  0  0  0
   64.0421   16.8743   44.0703 C   0  0  0  0  0  0  0  0  0  0  0  0
   62.8075   16.5976   44.7697 C   0  0  0  0  0  0  0  0  0  0  0  0
   61.0157   21.6559   45.2512 C   0  0  2  0  0  0  0  0  0  0  0  0
   61.6558   20.5355   44.4592 C   0  0  1  0  0  0  0  0  0  0  0  0
   60.1706   15.6242   44.0243 F   0  0  0  0  0  0  0  0  0  0  0  0
   61.0073   13.6631   44.2482 F   0  0  0  0  0  0  0  0  0  0  0  0
   64.9446   14.7675   43.1250 N   0  0  0  0  0  0  0  0  0  0  0  0
   66.0836   16.8435   42.8099 N   0  0  0  0  0  0  0  0  0  0  0  0
   65.2940   18.9739   43.7005 N   0  0  0  0  0  0  0  0  0  0  0  0
   62.2909   17.7543   45.2848 N   0  0  0  0  0  0  0  0  0  0  0  0
   63.1909   18.7561   44.9992 N   0  0  0  0  0  0  0  0  0  0  0  0
   57.5785   18.4703   47.4731 N   0  0  0  0  0  0  0  0  0  0  0  0
   57.2364   16.1697   46.2525 N   0  0  0  0  0  0  0  0  0  0  0  0
   62.2012   15.3844   44.8994 O   0  0  0  0  0  0  0  0  0  0  0  0
   62.5526   20.4375   46.6191 O   0  0  0  0  0  0  0  0  0  0  0  0
   59.1567   20.2705   46.6028 O   0  0  0  0  0  0  0  0  0  0  0  0
   56.8278   20.8569   47.1477 O   0  0  0  0  0  0  0  0  0  0  0  0
   61.5665   12.3822   47.0963 O   0  0  0  0  0  0  0  0  0  0  0  0
   55.5280   18.3964   48.4208 O   0  0  0  0  0  0  0  0  0  0  0  0
   58.2613   20.4311   49.0040 O   0  0  0  0  0  0  0  0  0  0  0  0
   61.6921   22.8513   45.0226 O   0  0  0  0  0  0  0  0  0  0  0  0
   62.0494   21.0669   43.2307 O   0  0  0  0  0  0  0  0  0  0  0  0
   57.8373   20.0824   47.7029 S   0  0  1  0  0  0  0  0  0  0  0  0
   55.4444   15.9675   47.3371 H   0  0  0  0  0  0  0  0  0  0  0  0
   57.1722   12.9773   48.1535 H   0  0  0  0  0  0  0  0  0  0  0  0
   59.0575   11.5615   47.3891 H   0  0  0  0  0  0  0  0  0  0  0  0
   57.4139   16.3345   49.4729 H   0  0  0  0  0  0  0  0  0  0  0  0
   56.3574   14.9026   49.1203 H   0  0  0  0  0  0  0  0  0  0  0  0
   61.7291   14.9898   47.6132 H   0  0  0  0  0  0  0  0  0  0  0  0
   59.7988   16.4333   48.3249 H   0  0  0  0  0  0  0  0  0  0  0  0
   61.7605   15.0252   42.9058 H   0  0  0  0  0  0  0  0  0  0  0  0
   63.8514   20.7325   45.0549 H   0  0  0  0  0  0  0  0  0  0  0  0
   61.3228   21.9372   47.3677 H   0  0  0  0  0  0  0  0  0  0  0  0
   60.6671   19.0774   46.3952 H   0  0  0  0  0  0  0  0  0  0  0  0
   60.3558   19.8050   48.0332 H   0  0  0  0  0  0  0  0  0  0  0  0
   67.0486   18.7178   42.5670 H   0  0  0  0  0  0  0  0  0  0  0  0
   59.9598   21.8828   45.0420 H   0  0  0  0  0  0  0  0  0  0  0  0
   60.9978   19.6697   44.2933 H   0  0  0  0  0  0  0  0  0  0  0  0
   65.6740   14.2681   42.5963 H   0  0  0  0  0  0  0  0  0  0  0  0
   64.1367   14.2512   43.5014 H   0  0  0  0  0  0  0  0  0  0  0  0
   58.3134   17.9190   47.0073 H   0  0  0  0  0  0  0  0  0  0  0  0
   58.2115   15.9330   46.4849 H   0  0  0  0  0  0  0  0  0  0  0  0
   56.8194   15.4055   45.7020 H   0  0  0  0  0  0  0  0  0  0  0  0
   57.2161   17.0400   45.7020 H   0  0  0  0  0  0  0  0  0  0  0  0
   62.4770   12.7617   47.0119 H   0  0  0  0  0  0  0  0  0  0  0  0
   61.9279   23.2679   45.8892 H   0  0  0  0  0  0  0  0  0  0  0  0
   62.6317   21.8531   43.3825 H   0  0  0  0  0  0  0  0  0  0  0  0
  1  6  1  0
  1 10  1  0
  1 29  1  0
  2  3  2  0
  2  6  1  0
  2  8  1  0
  3  4  1  0
  4  5  2  0
  5  7  1  0
  5 34  1  0
  7  8  2  0
  9 21  1  0
  9 22  1  0
  9 30  1  0
 10 28  1  0
 10 35  2  0
 11 20  1  0
 11 27  1  0
 11 31  1  0
 12 13  1  0
 12 19  1  0
 12 31  1  0
 13 32  1  0
 14 17  2  0
 14 23  1  0
 14 24  1  0
 15 24  2  0
 15 25  1  0
 16 17  1  0
 16 25  2  0
 16 27  1  0
 17 18  1  0
 18 26  2  0
 18 30  1  0
 19 20  1  0
 19 37  1  0
 20 38  1  0
 26 27  1  0
 39 28  1  0
 39 32  1  6
 33 39  2  0
 36 39  2  0
  1 40  1  6
  3 41  1  0
  4 42  1  0
  6 43  1  0
  6 44  1  0
  7 45  1  0
  8 46  1  0
  9 47  1  6
 11 48  1  6
 12 49  1  1
 13 50  1  0
 13 51  1  0
 15 52  1  0
 19 53  1  1
 20 54  1  6
 23 55  1  0
 23 56  1  0
 28 57  1  0
 29 58  1  0
 29 59  1  0
 29 60  1  0
 34 61  1  0
 37 62  1  0
 38 63  1  0
M  CHG  1  29   1
M  END
>  <filename_input>  (22) 
7ROU_66I_docked.sdf

>  <pdb_id>  (22) 
7ROU_66I

>  <pose_rank>  (22) 
21

>  <num_atoms_heavy>  (22) 
39

>  <num_torsions>  (22) 
10

>  <pose>  (22) 
[62.93055807498003, 20.17557638430812, 45.28283479297245, -2.1666483934711014, -2.516652263466051, 0.5893789969996392, -0.10440642741246108, -10.529703704516773, -0.1500054438549361, 7.155355865109222, 1.9611883556994336, 0.55923235350192, 0.9468885456337535, 2.4074777224430424, 1.0810405864076904, -0.6933986205401114]

>  <energy>  (22) 
-728.6980633419399

>  <inter_energy>  (22) 
-739.2912336817302

>  <intra_energy>  (22) 
23.555322191154126

>  <rmsd>  (22) 
8.17571

>  <sdf_rank>  (22) 
0

$$$$

     RDKit          3D

 63 66  0  0  0  0  0  0  0  0999 V2000
   65.6785   15.1321   43.6336 C   0  0  1  0  0  0  0  0  0  0  0  0
   66.6902   14.8712   41.2950 C   0  0  0  0  0  0  0  0  0  0  0  0
   66.9099   13.6096   40.7484 C   0  0  0  0  0  0  0  0  0  0  0  0
   68.0467   13.3165   39.9953 C   0  0  0  0  0  0  0  0  0  0  0  0
   69.0465   14.3065   39.8085 C   0  0  0  0  0  0  0  0  0  0  0  0
   65.4088   15.1088   42.0930 C   0  0  0  0  0  0  0  0  0  0  0  0
   68.8521   15.5987   40.3328 C   0  0  0  0  0  0  0  0  0  0  0  0
   67.6865   15.8912   41.0787 C   0  0  0  0  0  0  0  0  0  0  0  0
   55.4973   12.9109   45.0832 C   0  0  2  0  0  0  0  0  0  0  0  0
   64.4735   14.4919   44.3069 C   0  0  0  0  0  0  0  0  0  0  0  0
   59.0385   15.3989   48.6838 C   0  0  2  0  0  0  0  0  0  0  0  0
   61.0127   15.5368   47.5249 C   0  0  2  0  0  0  0  0  0  0  0  0
   60.8211   14.6558   46.2915 C   0  0  0  0  0  0  0  0  0  0  0  0
   54.1533   14.5769   48.5867 C   0  0  0  0  0  0  0  0  0  0  0  0
   54.9265   16.2333   50.0997 C   0  0  0  0  0  0  0  0  0  0  0  0
   56.5035   15.2015   48.8044 C   0  0  0  0  0  0  0  0  0  0  0  0
   55.5291   14.3817   48.1806 C   0  0  0  0  0  0  0  0  0  0  0  0
   56.2731   13.5585   47.2538 C   0  0  0  0  0  0  0  0  0  0  0  0
   61.3279   14.6133   48.7160 C   0  0  2  0  0  0  0  0  0  0  0  0
   59.9114   14.1353   48.9561 C   0  0  1  0  0  0  0  0  0  0  0  0
   56.6511   13.3095   44.5098 F   0  0  0  0  0  0  0  0  0  0  0  0
   54.7124   14.0064   45.1033 F   0  0  0  0  0  0  0  0  0  0  0  0
   53.1194   13.8172   48.0344 N   0  0  0  0  0  0  0  0  0  0  0  0
   53.9002   15.4913   49.5490 N   0  0  0  0  0  0  0  0  0  0  0  0
   56.2438   16.1342   49.7713 N   0  0  0  0  0  0  0  0  0  0  0  0
   57.6067   13.8498   47.3340 N   0  0  0  0  0  0  0  0  0  0  0  0
   57.7366   14.8845   48.2328 N   0  0  0  0  0  0  0  0  0  0  0  0
   63.3621   14.5457   43.5531 N   0  0  0  0  0  0  0  0  0  0  0  0
   66.8956   14.3518   43.9956 N   0  0  0  0  0  0  0  0  0  0  0  0
   55.7639   12.6054   46.4239 O   0  0  0  0  0  0  0  0  0  0  0  0
   59.7593   16.0976   47.6892 O   0  0  0  0  0  0  0  0  0  0  0  0
   61.5875   14.9933   45.3250 O   0  0  0  0  0  0  0  0  0  0  0  0
   60.9076   14.1704   43.1057 O   0  0  0  0  0  0  0  0  0  0  0  0
   70.1552   14.0156   39.0673 O   0  0  0  0  0  0  0  0  0  0  0  0
   64.5185   13.9663   45.4066 O   0  0  0  0  0  0  0  0  0  0  0  0
   61.9901   12.5877   44.5219 O   0  0  0  0  0  0  0  0  0  0  0  0
   61.7760   15.3512   49.8084 O   0  0  0  0  0  0  0  0  0  0  0  0
   59.8089   13.8004   50.3066 O   0  0  0  0  0  0  0  0  0  0  0  0
   61.9164   13.9065   44.0222 S   0  0  1  0  0  0  0  0  0  0  0  0
   65.8385   16.1710   43.9579 H   0  0  0  0  0  0  0  0  0  0  0  0
   66.1635   12.8191   40.9159 H   0  0  0  0  0  0  0  0  0  0  0  0
   68.1682   12.3195   39.5467 H   0  0  0  0  0  0  0  0  0  0  0  0
   64.6953   14.3023   41.8688 H   0  0  0  0  0  0  0  0  0  0  0  0
   65.0026   16.0889   41.8026 H   0  0  0  0  0  0  0  0  0  0  0  0
   69.6067   16.3807   40.1623 H   0  0  0  0  0  0  0  0  0  0  0  0
   67.5396   16.8988   41.4948 H   0  0  0  0  0  0  0  0  0  0  0  0
   55.0513   12.0541   44.5569 H   0  0  0  0  0  0  0  0  0  0  0  0
   58.8514   16.0741   49.5319 H   0  0  0  0  0  0  0  0  0  0  0  0
   61.8151   16.2847   47.4423 H   0  0  0  0  0  0  0  0  0  0  0  0
   61.0378   13.6128   46.5659 H   0  0  0  0  0  0  0  0  0  0  0  0
   59.7818   14.7770   45.9522 H   0  0  0  0  0  0  0  0  0  0  0  0
   54.6558   16.9690   50.8715 H   0  0  0  0  0  0  0  0  0  0  0  0
   62.0995   13.8458   48.5561 H   0  0  0  0  0  0  0  0  0  0  0  0
   59.6173   13.2738   48.3386 H   0  0  0  0  0  0  0  0  0  0  0  0
   52.1475   13.9725   48.3378 H   0  0  0  0  0  0  0  0  0  0  0  0
   53.3290   13.1016   47.3238 H   0  0  0  0  0  0  0  0  0  0  0  0
   63.4162   15.0100   42.6353 H   0  0  0  0  0  0  0  0  0  0  0  0
   66.9774   14.2993   45.0210 H   0  0  0  0  0  0  0  0  0  0  0  0
   66.8214   13.4004   43.6080 H   0  0  0  0  0  0  0  0  0  0  0  0
   67.7292   14.8163   43.6080 H   0  0  0  0  0  0  0  0  0  0  0  0
   70.8556   14.7024   38.9339 H   0  0  0  0  0  0  0  0  0  0  0  0
   61.5021   14.9002   50.6460 H   0  0  0  0  0  0  0  0  0  0  0  0
   60.0490   14.5851   50.8604 H   0  0  0  0  0  0  0  0  0  0  0  0
  1  6  1  0
  1 10  1  0
  1 29  1  0
  2  3  2  0
  2  6  1  0
  2  8  1  0
  3  4  1  0
  4  5  2  0
  5  7  1  0
  5 34  1  0
  7  8  2  0
  9 21  1  0
  9 22  1  0
  9 30  1  0
 10 28  1  0
 10 35  2  0
 11 20  1  0
 11 27  1  0
 11 31  1  0
 12 13  1  0
 12 19  1  0
 12 31  1  0
 13 32  1  0
 14 17  2  0
 14 23  1  0
 14 24  1  0
 15 24  2  0
 15 25  1  0
 16 17  1  0
 16 25  2  0
 16 27  1  0
 17 18  1  0
 18 26  2  0
 18 30  1  0
 19 20  1  0
 19 37  1  0
 20 38  1  0
 26 27  1  0
 39 28  1  0
 39 32  1  1
 33 39  2  0
 36 39  2  0
  1 40  1  1
  3 41  1  0
  4 42  1  0
  6 43  1  0
  6 44  1  0
  7 45  1  0
  8 46  1  0
  9 47  1  6
 11 48  1  1
 12 49  1  6
 13 50  1  0
 13 51  1  0
 15 52  1  0
 19 53  1  6
 20 54  1  6
 23 55  1  0
 23 56  1  0
 28 57  1  0
 29 58  1  0
 29 59  1  0
 29 60  1  0
 34 61  1  0
 37 62  1  0
 38 63  1  0
M  CHG  1  29   1
M  END
>  <filename_input>  (23) 
7ROU_66I_docked.sdf

>  <pdb_id>  (23) 
7ROU_66I

>  <pose_rank>  (23) 
22

>  <num_atoms_heavy>  (23) 
39

>  <num_torsions>  (23) 
10

>  <pose>  (23) 
[59.03854314754643, 15.398938919967138, 48.683843745574926, -3.6630562016224424, 3.2885126820757695, -1.3679811560996291, 0.1890663786554863, -1.032370939816128, 2.174412544604217, -0.5534596550748377, 0.7495232513603058, -0.7182376700751345, -1.2892003157692726, 0.4392223088660634, 0.6949361634183665, -3.463102317900327]

>  <energy>  (23) 
-719.7389836149831

>  <inter_energy>  (23) 
-716.511965977265

>  <intra_energy>  (23) 
18.867080949692355

>  <rmsd>  (23) 
5.3577

>  <sdf_rank>  (23) 
0

$$$$

     RDKit          3D

 63 66  0  0  0  0  0  0  0  0999 V2000
   62.6090   20.6606   45.2934 C   0  0  1  0  0  0  0  0  0  0  0  0
   60.5699   21.3444   46.6843 C   0  0  0  0  0  0  0  0  0  0  0  0
   59.1871   21.2142   46.5854 C   0  0  0  0  0  0  0  0  0  0  0  0
   58.3169   22.2239   46.9961 C   0  0  0  0  0  0  0  0  0  0  0  0
   58.8368   23.4495   47.4882 C   0  0  0  0  0  0  0  0  0  0  0  0
   61.4481   20.1811   46.2255 C   0  0  0  0  0  0  0  0  0  0  0  0
   60.2294   23.6120   47.6176 C   0  0  0  0  0  0  0  0  0  0  0  0
   61.1028   22.5743   47.2164 C   0  0  0  0  0  0  0  0  0  0  0  0
   56.2966   19.6821   49.3855 C   0  0  2  0  0  0  0  0  0  0  0  0
   63.2235   19.4160   44.6700 C   0  0  0  0  0  0  0  0  0  0  0  0
   58.6612   14.9987   47.3904 C   0  0  2  0  0  0  0  0  0  0  0  0
   59.9852   14.5501   45.5723 C   0  0  2  0  0  0  0  0  0  0  0  0
   60.6418   15.8812   45.2106 C   0  0  0  0  0  0  0  0  0  0  0  0
   59.1889   17.7487   51.4781 C   0  0  0  0  0  0  0  0  0  0  0  0
   60.0412   15.5357   51.5637 C   0  0  0  0  0  0  0  0  0  0  0  0
   59.0921   16.2010   49.5923 C   0  0  0  0  0  0  0  0  0  0  0  0
   58.7832   17.4828   50.1142 C   0  0  0  0  0  0  0  0  0  0  0  0
   58.1247   18.1771   49.0305 C   0  0  0  0  0  0  0  0  0  0  0  0
   58.5514   14.5671   45.0111 C   0  0  2  0  0  0  0  0  0  0  0  0
   57.9475   15.4531   46.0800 C   0  0  1  0  0  0  0  0  0  0  0  0
   55.9403   18.7931   50.3351 F   0  0  0  0  0  0  0  0  0  0  0  0
   55.5849   19.3407   48.2930 F   0  0  0  0  0  0  0  0  0  0  0  0
   58.9282   18.9793   52.0854 N   0  0  0  0  0  0  0  0  0  0  0  0
   59.7943   16.7544   52.1646 N   0  0  0  0  0  0  0  0  0  0  0  0
   59.7145   15.1990   50.2859 N   0  0  0  0  0  0  0  0  0  0  0  0
   58.0254   17.3578   47.9401 N   0  0  0  0  0  0  0  0  0  0  0  0
   58.6625   16.1814   48.2647 N   0  0  0  0  0  0  0  0  0  0  0  0
   62.5362   18.2956   44.9508 N   0  0  0  0  0  0  0  0  0  0  0  0
   62.1138   21.5447   44.2004 N   0  0  0  0  0  0  0  0  0  0  0  0
   57.6383   19.4495   49.0572 O   0  0  0  0  0  0  0  0  0  0  0  0
   59.9453   14.6020   46.9537 O   0  0  0  0  0  0  0  0  0  0  0  0
   61.9090   15.8647   45.3825 O   0  0  0  0  0  0  0  0  0  0  0  0
   62.4860   16.5830   43.0987 O   0  0  0  0  0  0  0  0  0  0  0  0
   57.9808   24.4328   47.8924 O   0  0  0  0  0  0  0  0  0  0  0  0
   64.2229   19.4376   43.9712 O   0  0  0  0  0  0  0  0  0  0  0  0
   64.2991   16.4381   44.6394 O   0  0  0  0  0  0  0  0  0  0  0  0
   57.9843   13.2966   45.0654 O   0  0  0  0  0  0  0  0  0  0  0  0
   56.5930   15.1311   46.1707 O   0  0  0  0  0  0  0  0  0  0  0  0
   62.9597   16.8061   44.3844 S   0  0  1  0  0  0  0  0  0  0  0  0
   63.3354   21.2362   45.8859 H   0  0  0  0  0  0  0  0  0  0  0  0
   58.7679   20.2859   46.1703 H   0  0  0  0  0  0  0  0  0  0  0  0
   57.2292   22.0706   46.9387 H   0  0  0  0  0  0  0  0  0  0  0  0
   60.8251   19.4601   45.6759 H   0  0  0  0  0  0  0  0  0  0  0  0
   61.8955   19.7185   47.1176 H   0  0  0  0  0  0  0  0  0  0  0  0
   60.6381   24.5460   48.0308 H   0  0  0  0  0  0  0  0  0  0  0  0
   62.1909   22.7057   47.3103 H   0  0  0  0  0  0  0  0  0  0  0  0
   56.1372   20.7199   49.7134 H   0  0  0  0  0  0  0  0  0  0  0  0
   58.2026   14.1722   47.9530 H   0  0  0  0  0  0  0  0  0  0  0  0
   60.4996   13.6576   45.1865 H   0  0  0  0  0  0  0  0  0  0  0  0
   60.4320   16.1024   44.1537 H   0  0  0  0  0  0  0  0  0  0  0  0
   60.2242   16.6516   45.8755 H   0  0  0  0  0  0  0  0  0  0  0  0
   60.5462   14.7700   52.1709 H   0  0  0  0  0  0  0  0  0  0  0  0
   58.4336   14.8860   43.9650 H   0  0  0  0  0  0  0  0  0  0  0  0
   58.0588   16.5302   45.8864 H   0  0  0  0  0  0  0  0  0  0  0  0
   59.2257   19.1473   53.0571 H   0  0  0  0  0  0  0  0  0  0  0  0
   58.4385   19.7186   51.5616 H   0  0  0  0  0  0  0  0  0  0  0  0
   61.7023   18.3713   45.5505 H   0  0  0  0  0  0  0  0  0  0  0  0
   61.6516   22.3696   44.6088 H   0  0  0  0  0  0  0  0  0  0  0  0
   62.9074   21.8487   43.6185 H   0  0  0  0  0  0  0  0  0  0  0  0
   61.4400   21.0266   43.6185 H   0  0  0  0  0  0  0  0  0  0  0  0
   58.3381   25.2895   48.2365 H   0  0  0  0  0  0  0  0  0  0  0  0
   57.8648   13.0287   46.0110 H   0  0  0  0  0  0  0  0  0  0  0  0
   56.3317   15.0689   47.1236 H   0  0  0  0  0  0  0  0  0  0  0  0
  1  6  1  0
  1 10  1  0
  1 29  1  0
  2  3  2  0
  2  6  1  0
  2  8  1  0
  3  4  1  0
  4  5  2  0
  5  7  1  0
  5 34  1  0
  7  8  2  0
  9 21  1  0
  9 22  1  0
  9 30  1  0
 10 28  1  0
 10 35  2  0
 11 20  1  0
 11 27  1  0
 11 31  1  0
 12 13  1  0
 12 19  1  0
 12 31  1  0
 13 32  1  0
 14 17  2  0
 14 23  1  0
 14 24  1  0
 15 24  2  0
 15 25  1  0
 16 17  1  0
 16 25  2  0
 16 27  1  0
 17 18  1  0
 18 26  2  0
 18 30  1  0
 19 20  1  0
 19 37  1  0
 20 38  1  0
 26 27  1  0
 39 28  1  0
 39 32  1  1
 33 39  2  0
 36 39  2  0
  1 40  1  1
  3 41  1  0
  4 42  1  0
  6 43  1  0
  6 44  1  0
  7 45  1  0
  8 46  1  0
  9 47  1  1
 11 48  1  1
 12 49  1  1
 13 50  1  0
 13 51  1  0
 15 52  1  0
 19 53  1  6
 20 54  1  6
 23 55  1  0
 23 56  1  0
 28 57  1  0
 29 58  1  0
 29 59  1  0
 29 60  1  0
 34 61  1  0
 37 62  1  0
 38 63  1  0
M  CHG  1  29   1
M  END
>  <filename_input>  (24) 
7ROU_66I_docked.sdf

>  <pdb_id>  (24) 
7ROU_66I

>  <pose_rank>  (24) 
23

>  <num_atoms_heavy>  (24) 
39

>  <num_torsions>  (24) 
10

>  <pose>  (24) 
[58.661178951006804, 14.99868847334314, 47.390363472406506, -1.5507825607112324, 1.6321016763181209, 2.523174264744226, 1.0372831330777545, 1.9165732692986264, 1.7780489915945636, -1.276963364794658, 0.5255270250051195, -3.0660585125330213, 0.4689050899636183, 0.9688463572459345, 6.560593442462876, 3.3116336798759147]

>  <energy>  (24) 
-718.576949235595

>  <inter_energy>  (24) 
-725.0206773026832

>  <intra_energy>  (24) 
14.216658775696127

>  <rmsd>  (24) 
7.94735

>  <sdf_rank>  (24) 
0

$$$$

     RDKit          3D

 63 66  0  0  0  0  0  0  0  0999 V2000
   64.8350   15.3759   42.5121 C   0  0  1  0  0  0  0  0  0  0  0  0
   67.2282   14.7586   41.8400 C   0  0  0  0  0  0  0  0  0  0  0  0
   67.4809   13.4503   41.4362 C   0  0  0  0  0  0  0  0  0  0  0  0
   68.3326   13.1551   40.3718 C   0  0  0  0  0  0  0  0  0  0  0  0
   69.0107   14.2032   39.6964 C   0  0  0  0  0  0  0  0  0  0  0  0
   66.2683   14.9911   43.0060 C   0  0  0  0  0  0  0  0  0  0  0  0
   68.7684   15.5399   40.0661 C   0  0  0  0  0  0  0  0  0  0  0  0
   67.8877   15.8296   41.1344 C   0  0  0  0  0  0  0  0  0  0  0  0
   53.3184   13.9376   43.2091 C   0  0  2  0  0  0  0  0  0  0  0  0
   63.8583   14.4332   43.1996 C   0  0  0  0  0  0  0  0  0  0  0  0
   57.0182   16.8060   46.4277 C   0  0  2  0  0  0  0  0  0  0  0  0
   59.2843   17.0800   46.2058 C   0  0  2  0  0  0  0  0  0  0  0  0
   59.8413   15.6769   45.9717 C   0  0  0  0  0  0  0  0  0  0  0  0
   55.7744   12.0783   45.6206 C   0  0  0  0  0  0  0  0  0  0  0  0
   57.8866   12.4684   46.6293 C   0  0  0  0  0  0  0  0  0  0  0  0
   56.6108   14.3075   46.1606 C   0  0  0  0  0  0  0  0  0  0  0  0
   55.5756   13.5121   45.6070 C   0  0  0  0  0  0  0  0  0  0  0  0
   54.5648   14.4564   45.1865 C   0  0  0  0  0  0  0  0  0  0  0  0
   59.0226   17.2345   47.7153 C   0  0  2  0  0  0  0  0  0  0  0  0
   57.7379   16.4345   47.7606 C   0  0  1  0  0  0  0  0  0  0  0  0
   52.8356   12.6942   43.0092 F   0  0  0  0  0  0  0  0  0  0  0  0
   54.5983   13.8945   42.7890 F   0  0  0  0  0  0  0  0  0  0  0  0
   54.8156   11.2082   45.0962 N   0  0  0  0  0  0  0  0  0  0  0  0
   56.9369   11.6042   46.1209 N   0  0  0  0  0  0  0  0  0  0  0  0
   57.7828   13.8249   46.6761 N   0  0  0  0  0  0  0  0  0  0  0  0
   54.9774   15.7333   45.4498 N   0  0  0  0  0  0  0  0  0  0  0  0
   56.1917   15.6369   46.0911 N   0  0  0  0  0  0  0  0  0  0  0  0
   62.9125   15.0798   43.9023 N   0  0  0  0  0  0  0  0  0  0  0  0
   64.4800   16.7768   42.8768 N   0  0  0  0  0  0  0  0  0  0  0  0
   53.3755   14.1621   44.5905 O   0  0  0  0  0  0  0  0  0  0  0  0
   58.0806   17.0411   45.5260 O   0  0  0  0  0  0  0  0  0  0  0  0
   61.0331   15.6943   45.5084 O   0  0  0  0  0  0  0  0  0  0  0  0
   60.6956   13.8754   43.8829 O   0  0  0  0  0  0  0  0  0  0  0  0
   69.8401   13.9091   38.6529 O   0  0  0  0  0  0  0  0  0  0  0  0
   63.9164   13.2186   43.1043 O   0  0  0  0  0  0  0  0  0  0  0  0
   62.1575   13.3940   45.7031 O   0  0  0  0  0  0  0  0  0  0  0  0
   58.7701   18.5649   48.0395 O   0  0  0  0  0  0  0  0  0  0  0  0
   56.9835   16.9195   48.8294 O   0  0  0  0  0  0  0  0  0  0  0  0
   61.7094   14.3098   44.7259 S   0  0  1  0  0  0  0  0  0  0  0  0
   64.7955   15.2955   41.4158 H   0  0  0  0  0  0  0  0  0  0  0  0
   66.9935   12.6234   41.9735 H   0  0  0  0  0  0  0  0  0  0  0  0
   68.4785   12.1115   40.0562 H   0  0  0  0  0  0  0  0  0  0  0  0
   66.6598   15.8064   43.6321 H   0  0  0  0  0  0  0  0  0  0  0  0
   66.1924   14.0543   43.5777 H   0  0  0  0  0  0  0  0  0  0  0  0
   69.2638   16.3590   39.5242 H   0  0  0  0  0  0  0  0  0  0  0  0
   67.7055   16.8740   41.4277 H   0  0  0  0  0  0  0  0  0  0  0  0
   52.7098   14.7012   42.7027 H   0  0  0  0  0  0  0  0  0  0  0  0
   56.3574   17.6854   46.4402 H   0  0  0  0  0  0  0  0  0  0  0  0
   59.9398   17.9011   45.8802 H   0  0  0  0  0  0  0  0  0  0  0  0
   59.8426   15.1337   46.9283 H   0  0  0  0  0  0  0  0  0  0  0  0
   59.2002   15.1826   45.2270 H   0  0  0  0  0  0  0  0  0  0  0  0
   58.8077   12.0215   47.0315 H   0  0  0  0  0  0  0  0  0  0  0  0
   59.8334   16.9265   48.3918 H   0  0  0  0  0  0  0  0  0  0  0  0
   57.8874   15.3508   47.8758 H   0  0  0  0  0  0  0  0  0  0  0  0
   54.9773   10.1912   45.1161 H   0  0  0  0  0  0  0  0  0  0  0  0
   53.9469   11.5837   44.6897 H   0  0  0  0  0  0  0  0  0  0  0  0
   62.9406   16.1091   43.9276 H   0  0  0  0  0  0  0  0  0  0  0  0
   64.4566   16.8692   43.9023 H   0  0  0  0  0  0  0  0  0  0  0  0
   65.1843   17.4212   42.4900 H   0  0  0  0  0  0  0  0  0  0  0  0
   63.5539   17.0081   42.4900 H   0  0  0  0  0  0  0  0  0  0  0  0
   70.3155   14.6363   38.1783 H   0  0  0  0  0  0  0  0  0  0  0  0
   58.7508   18.6666   49.0241 H   0  0  0  0  0  0  0  0  0  0  0  0
   57.4065   16.6476   49.6822 H   0  0  0  0  0  0  0  0  0  0  0  0
  1  6  1  0
  1 10  1  0
  1 29  1  0
  2  3  2  0
  2  6  1  0
  2  8  1  0
  3  4  1  0
  4  5  2  0
  5  7  1  0
  5 34  1  0
  7  8  2  0
  9 21  1  0
  9 22  1  0
  9 30  1  0
 10 28  1  0
 10 35  2  0
 11 20  1  0
 11 27  1  0
 11 31  1  0
 12 13  1  0
 12 19  1  0
 12 31  1  0
 13 32  1  0
 14 17  2  0
 14 23  1  0
 14 24  1  0
 15 24  2  0
 15 25  1  0
 16 17  1  0
 16 25  2  0
 16 27  1  0
 17 18  1  0
 18 26  2  0
 18 30  1  0
 19 20  1  0
 19 37  1  0
 20 38  1  0
 26 27  1  0
 39 28  1  0
 39 32  1  1
 33 39  2  0
 36 39  2  0
  1 40  1  6
  3 41  1  0
  4 42  1  0
  6 43  1  0
  6 44  1  0
  7 45  1  0
  8 46  1  0
  9 47  1  6
 11 48  1  1
 12 49  1  6
 13 50  1  0
 13 51  1  0
 15 52  1  0
 19 53  1  1
 20 54  1  1
 23 55  1  0
 23 56  1  0
 28 57  1  0
 29 58  1  0
 29 59  1  0
 29 60  1  0
 34 61  1  0
 37 62  1  0
 38 63  1  0
M  CHG  1  29   1
M  END
>  <filename_input>  (25) 
7ROU_66I_docked.sdf

>  <pdb_id>  (25) 
7ROU_66I

>  <pose_rank>  (25) 
24

>  <num_atoms_heavy>  (25) 
39

>  <num_torsions>  (25) 
10

>  <pose>  (25) 
[57.0181582296871, 16.80604495642865, 46.42766681831935, -0.610612213220559, 3.180670267865191, -3.7233461820004985, -9.056394114804347, 2.10376476886005, 3.251429755029821, -56.95900100748851, -55.15280902542898, 11.072456371791743, 44.5416885164608, 65.8304944400089, 68.27687613786686, -0.720622328253555]

>  <energy>  (25) 
-704.840171624785

>  <inter_energy>  (25) 
-742.8699963410904

>  <intra_energy>  (25) 
53.93520830746527

>  <rmsd>  (25) 
5.91675

>  <sdf_rank>  (25) 
0

$$$$

     RDKit          3D

 63 66  0  0  0  0  0  0  0  0999 V2000
   65.5870   14.6210   43.5260 C   0  0  1  0  0  0  0  0  0  0  0  0
   66.6500   13.9680   41.2890 C   0  0  0  0  0  0  0  0  0  0  0  0
   67.2400   15.1970   41.0060 C   0  0  0  0  0  0  0  0  0  0  0  0
   68.4120   15.3010   40.2570 C   0  0  0  0  0  0  0  0  0  0  0  0
   69.0120   14.1340   39.7160 C   0  0  0  0  0  0  0  0  0  0  0  0
   65.3750   13.9460   42.1310 C   0  0  0  0  0  0  0  0  0  0  0  0
   68.4530   12.8720   39.9940 C   0  0  0  0  0  0  0  0  0  0  0  0
   67.2750   12.7760   40.7710 C   0  0  0  0  0  0  0  0  0  0  0  0
   57.0080   18.0650   46.9110 C   0  0  2  0  0  0  0  0  0  0  0  0
   64.2360   14.6320   44.2260 C   0  0  0  0  0  0  0  0  0  0  0  0
   61.4200   20.4820   45.1770 C   0  0  2  0  0  0  0  0  0  0  0  0
   61.9760   18.8800   43.6330 C   0  0  2  0  0  0  0  0  0  0  0  0
   60.9960   17.7320   43.8690 C   0  0  0  0  0  0  0  0  0  0  0  0
   58.1150   22.3720   48.3480 C   0  0  0  0  0  0  0  0  0  0  0  0
   59.8420   23.8250   47.6150 C   0  0  0  0  0  0  0  0  0  0  0  0
   59.8450   21.7040   46.7600 C   0  0  0  0  0  0  0  0  0  0  0  0
   58.6980   21.3440   47.5120 C   0  0  0  0  0  0  0  0  0  0  0  0
   58.4450   19.9630   47.1670 C   0  0  0  0  0  0  0  0  0  0  0  0
   63.0780   18.7830   44.7040 C   0  0  2  0  0  0  0  0  0  0  0  0
   62.2720   19.3610   45.8480 C   0  0  1  0  0  0  0  0  0  0  0  0
   56.4550   18.5120   45.7650 F   0  0  0  0  0  0  0  0  0  0  0  0
   55.9890   17.5320   47.6140 F   0  0  0  0  0  0  0  0  0  0  0  0
   56.9860   22.1170   49.1300 N   0  0  0  0  0  0  0  0  0  0  0  0
   58.7200   23.5800   48.3820 N   0  0  0  0  0  0  0  0  0  0  0  0
   60.4500   22.9310   46.7880 N   0  0  0  0  0  0  0  0  0  0  0  0
   59.3910   19.5190   46.2850 N   0  0  0  0  0  0  0  0  0  0  0  0
   60.2040   20.5920   45.9970 N   0  0  0  0  0  0  0  0  0  0  0  0
   63.2450   15.0950   43.4450 N   0  0  0  0  0  0  0  0  0  0  0  0
   66.5530   13.8610   44.3690 N   0  0  0  0  0  0  0  0  0  0  0  0
   57.4400   19.1770   47.6450 O   0  0  0  0  0  0  0  0  0  0  0  0
   61.1930   19.9950   43.8700 O   0  0  0  0  0  0  0  0  0  0  0  0
   61.2810   16.6950   43.1770 O   0  0  0  0  0  0  0  0  0  0  0  0
   60.8660   14.2700   43.2860 O   0  0  0  0  0  0  0  0  0  0  0  0
   70.1610   14.2410   38.9870 O   0  0  0  0  0  0  0  0  0  0  0  0
   64.0680   14.2410   45.3690 O   0  0  0  0  0  0  0  0  0  0  0  0
   61.5000   15.3160   45.3320 O   0  0  0  0  0  0  0  0  0  0  0  0
   64.1430   19.6250   44.3950 O   0  0  0  0  0  0  0  0  0  0  0  0
   63.1730   19.9510   46.7350 O   0  0  0  0  0  0  0  0  0  0  0  0
   61.6740   15.1930   43.9360 S   0  0  1  0  0  0  0  0  0  0  0  0
   65.9935   15.6328   43.3811 H   0  0  0  0  0  0  0  0  0  0  0  0
   66.7669   16.1149   41.3851 H   0  0  0  0  0  0  0  0  0  0  0  0
   68.8707   16.2861   40.0858 H   0  0  0  0  0  0  0  0  0  0  0  0
   65.0678   12.9010   42.2843 H   0  0  0  0  0  0  0  0  0  0  0  0
   64.6003   14.5114   41.5923 H   0  0  0  0  0  0  0  0  0  0  0  0
   68.9324   11.9608   39.6069 H   0  0  0  0  0  0  0  0  0  0  0  0
   66.8346   11.7900   40.9806 H   0  0  0  0  0  0  0  0  0  0  0  0
   57.8333   17.3626   46.7225 H   0  0  0  0  0  0  0  0  0  0  0  0
   61.8675   21.4848   45.1133 H   0  0  0  0  0  0  0  0  0  0  0  0
   62.4533   18.8879   42.6420 H   0  0  0  0  0  0  0  0  0  0  0  0
   61.0190   17.4620   44.9351 H   0  0  0  0  0  0  0  0  0  0  0  0
   59.9977   18.0758   43.5605 H   0  0  0  0  0  0  0  0  0  0  0  0
   60.2830   24.8308   47.6779 H   0  0  0  0  0  0  0  0  0  0  0  0
   63.5335   17.7935   44.8567 H   0  0  0  0  0  0  0  0  0  0  0  0
   61.6575   18.6220   46.3830 H   0  0  0  0  0  0  0  0  0  0  0  0
   56.5874   22.8631   49.7177 H   0  0  0  0  0  0  0  0  0  0  0  0
   56.5521   21.1829   49.1189 H   0  0  0  0  0  0  0  0  0  0  0  0
   63.4789   15.4045   42.4908 H   0  0  0  0  0  0  0  0  0  0  0  0
   66.3439   14.0256   45.3640 H   0  0  0  0  0  0  0  0  0  0  0  0
   66.4714   12.8552   44.1628 H   0  0  0  0  0  0  0  0  0  0  0  0
   67.5114   14.1771   44.1628 H   0  0  0  0  0  0  0  0  0  0  0  0
   70.5837   13.4303   38.6074 H   0  0  0  0  0  0  0  0  0  0  0  0
   64.5579   19.9530   45.2319 H   0  0  0  0  0  0  0  0  0  0  0  0
   62.8897   19.7655   47.6653 H   0  0  0  0  0  0  0  0  0  0  0  0
  1  6  1  0
  1 10  1  0
  1 29  1  0
  2  3  2  0
  2  6  1  0
  2  8  1  0
  3  4  1  0
  4  5  2  0
  5  7  1  0
  5 34  1  0
  7  8  2  0
  9 21  1  0
  9 22  1  0
  9 30  1  0
 10 28  1  0
 10 35  2  0
 11 20  1  0
 11 27  1  0
 11 31  1  0
 12 13  1  0
 12 19  1  0
 12 31  1  0
 13 32  1  0
 14 17  2  0
 14 23  1  0
 14 24  1  0
 15 24  2  0
 15 25  1  0
 16 17  1  0
 16 25  2  0
 16 27  1  0
 17 18  1  0
 18 26  2  0
 18 30  1  0
 19 20  1  0
 19 37  1  0
 20 38  1  0
 26 27  1  0
 39 28  1  0
 39 32  1  6
 33 39  2  0
 36 39  2  0
  1 40  1  6
  3 41  1  0
  4 42  1  0
  6 43  1  0
  6 44  1  0
  7 45  1  0
  8 46  1  0
  9 47  1  6
 11 48  1  6
 12 49  1  6
 13 50  1  0
 13 51  1  0
 15 52  1  0
 19 53  1  1
 20 54  1  1
 23 55  1  0
 23 56  1  0
 28 57  1  0
 29 58  1  0
 29 59  1  0
 29 60  1  0
 34 61  1  0
 37 62  1  0
 38 63  1  0
M  CHG  1  29   1
M  END
>  <filename_input>  (26) 
7ROU_66I_docked.sdf

>  <pdb_id>  (26) 
7ROU_66I

>  <pose_rank>  (26) 
25

>  <num_atoms_heavy>  (26) 
39

>  <num_torsions>  (26) 
10

>  <pose>  (26) 
[61.42, 20.482, 45.177, 1e-06, 1e-06, 1e-06, 0.0, 0.0, 0.0, 0.0, 0.0, 0.0, 0.0, 0.0, 0.0, 0.0]

>  <energy>  (26) 
-1204.9742935055347

>  <inter_energy>  (26) 
-1219.3659562529122

>  <intra_energy>  (26) 
14.66514134546333

>  <rmsd>  (26) 
0.0

>  <sdf_rank>  (26) 
0

$$$$
