
     RDKit          3D

 40 43  0  0  0  0  0  0  0  0999 V2000
    0.6942  -40.5823   -4.4901 C   0  0  0  0  0  0  0  0  0  0  0  0
    1.3732  -37.7916    2.2240 C   0  0  2  0  0  0  0  0  0  0  0  0
    1.5225  -42.1106   -2.8590 C   0  0  0  0  0  0  0  0  0  0  0  0
    0.7323  -36.9605   -0.0513 C   0  0  0  0  0  0  0  0  0  0  0  0
    1.1464  -41.1547   -1.7260 C   0  0  0  0  0  0  0  0  0  0  0  0
    1.0160  -38.8321   -1.2185 C   0  0  0  0  0  0  0  0  0  0  0  0
    0.6459  -37.4808   -1.3127 C   0  0  0  0  0  0  0  0  0  0  0  0
   -1.2238  -39.7867   -3.0946 C   0  0  0  0  0  0  0  0  0  0  0  0
    0.8261  -39.0037    3.0156 C   0  0  0  0  0  0  0  0  0  0  0  0
   -0.4896  -38.5255    3.6694 C   0  0  0  0  0  0  0  0  0  0  0  0
   -0.7241  -37.0829    3.2003 C   0  0  0  0  0  0  0  0  0  0  0  0
    0.6642  -36.5419    2.7770 C   0  0  2  0  0  0  0  0  0  0  0  0
    0.2582  -39.5739   -3.4275 C   0  0  1  0  0  0  0  0  0  0  0  0
    0.4717  -35.6086    0.4666 C   0  0  0  0  0  0  0  0  0  0  0  0
    1.1465  -37.9675    0.7949 N   0  0  0  0  0  0  0  0  0  0  0  0
    1.3107  -39.1074    0.0297 N   0  0  0  0  0  0  0  0  0  0  0  0
    0.4636  -35.4696    1.8097 N   0  0  0  0  0  0  0  0  0  0  0  0
    1.1009  -39.7805   -2.2404 N   0  0  0  0  0  0  0  0  0  0  0  0
    0.2817  -34.6589   -0.2722 O   0  0  0  0  0  0  0  0  0  0  0  0
    0.6081  -41.8976   -3.9388 O   0  0  0  0  0  0  0  0  0  0  0  0
    0.0340  -40.5047   -5.3665 H   0  0  0  0  0  0  0  0  0  0  0  0
    1.7286  -40.3742   -4.8011 H   0  0  0  0  0  0  0  0  0  0  0  0
    2.4614  -37.6881    2.3472 H   0  0  0  0  0  0  0  0  0  0  0  0
    2.5501  -41.9063   -3.1942 H   0  0  0  0  0  0  0  0  0  0  0  0
    1.4690  -43.1533   -2.5129 H   0  0  0  0  0  0  0  0  0  0  0  0
    0.1590  -41.4297   -1.3267 H   0  0  0  0  0  0  0  0  0  0  0  0
    1.8973  -41.2218   -0.9250 H   0  0  0  0  0  0  0  0  0  0  0  0
    0.3447  -36.9447   -2.2248 H   0  0  0  0  0  0  0  0  0  0  0  0
   -1.3553  -39.8056   -2.0026 H   0  0  0  0  0  0  0  0  0  0  0  0
   -1.8172  -38.9646   -3.5211 H   0  0  0  0  0  0  0  0  0  0  0  0
   -1.5618  -40.7426   -3.5211 H   0  0  0  0  0  0  0  0  0  0  0  0
    0.6313  -39.8471    2.3369 H   0  0  0  0  0  0  0  0  0  0  0  0
    1.5477  -39.3520    3.7693 H   0  0  0  0  0  0  0  0  0  0  0  0
   -1.3247  -39.1669    3.3512 H   0  0  0  0  0  0  0  0  0  0  0  0
   -0.4245  -38.5763    4.7663 H   0  0  0  0  0  0  0  0  0  0  0  0
   -1.4175  -37.0663    2.3465 H   0  0  0  0  0  0  0  0  0  0  0  0
   -1.1715  -36.4679    3.9950 H   0  0  0  0  0  0  0  0  0  0  0  0
    1.2735  -36.0897    3.5734 H   0  0  0  0  0  0  0  0  0  0  0  0
    0.3767  -38.5418   -3.7893 H   0  0  0  0  0  0  0  0  0  0  0  0
    0.3017  -34.5236    2.1835 H   0  0  0  0  0  0  0  0  0  0  0  0
  1 13  1  0
  1 20  1  0
  2  9  1  0
  2 12  1  0
  2 15  1  0
  3  5  1  0
  3 20  1  0
  4  7  2  0
  4 14  1  0
  4 15  1  0
  5 18  1  0
  6  7  1  0
  6 16  2  0
  6 18  1  0
 13  8  1  0
  9 10  1  0
 10 11  1  0
 12 11  1  0
 12 17  1  0
 13 18  1  0
 14 17  1  0
 14 19  2  0
 15 16  1  0
  1 21  1  0
  1 22  1  0
  2 23  1  6
  3 24  1  0
  3 25  1  0
  5 26  1  0
  5 27  1  0
  7 28  1  0
  8 29  1  0
  8 30  1  0
  8 31  1  0
  9 32  1  0
  9 33  1  0
 10 34  1  0
 10 35  1  0
 11 36  1  0
 11 37  1  0
 12 38  1  1
 13 39  1  6
 17 40  1  0
M  END
>  <filename_input>  (1) 
7RSV_7IQ_docked.sdf

>  <pdb_id>  (1) 
7RSV_7IQ

>  <pose_rank>  (1) 
0

>  <num_atoms_heavy>  (1) 
20

>  <num_torsions>  (1) 
0

>  <pose>  (1) 
[0.6942132086491071, -40.58229921776919, -4.490094512464119, 5.214989174999839, 2.8904685345550236, 1.5939263134867154]

>  <energy>  (1) 
-1010.4965673431484

>  <inter_energy>  (1) 
-973.1067361880519

>  <intra_energy>  (1) 
0.0

>  <rmsd>  (1) 
0.430114

>  <sdf_rank>  (1) 
0

$$$$

     RDKit          3D

 40 43  0  0  0  0  0  0  0  0999 V2000
    3.4726  -37.5791    5.5410 C   0  0  0  0  0  0  0  0  0  0  0  0
    0.5726  -39.1657   -0.9707 C   0  0  2  0  0  0  0  0  0  0  0  0
    3.1790  -39.9080    5.1260 C   0  0  0  0  0  0  0  0  0  0  0  0
    1.1159  -37.1011    0.3410 C   0  0  0  0  0  0  0  0  0  0  0  0
    2.9025  -39.6418    3.6456 C   0  0  0  0  0  0  0  0  0  0  0  0
    1.8916  -38.0419    2.2009 C   0  0  0  0  0  0  0  0  0  0  0  0
    1.6228  -36.8126    1.5776 C   0  0  0  0  0  0  0  0  0  0  0  0
    4.5828  -37.1018    3.3503 C   0  0  0  0  0  0  0  0  0  0  0  0
    1.4764  -40.3729   -1.3187 C   0  0  0  0  0  0  0  0  0  0  0  0
    2.3156  -39.9371   -2.5405 C   0  0  0  0  0  0  0  0  0  0  0  0
    1.9449  -38.4782   -2.8410 C   0  0  0  0  0  0  0  0  0  0  0  0
    0.5467  -38.2563   -2.2125 C   0  0  2  0  0  0  0  0  0  0  0  0
    3.2360  -37.2155    4.0754 C   0  0  1  0  0  0  0  0  0  0  0  0
    0.6552  -36.2312   -0.7520 C   0  0  0  0  0  0  0  0  0  0  0  0
    1.0738  -38.4732    0.2100 N   0  0  0  0  0  0  0  0  0  0  0  0
    1.5622  -39.0146    1.3848 N   0  0  0  0  0  0  0  0  0  0  0  0
    0.3905  -36.8343   -1.9308 N   0  0  0  0  0  0  0  0  0  0  0  0
    2.4035  -38.2712    3.4800 N   0  0  0  0  0  0  0  0  0  0  0  0
    0.5093  -35.0308   -0.6049 O   0  0  0  0  0  0  0  0  0  0  0  0
    4.0551  -38.8823    5.6033 O   0  0  0  0  0  0  0  0  0  0  0  0
    4.1545  -36.8470    5.9982 H   0  0  0  0  0  0  0  0  0  0  0  0
    2.5179  -37.5697    6.0874 H   0  0  0  0  0  0  0  0  0  0  0  0
   -0.4497  -39.4866   -0.7220 H   0  0  0  0  0  0  0  0  0  0  0  0
    2.2359  -39.8865    5.6917 H   0  0  0  0  0  0  0  0  0  0  0  0
    3.6420  -40.8972    5.2565 H   0  0  0  0  0  0  0  0  0  0  0  0
    3.8322  -39.7656    3.0708 H   0  0  0  0  0  0  0  0  0  0  0  0
    2.1479  -40.3536    3.2797 H   0  0  0  0  0  0  0  0  0  0  0  0
    1.7880  -35.8114    2.0021 H   0  0  0  0  0  0  0  0  0  0  0  0
    5.3933  -37.0334    4.0909 H   0  0  0  0  0  0  0  0  0  0  0  0
    4.7360  -37.9902    2.7200 H   0  0  0  0  0  0  0  0  0  0  0  0
    4.5850  -36.2003    2.7200 H   0  0  0  0  0  0  0  0  0  0  0  0
    2.1334  -40.6157   -0.4705 H   0  0  0  0  0  0  0  0  0  0  0  0
    0.8817  -41.2719   -1.5379 H   0  0  0  0  0  0  0  0  0  0  0  0
    3.3883  -40.0145   -2.3093 H   0  0  0  0  0  0  0  0  0  0  0  0
    2.1105  -40.5814   -3.4082 H   0  0  0  0  0  0  0  0  0  0  0  0
    2.6799  -37.7960   -2.3891 H   0  0  0  0  0  0  0  0  0  0  0  0
    1.9373  -38.2785   -3.9227 H   0  0  0  0  0  0  0  0  0  0  0  0
   -0.3167  -38.5127   -2.8440 H   0  0  0  0  0  0  0  0  0  0  0  0
    2.7232  -36.2465    3.9860 H   0  0  0  0  0  0  0  0  0  0  0  0
    0.0484  -36.2379   -2.6977 H   0  0  0  0  0  0  0  0  0  0  0  0
  1 13  1  0
  1 20  1  0
  2  9  1  0
  2 12  1  0
  2 15  1  0
  3  5  1  0
  3 20  1  0
  4  7  2  0
  4 14  1  0
  4 15  1  0
  5 18  1  0
  6  7  1  0
  6 16  2  0
  6 18  1  0
 13  8  1  0
  9 10  1  0
 10 11  1  0
 12 11  1  0
 12 17  1  0
 13 18  1  0
 14 17  1  0
 14 19  2  0
 15 16  1  0
  1 21  1  0
  1 22  1  0
  2 23  1  1
  3 24  1  0
  3 25  1  0
  5 26  1  0
  5 27  1  0
  7 28  1  0
  8 29  1  0
  8 30  1  0
  8 31  1  0
  9 32  1  0
  9 33  1  0
 10 34  1  0
 10 35  1  0
 11 36  1  0
 11 37  1  0
 12 38  1  6
 13 39  1  1
 17 40  1  0
M  END
>  <filename_input>  (2) 
7RSV_7IQ_docked.sdf

>  <pdb_id>  (2) 
7RSV_7IQ

>  <pose_rank>  (2) 
1

>  <num_atoms_heavy>  (2) 
20

>  <num_torsions>  (2) 
0

>  <pose>  (2) 
[3.4725665109085764, -37.57910758130317, 5.540960443920145, 0.6297903588031678, -2.75440546863189, 0.5905161386895258]

>  <energy>  (2) 
-613.0767826615821

>  <inter_energy>  (2) 
-598.5312861060985

>  <intra_energy>  (2) 
0.0

>  <rmsd>  (2) 
6.00726

>  <sdf_rank>  (2) 
0

$$$$

     RDKit          3D

 40 43  0  0  0  0  0  0  0  0999 V2000
    0.9989  -37.5308    4.9371 C   0  0  0  0  0  0  0  0  0  0  0  0
    1.3105  -38.8757   -2.2338 C   0  0  2  0  0  0  0  0  0  0  0  0
    0.5970  -35.6323    3.5528 C   0  0  0  0  0  0  0  0  0  0  0  0
    1.6944  -40.1496   -0.1106 C   0  0  0  0  0  0  0  0  0  0  0  0
    0.4616  -36.5225    2.3166 C   0  0  0  0  0  0  0  0  0  0  0  0
    1.3273  -38.5251    1.3631 C   0  0  0  0  0  0  0  0  0  0  0  0
    1.6727  -39.8796    1.2295 C   0  0  0  0  0  0  0  0  0  0  0  0
   -0.5840  -39.0348    3.7158 C   0  0  0  0  0  0  0  0  0  0  0  0
    0.0872  -38.0306   -2.6631 C   0  0  0  0  0  0  0  0  0  0  0  0
   -0.9590  -39.0362   -3.1937 C   0  0  0  0  0  0  0  0  0  0  0  0
   -0.3669  -40.4397   -3.0047 C   0  0  0  0  0  0  0  0  0  0  0  0
    1.1676  -40.2465   -2.9199 C   0  0  2  0  0  0  0  0  0  0  0  0
    0.8539  -38.5037    3.7672 C   0  0  1  0  0  0  0  0  0  0  0  0
    1.9890  -41.3853   -0.8524 C   0  0  0  0  0  0  0  0  0  0  0  0
    1.3717  -38.9892   -0.7819 N   0  0  0  0  0  0  0  0  0  0  0  0
    1.1536  -38.0098    0.1695 N   0  0  0  0  0  0  0  0  0  0  0  0
    1.7312  -41.3678   -2.1778 N   0  0  0  0  0  0  0  0  0  0  0  0
    1.1926  -37.7767    2.5347 N   0  0  0  0  0  0  0  0  0  0  0  0
    2.4499  -42.3722   -0.3071 O   0  0  0  0  0  0  0  0  0  0  0  0
    0.1751  -36.3896    4.6911 O   0  0  0  0  0  0  0  0  0  0  0  0
    0.6812  -38.0224    5.8684 H   0  0  0  0  0  0  0  0  0  0  0  0
    2.0492  -37.2193    5.0365 H   0  0  0  0  0  0  0  0  0  0  0  0
    2.2548  -38.4020   -2.5403 H   0  0  0  0  0  0  0  0  0  0  0  0
    1.6454  -35.3236    3.6775 H   0  0  0  0  0  0  0  0  0  0  0  0
   -0.0221  -34.7297    3.4434 H   0  0  0  0  0  0  0  0  0  0  0  0
   -0.6012  -36.7437    2.1386 H   0  0  0  0  0  0  0  0  0  0  0  0
    0.8791  -36.0019    1.4422 H   0  0  0  0  0  0  0  0  0  0  0  0
    1.8847  -40.5866    2.0452 H   0  0  0  0  0  0  0  0  0  0  0  0
   -0.9604  -39.1738    4.7400 H   0  0  0  0  0  0  0  0  0  0  0  0
   -1.2226  -38.3132    3.1852 H   0  0  0  0  0  0  0  0  0  0  0  0
   -0.6003  -39.9982    3.1852 H   0  0  0  0  0  0  0  0  0  0  0  0
   -0.3164  -37.4774   -1.8023 H   0  0  0  0  0  0  0  0  0  0  0  0
    0.3582  -37.2889   -3.4289 H   0  0  0  0  0  0  0  0  0  0  0  0
   -1.8961  -38.9417   -2.6255 H   0  0  0  0  0  0  0  0  0  0  0  0
   -1.1862  -38.8449   -4.2528 H   0  0  0  0  0  0  0  0  0  0  0  0
   -0.7470  -40.8935   -2.0775 H   0  0  0  0  0  0  0  0  0  0  0  0
   -0.6440  -41.1093   -3.8322 H   0  0  0  0  0  0  0  0  0  0  0  0
    1.7110  -40.2428   -3.8763 H   0  0  0  0  0  0  0  0  0  0  0  0
    1.5269  -39.3659    3.8841 H   0  0  0  0  0  0  0  0  0  0  0  0
    1.9520  -42.2210   -2.7110 H   0  0  0  0  0  0  0  0  0  0  0  0
  1 13  1  0
  1 20  1  0
  2  9  1  0
  2 12  1  0
  2 15  1  0
  3  5  1  0
  3 20  1  0
  4  7  2  0
  4 14  1  0
  4 15  1  0
  5 18  1  0
  6  7  1  0
  6 16  2  0
  6 18  1  0
 13  8  1  0
  9 10  1  0
 10 11  1  0
 12 11  1  0
 12 17  1  0
 13 18  1  0
 14 17  1  0
 14 19  2  0
 15 16  1  0
  1 21  1  0
  1 22  1  0
  2 23  1  6
  3 24  1  0
  3 25  1  0
  5 26  1  0
  5 27  1  0
  7 28  1  0
  8 29  1  0
  8 30  1  0
  8 31  1  0
  9 32  1  0
  9 33  1  0
 10 34  1  0
 10 35  1  0
 11 36  1  0
 11 37  1  0
 12 38  1  6
 13 39  1  1
 17 40  1  0
M  END
>  <filename_input>  (3) 
7RSV_7IQ_docked.sdf

>  <pdb_id>  (3) 
7RSV_7IQ

>  <pose_rank>  (3) 
2

>  <num_atoms_heavy>  (3) 
20

>  <num_torsions>  (3) 
0

>  <pose>  (3) 
[0.9988993142916068, -37.53077279931043, 4.937107925711932, 3.0589092081712512, 0.8819968261269118, -0.3619962879755959]

>  <energy>  (3) 
-546.6197032022411

>  <inter_energy>  (3) 
-526.6516399258236

>  <intra_energy>  (3) 
0.0

>  <rmsd>  (3) 
6.47464

>  <sdf_rank>  (3) 
0

$$$$

     RDKit          3D

 40 43  0  0  0  0  0  0  0  0999 V2000
    4.6676  -40.8978    4.8127 C   0  0  0  0  0  0  0  0  0  0  0  0
    0.5120  -38.9120   -0.8544 C   0  0  2  0  0  0  0  0  0  0  0  0
    4.1169  -42.6698    3.3165 C   0  0  0  0  0  0  0  0  0  0  0  0
    1.4494  -37.8283    1.2012 C   0  0  0  0  0  0  0  0  0  0  0  0
    3.5977  -41.6744    2.2781 C   0  0  0  0  0  0  0  0  0  0  0  0
    2.4726  -39.5831    2.1065 C   0  0  0  0  0  0  0  0  0  0  0  0
    2.1946  -38.2175    2.2794 C   0  0  0  0  0  0  0  0  0  0  0  0
    5.3950  -39.3118    3.0197 C   0  0  0  0  0  0  0  0  0  0  0  0
    1.2371  -39.7316   -1.9486 C   0  0  0  0  0  0  0  0  0  0  0  0
    1.8721  -38.6966   -2.9041 C   0  0  0  0  0  0  0  0  0  0  0  0
    1.5714  -37.3079   -2.3234 C   0  0  0  0  0  0  0  0  0  0  0  0
    0.3335  -37.4874   -1.4099 C   0  0  2  0  0  0  0  0  0  0  0  0
    4.1981  -39.8261    3.8293 C   0  0  1  0  0  0  0  0  0  0  0  0
    0.8689  -36.5274    0.8347 C   0  0  0  0  0  0  0  0  0  0  0  0
    1.2738  -38.9282    0.3882 N   0  0  0  0  0  0  0  0  0  0  0  0
    1.9229  -39.9917    0.9879 N   0  0  0  0  0  0  0  0  0  0  0  0
    0.3462  -36.4296   -0.4066 N   0  0  0  0  0  0  0  0  0  0  0  0
    3.1888  -40.4351    2.9503 N   0  0  0  0  0  0  0  0  0  0  0  0
    0.8493  -35.5872    1.6089 O   0  0  0  0  0  0  0  0  0  0  0  0
    5.1449  -42.0233    4.0732 O   0  0  0  0  0  0  0  0  0  0  0  0
    5.4780  -40.4959    5.4386 H   0  0  0  0  0  0  0  0  0  0  0  0
    3.8323  -41.2028    5.4603 H   0  0  0  0  0  0  0  0  0  0  0  0
   -0.4704  -39.3437   -0.6125 H   0  0  0  0  0  0  0  0  0  0  0  0
    3.2975  -42.9744    3.9841 H   0  0  0  0  0  0  0  0  0  0  0  0
    4.5148  -43.5673    2.8202 H   0  0  0  0  0  0  0  0  0  0  0  0
    4.3941  -41.4525    1.5525 H   0  0  0  0  0  0  0  0  0  0  0  0
    2.7343  -42.1090    1.7531 H   0  0  0  0  0  0  0  0  0  0  0  0
    2.5144  -37.5837    3.1196 H   0  0  0  0  0  0  0  0  0  0  0  0
    6.1840  -38.9727    3.7071 H   0  0  0  0  0  0  0  0  0  0  0  0
    5.7842  -40.1221    2.3858 H   0  0  0  0  0  0  0  0  0  0  0  0
    5.0751  -38.4717    2.3858 H   0  0  0  0  0  0  0  0  0  0  0  0
    2.0159  -40.3650   -1.4989 H   0  0  0  0  0  0  0  0  0  0  0  0
    0.5420  -40.3980   -2.4804 H   0  0  0  0  0  0  0  0  0  0  0  0
    2.9591  -38.8541   -2.9635 H   0  0  0  0  0  0  0  0  0  0  0  0
    1.4612  -38.7953   -3.9197 H   0  0  0  0  0  0  0  0  0  0  0  0
    2.4289  -36.9441   -1.7384 H   0  0  0  0  0  0  0  0  0  0  0  0
    1.3830  -36.5707   -3.1178 H   0  0  0  0  0  0  0  0  0  0  0  0
   -0.6482  -37.3981   -1.8979 H   0  0  0  0  0  0  0  0  0  0  0  0
    3.7572  -38.9688    4.3592 H   0  0  0  0  0  0  0  0  0  0  0  0
   -0.0807  -35.5292   -0.6673 H   0  0  0  0  0  0  0  0  0  0  0  0
  1 13  1  0
  1 20  1  0
  2  9  1  0
  2 12  1  0
  2 15  1  0
  3  5  1  0
  3 20  1  0
  4  7  2  0
  4 14  1  0
  4 15  1  0
  5 18  1  0
  6  7  1  0
  6 16  2  0
  6 18  1  0
 13  8  1  0
  9 10  1  0
 10 11  1  0
 12 11  1  0
 12 17  1  0
 13 18  1  0
 14 17  1  0
 14 19  2  0
 15 16  1  0
  1 21  1  0
  1 22  1  0
  2 23  1  1
  3 24  1  0
  3 25  1  0
  5 26  1  0
  5 27  1  0
  7 28  1  0
  8 29  1  0
  8 30  1  0
  8 31  1  0
  9 32  1  0
  9 33  1  0
 10 34  1  0
 10 35  1  0
 11 36  1  0
 11 37  1  0
 12 38  1  6
 13 39  1  1
 17 40  1  0
M  END
>  <filename_input>  (4) 
7RSV_7IQ_docked.sdf

>  <pdb_id>  (4) 
7RSV_7IQ

>  <pose_rank>  (4) 
3

>  <num_atoms_heavy>  (4) 
20

>  <num_torsions>  (4) 
0

>  <pose>  (4) 
[4.667575024466189, -40.89779651766141, 4.81273284496955, 0.7111273158773225, -2.7191825248504635, -0.24904153564619166]

>  <energy>  (4) 
-434.340942258957

>  <inter_energy>  (4) 
-445.5816298648151

>  <intra_energy>  (4) 
0.0

>  <rmsd>  (4) 
5.58211

>  <sdf_rank>  (4) 
0

$$$$

     RDKit          3D

 40 43  0  0  0  0  0  0  0  0999 V2000
    2.5746  -41.0637    1.6012 C   0  0  0  0  0  0  0  0  0  0  0  0
    6.6466  -46.3775    4.5185 C   0  0  2  0  0  0  0  0  0  0  0  0
    4.5204  -41.6265    0.3447 C   0  0  0  0  0  0  0  0  0  0  0  0
    4.5904  -45.0895    5.1439 C   0  0  0  0  0  0  0  0  0  0  0  0
    4.7345  -42.8886    1.1813 C   0  0  0  0  0  0  0  0  0  0  0  0
    4.4721  -43.7172    3.3979 C   0  0  0  0  0  0  0  0  0  0  0  0
    3.8558  -44.0673    4.6102 C   0  0  0  0  0  0  0  0  0  0  0  0
    1.8078  -43.4272    1.8928 C   0  0  0  0  0  0  0  0  0  0  0  0
    6.9640  -47.1449    3.2126 C   0  0  0  0  0  0  0  0  0  0  0  0
    6.2654  -48.5166    3.3453 C   0  0  0  0  0  0  0  0  0  0  0  0
    5.5035  -48.5038    4.6777 C   0  0  0  0  0  0  0  0  0  0  0  0
    6.1906  -47.4246    5.5507 C   0  0  2  0  0  0  0  0  0  0  0  0
    2.6890  -42.3139    2.4730 C   0  0  1  0  0  0  0  0  0  0  0  0
    4.4335  -45.8574    6.3887 C   0  0  0  0  0  0  0  0  0  0  0  0
    5.6318  -45.3585    4.2810 N   0  0  0  0  0  0  0  0  0  0  0  0
    5.5198  -44.4849    3.2151 N   0  0  0  0  0  0  0  0  0  0  0  0
    5.2242  -46.9428    6.5303 N   0  0  0  0  0  0  0  0  0  0  0  0
    4.1028  -42.7174    2.4953 N   0  0  0  0  0  0  0  0  0  0  0  0
    3.6406  -45.5310    7.2540 O   0  0  0  0  0  0  0  0  0  0  0  0
    3.1167  -41.3514    0.3109 O   0  0  0  0  0  0  0  0  0  0  0  0
    1.5171  -40.7772    1.5025 H   0  0  0  0  0  0  0  0  0  0  0  0
    3.1291  -40.2336    2.0632 H   0  0  0  0  0  0  0  0  0  0  0  0
    7.5304  -45.8421    4.8958 H   0  0  0  0  0  0  0  0  0  0  0  0
    5.0557  -40.7808    0.8010 H   0  0  0  0  0  0  0  0  0  0  0  0
    4.9056  -41.7740   -0.6751 H   0  0  0  0  0  0  0  0  0  0  0  0
    4.2837  -43.7503    0.6671 H   0  0  0  0  0  0  0  0  0  0  0  0
    5.8126  -43.0631    1.3126 H   0  0  0  0  0  0  0  0  0  0  0  0
    2.9562  -43.6081    5.0459 H   0  0  0  0  0  0  0  0  0  0  0  0
    1.3537  -44.0010    2.7142 H   0  0  0  0  0  0  0  0  0  0  0  0
    1.0146  -42.9822    1.2741 H   0  0  0  0  0  0  0  0  0  0  0  0
    2.4231  -44.0970    1.2741 H   0  0  0  0  0  0  0  0  0  0  0  0
    6.5711  -46.5982    2.3427 H   0  0  0  0  0  0  0  0  0  0  0  0
    8.0482  -47.2572    3.0642 H   0  0  0  0  0  0  0  0  0  0  0  0
    5.5647  -48.6662    2.5106 H   0  0  0  0  0  0  0  0  0  0  0  0
    6.9994  -49.3355    3.3200 H   0  0  0  0  0  0  0  0  0  0  0  0
    4.4471  -48.2458    4.5117 H   0  0  0  0  0  0  0  0  0  0  0  0
    5.5251  -49.4902    5.1642 H   0  0  0  0  0  0  0  0  0  0  0  0
    7.0518  -47.7582    6.1483 H   0  0  0  0  0  0  0  0  0  0  0  0
    2.3460  -42.1137    3.4987 H   0  0  0  0  0  0  0  0  0  0  0  0
    5.1370  -47.4770    7.4067 H   0  0  0  0  0  0  0  0  0  0  0  0
  1 13  1  0
  1 20  1  0
  2  9  1  0
  2 12  1  0
  2 15  1  0
  3  5  1  0
  3 20  1  0
  4  7  2  0
  4 14  1  0
  4 15  1  0
  5 18  1  0
  6  7  1  0
  6 16  2  0
  6 18  1  0
 13  8  1  0
  9 10  1  0
 10 11  1  0
 12 11  1  0
 12 17  1  0
 13 18  1  0
 14 17  1  0
 14 19  2  0
 15 16  1  0
  1 21  1  0
  1 22  1  0
  2 23  1  1
  3 24  1  0
  3 25  1  0
  5 26  1  0
  5 27  1  0
  7 28  1  0
  8 29  1  0
  8 30  1  0
  8 31  1  0
  9 32  1  0
  9 33  1  0
 10 34  1  0
 10 35  1  0
 11 36  1  0
 11 37  1  0
 12 38  1  1
 13 39  1  1
 17 40  1  0
M  END
>  <filename_input>  (5) 
7RSV_7IQ_docked.sdf

>  <pdb_id>  (5) 
7RSV_7IQ

>  <pose_rank>  (5) 
4

>  <num_atoms_heavy>  (5) 
20

>  <num_torsions>  (5) 
0

>  <pose>  (5) 
[2.574563133882008, -41.063701169698064, 1.6011966591460038, -4.175416537648248, -0.7528723052684233, -1.8419342060033965]

>  <energy>  (5) 
-143.48802961539928

>  <inter_energy>  (5) 
-146.0609785635804

>  <intra_energy>  (5) 
0.0

>  <rmsd>  (5) 
9.29587

>  <sdf_rank>  (5) 
0

$$$$

     RDKit          3D

 40 43  0  0  0  0  0  0  0  0999 V2000
    4.1849  -44.1637    1.3250 C   0  0  0  0  0  0  0  0  0  0  0  0
    7.5621  -45.8078    7.5876 C   0  0  2  0  0  0  0  0  0  0  0  0
    3.7163  -46.3458    2.1623 C   0  0  0  0  0  0  0  0  0  0  0  0
    7.5328  -43.8976    5.9664 C   0  0  0  0  0  0  0  0  0  0  0  0
    4.3542  -46.0008    3.5087 C   0  0  0  0  0  0  0  0  0  0  0  0
    6.1262  -44.7219    4.4539 C   0  0  0  0  0  0  0  0  0  0  0  0
    6.9271  -43.6137    4.7740 C   0  0  0  0  0  0  0  0  0  0  0  0
    3.7675  -42.9978    3.4989 C   0  0  0  0  0  0  0  0  0  0  0  0
    6.3789  -46.5178    8.2884 C   0  0  0  0  0  0  0  0  0  0  0  0
    6.0044  -45.6287    9.4952 C   0  0  0  0  0  0  0  0  0  0  0  0
    6.9158  -44.3948    9.4422 C   0  0  0  0  0  0  0  0  0  0  0  0
    8.1499  -44.8128    8.6047 C   0  0  2  0  0  0  0  0  0  0  0  0
    4.8176  -43.7165    2.6426 C   0  0  1  0  0  0  0  0  0  0  0  0
    8.4753  -43.1252    6.7903 C   0  0  0  0  0  0  0  0  0  0  0  0
    7.1147  -45.1491    6.3667 N   0  0  0  0  0  0  0  0  0  0  0  0
    6.2462  -45.6221    5.4003 N   0  0  0  0  0  0  0  0  0  0  0  0
    8.7374  -43.6124    8.0222 N   0  0  0  0  0  0  0  0  0  0  0  0
    5.3254  -44.9153    3.3260 N   0  0  0  0  0  0  0  0  0  0  0  0
    9.0020  -42.1044    6.3848 O   0  0  0  0  0  0  0  0  0  0  0  0
    3.1813  -45.1413    1.6051 O   0  0  0  0  0  0  0  0  0  0  0  0
    3.7283  -43.2987    0.8217 H   0  0  0  0  0  0  0  0  0  0  0  0
    4.9545  -44.5954    0.6682 H   0  0  0  0  0  0  0  0  0  0  0  0
    8.3360  -46.5255    7.2780 H   0  0  0  0  0  0  0  0  0  0  0  0
    4.4758  -46.7648    1.4858 H   0  0  0  0  0  0  0  0  0  0  0  0
    2.9191  -47.0916    2.2969 H   0  0  0  0  0  0  0  0  0  0  0  0
    3.5729  -45.6791    4.2130 H   0  0  0  0  0  0  0  0  0  0  0  0
    4.8666  -46.8877    3.9098 H   0  0  0  0  0  0  0  0  0  0  0  0
    7.0444  -42.6951    4.1803 H   0  0  0  0  0  0  0  0  0  0  0  0
    3.9944  -43.1531    4.5640 H   0  0  0  0  0  0  0  0  0  0  0  0
    3.7849  -41.9213    3.2734 H   0  0  0  0  0  0  0  0  0  0  0  0
    2.7703  -43.4037    3.2734 H   0  0  0  0  0  0  0  0  0  0  0  0
    5.5254  -46.6080    7.6004 H   0  0  0  0  0  0  0  0  0  0  0  0
    6.6502  -47.5354    8.6060 H   0  0  0  0  0  0  0  0  0  0  0  0
    4.9499  -45.3230    9.4266 H   0  0  0  0  0  0  0  0  0  0  0  0
    6.1362  -46.1743   10.4413 H   0  0  0  0  0  0  0  0  0  0  0  0
    6.3940  -43.5544    8.9610 H   0  0  0  0  0  0  0  0  0  0  0  0
    7.2058  -44.0638   10.4503 H   0  0  0  0  0  0  0  0  0  0  0  0
    8.9742  -45.2879    9.1569 H   0  0  0  0  0  0  0  0  0  0  0  0
    5.6453  -43.0139    2.4655 H   0  0  0  0  0  0  0  0  0  0  0  0
    9.4111  -43.0904    8.6006 H   0  0  0  0  0  0  0  0  0  0  0  0
  1 13  1  0
  1 20  1  0
  2  9  1  0
  2 12  1  0
  2 15  1  0
  3  5  1  0
  3 20  1  0
  4  7  2  0
  4 14  1  0
  4 15  1  0
  5 18  1  0
  6  7  1  0
  6 16  2  0
  6 18  1  0
 13  8  1  0
  9 10  1  0
 10 11  1  0
 12 11  1  0
 12 17  1  0
 13 18  1  0
 14 17  1  0
 14 19  2  0
 15 16  1  0
  1 21  1  0
  1 22  1  0
  2 23  1  6
  3 24  1  0
  3 25  1  0
  5 26  1  0
  5 27  1  0
  7 28  1  0
  8 29  1  0
  8 30  1  0
  8 31  1  0
  9 32  1  0
  9 33  1  0
 10 34  1  0
 10 35  1  0
 11 36  1  0
 11 37  1  0
 12 38  1  1
 13 39  1  6
 17 40  1  0
M  END
>  <filename_input>  (6) 
7RSV_7IQ_docked.sdf

>  <pdb_id>  (6) 
7RSV_7IQ

>  <pose_rank>  (6) 
5

>  <num_atoms_heavy>  (6) 
20

>  <num_torsions>  (6) 
0

>  <pose>  (6) 
[4.184945533745648, -44.163705957281444, 1.3250026845939467, -1.3996691616915953, -1.7022471612003869, 4.854910901480088]

>  <energy>  (6) 
-115.6077528215551

>  <inter_energy>  (6) 
-105.24581499546267

>  <intra_energy>  (6) 
0.0

>  <rmsd>  (6) 
10.1702

>  <sdf_rank>  (6) 
0

$$$$

     RDKit          3D

 40 43  0  0  0  0  0  0  0  0999 V2000
    1.3563  -36.0765    3.3760 C   0  0  0  0  0  0  0  0  0  0  0  0
    3.1807  -43.1451    3.1883 C   0  0  2  0  0  0  0  0  0  0  0  0
    1.5621  -37.1057    5.5162 C   0  0  0  0  0  0  0  0  0  0  0  0
    2.6438  -41.3450    1.5301 C   0  0  0  0  0  0  0  0  0  0  0  0
    2.2289  -38.3346    4.8965 C   0  0  0  0  0  0  0  0  0  0  0  0
    2.1909  -39.6787    2.9317 C   0  0  0  0  0  0  0  0  0  0  0  0
    2.2638  -40.0323    1.5747 C   0  0  0  0  0  0  0  0  0  0  0  0
    3.5326  -36.9470    2.5013 C   0  0  0  0  0  0  0  0  0  0  0  0
    4.1999  -43.1337    4.3528 C   0  0  0  0  0  0  0  0  0  0  0  0
    5.5737  -43.4458    3.7183 C   0  0  0  0  0  0  0  0  0  0  0  0
    5.3508  -43.5645    2.2042 C   0  0  0  0  0  0  0  0  0  0  0  0
    3.8483  -43.8923    2.0196 C   0  0  2  0  0  0  0  0  0  0  0  0
    2.0379  -37.2474    2.6684 C   0  0  1  0  0  0  0  0  0  0  0  0
    2.8812  -42.2542    0.3985 C   0  0  0  0  0  0  0  0  0  0  0  0
    2.7987  -41.7854    2.8276 N   0  0  0  0  0  0  0  0  0  0  0  0
    2.5072  -40.7217    3.6616 N   0  0  0  0  0  0  0  0  0  0  0  0
    3.4412  -43.4474    0.6921 N   0  0  0  0  0  0  0  0  0  0  0  0
    1.8296  -38.4499    3.4886 N   0  0  0  0  0  0  0  0  0  0  0  0
    2.5821  -41.9561   -0.7440 O   0  0  0  0  0  0  0  0  0  0  0  0
    1.8792  -35.9729    4.7017 O   0  0  0  0  0  0  0  0  0  0  0  0
    1.5559  -35.1451    2.8259 H   0  0  0  0  0  0  0  0  0  0  0  0
    0.2698  -36.2441    3.4146 H   0  0  0  0  0  0  0  0  0  0  0  0
    2.2490  -43.6555    3.4736 H   0  0  0  0  0  0  0  0  0  0  0  0
    0.4720  -37.2489    5.5486 H   0  0  0  0  0  0  0  0  0  0  0  0
    1.9246  -36.9513    6.5433 H   0  0  0  0  0  0  0  0  0  0  0  0
    3.3221  -38.2300    4.9603 H   0  0  0  0  0  0  0  0  0  0  0  0
    1.9146  -39.2366    5.4420 H   0  0  0  0  0  0  0  0  0  0  0  0
    2.0556  -39.3797    0.7141 H   0  0  0  0  0  0  0  0  0  0  0  0
    4.0007  -36.8529    3.4922 H   0  0  0  0  0  0  0  0  0  0  0  0
    4.0115  -37.7669    1.9459 H   0  0  0  0  0  0  0  0  0  0  0  0
    3.6576  -36.0058    1.9459 H   0  0  0  0  0  0  0  0  0  0  0  0
    4.2175  -42.1456    4.8360 H   0  0  0  0  0  0  0  0  0  0  0  0
    3.9365  -43.8700    5.1265 H   0  0  0  0  0  0  0  0  0  0  0  0
    6.2828  -42.6328    3.9334 H   0  0  0  0  0  0  0  0  0  0  0  0
    5.9935  -44.3763    4.1279 H   0  0  0  0  0  0  0  0  0  0  0  0
    5.5995  -42.6161    1.7056 H   0  0  0  0  0  0  0  0  0  0  0  0
    5.9907  -44.3423    1.7621 H   0  0  0  0  0  0  0  0  0  0  0  0
    3.5750  -44.9572    2.0536 H   0  0  0  0  0  0  0  0  0  0  0  0
    1.6126  -37.4057    1.6664 H   0  0  0  0  0  0  0  0  0  0  0  0
    3.5941  -44.1002   -0.0898 H   0  0  0  0  0  0  0  0  0  0  0  0
  1 13  1  0
  1 20  1  0
  2  9  1  0
  2 12  1  0
  2 15  1  0
  3  5  1  0
  3 20  1  0
  4  7  2  0
  4 14  1  0
  4 15  1  0
  5 18  1  0
  6  7  1  0
  6 16  2  0
  6 18  1  0
 13  8  1  0
  9 10  1  0
 10 11  1  0
 12 11  1  0
 12 17  1  0
 13 18  1  0
 14 17  1  0
 14 19  2  0
 15 16  1  0
  1 21  1  0
  1 22  1  0
  2 23  1  1
  3 24  1  0
  3 25  1  0
  5 26  1  0
  5 27  1  0
  7 28  1  0
  8 29  1  0
  8 30  1  0
  8 31  1  0
  9 32  1  0
  9 33  1  0
 10 34  1  0
 10 35  1  0
 11 36  1  0
 11 37  1  0
 12 38  1  1
 13 39  1  6
 17 40  1  0
M  END
>  <filename_input>  (7) 
7RSV_7IQ_docked.sdf

>  <pdb_id>  (7) 
7RSV_7IQ

>  <pose_rank>  (7) 
6

>  <num_atoms_heavy>  (7) 
20

>  <num_torsions>  (7) 
0

>  <pose>  (7) 
[1.3562837856946617, -36.07652340101929, 3.3760472156173154, 0.8407878152149674, -1.8505991736056306, 2.513388081870303]

>  <energy>  (7) 
-302.48771023006253

>  <inter_energy>  (7) 
-308.0210089583704

>  <intra_energy>  (7) 
0.0

>  <rmsd>  (7) 
6.97903

>  <sdf_rank>  (7) 
0

$$$$

     RDKit          3D

 40 43  0  0  0  0  0  0  0  0999 V2000
    3.7347  -39.7422    4.2473 C   0  0  0  0  0  0  0  0  0  0  0  0
    1.1536  -38.9962   -2.5431 C   0  0  2  0  0  0  0  0  0  0  0  0
    2.9841  -37.5454    3.7065 C   0  0  0  0  0  0  0  0  0  0  0  0
    2.2220  -40.8036   -1.1755 C   0  0  0  0  0  0  0  0  0  0  0  0
    2.3127  -38.0545    2.4302 C   0  0  0  0  0  0  0  0  0  0  0  0
    2.5815  -39.6750    0.7067 C   0  0  0  0  0  0  0  0  0  0  0  0
    2.7394  -40.9238    0.0843 C   0  0  0  0  0  0  0  0  0  0  0  0
    1.6889  -40.8944    3.3833 C   0  0  0  0  0  0  0  0  0  0  0  0
   -0.0688  -38.1074   -2.2107 C   0  0  0  0  0  0  0  0  0  0  0  0
   -1.3154  -38.9581   -2.5417 C   0  0  0  0  0  0  0  0  0  0  0  0
   -0.8104  -40.3363   -2.9907 C   0  0  0  0  0  0  0  0  0  0  0  0
    0.6486  -40.1216   -3.4643 C   0  0  2  0  0  0  0  0  0  0  0  0
    3.0733  -40.3497    3.0104 C   0  0  1  0  0  0  0  0  0  0  0  0
    2.1085  -41.7685   -2.2800 C   0  0  0  0  0  0  0  0  0  0  0  0
    1.7596  -39.5128   -1.3222 N   0  0  0  0  0  0  0  0  0  0  0  0
    2.0036  -38.8500   -0.1335 N   0  0  0  0  0  0  0  0  0  0  0  0
    1.3628  -41.3865   -3.3390 N   0  0  0  0  0  0  0  0  0  0  0  0
    2.9685  -39.2930    1.9933 N   0  0  0  0  0  0  0  0  0  0  0  0
    2.6633  -42.8526   -2.2508 O   0  0  0  0  0  0  0  0  0  0  0  0
    2.9738  -38.6074    4.6652 O   0  0  0  0  0  0  0  0  0  0  0  0
    3.7617  -40.4875    5.0559 H   0  0  0  0  0  0  0  0  0  0  0  0
    4.7636  -39.4352    4.0084 H   0  0  0  0  0  0  0  0  0  0  0  0
    1.9418  -38.4226   -3.0528 H   0  0  0  0  0  0  0  0  0  0  0  0
    4.0208  -37.2481    3.4898 H   0  0  0  0  0  0  0  0  0  0  0  0
    2.4450  -36.6707    4.0992 H   0  0  0  0  0  0  0  0  0  0  0  0
    1.2493  -38.2532    2.6296 H   0  0  0  0  0  0  0  0  0  0  0  0
    2.4016  -37.2940    1.6405 H   0  0  0  0  0  0  0  0  0  0  0  0
    3.1918  -41.8245    0.5250 H   0  0  0  0  0  0  0  0  0  0  0  0
    1.5925  -40.9323    4.4784 H   0  0  0  0  0  0  0  0  0  0  0  0
    0.9118  -40.2350    2.9694 H   0  0  0  0  0  0  0  0  0  0  0  0
    1.5695  -41.9065    2.9694 H   0  0  0  0  0  0  0  0  0  0  0  0
   -0.0644  -37.8341   -1.1451 H   0  0  0  0  0  0  0  0  0  0  0  0
   -0.0551  -37.1707   -2.7872 H   0  0  0  0  0  0  0  0  0  0  0  0
   -1.9509  -39.0605   -1.6497 H   0  0  0  0  0  0  0  0  0  0  0  0
   -1.9167  -38.4835   -3.3312 H   0  0  0  0  0  0  0  0  0  0  0  0
   -0.8394  -41.0463   -2.1510 H   0  0  0  0  0  0  0  0  0  0  0  0
   -1.4373  -40.7542   -3.7921 H   0  0  0  0  0  0  0  0  0  0  0  0
    0.7804  -39.8291   -4.5164 H   0  0  0  0  0  0  0  0  0  0  0  0
    3.6682  -41.1858    2.6142 H   0  0  0  0  0  0  0  0  0  0  0  0
    1.2923  -42.0462   -4.1268 H   0  0  0  0  0  0  0  0  0  0  0  0
  1 13  1  0
  1 20  1  0
  2  9  1  0
  2 12  1  0
  2 15  1  0
  3  5  1  0
  3 20  1  0
  4  7  2  0
  4 14  1  0
  4 15  1  0
  5 18  1  0
  6  7  1  0
  6 16  2  0
  6 18  1  0
 13  8  1  0
  9 10  1  0
 10 11  1  0
 12 11  1  0
 12 17  1  0
 13 18  1  0
 14 17  1  0
 14 19  2  0
 15 16  1  0
  1 21  1  0
  1 22  1  0
  2 23  1  6
  3 24  1  0
  3 25  1  0
  5 26  1  0
  5 27  1  0
  7 28  1  0
  8 29  1  0
  8 30  1  0
  8 31  1  0
  9 32  1  0
  9 33  1  0
 10 34  1  0
 10 35  1  0
 11 36  1  0
 11 37  1  0
 12 38  1  6
 13 39  1  6
 17 40  1  0
M  END
>  <filename_input>  (8) 
7RSV_7IQ_docked.sdf

>  <pdb_id>  (8) 
7RSV_7IQ

>  <pose_rank>  (8) 
7

>  <num_atoms_heavy>  (8) 
20

>  <num_torsions>  (8) 
0

>  <pose>  (8) 
[3.734709486856237, -39.74221127641167, 4.247281328921304, -2.4872007675108425, -0.7328799769820757, 0.7199958979814836]

>  <energy>  (8) 
-497.01111630369314

>  <inter_energy>  (8) 
-496.61498805003566

>  <intra_energy>  (8) 
0.0

>  <rmsd>  (8) 
6.45304

>  <sdf_rank>  (8) 
0

$$$$

     RDKit          3D

 40 43  0  0  0  0  0  0  0  0999 V2000
    0.0952  -35.9250    5.0532 C   0  0  0  0  0  0  0  0  0  0  0  0
    1.1651  -41.7692    0.8071 C   0  0  2  0  0  0  0  0  0  0  0  0
    0.1027  -38.0071    6.2137 C   0  0  0  0  0  0  0  0  0  0  0  0
    0.8908  -39.2987    0.4917 C   0  0  0  0  0  0  0  0  0  0  0  0
    0.6601  -38.7265    4.9847 C   0  0  0  0  0  0  0  0  0  0  0  0
    0.5602  -38.6936    2.6061 C   0  0  0  0  0  0  0  0  0  0  0  0
    0.6508  -38.2144    1.2893 C   0  0  0  0  0  0  0  0  0  0  0  0
    2.2009  -36.3740    3.7789 C   0  0  0  0  0  0  0  0  0  0  0  0
    2.1311  -42.5376    1.7406 C   0  0  0  0  0  0  0  0  0  0  0  0
    3.4889  -42.5808    1.0044 C   0  0  0  0  0  0  0  0  0  0  0  0
    3.3169  -41.7882   -0.2987 C   0  0  0  0  0  0  0  0  0  0  0  0
    1.7970  -41.7833   -0.5966 C   0  0  2  0  0  0  0  0  0  0  0  0
    0.6771  -36.5487    3.7849 C   0  0  1  0  0  0  0  0  0  0  0  0
    1.0765  -39.4183   -0.9625 C   0  0  0  0  0  0  0  0  0  0  0  0
    0.9447  -40.4150    1.2994 N   0  0  0  0  0  0  0  0  0  0  0  0
    0.7338  -39.9938    2.5994 N   0  0  0  0  0  0  0  0  0  0  0  0
    1.4942  -40.6184   -1.4195 N   0  0  0  0  0  0  0  0  0  0  0  0
    0.3089  -37.9722    3.7753 N   0  0  0  0  0  0  0  0  0  0  0  0
    0.8578  -38.4902   -1.7206 O   0  0  0  0  0  0  0  0  0  0  0  0
    0.5713  -36.6555    6.1851 O   0  0  0  0  0  0  0  0  0  0  0  0
    0.4150  -34.8753    5.1294 H   0  0  0  0  0  0  0  0  0  0  0  0
   -1.0036  -35.9634    5.0186 H   0  0  0  0  0  0  0  0  0  0  0  0
    0.1736  -42.2444    0.7745 H   0  0  0  0  0  0  0  0  0  0  0  0
   -0.9969  -38.0216    6.1881 H   0  0  0  0  0  0  0  0  0  0  0  0
    0.4370  -38.5081    7.1342 H   0  0  0  0  0  0  0  0  0  0  0  0
    1.7547  -38.7986    5.0670 H   0  0  0  0  0  0  0  0  0  0  0  0
    0.2297  -39.7371    4.9246 H   0  0  0  0  0  0  0  0  0  0  0  0
    0.5485  -37.1690    0.9626 H   0  0  0  0  0  0  0  0  0  0  0  0
    2.5692  -36.3318    4.8145 H   0  0  0  0  0  0  0  0  0  0  0  0
    2.6654  -37.2248    3.2589 H   0  0  0  0  0  0  0  0  0  0  0  0
    2.4609  -35.4402    3.2589 H   0  0  0  0  0  0  0  0  0  0  0  0
    2.2337  -42.0117    2.7013 H   0  0  0  0  0  0  0  0  0  0  0  0
    1.7595  -43.5492    1.9610 H   0  0  0  0  0  0  0  0  0  0  0  0
    4.2708  -42.1207    1.6264 H   0  0  0  0  0  0  0  0  0  0  0  0
    3.7904  -43.6181    0.7966 H   0  0  0  0  0  0  0  0  0  0  0  0
    3.6851  -40.7594   -0.1720 H   0  0  0  0  0  0  0  0  0  0  0  0
    3.8882  -42.2391   -1.1235 H   0  0  0  0  0  0  0  0  0  0  0  0
    1.4110  -42.6388   -1.1703 H   0  0  0  0  0  0  0  0  0  0  0  0
    0.2788  -36.0583    2.8844 H   0  0  0  0  0  0  0  0  0  0  0  0
    1.6088  -40.7197   -2.4381 H   0  0  0  0  0  0  0  0  0  0  0  0
  1 13  1  0
  1 20  1  0
  2  9  1  0
  2 12  1  0
  2 15  1  0
  3  5  1  0
  3 20  1  0
  4  7  2  0
  4 14  1  0
  4 15  1  0
  5 18  1  0
  6  7  1  0
  6 16  2  0
  6 18  1  0
 13  8  1  0
  9 10  1  0
 10 11  1  0
 12 11  1  0
 12 17  1  0
 13 18  1  0
 14 17  1  0
 14 19  2  0
 15 16  1  0
  1 21  1  0
  1 22  1  0
  2 23  1  6
  3 24  1  0
  3 25  1  0
  5 26  1  0
  5 27  1  0
  7 28  1  0
  8 29  1  0
  8 30  1  0
  8 31  1  0
  9 32  1  0
  9 33  1  0
 10 34  1  0
 10 35  1  0
 11 36  1  0
 11 37  1  0
 12 38  1  6
 13 39  1  6
 17 40  1  0
M  END
>  <filename_input>  (9) 
7RSV_7IQ_docked.sdf

>  <pdb_id>  (9) 
7RSV_7IQ

>  <pose_rank>  (9) 
8

>  <num_atoms_heavy>  (9) 
20

>  <num_torsions>  (9) 
0

>  <pose>  (9) 
[0.09521415751780193, -35.9250438664108, 5.053225249851709, -0.5939090566776232, 2.371000209605902, -1.7103442040526269]

>  <energy>  (9) 
-401.4767347097234

>  <inter_energy>  (9) 
-394.17709104821773

>  <intra_energy>  (9) 
0.0

>  <rmsd>  (9) 
6.39306

>  <sdf_rank>  (9) 
0

$$$$

     RDKit          3D

 40 43  0  0  0  0  0  0  0  0999 V2000
    4.8188  -36.5728    7.2251 C   0  0  0  0  0  0  0  0  0  0  0  0
    3.7028  -41.0293    1.5486 C   0  0  2  0  0  0  0  0  0  0  0  0
    5.0478  -35.5374    5.0903 C   0  0  0  0  0  0  0  0  0  0  0  0
    3.7963  -41.2270    4.0447 C   0  0  0  0  0  0  0  0  0  0  0  0
    4.4200  -36.7490    4.3999 C   0  0  0  0  0  0  0  0  0  0  0  0
    4.2901  -39.1209    4.5610 C   0  0  0  0  0  0  0  0  0  0  0  0
    4.0454  -40.3943    5.1001 C   0  0  0  0  0  0  0  0  0  0  0  0
    2.6320  -37.6714    6.7052 C   0  0  0  0  0  0  0  0  0  0  0  0
    2.8785  -40.0563    0.6719 C   0  0  0  0  0  0  0  0  0  0  0  0
    1.4617  -40.6656    0.5777 C   0  0  0  0  0  0  0  0  0  0  0  0
    1.4603  -41.9316    1.4456 C   0  0  0  0  0  0  0  0  0  0  0  0
    2.9418  -42.3674    1.5652 C   0  0  2  0  0  0  0  0  0  0  0  0
    4.1572  -37.8157    6.6306 C   0  0  1  0  0  0  0  0  0  0  0  0
    3.4800  -42.6624    3.9879 C   0  0  0  0  0  0  0  0  0  0  0  0
    3.8872  -40.4829    2.8873 N   0  0  0  0  0  0  0  0  0  0  0  0
    4.1954  -39.1859    3.2543 N   0  0  0  0  0  0  0  0  0  0  0  0
    3.0938  -43.1467    2.7879 N   0  0  0  0  0  0  0  0  0  0  0  0
    4.6080  -37.9405    5.2365 N   0  0  0  0  0  0  0  0  0  0  0  0
    3.5689  -43.3831    4.9659 O   0  0  0  0  0  0  0  0  0  0  0  0
    4.4979  -35.4455    6.4081 O   0  0  0  0  0  0  0  0  0  0  0  0
    4.4450  -36.4077    8.2464 H   0  0  0  0  0  0  0  0  0  0  0  0
    5.9096  -36.7105    7.2606 H   0  0  0  0  0  0  0  0  0  0  0  0
    4.7136  -41.1801    1.1416 H   0  0  0  0  0  0  0  0  0  0  0  0
    6.1388  -35.6650    5.1491 H   0  0  0  0  0  0  0  0  0  0  0  0
    4.8337  -34.6202    4.5220 H   0  0  0  0  0  0  0  0  0  0  0  0
    3.3446  -36.5705    4.2522 H   0  0  0  0  0  0  0  0  0  0  0  0
    4.9028  -36.9061    3.4241 H   0  0  0  0  0  0  0  0  0  0  0  0
    4.0529  -40.6687    6.1653 H   0  0  0  0  0  0  0  0  0  0  0  0
    2.3177  -37.6417    7.7589 H   0  0  0  0  0  0  0  0  0  0  0  0
    2.3269  -36.7404    6.2051 H   0  0  0  0  0  0  0  0  0  0  0  0
    2.1577  -38.5287    6.2051 H   0  0  0  0  0  0  0  0  0  0  0  0
    2.8366  -39.0618    1.1400 H   0  0  0  0  0  0  0  0  0  0  0  0
    3.3297  -39.9292   -0.3232 H   0  0  0  0  0  0  0  0  0  0  0  0
    0.7164  -39.9490    0.9532 H   0  0  0  0  0  0  0  0  0  0  0  0
    1.2048  -40.9036   -0.4651 H   0  0  0  0  0  0  0  0  0  0  0  0
    1.0445  -41.7129    2.4403 H   0  0  0  0  0  0  0  0  0  0  0  0
    0.8411  -42.7247    1.0011 H   0  0  0  0  0  0  0  0  0  0  0  0
    3.3221  -43.0221    0.7672 H   0  0  0  0  0  0  0  0  0  0  0  0
    4.4373  -38.7196    7.1914 H   0  0  0  0  0  0  0  0  0  0  0  0
    2.8887  -44.1546    2.7317 H   0  0  0  0  0  0  0  0  0  0  0  0
  1 13  1  0
  1 20  1  0
  2  9  1  0
  2 12  1  0
  2 15  1  0
  3  5  1  0
  3 20  1  0
  4  7  2  0
  4 14  1  0
  4 15  1  0
  5 18  1  0
  6  7  1  0
  6 16  2  0
  6 18  1  0
 13  8  1  0
  9 10  1  0
 10 11  1  0
 12 11  1  0
 12 17  1  0
 13 18  1  0
 14 17  1  0
 14 19  2  0
 15 16  1  0
  1 21  1  0
  1 22  1  0
  2 23  1  6
  3 24  1  0
  3 25  1  0
  5 26  1  0
  5 27  1  0
  7 28  1  0
  8 29  1  0
  8 30  1  0
  8 31  1  0
  9 32  1  0
  9 33  1  0
 10 34  1  0
 10 35  1  0
 11 36  1  0
 11 37  1  0
 12 38  1  6
 13 39  1  1
 17 40  1  0
M  END
>  <filename_input>  (10) 
7RSV_7IQ_docked.sdf

>  <pdb_id>  (10) 
7RSV_7IQ

>  <pose_rank>  (10) 
9

>  <num_atoms_heavy>  (10) 
20

>  <num_torsions>  (10) 
0

>  <pose>  (10) 
[4.818798659655931, -36.57279976390575, 7.2251262014885675, -3.4369959633473135, -0.10178409393491936, 0.6215643992823195]

>  <energy>  (10) 
-269.0339152819166

>  <inter_energy>  (10) 
-260.69999143451037

>  <intra_energy>  (10) 
0.0

>  <rmsd>  (10) 
8.10812

>  <sdf_rank>  (10) 
0

$$$$

     RDKit          3D

 40 43  0  0  0  0  0  0  0  0999 V2000
    7.0806  -40.4985    4.2042 C   0  0  0  0  0  0  0  0  0  0  0  0
    0.8200  -36.7403    4.1093 C   0  0  2  0  0  0  0  0  0  0  0  0
    5.9828  -40.3453    6.3145 C   0  0  0  0  0  0  0  0  0  0  0  0
    2.6442  -37.3058    2.4874 C   0  0  0  0  0  0  0  0  0  0  0  0
    4.7121  -39.8128    5.6507 C   0  0  0  0  0  0  0  0  0  0  0  0
    3.9932  -38.4484    3.8367 C   0  0  0  0  0  0  0  0  0  0  0  0
    3.8345  -37.9776    2.5233 C   0  0  0  0  0  0  0  0  0  0  0  0
    5.0369  -41.1974    2.9415 C   0  0  0  0  0  0  0  0  0  0  0  0
   -0.0059  -37.6777    5.0227 C   0  0  0  0  0  0  0  0  0  0  0  0
   -1.1190  -38.2691    4.1292 C   0  0  0  0  0  0  0  0  0  0  0  0
   -0.8884  -37.7299    2.7107 C   0  0  0  0  0  0  0  0  0  0  0  0
   -0.0524  -36.4367    2.8777 C   0  0  2  0  0  0  0  0  0  0  0  0
    5.8499  -39.9993    3.4476 C   0  0  1  0  0  0  0  0  0  0  0  0
    1.9535  -36.6022    1.3959 C   0  0  0  0  0  0  0  0  0  0  0  0
    2.0876  -37.3623    3.7478 N   0  0  0  0  0  0  0  0  0  0  0  0
    2.9569  -38.0780    4.5504 N   0  0  0  0  0  0  0  0  0  0  0  0
    0.6865  -36.2051    1.6423 N   0  0  0  0  0  0  0  0  0  0  0  0
    5.0572  -39.1768    4.3734 N   0  0  0  0  0  0  0  0  0  0  0  0
    2.4936  -36.3783    0.3273 O   0  0  0  0  0  0  0  0  0  0  0  0
    6.6496  -41.1942    5.3754 O   0  0  0  0  0  0  0  0  0  0  0  0
    7.6588  -41.1789    3.5617 H   0  0  0  0  0  0  0  0  0  0  0  0
    7.7161  -39.6467    4.4878 H   0  0  0  0  0  0  0  0  0  0  0  0
    1.0788  -35.8028    4.6232 H   0  0  0  0  0  0  0  0  0  0  0  0
    6.6389  -39.5068    6.5911 H   0  0  0  0  0  0  0  0  0  0  0  0
    5.7312  -40.9071    7.2261 H   0  0  0  0  0  0  0  0  0  0  0  0
    4.0165  -40.6454    5.4695 H   0  0  0  0  0  0  0  0  0  0  0  0
    4.2352  -39.0739    6.3113 H   0  0  0  0  0  0  0  0  0  0  0  0
    4.5327  -38.1214    1.6855 H   0  0  0  0  0  0  0  0  0  0  0  0
    4.6504  -41.7670    3.7995 H   0  0  0  0  0  0  0  0  0  0  0  0
    4.1954  -40.8379    2.3310 H   0  0  0  0  0  0  0  0  0  0  0  0
    5.6818  -41.8466    2.3310 H   0  0  0  0  0  0  0  0  0  0  0  0
    0.6309  -38.4808    5.4221 H   0  0  0  0  0  0  0  0  0  0  0  0
   -0.4249  -37.1357    5.8833 H   0  0  0  0  0  0  0  0  0  0  0  0
   -1.0608  -39.3676    4.1301 H   0  0  0  0  0  0  0  0  0  0  0  0
   -2.1143  -37.9841    4.5010 H   0  0  0  0  0  0  0  0  0  0  0  0
   -0.3377  -38.4660    2.1067 H   0  0  0  0  0  0  0  0  0  0  0  0
   -1.8395  -37.5316    2.1949 H   0  0  0  0  0  0  0  0  0  0  0  0
   -0.6195  -35.5087    3.0425 H   0  0  0  0  0  0  0  0  0  0  0  0
    6.1400  -39.3967    2.5742 H   0  0  0  0  0  0  0  0  0  0  0  0
    0.1997  -35.6940    0.8921 H   0  0  0  0  0  0  0  0  0  0  0  0
  1 13  1  0
  1 20  1  0
  2  9  1  0
  2 12  1  0
  2 15  1  0
  3  5  1  0
  3 20  1  0
  4  7  2  0
  4 14  1  0
  4 15  1  0
  5 18  1  0
  6  7  1  0
  6 16  2  0
  6 18  1  0
 13  8  1  0
  9 10  1  0
 10 11  1  0
 12 11  1  0
 12 17  1  0
 13 18  1  0
 14 17  1  0
 14 19  2  0
 15 16  1  0
  1 21  1  0
  1 22  1  0
  2 23  1  1
  3 24  1  0
  3 25  1  0
  5 26  1  0
  5 27  1  0
  7 28  1  0
  8 29  1  0
  8 30  1  0
  8 31  1  0
  9 32  1  0
  9 33  1  0
 10 34  1  0
 10 35  1  0
 11 36  1  0
 11 37  1  0
 12 38  1  1
 13 39  1  6
 17 40  1  0
M  END
>  <filename_input>  (11) 
7RSV_7IQ_docked.sdf

>  <pdb_id>  (11) 
7RSV_7IQ

>  <pose_rank>  (11) 
10

>  <num_atoms_heavy>  (11) 
20

>  <num_torsions>  (11) 
0

>  <pose>  (11) 
[7.0805547236666495, -40.49852603169521, 4.204159885879989, 2.53540517109952, 3.567930874920559, -1.80842259324336]

>  <energy>  (11) 
-364.5209536263248

>  <inter_energy>  (11) 
-351.48361157605314

>  <intra_energy>  (11) 
0.0

>  <rmsd>  (11) 
6.11611

>  <sdf_rank>  (11) 
0

$$$$

     RDKit          3D

 40 43  0  0  0  0  0  0  0  0999 V2000
    1.2872  -39.0984   -2.8862 C   0  0  0  0  0  0  0  0  0  0  0  0
    4.3964  -43.6398    1.9135 C   0  0  2  0  0  0  0  0  0  0  0  0
    0.8930  -41.4110   -3.3088 C   0  0  0  0  0  0  0  0  0  0  0  0
    4.3526  -41.1710    1.4875 C   0  0  0  0  0  0  0  0  0  0  0  0
    1.4353  -41.7882   -1.9295 C   0  0  0  0  0  0  0  0  0  0  0  0
    3.0794  -41.1361   -0.3356 C   0  0  0  0  0  0  0  0  0  0  0  0
    3.7994  -40.3307    0.5616 C   0  0  0  0  0  0  0  0  0  0  0  0
    0.6866  -39.2109   -0.4601 C   0  0  0  0  0  0  0  0  0  0  0  0
    3.2168  -44.6299    2.0659 C   0  0  0  0  0  0  0  0  0  0  0  0
    2.7277  -44.4869    3.5245 C   0  0  0  0  0  0  0  0  0  0  0  0
    3.5718  -43.3812    4.1733 C   0  0  0  0  0  0  0  0  0  0  0  0
    4.8715  -43.2909    3.3357 C   0  0  2  0  0  0  0  0  0  0  0  0
    1.8203  -39.3730   -1.4803 C   0  0  1  0  0  0  0  0  0  0  0  0
    5.2043  -40.9085    2.6577 C   0  0  0  0  0  0  0  0  0  0  0  0
    3.9821  -42.4595    1.1651 N   0  0  0  0  0  0  0  0  0  0  0  0
    3.1958  -42.3905    0.0299 N   0  0  0  0  0  0  0  0  0  0  0  0
    5.4238  -41.9503    3.4884 N   0  0  0  0  0  0  0  0  0  0  0  0
    2.3543  -40.7429   -1.4627 N   0  0  0  0  0  0  0  0  0  0  0  0
    5.6960  -39.8138    2.8668 O   0  0  0  0  0  0  0  0  0  0  0  0
    0.3246  -40.1011   -3.2171 O   0  0  0  0  0  0  0  0  0  0  0  0
    0.8126  -38.1065   -2.9145 H   0  0  0  0  0  0  0  0  0  0  0  0
    2.1145  -39.1206   -3.6108 H   0  0  0  0  0  0  0  0  0  0  0  0
    5.2245  -44.0848    1.3424 H   0  0  0  0  0  0  0  0  0  0  0  0
    1.7106  -41.4125   -4.0446 H   0  0  0  0  0  0  0  0  0  0  0  0
    0.1315  -42.1363   -3.6315 H   0  0  0  0  0  0  0  0  0  0  0  0
    0.5996  -41.8850   -1.2208 H   0  0  0  0  0  0  0  0  0  0  0  0
    1.9724  -42.7459   -1.9959 H   0  0  0  0  0  0  0  0  0  0  0  0
    3.8990  -39.2358    0.5263 H   0  0  0  0  0  0  0  0  0  0  0  0
    1.0984  -39.2698    0.5581 H   0  0  0  0  0  0  0  0  0  0  0  0
    0.2012  -38.2342   -0.6035 H   0  0  0  0  0  0  0  0  0  0  0  0
   -0.0531  -40.0124   -0.6035 H   0  0  0  0  0  0  0  0  0  0  0  0
    2.4090  -44.3731    1.3649 H   0  0  0  0  0  0  0  0  0  0  0  0
    3.5253  -45.6620    1.8434 H   0  0  0  0  0  0  0  0  0  0  0  0
    1.6636  -44.2089    3.5408 H   0  0  0  0  0  0  0  0  0  0  0  0
    2.8365  -45.4358    4.0703 H   0  0  0  0  0  0  0  0  0  0  0  0
    3.0323  -42.4229    4.1467 H   0  0  0  0  0  0  0  0  0  0  0  0
    3.7868  -43.6046    5.2287 H   0  0  0  0  0  0  0  0  0  0  0  0
    5.6886  -43.9653    3.6314 H   0  0  0  0  0  0  0  0  0  0  0  0
    2.6168  -38.6628   -1.2136 H   0  0  0  0  0  0  0  0  0  0  0  0
    6.0348  -41.7832    4.3006 H   0  0  0  0  0  0  0  0  0  0  0  0
  1 13  1  0
  1 20  1  0
  2  9  1  0
  2 12  1  0
  2 15  1  0
  3  5  1  0
  3 20  1  0
  4  7  2  0
  4 14  1  0
  4 15  1  0
  5 18  1  0
  6  7  1  0
  6 16  2  0
  6 18  1  0
 13  8  1  0
  9 10  1  0
 10 11  1  0
 12 11  1  0
 12 17  1  0
 13 18  1  0
 14 17  1  0
 14 19  2  0
 15 16  1  0
  1 21  1  0
  1 22  1  0
  2 23  1  6
  3 24  1  0
  3 25  1  0
  5 26  1  0
  5 27  1  0
  7 28  1  0
  8 29  1  0
  8 30  1  0
  8 31  1  0
  9 32  1  0
  9 33  1  0
 10 34  1  0
 10 35  1  0
 11 36  1  0
 11 37  1  0
 12 38  1  1
 13 39  1  1
 17 40  1  0
M  END
>  <filename_input>  (12) 
7RSV_7IQ_docked.sdf

>  <pdb_id>  (12) 
7RSV_7IQ

>  <pose_rank>  (12) 
11

>  <num_atoms_heavy>  (12) 
20

>  <num_torsions>  (12) 
0

>  <pose>  (12) 
[1.2871788328193616, -39.09841292086684, -2.8862378679148497, 4.929553704550914, 3.038963526390507, -4.66681904336226]

>  <energy>  (12) 
-439.26056973379565

>  <inter_energy>  (12) 
-422.16837167911336

>  <intra_energy>  (12) 
0.0

>  <rmsd>  (12) 
5.07862

>  <sdf_rank>  (12) 
0

$$$$

     RDKit          3D

 40 43  0  0  0  0  0  0  0  0999 V2000
    7.9425  -39.2929   10.0851 C   0  0  0  0  0  0  0  0  0  0  0  0
    3.4983  -39.3743    4.2910 C   0  0  2  0  0  0  0  0  0  0  0  0
    7.8599  -41.3745    8.9266 C   0  0  0  0  0  0  0  0  0  0  0  0
    4.1171  -37.7605    6.1051 C   0  0  0  0  0  0  0  0  0  0  0  0
    7.1262  -40.7276    7.7511 C   0  0  0  0  0  0  0  0  0  0  0  0
    5.5266  -39.0330    7.2627 C   0  0  0  0  0  0  0  0  0  0  0  0
    4.9214  -37.7669    7.2108 C   0  0  0  0  0  0  0  0  0  0  0  0
    8.2826  -37.9085    8.0291 C   0  0  0  0  0  0  0  0  0  0  0  0
    4.4151  -40.1681    3.3296 C   0  0  0  0  0  0  0  0  0  0  0  0
    4.7899  -39.1891    2.1946 C   0  0  0  0  0  0  0  0  0  0  0  0
    4.1519  -37.8367    2.5412 C   0  0  0  0  0  0  0  0  0  0  0  0
    2.9842  -38.1523    3.5085 C   0  0  2  0  0  0  0  0  0  0  0  0
    7.2376  -38.5516    8.9493 C   0  0  1  0  0  0  0  0  0  0  0  0
    3.2410  -36.7218    5.5418 C   0  0  0  0  0  0  0  0  0  0  0  0
    4.2256  -38.9924    5.4951 N   0  0  0  0  0  0  0  0  0  0  0  0
    5.1072  -39.7479    6.2460 N   0  0  0  0  0  0  0  0  0  0  0  0
    2.7257  -36.9675    4.3180 N   0  0  0  0  0  0  0  0  0  0  0  0
    6.4187  -39.5285    8.2163 N   0  0  0  0  0  0  0  0  0  0  0  0
    2.9828  -35.6963    6.1464 O   0  0  0  0  0  0  0  0  0  0  0  0
    8.6893  -40.3782    9.5322 O   0  0  0  0  0  0  0  0  0  0  0  0
    8.6224  -38.6053   10.6095 H   0  0  0  0  0  0  0  0  0  0  0  0
    7.1990  -39.6761   10.7995 H   0  0  0  0  0  0  0  0  0  0  0  0
    2.6481  -39.9837    4.6316 H   0  0  0  0  0  0  0  0  0  0  0  0
    7.1314  -41.7501    9.6603 H   0  0  0  0  0  0  0  0  0  0  0  0
    8.4710  -42.2198    8.5773 H   0  0  0  0  0  0  0  0  0  0  0  0
    7.8532  -40.4464    6.9749 H   0  0  0  0  0  0  0  0  0  0  0  0
    6.4016  -41.4419    7.3330 H   0  0  0  0  0  0  0  0  0  0  0  0
    5.0663  -36.9404    7.9219 H   0  0  0  0  0  0  0  0  0  0  0  0
    9.0623  -37.4286    8.6388 H   0  0  0  0  0  0  0  0  0  0  0  0
    8.7383  -38.6827    7.3943 H   0  0  0  0  0  0  0  0  0  0  0  0
    7.7967  -37.1529    7.3943 H   0  0  0  0  0  0  0  0  0  0  0  0
    5.3194  -40.5071    3.8563 H   0  0  0  0  0  0  0  0  0  0  0  0
    3.9105  -41.0641    2.9391 H   0  0  0  0  0  0  0  0  0  0  0  0
    5.8831  -39.0859    2.1301 H   0  0  0  0  0  0  0  0  0  0  0  0
    4.4282  -39.5568    1.2230 H   0  0  0  0  0  0  0  0  0  0  0  0
    4.8874  -37.1811    3.0305 H   0  0  0  0  0  0  0  0  0  0  0  0
    3.7991  -37.3143    1.6397 H   0  0  0  0  0  0  0  0  0  0  0  0
    2.0165  -38.3888    3.0421 H   0  0  0  0  0  0  0  0  0  0  0  0
    6.5942  -37.7494    9.3398 H   0  0  0  0  0  0  0  0  0  0  0  0
    2.0950  -36.2560    3.9219 H   0  0  0  0  0  0  0  0  0  0  0  0
  1 13  1  0
  1 20  1  0
  2  9  1  0
  2 12  1  0
  2 15  1  0
  3  5  1  0
  3 20  1  0
  4  7  2  0
  4 14  1  0
  4 15  1  0
  5 18  1  0
  6  7  1  0
  6 16  2  0
  6 18  1  0
 13  8  1  0
  9 10  1  0
 10 11  1  0
 12 11  1  0
 12 17  1  0
 13 18  1  0
 14 17  1  0
 14 19  2  0
 15 16  1  0
  1 21  1  0
  1 22  1  0
  2 23  1  1
  3 24  1  0
  3 25  1  0
  5 26  1  0
  5 27  1  0
  7 28  1  0
  8 29  1  0
  8 30  1  0
  8 31  1  0
  9 32  1  0
  9 33  1  0
 10 34  1  0
 10 35  1  0
 11 36  1  0
 11 37  1  0
 12 38  1  6
 13 39  1  1
 17 40  1  0
M  END
>  <filename_input>  (13) 
7RSV_7IQ_docked.sdf

>  <pdb_id>  (13) 
7RSV_7IQ

>  <pose_rank>  (13) 
12

>  <num_atoms_heavy>  (13) 
20

>  <num_torsions>  (13) 
0

>  <pose>  (13) 
[7.942457897235569, -39.29287983955129, 10.085055493351415, 0.9789889910803549, -2.5711369159628203, 0.03960700982868465]

>  <energy>  (13) 
-199.44308186821456

>  <inter_energy>  (13) 
-205.28883415648232

>  <intra_energy>  (13) 
0.0

>  <rmsd>  (13) 
9.53783

>  <sdf_rank>  (13) 
0

$$$$

     RDKit          3D

 40 43  0  0  0  0  0  0  0  0999 V2000
    6.9235  -40.8519    4.4993 C   0  0  0  0  0  0  0  0  0  0  0  0
    1.1572  -36.5907    3.1138 C   0  0  2  0  0  0  0  0  0  0  0  0
    6.6231  -39.0570    6.0387 C   0  0  0  0  0  0  0  0  0  0  0  0
    2.2915  -38.5485    2.0375 C   0  0  0  0  0  0  0  0  0  0  0  0
    5.2228  -38.7788    5.4903 C   0  0  0  0  0  0  0  0  0  0  0  0
    3.9773  -38.8239    3.4616 C   0  0  0  0  0  0  0  0  0  0  0  0
    3.3956  -39.3169    2.2824 C   0  0  0  0  0  0  0  0  0  0  0  0
    4.5459  -41.6247    4.5930 C   0  0  0  0  0  0  0  0  0  0  0  0
    0.6601  -36.4238    4.5698 C   0  0  0  0  0  0  0  0  0  0  0  0
   -0.7136  -37.1283    4.6333 C   0  0  0  0  0  0  0  0  0  0  0  0
   -0.9634  -37.7474    3.2511 C   0  0  0  0  0  0  0  0  0  0  0  0
   -0.0726  -36.9550    2.2624 C   0  0  2  0  0  0  0  0  0  0  0  0
    5.5278  -40.6691    3.9038 C   0  0  1  0  0  0  0  0  0  0  0  0
    1.2953  -38.5885    0.9560 C   0  0  0  0  0  0  0  0  0  0  0  0
    2.1994  -37.6071    3.0409 N   0  0  0  0  0  0  0  0  0  0  0  0
    3.2636  -37.8141    3.8992 N   0  0  0  0  0  0  0  0  0  0  0  0
    0.2058  -37.8061    1.1118 N   0  0  0  0  0  0  0  0  0  0  0  0
    5.1326  -39.2677    4.1091 N   0  0  0  0  0  0  0  0  0  0  0  0
    1.4441  -39.2816   -0.0346 O   0  0  0  0  0  0  0  0  0  0  0  0
    6.8946  -40.4517    5.8706 O   0  0  0  0  0  0  0  0  0  0  0  0
    7.2201  -41.9088    4.4287 H   0  0  0  0  0  0  0  0  0  0  0  0
    7.6496  -40.2382    3.9459 H   0  0  0  0  0  0  0  0  0  0  0  0
    1.6118  -35.6635    2.7348 H   0  0  0  0  0  0  0  0  0  0  0  0
    7.3655  -38.4628    5.4857 H   0  0  0  0  0  0  0  0  0  0  0  0
    6.6784  -38.7824    7.1025 H   0  0  0  0  0  0  0  0  0  0  0  0
    4.4763  -39.2953    6.1116 H   0  0  0  0  0  0  0  0  0  0  0  0
    5.0298  -37.6961    5.5095 H   0  0  0  0  0  0  0  0  0  0  0  0
    3.7580  -40.1584    1.6737 H   0  0  0  0  0  0  0  0  0  0  0  0
    4.6451  -41.5281    5.6843 H   0  0  0  0  0  0  0  0  0  0  0  0
    3.5177  -41.3720    4.2946 H   0  0  0  0  0  0  0  0  0  0  0  0
    4.7705  -42.6593    4.2946 H   0  0  0  0  0  0  0  0  0  0  0  0
    1.3644  -36.8955    5.2708 H   0  0  0  0  0  0  0  0  0  0  0  0
    0.5826  -35.3630    4.8504 H   0  0  0  0  0  0  0  0  0  0  0  0
   -0.7001  -37.9143    5.4027 H   0  0  0  0  0  0  0  0  0  0  0  0
   -1.5094  -36.4150    4.8940 H   0  0  0  0  0  0  0  0  0  0  0  0
   -0.6816  -38.8107    3.2518 H   0  0  0  0  0  0  0  0  0  0  0  0
   -2.0255  -37.6923    2.9703 H   0  0  0  0  0  0  0  0  0  0  0  0
   -0.5133  -36.0422    1.8349 H   0  0  0  0  0  0  0  0  0  0  0  0
    5.5232  -40.9003    2.8284 H   0  0  0  0  0  0  0  0  0  0  0  0
   -0.4892  -37.8110    0.3516 H   0  0  0  0  0  0  0  0  0  0  0  0
  1 13  1  0
  1 20  1  0
  2  9  1  0
  2 12  1  0
  2 15  1  0
  3  5  1  0
  3 20  1  0
  4  7  2  0
  4 14  1  0
  4 15  1  0
  5 18  1  0
  6  7  1  0
  6 16  2  0
  6 18  1  0
 13  8  1  0
  9 10  1  0
 10 11  1  0
 12 11  1  0
 12 17  1  0
 13 18  1  0
 14 17  1  0
 14 19  2  0
 15 16  1  0
  1 21  1  0
  1 22  1  0
  2 23  1  6
  3 24  1  0
  3 25  1  0
  5 26  1  0
  5 27  1  0
  7 28  1  0
  8 29  1  0
  8 30  1  0
  8 31  1  0
  9 32  1  0
  9 33  1  0
 10 34  1  0
 10 35  1  0
 11 36  1  0
 11 37  1  0
 12 38  1  6
 13 39  1  6
 17 40  1  0
M  END
>  <filename_input>  (14) 
7RSV_7IQ_docked.sdf

>  <pdb_id>  (14) 
7RSV_7IQ

>  <pose_rank>  (14) 
13

>  <num_atoms_heavy>  (14) 
20

>  <num_torsions>  (14) 
0

>  <pose>  (14) 
[6.923539376546988, -40.851934152811744, 4.4992992678668715, 3.4633936410001036, 1.3373567843709795, -2.4743528726914317]

>  <energy>  (14) 
-364.5624807375733

>  <inter_energy>  (14) 
-354.43885926758895

>  <intra_energy>  (14) 
0.0

>  <rmsd>  (14) 
6.3732

>  <sdf_rank>  (14) 
0

$$$$

     RDKit          3D

 40 43  0  0  0  0  0  0  0  0999 V2000
    3.4631  -38.7060    7.0610 C   0  0  0  0  0  0  0  0  0  0  0  0
    0.4779  -37.9974    0.4342 C   0  0  2  0  0  0  0  0  0  0  0  0
    4.9802  -39.0230    5.2499 C   0  0  0  0  0  0  0  0  0  0  0  0
   -0.3085  -37.9634    2.8130 C   0  0  0  0  0  0  0  0  0  0  0  0
    3.9618  -38.4614    4.2567 C   0  0  0  0  0  0  0  0  0  0  0  0
    1.6186  -38.3793    3.8421 C   0  0  0  0  0  0  0  0  0  0  0  0
    0.2510  -38.1367    4.0485 C   0  0  0  0  0  0  0  0  0  0  0  0
    2.4976  -36.5763    6.1712 C   0  0  0  0  0  0  0  0  0  0  0  0
    1.6233  -37.1978   -0.2318 C   0  0  0  0  0  0  0  0  0  0  0  0
    1.0394  -35.8029   -0.5487 C   0  0  0  0  0  0  0  0  0  0  0  0
   -0.3970  -35.7855   -0.0079 C   0  0  0  0  0  0  0  0  0  0  0  0
   -0.8334  -37.2684    0.0890 C   0  0  2  0  0  0  0  0  0  0  0  0
    2.3911  -38.1063    6.1514 C   0  0  1  0  0  0  0  0  0  0  0  0
   -1.6921  -37.6846    2.3989 C   0  0  0  0  0  0  0  0  0  0  0  0
    0.6911  -38.0978    1.8726 N   0  0  0  0  0  0  0  0  0  0  0  0
    1.8662  -38.3554    2.5542 N   0  0  0  0  0  0  0  0  0  0  0  0
   -1.8803  -37.3740    1.0982 N   0  0  0  0  0  0  0  0  0  0  0  0
    2.6072  -38.6330    4.7957 N   0  0  0  0  0  0  0  0  0  0  0  0
   -2.6243  -37.7387    3.1811 O   0  0  0  0  0  0  0  0  0  0  0  0
    4.7494  -38.4022    6.5182 O   0  0  0  0  0  0  0  0  0  0  0  0
    3.3760  -38.2749    8.0693 H   0  0  0  0  0  0  0  0  0  0  0  0
    3.3322  -39.7963    7.1248 H   0  0  0  0  0  0  0  0  0  0  0  0
    0.4389  -39.0316    0.0613 H   0  0  0  0  0  0  0  0  0  0  0  0
    4.8535  -40.1120    5.3388 H   0  0  0  0  0  0  0  0  0  0  0  0
    6.0042  -38.8176    4.9045 H   0  0  0  0  0  0  0  0  0  0  0  0
    4.1591  -37.3914    4.0947 H   0  0  0  0  0  0  0  0  0  0  0  0
    4.0469  -38.9987    3.3007 H   0  0  0  0  0  0  0  0  0  0  0  0
   -0.2694  -38.0942    5.0166 H   0  0  0  0  0  0  0  0  0  0  0  0
    2.5222  -36.2239    7.2129 H   0  0  0  0  0  0  0  0  0  0  0  0
    3.4195  -36.2663    5.6574 H   0  0  0  0  0  0  0  0  0  0  0  0
    1.6276  -36.1415    5.6574 H   0  0  0  0  0  0  0  0  0  0  0  0
    2.4770  -37.1078    0.4560 H   0  0  0  0  0  0  0  0  0  0  0  0
    1.9888  -37.6980   -1.1408 H   0  0  0  0  0  0  0  0  0  0  0  0
    1.6380  -35.0220   -0.0568 H   0  0  0  0  0  0  0  0  0  0  0  0
    1.0543  -35.6072   -1.6310 H   0  0  0  0  0  0  0  0  0  0  0  0
   -0.4262  -35.3126    0.9849 H   0  0  0  0  0  0  0  0  0  0  0  0
   -1.0676  -35.2096   -0.6626 H   0  0  0  0  0  0  0  0  0  0  0  0
   -1.2749  -37.7058   -0.8187 H   0  0  0  0  0  0  0  0  0  0  0  0
    1.3825  -38.3776    6.4966 H   0  0  0  0  0  0  0  0  0  0  0  0
   -2.8476  -37.1961    0.7926 H   0  0  0  0  0  0  0  0  0  0  0  0
  1 13  1  0
  1 20  1  0
  2  9  1  0
  2 12  1  0
  2 15  1  0
  3  5  1  0
  3 20  1  0
  4  7  2  0
  4 14  1  0
  4 15  1  0
  5 18  1  0
  6  7  1  0
  6 16  2  0
  6 18  1  0
 13  8  1  0
  9 10  1  0
 10 11  1  0
 12 11  1  0
 12 17  1  0
 13 18  1  0
 14 17  1  0
 14 19  2  0
 15 16  1  0
  1 21  1  0
  1 22  1  0
  2 23  1  6
  3 24  1  0
  3 25  1  0
  5 26  1  0
  5 27  1  0
  7 28  1  0
  8 29  1  0
  8 30  1  0
  8 31  1  0
  9 32  1  0
  9 33  1  0
 10 34  1  0
 10 35  1  0
 11 36  1  0
 11 37  1  0
 12 38  1  6
 13 39  1  1
 17 40  1  0
M  END
>  <filename_input>  (15) 
7RSV_7IQ_docked.sdf

>  <pdb_id>  (15) 
7RSV_7IQ

>  <pose_rank>  (15) 
14

>  <num_atoms_heavy>  (15) 
20

>  <num_torsions>  (15) 
0

>  <pose>  (15) 
[3.463142813913253, -38.70597645551759, 7.060988401832633, 2.3983405761350935, -2.1542184679223144, -0.46664395518321894]

>  <energy>  (15) 
-419.47319568516014

>  <inter_energy>  (15) 
-426.33635016246524

>  <intra_energy>  (15) 
0.0

>  <rmsd>  (15) 
6.58581

>  <sdf_rank>  (15) 
0

$$$$

     RDKit          3D

 40 43  0  0  0  0  0  0  0  0999 V2000
    5.9168  -39.2936    5.8417 C   0  0  0  0  0  0  0  0  0  0  0  0
    0.1362  -36.3380    2.4982 C   0  0  2  0  0  0  0  0  0  0  0  0
    4.8112  -37.5906    7.0905 C   0  0  0  0  0  0  0  0  0  0  0  0
    1.9079  -38.0233    1.9511 C   0  0  0  0  0  0  0  0  0  0  0  0
    3.6213  -37.6142    6.1300 C   0  0  0  0  0  0  0  0  0  0  0  0
    3.0940  -37.9316    3.8300 C   0  0  0  0  0  0  0  0  0  0  0  0
    3.0116  -38.5428    2.5685 C   0  0  0  0  0  0  0  0  0  0  0  0
    3.8259  -40.5446    5.2736 C   0  0  0  0  0  0  0  0  0  0  0  0
   -0.8069  -36.2688    3.7233 C   0  0  0  0  0  0  0  0  0  0  0  0
   -1.9670  -37.2439    3.4220 C   0  0  0  0  0  0  0  0  0  0  0  0
   -1.6531  -37.9107    2.0756 C   0  0  0  0  0  0  0  0  0  0  0  0
   -0.6756  -36.9564    1.3456 C   0  0  2  0  0  0  0  0  0  0  0  0
    4.7643  -39.4098    4.8445 C   0  0  1  0  0  0  0  0  0  0  0  0
    1.3205  -38.2773    0.6266 C   0  0  0  0  0  0  0  0  0  0  0  0
    1.3288  -37.1152    2.8121 N   0  0  0  0  0  0  0  0  0  0  0  0
    2.0965  -37.0900    3.9619 N   0  0  0  0  0  0  0  0  0  0  0  0
    0.1044  -37.7383    0.3938 N   0  0  0  0  0  0  0  0  0  0  0  0
    4.0579  -38.1203    4.8231 N   0  0  0  0  0  0  0  0  0  0  0  0
    1.8997  -38.9306   -0.2228 O   0  0  0  0  0  0  0  0  0  0  0  0
    5.3898  -38.8991    7.1098 O   0  0  0  0  0  0  0  0  0  0  0  0
    6.4223  -40.2658    5.9375 H   0  0  0  0  0  0  0  0  0  0  0  0
    6.6423  -38.5456    5.4892 H   0  0  0  0  0  0  0  0  0  0  0  0
    0.4939  -35.3389    2.2084 H   0  0  0  0  0  0  0  0  0  0  0  0
    5.5556  -36.8583    6.7447 H   0  0  0  0  0  0  0  0  0  0  0  0
    4.4819  -37.3034    8.1000 H   0  0  0  0  0  0  0  0  0  0  0  0
    2.8368  -38.2709    6.5342 H   0  0  0  0  0  0  0  0  0  0  0  0
    3.2230  -36.5955    6.0145 H   0  0  0  0  0  0  0  0  0  0  0  0
    3.7015  -39.2942    2.1568 H   0  0  0  0  0  0  0  0  0  0  0  0
    3.7865  -40.5922    6.3719 H   0  0  0  0  0  0  0  0  0  0  0  0
    2.8170  -40.3554    4.8784 H   0  0  0  0  0  0  0  0  0  0  0  0
    4.2013  -41.5000    4.8784 H   0  0  0  0  0  0  0  0  0  0  0  0
   -0.2738  -36.5786    4.6342 H   0  0  0  0  0  0  0  0  0  0  0  0
   -1.1737  -35.2457    3.8925 H   0  0  0  0  0  0  0  0  0  0  0  0
   -2.0364  -38.0047    4.2135 H   0  0  0  0  0  0  0  0  0  0  0  0
   -2.9282  -36.7106    3.3819 H   0  0  0  0  0  0  0  0  0  0  0  0
   -1.1820  -38.8918    2.2353 H   0  0  0  0  0  0  0  0  0  0  0  0
   -2.5666  -38.0801    1.4867 H   0  0  0  0  0  0  0  0  0  0  0  0
   -1.1339  -36.1585    0.7428 H   0  0  0  0  0  0  0  0  0  0  0  0
    5.1359  -39.6440    3.8360 H   0  0  0  0  0  0  0  0  0  0  0  0
   -0.3080  -37.8931   -0.5372 H   0  0  0  0  0  0  0  0  0  0  0  0
  1 13  1  0
  1 20  1  0
  2  9  1  0
  2 12  1  0
  2 15  1  0
  3  5  1  0
  3 20  1  0
  4  7  2  0
  4 14  1  0
  4 15  1  0
  5 18  1  0
  6  7  1  0
  6 16  2  0
  6 18  1  0
 13  8  1  0
  9 10  1  0
 10 11  1  0
 12 11  1  0
 12 17  1  0
 13 18  1  0
 14 17  1  0
 14 19  2  0
 15 16  1  0
  1 21  1  0
  1 22  1  0
  2 23  1  6
  3 24  1  0
  3 25  1  0
  5 26  1  0
  5 27  1  0
  7 28  1  0
  8 29  1  0
  8 30  1  0
  8 31  1  0
  9 32  1  0
  9 33  1  0
 10 34  1  0
 10 35  1  0
 11 36  1  0
 11 37  1  0
 12 38  1  6
 13 39  1  6
 17 40  1  0
M  END
>  <filename_input>  (16) 
7RSV_7IQ_docked.sdf

>  <pdb_id>  (16) 
7RSV_7IQ

>  <pose_rank>  (16) 
15

>  <num_atoms_heavy>  (16) 
20

>  <num_torsions>  (16) 
0

>  <pose>  (16) 
[5.916762308331808, -39.29356391669364, 5.841673720644921, -1.5845556352149965, -0.9201537151746622, 0.9723818851357223]

>  <energy>  (16) 
-381.0986323039677

>  <inter_energy>  (16) 
-386.67673826481195

>  <intra_energy>  (16) 
0.0

>  <rmsd>  (16) 
6.64719

>  <sdf_rank>  (16) 
0

$$$$

     RDKit          3D

 40 43  0  0  0  0  0  0  0  0999 V2000
    6.4209  -45.0045    8.7428 C   0  0  0  0  0  0  0  0  0  0  0  0
    4.9810  -39.0907    4.7077 C   0  0  2  0  0  0  0  0  0  0  0  0
    7.4690  -43.0038    9.5046 C   0  0  0  0  0  0  0  0  0  0  0  0
    4.4567  -41.5395    4.6248 C   0  0  0  0  0  0  0  0  0  0  0  0
    6.6014  -42.1566    8.5729 C   0  0  0  0  0  0  0  0  0  0  0  0
    5.5716  -42.2143    6.4269 C   0  0  0  0  0  0  0  0  0  0  0  0
    4.7636  -42.6483    5.3636 C   0  0  0  0  0  0  0  0  0  0  0  0
    4.1493  -43.9852    8.4978 C   0  0  0  0  0  0  0  0  0  0  0  0
    4.7840  -38.0841    5.8666 C   0  0  0  0  0  0  0  0  0  0  0  0
    3.2982  -37.6633    5.8161 C   0  0  0  0  0  0  0  0  0  0  0  0
    2.6421  -38.4716    4.6880 C   0  0  0  0  0  0  0  0  0  0  0  0
    3.7943  -38.8999    3.7457 C   0  0  2  0  0  0  0  0  0  0  0  0
    5.4904  -44.2424    7.7995 C   0  0  1  0  0  0  0  0  0  0  0  0
    3.6519  -41.3717    3.4051 C   0  0  0  0  0  0  0  0  0  0  0  0
    5.0626  -40.4530    5.2198 N   0  0  0  0  0  0  0  0  0  0  0  0
    5.7424  -40.9173    6.3307 N   0  0  0  0  0  0  0  0  0  0  0  0
    3.3810  -40.1024    3.0323 N   0  0  0  0  0  0  0  0  0  0  0  0
    6.1509  -42.9780    7.4428 N   0  0  0  0  0  0  0  0  0  0  0  0
    3.2557  -42.3234    2.7561 O   0  0  0  0  0  0  0  0  0  0  0  0
    6.7233  -44.1711    9.8632 O   0  0  0  0  0  0  0  0  0  0  0  0
    5.9250  -45.9235    9.0886 H   0  0  0  0  0  0  0  0  0  0  0  0
    7.3482  -45.2741    8.2161 H   0  0  0  0  0  0  0  0  0  0  0  0
    5.9261  -38.9109    4.1744 H   0  0  0  0  0  0  0  0  0  0  0  0
    8.3954  -43.2965    8.9886 H   0  0  0  0  0  0  0  0  0  0  0  0
    7.7369  -42.4301   10.4041 H   0  0  0  0  0  0  0  0  0  0  0  0
    5.7271  -41.7821    9.1256 H   0  0  0  0  0  0  0  0  0  0  0  0
    7.1890  -41.3061    8.1969 H   0  0  0  0  0  0  0  0  0  0  0  0
    4.4402  -43.6805    5.1637 H   0  0  0  0  0  0  0  0  0  0  0  0
    4.2923  -44.0126    9.5881 H   0  0  0  0  0  0  0  0  0  0  0  0
    3.7660  -42.9971    8.2030 H   0  0  0  0  0  0  0  0  0  0  0  0
    3.4276  -44.7612    8.2030 H   0  0  0  0  0  0  0  0  0  0  0  0
    5.0137  -38.5612    6.8307 H   0  0  0  0  0  0  0  0  0  0  0  0
    5.4525  -37.2164    5.7650 H   0  0  0  0  0  0  0  0  0  0  0  0
    2.8091  -37.8876    6.7755 H   0  0  0  0  0  0  0  0  0  0  0  0
    3.2016  -36.5830    5.6330 H   0  0  0  0  0  0  0  0  0  0  0  0
    2.1339  -39.3569    5.0976 H   0  0  0  0  0  0  0  0  0  0  0  0
    1.8843  -37.8786    4.1550 H   0  0  0  0  0  0  0  0  0  0  0  0
    4.0670  -38.1855    2.9549 H   0  0  0  0  0  0  0  0  0  0  0  0
    5.2888  -44.8238    6.8877 H   0  0  0  0  0  0  0  0  0  0  0  0
    2.8348  -39.9724    2.1688 H   0  0  0  0  0  0  0  0  0  0  0  0
  1 13  1  0
  1 20  1  0
  2  9  1  0
  2 12  1  0
  2 15  1  0
  3  5  1  0
  3 20  1  0
  4  7  2  0
  4 14  1  0
  4 15  1  0
  5 18  1  0
  6  7  1  0
  6 16  2  0
  6 18  1  0
 13  8  1  0
  9 10  1  0
 10 11  1  0
 12 11  1  0
 12 17  1  0
 13 18  1  0
 14 17  1  0
 14 19  2  0
 15 16  1  0
  1 21  1  0
  1 22  1  0
  2 23  1  6
  3 24  1  0
  3 25  1  0
  5 26  1  0
  5 27  1  0
  7 28  1  0
  8 29  1  0
  8 30  1  0
  8 31  1  0
  9 32  1  0
  9 33  1  0
 10 34  1  0
 10 35  1  0
 11 36  1  0
 11 37  1  0
 12 38  1  6
 13 39  1  6
 17 40  1  0
M  END
>  <filename_input>  (17) 
7RSV_7IQ_docked.sdf

>  <pdb_id>  (17) 
7RSV_7IQ

>  <pose_rank>  (17) 
16

>  <num_atoms_heavy>  (17) 
20

>  <num_torsions>  (17) 
0

>  <pose>  (17) 
[6.420870286233639, -45.004500536940576, 8.742764729466275, -1.843669342790791, 0.1305671021909126, 0.44959669181756656]

>  <energy>  (17) 
-188.85524071784465

>  <inter_energy>  (17) 
-176.3677498520601

>  <intra_energy>  (17) 
0.0

>  <rmsd>  (17) 
9.53215

>  <sdf_rank>  (17) 
0

$$$$

     RDKit          3D

 40 43  0  0  0  0  0  0  0  0999 V2000
    6.2125  -35.2067    7.8318 C   0  0  0  0  0  0  0  0  0  0  0  0
    1.0781  -37.1997    3.0366 C   0  0  2  0  0  0  0  0  0  0  0  0
    4.1569  -34.0157    8.0262 C   0  0  0  0  0  0  0  0  0  0  0  0
    3.4736  -37.7690    3.5011 C   0  0  0  0  0  0  0  0  0  0  0  0
    3.4555  -35.0118    7.1018 C   0  0  0  0  0  0  0  0  0  0  0  0
    3.8577  -36.3826    5.1971 C   0  0  0  0  0  0  0  0  0  0  0  0
    4.4413  -37.3618    4.3771 C   0  0  0  0  0  0  0  0  0  0  0  0
    5.1510  -37.4712    7.7641 C   0  0  0  0  0  0  0  0  0  0  0  0
   -0.1319  -37.1867    4.0013 C   0  0  0  0  0  0  0  0  0  0  0  0
   -0.6047  -38.6536    4.1098 C   0  0  0  0  0  0  0  0  0  0  0  0
    0.3653  -39.4996    3.2733 C   0  0  0  0  0  0  0  0  0  0  0  0
    1.0121  -38.5257    2.2573 C   0  0  2  0  0  0  0  0  0  0  0  0
    5.5939  -36.2680    6.9224 C   0  0  1  0  0  0  0  0  0  0  0  0
    3.4951  -38.7615    2.4157 C   0  0  0  0  0  0  0  0  0  0  0  0
    2.3258  -37.0561    3.7765 N   0  0  0  0  0  0  0  0  0  0  0  0
    2.6096  -36.2096    4.8323 N   0  0  0  0  0  0  0  0  0  0  0  0
    2.3044  -39.0701    1.8584 N   0  0  0  0  0  0  0  0  0  0  0  0
    4.4484  -35.6557    6.2332 N   0  0  0  0  0  0  0  0  0  0  0  0
    4.5302  -39.2743    2.0292 O   0  0  0  0  0  0  0  0  0  0  0  0
    5.2028  -34.7103    8.7124 O   0  0  0  0  0  0  0  0  0  0  0  0
    7.0285  -35.6531    8.4191 H   0  0  0  0  0  0  0  0  0  0  0  0
    6.6168  -34.3834    7.2246 H   0  0  0  0  0  0  0  0  0  0  0  0
    1.0432  -36.3529    2.3353 H   0  0  0  0  0  0  0  0  0  0  0  0
    4.5819  -33.1920    7.4338 H   0  0  0  0  0  0  0  0  0  0  0  0
    3.4411  -33.5939    8.7472 H   0  0  0  0  0  0  0  0  0  0  0  0
    2.9459  -35.7768    7.7061 H   0  0  0  0  0  0  0  0  0  0  0  0
    2.7166  -34.4810    6.4836 H   0  0  0  0  0  0  0  0  0  0  0  0
    5.4765  -37.7300    4.4293 H   0  0  0  0  0  0  0  0  0  0  0  0
    5.2418  -37.2247    8.8323 H   0  0  0  0  0  0  0  0  0  0  0  0
    4.1040  -37.7157    7.5319 H   0  0  0  0  0  0  0  0  0  0  0  0
    5.7898  -38.3362    7.5319 H   0  0  0  0  0  0  0  0  0  0  0  0
    0.1706  -36.8084    4.9889 H   0  0  0  0  0  0  0  0  0  0  0  0
   -0.9342  -36.5305    3.6330 H   0  0  0  0  0  0  0  0  0  0  0  0
   -0.5830  -38.9810    5.1597 H   0  0  0  0  0  0  0  0  0  0  0  0
   -1.6365  -38.7620    3.7442 H   0  0  0  0  0  0  0  0  0  0  0  0
    1.1360  -39.9471    3.9180 H   0  0  0  0  0  0  0  0  0  0  0  0
   -0.1545  -40.3255    2.7657 H   0  0  0  0  0  0  0  0  0  0  0  0
    0.4682  -38.3761    1.3129 H   0  0  0  0  0  0  0  0  0  0  0  0
    6.3225  -36.6266    6.1804 H   0  0  0  0  0  0  0  0  0  0  0  0
    2.3097  -39.7493    1.0841 H   0  0  0  0  0  0  0  0  0  0  0  0
  1 13  1  0
  1 20  1  0
  2  9  1  0
  2 12  1  0
  2 15  1  0
  3  5  1  0
  3 20  1  0
  4  7  2  0
  4 14  1  0
  4 15  1  0
  5 18  1  0
  6  7  1  0
  6 16  2  0
  6 18  1  0
 13  8  1  0
  9 10  1  0
 10 11  1  0
 12 11  1  0
 12 17  1  0
 13 18  1  0
 14 17  1  0
 14 19  2  0
 15 16  1  0
  1 21  1  0
  1 22  1  0
  2 23  1  6
  3 24  1  0
  3 25  1  0
  5 26  1  0
  5 27  1  0
  7 28  1  0
  8 29  1  0
  8 30  1  0
  8 31  1  0
  9 32  1  0
  9 33  1  0
 10 34  1  0
 10 35  1  0
 11 36  1  0
 11 37  1  0
 12 38  1  6
 13 39  1  6
 17 40  1  0
M  END
>  <filename_input>  (18) 
7RSV_7IQ_docked.sdf

>  <pdb_id>  (18) 
7RSV_7IQ

>  <pose_rank>  (18) 
17

>  <num_atoms_heavy>  (18) 
20

>  <num_torsions>  (18) 
0

>  <pose>  (18) 
[6.21252257955658, -35.20672504847653, 7.8318390201074, -1.9022063970983196, -1.3705624105971128, 1.4792975147391754]

>  <energy>  (18) 
-385.1253797105522

>  <inter_energy>  (18) 
-375.33328714346976

>  <intra_energy>  (18) 
0.0

>  <rmsd>  (18) 
8.3401

>  <sdf_rank>  (18) 
0

$$$$

     RDKit          3D

 40 43  0  0  0  0  0  0  0  0999 V2000
   -6.6789  -46.8376    1.8674 C   0  0  0  0  0  0  0  0  0  0  0  0
   -6.7606  -46.7976    9.1695 C   0  0  2  0  0  0  0  0  0  0  0  0
   -5.3772  -48.5564    2.8841 C   0  0  0  0  0  0  0  0  0  0  0  0
   -7.6800  -45.3824    7.3174 C   0  0  0  0  0  0  0  0  0  0  0  0
   -6.0089  -48.2722    4.2476 C   0  0  0  0  0  0  0  0  0  0  0  0
   -6.8496  -46.4801    5.5705 C   0  0  0  0  0  0  0  0  0  0  0  0
   -7.6268  -45.3742    5.9512 C   0  0  0  0  0  0  0  0  0  0  0  0
   -8.7182  -47.2535    3.2558 C   0  0  0  0  0  0  0  0  0  0  0  0
   -6.8823  -48.3245    9.3902 C   0  0  0  0  0  0  0  0  0  0  0  0
   -8.2668  -48.5513   10.0376 C   0  0  0  0  0  0  0  0  0  0  0  0
   -8.9521  -47.1803   10.1206 C   0  0  0  0  0  0  0  0  0  0  0  0
   -7.8132  -46.1316   10.0742 C   0  0  2  0  0  0  0  0  0  0  0  0
   -7.3855  -46.4982    3.1796 C   0  0  1  0  0  0  0  0  0  0  0  0
   -8.3398  -44.4803    8.2736 C   0  0  0  0  0  0  0  0  0  0  0  0
   -6.9523  -46.4656    7.7632 N   0  0  0  0  0  0  0  0  0  0  0  0
   -6.4560  -47.1157    6.6483 N   0  0  0  0  0  0  0  0  0  0  0  0
   -8.3613  -44.8810    9.5630 N   0  0  0  0  0  0  0  0  0  0  0  0
   -6.4944  -46.8873    4.2826 N   0  0  0  0  0  0  0  0  0  0  0  0
   -8.8343  -43.4220    7.9283 O   0  0  0  0  0  0  0  0  0  0  0  0
   -6.3360  -48.2246    1.8751 O   0  0  0  0  0  0  0  0  0  0  0  0
   -7.3493  -46.6271    1.0212 H   0  0  0  0  0  0  0  0  0  0  0  0
   -5.7691  -46.2280    1.7641 H   0  0  0  0  0  0  0  0  0  0  0  0
   -5.7573  -46.4314    9.4327 H   0  0  0  0  0  0  0  0  0  0  0  0
   -4.4732  -47.9428    2.7563 H   0  0  0  0  0  0  0  0  0  0  0  0
   -5.0933  -49.6164    2.8078 H   0  0  0  0  0  0  0  0  0  0  0  0
   -6.8511  -48.9604    4.4122 H   0  0  0  0  0  0  0  0  0  0  0  0
   -5.2572  -48.4175    5.0375 H   0  0  0  0  0  0  0  0  0  0  0  0
   -8.1011  -44.6429    5.2801 H   0  0  0  0  0  0  0  0  0  0  0  0
   -8.9920  -47.4086    4.3098 H   0  0  0  0  0  0  0  0  0  0  0  0
   -9.5020  -46.6653    2.7561 H   0  0  0  0  0  0  0  0  0  0  0  0
   -8.6164  -48.2281    2.7561 H   0  0  0  0  0  0  0  0  0  0  0  0
   -6.8178  -48.8561    8.4294 H   0  0  0  0  0  0  0  0  0  0  0  0
   -6.0714  -48.7056   10.0284 H   0  0  0  0  0  0  0  0  0  0  0  0
   -8.8655  -49.2363    9.4193 H   0  0  0  0  0  0  0  0  0  0  0  0
   -8.1647  -49.0008   11.0364 H   0  0  0  0  0  0  0  0  0  0  0  0
   -9.6345  -47.0418    9.2690 H   0  0  0  0  0  0  0  0  0  0  0  0
   -9.5520  -47.0841   11.0375 H   0  0  0  0  0  0  0  0  0  0  0  0
   -7.3589  -45.8639   11.0396 H   0  0  0  0  0  0  0  0  0  0  0  0
   -7.6045  -45.4221    3.2440 H   0  0  0  0  0  0  0  0  0  0  0  0
   -8.8034  -44.2480   10.2448 H   0  0  0  0  0  0  0  0  0  0  0  0
  1 13  1  0
  1 20  1  0
  2  9  1  0
  2 12  1  0
  2 15  1  0
  3  5  1  0
  3 20  1  0
  4  7  2  0
  4 14  1  0
  4 15  1  0
  5 18  1  0
  6  7  1  0
  6 16  2  0
  6 18  1  0
 13  8  1  0
  9 10  1  0
 10 11  1  0
 12 11  1  0
 12 17  1  0
 13 18  1  0
 14 17  1  0
 14 19  2  0
 15 16  1  0
  1 21  1  0
  1 22  1  0
  2 23  1  1
  3 24  1  0
  3 25  1  0
  5 26  1  0
  5 27  1  0
  7 28  1  0
  8 29  1  0
  8 30  1  0
  8 31  1  0
  9 32  1  0
  9 33  1  0
 10 34  1  0
 10 35  1  0
 11 36  1  0
 11 37  1  0
 12 38  1  1
 13 39  1  6
 17 40  1  0
M  END
>  <filename_input>  (19) 
7RSV_7IQ_docked.sdf

>  <pdb_id>  (19) 
7RSV_7IQ

>  <pose_rank>  (19) 
18

>  <num_atoms_heavy>  (19) 
20

>  <num_torsions>  (19) 
0

>  <pose>  (19) 
[-6.67885912007737, -46.83761538434719, 1.86744829286395, -4.255569433594321, 1.3820050154380907, -3.7731937417698154]

>  <energy>  (19) 
-115.96989297860188

>  <inter_energy>  (19) 
-100.81830796831478

>  <intra_energy>  (19) 
0.0

>  <rmsd>  (19) 
13.2751

>  <sdf_rank>  (19) 
0

$$$$

     RDKit          3D

 40 43  0  0  0  0  0  0  0  0999 V2000
    2.1752  -34.7106   -8.0223 C   0  0  0  0  0  0  0  0  0  0  0  0
    9.3019  -33.1188   -8.0899 C   0  0  2  0  0  0  0  0  0  0  0  0
    2.8257  -33.1406   -9.6938 C   0  0  0  0  0  0  0  0  0  0  0  0
    7.7435  -34.4958   -6.6922 C   0  0  0  0  0  0  0  0  0  0  0  0
    4.3039  -33.4543   -9.4584 C   0  0  0  0  0  0  0  0  0  0  0  0
    5.8271  -34.0431   -7.7257 C   0  0  0  0  0  0  0  0  0  0  0  0
    6.4018  -34.7575   -6.6621 C   0  0  0  0  0  0  0  0  0  0  0  0
    3.9818  -36.3586   -8.5509 C   0  0  0  0  0  0  0  0  0  0  0  0
    9.5073  -33.1234   -9.6237 C   0  0  0  0  0  0  0  0  0  0  0  0
   10.4479  -34.3121   -9.9230 C   0  0  0  0  0  0  0  0  0  0  0  0
   10.7184  -35.0163   -8.5862 C   0  0  0  0  0  0  0  0  0  0  0  0
   10.4389  -33.9628   -7.4858 C   0  0  2  0  0  0  0  0  0  0  0  0
    3.6218  -35.1112   -7.7343 C   0  0  1  0  0  0  0  0  0  0  0  0
    8.8468  -34.9558   -5.8349 C   0  0  0  0  0  0  0  0  0  0  0  0
    7.9849  -33.6412   -7.7471 N   0  0  0  0  0  0  0  0  0  0  0  0
    6.7707  -33.3870   -8.3578 N   0  0  0  0  0  0  0  0  0  0  0  0
   10.0969  -34.6647   -6.2545 N   0  0  0  0  0  0  0  0  0  0  0  0
    4.4825  -33.9758   -8.0978 N   0  0  0  0  0  0  0  0  0  0  0  0
    8.6493  -35.5596   -4.7956 O   0  0  0  0  0  0  0  0  0  0  0  0
    2.0706  -34.3179   -9.3921 O   0  0  0  0  0  0  0  0  0  0  0  0
    1.5097  -35.5652   -7.8308 H   0  0  0  0  0  0  0  0  0  0  0  0
    1.8817  -33.8747   -7.3702 H   0  0  0  0  0  0  0  0  0  0  0  0
    9.3379  -32.0979   -7.6818 H   0  0  0  0  0  0  0  0  0  0  0  0
    2.5099  -32.3162   -9.0377 H   0  0  0  0  0  0  0  0  0  0  0  0
    2.6609  -32.8381  -10.7385 H   0  0  0  0  0  0  0  0  0  0  0  0
    4.6396  -34.2072  -10.1867 H   0  0  0  0  0  0  0  0  0  0  0  0
    4.8976  -32.5363   -9.5802 H   0  0  0  0  0  0  0  0  0  0  0  0
    5.8748  -35.4027   -5.9439 H   0  0  0  0  0  0  0  0  0  0  0  0
    4.2210  -37.1873   -7.8683 H   0  0  0  0  0  0  0  0  0  0  0  0
    3.1284  -36.6406   -9.1851 H   0  0  0  0  0  0  0  0  0  0  0  0
    4.8542  -36.1425   -9.1851 H   0  0  0  0  0  0  0  0  0  0  0  0
    8.5444  -33.2588  -10.1381 H   0  0  0  0  0  0  0  0  0  0  0  0
    9.9341  -32.1728   -9.9763 H   0  0  0  0  0  0  0  0  0  0  0  0
    9.9661  -35.0076  -10.6259 H   0  0  0  0  0  0  0  0  0  0  0  0
   11.3857  -33.9654  -10.3815 H   0  0  0  0  0  0  0  0  0  0  0  0
   10.0487  -35.8808   -8.4670 H   0  0  0  0  0  0  0  0  0  0  0  0
   11.7502  -35.3937   -8.5306 H   0  0  0  0  0  0  0  0  0  0  0  0
   11.2813  -33.3109   -7.2113 H   0  0  0  0  0  0  0  0  0  0  0  0
    3.7607  -35.3541   -6.6705 H   0  0  0  0  0  0  0  0  0  0  0  0
   10.8767  -34.9647   -5.6522 H   0  0  0  0  0  0  0  0  0  0  0  0
  1 13  1  0
  1 20  1  0
  2  9  1  0
  2 12  1  0
  2 15  1  0
  3  5  1  0
  3 20  1  0
  4  7  2  0
  4 14  1  0
  4 15  1  0
  5 18  1  0
  6  7  1  0
  6 16  2  0
  6 18  1  0
 13  8  1  0
  9 10  1  0
 10 11  1  0
 12 11  1  0
 12 17  1  0
 13 18  1  0
 14 17  1  0
 14 19  2  0
 15 16  1  0
  1 21  1  0
  1 22  1  0
  2 23  1  1
  3 24  1  0
  3 25  1  0
  5 26  1  0
  5 27  1  0
  7 28  1  0
  8 29  1  0
  8 30  1  0
  8 31  1  0
  9 32  1  0
  9 33  1  0
 10 34  1  0
 10 35  1  0
 11 36  1  0
 11 37  1  0
 12 38  1  1
 13 39  1  1
 17 40  1  0
M  END
>  <filename_input>  (20) 
7RSV_7IQ_docked.sdf

>  <pdb_id>  (20) 
7RSV_7IQ

>  <pose_rank>  (20) 
19

>  <num_atoms_heavy>  (20) 
20

>  <num_torsions>  (20) 
0

>  <pose>  (20) 
[2.1751567653707657, -34.71058638374349, -8.022291358544011, -2.3986165290785015, -2.104418857233192, -1.944946043387483]

>  <energy>  (20) 
-113.89549581390706

>  <inter_energy>  (20) 
-74.07352056319476

>  <intra_energy>  (20) 
0.0

>  <rmsd>  (20) 
11.7519

>  <sdf_rank>  (20) 
0

$$$$

     RDKit          3D

 40 43  0  0  0  0  0  0  0  0999 V2000
    3.5673  -32.6996  -10.1234 C   0  0  0  0  0  0  0  0  0  0  0  0
    9.2324  -32.3563   -5.5281 C   0  0  2  0  0  0  0  0  0  0  0  0
    3.3178  -34.0001   -8.1414 C   0  0  0  0  0  0  0  0  0  0  0  0
    8.6596  -31.4740   -7.8022 C   0  0  0  0  0  0  0  0  0  0  0  0
    4.5256  -33.3143   -7.5012 C   0  0  0  0  0  0  0  0  0  0  0  0
    6.6485  -32.3892   -8.0547 C   0  0  0  0  0  0  0  0  0  0  0  0
    7.6111  -31.5757   -8.6739 C   0  0  0  0  0  0  0  0  0  0  0  0
    4.2932  -30.6212   -8.9348 C   0  0  0  0  0  0  0  0  0  0  0  0
    8.4310  -32.2591   -4.2077 C   0  0  0  0  0  0  0  0  0  0  0  0
    8.7309  -30.8576   -3.6308 C   0  0  0  0  0  0  0  0  0  0  0  0
    9.6351  -30.1408   -4.6431 C   0  0  0  0  0  0  0  0  0  0  0  0
   10.3102  -31.2582   -5.4767 C   0  0  2  0  0  0  0  0  0  0  0  0
    4.7673  -31.9395   -9.5590 C   0  0  1  0  0  0  0  0  0  0  0  0
    9.9429  -30.7615   -7.8983 C   0  0  0  0  0  0  0  0  0  0  0  0
    8.3480  -32.2080   -6.6772 N   0  0  0  0  0  0  0  0  0  0  0  0
    7.0951  -32.7575   -6.8776 N   0  0  0  0  0  0  0  0  0  0  0  0
   10.6847  -30.7024   -6.7715 N   0  0  0  0  0  0  0  0  0  0  0  0
    5.4098  -32.7987   -8.5535 N   0  0  0  0  0  0  0  0  0  0  0  0
   10.3259  -30.2574   -8.9390 O   0  0  0  0  0  0  0  0  0  0  0  0
    2.7088  -33.0712   -9.0434 O   0  0  0  0  0  0  0  0  0  0  0  0
    3.0191  -32.0554  -10.8266 H   0  0  0  0  0  0  0  0  0  0  0  0
    3.9108  -33.5994  -10.6547 H   0  0  0  0  0  0  0  0  0  0  0  0
    9.7089  -33.3416   -5.6383 H   0  0  0  0  0  0  0  0  0  0  0  0
    3.6447  -34.8949   -8.6914 H   0  0  0  0  0  0  0  0  0  0  0  0
    2.5992  -34.3089   -7.3679 H   0  0  0  0  0  0  0  0  0  0  0  0
    4.1824  -32.4815   -6.8698 H   0  0  0  0  0  0  0  0  0  0  0  0
    5.0749  -34.0402   -6.8837 H   0  0  0  0  0  0  0  0  0  0  0  0
    7.5362  -31.1103   -9.6678 H   0  0  0  0  0  0  0  0  0  0  0  0
    4.3227  -30.7032   -7.8382 H   0  0  0  0  0  0  0  0  0  0  0  0
    4.9536  -29.8035   -9.2592 H   0  0  0  0  0  0  0  0  0  0  0  0
    3.2633  -30.4114   -9.2592 H   0  0  0  0  0  0  0  0  0  0  0  0
    7.3544  -32.3691   -4.4049 H   0  0  0  0  0  0  0  0  0  0  0  0
    8.7161  -33.0546   -3.5035 H   0  0  0  0  0  0  0  0  0  0  0  0
    7.7946  -30.2959   -3.4964 H   0  0  0  0  0  0  0  0  0  0  0  0
    9.2223  -30.9333   -2.6496 H   0  0  0  0  0  0  0  0  0  0  0  0
    9.0368  -29.4865   -5.2942 H   0  0  0  0  0  0  0  0  0  0  0  0
   10.3801  -29.5067   -4.1403 H   0  0  0  0  0  0  0  0  0  0  0  0
   11.2444  -31.6720   -5.0692 H   0  0  0  0  0  0  0  0  0  0  0  0
    5.4896  -31.6956  -10.3520 H   0  0  0  0  0  0  0  0  0  0  0  0
   11.5942  -30.2230   -6.8320 H   0  0  0  0  0  0  0  0  0  0  0  0
  1 13  1  0
  1 20  1  0
  2  9  1  0
  2 12  1  0
  2 15  1  0
  3  5  1  0
  3 20  1  0
  4  7  2  0
  4 14  1  0
  4 15  1  0
  5 18  1  0
  6  7  1  0
  6 16  2  0
  6 18  1  0
 13  8  1  0
  9 10  1  0
 10 11  1  0
 12 11  1  0
 12 17  1  0
 13 18  1  0
 14 17  1  0
 14 19  2  0
 15 16  1  0
  1 21  1  0
  1 22  1  0
  2 23  1  6
  3 24  1  0
  3 25  1  0
  5 26  1  0
  5 27  1  0
  7 28  1  0
  8 29  1  0
  8 30  1  0
  8 31  1  0
  9 32  1  0
  9 33  1  0
 10 34  1  0
 10 35  1  0
 11 36  1  0
 11 37  1  0
 12 38  1  1
 13 39  1  6
 17 40  1  0
M  END
>  <filename_input>  (21) 
7RSV_7IQ_docked.sdf

>  <pdb_id>  (21) 
7RSV_7IQ

>  <pose_rank>  (21) 
20

>  <num_atoms_heavy>  (21) 
20

>  <num_torsions>  (21) 
0

>  <pose>  (21) 
[3.5672650459255926, -32.69955442635057, -10.123376187459137, 1.5478667313418495, -1.6005135924602698, 4.419136161390392]

>  <energy>  (21) 
-97.30728968632316

>  <inter_energy>  (21) 
-95.96800680354724

>  <intra_energy>  (21) 
0.0

>  <rmsd>  (21) 
12.1962

>  <sdf_rank>  (21) 
0

$$$$

     RDKit          3D

 40 43  0  0  0  0  0  0  0  0999 V2000
    5.7510  -44.1178   -9.7685 C   0  0  0  0  0  0  0  0  0  0  0  0
   10.3350  -47.2826   -5.0463 C   0  0  2  0  0  0  0  0  0  0  0  0
    5.9837  -46.4746  -10.0390 C   0  0  0  0  0  0  0  0  0  0  0  0
    9.5782  -44.9563   -5.5887 C   0  0  0  0  0  0  0  0  0  0  0  0
    6.7074  -46.5893   -8.6966 C   0  0  0  0  0  0  0  0  0  0  0  0
    8.2170  -45.4010   -7.2902 C   0  0  0  0  0  0  0  0  0  0  0  0
    8.7484  -44.3675   -6.5020 C   0  0  0  0  0  0  0  0  0  0  0  0
    5.3819  -44.2138   -7.2959 C   0  0  0  0  0  0  0  0  0  0  0  0
    9.4903  -48.5426   -4.7403 C   0  0  0  0  0  0  0  0  0  0  0  0
    9.0874  -48.4331   -3.2527 C   0  0  0  0  0  0  0  0  0  0  0  0
    9.6365  -47.0955   -2.7375 C   0  0  0  0  0  0  0  0  0  0  0  0
   10.7962  -46.7157   -3.6913 C   0  0  2  0  0  0  0  0  0  0  0  0
    6.4394  -44.1346   -8.4040 C   0  0  1  0  0  0  0  0  0  0  0  0
   10.4059  -44.3881   -4.5136 C   0  0  0  0  0  0  0  0  0  0  0  0
    9.5570  -46.3169   -5.8123 N   0  0  0  0  0  0  0  0  0  0  0  0
    8.7025  -46.5466   -6.8749 N   0  0  0  0  0  0  0  0  0  0  0  0
   10.9650  -45.2680   -3.6552 N   0  0  0  0  0  0  0  0  0  0  0  0
    7.3320  -45.3026   -8.3662 N   0  0  0  0  0  0  0  0  0  0  0  0
   10.5887  -43.1888   -4.4038 O   0  0  0  0  0  0  0  0  0  0  0  0
    5.0827  -45.3657   -9.9620 O   0  0  0  0  0  0  0  0  0  0  0  0
    5.0194  -43.2972   -9.8035 H   0  0  0  0  0  0  0  0  0  0  0  0
    6.4976  -43.9664  -10.5621 H   0  0  0  0  0  0  0  0  0  0  0  0
   11.2106  -47.5256   -5.6664 H   0  0  0  0  0  0  0  0  0  0  0  0
    6.7144  -46.3068  -10.8439 H   0  0  0  0  0  0  0  0  0  0  0  0
    5.4319  -47.4011  -10.2561 H   0  0  0  0  0  0  0  0  0  0  0  0
    5.9848  -46.8583   -7.9122 H   0  0  0  0  0  0  0  0  0  0  0  0
    7.4826  -47.3669   -8.7631 H   0  0  0  0  0  0  0  0  0  0  0  0
    8.5379  -43.2923   -6.6003 H   0  0  0  0  0  0  0  0  0  0  0  0
    5.8762  -44.1768   -6.3140 H   0  0  0  0  0  0  0  0  0  0  0  0
    4.6884  -43.3650   -7.3896 H   0  0  0  0  0  0  0  0  0  0  0  0
    4.8225  -45.1563   -7.3896 H   0  0  0  0  0  0  0  0  0  0  0  0
    8.5945  -48.5666   -5.3783 H   0  0  0  0  0  0  0  0  0  0  0  0
   10.0559  -49.4651   -4.9380 H   0  0  0  0  0  0  0  0  0  0  0  0
    7.9919  -48.4547   -3.1553 H   0  0  0  0  0  0  0  0  0  0  0  0
    9.4939  -49.2745   -2.6724 H   0  0  0  0  0  0  0  0  0  0  0  0
    8.8521  -46.3247   -2.7633 H   0  0  0  0  0  0  0  0  0  0  0  0
    9.9806  -47.1751   -1.6957 H   0  0  0  0  0  0  0  0  0  0  0  0
   11.7874  -47.1192   -3.4367 H   0  0  0  0  0  0  0  0  0  0  0  0
    7.0250  -43.2171   -8.2450 H   0  0  0  0  0  0  0  0  0  0  0  0
   11.5627  -44.8828   -2.9100 H   0  0  0  0  0  0  0  0  0  0  0  0
  1 13  1  0
  1 20  1  0
  2  9  1  0
  2 12  1  0
  2 15  1  0
  3  5  1  0
  3 20  1  0
  4  7  2  0
  4 14  1  0
  4 15  1  0
  5 18  1  0
  6  7  1  0
  6 16  2  0
  6 18  1  0
 13  8  1  0
  9 10  1  0
 10 11  1  0
 12 11  1  0
 12 17  1  0
 13 18  1  0
 14 17  1  0
 14 19  2  0
 15 16  1  0
  1 21  1  0
  1 22  1  0
  2 23  1  6
  3 24  1  0
  3 25  1  0
  5 26  1  0
  5 27  1  0
  7 28  1  0
  8 29  1  0
  8 30  1  0
  8 31  1  0
  9 32  1  0
  9 33  1  0
 10 34  1  0
 10 35  1  0
 11 36  1  0
 11 37  1  0
 12 38  1  1
 13 39  1  1
 17 40  1  0
M  END
>  <filename_input>  (22) 
7RSV_7IQ_docked.sdf

>  <pdb_id>  (22) 
7RSV_7IQ

>  <pose_rank>  (22) 
21

>  <num_atoms_heavy>  (22) 
20

>  <num_torsions>  (22) 
0

>  <pose>  (22) 
[5.751036778948787, -44.11777685014544, -9.768541928448892, -3.1734985314793596, -3.255862959900402, 2.697399792532372]

>  <energy>  (22) 
-98.45605789826122

>  <inter_energy>  (22) 
-70.17167641688498

>  <intra_energy>  (22) 
0.0

>  <rmsd>  (22) 
12.5542

>  <sdf_rank>  (22) 
0

$$$$

     RDKit          3D

 40 43  0  0  0  0  0  0  0  0999 V2000
   -1.7689  -48.5414   -4.3247 C   0  0  0  0  0  0  0  0  0  0  0  0
   -6.5330  -46.7981   -9.5776 C   0  0  2  0  0  0  0  0  0  0  0  0
   -0.7744  -47.8104   -6.3640 C   0  0  0  0  0  0  0  0  0  0  0  0
   -6.6251  -47.7333   -7.2549 C   0  0  0  0  0  0  0  0  0  0  0  0
   -2.1249  -47.3135   -6.8816 C   0  0  0  0  0  0  0  0  0  0  0  0
   -4.4479  -47.8313   -6.8124 C   0  0  0  0  0  0  0  0  0  0  0  0
   -5.7249  -48.0945   -6.2912 C   0  0  0  0  0  0  0  0  0  0  0  0
   -3.3951  -46.6457   -4.1792 C   0  0  0  0  0  0  0  0  0  0  0  0
   -5.8243  -45.5230  -10.0942 C   0  0  0  0  0  0  0  0  0  0  0  0
   -6.7713  -44.3475   -9.7649 C   0  0  0  0  0  0  0  0  0  0  0  0
   -7.9705  -44.9368   -9.0094 C   0  0  0  0  0  0  0  0  0  0  0  0
   -8.0178  -46.4374   -9.3903 C   0  0  2  0  0  0  0  0  0  0  0  0
   -3.1553  -48.0520   -4.7425 C   0  0  1  0  0  0  0  0  0  0  0  0
   -8.0951  -47.7798   -7.2836 C   0  0  0  0  0  0  0  0  0  0  0  0
   -5.9174  -47.2616   -8.3403 N   0  0  0  0  0  0  0  0  0  0  0  0
   -4.5741  -47.3414   -8.0227 N   0  0  0  0  0  0  0  0  0  0  0  0
   -8.6968  -47.1610   -8.3221 N   0  0  0  0  0  0  0  0  0  0  0  0
   -3.2055  -48.0477   -6.2120 N   0  0  0  0  0  0  0  0  0  0  0  0
   -8.7406  -48.3526   -6.4239 O   0  0  0  0  0  0  0  0  0  0  0  0
   -0.7831  -47.7078   -4.9368 O   0  0  0  0  0  0  0  0  0  0  0  0
   -1.6717  -48.4866   -3.2304 H   0  0  0  0  0  0  0  0  0  0  0  0
   -1.6281  -49.5842   -4.6452 H   0  0  0  0  0  0  0  0  0  0  0  0
   -6.4383  -47.6290  -10.2922 H   0  0  0  0  0  0  0  0  0  0  0  0
   -0.6230  -48.8584   -6.6619 H   0  0  0  0  0  0  0  0  0  0  0  0
    0.0423  -47.2062   -6.7856 H   0  0  0  0  0  0  0  0  0  0  0  0
   -2.2259  -46.2388   -6.6700 H   0  0  0  0  0  0  0  0  0  0  0  0
   -2.1857  -47.4807   -7.9671 H   0  0  0  0  0  0  0  0  0  0  0  0
   -5.9563  -48.5108   -5.2997 H   0  0  0  0  0  0  0  0  0  0  0  0
   -3.3884  -46.6850   -3.0799 H   0  0  0  0  0  0  0  0  0  0  0  0
   -2.5991  -45.9708   -4.5269 H   0  0  0  0  0  0  0  0  0  0  0  0
   -4.3698  -46.2728   -4.5269 H   0  0  0  0  0  0  0  0  0  0  0  0
   -4.8582  -45.3898   -9.5855 H   0  0  0  0  0  0  0  0  0  0  0  0
   -5.6185  -45.5850  -11.1730 H   0  0  0  0  0  0  0  0  0  0  0  0
   -6.2531  -43.6097   -9.1347 H   0  0  0  0  0  0  0  0  0  0  0  0
   -7.0976  -43.8367  -10.6828 H   0  0  0  0  0  0  0  0  0  0  0  0
   -7.8327  -44.8219   -7.9242 H   0  0  0  0  0  0  0  0  0  0  0  0
   -8.9064  -44.4235   -9.2750 H   0  0  0  0  0  0  0  0  0  0  0  0
   -8.5804  -46.6906  -10.3010 H   0  0  0  0  0  0  0  0  0  0  0  0
   -3.9429  -48.7110   -4.3481 H   0  0  0  0  0  0  0  0  0  0  0  0
   -9.7251  -47.2039   -8.3631 H   0  0  0  0  0  0  0  0  0  0  0  0
  1 13  1  0
  1 20  1  0
  2  9  1  0
  2 12  1  0
  2 15  1  0
  3  5  1  0
  3 20  1  0
  4  7  2  0
  4 14  1  0
  4 15  1  0
  5 18  1  0
  6  7  1  0
  6 16  2  0
  6 18  1  0
 13  8  1  0
  9 10  1  0
 10 11  1  0
 12 11  1  0
 12 17  1  0
 13 18  1  0
 14 17  1  0
 14 19  2  0
 15 16  1  0
  1 21  1  0
  1 22  1  0
  2 23  1  6
  3 24  1  0
  3 25  1  0
  5 26  1  0
  5 27  1  0
  7 28  1  0
  8 29  1  0
  8 30  1  0
  8 31  1  0
  9 32  1  0
  9 33  1  0
 10 34  1  0
 10 35  1  0
 11 36  1  0
 11 37  1  0
 12 38  1  6
 13 39  1  1
 17 40  1  0
M  END
>  <filename_input>  (23) 
7RSV_7IQ_docked.sdf

>  <pdb_id>  (23) 
7RSV_7IQ

>  <pose_rank>  (23) 
22

>  <num_atoms_heavy>  (23) 
20

>  <num_torsions>  (23) 
0

>  <pose>  (23) 
[-1.7689190767674063, -48.54139597871733, -4.324692583759412, 2.5818024993593403, -1.7314201100383482, -1.1549707365897328]

>  <energy>  (23) 
-28.383473459482147

>  <inter_energy>  (23) 
-22.183478527529918

>  <intra_energy>  (23) 
0.0

>  <rmsd>  (23) 
13.7605

>  <sdf_rank>  (23) 
0

$$$$

     RDKit          3D

 40 43  0  0  0  0  0  0  0  0999 V2000
   -7.7851  -34.4877   -9.2777 C   0  0  0  0  0  0  0  0  0  0  0  0
   -9.2257  -29.6243   -4.0241 C   0  0  2  0  0  0  0  0  0  0  0  0
   -8.0648  -32.2490  -10.0471 C   0  0  0  0  0  0  0  0  0  0  0  0
   -8.9112  -32.1045   -4.1911 C   0  0  0  0  0  0  0  0  0  0  0  0
   -7.9964  -31.7147   -8.6158 C   0  0  0  0  0  0  0  0  0  0  0  0
   -8.6023  -32.2880   -6.3858 C   0  0  0  0  0  0  0  0  0  0  0  0
   -8.6808  -33.0135   -5.1861 C   0  0  0  0  0  0  0  0  0  0  0  0
   -6.2001  -33.8926   -7.4358 C   0  0  0  0  0  0  0  0  0  0  0  0
   -8.3124  -28.4833   -4.5328 C   0  0  0  0  0  0  0  0  0  0  0  0
   -7.2077  -28.3154   -3.4658 C   0  0  0  0  0  0  0  0  0  0  0  0
   -7.4487  -29.3921   -2.3987 C   0  0  0  0  0  0  0  0  0  0  0  0
   -8.9422  -29.7843   -2.5194 C   0  0  2  0  0  0  0  0  0  0  0  0
   -7.6774  -34.0480   -7.8179 C   0  0  1  0  0  0  0  0  0  0  0  0
   -9.0858  -32.2696   -2.7399 C   0  0  0  0  0  0  0  0  0  0  0  0
   -8.9737  -30.8530   -4.7667 N   0  0  0  0  0  0  0  0  0  0  0  0
   -8.7781  -31.0143   -6.1259 N   0  0  0  0  0  0  0  0  0  0  0  0
   -9.1046  -31.1381   -2.0031 N   0  0  0  0  0  0  0  0  0  0  0  0
   -8.3955  -32.7724   -7.6794 N   0  0  0  0  0  0  0  0  0  0  0  0
   -9.2164  -33.3659   -2.2251 O   0  0  0  0  0  0  0  0  0  0  0  0
   -7.2793  -33.4432  -10.1112 O   0  0  0  0  0  0  0  0  0  0  0  0
   -7.1951  -35.4030   -9.4328 H   0  0  0  0  0  0  0  0  0  0  0  0
   -8.8362  -34.6917   -9.5302 H   0  0  0  0  0  0  0  0  0  0  0  0
  -10.2889  -29.3891   -4.1803 H   0  0  0  0  0  0  0  0  0  0  0  0
   -9.1085  -32.4739  -10.3121 H   0  0  0  0  0  0  0  0  0  0  0  0
   -7.6791  -31.4994  -10.7537 H   0  0  0  0  0  0  0  0  0  0  0  0
   -6.9676  -31.3959   -8.3922 H   0  0  0  0  0  0  0  0  0  0  0  0
   -8.6767  -30.8566   -8.5116 H   0  0  0  0  0  0  0  0  0  0  0  0
   -8.5770  -34.1024   -5.0694 H   0  0  0  0  0  0  0  0  0  0  0  0
   -6.1039  -33.8824   -6.3400 H   0  0  0  0  0  0  0  0  0  0  0  0
   -5.6245  -34.7351   -7.8466 H   0  0  0  0  0  0  0  0  0  0  0  0
   -5.8125  -32.9487   -7.8466 H   0  0  0  0  0  0  0  0  0  0  0  0
   -7.8692  -28.7521   -5.5031 H   0  0  0  0  0  0  0  0  0  0  0  0
   -8.8764  -27.5503   -4.6797 H   0  0  0  0  0  0  0  0  0  0  0  0
   -6.2166  -28.4517   -3.9231 H   0  0  0  0  0  0  0  0  0  0  0  0
   -7.2389  -27.3091   -3.0227 H   0  0  0  0  0  0  0  0  0  0  0  0
   -6.8075  -30.2662   -2.5857 H   0  0  0  0  0  0  0  0  0  0  0  0
   -7.2089  -29.0221   -1.3909 H   0  0  0  0  0  0  0  0  0  0  0  0
   -9.6530  -29.1769   -1.9398 H   0  0  0  0  0  0  0  0  0  0  0  0
   -8.1217  -34.7967   -7.1455 H   0  0  0  0  0  0  0  0  0  0  0  0
   -9.2460  -31.2403   -0.9880 H   0  0  0  0  0  0  0  0  0  0  0  0
  1 13  1  0
  1 20  1  0
  2  9  1  0
  2 12  1  0
  2 15  1  0
  3  5  1  0
  3 20  1  0
  4  7  2  0
  4 14  1  0
  4 15  1  0
  5 18  1  0
  6  7  1  0
  6 16  2  0
  6 18  1  0
 13  8  1  0
  9 10  1  0
 10 11  1  0
 12 11  1  0
 12 17  1  0
 13 18  1  0
 14 17  1  0
 14 19  2  0
 15 16  1  0
  1 21  1  0
  1 22  1  0
  2 23  1  1
  3 24  1  0
  3 25  1  0
  5 26  1  0
  5 27  1  0
  7 28  1  0
  8 29  1  0
  8 30  1  0
  8 31  1  0
  9 32  1  0
  9 33  1  0
 10 34  1  0
 10 35  1  0
 11 36  1  0
 11 37  1  0
 12 38  1  1
 13 39  1  1
 17 40  1  0
M  END
>  <filename_input>  (24) 
7RSV_7IQ_docked.sdf

>  <pdb_id>  (24) 
7RSV_7IQ

>  <pose_rank>  (24) 
23

>  <num_atoms_heavy>  (24) 
20

>  <num_torsions>  (24) 
0

>  <pose>  (24) 
[-7.785149301029655, -34.487651728838365, -9.277746224472438, 0.24553639329663146, -1.6473053345291466, -3.041152655352062]

>  <energy>  (24) 
13.191027669828927

>  <inter_energy>  (24) 
41.520601815711174

>  <intra_energy>  (24) 
0.0

>  <rmsd>  (24) 
12.956

>  <sdf_rank>  (24) 
0

$$$$

     RDKit          3D

 40 43  0  0  0  0  0  0  0  0999 V2000
   -6.2943  -43.3566    8.4351 C   0  0  0  0  0  0  0  0  0  0  0  0
   -9.2160  -36.8853    6.7279 C   0  0  2  0  0  0  0  0  0  0  0  0
   -7.8752  -43.4205    6.6522 C   0  0  0  0  0  0  0  0  0  0  0  0
   -7.6369  -37.7871    8.4517 C   0  0  0  0  0  0  0  0  0  0  0  0
   -7.8624  -41.8951    6.5437 C   0  0  0  0  0  0  0  0  0  0  0  0
   -7.6626  -39.9370    7.8834 C   0  0  0  0  0  0  0  0  0  0  0  0
   -7.1250  -39.0090    8.7898 C   0  0  0  0  0  0  0  0  0  0  0  0
   -4.9987  -41.4250    7.5133 C   0  0  0  0  0  0  0  0  0  0  0  0
   -9.1750  -37.0319    5.1879 C   0  0  0  0  0  0  0  0  0  0  0  0
   -8.1751  -35.9663    4.6860 C   0  0  0  0  0  0  0  0  0  0  0  0
   -7.6026  -35.2694    5.9281 C   0  0  0  0  0  0  0  0  0  0  0  0
   -8.6363  -35.4980    7.0588 C   0  0  2  0  0  0  0  0  0  0  0  0
   -6.1929  -41.8323    8.3854 C   0  0  1  0  0  0  0  0  0  0  0  0
   -7.4397  -36.4512    9.0351 C   0  0  0  0  0  0  0  0  0  0  0  0
   -8.4687  -37.9619    7.3659 N   0  0  0  0  0  0  0  0  0  0  0  0
   -8.4552  -39.3078    7.0489 N   0  0  0  0  0  0  0  0  0  0  0  0
   -7.9437  -35.4098    8.3387 N   0  0  0  0  0  0  0  0  0  0  0  0
   -7.4527  -41.3168    7.8292 N   0  0  0  0  0  0  0  0  0  0  0  0
   -6.8614  -36.2875   10.0946 O   0  0  0  0  0  0  0  0  0  0  0  0
   -6.5915  -43.8408    7.1241 O   0  0  0  0  0  0  0  0  0  0  0  0
   -5.3386  -43.7798    8.7779 H   0  0  0  0  0  0  0  0  0  0  0  0
   -7.0898  -43.6558    9.1335 H   0  0  0  0  0  0  0  0  0  0  0  0
  -10.2438  -36.9613    7.1124 H   0  0  0  0  0  0  0  0  0  0  0  0
   -8.6553  -43.7380    7.3597 H   0  0  0  0  0  0  0  0  0  0  0  0
   -8.0884  -43.8717    5.6719 H   0  0  0  0  0  0  0  0  0  0  0  0
   -7.1526  -41.5891    5.7610 H   0  0  0  0  0  0  0  0  0  0  0  0
   -8.8699  -41.5374    6.2850 H   0  0  0  0  0  0  0  0  0  0  0  0
   -6.4271  -39.2235    9.6126 H   0  0  0  0  0  0  0  0  0  0  0  0
   -4.1551  -41.1373    8.1580 H   0  0  0  0  0  0  0  0  0  0  0  0
   -4.7023  -42.2729    6.8783 H   0  0  0  0  0  0  0  0  0  0  0  0
   -5.2821  -40.5727    6.8783 H   0  0  0  0  0  0  0  0  0  0  0  0
   -8.8324  -38.0392    4.9087 H   0  0  0  0  0  0  0  0  0  0  0  0
  -10.1711  -36.8915    4.7427 H   0  0  0  0  0  0  0  0  0  0  0  0
   -7.3662  -36.4460    4.1153 H   0  0  0  0  0  0  0  0  0  0  0  0
   -8.6718  -35.2425    4.0232 H   0  0  0  0  0  0  0  0  0  0  0  0
   -6.6329  -35.7109    6.2015 H   0  0  0  0  0  0  0  0  0  0  0  0
   -7.4331  -34.1977    5.7472 H   0  0  0  0  0  0  0  0  0  0  0  0
   -9.4502  -34.7615    7.1300 H   0  0  0  0  0  0  0  0  0  0  0  0
   -6.0341  -41.4134    9.3900 H   0  0  0  0  0  0  0  0  0  0  0  0
   -7.8287  -34.4713    8.7473 H   0  0  0  0  0  0  0  0  0  0  0  0
  1 13  1  0
  1 20  1  0
  2  9  1  0
  2 12  1  0
  2 15  1  0
  3  5  1  0
  3 20  1  0
  4  7  2  0
  4 14  1  0
  4 15  1  0
  5 18  1  0
  6  7  1  0
  6 16  2  0
  6 18  1  0
 13  8  1  0
  9 10  1  0
 10 11  1  0
 12 11  1  0
 12 17  1  0
 13 18  1  0
 14 17  1  0
 14 19  2  0
 15 16  1  0
  1 21  1  0
  1 22  1  0
  2 23  1  1
  3 24  1  0
  3 25  1  0
  5 26  1  0
  5 27  1  0
  7 28  1  0
  8 29  1  0
  8 30  1  0
  8 31  1  0
  9 32  1  0
  9 33  1  0
 10 34  1  0
 10 35  1  0
 11 36  1  0
 11 37  1  0
 12 38  1  1
 13 39  1  1
 17 40  1  0
M  END
>  <filename_input>  (25) 
7RSV_7IQ_docked.sdf

>  <pdb_id>  (25) 
7RSV_7IQ

>  <pose_rank>  (25) 
24

>  <num_atoms_heavy>  (25) 
20

>  <num_torsions>  (25) 
0

>  <pose>  (25) 
[-6.294348192836503, -43.35655999240607, 8.435119769037689, -0.066396017685985, 3.1233579324670027, 1.5887992975717922]

>  <energy>  (25) 
356.1014011521859

>  <inter_energy>  (25) 
385.63887252325173

>  <intra_energy>  (25) 
0.0

>  <rmsd>  (25) 
11.9876

>  <sdf_rank>  (25) 
0

$$$$

     RDKit          3D

 40 43  0  0  0  0  0  0  0  0999 V2000
    0.7000  -40.2470   -4.4630 C   0  0  0  0  0  0  0  0  0  0  0  0
    1.6630  -38.0740    2.4420 C   0  0  2  0  0  0  0  0  0  0  0  0
    1.6540  -41.8940   -3.0280 C   0  0  0  0  0  0  0  0  0  0  0  0
    0.8800  -37.0550    0.2910 C   0  0  0  0  0  0  0  0  0  0  0  0
    1.3140  -41.0600   -1.7920 C   0  0  0  0  0  0  0  0  0  0  0  0
    1.1500  -38.8000   -1.0610 C   0  0  0  0  0  0  0  0  0  0  0  0
    0.7400  -37.4580   -1.0080 C   0  0  0  0  0  0  0  0  0  0  0  0
   -1.1610  -39.6450   -2.9030 C   0  0  0  0  0  0  0  0  0  0  0  0
    1.1910  -39.3710    3.1420 C   0  0  0  0  0  0  0  0  0  0  0  0
   -0.1000  -38.9970    3.9040 C   0  0  0  0  0  0  0  0  0  0  0  0
   -0.3970  -37.5250    3.5860 C   0  0  0  0  0  0  0  0  0  0  0  0
    0.9520  -36.9040    3.1460 C   0  0  2  0  0  0  0  0  0  0  0  0
    0.2950  -39.3560   -3.2890 C   0  0  1  0  0  0  0  0  0  0  0  0
    0.6120  -35.7660    0.9470 C   0  0  0  0  0  0  0  0  0  0  0  0
    1.3650  -38.1230    1.0160 N   0  0  0  0  0  0  0  0  0  0  0  0
    1.5180  -39.1810    0.1390 N   0  0  0  0  0  0  0  0  0  0  0  0
    0.6720  -35.7530    2.2960 N   0  0  0  0  0  0  0  0  0  0  0  0
    1.2050  -39.6460   -2.1710 N   0  0  0  0  0  0  0  0  0  0  0  0
    0.3580  -34.7580    0.3120 O   0  0  0  0  0  0  0  0  0  0  0  0
    0.6780  -41.6100   -4.0350 O   0  0  0  0  0  0  0  0  0  0  0  0
   -0.0079  -40.1087   -5.2936 H   0  0  0  0  0  0  0  0  0  0  0  0
    1.7105  -39.9787   -4.8049 H   0  0  0  0  0  0  0  0  0  0  0  0
    2.7531  -37.9486    2.5191 H   0  0  0  0  0  0  0  0  0  0  0  0
    2.6565  -41.6275   -3.3940 H   0  0  0  0  0  0  0  0  0  0  0  0
    1.6465  -42.9656   -2.7799 H   0  0  0  0  0  0  0  0  0  0  0  0
    0.3569  -41.4017   -1.3710 H   0  0  0  0  0  0  0  0  0  0  0  0
    2.1081  -41.1780   -1.0401 H   0  0  0  0  0  0  0  0  0  0  0  0
    0.3766  -36.8489   -1.8488 H   0  0  0  0  0  0  0  0  0  0  0  0
   -1.2531  -39.6633   -1.8070 H   0  0  0  0  0  0  0  0  0  0  0  0
   -1.8119  -38.8585   -3.3126 H   0  0  0  0  0  0  0  0  0  0  0  0
   -1.4622  -40.6205   -3.3126 H   0  0  0  0  0  0  0  0  0  0  0  0
    0.9824  -40.1533    2.3973 H   0  0  0  0  0  0  0  0  0  0  0  0
    1.9606  -39.7654    3.8218 H   0  0  0  0  0  0  0  0  0  0  0  0
   -0.9338  -39.6317    3.5693 H   0  0  0  0  0  0  0  0  0  0  0  0
    0.0249  -39.1478    4.9864 H   0  0  0  0  0  0  0  0  0  0  0  0
   -1.1352  -37.4506    2.7739 H   0  0  0  0  0  0  0  0  0  0  0  0
   -0.8173  -37.0010    4.4571 H   0  0  0  0  0  0  0  0  0  0  0  0
    1.5909  -36.5092    3.9497 H   0  0  0  0  0  0  0  0  0  0  0  0
    0.3669  -38.2916   -3.5570 H   0  0  0  0  0  0  0  0  0  0  0  0
    0.5054  -34.8514    2.7653 H   0  0  0  0  0  0  0  0  0  0  0  0
  1 13  1  0
  1 20  1  0
  2  9  1  0
  2 12  1  0
  2 15  1  0
  3  5  1  0
  3 20  1  0
  4  7  2  0
  4 14  1  0
  4 15  1  0
  5 18  1  0
  6  7  1  0
  6 16  2  0
  6 18  1  0
 13  8  1  0
  9 10  1  0
 10 11  1  0
 12 11  1  0
 12 17  1  0
 13 18  1  0
 14 17  1  0
 14 19  2  0
 15 16  1  0
  1 21  1  0
  1 22  1  0
  2 23  1  6
  3 24  1  0
  3 25  1  0
  5 26  1  0
  5 27  1  0
  7 28  1  0
  8 29  1  0
  8 30  1  0
  8 31  1  0
  9 32  1  0
  9 33  1  0
 10 34  1  0
 10 35  1  0
 11 36  1  0
 11 37  1  0
 12 38  1  1
 13 39  1  6
 17 40  1  0
M  END
>  <filename_input>  (26) 
7RSV_7IQ_docked.sdf

>  <pdb_id>  (26) 
7RSV_7IQ

>  <pose_rank>  (26) 
25

>  <num_atoms_heavy>  (26) 
20

>  <num_torsions>  (26) 
0

>  <pose>  (26) 
[0.7, -40.247, -4.463, 1e-06, 1e-06, 1e-06]

>  <energy>  (26) 
-956.8425528343079

>  <inter_energy>  (26) 
-957.1623362328497

>  <intra_energy>  (26) 
0.0

>  <rmsd>  (26) 
0.0

>  <sdf_rank>  (26) 
0

$$$$
