
     RDKit          3D

 67 73  0  0  0  0  0  0  0  0999 V2000
   15.3987   46.9153   39.1205 C   0  0  2  0  0  0  0  0  0  0  0  0
   15.8903   47.2448   37.6910 C   0  0  0  0  0  0  0  0  0  0  0  0
   15.0462   51.6789   37.5648 C   0  0  1  0  0  0  0  0  0  0  0  0
   14.8015   56.7713   40.2679 N   0  0  0  0  0  0  0  0  0  0  0  0
   14.0558   56.6777   39.0092 C   0  0  0  0  0  0  0  0  0  0  0  0
   13.9246   55.4002   38.3715 N   0  0  0  0  0  0  0  0  0  0  0  0
   13.1606   55.3026   37.1020 C   0  0  0  0  0  0  0  0  0  0  0  0
   12.5697   56.3697   36.4903 C   0  0  0  0  0  0  0  0  0  0  0  0
   11.9871   55.9101   35.3758 N   0  0  0  0  0  0  0  0  0  0  0  0
   12.2249   54.5699   35.3154 C   0  0  0  0  0  0  0  0  0  0  0  0
   12.9517   54.2299   36.4161 N   0  0  0  0  0  0  0  0  0  0  0  0
   13.2770   52.8585   36.4569 C   0  0  2  0  0  0  0  0  0  0  0  0
   12.7688   52.3507   37.7091 O   0  0  0  0  0  0  0  0  0  0  0  0
   13.8196   51.6344   38.3844 C   0  0  2  0  0  0  0  0  0  0  0  0
   13.9680   52.2590   39.8048 C   0  0  0  0  0  0  0  0  0  0  0  0
   15.2717   51.9532   40.3366 O   0  0  0  0  0  0  0  0  0  0  0  0
   15.1814   51.1238   41.8279 P   0  0  1  0  0  0  0  0  0  0  0  0
   16.6111   51.0386   42.2816 O   0  0  0  0  0  0  0  0  0  0  0  0
   14.2643   51.6461   42.9147 O   0  0  0  0  0  0  0  0  0  0  0  0
   14.6455   49.5491   41.3897 O   0  0  0  0  0  0  0  0  0  0  0  0
   15.4499   48.8649   40.4025 C   0  0  2  0  0  0  0  0  0  0  0  0
   14.5243   48.0280   39.6186 C   0  0  2  0  0  0  0  0  0  0  0  0
   13.5222   47.4288   40.4463 O   0  0  0  0  0  0  0  0  0  0  0  0
   16.6301   48.5549   37.7274 O   0  0  0  0  0  0  0  0  0  0  0  0
   16.4614   49.6418   36.4750 P   0  0  2  0  0  0  0  0  0  0  0  0
   16.1855   48.8675   35.1937 O   0  0  0  0  0  0  0  0  0  0  0  0
   17.6318   50.5945   36.3415 O   0  0  0  0  0  0  0  0  0  0  0  0
   14.9941   50.4220   36.8059 O   0  0  0  0  0  0  0  0  0  0  0  0
   14.8026   52.8240   36.6726 C   0  0  2  0  0  0  0  0  0  0  0  0
   15.5132   52.7507   35.4519 O   0  0  0  0  0  0  0  0  0  0  0  0
   16.4683   46.8458   40.0144 O   0  0  0  0  0  0  0  0  0  0  0  0
   16.3600   47.8569   41.0537 C   0  0  1  0  0  0  0  0  0  0  0  0
   17.7074   48.3066   41.2712 N   0  0  0  0  0  0  0  0  0  0  0  0
   18.6016   48.8592   40.4272 C   0  0  0  0  0  0  0  0  0  0  0  0
   19.7415   49.0592   41.1056 N   0  0  0  0  0  0  0  0  0  0  0  0
   19.5513   48.6159   42.3628 C   0  0  0  0  0  0  0  0  0  0  0  0
   20.4012   48.5939   43.4340 C   0  0  0  0  0  0  0  0  0  0  0  0
   21.7680   49.0179   43.6517 N   0  0  0  0  0  0  0  0  0  0  0  0
   20.0057   48.0970   44.6069 N   0  0  0  0  0  0  0  0  0  0  0  0
   18.7373   47.6128   44.7333 C   0  0  0  0  0  0  0  0  0  0  0  0
   17.8914   47.6359   43.6602 N   0  0  0  0  0  0  0  0  0  0  0  0
   18.3018   48.1404   42.4775 C   0  0  0  0  0  0  0  0  0  0  0  0
   12.7173   57.7388   37.1711 C   0  0  0  0  0  0  0  0  0  0  0  0
   12.2377   58.7293   36.7124 O   0  0  0  0  0  0  0  0  0  0  0  0
   13.4510   57.8367   38.3918 N   0  0  0  0  0  0  0  0  0  0  0  0
   14.8662   45.9542   39.0689 H   0  0  0  0  0  0  0  0  0  0  0  0
   16.5628   46.4491   37.3378 H   0  0  0  0  0  0  0  0  0  0  0  0
   15.0326   47.3166   37.0060 H   0  0  0  0  0  0  0  0  0  0  0  0
   16.0061   51.7792   38.0926 H   0  0  0  0  0  0  0  0  0  0  0  0
   14.9050   57.6815   40.7388 H   0  0  0  0  0  0  0  0  0  0  0  0
   15.2219   55.9268   40.6814 H   0  0  0  0  0  0  0  0  0  0  0  0
   11.8906   53.8861   34.5212 H   0  0  0  0  0  0  0  0  0  0  0  0
   12.9090   52.3176   35.5725 H   0  0  0  0  0  0  0  0  0  0  0  0
   13.5933   50.5658   38.5144 H   0  0  0  0  0  0  0  0  0  0  0  0
   13.8469   53.3503   39.7387 H   0  0  0  0  0  0  0  0  0  0  0  0
   13.1969   51.8410   40.4686 H   0  0  0  0  0  0  0  0  0  0  0  0
   16.0184   49.6133   39.8310 H   0  0  0  0  0  0  0  0  0  0  0  0
   14.0151   48.6186   38.8427 H   0  0  0  0  0  0  0  0  0  0  0  0
   13.7544   47.5677   41.3986 H   0  0  0  0  0  0  0  0  0  0  0  0
   15.1734   53.7534   37.1296 H   0  0  0  0  0  0  0  0  0  0  0  0
   16.4803   52.6509   35.6385 H   0  0  0  0  0  0  0  0  0  0  0  0
   15.9571   47.5736   42.0373 H   0  0  0  0  0  0  0  0  0  0  0  0
   18.4273   49.1031   39.3689 H   0  0  0  0  0  0  0  0  0  0  0  0
   22.2051   48.8927   44.5759 H   0  0  0  0  0  0  0  0  0  0  0  0
   22.3035   49.4448   42.8823 H   0  0  0  0  0  0  0  0  0  0  0  0
   18.3960   47.2049   45.6962 H   0  0  0  0  0  0  0  0  0  0  0  0
   13.5520   58.7565   38.8443 H   0  0  0  0  0  0  0  0  0  0  0  0
  1  2  1  0
  1 22  1  0
  1 31  1  0
  2 24  1  0
  3 14  1  0
  3 28  1  0
  3 29  1  0
  4  5  1  0
  5  6  2  0
  5 45  1  0
  6  7  1  0
  7  8  2  0
  7 11  1  0
  8  9  1  0
  8 43  1  0
  9 10  2  0
 10 11  1  0
 12 11  1  0
 12 13  1  0
 12 29  1  0
 13 14  1  0
 14 15  1  0
 15 16  1  0
 16 17  1  0
 17 18  2  0
 17 19  1  1
 17 20  1  0
 21 20  1  0
 21 22  1  0
 21 32  1  0
 22 23  1  0
 24 25  1  0
 25 26  2  0
 25 27  1  6
 25 28  1  0
 29 30  1  0
 31 32  1  0
 32 33  1  0
 33 34  1  0
 33 42  1  0
 34 35  2  0
 35 36  1  0
 36 37  2  0
 36 42  1  0
 37 38  1  0
 37 39  1  0
 39 40  2  0
 40 41  1  0
 41 42  2  0
 43 44  2  0
 43 45  1  0
  1 46  1  6
  2 47  1  0
  2 48  1  0
  3 49  1  1
  4 50  1  0
  4 51  1  0
 10 52  1  0
 12 53  1  6
 14 54  1  1
 15 55  1  0
 15 56  1  0
 21 57  1  6
 22 58  1  6
 23 59  1  0
 29 60  1  1
 30 61  1  0
 32 62  1  1
 34 63  1  0
 38 64  1  0
 38 65  1  0
 40 66  1  0
 45 67  1  0
M  CHG  2  19  -1  27  -1
M  END
>  <filename_input>  (1) 
7RWS_4UR_docked.sdf

>  <pdb_id>  (1) 
7RWS_4UR

>  <pose_rank>  (1) 
0

>  <num_atoms_heavy>  (1) 
45

>  <num_torsions>  (1) 
2

>  <pose>  (1) 
[15.398699880790721, 46.91531335248584, 39.12045132712911, -0.029098744019228316, -0.018038911638931343, 0.006317217954252805, -0.17876710860853118, 0.0639905363112372]

>  <energy>  (1) 
-992.5388442765754

>  <inter_energy>  (1) 
-1009.3028888262318

>  <intra_energy>  (1) 
13.84498376808413

>  <rmsd>  (1) 
0.38121

>  <sdf_rank>  (1) 
0

$$$$

     RDKit          3D

 67 73  0  0  0  0  0  0  0  0999 V2000
   15.3696   47.2350   38.7244 C   0  0  2  0  0  0  0  0  0  0  0  0
   15.7940   47.6371   37.2920 C   0  0  0  0  0  0  0  0  0  0  0  0
   14.9462   52.0703   37.4293 C   0  0  1  0  0  0  0  0  0  0  0  0
   15.1928   57.1147   40.1190 N   0  0  0  0  0  0  0  0  0  0  0  0
   14.2722   57.0525   38.9798 C   0  0  0  0  0  0  0  0  0  0  0  0
   14.0486   55.7921   38.3338 N   0  0  0  0  0  0  0  0  0  0  0  0
   13.1084   55.7262   37.1865 C   0  0  0  0  0  0  0  0  0  0  0  0
   12.4359   56.8074   36.6958 C   0  0  0  0  0  0  0  0  0  0  0  0
   11.6974   56.3760   35.6657 N   0  0  0  0  0  0  0  0  0  0  0  0
   11.9227   55.0386   35.5354 C   0  0  0  0  0  0  0  0  0  0  0  0
   12.8011   54.6716   36.5096 N   0  0  0  0  0  0  0  0  0  0  0  0
   13.1276   53.3005   36.4659 C   0  0  2  0  0  0  0  0  0  0  0  0
   12.6782   52.7291   37.7133 O   0  0  0  0  0  0  0  0  0  0  0  0
   13.7592   51.9819   38.3018 C   0  0  2  0  0  0  0  0  0  0  0  0
   13.9739   52.5344   39.7434 C   0  0  0  0  0  0  0  0  0  0  0  0
   15.3009   52.2049   40.1978 O   0  0  0  0  0  0  0  0  0  0  0  0
   15.2800   51.3012   41.6480 P   0  0  1  0  0  0  0  0  0  0  0  0
   16.7293   51.1962   42.0296 O   0  0  0  0  0  0  0  0  0  0  0  0
   14.4147   51.7662   42.8013 O   0  0  0  0  0  0  0  0  0  0  0  0
   14.7238   49.7495   41.1563 O   0  0  0  0  0  0  0  0  0  0  0  0
   15.4811   49.1175   40.0995 C   0  0  2  0  0  0  0  0  0  0  0  0
   14.5197   48.3194   39.3183 C   0  0  2  0  0  0  0  0  0  0  0  0
   13.5571   47.6771   40.1605 O   0  0  0  0  0  0  0  0  0  0  0  0
   16.5351   48.9453   37.3600 O   0  0  0  0  0  0  0  0  0  0  0  0
   16.3085   50.0936   36.1733 P   0  0  2  0  0  0  0  0  0  0  0  0
   15.9728   49.3843   34.8688 O   0  0  0  0  0  0  0  0  0  0  0  0
   17.4716   51.0542   36.0336 O   0  0  0  0  0  0  0  0  0  0  0  0
   14.8584   50.8530   36.6112 O   0  0  0  0  0  0  0  0  0  0  0  0
   14.6616   53.2583   36.6083 C   0  0  2  0  0  0  0  0  0  0  0  0
   15.3144   53.2481   35.3537 O   0  0  0  0  0  0  0  0  0  0  0  0
   16.4797   47.1227   39.5629 O   0  0  0  0  0  0  0  0  0  0  0  0
   16.4203   48.0799   40.6558 C   0  0  1  0  0  0  0  0  0  0  0  0
   17.7765   48.5209   40.8327 N   0  0  0  0  0  0  0  0  0  0  0  0
   18.7615   48.0530   41.6251 C   0  0  0  0  0  0  0  0  0  0  0  0
   19.8341   48.8417   41.4608 N   0  0  0  0  0  0  0  0  0  0  0  0
   19.5025   49.8027   40.5777 C   0  0  0  0  0  0  0  0  0  0  0  0
   20.2381   50.8429   40.0804 C   0  0  0  0  0  0  0  0  0  0  0  0
   21.5942   51.3097   40.2765 N   0  0  0  0  0  0  0  0  0  0  0  0
   19.7052   51.6962   39.2046 N   0  0  0  0  0  0  0  0  0  0  0  0
   18.4148   51.5199   38.8011 C   0  0  0  0  0  0  0  0  0  0  0  0
   17.6829   50.4796   39.3011 N   0  0  0  0  0  0  0  0  0  0  0  0
   18.2314   49.6221   40.1874 C   0  0  0  0  0  0  0  0  0  0  0  0
   12.6821   58.1584   37.3844 C   0  0  0  0  0  0  0  0  0  0  0  0
   12.1420   59.1593   37.0270 O   0  0  0  0  0  0  0  0  0  0  0  0
   13.5853   58.2258   38.4880 N   0  0  0  0  0  0  0  0  0  0  0  0
   14.8350   46.2766   38.6493 H   0  0  0  0  0  0  0  0  0  0  0  0
   16.4491   46.8617   36.8682 H   0  0  0  0  0  0  0  0  0  0  0  0
   14.9053   47.7416   36.6523 H   0  0  0  0  0  0  0  0  0  0  0  0
   15.9298   52.1458   37.9161 H   0  0  0  0  0  0  0  0  0  0  0  0
   15.3644   58.0123   40.5941 H   0  0  0  0  0  0  0  0  0  0  0  0
   15.6680   56.2607   40.4443 H   0  0  0  0  0  0  0  0  0  0  0  0
   11.4759   54.3753   34.7802 H   0  0  0  0  0  0  0  0  0  0  0  0
   12.7186   52.8041   35.5735 H   0  0  0  0  0  0  0  0  0  0  0  0
   13.5389   50.9076   38.3882 H   0  0  0  0  0  0  0  0  0  0  0  0
   13.8502   53.6274   39.7382 H   0  0  0  0  0  0  0  0  0  0  0  0
   13.2345   52.0819   40.4205 H   0  0  0  0  0  0  0  0  0  0  0  0
   16.0226   49.8950   39.5406 H   0  0  0  0  0  0  0  0  0  0  0  0
   13.9750   48.9473   38.5978 H   0  0  0  0  0  0  0  0  0  0  0  0
   13.7921   47.8339   41.1094 H   0  0  0  0  0  0  0  0  0  0  0  0
   15.0535   54.1643   37.0938 H   0  0  0  0  0  0  0  0  0  0  0  0
   16.2946   53.2328   35.4918 H   0  0  0  0  0  0  0  0  0  0  0  0
   16.0637   47.7466   41.6415 H   0  0  0  0  0  0  0  0  0  0  0  0
   18.6972   47.1785   42.2893 H   0  0  0  0  0  0  0  0  0  0  0  0
   21.9295   52.1438   39.7737 H   0  0  0  0  0  0  0  0  0  0  0  0
   22.2238   50.8078   40.9188 H   0  0  0  0  0  0  0  0  0  0  0  0
   17.9642   52.2128   38.0753 H   0  0  0  0  0  0  0  0  0  0  0  0
   13.7518   59.1335   38.9456 H   0  0  0  0  0  0  0  0  0  0  0  0
  1  2  1  0
  1 22  1  0
  1 31  1  0
  2 24  1  0
  3 14  1  0
  3 28  1  0
  3 29  1  0
  4  5  1  0
  5  6  2  0
  5 45  1  0
  6  7  1  0
  7  8  2  0
  7 11  1  0
  8  9  1  0
  8 43  1  0
  9 10  2  0
 10 11  1  0
 12 11  1  0
 12 13  1  0
 12 29  1  0
 13 14  1  0
 14 15  1  0
 15 16  1  0
 16 17  1  0
 17 18  2  0
 17 19  1  1
 17 20  1  0
 21 20  1  0
 21 22  1  0
 21 32  1  0
 22 23  1  0
 24 25  1  0
 25 26  2  0
 25 27  1  6
 25 28  1  0
 29 30  1  0
 31 32  1  0
 32 33  1  0
 33 34  1  0
 33 42  1  0
 34 35  2  0
 35 36  1  0
 36 37  2  0
 36 42  1  0
 37 38  1  0
 37 39  1  0
 39 40  2  0
 40 41  1  0
 41 42  2  0
 43 44  2  0
 43 45  1  0
  1 46  1  6
  2 47  1  0
  2 48  1  0
  3 49  1  1
  4 50  1  0
  4 51  1  0
 10 52  1  0
 12 53  1  6
 14 54  1  1
 15 55  1  0
 15 56  1  0
 21 57  1  6
 22 58  1  6
 23 59  1  0
 29 60  1  1
 30 61  1  0
 32 62  1  1
 34 63  1  0
 38 64  1  0
 38 65  1  0
 40 66  1  0
 45 67  1  0
M  CHG  2  19  -1  27  -1
M  END
>  <filename_input>  (2) 
7RWS_4UR_docked.sdf

>  <pdb_id>  (2) 
7RWS_4UR

>  <pose_rank>  (2) 
1

>  <num_atoms_heavy>  (2) 
45

>  <num_torsions>  (2) 
2

>  <pose>  (2) 
[15.369570592538574, 47.23500784273242, 38.724434722033365, 0.02153203061536231, 0.028450158994926363, 0.007431664731764077, -0.07702924253760367, -2.5522728318055004]

>  <energy>  (2) 
-727.4103273604128

>  <inter_energy>  (2) 
-850.1838618571558

>  <intra_energy>  (2) 
123.61602396659522

>  <rmsd>  (2) 
1.8775

>  <sdf_rank>  (2) 
0

$$$$

     RDKit          3D

 67 73  0  0  0  0  0  0  0  0999 V2000
   16.8004   52.7068   33.7419 C   0  0  2  0  0  0  0  0  0  0  0  0
   16.1337   51.3240   33.9342 C   0  0  0  0  0  0  0  0  0  0  0  0
   17.2562   50.4932   38.2284 C   0  0  1  0  0  0  0  0  0  0  0  0
   15.5294   48.4440   43.6087 N   0  0  0  0  0  0  0  0  0  0  0  0
   16.9567   48.3846   43.2789 C   0  0  0  0  0  0  0  0  0  0  0  0
   17.3677   48.6095   41.9238 N   0  0  0  0  0  0  0  0  0  0  0  0
   18.8138   48.5599   41.5908 C   0  0  0  0  0  0  0  0  0  0  0  0
   19.7930   48.3046   42.5062 C   0  0  0  0  0  0  0  0  0  0  0  0
   20.9598   48.3284   41.8499 N   0  0  0  0  0  0  0  0  0  0  0  0
   20.6859   48.5979   40.5427 C   0  0  0  0  0  0  0  0  0  0  0  0
   19.3368   48.7450   40.4259 N   0  0  0  0  0  0  0  0  0  0  0  0
   18.9264   49.0122   39.1035 C   0  0  2  0  0  0  0  0  0  0  0  0
   19.5719   50.2427   38.7116 O   0  0  0  0  0  0  0  0  0  0  0  0
   18.5812   51.1413   38.1785 C   0  0  2  0  0  0  0  0  0  0  0  0
   18.6807   52.4721   38.9839 C   0  0  0  0  0  0  0  0  0  0  0  0
   17.4483   53.2083   38.8609 O   0  0  0  0  0  0  0  0  0  0  0  0
   17.6930   54.7721   38.2170 P   0  0  1  0  0  0  0  0  0  0  0  0
   16.3403   55.4187   38.3134 O   0  0  0  0  0  0  0  0  0  0  0  0
   18.7899   55.6477   38.7874 O   0  0  0  0  0  0  0  0  0  0  0  0
   18.0505   54.4820   36.5596 O   0  0  0  0  0  0  0  0  0  0  0  0
   17.0679   53.7110   35.8316 C   0  0  2  0  0  0  0  0  0  0  0  0
   17.8119   52.9307   34.8271 C   0  0  2  0  0  0  0  0  0  0  0  0
   18.8780   53.6911   34.2494 O   0  0  0  0  0  0  0  0  0  0  0  0
   15.4992   51.2820   35.2983 O   0  0  0  0  0  0  0  0  0  0  0  0
   15.5622   49.8839   36.2037 P   0  0  2  0  0  0  0  0  0  0  0  0
   15.5980   48.6930   35.2561 O   0  0  0  0  0  0  0  0  0  0  0  0
   14.4536   49.7802   37.2309 O   0  0  0  0  0  0  0  0  0  0  0  0
   17.1122   49.9097   36.8877 O   0  0  0  0  0  0  0  0  0  0  0  0
   17.4486   49.4311   39.2290 C   0  0  2  0  0  0  0  0  0  0  0  0
   16.5677   48.3364   39.0680 O   0  0  0  0  0  0  0  0  0  0  0  0
   15.8671   53.7359   33.8767 O   0  0  0  0  0  0  0  0  0  0  0  0
   16.1925   54.6064   34.9949 C   0  0  1  0  0  0  0  0  0  0  0  0
   14.9244   54.9384   35.5837 N   0  0  0  0  0  0  0  0  0  0  0  0
   13.8159   54.1948   35.7719 C   0  0  0  0  0  0  0  0  0  0  0  0
   12.8793   54.9811   36.3235 N   0  0  0  0  0  0  0  0  0  0  0  0
   13.4089   56.2116   36.4607 C   0  0  0  0  0  0  0  0  0  0  0  0
   12.8646   57.3606   36.9648 C   0  0  0  0  0  0  0  0  0  0  0  0
   11.5792   57.7089   37.5319 N   0  0  0  0  0  0  0  0  0  0  0  0
   13.5735   58.4898   37.0033 N   0  0  0  0  0  0  0  0  0  0  0  0
   14.8554   58.4897   36.5388 C   0  0  0  0  0  0  0  0  0  0  0  0
   15.3952   57.3396   36.0350 N   0  0  0  0  0  0  0  0  0  0  0  0
   14.6691   56.2023   36.0000 C   0  0  0  0  0  0  0  0  0  0  0  0
   19.3504   48.0567   43.9562 C   0  0  0  0  0  0  0  0  0  0  0  0
   20.1319   47.8245   44.8262 O   0  0  0  0  0  0  0  0  0  0  0  0
   17.9609   48.1037   44.2804 N   0  0  0  0  0  0  0  0  0  0  0  0
   17.2521   52.7145   32.7390 H   0  0  0  0  0  0  0  0  0  0  0  0
   15.3642   51.1731   33.1628 H   0  0  0  0  0  0  0  0  0  0  0  0
   16.8877   50.5279   33.8460 H   0  0  0  0  0  0  0  0  0  0  0  0
   16.3907   51.1253   38.4762 H   0  0  0  0  0  0  0  0  0  0  0  0
   15.2176   48.2848   44.5773 H   0  0  0  0  0  0  0  0  0  0  0  0
   14.8385   48.6450   42.8717 H   0  0  0  0  0  0  0  0  0  0  0  0
   21.4213   48.6817   39.7290 H   0  0  0  0  0  0  0  0  0  0  0  0
   19.1260   48.1675   38.4277 H   0  0  0  0  0  0  0  0  0  0  0  0
   18.7491   51.3824   37.1184 H   0  0  0  0  0  0  0  0  0  0  0  0
   18.8664   52.2446   40.0440 H   0  0  0  0  0  0  0  0  0  0  0  0
   19.5079   53.0778   38.5854 H   0  0  0  0  0  0  0  0  0  0  0  0
   16.4768   53.1248   36.5506 H   0  0  0  0  0  0  0  0  0  0  0  0
   18.2447   52.0220   35.2708 H   0  0  0  0  0  0  0  0  0  0  0  0
   19.4305   54.0851   34.9702 H   0  0  0  0  0  0  0  0  0  0  0  0
   17.2122   49.8043   40.2364 H   0  0  0  0  0  0  0  0  0  0  0  0
   16.2955   47.9981   39.9577 H   0  0  0  0  0  0  0  0  0  0  0  0
   16.7111   55.5570   34.8010 H   0  0  0  0  0  0  0  0  0  0  0  0
   13.6997   53.1308   35.5180 H   0  0  0  0  0  0  0  0  0  0  0  0
   11.4012   58.6717   37.8516 H   0  0  0  0  0  0  0  0  0  0  0  0
   10.8426   56.9938   37.6158 H   0  0  0  0  0  0  0  0  0  0  0  0
   15.4533   59.4125   36.5693 H   0  0  0  0  0  0  0  0  0  0  0  0
   17.6662   47.9332   45.2525 H   0  0  0  0  0  0  0  0  0  0  0  0
  1  2  1  0
  1 22  1  0
  1 31  1  0
  2 24  1  0
  3 14  1  0
  3 28  1  0
  3 29  1  0
  4  5  1  0
  5  6  2  0
  5 45  1  0
  6  7  1  0
  7  8  2  0
  7 11  1  0
  8  9  1  0
  8 43  1  0
  9 10  2  0
 10 11  1  0
 12 11  1  0
 12 13  1  0
 12 29  1  0
 13 14  1  0
 14 15  1  0
 15 16  1  0
 16 17  1  0
 17 18  2  0
 17 19  1  1
 17 20  1  0
 21 20  1  0
 21 22  1  0
 21 32  1  0
 22 23  1  0
 24 25  1  0
 25 26  2  0
 25 27  1  1
 25 28  1  0
 29 30  1  0
 31 32  1  0
 32 33  1  0
 33 34  1  0
 33 42  1  0
 34 35  2  0
 35 36  1  0
 36 37  2  0
 36 42  1  0
 37 38  1  0
 37 39  1  0
 39 40  2  0
 40 41  1  0
 41 42  2  0
 43 44  2  0
 43 45  1  0
  1 46  1  6
  2 47  1  0
  2 48  1  0
  3 49  1  1
  4 50  1  0
  4 51  1  0
 10 52  1  0
 12 53  1  6
 14 54  1  6
 15 55  1  0
 15 56  1  0
 21 57  1  1
 22 58  1  1
 23 59  1  0
 29 60  1  1
 30 61  1  0
 32 62  1  6
 34 63  1  0
 38 64  1  0
 38 65  1  0
 40 66  1  0
 45 67  1  0
M  CHG  2  19  -1  27  -1
M  END
>  <filename_input>  (3) 
7RWS_4UR_docked.sdf

>  <pdb_id>  (3) 
7RWS_4UR

>  <pose_rank>  (3) 
2

>  <num_atoms_heavy>  (3) 
45

>  <num_torsions>  (3) 
2

>  <pose>  (3) 
[16.80035450018565, 52.70680247192193, 33.741911442119175, -0.27235779954885336, -2.0641206671458137, -2.4211647931269447, -5.353721721164847, -0.2953709724751873]

>  <energy>  (3) 
-559.7188775641988

>  <inter_energy>  (3) 
-606.3721716485258

>  <intra_energy>  (3) 
50.648113440162504

>  <rmsd>  (3) 
9.19934

>  <sdf_rank>  (3) 
0

$$$$

     RDKit          3D

 67 73  0  0  0  0  0  0  0  0999 V2000
   23.3467   52.3845   36.8630 C   0  0  2  0  0  0  0  0  0  0  0  0
   23.1242   53.7915   37.4667 C   0  0  0  0  0  0  0  0  0  0  0  0
   18.6110   53.9338   37.5029 C   0  0  1  0  0  0  0  0  0  0  0  0
   13.8422   59.3257   37.9533 N   0  0  0  0  0  0  0  0  0  0  0  0
   13.7046   58.0281   37.2852 C   0  0  0  0  0  0  0  0  0  0  0  0
   14.8849   57.2711   36.9855 N   0  0  0  0  0  0  0  0  0  0  0  0
   14.7460   55.9520   36.3182 C   0  0  0  0  0  0  0  0  0  0  0  0
   13.5471   55.4068   35.9612 C   0  0  0  0  0  0  0  0  0  0  0  0
   13.8087   54.2292   35.3805 N   0  0  0  0  0  0  0  0  0  0  0  0
   15.1611   54.0636   35.3875 C   0  0  0  0  0  0  0  0  0  0  0  0
   15.7072   55.1562   35.9902 N   0  0  0  0  0  0  0  0  0  0  0  0
   17.1156   55.1079   36.0420 C   0  0  2  0  0  0  0  0  0  0  0  0
   17.5105   53.8793   35.3946 O   0  0  0  0  0  0  0  0  0  0  0  0
   18.4140   53.1649   36.2586 C   0  0  2  0  0  0  0  0  0  0  0  0
   17.8245   51.7371   36.4673 C   0  0  0  0  0  0  0  0  0  0  0  0
   18.3748   51.1541   37.6645 O   0  0  0  0  0  0  0  0  0  0  0  0
   19.1653   49.6710   37.3548 P   0  0  1  0  0  0  0  0  0  0  0  0
   19.5238   49.1601   38.7213 O   0  0  0  0  0  0  0  0  0  0  0  0
   18.4710   48.6202   36.5128 O   0  0  0  0  0  0  0  0  0  0  0  0
   20.6081   50.1371   36.5424 O   0  0  0  0  0  0  0  0  0  0  0  0
   21.4389   51.0935   37.2385 C   0  0  2  0  0  0  0  0  0  0  0  0
   22.0838   51.9177   36.2010 C   0  0  2  0  0  0  0  0  0  0  0  0
   22.4744   51.1338   35.0691 O   0  0  0  0  0  0  0  0  0  0  0  0
   21.9819   53.7198   38.4441 O   0  0  0  0  0  0  0  0  0  0  0  0
   20.8878   54.9735   38.5400 P   0  0  2  0  0  0  0  0  0  0  0  0
   21.5990   56.2681   38.1716 O   0  0  0  0  0  0  0  0  0  0  0  0
   20.1803   55.0556   39.8770 O   0  0  0  0  0  0  0  0  0  0  0  0
   19.8370   54.6993   37.2392 O   0  0  0  0  0  0  0  0  0  0  0  0
   17.4439   54.8305   37.5220 C   0  0  2  0  0  0  0  0  0  0  0  0
   17.6582   56.0216   38.2539 O   0  0  0  0  0  0  0  0  0  0  0  0
   23.6185   51.4482   37.8617 O   0  0  0  0  0  0  0  0  0  0  0  0
   22.6015   50.4100   37.9091 C   0  0  1  0  0  0  0  0  0  0  0  0
   22.4203   50.1362   39.3081 N   0  0  0  0  0  0  0  0  0  0  0  0
   21.3178   49.8000   40.0071 C   0  0  0  0  0  0  0  0  0  0  0  0
   21.6628   49.6982   41.2995 N   0  0  0  0  0  0  0  0  0  0  0  0
   22.9748   49.9860   41.3955 C   0  0  0  0  0  0  0  0  0  0  0  0
   23.7973   50.0237   42.4875 C   0  0  0  0  0  0  0  0  0  0  0  0
   23.6149   49.7780   43.9022 N   0  0  0  0  0  0  0  0  0  0  0  0
   25.0858   50.3436   42.3586 N   0  0  0  0  0  0  0  0  0  0  0  0
   25.5823   50.6292   41.1212 C   0  0  0  0  0  0  0  0  0  0  0  0
   24.7568   50.5911   40.0327 N   0  0  0  0  0  0  0  0  0  0  0  0
   23.4543   50.2669   40.1741 C   0  0  0  0  0  0  0  0  0  0  0  0
   12.2839   56.2223   36.2766 C   0  0  0  0  0  0  0  0  0  0  0  0
   11.1920   55.8303   36.0021 O   0  0  0  0  0  0  0  0  0  0  0  0
   12.4134   57.4910   36.9182 N   0  0  0  0  0  0  0  0  0  0  0  0
   24.1867   52.4615   36.1570 H   0  0  0  0  0  0  0  0  0  0  0  0
   24.0363   54.1203   37.9862 H   0  0  0  0  0  0  0  0  0  0  0  0
   22.8903   54.5104   36.6676 H   0  0  0  0  0  0  0  0  0  0  0  0
   18.6964   53.3671   38.4418 H   0  0  0  0  0  0  0  0  0  0  0  0
   13.0043   59.8819   38.1756 H   0  0  0  0  0  0  0  0  0  0  0  0
   14.7768   59.6812   38.2004 H   0  0  0  0  0  0  0  0  0  0  0  0
   15.7122   53.2032   34.9801 H   0  0  0  0  0  0  0  0  0  0  0  0
   17.5784   56.0086   35.6125 H   0  0  0  0  0  0  0  0  0  0  0  0
   19.4181   53.0485   35.8246 H   0  0  0  0  0  0  0  0  0  0  0  0
   16.7307   51.8037   36.5626 H   0  0  0  0  0  0  0  0  0  0  0  0
   18.0827   51.1068   35.6036 H   0  0  0  0  0  0  0  0  0  0  0  0
   20.8170   51.6384   37.9640 H   0  0  0  0  0  0  0  0  0  0  0  0
   21.4088   52.7112   35.8478 H   0  0  0  0  0  0  0  0  0  0  0  0
   22.8937   50.2924   35.3793 H   0  0  0  0  0  0  0  0  0  0  0  0
   16.6021   54.3551   38.0468 H   0  0  0  0  0  0  0  0  0  0  0  0
   17.6227   55.8242   39.2233 H   0  0  0  0  0  0  0  0  0  0  0  0
   22.7976   49.4448   37.4194 H   0  0  0  0  0  0  0  0  0  0  0  0
   20.3125   49.6378   39.5912 H   0  0  0  0  0  0  0  0  0  0  0  0
   24.4113   49.8734   44.5484 H   0  0  0  0  0  0  0  0  0  0  0  0
   22.6886   49.5077   44.2628 H   0  0  0  0  0  0  0  0  0  0  0  0
   26.6442   50.8894   40.9995 H   0  0  0  0  0  0  0  0  0  0  0  0
   11.5654   58.0378   37.1249 H   0  0  0  0  0  0  0  0  0  0  0  0
  1  2  1  0
  1 22  1  0
  1 31  1  0
  2 24  1  0
  3 14  1  0
  3 28  1  0
  3 29  1  0
  4  5  1  0
  5  6  2  0
  5 45  1  0
  6  7  1  0
  7  8  2  0
  7 11  1  0
  8  9  1  0
  8 43  1  0
  9 10  2  0
 10 11  1  0
 12 11  1  0
 12 13  1  0
 12 29  1  0
 13 14  1  0
 14 15  1  0
 15 16  1  0
 16 17  1  0
 17 18  2  0
 17 19  1  6
 17 20  1  0
 21 20  1  0
 21 22  1  0
 21 32  1  0
 22 23  1  0
 24 25  1  0
 25 26  2  0
 25 27  1  1
 25 28  1  0
 29 30  1  0
 31 32  1  0
 32 33  1  0
 33 34  1  0
 33 42  1  0
 34 35  2  0
 35 36  1  0
 36 37  2  0
 36 42  1  0
 37 38  1  0
 37 39  1  0
 39 40  2  0
 40 41  1  0
 41 42  2  0
 43 44  2  0
 43 45  1  0
  1 46  1  6
  2 47  1  0
  2 48  1  0
  3 49  1  1
  4 50  1  0
  4 51  1  0
 10 52  1  0
 12 53  1  6
 14 54  1  6
 15 55  1  0
 15 56  1  0
 21 57  1  1
 22 58  1  6
 23 59  1  0
 29 60  1  1
 30 61  1  0
 32 62  1  6
 34 63  1  0
 38 64  1  0
 38 65  1  0
 40 66  1  0
 45 67  1  0
M  CHG  2  19  -1  27  -1
M  END
>  <filename_input>  (4) 
7RWS_4UR_docked.sdf

>  <pdb_id>  (4) 
7RWS_4UR

>  <pose_rank>  (4) 
3

>  <num_atoms_heavy>  (4) 
45

>  <num_torsions>  (4) 
2

>  <pose>  (4) 
[23.346656386422254, 52.384491853307104, 36.86297284413758, -2.7978227093230905, 2.3964427157440253, -2.176438459140675, -10.570401236312998, 1.573593085365343]

>  <energy>  (4) 
-218.06010448921396

>  <inter_energy>  (4) 
-307.83034054636875

>  <intra_energy>  (4) 
91.19207758396274

>  <rmsd>  (4) 
5.73324

>  <sdf_rank>  (4) 
0

$$$$

     RDKit          3D

 67 73  0  0  0  0  0  0  0  0999 V2000
   13.9852   52.6967   34.5840 C   0  0  2  0  0  0  0  0  0  0  0  0
   13.5417   53.3257   35.9262 C   0  0  0  0  0  0  0  0  0  0  0  0
   16.5847   51.4841   38.7081 C   0  0  1  0  0  0  0  0  0  0  0  0
   15.7565   49.0486   45.8867 N   0  0  0  0  0  0  0  0  0  0  0  0
   16.7021   48.7101   44.8188 C   0  0  0  0  0  0  0  0  0  0  0  0
   16.4031   49.1056   43.4734 N   0  0  0  0  0  0  0  0  0  0  0  0
   17.3653   48.7725   42.3927 C   0  0  0  0  0  0  0  0  0  0  0  0
   18.5332   48.0981   42.6004 C   0  0  0  0  0  0  0  0  0  0  0  0
   19.1303   47.9709   41.4088 N   0  0  0  0  0  0  0  0  0  0  0  0
   18.3259   48.5672   40.4849 C   0  0  0  0  0  0  0  0  0  0  0  0
   17.2405   49.0630   41.1417 N   0  0  0  0  0  0  0  0  0  0  0  0
   16.3189   49.6938   40.2808 C   0  0  2  0  0  0  0  0  0  0  0  0
   16.5188   49.1207   38.9709 O   0  0  0  0  0  0  0  0  0  0  0  0
   16.6747   50.1849   38.0136 C   0  0  2  0  0  0  0  0  0  0  0  0
   18.0213   49.9431   37.2667 C   0  0  0  0  0  0  0  0  0  0  0  0
   18.4779   51.1754   36.6761 O   0  0  0  0  0  0  0  0  0  0  0  0
   18.6946   51.0392   34.9865 P   0  0  1  0  0  0  0  0  0  0  0  0
   19.3092   52.3526   34.5936 O   0  0  0  0  0  0  0  0  0  0  0  0
   19.4603   49.8572   34.4281 O   0  0  0  0  0  0  0  0  0  0  0  0
   17.0897   50.9735   34.3710 O   0  0  0  0  0  0  0  0  0  0  0  0
   16.2271   52.0696   34.7504 C   0  0  2  0  0  0  0  0  0  0  0  0
   14.8665   51.5127   34.8524 C   0  0  2  0  0  0  0  0  0  0  0  0
   14.6060   50.5590   33.8175 O   0  0  0  0  0  0  0  0  0  0  0  0
   14.7703   53.7161   36.7029 O   0  0  0  0  0  0  0  0  0  0  0  0
   14.8134   53.5036   38.3556 P   0  0  2  0  0  0  0  0  0  0  0  0
   13.3977   53.6360   38.8993 O   0  0  0  0  0  0  0  0  0  0  0  0
   15.7963   54.4192   39.0560 O   0  0  0  0  0  0  0  0  0  0  0  0
   15.1733   51.8589   38.5468 O   0  0  0  0  0  0  0  0  0  0  0  0
   16.8607   51.1264   40.1090 C   0  0  2  0  0  0  0  0  0  0  0  0
   16.2974   52.0261   41.0436 O   0  0  0  0  0  0  0  0  0  0  0  0
   14.7647   53.5889   33.8461 O   0  0  0  0  0  0  0  0  0  0  0  0
   16.1071   53.0725   33.6332 C   0  0  1  0  0  0  0  0  0  0  0  0
   16.9653   54.2191   33.7517 N   0  0  0  0  0  0  0  0  0  0  0  0
   17.1914   55.0501   34.7887 C   0  0  0  0  0  0  0  0  0  0  0  0
   18.0473   55.9986   34.3794 N   0  0  0  0  0  0  0  0  0  0  0  0
   18.3354   55.7576   33.0862 C   0  0  0  0  0  0  0  0  0  0  0  0
   19.1498   56.4312   32.2182 C   0  0  0  0  0  0  0  0  0  0  0  0
   19.9934   57.6028   32.3227 N   0  0  0  0  0  0  0  0  0  0  0  0
   19.2907   56.0187   30.9576 N   0  0  0  0  0  0  0  0  0  0  0  0
   18.6171   54.9098   30.5387 C   0  0  0  0  0  0  0  0  0  0  0  0
   17.8036   54.2400   31.4091 N   0  0  0  0  0  0  0  0  0  0  0  0
   17.6675   54.6661   32.6825 C   0  0  0  0  0  0  0  0  0  0  0  0
   18.8486   47.6688   44.0413 C   0  0  0  0  0  0  0  0  0  0  0  0
   19.8434   47.0745   44.3218 O   0  0  0  0  0  0  0  0  0  0  0  0
   17.9260   47.9874   45.0832 N   0  0  0  0  0  0  0  0  0  0  0  0
   13.0723   52.4243   34.0341 H   0  0  0  0  0  0  0  0  0  0  0  0
   12.9270   54.2171   35.7325 H   0  0  0  0  0  0  0  0  0  0  0  0
   12.9475   52.6012   36.5024 H   0  0  0  0  0  0  0  0  0  0  0  0
   17.2471   52.2915   38.3627 H   0  0  0  0  0  0  0  0  0  0  0  0
   15.9564   48.7718   46.8584 H   0  0  0  0  0  0  0  0  0  0  0  0
   14.8922   49.5632   45.6652 H   0  0  0  0  0  0  0  0  0  0  0  0
   18.5182   48.6359   39.4040 H   0  0  0  0  0  0  0  0  0  0  0  0
   15.2855   49.6168   40.6498 H   0  0  0  0  0  0  0  0  0  0  0  0
   15.8753   50.2010   37.2582 H   0  0  0  0  0  0  0  0  0  0  0  0
   18.7748   49.5786   37.9804 H   0  0  0  0  0  0  0  0  0  0  0  0
   17.8692   49.1945   36.4751 H   0  0  0  0  0  0  0  0  0  0  0  0
   16.6250   52.5304   35.6665 H   0  0  0  0  0  0  0  0  0  0  0  0
   14.7133   51.0134   35.8205 H   0  0  0  0  0  0  0  0  0  0  0  0
   14.3680   49.6881   34.2237 H   0  0  0  0  0  0  0  0  0  0  0  0
   17.9396   51.1844   40.3154 H   0  0  0  0  0  0  0  0  0  0  0  0
   16.4933   51.7132   41.9622 H   0  0  0  0  0  0  0  0  0  0  0  0
   16.3506   52.5914   32.6744 H   0  0  0  0  0  0  0  0  0  0  0  0
   16.7517   54.9654   35.7934 H   0  0  0  0  0  0  0  0  0  0  0  0
   20.5278   57.9272   31.5041 H   0  0  0  0  0  0  0  0  0  0  0  0
   20.0592   58.1121   33.2155 H   0  0  0  0  0  0  0  0  0  0  0  0
   18.7280   54.5552   29.5033 H   0  0  0  0  0  0  0  0  0  0  0  0
   18.1378   47.6949   46.0478 H   0  0  0  0  0  0  0  0  0  0  0  0
  1  2  1  0
  1 22  1  0
  1 31  1  0
  2 24  1  0
  3 14  1  0
  3 28  1  0
  3 29  1  0
  4  5  1  0
  5  6  2  0
  5 45  1  0
  6  7  1  0
  7  8  2  0
  7 11  1  0
  8  9  1  0
  8 43  1  0
  9 10  2  0
 10 11  1  0
 12 11  1  0
 12 13  1  0
 12 29  1  0
 13 14  1  0
 14 15  1  0
 15 16  1  0
 16 17  1  0
 17 18  2  0
 17 19  1  1
 17 20  1  0
 21 20  1  0
 21 22  1  0
 21 32  1  0
 22 23  1  0
 24 25  1  0
 25 26  2  0
 25 27  1  1
 25 28  1  0
 29 30  1  0
 31 32  1  0
 32 33  1  0
 33 34  1  0
 33 42  1  0
 34 35  2  0
 35 36  1  0
 36 37  2  0
 36 42  1  0
 37 38  1  0
 37 39  1  0
 39 40  2  0
 40 41  1  0
 41 42  2  0
 43 44  2  0
 43 45  1  0
  1 46  1  6
  2 47  1  0
  2 48  1  0
  3 49  1  6
  4 50  1  0
  4 51  1  0
 10 52  1  0
 12 53  1  1
 14 54  1  6
 15 55  1  0
 15 56  1  0
 21 57  1  1
 22 58  1  1
 23 59  1  0
 29 60  1  6
 30 61  1  0
 32 62  1  6
 34 63  1  0
 38 64  1  0
 38 65  1  0
 40 66  1  0
 45 67  1  0
M  CHG  2  19  -1  27  -1
M  END
>  <filename_input>  (5) 
7RWS_4UR_docked.sdf

>  <pdb_id>  (5) 
7RWS_4UR

>  <pose_rank>  (5) 
4

>  <num_atoms_heavy>  (5) 
45

>  <num_torsions>  (5) 
2

>  <pose>  (5) 
[13.985157831216249, 52.696747941031184, 34.58404014383945, -2.9153515189394277, -2.125068696766579, -0.7590131376093382, -3.8764903701818816, 0.11952144584469077]

>  <energy>  (5) 
-556.2108986551666

>  <inter_energy>  (5) 
-557.9728503567399

>  <intra_energy>  (5) 
11.138385608027287

>  <rmsd>  (5) 
9.39384

>  <sdf_rank>  (5) 
0

$$$$

     RDKit          3D

 67 73  0  0  0  0  0  0  0  0999 V2000
   14.7381   52.0934   39.9610 C   0  0  2  0  0  0  0  0  0  0  0  0
   15.9766   51.2131   40.2518 C   0  0  0  0  0  0  0  0  0  0  0  0
   17.4342   50.4799   36.0413 C   0  0  1  0  0  0  0  0  0  0  0  0
   21.3613   44.9502   33.1009 N   0  0  0  0  0  0  0  0  0  0  0  0
   20.3760   45.8503   32.4941 C   0  0  0  0  0  0  0  0  0  0  0  0
   19.4923   46.5910   33.3465 N   0  0  0  0  0  0  0  0  0  0  0  0
   18.5011   47.5108   32.7333 C   0  0  0  0  0  0  0  0  0  0  0  0
   18.3714   47.6958   31.3876 C   0  0  0  0  0  0  0  0  0  0  0  0
   17.3807   48.5780   31.2063 N   0  0  0  0  0  0  0  0  0  0  0  0
   16.9143   48.9250   32.4386 C   0  0  0  0  0  0  0  0  0  0  0  0
   17.6469   48.2443   33.3635 N   0  0  0  0  0  0  0  0  0  0  0  0
   17.2422   48.5101   34.6878 C   0  0  2  0  0  0  0  0  0  0  0  0
   16.0011   49.2427   34.6011 O   0  0  0  0  0  0  0  0  0  0  0  0
   16.0993   50.4270   35.4140 C   0  0  2  0  0  0  0  0  0  0  0  0
   15.7653   51.6453   34.5008 C   0  0  0  0  0  0  0  0  0  0  0  0
   16.3075   52.8489   35.0782 O   0  0  0  0  0  0  0  0  0  0  0  0
   15.1039   54.0297   35.3561 P   0  0  1  0  0  0  0  0  0  0  0  0
   15.8780   55.2369   35.8037 O   0  0  0  0  0  0  0  0  0  0  0  0
   14.1155   54.3570   34.2555 O   0  0  0  0  0  0  0  0  0  0  0  0
   14.2225   53.4095   36.6968 O   0  0  0  0  0  0  0  0  0  0  0  0
   15.0042   53.1018   37.8732 C   0  0  2  0  0  0  0  0  0  0  0  0
   14.3492   51.9507   38.5191 C   0  0  2  0  0  0  0  0  0  0  0  0
   12.9228   52.0529   38.4624 O   0  0  0  0  0  0  0  0  0  0  0  0
   17.0924   51.6353   39.3342 O   0  0  0  0  0  0  0  0  0  0  0  0
   18.1014   50.4885   38.6672 P   0  0  2  0  0  0  0  0  0  0  0  0
   18.2033   49.3129   39.6289 O   0  0  0  0  0  0  0  0  0  0  0  0
   19.4564   51.0362   38.2682 O   0  0  0  0  0  0  0  0  0  0  0  0
   17.2140   49.8734   37.3613 O   0  0  0  0  0  0  0  0  0  0  0  0
   18.2309   49.5793   35.1925 C   0  0  2  0  0  0  0  0  0  0  0  0
   19.3402   49.0087   35.8590 O   0  0  0  0  0  0  0  0  0  0  0  0
   15.0314   53.4460   40.1415 O   0  0  0  0  0  0  0  0  0  0  0  0
   14.8797   54.1933   38.9035 C   0  0  1  0  0  0  0  0  0  0  0  0
   15.9568   55.1445   38.9137 N   0  0  0  0  0  0  0  0  0  0  0  0
   17.2792   54.9798   39.1169 C   0  0  0  0  0  0  0  0  0  0  0  0
   17.8581   56.1892   39.0721 N   0  0  0  0  0  0  0  0  0  0  0  0
   16.8884   57.0980   38.8554 C   0  0  0  0  0  0  0  0  0  0  0  0
   16.9588   58.4581   38.7311 C   0  0  0  0  0  0  0  0  0  0  0  0
   18.0356   59.4246   38.7697 N   0  0  0  0  0  0  0  0  0  0  0  0
   15.8573   59.1805   38.5216 N   0  0  0  0  0  0  0  0  0  0  0  0
   14.6527   58.5489   38.4257 C   0  0  0  0  0  0  0  0  0  0  0  0
   14.5866   57.1896   38.5513 N   0  0  0  0  0  0  0  0  0  0  0  0
   15.7072   56.4679   38.7638 C   0  0  0  0  0  0  0  0  0  0  0  0
   19.3140   46.8962   30.4755 C   0  0  0  0  0  0  0  0  0  0  0  0
   19.2759   46.9893   29.2875 O   0  0  0  0  0  0  0  0  0  0  0  0
   20.2686   46.0108   31.0613 N   0  0  0  0  0  0  0  0  0  0  0  0
   13.9398   51.7695   40.6450 H   0  0  0  0  0  0  0  0  0  0  0  0
   16.2877   51.3453   41.2986 H   0  0  0  0  0  0  0  0  0  0  0  0
   15.7325   50.1538   40.0837 H   0  0  0  0  0  0  0  0  0  0  0  0
   17.9113   51.4664   36.1374 H   0  0  0  0  0  0  0  0  0  0  0  0
   22.0034   44.4110   32.5026 H   0  0  0  0  0  0  0  0  0  0  0  0
   21.4114   44.8570   34.1254 H   0  0  0  0  0  0  0  0  0  0  0  0
   16.0945   49.6277   32.6485 H   0  0  0  0  0  0  0  0  0  0  0  0
   17.1799   47.5950   35.2950 H   0  0  0  0  0  0  0  0  0  0  0  0
   15.3832   50.4329   36.2490 H   0  0  0  0  0  0  0  0  0  0  0  0
   16.2052   51.4872   33.5051 H   0  0  0  0  0  0  0  0  0  0  0  0
   14.6735   51.7445   34.4111 H   0  0  0  0  0  0  0  0  0  0  0  0
   16.0507   52.9487   37.5708 H   0  0  0  0  0  0  0  0  0  0  0  0
   14.6412   51.0058   38.0374 H   0  0  0  0  0  0  0  0  0  0  0  0
   12.5570   52.0792   39.3820 H   0  0  0  0  0  0  0  0  0  0  0  0
   18.6896   50.1378   34.3633 H   0  0  0  0  0  0  0  0  0  0  0  0
   19.2079   49.0767   36.8377 H   0  0  0  0  0  0  0  0  0  0  0  0
   13.9546   54.7629   38.7311 H   0  0  0  0  0  0  0  0  0  0  0  0
   17.7930   54.0226   39.2892 H   0  0  0  0  0  0  0  0  0  0  0  0
   17.8328   60.4269   38.6466 H   0  0  0  0  0  0  0  0  0  0  0  0
   19.0048   59.1100   38.9203 H   0  0  0  0  0  0  0  0  0  0  0  0
   13.7369   59.1317   38.2478 H   0  0  0  0  0  0  0  0  0  0  0  0
   20.8968   45.4727   30.4475 H   0  0  0  0  0  0  0  0  0  0  0  0
  1  2  1  0
  1 22  1  0
  1 31  1  0
  2 24  1  0
  3 14  1  0
  3 28  1  0
  3 29  1  0
  4  5  1  0
  5  6  2  0
  5 45  1  0
  6  7  1  0
  7  8  2  0
  7 11  1  0
  8  9  1  0
  8 43  1  0
  9 10  2  0
 10 11  1  0
 12 11  1  0
 12 13  1  0
 12 29  1  0
 13 14  1  0
 14 15  1  0
 15 16  1  0
 16 17  1  0
 17 18  2  0
 17 19  1  6
 17 20  1  0
 21 20  1  0
 21 22  1  0
 21 32  1  0
 22 23  1  0
 24 25  1  0
 25 26  2  0
 25 27  1  6
 25 28  1  0
 29 30  1  0
 31 32  1  0
 32 33  1  0
 33 34  1  0
 33 42  1  0
 34 35  2  0
 35 36  1  0
 36 37  2  0
 36 42  1  0
 37 38  1  0
 37 39  1  0
 39 40  2  0
 40 41  1  0
 41 42  2  0
 43 44  2  0
 43 45  1  0
  1 46  1  1
  2 47  1  0
  2 48  1  0
  3 49  1  1
  4 50  1  0
  4 51  1  0
 10 52  1  0
 12 53  1  1
 14 54  1  1
 15 55  1  0
 15 56  1  0
 21 57  1  6
 22 58  1  6
 23 59  1  0
 29 60  1  6
 30 61  1  0
 32 62  1  1
 34 63  1  0
 38 64  1  0
 38 65  1  0
 40 66  1  0
 45 67  1  0
M  CHG  2  19  -1  27  -1
M  END
>  <filename_input>  (6) 
7RWS_4UR_docked.sdf

>  <pdb_id>  (6) 
7RWS_4UR

>  <pose_rank>  (6) 
5

>  <num_atoms_heavy>  (6) 
45

>  <num_torsions>  (6) 
2

>  <pose>  (6) 
[14.738081979678523, 52.09342052829509, 39.961049029523004, 3.897833877102595, 1.971416936749707, -0.31563334156604084, 8.446419907696018, -0.07305797003795822]

>  <energy>  (6) 
-426.01115098005863

>  <inter_energy>  (6) 
-435.6373638146634

>  <intra_energy>  (6) 
11.62101739336382

>  <rmsd>  (6) 
8.8149

>  <sdf_rank>  (6) 
0

$$$$

     RDKit          3D

 67 73  0  0  0  0  0  0  0  0999 V2000
   14.9629   53.5036   34.9247 C   0  0  2  0  0  0  0  0  0  0  0  0
   14.5607   54.2814   36.2002 C   0  0  0  0  0  0  0  0  0  0  0  0
   16.5778   51.7449   39.3446 C   0  0  1  0  0  0  0  0  0  0  0  0
   21.1387   48.9738   41.3573 N   0  0  0  0  0  0  0  0  0  0  0  0
   19.8719   48.6634   42.0269 C   0  0  0  0  0  0  0  0  0  0  0  0
   18.6573   49.2265   41.5135 N   0  0  0  0  0  0  0  0  0  0  0  0
   17.3726   48.9043   42.1846 C   0  0  0  0  0  0  0  0  0  0  0  0
   17.2725   48.0972   43.2803 C   0  0  0  0  0  0  0  0  0  0  0  0
   15.9765   48.0449   43.6123 N   0  0  0  0  0  0  0  0  0  0  0  0
   15.2963   48.8173   42.7195 C   0  0  0  0  0  0  0  0  0  0  0  0
   16.2032   49.3270   41.8401 N   0  0  0  0  0  0  0  0  0  0  0  0
   15.6157   50.1645   40.8696 C   0  0  2  0  0  0  0  0  0  0  0  0
   15.7989   49.5112   39.5952 O   0  0  0  0  0  0  0  0  0  0  0  0
   16.3716   50.4504   38.6663 C   0  0  2  0  0  0  0  0  0  0  0  0
   17.6709   49.8051   38.0961 C   0  0  0  0  0  0  0  0  0  0  0  0
   18.5331   50.8322   37.5691 O   0  0  0  0  0  0  0  0  0  0  0  0
   18.9051   50.5785   35.9206 P   0  0  1  0  0  0  0  0  0  0  0  0
   19.9167   51.6449   35.6099 O   0  0  0  0  0  0  0  0  0  0  0  0
   19.3576   49.2070   35.4631 O   0  0  0  0  0  0  0  0  0  0  0  0
   17.4373   50.9545   35.1064 O   0  0  0  0  0  0  0  0  0  0  0  0
   16.8895   52.2652   35.3739 C   0  0  2  0  0  0  0  0  0  0  0  0
   15.4241   52.1267   35.3020 C   0  0  2  0  0  0  0  0  0  0  0  0
   15.0265   51.2514   34.2418 O   0  0  0  0  0  0  0  0  0  0  0  0
   15.7456   54.3302   37.1269 O   0  0  0  0  0  0  0  0  0  0  0  0
   15.5239   54.1741   38.7715 P   0  0  2  0  0  0  0  0  0  0  0  0
   14.1519   54.7271   39.1312 O   0  0  0  0  0  0  0  0  0  0  0  0
   16.6369   54.7934   39.5916 O   0  0  0  0  0  0  0  0  0  0  0  0
   15.3660   52.5033   39.0057 O   0  0  0  0  0  0  0  0  0  0  0  0
   16.5658   51.3738   40.7689 C   0  0  2  0  0  0  0  0  0  0  0  0
   16.1777   52.4306   41.6251 O   0  0  0  0  0  0  0  0  0  0  0  0
   16.0511   54.1069   34.2924 O   0  0  0  0  0  0  0  0  0  0  0  0
   17.2020   53.2193   34.2512 C   0  0  1  0  0  0  0  0  0  0  0  0
   18.3343   54.0744   34.4785 N   0  0  0  0  0  0  0  0  0  0  0  0
   19.0180   54.3544   35.6060 C   0  0  0  0  0  0  0  0  0  0  0  0
   19.9669   55.2525   35.3019 N   0  0  0  0  0  0  0  0  0  0  0  0
   19.8562   55.5346   33.9898 C   0  0  0  0  0  0  0  0  0  0  0  0
   20.5819   56.3836   33.2005 C   0  0  0  0  0  0  0  0  0  0  0  0
   21.7038   57.2692   33.4291 N   0  0  0  0  0  0  0  0  0  0  0  0
   20.2966   56.5195   31.9047 N   0  0  0  0  0  0  0  0  0  0  0  0
   19.2729   55.7968   31.3670 C   0  0  0  0  0  0  0  0  0  0  0  0
   18.5497   54.9501   32.1595 N   0  0  0  0  0  0  0  0  0  0  0  0
   18.8463   54.8204   33.4698 C   0  0  0  0  0  0  0  0  0  0  0  0
   18.5756   47.5005   43.8334 C   0  0  0  0  0  0  0  0  0  0  0  0
   18.5900   46.7853   44.7871 O   0  0  0  0  0  0  0  0  0  0  0  0
   19.8128   47.8078   43.1907 N   0  0  0  0  0  0  0  0  0  0  0  0
   14.0842   53.4852   34.2632 H   0  0  0  0  0  0  0  0  0  0  0  0
   14.2587   55.3042   35.9307 H   0  0  0  0  0  0  0  0  0  0  0  0
   13.7166   53.7795   36.6958 H   0  0  0  0  0  0  0  0  0  0  0  0
   17.4825   52.3149   39.0867 H   0  0  0  0  0  0  0  0  0  0  0  0
   22.0201   48.5774   41.7135 H   0  0  0  0  0  0  0  0  0  0  0  0
   21.1472   49.5883   40.5308 H   0  0  0  0  0  0  0  0  0  0  0  0
   14.2111   48.9969   42.7104 H   0  0  0  0  0  0  0  0  0  0  0  0
   14.5674   50.4010   41.1044 H   0  0  0  0  0  0  0  0  0  0  0  0
   15.7092   50.6683   37.8155 H   0  0  0  0  0  0  0  0  0  0  0  0
   18.1939   49.2655   38.8995 H   0  0  0  0  0  0  0  0  0  0  0  0
   17.4061   49.1038   37.2912 H   0  0  0  0  0  0  0  0  0  0  0  0
   17.2892   52.6250   36.3335 H   0  0  0  0  0  0  0  0  0  0  0  0
   15.0163   51.7278   36.2425 H   0  0  0  0  0  0  0  0  0  0  0  0
   14.6489   50.4200   34.6243 H   0  0  0  0  0  0  0  0  0  0  0  0
   17.5817   51.1269   41.1107 H   0  0  0  0  0  0  0  0  0  0  0  0
   16.2820   52.1467   42.5678 H   0  0  0  0  0  0  0  0  0  0  0  0
   17.4105   52.6542   33.3308 H   0  0  0  0  0  0  0  0  0  0  0  0
   18.8308   53.9225   36.6002 H   0  0  0  0  0  0  0  0  0  0  0  0
   22.0882   57.8248   32.6516 H   0  0  0  0  0  0  0  0  0  0  0  0
   22.1178   57.3438   34.3693 H   0  0  0  0  0  0  0  0  0  0  0  0
   19.0300   55.8950   30.2987 H   0  0  0  0  0  0  0  0  0  0  0  0
   20.6856   47.4098   43.5659 H   0  0  0  0  0  0  0  0  0  0  0  0
  1  2  1  0
  1 22  1  0
  1 31  1  0
  2 24  1  0
  3 14  1  0
  3 28  1  0
  3 29  1  0
  4  5  1  0
  5  6  2  0
  5 45  1  0
  6  7  1  0
  7  8  2  0
  7 11  1  0
  8  9  1  0
  8 43  1  0
  9 10  2  0
 10 11  1  0
 12 11  1  0
 12 13  1  0
 12 29  1  0
 13 14  1  0
 14 15  1  0
 15 16  1  0
 16 17  1  0
 17 18  2  0
 17 19  1  1
 17 20  1  0
 21 20  1  0
 21 22  1  0
 21 32  1  0
 22 23  1  0
 24 25  1  0
 25 26  2  0
 25 27  1  1
 25 28  1  0
 29 30  1  0
 31 32  1  0
 32 33  1  0
 33 34  1  0
 33 42  1  0
 34 35  2  0
 35 36  1  0
 36 37  2  0
 36 42  1  0
 37 38  1  0
 37 39  1  0
 39 40  2  0
 40 41  1  0
 41 42  2  0
 43 44  2  0
 43 45  1  0
  1 46  1  6
  2 47  1  0
  2 48  1  0
  3 49  1  6
  4 50  1  0
  4 51  1  0
 10 52  1  0
 12 53  1  1
 14 54  1  6
 15 55  1  0
 15 56  1  0
 21 57  1  1
 22 58  1  1
 23 59  1  0
 29 60  1  1
 30 61  1  0
 32 62  1  6
 34 63  1  0
 38 64  1  0
 38 65  1  0
 40 66  1  0
 45 67  1  0
M  CHG  2  19  -1  27  -1
M  END
>  <filename_input>  (7) 
7RWS_4UR_docked.sdf

>  <pdb_id>  (7) 
7RWS_4UR

>  <pose_rank>  (7) 
6

>  <num_atoms_heavy>  (7) 
45

>  <num_torsions>  (7) 
2

>  <pose>  (7) 
[14.962880892844792, 53.50357264119249, 34.92474692854622, -3.3254325014849444, -1.7139264683537896, -0.8105794879480578, -0.027943832041348354, 0.7251682442823096]

>  <energy>  (7) 
-493.02144266257426

>  <inter_energy>  (7) 
-525.2085492563278

>  <intra_energy>  (7) 
29.888182306454276

>  <rmsd>  (7) 
9.1035

>  <sdf_rank>  (7) 
0

$$$$

     RDKit          3D

 67 73  0  0  0  0  0  0  0  0999 V2000
   14.6007   58.6965   37.9090 C   0  0  2  0  0  0  0  0  0  0  0  0
   15.8720   58.6450   38.7892 C   0  0  0  0  0  0  0  0  0  0  0  0
   16.3637   54.1762   39.2110 C   0  0  1  0  0  0  0  0  0  0  0  0
   15.3913   48.8584   37.0027 N   0  0  0  0  0  0  0  0  0  0  0  0
   15.6481   48.9326   38.4442 C   0  0  0  0  0  0  0  0  0  0  0  0
   15.6775   50.2172   39.0805 N   0  0  0  0  0  0  0  0  0  0  0  0
   15.9270   50.2927   40.5422 C   0  0  0  0  0  0  0  0  0  0  0  0
   16.1389   49.1999   41.3314 C   0  0  0  0  0  0  0  0  0  0  0  0
   16.3370   49.6480   42.5775 N   0  0  0  0  0  0  0  0  0  0  0  0
   16.2442   51.0068   42.5408 C   0  0  0  0  0  0  0  0  0  0  0  0
   15.9779   51.3674   41.2545 N   0  0  0  0  0  0  0  0  0  0  0  0
   15.8757   52.7637   41.0860 C   0  0  2  0  0  0  0  0  0  0  0  0
   14.6469   53.0038   40.3672 O   0  0  0  0  0  0  0  0  0  0  0  0
   14.9232   53.8561   39.2401 C   0  0  2  0  0  0  0  0  0  0  0  0
   14.3973   53.1265   37.9670 C   0  0  0  0  0  0  0  0  0  0  0  0
   15.0548   53.6531   36.7981 O   0  0  0  0  0  0  0  0  0  0  0  0
   13.9434   54.2711   35.6567 P   0  0  1  0  0  0  0  0  0  0  0  0
   14.7985   54.6207   34.4719 O   0  0  0  0  0  0  0  0  0  0  0  0
   12.7369   53.4409   35.2689 O   0  0  0  0  0  0  0  0  0  0  0  0
   13.3790   55.7262   36.3799 O   0  0  0  0  0  0  0  0  0  0  0  0
   14.4007   56.6771   36.7561 C   0  0  2  0  0  0  0  0  0  0  0  0
   13.9031   57.3692   37.9582 C   0  0  2  0  0  0  0  0  0  0  0  0
   12.4994   57.6353   37.8729 O   0  0  0  0  0  0  0  0  0  0  0  0
   16.7582   57.5361   38.2890 O   0  0  0  0  0  0  0  0  0  0  0  0
   17.5939   56.5847   39.3728 P   0  0  2  0  0  0  0  0  0  0  0  0
   17.9043   57.4156   40.6099 O   0  0  0  0  0  0  0  0  0  0  0  0
   18.8280   55.9365   38.7795 O   0  0  0  0  0  0  0  0  0  0  0  0
   16.4396   55.4664   39.9097 O   0  0  0  0  0  0  0  0  0  0  0  0
   16.9525   53.1119   40.0398 C   0  0  2  0  0  0  0  0  0  0  0  0
   18.1810   53.4760   40.6387 O   0  0  0  0  0  0  0  0  0  0  0  0
   14.9281   58.9021   36.5679 O   0  0  0  0  0  0  0  0  0  0  0  0
   14.5077   57.7833   35.7397 C   0  0  1  0  0  0  0  0  0  0  0  0
   15.5615   57.6228   34.7760 N   0  0  0  0  0  0  0  0  0  0  0  0
   16.6934   56.8918   34.8179 C   0  0  0  0  0  0  0  0  0  0  0  0
   17.3730   57.1168   33.6834 N   0  0  0  0  0  0  0  0  0  0  0  0
   16.6646   57.9973   32.9512 C   0  0  0  0  0  0  0  0  0  0  0  0
   16.9261   58.5456   31.7258 C   0  0  0  0  0  0  0  0  0  0  0  0
   17.9991   58.4108   30.7637 N   0  0  0  0  0  0  0  0  0  0  0  0
   16.0794   59.4167   31.1751 N   0  0  0  0  0  0  0  0  0  0  0  0
   14.9404   59.7549   31.8440 C   0  0  0  0  0  0  0  0  0  0  0  0
   14.6833   59.2054   33.0686 N   0  0  0  0  0  0  0  0  0  0  0  0
   15.5470   58.3253   33.6174 C   0  0  0  0  0  0  0  0  0  0  0  0
   16.1142   47.8248   40.6469 C   0  0  0  0  0  0  0  0  0  0  0  0
   16.2898   46.8128   41.2520 O   0  0  0  0  0  0  0  0  0  0  0  0
   15.8744   47.7481   39.2416 N   0  0  0  0  0  0  0  0  0  0  0  0
   13.9727   59.5150   38.2905 H   0  0  0  0  0  0  0  0  0  0  0  0
   16.4065   59.6043   38.7246 H   0  0  0  0  0  0  0  0  0  0  0  0
   15.5956   58.4610   39.8379 H   0  0  0  0  0  0  0  0  0  0  0  0
   16.8514   54.2337   38.2267 H   0  0  0  0  0  0  0  0  0  0  0  0
   15.3669   47.9434   36.5304 H   0  0  0  0  0  0  0  0  0  0  0  0
   15.2354   49.7213   36.4623 H   0  0  0  0  0  0  0  0  0  0  0  0
   16.3629   51.6892   43.3953 H   0  0  0  0  0  0  0  0  0  0  0  0
   15.9480   53.3040   42.0414 H   0  0  0  0  0  0  0  0  0  0  0  0
   14.4091   54.8266   39.3018 H   0  0  0  0  0  0  0  0  0  0  0  0
   14.6065   52.0497   38.0501 H   0  0  0  0  0  0  0  0  0  0  0  0
   13.3127   53.2865   37.8777 H   0  0  0  0  0  0  0  0  0  0  0  0
   15.3545   56.1417   36.8731 H   0  0  0  0  0  0  0  0  0  0  0  0
   14.0806   56.7700   38.8635 H   0  0  0  0  0  0  0  0  0  0  0  0
   12.1211   57.7070   38.7849 H   0  0  0  0  0  0  0  0  0  0  0  0
   17.2175   52.2432   39.4192 H   0  0  0  0  0  0  0  0  0  0  0  0
   18.0887   53.4487   41.6240 H   0  0  0  0  0  0  0  0  0  0  0  0
   13.5680   57.8592   35.1730 H   0  0  0  0  0  0  0  0  0  0  0  0
   17.0048   56.2279   35.6378 H   0  0  0  0  0  0  0  0  0  0  0  0
   17.9716   58.9449   29.8834 H   0  0  0  0  0  0  0  0  0  0  0  0
   18.7901   57.7807   30.9594 H   0  0  0  0  0  0  0  0  0  0  0  0
   14.2306   60.4680   31.3993 H   0  0  0  0  0  0  0  0  0  0  0  0
   15.8624   46.8253   38.7842 H   0  0  0  0  0  0  0  0  0  0  0  0
  1  2  1  0
  1 22  1  0
  1 31  1  0
  2 24  1  0
  3 14  1  0
  3 28  1  0
  3 29  1  0
  4  5  1  0
  5  6  2  0
  5 45  1  0
  6  7  1  0
  7  8  2  0
  7 11  1  0
  8  9  1  0
  8 43  1  0
  9 10  2  0
 10 11  1  0
 12 11  1  0
 12 13  1  0
 12 29  1  0
 13 14  1  0
 14 15  1  0
 15 16  1  0
 16 17  1  0
 17 18  2  0
 17 19  1  6
 17 20  1  0
 21 20  1  0
 21 22  1  0
 21 32  1  0
 22 23  1  0
 24 25  1  0
 25 26  2  0
 25 27  1  6
 25 28  1  0
 29 30  1  0
 31 32  1  0
 32 33  1  0
 33 34  1  0
 33 42  1  0
 34 35  2  0
 35 36  1  0
 36 37  2  0
 36 42  1  0
 37 38  1  0
 37 39  1  0
 39 40  2  0
 40 41  1  0
 41 42  2  0
 43 44  2  0
 43 45  1  0
  1 46  1  1
  2 47  1  0
  2 48  1  0
  3 49  1  6
  4 50  1  0
  4 51  1  0
 10 52  1  0
 12 53  1  1
 14 54  1  1
 15 55  1  0
 15 56  1  0
 21 57  1  1
 22 58  1  1
 23 59  1  0
 29 60  1  6
 30 61  1  0
 32 62  1  6
 34 63  1  0
 38 64  1  0
 38 65  1  0
 40 66  1  0
 45 67  1  0
M  CHG  2  19  -1  27  -1
M  END
>  <filename_input>  (8) 
7RWS_4UR_docked.sdf

>  <pdb_id>  (8) 
7RWS_4UR

>  <pose_rank>  (8) 
7

>  <num_atoms_heavy>  (8) 
45

>  <num_torsions>  (8) 
2

>  <pose>  (8) 
[14.600731593119496, 58.69647139762048, 37.90897258143352, -3.0321419673712224, -0.4008520140931566, 0.9823495299450598, -0.29167637428508786, 0.5957532195024982]

>  <energy>  (8) 
-491.7878473778361

>  <inter_energy>  (8) 
-514.3184647988012

>  <intra_energy>  (8) 
22.159254291646914

>  <rmsd>  (8) 
10.0536

>  <sdf_rank>  (8) 
0

$$$$

     RDKit          3D

 67 73  0  0  0  0  0  0  0  0999 V2000
   15.6301   47.5312   37.7936 C   0  0  2  0  0  0  0  0  0  0  0  0
   16.1454   48.1452   36.4703 C   0  0  0  0  0  0  0  0  0  0  0  0
   15.0381   52.4743   37.1210 C   0  0  1  0  0  0  0  0  0  0  0  0
   15.8073   58.3570   34.1143 N   0  0  0  0  0  0  0  0  0  0  0  0
   14.6362   58.0053   34.9230 C   0  0  0  0  0  0  0  0  0  0  0  0
   14.3732   56.6238   35.2028 N   0  0  0  0  0  0  0  0  0  0  0  0
   13.1932   56.2672   36.0305 C   0  0  0  0  0  0  0  0  0  0  0  0
   12.3253   57.1852   36.5465 C   0  0  0  0  0  0  0  0  0  0  0  0
   11.3895   56.5050   37.2206 N   0  0  0  0  0  0  0  0  0  0  0  0
   11.6919   55.1809   37.1125 C   0  0  0  0  0  0  0  0  0  0  0  0
   12.8296   55.0769   36.3707 N   0  0  0  0  0  0  0  0  0  0  0  0
   13.2362   53.7411   36.1738 C   0  0  2  0  0  0  0  0  0  0  0  0
   12.7206   52.9840   37.2897 O   0  0  0  0  0  0  0  0  0  0  0  0
   13.7913   52.2129   37.8663 C   0  0  2  0  0  0  0  0  0  0  0  0
   13.8568   52.5713   39.3819 C   0  0  0  0  0  0  0  0  0  0  0  0
   15.1593   52.2433   39.9032 O   0  0  0  0  0  0  0  0  0  0  0  0
   15.0728   51.1489   41.2128 P   0  0  1  0  0  0  0  0  0  0  0  0
   16.4900   51.0585   41.7029 O   0  0  0  0  0  0  0  0  0  0  0  0
   14.0920   51.4111   42.3372 O   0  0  0  0  0  0  0  0  0  0  0  0
   14.6475   49.6557   40.4721 O   0  0  0  0  0  0  0  0  0  0  0  0
   15.5225   49.2101   39.4112 C   0  0  2  0  0  0  0  0  0  0  0  0
   14.6745   48.4839   38.4494 C   0  0  2  0  0  0  0  0  0  0  0  0
   13.6852   47.6889   39.1108 O   0  0  0  0  0  0  0  0  0  0  0  0
   16.8029   49.4640   36.7765 O   0  0  0  0  0  0  0  0  0  0  0  0
   16.6079   50.7530   35.7378 P   0  0  2  0  0  0  0  0  0  0  0  0
   16.4198   50.2150   34.3262 O   0  0  0  0  0  0  0  0  0  0  0  0
   17.7218   51.7755   35.8299 O   0  0  0  0  0  0  0  0  0  0  0  0
   15.0862   51.3782   36.1437 O   0  0  0  0  0  0  0  0  0  0  0  0
   14.7536   53.7496   36.4436 C   0  0  2  0  0  0  0  0  0  0  0  0
   15.5052   53.9416   35.2610 O   0  0  0  0  0  0  0  0  0  0  0  0
   16.6734   47.3555   38.7039 O   0  0  0  0  0  0  0  0  0  0  0  0
   16.4713   48.1497   39.9049 C   0  0  1  0  0  0  0  0  0  0  0  0
   17.7814   48.6234   40.2574 N   0  0  0  0  0  0  0  0  0  0  0  0
   18.6981   48.1310   41.1143 C   0  0  0  0  0  0  0  0  0  0  0  0
   19.7468   48.9676   41.1235 N   0  0  0  0  0  0  0  0  0  0  0  0
   19.4674   49.9814   40.2824 C   0  0  0  0  0  0  0  0  0  0  0  0
   20.2050   51.0821   39.9437 C   0  0  0  0  0  0  0  0  0  0  0  0
   21.5118   51.5801   40.3171 N   0  0  0  0  0  0  0  0  0  0  0  0
   19.7295   51.9810   39.0805 N   0  0  0  0  0  0  0  0  0  0  0  0
   18.4968   51.7907   38.5296 C   0  0  0  0  0  0  0  0  0  0  0  0
   17.7627   50.6898   38.8714 N   0  0  0  0  0  0  0  0  0  0  0  0
   18.2528   49.7865   39.7464 C   0  0  0  0  0  0  0  0  0  0  0  0
   12.6044   58.6643   36.2398 C   0  0  0  0  0  0  0  0  0  0  0  0
   11.9026   59.5387   36.6452 O   0  0  0  0  0  0  0  0  0  0  0  0
   13.7381   59.0112   35.4444 N   0  0  0  0  0  0  0  0  0  0  0  0
   15.1589   46.5689   37.5449 H   0  0  0  0  0  0  0  0  0  0  0  0
   16.8758   47.4660   36.0063 H   0  0  0  0  0  0  0  0  0  0  0  0
   15.3069   48.2961   35.7745 H   0  0  0  0  0  0  0  0  0  0  0  0
   15.9731   52.5269   37.6981 H   0  0  0  0  0  0  0  0  0  0  0  0
   16.0103   59.3447   33.9042 H   0  0  0  0  0  0  0  0  0  0  0  0
   16.4271   57.6164   33.7562 H   0  0  0  0  0  0  0  0  0  0  0  0
   11.1207   54.3468   37.5460 H   0  0  0  0  0  0  0  0  0  0  0  0
   12.9297   53.3540   35.1909 H   0  0  0  0  0  0  0  0  0  0  0  0
   13.6263   51.1281   37.7894 H   0  0  0  0  0  0  0  0  0  0  0  0
   13.6718   53.6479   39.5112 H   0  0  0  0  0  0  0  0  0  0  0  0
   13.0920   51.9969   39.9252 H   0  0  0  0  0  0  0  0  0  0  0  0
   16.0623   50.0808   39.0105 H   0  0  0  0  0  0  0  0  0  0  0  0
   14.1551   49.1794   37.7738 H   0  0  0  0  0  0  0  0  0  0  0  0
   13.7933   47.7758   40.0911 H   0  0  0  0  0  0  0  0  0  0  0  0
   15.0526   54.5972   37.0778 H   0  0  0  0  0  0  0  0  0  0  0  0
   16.4367   54.1795   35.4971 H   0  0  0  0  0  0  0  0  0  0  0  0
   16.0557   47.6682   40.8024 H   0  0  0  0  0  0  0  0  0  0  0  0
   18.6030   47.2063   41.7024 H   0  0  0  0  0  0  0  0  0  0  0  0
   21.8611   52.4618   39.9151 H   0  0  0  0  0  0  0  0  0  0  0  0
   22.0924   51.0528   40.9847 H   0  0  0  0  0  0  0  0  0  0  0  0
   18.0945   52.5212   37.8123 H   0  0  0  0  0  0  0  0  0  0  0  0
   13.9209   60.0033   35.2368 H   0  0  0  0  0  0  0  0  0  0  0  0
  1  2  1  0
  1 22  1  0
  1 31  1  0
  2 24  1  0
  3 14  1  0
  3 28  1  0
  3 29  1  0
  4  5  1  0
  5  6  2  0
  5 45  1  0
  6  7  1  0
  7  8  2  0
  7 11  1  0
  8  9  1  0
  8 43  1  0
  9 10  2  0
 10 11  1  0
 12 11  1  0
 12 13  1  0
 12 29  1  0
 13 14  1  0
 14 15  1  0
 15 16  1  0
 16 17  1  0
 17 18  2  0
 17 19  1  1
 17 20  1  0
 21 20  1  0
 21 22  1  0
 21 32  1  0
 22 23  1  0
 24 25  1  0
 25 26  2  0
 25 27  1  6
 25 28  1  0
 29 30  1  0
 31 32  1  0
 32 33  1  0
 33 34  1  0
 33 42  1  0
 34 35  2  0
 35 36  1  0
 36 37  2  0
 36 42  1  0
 37 38  1  0
 37 39  1  0
 39 40  2  0
 40 41  1  0
 41 42  2  0
 43 44  2  0
 43 45  1  0
  1 46  1  6
  2 47  1  0
  2 48  1  0
  3 49  1  1
  4 50  1  0
  4 51  1  0
 10 52  1  0
 12 53  1  6
 14 54  1  1
 15 55  1  0
 15 56  1  0
 21 57  1  6
 22 58  1  6
 23 59  1  0
 29 60  1  1
 30 61  1  0
 32 62  1  1
 34 63  1  0
 38 64  1  0
 38 65  1  0
 40 66  1  0
 45 67  1  0
M  CHG  2  19  -1  27  -1
M  END
>  <filename_input>  (9) 
7RWS_4UR_docked.sdf

>  <pdb_id>  (9) 
7RWS_4UR

>  <pose_rank>  (9) 
8

>  <num_atoms_heavy>  (9) 
45

>  <num_torsions>  (9) 
2

>  <pose>  (9) 
[15.630111331346574, 47.53123469423782, 37.793568517781985, 0.1562819566958505, -0.05633924977234236, 0.06174781156023704, 1.518761956646796, 3.665669948830174]

>  <energy>  (9) 
-599.9720503692272

>  <inter_energy>  (9) 
-734.6349464638572

>  <intra_energy>  (9) 
139.2699872349726

>  <rmsd>  (9) 
2.47143

>  <sdf_rank>  (9) 
0

$$$$

     RDKit          3D

 67 73  0  0  0  0  0  0  0  0999 V2000
   14.8302   51.0810   34.7485 C   0  0  2  0  0  0  0  0  0  0  0  0
   13.8863   51.6716   35.8227 C   0  0  0  0  0  0  0  0  0  0  0  0
   16.2564   50.7491   39.5539 C   0  0  1  0  0  0  0  0  0  0  0  0
   21.5409   48.7142   41.6297 N   0  0  0  0  0  0  0  0  0  0  0  0
   20.3510   48.5421   42.4687 C   0  0  0  0  0  0  0  0  0  0  0  0
   19.0553   48.7416   41.8879 N   0  0  0  0  0  0  0  0  0  0  0  0
   17.8492   48.5574   42.7341 C   0  0  0  0  0  0  0  0  0  0  0  0
   17.8957   48.2096   44.0528 C   0  0  0  0  0  0  0  0  0  0  0  0
   16.6308   48.1470   44.4871 N   0  0  0  0  0  0  0  0  0  0  0  0
   15.8233   48.4553   43.4339 C   0  0  0  0  0  0  0  0  0  0  0  0
   16.6229   48.6949   42.3575 N   0  0  0  0  0  0  0  0  0  0  0  0
   15.8959   49.0442   41.2008 C   0  0  2  0  0  0  0  0  0  0  0  0
   16.5918   48.4540   40.0820 O   0  0  0  0  0  0  0  0  0  0  0  0
   16.8110   49.4656   39.0811 C   0  0  2  0  0  0  0  0  0  0  0  0
   18.3397   49.4944   38.7779 C   0  0  0  0  0  0  0  0  0  0  0  0
   18.6948   50.7606   38.1890 O   0  0  0  0  0  0  0  0  0  0  0  0
   19.4328   50.5756   36.6589 P   0  0  1  0  0  0  0  0  0  0  0  0
   19.8594   51.9687   36.2923 O   0  0  0  0  0  0  0  0  0  0  0  0
   20.5525   49.5692   36.4903 O   0  0  0  0  0  0  0  0  0  0  0  0
   18.1352   50.1063   35.6317 O   0  0  0  0  0  0  0  0  0  0  0  0
   16.9962   50.9962   35.6135 C   0  0  2  0  0  0  0  0  0  0  0  0
   15.8094   50.1492   35.3994 C   0  0  2  0  0  0  0  0  0  0  0  0
   16.0700   49.1004   34.4611 O   0  0  0  0  0  0  0  0  0  0  0  0
   14.7191   52.3797   36.8571 O   0  0  0  0  0  0  0  0  0  0  0  0
   14.3047   52.2832   38.4687 P   0  0  2  0  0  0  0  0  0  0  0  0
   12.7948   52.1199   38.5730 O   0  0  0  0  0  0  0  0  0  0  0  0
   14.8258   53.4406   39.2957 O   0  0  0  0  0  0  0  0  0  0  0  0
   14.9138   50.7796   38.9579 O   0  0  0  0  0  0  0  0  0  0  0  0
   16.1641   50.5498   41.0093 C   0  0  2  0  0  0  0  0  0  0  0  0
   15.1766   51.3511   41.6281 O   0  0  0  0  0  0  0  0  0  0  0  0
   15.5992   52.0818   34.1526 O   0  0  0  0  0  0  0  0  0  0  0  0
   17.0186   51.8753   34.3909 C   0  0  1  0  0  0  0  0  0  0  0  0
   17.5520   53.1932   34.6002 N   0  0  0  0  0  0  0  0  0  0  0  0
   18.8211   53.6470   34.5754 C   0  0  0  0  0  0  0  0  0  0  0  0
   18.7992   54.9529   34.8816 N   0  0  0  0  0  0  0  0  0  0  0  0
   17.5174   55.2974   35.1083 C   0  0  0  0  0  0  0  0  0  0  0  0
   16.9701   56.5025   35.4529 C   0  0  0  0  0  0  0  0  0  0  0  0
   17.5045   57.8260   35.6939 N   0  0  0  0  0  0  0  0  0  0  0  0
   15.6549   56.6250   35.6378 N   0  0  0  0  0  0  0  0  0  0  0  0
   14.8531   55.5344   35.4741 C   0  0  0  0  0  0  0  0  0  0  0  0
   15.4041   54.3318   35.1305 N   0  0  0  0  0  0  0  0  0  0  0  0
   16.7364   54.2184   34.9464 C   0  0  0  0  0  0  0  0  0  0  0  0
   19.2849   48.0033   44.6754 C   0  0  0  0  0  0  0  0  0  0  0  0
   19.4276   47.6996   45.8194 O   0  0  0  0  0  0  0  0  0  0  0  0
   20.4469   48.1793   43.8649 N   0  0  0  0  0  0  0  0  0  0  0  0
   14.1996   50.5737   34.0035 H   0  0  0  0  0  0  0  0  0  0  0  0
   13.1920   52.3847   35.3543 H   0  0  0  0  0  0  0  0  0  0  0  0
   13.3048   50.8663   36.2955 H   0  0  0  0  0  0  0  0  0  0  0  0
   16.8152   51.6645   39.3094 H   0  0  0  0  0  0  0  0  0  0  0  0
   22.4789   48.5746   42.0316 H   0  0  0  0  0  0  0  0  0  0  0  0
   21.4388   48.9746   40.6384 H   0  0  0  0  0  0  0  0  0  0  0  0
   14.7244   48.5023   43.4500 H   0  0  0  0  0  0  0  0  0  0  0  0
   14.8371   48.7547   41.2721 H   0  0  0  0  0  0  0  0  0  0  0  0
   16.2898   49.2521   38.1362 H   0  0  0  0  0  0  0  0  0  0  0  0
   18.9007   49.3564   39.7139 H   0  0  0  0  0  0  0  0  0  0  0  0
   18.5868   48.6844   38.0758 H   0  0  0  0  0  0  0  0  0  0  0  0
   16.9986   51.5906   36.5391 H   0  0  0  0  0  0  0  0  0  0  0  0
   15.4758   49.6877   36.3405 H   0  0  0  0  0  0  0  0  0  0  0  0
   16.2776   48.2647   34.9496 H   0  0  0  0  0  0  0  0  0  0  0  0
   17.0959   50.8661   41.5008 H   0  0  0  0  0  0  0  0  0  0  0  0
   15.2633   51.2808   42.6118 H   0  0  0  0  0  0  0  0  0  0  0  0
   17.6310   51.4058   33.6070 H   0  0  0  0  0  0  0  0  0  0  0  0
   19.7167   53.0515   34.3447 H   0  0  0  0  0  0  0  0  0  0  0  0
   16.8722   58.5981   35.9488 H   0  0  0  0  0  0  0  0  0  0  0  0
   18.5169   57.9957   35.6105 H   0  0  0  0  0  0  0  0  0  0  0  0
   13.7661   55.6222   35.6182 H   0  0  0  0  0  0  0  0  0  0  0  0
   21.3774   48.0444   44.2856 H   0  0  0  0  0  0  0  0  0  0  0  0
  1  2  1  0
  1 22  1  0
  1 31  1  0
  2 24  1  0
  3 14  1  0
  3 28  1  0
  3 29  1  0
  4  5  1  0
  5  6  2  0
  5 45  1  0
  6  7  1  0
  7  8  2  0
  7 11  1  0
  8  9  1  0
  8 43  1  0
  9 10  2  0
 10 11  1  0
 12 11  1  0
 12 13  1  0
 12 29  1  0
 13 14  1  0
 14 15  1  0
 15 16  1  0
 16 17  1  0
 17 18  2  0
 17 19  1  1
 17 20  1  0
 21 20  1  0
 21 22  1  0
 21 32  1  0
 22 23  1  0
 24 25  1  0
 25 26  2  0
 25 27  1  1
 25 28  1  0
 29 30  1  0
 31 32  1  0
 32 33  1  0
 33 34  1  0
 33 42  1  0
 34 35  2  0
 35 36  1  0
 36 37  2  0
 36 42  1  0
 37 38  1  0
 37 39  1  0
 39 40  2  0
 40 41  1  0
 41 42  2  0
 43 44  2  0
 43 45  1  0
  1 46  1  6
  2 47  1  0
  2 48  1  0
  3 49  1  1
  4 50  1  0
  4 51  1  0
 10 52  1  0
 12 53  1  1
 14 54  1  6
 15 55  1  0
 15 56  1  0
 21 57  1  1
 22 58  1  1
 23 59  1  0
 29 60  1  1
 30 61  1  0
 32 62  1  6
 34 63  1  0
 38 64  1  0
 38 65  1  0
 40 66  1  0
 45 67  1  0
M  CHG  2  19  -1  27  -1
M  END
>  <filename_input>  (10) 
7RWS_4UR_docked.sdf

>  <pdb_id>  (10) 
7RWS_4UR

>  <pose_rank>  (10) 
9

>  <num_atoms_heavy>  (10) 
45

>  <num_torsions>  (10) 
2

>  <pose>  (10) 
[14.830181545025894, 51.0810472320507, 34.74845946479226, 1.6614204444109486, 1.5413889506550813, 0.8003997813317574, -0.5294504540820296, 2.4673501955649297]

>  <energy>  (10) 
-529.6534074990357

>  <inter_energy>  (10) 
-633.3779948396411

>  <intra_energy>  (10) 
112.02216934706911

>  <rmsd>  (10) 
8.74677

>  <sdf_rank>  (10) 
0

$$$$

     RDKit          3D

 67 73  0  0  0  0  0  0  0  0999 V2000
   14.9629   59.9513   36.7532 C   0  0  2  0  0  0  0  0  0  0  0  0
   13.5006   59.4598   36.6361 C   0  0  0  0  0  0  0  0  0  0  0  0
   14.0671   55.0686   37.5232 C   0  0  1  0  0  0  0  0  0  0  0  0
   16.0334   50.8374   40.7819 N   0  0  0  0  0  0  0  0  0  0  0  0
   15.5615   50.4334   39.4540 C   0  0  0  0  0  0  0  0  0  0  0  0
   15.1394   51.4439   38.5284 N   0  0  0  0  0  0  0  0  0  0  0  0
   14.6712   51.0365   37.1795 C   0  0  0  0  0  0  0  0  0  0  0  0
   14.6109   49.7398   36.7589 C   0  0  0  0  0  0  0  0  0  0  0  0
   14.1356   49.7548   35.5073 N   0  0  0  0  0  0  0  0  0  0  0  0
   13.9105   51.0564   35.1732 C   0  0  0  0  0  0  0  0  0  0  0  0
   14.2669   51.8237   36.2406 N   0  0  0  0  0  0  0  0  0  0  0  0
   14.0611   53.2011   36.0194 C   0  0  2  0  0  0  0  0  0  0  0  0
   15.3683   53.8124   35.9780 O   0  0  0  0  0  0  0  0  0  0  0  0
   15.3859   54.9402   36.8731 C   0  0  2  0  0  0  0  0  0  0  0  0
   16.5751   54.7314   37.8589 C   0  0  0  0  0  0  0  0  0  0  0  0
   16.3657   55.5190   39.0471 O   0  0  0  0  0  0  0  0  0  0  0  0
   17.6524   56.6062   39.3349 P   0  0  1  0  0  0  0  0  0  0  0  0
   17.3251   57.2079   40.6720 O   0  0  0  0  0  0  0  0  0  0  0  0
   19.0799   56.1037   39.2652 O   0  0  0  0  0  0  0  0  0  0  0  0
   17.4513   57.8099   38.1226 O   0  0  0  0  0  0  0  0  0  0  0  0
   16.1570   58.4525   38.0854 C   0  0  2  0  0  0  0  0  0  0  0  0
   15.8941   58.7778   36.6724 C   0  0  2  0  0  0  0  0  0  0  0  0
   17.0759   59.2316   36.0049 O   0  0  0  0  0  0  0  0  0  0  0  0
   13.2373   58.4687   37.7377 O   0  0  0  0  0  0  0  0  0  0  0  0
   12.3014   57.1218   37.4403 P   0  0  2  0  0  0  0  0  0  0  0  0
   11.2876   57.4644   36.3576 O   0  0  0  0  0  0  0  0  0  0  0  0
   11.6557   56.5492   38.6853 O   0  0  0  0  0  0  0  0  0  0  0  0
   13.3653   56.0450   36.6789 O   0  0  0  0  0  0  0  0  0  0  0  0
   13.4832   53.7290   37.3471 C   0  0  2  0  0  0  0  0  0  0  0  0
   12.0689   53.7234   37.3537 O   0  0  0  0  0  0  0  0  0  0  0  0
   15.1970   60.5347   37.9993 O   0  0  0  0  0  0  0  0  0  0  0  0
   16.2073   59.8043   38.7476 C   0  0  1  0  0  0  0  0  0  0  0  0
   15.7477   59.8311   40.1089 N   0  0  0  0  0  0  0  0  0  0  0  0
   14.6015   59.3884   40.6634 C   0  0  0  0  0  0  0  0  0  0  0  0
   14.6305   59.6910   41.9700 N   0  0  0  0  0  0  0  0  0  0  0  0
   15.7890   60.3325   42.2146 C   0  0  0  0  0  0  0  0  0  0  0  0
   16.2905   60.8454   43.3790 C   0  0  0  0  0  0  0  0  0  0  0  0
   15.8199   60.9018   44.7468 N   0  0  0  0  0  0  0  0  0  0  0  0
   17.4755   61.4574   43.3988 N   0  0  0  0  0  0  0  0  0  0  0  0
   18.1913   61.5638   42.2432 C   0  0  0  0  0  0  0  0  0  0  0  0
   17.6862   61.0506   41.0816 N   0  0  0  0  0  0  0  0  0  0  0  0
   16.4857   60.4338   41.0723 C   0  0  0  0  0  0  0  0  0  0  0  0
   15.0566   48.6579   37.7543 C   0  0  0  0  0  0  0  0  0  0  0  0
   15.0387   47.4980   37.4793 O   0  0  0  0  0  0  0  0  0  0  0  0
   15.5076   49.0457   39.0521 N   0  0  0  0  0  0  0  0  0  0  0  0
   15.1294   60.6758   35.9423 H   0  0  0  0  0  0  0  0  0  0  0  0
   12.8138   60.3135   36.7338 H   0  0  0  0  0  0  0  0  0  0  0  0
   13.3413   58.9844   35.6571 H   0  0  0  0  0  0  0  0  0  0  0  0
   14.0493   55.3780   38.5787 H   0  0  0  0  0  0  0  0  0  0  0  0
   16.3401   50.1239   41.4586 H   0  0  0  0  0  0  0  0  0  0  0  0
   16.0582   51.8346   41.0383 H   0  0  0  0  0  0  0  0  0  0  0  0
   13.5128   51.4214   34.2147 H   0  0  0  0  0  0  0  0  0  0  0  0
   13.4497   53.3916   35.1251 H   0  0  0  0  0  0  0  0  0  0  0  0
   15.5502   55.8957   36.3535 H   0  0  0  0  0  0  0  0  0  0  0  0
   16.6409   53.6679   38.1322 H   0  0  0  0  0  0  0  0  0  0  0  0
   17.5102   55.0468   37.3731 H   0  0  0  0  0  0  0  0  0  0  0  0
   15.4217   57.7925   38.5689 H   0  0  0  0  0  0  0  0  0  0  0  0
   15.5117   57.9019   36.1277 H   0  0  0  0  0  0  0  0  0  0  0  0
   17.7548   59.4923   36.6766 H   0  0  0  0  0  0  0  0  0  0  0  0
   13.7461   53.0802   38.1956 H   0  0  0  0  0  0  0  0  0  0  0  0
   11.7433   53.7222   38.2886 H   0  0  0  0  0  0  0  0  0  0  0  0
   17.2425   60.1761   38.7546 H   0  0  0  0  0  0  0  0  0  0  0  0
   13.7862   58.8703   40.1373 H   0  0  0  0  0  0  0  0  0  0  0  0
   16.3946   61.3562   45.4708 H   0  0  0  0  0  0  0  0  0  0  0  0
   14.9104   60.4876   44.9960 H   0  0  0  0  0  0  0  0  0  0  0  0
   19.1724   62.0613   42.2459 H   0  0  0  0  0  0  0  0  0  0  0  0
   15.8021   48.3182   39.7192 H   0  0  0  0  0  0  0  0  0  0  0  0
  1  2  1  0
  1 22  1  0
  1 31  1  0
  2 24  1  0
  3 14  1  0
  3 28  1  0
  3 29  1  0
  4  5  1  0
  5  6  2  0
  5 45  1  0
  6  7  1  0
  7  8  2  0
  7 11  1  0
  8  9  1  0
  8 43  1  0
  9 10  2  0
 10 11  1  0
 12 11  1  0
 12 13  1  0
 12 29  1  0
 13 14  1  0
 14 15  1  0
 15 16  1  0
 16 17  1  0
 17 18  2  0
 17 19  1  1
 17 20  1  0
 21 20  1  0
 21 22  1  0
 21 32  1  0
 22 23  1  0
 24 25  1  0
 25 26  2  0
 25 27  1  1
 25 28  1  0
 29 30  1  0
 31 32  1  0
 32 33  1  0
 33 34  1  0
 33 42  1  0
 34 35  2  0
 35 36  1  0
 36 37  2  0
 36 42  1  0
 37 38  1  0
 37 39  1  0
 39 40  2  0
 40 41  1  0
 41 42  2  0
 43 44  2  0
 43 45  1  0
  1 46  1  6
  2 47  1  0
  2 48  1  0
  3 49  1  1
  4 50  1  0
  4 51  1  0
 10 52  1  0
 12 53  1  6
 14 54  1  6
 15 55  1  0
 15 56  1  0
 21 57  1  1
 22 58  1  6
 23 59  1  0
 29 60  1  1
 30 61  1  0
 32 62  1  1
 34 63  1  0
 38 64  1  0
 38 65  1  0
 40 66  1  0
 45 67  1  0
M  CHG  2  19  -1  27  -1
M  END
>  <filename_input>  (11) 
7RWS_4UR_docked.sdf

>  <pdb_id>  (11) 
7RWS_4UR

>  <pose_rank>  (11) 
10

>  <num_atoms_heavy>  (11) 
45

>  <num_torsions>  (11) 
2

>  <pose>  (11) 
[14.96289605103216, 59.951333631055455, 36.753163448290024, -1.659072171771869, -0.5347507310659817, -2.7934413530553215, 0.011718675970432885, 0.060488269795933164]

>  <energy>  (11) 
-498.5769624253523

>  <inter_energy>  (11) 
-513.3900084119737

>  <intra_energy>  (11) 
16.303717253869152

>  <rmsd>  (11) 
9.28795

>  <sdf_rank>  (11) 
0

$$$$

     RDKit          3D

 67 73  0  0  0  0  0  0  0  0999 V2000
   21.5867   48.8065   43.7908 C   0  0  2  0  0  0  0  0  0  0  0  0
   20.0586   48.7813   43.5503 C   0  0  0  0  0  0  0  0  0  0  0  0
   19.8738   50.6257   39.4328 C   0  0  1  0  0  0  0  0  0  0  0  0
   22.1070   51.2726   34.1662 N   0  0  0  0  0  0  0  0  0  0  0  0
   21.1379   52.2928   34.5775 C   0  0  0  0  0  0  0  0  0  0  0  0
   20.6625   52.2957   35.9303 N   0  0  0  0  0  0  0  0  0  0  0  0
   19.6889   53.3349   36.3507 C   0  0  0  0  0  0  0  0  0  0  0  0
   19.2054   54.3008   35.5168 C   0  0  0  0  0  0  0  0  0  0  0  0
   18.3515   55.0446   36.2311 N   0  0  0  0  0  0  0  0  0  0  0  0
   18.3202   54.5299   37.4923 C   0  0  0  0  0  0  0  0  0  0  0  0
   19.1761   53.4708   37.5269 N   0  0  0  0  0  0  0  0  0  0  0  0
   19.2173   52.8395   38.7871 C   0  0  2  0  0  0  0  0  0  0  0  0
   20.5918   52.8841   39.2264 O   0  0  0  0  0  0  0  0  0  0  0  0
   20.9993   51.5613   39.6230 C   0  0  2  0  0  0  0  0  0  0  0  0
   22.2797   51.2066   38.8080 C   0  0  0  0  0  0  0  0  0  0  0  0
   22.4529   49.7767   38.7724 O   0  0  0  0  0  0  0  0  0  0  0  0
   23.9637   49.2943   39.4089 P   0  0  1  0  0  0  0  0  0  0  0  0
   24.0127   47.8164   39.1434 O   0  0  0  0  0  0  0  0  0  0  0  0
   25.2230   50.0018   38.9521 O   0  0  0  0  0  0  0  0  0  0  0  0
   23.7949   49.5466   41.1021 O   0  0  0  0  0  0  0  0  0  0  0  0
   22.6729   48.8827   41.7265 C   0  0  2  0  0  0  0  0  0  0  0  0
   22.2302   49.7583   42.8260 C   0  0  2  0  0  0  0  0  0  0  0  0
   23.3389   50.3533   43.5080 O   0  0  0  0  0  0  0  0  0  0  0  0
   19.8035   48.3778   42.1230 O   0  0  0  0  0  0  0  0  0  0  0  0
   18.5759   49.1026   41.2592 P   0  0  2  0  0  0  0  0  0  0  0  0
   17.4739   49.5076   42.2282 O   0  0  0  0  0  0  0  0  0  0  0  0
   18.0636   48.2553   40.1126 O   0  0  0  0  0  0  0  0  0  0  0  0
   19.2437   50.5774   40.7591 O   0  0  0  0  0  0  0  0  0  0  0  0
   19.0084   51.3432   38.4827 C   0  0  2  0  0  0  0  0  0  0  0  0
   17.6474   50.9668   38.5624 O   0  0  0  0  0  0  0  0  0  0  0  0
   22.1558   47.5594   43.5281 O   0  0  0  0  0  0  0  0  0  0  0  0
   23.1153   47.6311   42.4380 C   0  0  1  0  0  0  0  0  0  0  0  0
   22.9247   46.4132   41.6996 N   0  0  0  0  0  0  0  0  0  0  0  0
   22.0434   46.0965   40.7299 C   0  0  0  0  0  0  0  0  0  0  0  0
   22.2413   44.8127   40.3946 N   0  0  0  0  0  0  0  0  0  0  0  0
   23.2351   44.3373   41.1690 C   0  0  0  0  0  0  0  0  0  0  0  0
   23.8057   43.0953   41.2172 C   0  0  0  0  0  0  0  0  0  0  0  0
   23.5987   41.8567   40.4973 N   0  0  0  0  0  0  0  0  0  0  0  0
   24.7900   42.8312   42.0777 N   0  0  0  0  0  0  0  0  0  0  0  0
   25.2307   43.8163   42.9110 C   0  0  0  0  0  0  0  0  0  0  0  0
   24.6573   45.0559   42.8601 N   0  0  0  0  0  0  0  0  0  0  0  0
   23.6613   45.3126   41.9861 C   0  0  0  0  0  0  0  0  0  0  0  0
   19.7103   54.2919   34.0659 C   0  0  0  0  0  0  0  0  0  0  0  0
   19.3448   55.0941   33.2632 O   0  0  0  0  0  0  0  0  0  0  0  0
   20.6465   53.2943   33.6580 N   0  0  0  0  0  0  0  0  0  0  0  0
   21.7472   49.0990   44.8390 H   0  0  0  0  0  0  0  0  0  0  0  0
   19.5884   48.0555   44.2302 H   0  0  0  0  0  0  0  0  0  0  0  0
   19.6318   49.7769   43.7413 H   0  0  0  0  0  0  0  0  0  0  0  0
   20.1103   49.6132   39.0736 H   0  0  0  0  0  0  0  0  0  0  0  0
   22.4584   51.2567   33.1981 H   0  0  0  0  0  0  0  0  0  0  0  0
   22.4365   50.5717   34.8452 H   0  0  0  0  0  0  0  0  0  0  0  0
   17.7135   54.9024   38.3308 H   0  0  0  0  0  0  0  0  0  0  0  0
   18.5057   53.2844   39.4982 H   0  0  0  0  0  0  0  0  0  0  0  0
   21.2572   51.4955   40.6903 H   0  0  0  0  0  0  0  0  0  0  0  0
   22.1768   51.5880   37.7813 H   0  0  0  0  0  0  0  0  0  0  0  0
   23.1558   51.6676   39.2875 H   0  0  0  0  0  0  0  0  0  0  0  0
   21.9190   48.6647   40.9558 H   0  0  0  0  0  0  0  0  0  0  0  0
   21.5862   50.5686   42.4537 H   0  0  0  0  0  0  0  0  0  0  0  0
   23.2027   50.2802   44.4859 H   0  0  0  0  0  0  0  0  0  0  0  0
   19.2833   51.0930   37.4474 H   0  0  0  0  0  0  0  0  0  0  0  0
   17.3805   50.8931   39.5129 H   0  0  0  0  0  0  0  0  0  0  0  0
   24.1882   47.6962   42.6716 H   0  0  0  0  0  0  0  0  0  0  0  0
   21.2941   46.7716   40.2909 H   0  0  0  0  0  0  0  0  0  0  0  0
   24.1711   41.0298   40.7199 H   0  0  0  0  0  0  0  0  0  0  0  0
   22.8791   41.8022   39.7624 H   0  0  0  0  0  0  0  0  0  0  0  0
   26.0453   43.6141   43.6219 H   0  0  0  0  0  0  0  0  0  0  0  0
   20.9804   53.2880   32.6836 H   0  0  0  0  0  0  0  0  0  0  0  0
  1  2  1  0
  1 22  1  0
  1 31  1  0
  2 24  1  0
  3 14  1  0
  3 28  1  0
  3 29  1  0
  4  5  1  0
  5  6  2  0
  5 45  1  0
  6  7  1  0
  7  8  2  0
  7 11  1  0
  8  9  1  0
  8 43  1  0
  9 10  2  0
 10 11  1  0
 12 11  1  0
 12 13  1  0
 12 29  1  0
 13 14  1  0
 14 15  1  0
 15 16  1  0
 16 17  1  0
 17 18  2  0
 17 19  1  6
 17 20  1  0
 21 20  1  0
 21 22  1  0
 21 32  1  0
 22 23  1  0
 24 25  1  0
 25 26  2  0
 25 27  1  6
 25 28  1  0
 29 30  1  0
 31 32  1  0
 32 33  1  0
 33 34  1  0
 33 42  1  0
 34 35  2  0
 35 36  1  0
 36 37  2  0
 36 42  1  0
 37 38  1  0
 37 39  1  0
 39 40  2  0
 40 41  1  0
 41 42  2  0
 43 44  2  0
 43 45  1  0
  1 46  1  1
  2 47  1  0
  2 48  1  0
  3 49  1  6
  4 50  1  0
  4 51  1  0
 10 52  1  0
 12 53  1  1
 14 54  1  1
 15 55  1  0
 15 56  1  0
 21 57  1  6
 22 58  1  6
 23 59  1  0
 29 60  1  6
 30 61  1  0
 32 62  1  1
 34 63  1  0
 38 64  1  0
 38 65  1  0
 40 66  1  0
 45 67  1  0
M  CHG  2  19  -1  27  -1
M  END
>  <filename_input>  (12) 
7RWS_4UR_docked.sdf

>  <pdb_id>  (12) 
7RWS_4UR

>  <pose_rank>  (12) 
11

>  <num_atoms_heavy>  (12) 
45

>  <num_torsions>  (12) 
2

>  <pose>  (12) 
[21.586732560772898, 48.806479587548, 43.790818164229194, -0.9934995195206469, 1.5830596034468274, -1.1458206000614601, -0.15304675140179877, 0.5128496020392032]

>  <energy>  (12) 
-243.18900119678233

>  <inter_energy>  (12) 
-262.6735545208809

>  <intra_energy>  (12) 
19.319509463196436

>  <rmsd>  (12) 
7.3171

>  <sdf_rank>  (12) 
0

$$$$

     RDKit          3D

 67 73  0  0  0  0  0  0  0  0999 V2000
   12.4183   53.5544   35.0508 C   0  0  2  0  0  0  0  0  0  0  0  0
   12.7787   54.9470   34.4812 C   0  0  0  0  0  0  0  0  0  0  0  0
   14.7680   56.7896   38.0920 C   0  0  1  0  0  0  0  0  0  0  0  0
   19.3325   58.0154   41.2656 N   0  0  0  0  0  0  0  0  0  0  0  0
   18.0837   58.6460   41.7037 C   0  0  0  0  0  0  0  0  0  0  0  0
   16.8971   58.4573   40.9213 N   0  0  0  0  0  0  0  0  0  0  0  0
   15.6293   59.0869   41.3698 C   0  0  0  0  0  0  0  0  0  0  0  0
   15.5203   59.8507   42.4953 C   0  0  0  0  0  0  0  0  0  0  0  0
   14.2461   60.2543   42.5739 N   0  0  0  0  0  0  0  0  0  0  0  0
   13.5879   59.7351   41.4999 C   0  0  0  0  0  0  0  0  0  0  0  0
   14.4848   59.0055   40.7797 N   0  0  0  0  0  0  0  0  0  0  0  0
   13.9201   58.4275   39.6241 C   0  0  2  0  0  0  0  0  0  0  0  0
   13.4117   57.1342   40.0156 O   0  0  0  0  0  0  0  0  0  0  0  0
   13.9085   56.1398   39.1006 C   0  0  2  0  0  0  0  0  0  0  0  0
   14.6223   55.0442   39.9491 C   0  0  0  0  0  0  0  0  0  0  0  0
   15.5419   54.3086   39.1190 O   0  0  0  0  0  0  0  0  0  0  0  0
   15.2044   52.6335   39.1102 P   0  0  1  0  0  0  0  0  0  0  0  0
   16.3433   52.0391   38.3314 O   0  0  0  0  0  0  0  0  0  0  0  0
   14.9702   51.9154   40.4235 O   0  0  0  0  0  0  0  0  0  0  0  0
   13.7682   52.5094   38.1715 O   0  0  0  0  0  0  0  0  0  0  0  0
   13.8322   53.0868   36.8479 C   0  0  2  0  0  0  0  0  0  0  0  0
   12.4813   53.5942   36.5493 C   0  0  2  0  0  0  0  0  0  0  0  0
   11.4649   52.7090   37.0305 O   0  0  0  0  0  0  0  0  0  0  0  0
   14.1526   55.3238   34.9667 O   0  0  0  0  0  0  0  0  0  0  0  0
   14.4796   56.8996   35.4004 P   0  0  2  0  0  0  0  0  0  0  0  0
   13.5975   57.8241   34.5729 O   0  0  0  0  0  0  0  0  0  0  0  0
   15.9488   57.2577   35.3092 O   0  0  0  0  0  0  0  0  0  0  0  0
   13.8520   57.0305   36.9688 O   0  0  0  0  0  0  0  0  0  0  0  0
   15.1276   58.0618   38.7389 C   0  0  2  0  0  0  0  0  0  0  0  0
   15.4495   59.0905   37.8232 O   0  0  0  0  0  0  0  0  0  0  0  0
   13.3534   52.5954   34.6584 O   0  0  0  0  0  0  0  0  0  0  0  0
   14.0394   52.0208   35.8044 C   0  0  1  0  0  0  0  0  0  0  0  0
   15.3992   51.8507   35.3717 N   0  0  0  0  0  0  0  0  0  0  0  0
   16.1515   52.5727   34.5174 C   0  0  0  0  0  0  0  0  0  0  0  0
   17.3472   51.9737   34.4116 N   0  0  0  0  0  0  0  0  0  0  0  0
   17.3236   50.8754   35.1905 C   0  0  0  0  0  0  0  0  0  0  0  0
   18.2866   49.9330   35.4248 C   0  0  0  0  0  0  0  0  0  0  0  0
   19.6471   49.7398   34.9698 N   0  0  0  0  0  0  0  0  0  0  0  0
   18.0490   48.9051   36.2410 N   0  0  0  0  0  0  0  0  0  0  0  0
   16.8329   48.8026   36.8490 C   0  0  0  0  0  0  0  0  0  0  0  0
   15.8730   49.7460   36.6115 N   0  0  0  0  0  0  0  0  0  0  0  0
   16.1234   50.7820   35.7833 C   0  0  0  0  0  0  0  0  0  0  0  0
   16.7942   60.0578   43.3286 C   0  0  0  0  0  0  0  0  0  0  0  0
   16.7991   60.7098   44.3267 O   0  0  0  0  0  0  0  0  0  0  0  0
   18.0150   59.4539   42.9007 N   0  0  0  0  0  0  0  0  0  0  0  0
   11.4146   53.2999   34.6796 H   0  0  0  0  0  0  0  0  0  0  0  0
   12.7712   54.9109   33.3819 H   0  0  0  0  0  0  0  0  0  0  0  0
   12.0435   55.6925   34.8185 H   0  0  0  0  0  0  0  0  0  0  0  0
   15.6623   56.2427   37.7587 H   0  0  0  0  0  0  0  0  0  0  0  0
   20.1938   58.1411   41.8164 H   0  0  0  0  0  0  0  0  0  0  0  0
   19.3487   57.4467   40.4070 H   0  0  0  0  0  0  0  0  0  0  0  0
   12.5245   59.8791   41.2581 H   0  0  0  0  0  0  0  0  0  0  0  0
   13.1684   59.0811   39.1574 H   0  0  0  0  0  0  0  0  0  0  0  0
   13.1082   55.6469   38.5291 H   0  0  0  0  0  0  0  0  0  0  0  0
   15.1743   55.5214   40.7723 H   0  0  0  0  0  0  0  0  0  0  0  0
   13.8703   54.3541   40.3593 H   0  0  0  0  0  0  0  0  0  0  0  0
   14.6389   53.8343   36.8281 H   0  0  0  0  0  0  0  0  0  0  0  0
   12.3172   54.5806   37.0077 H   0  0  0  0  0  0  0  0  0  0  0  0
   11.4672   52.7110   38.0205 H   0  0  0  0  0  0  0  0  0  0  0  0
   16.0487   57.9465   39.3290 H   0  0  0  0  0  0  0  0  0  0  0  0
   15.7050   59.9073   38.3208 H   0  0  0  0  0  0  0  0  0  0  0  0
   13.7068   51.0481   36.1959 H   0  0  0  0  0  0  0  0  0  0  0  0
   15.8400   53.4913   33.9985 H   0  0  0  0  0  0  0  0  0  0  0  0
   20.1889   48.9272   35.2967 H   0  0  0  0  0  0  0  0  0  0  0  0
   20.0732   50.4150   34.3190 H   0  0  0  0  0  0  0  0  0  0  0  0
   16.6250   47.9630   37.5286 H   0  0  0  0  0  0  0  0  0  0  0  0
   18.8686   59.5975   43.4589 H   0  0  0  0  0  0  0  0  0  0  0  0
  1  2  1  0
  1 22  1  0
  1 31  1  0
  2 24  1  0
  3 14  1  0
  3 28  1  0
  3 29  1  0
  4  5  1  0
  5  6  2  0
  5 45  1  0
  6  7  1  0
  7  8  2  0
  7 11  1  0
  8  9  1  0
  8 43  1  0
  9 10  2  0
 10 11  1  0
 12 11  1  0
 12 13  1  0
 12 29  1  0
 13 14  1  0
 14 15  1  0
 15 16  1  0
 16 17  1  0
 17 18  2  0
 17 19  1  1
 17 20  1  0
 21 20  1  0
 21 22  1  0
 21 32  1  0
 22 23  1  0
 24 25  1  0
 25 26  2  0
 25 27  1  1
 25 28  1  0
 29 30  1  0
 31 32  1  0
 32 33  1  0
 33 34  1  0
 33 42  1  0
 34 35  2  0
 35 36  1  0
 36 37  2  0
 36 42  1  0
 37 38  1  0
 37 39  1  0
 39 40  2  0
 40 41  1  0
 41 42  2  0
 43 44  2  0
 43 45  1  0
  1 46  1  1
  2 47  1  0
  2 48  1  0
  3 49  1  6
  4 50  1  0
  4 51  1  0
 10 52  1  0
 12 53  1  6
 14 54  1  6
 15 55  1  0
 15 56  1  0
 21 57  1  1
 22 58  1  1
 23 59  1  0
 29 60  1  1
 30 61  1  0
 32 62  1  1
 34 63  1  0
 38 64  1  0
 38 65  1  0
 40 66  1  0
 45 67  1  0
M  CHG  2  19  -1  27  -1
M  END
>  <filename_input>  (13) 
7RWS_4UR_docked.sdf

>  <pdb_id>  (13) 
7RWS_4UR

>  <pose_rank>  (13) 
12

>  <num_atoms_heavy>  (13) 
45

>  <num_torsions>  (13) 
2

>  <pose>  (13) 
[12.418320621283337, 53.554410984003304, 35.05082962286275, -4.201937218519144, -1.9871009538419353, 1.8449798679781322, 0.41686581462397854, -0.3924823298097897]

>  <energy>  (13) 
-430.4323110863631

>  <inter_energy>  (13) 
-483.3958715791991

>  <intra_energy>  (13) 
51.38420330734147

>  <rmsd>  (13) 
6.67307

>  <sdf_rank>  (13) 
0

$$$$

     RDKit          3D

 67 73  0  0  0  0  0  0  0  0999 V2000
   20.3523   51.9257   33.8870 C   0  0  2  0  0  0  0  0  0  0  0  0
   21.7529   51.5882   34.4510 C   0  0  0  0  0  0  0  0  0  0  0  0
   20.5819   49.3810   38.2123 C   0  0  1  0  0  0  0  0  0  0  0  0
   15.3369   48.7721   42.0030 N   0  0  0  0  0  0  0  0  0  0  0  0
   16.7040   48.6568   42.5199 C   0  0  0  0  0  0  0  0  0  0  0  0
   17.7889   49.1772   41.7401 N   0  0  0  0  0  0  0  0  0  0  0  0
   19.1728   49.0703   42.2675 C   0  0  0  0  0  0  0  0  0  0  0  0
   19.4842   48.4942   43.4647 C   0  0  0  0  0  0  0  0  0  0  0  0
   20.8140   48.5681   43.6017 N   0  0  0  0  0  0  0  0  0  0  0  0
   21.3037   49.1873   42.4913 C   0  0  0  0  0  0  0  0  0  0  0  0
   20.2460   49.4928   41.6892 N   0  0  0  0  0  0  0  0  0  0  0  0
   20.6317   50.1272   40.4904 C   0  0  2  0  0  0  0  0  0  0  0  0
   19.4218   50.6220   39.8775 O   0  0  0  0  0  0  0  0  0  0  0  0
   19.3802   50.1861   38.5058 C   0  0  2  0  0  0  0  0  0  0  0  0
   18.0312   49.4329   38.2993 C   0  0  0  0  0  0  0  0  0  0  0  0
   18.1280   48.5680   37.1511 O   0  0  0  0  0  0  0  0  0  0  0  0
   16.9359   48.9181   35.9778 P   0  0  1  0  0  0  0  0  0  0  0  0
   17.1042   47.8302   34.9554 O   0  0  0  0  0  0  0  0  0  0  0  0
   15.4931   49.0818   36.4098 O   0  0  0  0  0  0  0  0  0  0  0  0
   17.4593   50.4066   35.2927 O   0  0  0  0  0  0  0  0  0  0  0  0
   18.8038   50.4145   34.7619 C   0  0  2  0  0  0  0  0  0  0  0  0
   19.3261   51.7765   34.9712 C   0  0  2  0  0  0  0  0  0  0  0  0
   18.3240   52.7701   34.7331 O   0  0  0  0  0  0  0  0  0  0  0  0
   21.7258   50.1859   34.9969 O   0  0  0  0  0  0  0  0  0  0  0  0
   22.5476   49.8227   36.4009 P   0  0  2  0  0  0  0  0  0  0  0  0
   23.7547   50.7439   36.5093 O   0  0  0  0  0  0  0  0  0  0  0  0
   22.9173   48.3585   36.5217 O   0  0  0  0  0  0  0  0  0  0  0  0
   21.5122   50.3582   37.6306 O   0  0  0  0  0  0  0  0  0  0  0  0
   21.0394   48.9754   39.5511 C   0  0  2  0  0  0  0  0  0  0  0  0
   22.4250   48.6989   39.6153 O   0  0  0  0  0  0  0  0  0  0  0  0
   19.9828   51.0219   32.8897 O   0  0  0  0  0  0  0  0  0  0  0  0
   18.7919   50.2755   33.2623 C   0  0  1  0  0  0  0  0  0  0  0  0
   19.0245   48.9442   32.7740 N   0  0  0  0  0  0  0  0  0  0  0  0
   19.7467   47.9282   33.2873 C   0  0  0  0  0  0  0  0  0  0  0  0
   19.6876   46.9020   32.4253 N   0  0  0  0  0  0  0  0  0  0  0  0
   18.9404   47.2934   31.3757 C   0  0  0  0  0  0  0  0  0  0  0  0
   18.5850   46.6203   30.2394 C   0  0  0  0  0  0  0  0  0  0  0  0
   18.8400   45.2904   29.7281 N   0  0  0  0  0  0  0  0  0  0  0  0
   17.8308   47.2066   29.3085 N   0  0  0  0  0  0  0  0  0  0  0  0
   17.4087   48.4887   29.5013 C   0  0  0  0  0  0  0  0  0  0  0  0
   17.7668   49.1581   30.6378 N   0  0  0  0  0  0  0  0  0  0  0  0
   18.5308   48.5559   31.5733 C   0  0  0  0  0  0  0  0  0  0  0  0
   18.3214   47.9308   44.2956 C   0  0  0  0  0  0  0  0  0  0  0  0
   18.4936   47.4083   45.3533 O   0  0  0  0  0  0  0  0  0  0  0  0
   16.9894   48.0319   43.7919 N   0  0  0  0  0  0  0  0  0  0  0  0
   20.3984   52.9509   33.4911 H   0  0  0  0  0  0  0  0  0  0  0  0
   22.5023   51.6591   33.6489 H   0  0  0  0  0  0  0  0  0  0  0  0
   22.0172   52.2972   35.2494 H   0  0  0  0  0  0  0  0  0  0  0  0
   20.4611   48.5115   37.5495 H   0  0  0  0  0  0  0  0  0  0  0  0
   14.5464   48.4035   42.5508 H   0  0  0  0  0  0  0  0  0  0  0  0
   15.1670   49.2218   41.0921 H   0  0  0  0  0  0  0  0  0  0  0  0
   22.3618   49.4018   42.2807 H   0  0  0  0  0  0  0  0  0  0  0  0
   21.3971   50.8996   40.6565 H   0  0  0  0  0  0  0  0  0  0  0  0
   19.4059   51.0215   37.7908 H   0  0  0  0  0  0  0  0  0  0  0  0
   17.8081   48.8310   39.1926 H   0  0  0  0  0  0  0  0  0  0  0  0
   17.2267   50.1653   38.1366 H   0  0  0  0  0  0  0  0  0  0  0  0
   19.3756   49.6047   35.2386 H   0  0  0  0  0  0  0  0  0  0  0  0
   19.6956   51.9065   35.9991 H   0  0  0  0  0  0  0  0  0  0  0  0
   17.9827   53.1086   35.5985 H   0  0  0  0  0  0  0  0  0  0  0  0
   20.5741   48.0227   39.8444 H   0  0  0  0  0  0  0  0  0  0  0  0
   22.7067   48.6427   40.5627 H   0  0  0  0  0  0  0  0  0  0  0  0
   17.8153   50.5924   32.8677 H   0  0  0  0  0  0  0  0  0  0  0  0
   20.2890   47.9388   34.2443 H   0  0  0  0  0  0  0  0  0  0  0  0
   18.4522   45.0057   28.8174 H   0  0  0  0  0  0  0  0  0  0  0  0
   19.4093   44.6288   30.2749 H   0  0  0  0  0  0  0  0  0  0  0  0
   16.7819   48.9828   28.7443 H   0  0  0  0  0  0  0  0  0  0  0  0
   16.2119   47.6497   44.3490 H   0  0  0  0  0  0  0  0  0  0  0  0
  1  2  1  0
  1 22  1  0
  1 31  1  0
  2 24  1  0
  3 14  1  0
  3 28  1  0
  3 29  1  0
  4  5  1  0
  5  6  2  0
  5 45  1  0
  6  7  1  0
  7  8  2  0
  7 11  1  0
  8  9  1  0
  8 43  1  0
  9 10  2  0
 10 11  1  0
 12 11  1  0
 12 13  1  0
 12 29  1  0
 13 14  1  0
 14 15  1  0
 15 16  1  0
 16 17  1  0
 17 18  2  0
 17 19  1  1
 17 20  1  0
 21 20  1  0
 21 22  1  0
 21 32  1  0
 22 23  1  0
 24 25  1  0
 25 26  2  0
 25 27  1  1
 25 28  1  0
 29 30  1  0
 31 32  1  0
 32 33  1  0
 33 34  1  0
 33 42  1  0
 34 35  2  0
 35 36  1  0
 36 37  2  0
 36 42  1  0
 37 38  1  0
 37 39  1  0
 39 40  2  0
 40 41  1  0
 41 42  2  0
 43 44  2  0
 43 45  1  0
  1 46  1  6
  2 47  1  0
  2 48  1  0
  3 49  1  6
  4 50  1  0
  4 51  1  0
 10 52  1  0
 12 53  1  1
 14 54  1  6
 15 55  1  0
 15 56  1  0
 21 57  1  1
 22 58  1  1
 23 59  1  0
 29 60  1  1
 30 61  1  0
 32 62  1  6
 34 63  1  0
 38 64  1  0
 38 65  1  0
 40 66  1  0
 45 67  1  0
M  CHG  2  19  -1  27  -1
M  END
>  <filename_input>  (14) 
7RWS_4UR_docked.sdf

>  <pdb_id>  (14) 
7RWS_4UR

>  <pose_rank>  (14) 
13

>  <num_atoms_heavy>  (14) 
45

>  <num_torsions>  (14) 
2

>  <pose>  (14) 
[20.35228558346958, 51.92567383105822, 33.88696804032237, 2.0517738763587374, -0.8120407667145809, -1.248156458238943, -0.9685205383394807, 0.44278233639417997]

>  <energy>  (14) 
-446.8033513906294

>  <inter_energy>  (14) 
-469.06263239488

>  <intra_energy>  (14) 
27.86284902065632

>  <rmsd>  (14) 
9.66488

>  <sdf_rank>  (14) 
0

$$$$

     RDKit          3D

 67 73  0  0  0  0  0  0  0  0999 V2000
   13.0051   54.2618   39.4877 C   0  0  2  0  0  0  0  0  0  0  0  0
   12.3211   54.5502   38.1303 C   0  0  0  0  0  0  0  0  0  0  0  0
   15.9427   55.4885   35.6016 C   0  0  1  0  0  0  0  0  0  0  0  0
   16.7768   60.6108   30.0205 N   0  0  0  0  0  0  0  0  0  0  0  0
   17.7256   59.9591   30.9285 C   0  0  0  0  0  0  0  0  0  0  0  0
   17.2248   59.2792   32.0873 N   0  0  0  0  0  0  0  0  0  0  0  0
   18.1841   58.6100   33.0020 C   0  0  0  0  0  0  0  0  0  0  0  0
   19.5351   58.6047   32.8100 C   0  0  0  0  0  0  0  0  0  0  0  0
   20.0736   57.9225   33.8284 N   0  0  0  0  0  0  0  0  0  0  0  0
   19.0511   57.5167   34.6322 C   0  0  0  0  0  0  0  0  0  0  0  0
   17.8888   57.9578   34.0754 N   0  0  0  0  0  0  0  0  0  0  0  0
   16.7512   57.6109   34.8329 C   0  0  2  0  0  0  0  0  0  0  0  0
   17.2022   57.4186   36.1908 O   0  0  0  0  0  0  0  0  0  0  0  0
   16.7194   56.1491   36.6687 C   0  0  2  0  0  0  0  0  0  0  0  0
   17.9558   55.3394   37.1641 C   0  0  0  0  0  0  0  0  0  0  0  0
   17.6392   53.9340   37.1871 O   0  0  0  0  0  0  0  0  0  0  0  0
   17.8532   53.2502   38.7385 P   0  0  1  0  0  0  0  0  0  0  0  0
   17.6282   51.7809   38.5203 O   0  0  0  0  0  0  0  0  0  0  0  0
   19.1309   53.5280   39.5036 O   0  0  0  0  0  0  0  0  0  0  0  0
   16.5381   53.8816   39.6500 O   0  0  0  0  0  0  0  0  0  0  0  0
   15.2227   53.6474   39.0982 C   0  0  2  0  0  0  0  0  0  0  0  0
   14.4008   54.8118   39.4725 C   0  0  2  0  0  0  0  0  0  0  0  0
   14.6860   55.2554   40.8031 O   0  0  0  0  0  0  0  0  0  0  0  0
   13.1471   53.9312   37.0350 O   0  0  0  0  0  0  0  0  0  0  0  0
   13.3416   54.7305   35.5853 P   0  0  2  0  0  0  0  0  0  0  0  0
   12.1032   55.5776   35.3279 O   0  0  0  0  0  0  0  0  0  0  0  0
   13.6706   53.8097   34.4283 O   0  0  0  0  0  0  0  0  0  0  0  0
   14.5562   55.8678   35.9056 O   0  0  0  0  0  0  0  0  0  0  0  0
   16.4051   56.1771   34.3857 C   0  0  2  0  0  0  0  0  0  0  0  0
   15.4614   56.1593   33.3324 O   0  0  0  0  0  0  0  0  0  0  0  0
   13.1420   52.8888   39.6979 O   0  0  0  0  0  0  0  0  0  0  0  0
   14.5401   52.5027   39.7997 C   0  0  1  0  0  0  0  0  0  0  0  0
   14.6230   51.2386   39.1213 N   0  0  0  0  0  0  0  0  0  0  0  0
   14.2077   50.8654   37.8943 C   0  0  0  0  0  0  0  0  0  0  0  0
   14.4756   49.5592   37.7467 N   0  0  0  0  0  0  0  0  0  0  0  0
   15.0426   49.1274   38.8893 C   0  0  0  0  0  0  0  0  0  0  0  0
   15.4933   47.8852   39.2418 C   0  0  0  0  0  0  0  0  0  0  0  0
   15.5528   46.6020   38.5747 N   0  0  0  0  0  0  0  0  0  0  0  0
   16.0246   47.6702   40.4463 N   0  0  0  0  0  0  0  0  0  0  0  0
   16.1212   48.7058   41.3279 C   0  0  0  0  0  0  0  0  0  0  0  0
   15.6689   49.9454   40.9719 N   0  0  0  0  0  0  0  0  0  0  0  0
   15.1323   50.1522   39.7508 C   0  0  0  0  0  0  0  0  0  0  0  0
   20.0705   59.3397   31.5718 C   0  0  0  0  0  0  0  0  0  0  0  0
   21.2347   59.3913   31.3200 O   0  0  0  0  0  0  0  0  0  0  0  0
   19.1513   59.9842   30.6899 N   0  0  0  0  0  0  0  0  0  0  0  0
   12.3822   54.7192   40.2706 H   0  0  0  0  0  0  0  0  0  0  0  0
   11.3112   54.1143   38.1242 H   0  0  0  0  0  0  0  0  0  0  0  0
   12.2416   55.6360   37.9729 H   0  0  0  0  0  0  0  0  0  0  0  0
   16.0387   54.3970   35.5051 H   0  0  0  0  0  0  0  0  0  0  0  0
   17.1202   61.1033   29.1837 H   0  0  0  0  0  0  0  0  0  0  0  0
   15.7668   60.5760   30.2195 H   0  0  0  0  0  0  0  0  0  0  0  0
   19.1468   56.9375   35.5625 H   0  0  0  0  0  0  0  0  0  0  0  0
   15.9426   58.3496   34.7305 H   0  0  0  0  0  0  0  0  0  0  0  0
   16.0262   56.2473   37.5171 H   0  0  0  0  0  0  0  0  0  0  0  0
   18.8025   55.5123   36.4836 H   0  0  0  0  0  0  0  0  0  0  0  0
   18.2238   55.6688   38.1788 H   0  0  0  0  0  0  0  0  0  0  0  0
   15.3217   53.4591   38.0190 H   0  0  0  0  0  0  0  0  0  0  0  0
   14.5736   55.6561   38.7889 H   0  0  0  0  0  0  0  0  0  0  0  0
   14.2824   54.6278   41.4537 H   0  0  0  0  0  0  0  0  0  0  0  0
   17.2763   55.6593   33.9581 H   0  0  0  0  0  0  0  0  0  0  0  0
   14.5462   56.1421   33.7095 H   0  0  0  0  0  0  0  0  0  0  0  0
   14.9853   52.3586   40.7952 H   0  0  0  0  0  0  0  0  0  0  0  0
   13.7330   51.5170   37.1460 H   0  0  0  0  0  0  0  0  0  0  0  0
   15.9497   45.7860   39.0622 H   0  0  0  0  0  0  0  0  0  0  0  0
   15.1983   46.5048   37.6125 H   0  0  0  0  0  0  0  0  0  0  0  0
   16.5620   48.5441   42.3227 H   0  0  0  0  0  0  0  0  0  0  0  0
   19.5130   60.4798   29.8626 H   0  0  0  0  0  0  0  0  0  0  0  0
  1  2  1  0
  1 22  1  0
  1 31  1  0
  2 24  1  0
  3 14  1  0
  3 28  1  0
  3 29  1  0
  4  5  1  0
  5  6  2  0
  5 45  1  0
  6  7  1  0
  7  8  2  0
  7 11  1  0
  8  9  1  0
  8 43  1  0
  9 10  2  0
 10 11  1  0
 12 11  1  0
 12 13  1  0
 12 29  1  0
 13 14  1  0
 14 15  1  0
 15 16  1  0
 16 17  1  0
 17 18  2  0
 17 19  1  1
 17 20  1  0
 21 20  1  0
 21 22  1  0
 21 32  1  0
 22 23  1  0
 24 25  1  0
 25 26  2  0
 25 27  1  6
 25 28  1  0
 29 30  1  0
 31 32  1  0
 32 33  1  0
 33 34  1  0
 33 42  1  0
 34 35  2  0
 35 36  1  0
 36 37  2  0
 36 42  1  0
 37 38  1  0
 37 39  1  0
 39 40  2  0
 40 41  1  0
 41 42  2  0
 43 44  2  0
 43 45  1  0
  1 46  1  1
  2 47  1  0
  2 48  1  0
  3 49  1  6
  4 50  1  0
  4 51  1  0
 10 52  1  0
 12 53  1  1
 14 54  1  1
 15 55  1  0
 15 56  1  0
 21 57  1  6
 22 58  1  6
 23 59  1  0
 29 60  1  6
 30 61  1  0
 32 62  1  1
 34 63  1  0
 38 64  1  0
 38 65  1  0
 40 66  1  0
 45 67  1  0
M  CHG  2  19  -1  27  -1
M  END
>  <filename_input>  (15) 
7RWS_4UR_docked.sdf

>  <pdb_id>  (15) 
7RWS_4UR

>  <pose_rank>  (15) 
14

>  <num_atoms_heavy>  (15) 
45

>  <num_torsions>  (15) 
2

>  <pose>  (15) 
[13.005086820012716, 54.26175825713588, 39.48772662077965, 0.38792554087499087, -2.260330098923802, 3.7849463817793247, 2.4016114630539764, -0.06059494005521299]

>  <energy>  (15) 
-468.6445909268455

>  <inter_energy>  (15) 
-479.22665346724756

>  <intra_energy>  (15) 
13.649058814611594

>  <rmsd>  (15) 
6.5634

>  <sdf_rank>  (15) 
0

$$$$

     RDKit          3D

 67 73  0  0  0  0  0  0  0  0999 V2000
   16.0109   60.4401   38.7714 C   0  0  2  0  0  0  0  0  0  0  0  0
   17.3708   59.9036   39.2780 C   0  0  0  0  0  0  0  0  0  0  0  0
   16.7872   55.4805   38.5811 C   0  0  1  0  0  0  0  0  0  0  0  0
   15.6884   49.9204   44.3068 N   0  0  0  0  0  0  0  0  0  0  0  0
   15.6859   49.9815   42.8420 C   0  0  0  0  0  0  0  0  0  0  0  0
   15.9035   51.2440   42.1979 N   0  0  0  0  0  0  0  0  0  0  0  0
   15.9116   51.3051   40.7144 C   0  0  0  0  0  0  0  0  0  0  0  0
   15.7168   50.2195   39.9110 C   0  0  0  0  0  0  0  0  0  0  0  0
   15.7799   50.6514   38.6452 N   0  0  0  0  0  0  0  0  0  0  0  0
   16.0127   51.9933   38.6844 C   0  0  0  0  0  0  0  0  0  0  0  0
   16.0979   52.3590   39.9937 N   0  0  0  0  0  0  0  0  0  0  0  0
   16.3221   53.7408   40.1641 C   0  0  2  0  0  0  0  0  0  0  0  0
   15.0808   54.4033   39.8407 O   0  0  0  0  0  0  0  0  0  0  0  0
   15.3450   55.4554   38.8939 C   0  0  2  0  0  0  0  0  0  0  0  0
   14.4205   55.2142   37.6624 C   0  0  0  0  0  0  0  0  0  0  0  0
   14.9561   55.8953   36.5113 O   0  0  0  0  0  0  0  0  0  0  0  0
   13.8417   57.0046   35.8421 P   0  0  1  0  0  0  0  0  0  0  0  0
   14.5171   57.4841   34.5888 O   0  0  0  0  0  0  0  0  0  0  0  0
   12.4137   56.5647   35.5926 O   0  0  0  0  0  0  0  0  0  0  0  0
   13.8111   58.2930   36.9814 O   0  0  0  0  0  0  0  0  0  0  0  0
   15.0922   58.8863   37.2920 C   0  0  2  0  0  0  0  0  0  0  0  0
   15.0227   59.3135   38.7006 C   0  0  2  0  0  0  0  0  0  0  0  0
   13.7420   59.8645   39.0242 O   0  0  0  0  0  0  0  0  0  0  0  0
   17.8364   58.8179   38.3455 O   0  0  0  0  0  0  0  0  0  0  0  0
   18.5940   57.4643   38.9554 P   0  0  2  0  0  0  0  0  0  0  0  0
   19.3329   57.8533   40.2283 O   0  0  0  0  0  0  0  0  0  0  0  0
   19.4887   56.7692   37.9497 O   0  0  0  0  0  0  0  0  0  0  0  0
   17.3177   56.4937   39.5033 O   0  0  0  0  0  0  0  0  0  0  0  0
   17.2337   54.1379   38.9866 C   0  0  2  0  0  0  0  0  0  0  0  0
   18.6047   54.0774   39.3286 O   0  0  0  0  0  0  0  0  0  0  0  0
   16.1195   60.9302   37.4692 O   0  0  0  0  0  0  0  0  0  0  0  0
   15.2810   60.1815   36.5470 C   0  0  1  0  0  0  0  0  0  0  0  0
   16.0577   60.0814   35.3421 N   0  0  0  0  0  0  0  0  0  0  0  0
   16.0997   60.8702   34.2498 C   0  0  0  0  0  0  0  0  0  0  0  0
   16.9556   60.3203   33.3753 N   0  0  0  0  0  0  0  0  0  0  0  0
   17.4283   59.1858   33.9256 C   0  0  0  0  0  0  0  0  0  0  0  0
   18.3191   58.2685   33.4404 C   0  0  0  0  0  0  0  0  0  0  0  0
   19.0821   58.1463   32.2164 N   0  0  0  0  0  0  0  0  0  0  0  0
   18.6501   57.1947   34.1591 N   0  0  0  0  0  0  0  0  0  0  0  0
   18.0950   57.0194   35.3921 C   0  0  0  0  0  0  0  0  0  0  0  0
   17.2046   57.9381   35.8729 N   0  0  0  0  0  0  0  0  0  0  0  0
   16.8759   59.0209   35.1373 C   0  0  0  0  0  0  0  0  0  0  0  0
   15.4767   48.8689   40.6026 C   0  0  0  0  0  0  0  0  0  0  0  0
   15.2955   47.8648   39.9860 O   0  0  0  0  0  0  0  0  0  0  0  0
   15.4683   48.8061   42.0289 N   0  0  0  0  0  0  0  0  0  0  0  0
   15.6943   61.2331   39.4649 H   0  0  0  0  0  0  0  0  0  0  0  0
   18.1082   60.7196   39.2942 H   0  0  0  0  0  0  0  0  0  0  0  0
   17.2606   59.5025   40.2963 H   0  0  0  0  0  0  0  0  0  0  0  0
   17.0780   55.7033   37.5439 H   0  0  0  0  0  0  0  0  0  0  0  0
   15.5336   49.0213   44.7849 H   0  0  0  0  0  0  0  0  0  0  0  0
   15.8449   50.7765   44.8577 H   0  0  0  0  0  0  0  0  0  0  0  0
   16.1137   52.6606   37.8158 H   0  0  0  0  0  0  0  0  0  0  0  0
   16.7082   53.9787   41.1662 H   0  0  0  0  0  0  0  0  0  0  0  0
   15.1143   56.4552   39.2905 H   0  0  0  0  0  0  0  0  0  0  0  0
   14.3624   54.1355   37.4547 H   0  0  0  0  0  0  0  0  0  0  0  0
   13.4149   55.6033   37.8804 H   0  0  0  0  0  0  0  0  0  0  0  0
   15.8839   58.1618   37.0506 H   0  0  0  0  0  0  0  0  0  0  0  0
   15.2110   58.4700   39.3812 H   0  0  0  0  0  0  0  0  0  0  0  0
   13.6406   59.9082   40.0080 H   0  0  0  0  0  0  0  0  0  0  0  0
   17.1479   53.4337   38.1459 H   0  0  0  0  0  0  0  0  0  0  0  0
   18.6991   54.0732   40.3141 H   0  0  0  0  0  0  0  0  0  0  0  0
   14.3012   60.5912   36.2600 H   0  0  0  0  0  0  0  0  0  0  0  0
   15.5322   61.8008   34.1015 H   0  0  0  0  0  0  0  0  0  0  0  0
   19.7063   57.3390   32.0770 H   0  0  0  0  0  0  0  0  0  0  0  0
   19.0008   58.8668   31.4848 H   0  0  0  0  0  0  0  0  0  0  0  0
   18.3629   56.1413   35.9979 H   0  0  0  0  0  0  0  0  0  0  0  0
   15.3031   47.9002   42.4903 H   0  0  0  0  0  0  0  0  0  0  0  0
  1  2  1  0
  1 22  1  0
  1 31  1  0
  2 24  1  0
  3 14  1  0
  3 28  1  0
  3 29  1  0
  4  5  1  0
  5  6  2  0
  5 45  1  0
  6  7  1  0
  7  8  2  0
  7 11  1  0
  8  9  1  0
  8 43  1  0
  9 10  2  0
 10 11  1  0
 12 11  1  0
 12 13  1  0
 12 29  1  0
 13 14  1  0
 14 15  1  0
 15 16  1  0
 16 17  1  0
 17 18  2  0
 17 19  1  6
 17 20  1  0
 21 20  1  0
 21 22  1  0
 21 32  1  0
 22 23  1  0
 24 25  1  0
 25 26  2  0
 25 27  1  6
 25 28  1  0
 29 30  1  0
 31 32  1  0
 32 33  1  0
 33 34  1  0
 33 42  1  0
 34 35  2  0
 35 36  1  0
 36 37  2  0
 36 42  1  0
 37 38  1  0
 37 39  1  0
 39 40  2  0
 40 41  1  0
 41 42  2  0
 43 44  2  0
 43 45  1  0
  1 46  1  1
  2 47  1  0
  2 48  1  0
  3 49  1  6
  4 50  1  0
  4 51  1  0
 10 52  1  0
 12 53  1  1
 14 54  1  1
 15 55  1  0
 15 56  1  0
 21 57  1  1
 22 58  1  1
 23 59  1  0
 29 60  1  6
 30 61  1  0
 32 62  1  6
 34 63  1  0
 38 64  1  0
 38 65  1  0
 40 66  1  0
 45 67  1  0
M  CHG  2  19  -1  27  -1
M  END
>  <filename_input>  (16) 
7RWS_4UR_docked.sdf

>  <pdb_id>  (16) 
7RWS_4UR

>  <pose_rank>  (16) 
15

>  <num_atoms_heavy>  (16) 
45

>  <num_torsions>  (16) 
2

>  <pose>  (16) 
[16.01091521988259, 60.44008466590865, 38.77144835367294, 3.1210248806839296, 0.19102610915894191, -1.3495199235811433, -3.027934474423738, -2.5675867999829256]

>  <energy>  (16) 
-298.6858630751037

>  <inter_energy>  (16) 
-416.3693457180037

>  <intra_energy>  (16) 
118.46190266703744

>  <rmsd>  (16) 
10.0054

>  <sdf_rank>  (16) 
0

$$$$

     RDKit          3D

 67 73  0  0  0  0  0  0  0  0999 V2000
   14.2253   52.9670   37.9624 C   0  0  2  0  0  0  0  0  0  0  0  0
   13.8732   54.0602   36.9257 C   0  0  0  0  0  0  0  0  0  0  0  0
   17.6183   56.5753   37.1234 C   0  0  1  0  0  0  0  0  0  0  0  0
   23.3232   56.8516   38.4582 N   0  0  0  0  0  0  0  0  0  0  0  0
   22.5836   58.1173   38.4531 C   0  0  0  0  0  0  0  0  0  0  0  0
   21.1529   58.0868   38.3630 N   0  0  0  0  0  0  0  0  0  0  0  0
   20.4022   59.3679   38.3684 C   0  0  0  0  0  0  0  0  0  0  0  0
   20.9968   60.5934   38.4496 C   0  0  0  0  0  0  0  0  0  0  0  0
   20.0189   61.5072   38.4165 N   0  0  0  0  0  0  0  0  0  0  0  0
   18.8377   60.8356   38.3163 C   0  0  0  0  0  0  0  0  0  0  0  0
   19.1209   59.5034   38.2993 N   0  0  0  0  0  0  0  0  0  0  0  0
   17.9689   58.6989   38.1799 C   0  0  2  0  0  0  0  0  0  0  0  0
   18.0789   57.6686   39.1852 O   0  0  0  0  0  0  0  0  0  0  0  0
   17.8651   56.3863   38.5662 C   0  0  2  0  0  0  0  0  0  0  0  0
   19.1021   55.4984   38.8996 C   0  0  0  0  0  0  0  0  0  0  0  0
   19.2006   54.4236   37.9451 O   0  0  0  0  0  0  0  0  0  0  0  0
   19.1793   52.8894   38.6973 P   0  0  1  0  0  0  0  0  0  0  0  0
   19.4442   51.9308   37.5712 O   0  0  0  0  0  0  0  0  0  0  0  0
   20.0761   52.6343   39.8914 O   0  0  0  0  0  0  0  0  0  0  0  0
   17.5470   52.7054   39.2078 O   0  0  0  0  0  0  0  0  0  0  0  0
   16.5465   52.8495   38.1744 C   0  0  2  0  0  0  0  0  0  0  0  0
   15.3610   53.4385   38.8219 C   0  0  2  0  0  0  0  0  0  0  0  0
   15.1460   52.8944   40.1280 O   0  0  0  0  0  0  0  0  0  0  0  0
   15.0999   54.3577   36.1060 O   0  0  0  0  0  0  0  0  0  0  0  0
   15.4381   55.9255   35.6520 P   0  0  2  0  0  0  0  0  0  0  0  0
   14.1257   56.6828   35.5065 O   0  0  0  0  0  0  0  0  0  0  0  0
   16.3080   56.0208   34.4153 O   0  0  0  0  0  0  0  0  0  0  0  0
   16.1523   56.6049   37.0302 O   0  0  0  0  0  0  0  0  0  0  0  0
   18.1728   57.9148   36.8689 C   0  0  2  0  0  0  0  0  0  0  0  0
   17.5870   58.5677   35.7594 O   0  0  0  0  0  0  0  0  0  0  0  0
   14.6831   51.8085   37.3329 O   0  0  0  0  0  0  0  0  0  0  0  0
   16.0541   51.5043   37.7097 C   0  0  1  0  0  0  0  0  0  0  0  0
   16.6669   51.0162   36.5050 N   0  0  0  0  0  0  0  0  0  0  0  0
   17.2052   51.6736   35.4585 C   0  0  0  0  0  0  0  0  0  0  0  0
   17.6052   50.7621   34.5591 N   0  0  0  0  0  0  0  0  0  0  0  0
   17.2992   49.5452   35.0478 C   0  0  0  0  0  0  0  0  0  0  0  0
   17.4968   48.3004   34.5167 C   0  0  0  0  0  0  0  0  0  0  0  0
   18.0863   47.8035   33.2917 N   0  0  0  0  0  0  0  0  0  0  0  0
   17.1059   47.2090   35.1763 N   0  0  0  0  0  0  0  0  0  0  0  0
   16.5089   47.3431   36.3948 C   0  0  0  0  0  0  0  0  0  0  0  0
   16.3126   48.5888   36.9215 N   0  0  0  0  0  0  0  0  0  0  0  0
   16.7113   49.6870   36.2456 C   0  0  0  0  0  0  0  0  0  0  0  0
   22.5301   60.6245   38.5388 C   0  0  0  0  0  0  0  0  0  0  0  0
   23.1398   61.6465   38.6119 O   0  0  0  0  0  0  0  0  0  0  0  0
   23.2555   59.3949   38.5341 N   0  0  0  0  0  0  0  0  0  0  0  0
   13.3144   52.7643   38.5448 H   0  0  0  0  0  0  0  0  0  0  0  0
   13.0667   53.7021   36.2691 H   0  0  0  0  0  0  0  0  0  0  0  0
   13.5354   54.9715   37.4408 H   0  0  0  0  0  0  0  0  0  0  0  0
   18.0403   55.8292   36.4340 H   0  0  0  0  0  0  0  0  0  0  0  0
   24.3512   56.8561   38.5223 H   0  0  0  0  0  0  0  0  0  0  0  0
   22.8149   55.9578   38.3976 H   0  0  0  0  0  0  0  0  0  0  0  0
   17.8364   61.2875   38.2595 H   0  0  0  0  0  0  0  0  0  0  0  0
   17.0422   59.2881   38.2429 H   0  0  0  0  0  0  0  0  0  0  0  0
   16.9733   55.8696   38.9503 H   0  0  0  0  0  0  0  0  0  0  0  0
   20.0145   56.1112   38.8554 H   0  0  0  0  0  0  0  0  0  0  0  0
   18.9872   55.0787   39.9098 H   0  0  0  0  0  0  0  0  0  0  0  0
   16.9771   53.4309   37.3457 H   0  0  0  0  0  0  0  0  0  0  0  0
   15.4634   54.5292   38.9211 H   0  0  0  0  0  0  0  0  0  0  0  0
   15.4095   53.5612   40.8107 H   0  0  0  0  0  0  0  0  0  0  0  0
   19.2355   57.8452   36.5936 H   0  0  0  0  0  0  0  0  0  0  0  0
   16.9614   59.2650   36.0794 H   0  0  0  0  0  0  0  0  0  0  0  0
   16.2412   50.7508   38.4889 H   0  0  0  0  0  0  0  0  0  0  0  0
   17.2998   52.7650   35.3594 H   0  0  0  0  0  0  0  0  0  0  0  0
   18.1205   46.7901   33.1107 H   0  0  0  0  0  0  0  0  0  0  0  0
   18.4716   48.4633   32.6009 H   0  0  0  0  0  0  0  0  0  0  0  0
   16.1863   46.4513   36.9522 H   0  0  0  0  0  0  0  0  0  0  0  0
   24.2837   59.4185   38.5899 H   0  0  0  0  0  0  0  0  0  0  0  0
  1  2  1  0
  1 22  1  0
  1 31  1  0
  2 24  1  0
  3 14  1  0
  3 28  1  0
  3 29  1  0
  4  5  1  0
  5  6  2  0
  5 45  1  0
  6  7  1  0
  7  8  2  0
  7 11  1  0
  8  9  1  0
  8 43  1  0
  9 10  2  0
 10 11  1  0
 12 11  1  0
 12 13  1  0
 12 29  1  0
 13 14  1  0
 14 15  1  0
 15 16  1  0
 16 17  1  0
 17 18  2  0
 17 19  1  1
 17 20  1  0
 21 20  1  0
 21 22  1  0
 21 32  1  0
 22 23  1  0
 24 25  1  0
 25 26  2  0
 25 27  1  6
 25 28  1  0
 29 30  1  0
 31 32  1  0
 32 33  1  0
 33 34  1  0
 33 42  1  0
 34 35  2  0
 35 36  1  0
 36 37  2  0
 36 42  1  0
 37 38  1  0
 37 39  1  0
 39 40  2  0
 40 41  1  0
 41 42  2  0
 43 44  2  0
 43 45  1  0
  1 46  1  1
  2 47  1  0
  2 48  1  0
  3 49  1  6
  4 50  1  0
  4 51  1  0
 10 52  1  0
 12 53  1  6
 14 54  1  1
 15 55  1  0
 15 56  1  0
 21 57  1  6
 22 58  1  1
 23 59  1  0
 29 60  1  6
 30 61  1  0
 32 62  1  1
 34 63  1  0
 38 64  1  0
 38 65  1  0
 40 66  1  0
 45 67  1  0
M  CHG  2  19  -1  27  -1
M  END
>  <filename_input>  (17) 
7RWS_4UR_docked.sdf

>  <pdb_id>  (17) 
7RWS_4UR

>  <pose_rank>  (17) 
16

>  <num_atoms_heavy>  (17) 
45

>  <num_torsions>  (17) 
2

>  <pose>  (17) 
[14.225252205421725, 52.96700538265927, 37.9624167885977, 0.5082071685744298, 1.1111176692423506, -0.9940920068957978, -0.328682573231804, 0.4811022037541171]

>  <energy>  (17) 
-276.30783749093064

>  <inter_energy>  (17) 
-290.3414334588442

>  <intra_energy>  (17) 
18.556790638113547

>  <rmsd>  (17) 
7.23942

>  <sdf_rank>  (17) 
0

$$$$

     RDKit          3D

 67 73  0  0  0  0  0  0  0  0999 V2000
   20.3788   49.8516   29.2539 C   0  0  2  0  0  0  0  0  0  0  0  0
   20.6967   51.3630   29.3455 C   0  0  0  0  0  0  0  0  0  0  0  0
   18.6582   52.3665   33.2478 C   0  0  1  0  0  0  0  0  0  0  0  0
   14.9675   58.6726   35.3268 N   0  0  0  0  0  0  0  0  0  0  0  0
   14.8877   57.2796   35.7768 C   0  0  0  0  0  0  0  0  0  0  0  0
   15.4786   56.2526   34.9693 N   0  0  0  0  0  0  0  0  0  0  0  0
   15.4075   54.8427   35.4293 C   0  0  0  0  0  0  0  0  0  0  0  0
   14.8011   54.4543   36.5884 C   0  0  0  0  0  0  0  0  0  0  0  0
   14.9225   53.1233   36.6681 N   0  0  0  0  0  0  0  0  0  0  0  0
   15.6006   52.7096   35.5612 C   0  0  0  0  0  0  0  0  0  0  0  0
   15.8929   53.8143   34.8197 N   0  0  0  0  0  0  0  0  0  0  0  0
   16.5852   53.5091   33.6298 C   0  0  2  0  0  0  0  0  0  0  0  0
   16.2926   52.1288   33.3244 O   0  0  0  0  0  0  0  0  0  0  0  0
   17.5289   51.4300   33.0869 C   0  0  2  0  0  0  0  0  0  0  0  0
   17.5621   50.2055   34.0508 C   0  0  0  0  0  0  0  0  0  0  0  0
   18.9218   49.7631   34.2283 O   0  0  0  0  0  0  0  0  0  0  0  0
   19.1297   48.1254   33.7869 P   0  0  1  0  0  0  0  0  0  0  0  0
   20.5460   47.8206   34.1845 O   0  0  0  0  0  0  0  0  0  0  0  0
   18.1531   47.0872   34.3005 O   0  0  0  0  0  0  0  0  0  0  0  0
   19.0298   48.1475   32.0698 O   0  0  0  0  0  0  0  0  0  0  0  0
   19.9472   49.0413   31.3996 C   0  0  2  0  0  0  0  0  0  0  0  0
   19.2544   49.5184   30.1896 C   0  0  2  0  0  0  0  0  0  0  0  0
   18.4940   48.4765   29.5694 O   0  0  0  0  0  0  0  0  0  0  0  0
   21.0476   51.6945   30.7710 O   0  0  0  0  0  0  0  0  0  0  0  0
   20.5305   53.1291   31.4441 P   0  0  2  0  0  0  0  0  0  0  0  0
   20.4223   54.1721   30.3405 O   0  0  0  0  0  0  0  0  0  0  0  0
   21.3858   53.5933   32.6051 O   0  0  0  0  0  0  0  0  0  0  0  0
   18.9211   52.8212   31.8756 O   0  0  0  0  0  0  0  0  0  0  0  0
   18.0692   53.4565   34.0424 C   0  0  2  0  0  0  0  0  0  0  0  0
   18.7177   54.7006   33.8637 O   0  0  0  0  0  0  0  0  0  0  0  0
   21.4645   49.0846   29.6791 O   0  0  0  0  0  0  0  0  0  0  0  0
   21.1278   48.2868   30.8471 C   0  0  1  0  0  0  0  0  0  0  0  0
   22.3072   48.3195   31.6673 N   0  0  0  0  0  0  0  0  0  0  0  0
   23.0728   49.3521   32.0735 C   0  0  0  0  0  0  0  0  0  0  0  0
   24.0926   48.8543   32.7888 N   0  0  0  0  0  0  0  0  0  0  0  0
   23.9607   47.5144   32.8097 C   0  0  0  0  0  0  0  0  0  0  0  0
   24.7374   46.5555   33.3993 C   0  0  0  0  0  0  0  0  0  0  0  0
   25.9421   46.5795   34.2014 N   0  0  0  0  0  0  0  0  0  0  0  0
   24.4245   45.2635   33.2895 N   0  0  0  0  0  0  0  0  0  0  0  0
   23.3139   44.9030   32.5855 C   0  0  0  0  0  0  0  0  0  0  0  0
   22.5408   45.8644   31.9972 N   0  0  0  0  0  0  0  0  0  0  0  0
   22.8667   47.1689   32.1138 C   0  0  0  0  0  0  0  0  0  0  0  0
   14.1623   55.5550   37.4489 C   0  0  0  0  0  0  0  0  0  0  0  0
   13.6089   55.3142   38.4770 O   0  0  0  0  0  0  0  0  0  0  0  0
   14.2287   56.9119   37.0100 N   0  0  0  0  0  0  0  0  0  0  0  0
   20.1302   49.6336   28.2047 H   0  0  0  0  0  0  0  0  0  0  0  0
   21.5462   51.6033   28.6893 H   0  0  0  0  0  0  0  0  0  0  0  0
   19.8230   51.9506   29.0273 H   0  0  0  0  0  0  0  0  0  0  0  0
   19.5757   51.9800   33.7157 H   0  0  0  0  0  0  0  0  0  0  0  0
   14.5481   59.4222   35.8953 H   0  0  0  0  0  0  0  0  0  0  0  0
   15.4428   58.9017   34.4423 H   0  0  0  0  0  0  0  0  0  0  0  0
   15.8643   51.6713   35.3114 H   0  0  0  0  0  0  0  0  0  0  0  0
   16.3419   54.2085   32.8164 H   0  0  0  0  0  0  0  0  0  0  0  0
   17.6120   51.0453   32.0597 H   0  0  0  0  0  0  0  0  0  0  0  0
   17.1420   50.4958   35.0251 H   0  0  0  0  0  0  0  0  0  0  0  0
   16.9662   49.3872   33.6204 H   0  0  0  0  0  0  0  0  0  0  0  0
   20.2615   49.8207   32.1093 H   0  0  0  0  0  0  0  0  0  0  0  0
   18.5683   50.3454   30.4249 H   0  0  0  0  0  0  0  0  0  0  0  0
   18.0802   47.9096   30.2676 H   0  0  0  0  0  0  0  0  0  0  0  0
   18.1892   53.2570   35.1175 H   0  0  0  0  0  0  0  0  0  0  0  0
   18.9235   55.0955   34.7479 H   0  0  0  0  0  0  0  0  0  0  0  0
   20.8626   47.2275   30.7144 H   0  0  0  0  0  0  0  0  0  0  0  0
   22.8929   50.4154   31.8565 H   0  0  0  0  0  0  0  0  0  0  0  0
   26.3525   45.6978   34.5408 H   0  0  0  0  0  0  0  0  0  0  0  0
   26.3889   47.4782   34.4329 H   0  0  0  0  0  0  0  0  0  0  0  0
   23.0409   43.8416   32.4912 H   0  0  0  0  0  0  0  0  0  0  0  0
   13.7961   57.6476   37.5866 H   0  0  0  0  0  0  0  0  0  0  0  0
  1  2  1  0
  1 22  1  0
  1 31  1  0
  2 24  1  0
  3 14  1  0
  3 28  1  0
  3 29  1  0
  4  5  1  0
  5  6  2  0
  5 45  1  0
  6  7  1  0
  7  8  2  0
  7 11  1  0
  8  9  1  0
  8 43  1  0
  9 10  2  0
 10 11  1  0
 12 11  1  0
 12 13  1  0
 12 29  1  0
 13 14  1  0
 14 15  1  0
 15 16  1  0
 16 17  1  0
 17 18  2  0
 17 19  1  1
 17 20  1  0
 21 20  1  0
 21 22  1  0
 21 32  1  0
 22 23  1  0
 24 25  1  0
 25 26  2  0
 25 27  1  1
 25 28  1  0
 29 30  1  0
 31 32  1  0
 32 33  1  0
 33 34  1  0
 33 42  1  0
 34 35  2  0
 35 36  1  0
 36 37  2  0
 36 42  1  0
 37 38  1  0
 37 39  1  0
 39 40  2  0
 40 41  1  0
 41 42  2  0
 43 44  2  0
 43 45  1  0
  1 46  1  6
  2 47  1  0
  2 48  1  0
  3 49  1  1
  4 50  1  0
  4 51  1  0
 10 52  1  0
 12 53  1  6
 14 54  1  6
 15 55  1  0
 15 56  1  0
 21 57  1  1
 22 58  1  1
 23 59  1  0
 29 60  1  1
 30 61  1  0
 32 62  1  6
 34 63  1  0
 38 64  1  0
 38 65  1  0
 40 66  1  0
 45 67  1  0
M  CHG  2  19  -1  27  -1
M  END
>  <filename_input>  (18) 
7RWS_4UR_docked.sdf

>  <pdb_id>  (18) 
7RWS_4UR

>  <pose_rank>  (18) 
17

>  <num_atoms_heavy>  (18) 
45

>  <num_torsions>  (18) 
2

>  <pose>  (18) 
[20.378765164659075, 49.85162065818836, 29.253861890584904, -4.8145667471656965, 0.634390694817618, -0.9526490620027304, 2.3742383018991187, -0.10227729061187701]

>  <energy>  (18) 
-258.5173183214009

>  <inter_energy>  (18) 
-272.23429053126995

>  <intra_energy>  (18) 
14.513575819828233

>  <rmsd>  (18) 
8.26748

>  <sdf_rank>  (18) 
0

$$$$

     RDKit          3D

 67 73  0  0  0  0  0  0  0  0999 V2000
   17.8700   48.9674   36.9335 C   0  0  2  0  0  0  0  0  0  0  0  0
   19.1575   49.7916   36.6955 C   0  0  0  0  0  0  0  0  0  0  0  0
   17.9298   53.7284   38.5353 C   0  0  1  0  0  0  0  0  0  0  0  0
   19.7982   60.7867   36.6479 N   0  0  0  0  0  0  0  0  0  0  0  0
   18.6300   60.2287   37.3357 C   0  0  0  0  0  0  0  0  0  0  0  0
   18.3834   58.8184   37.2559 N   0  0  0  0  0  0  0  0  0  0  0  0
   17.2064   58.2507   37.9609 C   0  0  0  0  0  0  0  0  0  0  0  0
   16.3264   58.9984   38.6880 C   0  0  0  0  0  0  0  0  0  0  0  0
   15.3979   58.1593   39.1637 N   0  0  0  0  0  0  0  0  0  0  0  0
   15.7166   56.9091   38.7258 C   0  0  0  0  0  0  0  0  0  0  0  0
   16.8568   57.0090   37.9873 N   0  0  0  0  0  0  0  0  0  0  0  0
   17.2800   55.7711   37.4611 C   0  0  2  0  0  0  0  0  0  0  0  0
   16.1342   54.8936   37.4976 O   0  0  0  0  0  0  0  0  0  0  0  0
   16.5107   53.6591   38.1359 C   0  0  2  0  0  0  0  0  0  0  0  0
   15.5180   53.4248   39.3146 C   0  0  0  0  0  0  0  0  0  0  0  0
   16.1033   52.5196   40.2706 O   0  0  0  0  0  0  0  0  0  0  0  0
   15.1339   51.1356   40.5254 P   0  0  1  0  0  0  0  0  0  0  0  0
   15.8253   50.4109   41.6451 O   0  0  0  0  0  0  0  0  0  0  0  0
   13.6501   51.3039   40.7801 O   0  0  0  0  0  0  0  0  0  0  0  0
   15.3264   50.2277   39.0770 O   0  0  0  0  0  0  0  0  0  0  0  0
   16.6887   49.9122   38.7108 C   0  0  2  0  0  0  0  0  0  0  0  0
   16.7305   49.8946   37.2379 C   0  0  2  0  0  0  0  0  0  0  0  0
   15.5530   49.3007   36.6820 O   0  0  0  0  0  0  0  0  0  0  0  0
   19.4315   50.6197   37.9220 O   0  0  0  0  0  0  0  0  0  0  0  0
   20.0113   52.1746   37.7648 P   0  0  2  0  0  0  0  0  0  0  0  0
   20.8425   52.2566   36.4922 O   0  0  0  0  0  0  0  0  0  0  0  0
   20.7623   52.6645   38.9859 O   0  0  0  0  0  0  0  0  0  0  0  0
   18.6308   53.0917   37.4120 O   0  0  0  0  0  0  0  0  0  0  0  0
   18.1961   55.1759   38.5481 C   0  0  2  0  0  0  0  0  0  0  0  0
   19.5561   55.5025   38.3380 O   0  0  0  0  0  0  0  0  0  0  0  0
   18.0005   48.1475   38.0555 O   0  0  0  0  0  0  0  0  0  0  0  0
   17.0322   48.4939   39.0833 C   0  0  1  0  0  0  0  0  0  0  0  0
   17.7435   48.3470   40.3232 N   0  0  0  0  0  0  0  0  0  0  0  0
   19.0650   48.2833   40.5816 C   0  0  0  0  0  0  0  0  0  0  0  0
   19.2198   48.0951   41.9008 N   0  0  0  0  0  0  0  0  0  0  0  0
   17.9922   48.0289   42.4503 C   0  0  0  0  0  0  0  0  0  0  0  0
   17.6110   47.8466   43.7510 C   0  0  0  0  0  0  0  0  0  0  0  0
   18.3214   47.6687   44.9995 N   0  0  0  0  0  0  0  0  0  0  0  0
   16.3197   47.8061   44.0827 N   0  0  0  0  0  0  0  0  0  0  0  0
   15.3755   47.9545   43.1102 C   0  0  0  0  0  0  0  0  0  0  0  0
   15.7607   48.1357   41.8115 N   0  0  0  0  0  0  0  0  0  0  0  0
   17.0701   48.1745   41.4864 C   0  0  0  0  0  0  0  0  0  0  0  0
   16.5880   60.5102   38.7666 C   0  0  0  0  0  0  0  0  0  0  0  0
   15.8748   61.2455   39.3764 O   0  0  0  0  0  0  0  0  0  0  0  0
   17.7188   61.0597   38.0902 N   0  0  0  0  0  0  0  0  0  0  0  0
   17.6936   48.3690   36.0275 H   0  0  0  0  0  0  0  0  0  0  0  0
   20.0031   49.1129   36.5102 H   0  0  0  0  0  0  0  0  0  0  0  0
   19.0281   50.4466   35.8212 H   0  0  0  0  0  0  0  0  0  0  0  0
   18.2121   53.2605   39.4899 H   0  0  0  0  0  0  0  0  0  0  0  0
   19.9895   61.7977   36.6953 H   0  0  0  0  0  0  0  0  0  0  0  0
   20.4276   60.1678   36.1171 H   0  0  0  0  0  0  0  0  0  0  0  0
   15.1548   55.9860   38.9316 H   0  0  0  0  0  0  0  0  0  0  0  0
   17.7313   55.8761   36.4634 H   0  0  0  0  0  0  0  0  0  0  0  0
   16.4380   52.7910   37.4641 H   0  0  0  0  0  0  0  0  0  0  0  0
   15.3007   54.3848   39.8057 H   0  0  0  0  0  0  0  0  0  0  0  0
   14.5861   52.9897   38.9246 H   0  0  0  0  0  0  0  0  0  0  0  0
   17.3609   50.6328   39.1996 H   0  0  0  0  0  0  0  0  0  0  0  0
   16.8218   50.9125   36.8310 H   0  0  0  0  0  0  0  0  0  0  0  0
   14.9578   49.0004   37.4139 H   0  0  0  0  0  0  0  0  0  0  0  0
   17.9817   55.5977   39.5412 H   0  0  0  0  0  0  0  0  0  0  0  0
   20.0083   55.6110   39.2120 H   0  0  0  0  0  0  0  0  0  0  0  0
   16.1106   47.9001   39.1737 H   0  0  0  0  0  0  0  0  0  0  0  0
   19.8739   48.3704   39.8412 H   0  0  0  0  0  0  0  0  0  0  0  0
   17.7970   47.5463   45.8776 H   0  0  0  0  0  0  0  0  0  0  0  0
   19.3514   47.6643   45.0099 H   0  0  0  0  0  0  0  0  0  0  0  0
   14.3070   47.9285   43.3702 H   0  0  0  0  0  0  0  0  0  0  0  0
   17.8898   62.0742   38.1410 H   0  0  0  0  0  0  0  0  0  0  0  0
  1  2  1  0
  1 22  1  0
  1 31  1  0
  2 24  1  0
  3 14  1  0
  3 28  1  0
  3 29  1  0
  4  5  1  0
  5  6  2  0
  5 45  1  0
  6  7  1  0
  7  8  2  0
  7 11  1  0
  8  9  1  0
  8 43  1  0
  9 10  2  0
 10 11  1  0
 12 11  1  0
 12 13  1  0
 12 29  1  0
 13 14  1  0
 14 15  1  0
 15 16  1  0
 16 17  1  0
 17 18  2  0
 17 19  1  1
 17 20  1  0
 21 20  1  0
 21 22  1  0
 21 32  1  0
 22 23  1  0
 24 25  1  0
 25 26  2  0
 25 27  1  1
 25 28  1  0
 29 30  1  0
 31 32  1  0
 32 33  1  0
 33 34  1  0
 33 42  1  0
 34 35  2  0
 35 36  1  0
 36 37  2  0
 36 42  1  0
 37 38  1  0
 37 39  1  0
 39 40  2  0
 40 41  1  0
 41 42  2  0
 43 44  2  0
 43 45  1  0
  1 46  1  6
  2 47  1  0
  2 48  1  0
  3 49  1  1
  4 50  1  0
  4 51  1  0
 10 52  1  0
 12 53  1  6
 14 54  1  6
 15 55  1  0
 15 56  1  0
 21 57  1  1
 22 58  1  6
 23 59  1  0
 29 60  1  1
 30 61  1  0
 32 62  1  1
 34 63  1  0
 38 64  1  0
 38 65  1  0
 40 66  1  0
 45 67  1  0
M  CHG  2  19  -1  27  -1
M  END
>  <filename_input>  (19) 
7RWS_4UR_docked.sdf

>  <pdb_id>  (19) 
7RWS_4UR

>  <pose_rank>  (19) 
18

>  <num_atoms_heavy>  (19) 
45

>  <num_torsions>  (19) 
2

>  <pose>  (19) 
[17.8700490553005, 48.967411899329285, 36.93350804406433, 0.5982279531048065, -0.8283237544198353, -0.09439547686294958, 2.314049824989655, -0.6550103320335933]

>  <energy>  (19) 
-347.9376375347481

>  <inter_energy>  (19) 
-465.9808247750431

>  <intra_energy>  (19) 
114.2203527975498

>  <rmsd>  (19) 
3.83057

>  <sdf_rank>  (19) 
0

$$$$

     RDKit          3D

 67 73  0  0  0  0  0  0  0  0999 V2000
   14.7240   53.5002   34.6547 C   0  0  2  0  0  0  0  0  0  0  0  0
   16.2117   53.6879   34.2739 C   0  0  0  0  0  0  0  0  0  0  0  0
   17.6256   56.1449   37.7887 C   0  0  1  0  0  0  0  0  0  0  0  0
   16.7122   57.7789   43.3610 N   0  0  0  0  0  0  0  0  0  0  0  0
   17.5113   58.6819   42.5271 C   0  0  0  0  0  0  0  0  0  0  0  0
   17.5664   58.4562   41.1122 N   0  0  0  0  0  0  0  0  0  0  0  0
   18.3669   59.3763   40.2654 C   0  0  0  0  0  0  0  0  0  0  0  0
   19.0697   60.4381   40.7562 C   0  0  0  0  0  0  0  0  0  0  0  0
   19.6708   61.0263   39.7145 N   0  0  0  0  0  0  0  0  0  0  0  0
   19.3314   60.3225   38.5983 C   0  0  0  0  0  0  0  0  0  0  0  0
   18.5093   59.3076   38.9848 N   0  0  0  0  0  0  0  0  0  0  0  0
   18.1016   58.4918   37.9094 C   0  0  2  0  0  0  0  0  0  0  0  0
   16.6758   58.3106   38.0460 O   0  0  0  0  0  0  0  0  0  0  0  0
   16.3735   56.9049   37.9701 C   0  0  2  0  0  0  0  0  0  0  0  0
   15.5717   56.5330   39.2539 C   0  0  0  0  0  0  0  0  0  0  0  0
   15.6633   55.1147   39.4907 O   0  0  0  0  0  0  0  0  0  0  0  0
   14.1261   54.3705   39.5510 P   0  0  1  0  0  0  0  0  0  0  0  0
   14.4255   52.9544   39.9535 O   0  0  0  0  0  0  0  0  0  0  0  0
   13.0333   54.9894   40.3982 O   0  0  0  0  0  0  0  0  0  0  0  0
   13.6009   54.3807   37.9130 O   0  0  0  0  0  0  0  0  0  0  0  0
   14.4983   53.7633   36.9627 C   0  0  2  0  0  0  0  0  0  0  0  0
   14.3434   54.5069   35.6999 C   0  0  2  0  0  0  0  0  0  0  0  0
   12.9777   54.8599   35.4576 O   0  0  0  0  0  0  0  0  0  0  0  0
   17.0482   53.5379   35.5160 O   0  0  0  0  0  0  0  0  0  0  0  0
   18.3728   54.5219   35.7521 P   0  0  2  0  0  0  0  0  0  0  0  0
   18.9458   54.8993   34.3932 O   0  0  0  0  0  0  0  0  0  0  0  0
   19.4113   53.9232   36.6783 O   0  0  0  0  0  0  0  0  0  0  0  0
   17.7087   55.9687   36.3325 O   0  0  0  0  0  0  0  0  0  0  0  0
   18.6537   57.0931   38.2474 C   0  0  2  0  0  0  0  0  0  0  0  0
   19.9265   56.8683   37.6732 O   0  0  0  0  0  0  0  0  0  0  0  0
   14.5101   52.2503   35.2378 O   0  0  0  0  0  0  0  0  0  0  0  0
   14.0339   52.3757   36.6059 C   0  0  1  0  0  0  0  0  0  0  0  0
   14.6868   51.3142   37.3213 N   0  0  0  0  0  0  0  0  0  0  0  0
   14.8079   51.0839   38.6441 C   0  0  0  0  0  0  0  0  0  0  0  0
   15.5539   49.9806   38.8050 N   0  0  0  0  0  0  0  0  0  0  0  0
   15.9028   49.5418   37.5807 C   0  0  0  0  0  0  0  0  0  0  0  0
   16.6557   48.4633   37.2060 C   0  0  0  0  0  0  0  0  0  0  0  0
   17.3403   47.4077   37.9218 N   0  0  0  0  0  0  0  0  0  0  0  0
   16.8878   48.2097   35.9172 N   0  0  0  0  0  0  0  0  0  0  0  0
   16.3607   49.0355   34.9688 C   0  0  0  0  0  0  0  0  0  0  0  0
   15.6095   50.1126   35.3475 N   0  0  0  0  0  0  0  0  0  0  0  0
   15.3812   50.3607   36.6545 C   0  0  0  0  0  0  0  0  0  0  0  0
   19.0154   60.6743   42.2732 C   0  0  0  0  0  0  0  0  0  0  0  0
   19.5969   61.5746   42.7953 O   0  0  0  0  0  0  0  0  0  0  0  0
   18.2466   59.7918   43.0907 N   0  0  0  0  0  0  0  0  0  0  0  0
   14.1348   53.6098   33.7322 H   0  0  0  0  0  0  0  0  0  0  0  0
   16.5043   52.9264   33.5360 H   0  0  0  0  0  0  0  0  0  0  0  0
   16.3645   54.6855   33.8362 H   0  0  0  0  0  0  0  0  0  0  0  0
   17.7124   55.1783   38.3065 H   0  0  0  0  0  0  0  0  0  0  0  0
   16.6621   57.9273   44.3790 H   0  0  0  0  0  0  0  0  0  0  0  0
   16.2009   56.9962   42.9288 H   0  0  0  0  0  0  0  0  0  0  0  0
   19.6617   60.5354   37.5709 H   0  0  0  0  0  0  0  0  0  0  0  0
   18.4091   58.9025   36.9363 H   0  0  0  0  0  0  0  0  0  0  0  0
   15.7475   56.6486   37.1027 H   0  0  0  0  0  0  0  0  0  0  0  0
   15.9889   57.0751   40.1154 H   0  0  0  0  0  0  0  0  0  0  0  0
   14.5164   56.8119   39.1175 H   0  0  0  0  0  0  0  0  0  0  0  0
   15.5118   53.7531   37.3903 H   0  0  0  0  0  0  0  0  0  0  0  0
   14.9369   55.4330   35.7090 H   0  0  0  0  0  0  0  0  0  0  0  0
   12.5098   54.9808   36.3216 H   0  0  0  0  0  0  0  0  0  0  0  0
   18.8341   56.9730   39.3258 H   0  0  0  0  0  0  0  0  0  0  0  0
   20.5967   56.7500   38.3922 H   0  0  0  0  0  0  0  0  0  0  0  0
   12.9572   52.2806   36.8096 H   0  0  0  0  0  0  0  0  0  0  0  0
   14.3718   51.6932   39.4494 H   0  0  0  0  0  0  0  0  0  0  0  0
   17.8580   46.6848   37.4020 H   0  0  0  0  0  0  0  0  0  0  0  0
   17.3096   47.3795   38.9510 H   0  0  0  0  0  0  0  0  0  0  0  0
   16.5396   48.8353   33.9020 H   0  0  0  0  0  0  0  0  0  0  0  0
   18.2150   59.9498   44.1080 H   0  0  0  0  0  0  0  0  0  0  0  0
  1  2  1  0
  1 22  1  0
  1 31  1  0
  2 24  1  0
  3 14  1  0
  3 28  1  0
  3 29  1  0
  4  5  1  0
  5  6  2  0
  5 45  1  0
  6  7  1  0
  7  8  2  0
  7 11  1  0
  8  9  1  0
  8 43  1  0
  9 10  2  0
 10 11  1  0
 12 11  1  0
 12 13  1  0
 12 29  1  0
 13 14  1  0
 14 15  1  0
 15 16  1  0
 16 17  1  0
 17 18  2  0
 17 19  1  1
 17 20  1  0
 21 20  1  0
 21 22  1  0
 21 32  1  0
 22 23  1  0
 24 25  1  0
 25 26  2  0
 25 27  1  1
 25 28  1  0
 29 30  1  0
 31 32  1  0
 32 33  1  0
 33 34  1  0
 33 42  1  0
 34 35  2  0
 35 36  1  0
 36 37  2  0
 36 42  1  0
 37 38  1  0
 37 39  1  0
 39 40  2  0
 40 41  1  0
 41 42  2  0
 43 44  2  0
 43 45  1  0
  1 46  1  6
  2 47  1  0
  2 48  1  0
  3 49  1  1
  4 50  1  0
  4 51  1  0
 10 52  1  0
 12 53  1  6
 14 54  1  6
 15 55  1  0
 15 56  1  0
 21 57  1  1
 22 58  1  1
 23 59  1  0
 29 60  1  1
 30 61  1  0
 32 62  1  6
 34 63  1  0
 38 64  1  0
 38 65  1  0
 40 66  1  0
 45 67  1  0
M  CHG  2  19  -1  27  -1
M  END
>  <filename_input>  (20) 
7RWS_4UR_docked.sdf

>  <pdb_id>  (20) 
7RWS_4UR

>  <pose_rank>  (20) 
19

>  <num_atoms_heavy>  (20) 
45

>  <num_torsions>  (20) 
2

>  <pose>  (20) 
[14.72399440721372, 53.5001871927383, 34.65467418489367, -2.849296399116457, 2.421191142753003, 3.1914404069281495, -0.34613278335422926, 8.237806910206189]

>  <energy>  (20) 
-320.04752096326513

>  <inter_energy>  (20) 
-432.7370343685771

>  <intra_energy>  (20) 
104.90343178679584

>  <rmsd>  (20) 
6.69711

>  <sdf_rank>  (20) 
0

$$$$

     RDKit          3D

 67 73  0  0  0  0  0  0  0  0999 V2000
   24.4799   50.9803   39.2148 C   0  0  2  0  0  0  0  0  0  0  0  0
   23.6530   52.2116   38.7747 C   0  0  0  0  0  0  0  0  0  0  0  0
   19.4788   50.6984   39.5972 C   0  0  1  0  0  0  0  0  0  0  0  0
   15.7859   47.8266   42.9210 N   0  0  0  0  0  0  0  0  0  0  0  0
   15.3377   48.0808   41.5486 C   0  0  0  0  0  0  0  0  0  0  0  0
   16.2570   48.6582   40.6120 N   0  0  0  0  0  0  0  0  0  0  0  0
   15.8072   48.9063   39.2188 C   0  0  0  0  0  0  0  0  0  0  0  0
   14.5521   48.6199   38.7663 C   0  0  0  0  0  0  0  0  0  0  0  0
   14.5065   48.9839   37.4787 N   0  0  0  0  0  0  0  0  0  0  0  0
   15.7302   49.4877   37.1547 C   0  0  0  0  0  0  0  0  0  0  0  0
   16.5147   49.4119   38.2656 N   0  0  0  0  0  0  0  0  0  0  0  0
   17.8119   49.9242   38.0575 C   0  0  2  0  0  0  0  0  0  0  0  0
   18.7300   48.8402   38.3147 O   0  0  0  0  0  0  0  0  0  0  0  0
   19.7413   49.2920   39.2347 C   0  0  2  0  0  0  0  0  0  0  0  0
   19.7465   48.3038   40.4401 C   0  0  0  0  0  0  0  0  0  0  0  0
   20.3469   48.9379   41.5861 O   0  0  0  0  0  0  0  0  0  0  0  0
   21.6892   48.0617   42.1783 P   0  0  1  0  0  0  0  0  0  0  0  0
   22.0676   48.7875   43.4381 O   0  0  0  0  0  0  0  0  0  0  0  0
   21.5656   46.5669   42.3919 O   0  0  0  0  0  0  0  0  0  0  0  0
   22.9094   48.3322   40.9965 O   0  0  0  0  0  0  0  0  0  0  0  0
   23.2110   49.7169   40.7118 C   0  0  2  0  0  0  0  0  0  0  0  0
   23.5867   49.7771   39.2881 C   0  0  2  0  0  0  0  0  0  0  0  0
   24.3784   48.6491   38.9015 O   0  0  0  0  0  0  0  0  0  0  0  0
   22.5324   52.4145   39.7586 O   0  0  0  0  0  0  0  0  0  0  0  0
   21.0277   52.8893   39.2211 P   0  0  2  0  0  0  0  0  0  0  0  0
   21.2038   53.7279   37.9629 O   0  0  0  0  0  0  0  0  0  0  0  0
   20.2027   53.5910   40.2803 O   0  0  0  0  0  0  0  0  0  0  0  0
   20.3222   51.4541   38.6611 O   0  0  0  0  0  0  0  0  0  0  0  0
   18.0577   50.8658   39.2526 C   0  0  2  0  0  0  0  0  0  0  0  0
   17.7003   52.2029   38.9614 O   0  0  0  0  0  0  0  0  0  0  0  0
   24.9883   51.1529   40.5031 O   0  0  0  0  0  0  0  0  0  0  0  0
   24.4674   50.1514   41.4195 C   0  0  1  0  0  0  0  0  0  0  0  0
   24.2563   50.8565   42.6537 N   0  0  0  0  0  0  0  0  0  0  0  0
   23.6008   52.0053   42.9141 C   0  0  0  0  0  0  0  0  0  0  0  0
   23.7309   52.2680   44.2232 N   0  0  0  0  0  0  0  0  0  0  0  0
   24.4787   51.2873   44.7637 C   0  0  0  0  0  0  0  0  0  0  0  0
   24.8950   51.0968   46.0525 C   0  0  0  0  0  0  0  0  0  0  0  0
   24.7107   51.8183   47.2938 N   0  0  0  0  0  0  0  0  0  0  0  0
   25.6466   50.0437   46.3766 N   0  0  0  0  0  0  0  0  0  0  0  0
   25.9948   49.1487   45.4086 C   0  0  0  0  0  0  0  0  0  0  0  0
   25.5774   49.3431   44.1218 N   0  0  0  0  0  0  0  0  0  0  0  0
   24.8176   50.4126   43.8043 C   0  0  0  0  0  0  0  0  0  0  0  0
   13.5661   48.0079   39.7730 C   0  0  0  0  0  0  0  0  0  0  0  0
   12.4477   47.7249   39.4722 O   0  0  0  0  0  0  0  0  0  0  0  0
   13.9950   47.7678   41.1133 N   0  0  0  0  0  0  0  0  0  0  0  0
   25.2931   50.8555   38.4846 H   0  0  0  0  0  0  0  0  0  0  0  0
   24.2968   53.1034   38.7574 H   0  0  0  0  0  0  0  0  0  0  0  0
   23.2432   52.0483   37.7670 H   0  0  0  0  0  0  0  0  0  0  0  0
   19.6775   51.0006   40.6361 H   0  0  0  0  0  0  0  0  0  0  0  0
   15.1379   47.4123   43.6061 H   0  0  0  0  0  0  0  0  0  0  0  0
   16.7489   48.0624   43.2003 H   0  0  0  0  0  0  0  0  0  0  0  0
   16.0304   49.8840   36.1735 H   0  0  0  0  0  0  0  0  0  0  0  0
   17.9243   50.3790   37.0622 H   0  0  0  0  0  0  0  0  0  0  0  0
   20.7505   49.2862   38.7972 H   0  0  0  0  0  0  0  0  0  0  0  0
   18.7126   48.0162   40.6814 H   0  0  0  0  0  0  0  0  0  0  0  0
   20.3269   47.4081   40.1740 H   0  0  0  0  0  0  0  0  0  0  0  0
   22.3481   50.3330   41.0049 H   0  0  0  0  0  0  0  0  0  0  0  0
   22.6961   49.8039   38.6431 H   0  0  0  0  0  0  0  0  0  0  0  0
   24.7057   48.1827   39.7110 H   0  0  0  0  0  0  0  0  0  0  0  0
   17.4208   50.6117   40.1127 H   0  0  0  0  0  0  0  0  0  0  0  0
   17.5672   52.7005   39.8068 H   0  0  0  0  0  0  0  0  0  0  0  0
   25.0826   49.2713   41.6579 H   0  0  0  0  0  0  0  0  0  0  0  0
   23.0554   52.6192   42.1821 H   0  0  0  0  0  0  0  0  0  0  0  0
   25.1366   51.4654   48.1627 H   0  0  0  0  0  0  0  0  0  0  0  0
   24.1537   52.6846   47.3082 H   0  0  0  0  0  0  0  0  0  0  0  0
   26.6099   48.2728   45.6627 H   0  0  0  0  0  0  0  0  0  0  0  0
   13.3309   47.3611   41.7875 H   0  0  0  0  0  0  0  0  0  0  0  0
  1  2  1  0
  1 22  1  0
  1 31  1  0
  2 24  1  0
  3 14  1  0
  3 28  1  0
  3 29  1  0
  4  5  1  0
  5  6  2  0
  5 45  1  0
  6  7  1  0
  7  8  2  0
  7 11  1  0
  8  9  1  0
  8 43  1  0
  9 10  2  0
 10 11  1  0
 12 11  1  0
 12 13  1  0
 12 29  1  0
 13 14  1  0
 14 15  1  0
 15 16  1  0
 16 17  1  0
 17 18  2  0
 17 19  1  1
 17 20  1  0
 21 20  1  0
 21 22  1  0
 21 32  1  0
 22 23  1  0
 24 25  1  0
 25 26  2  0
 25 27  1  1
 25 28  1  0
 29 30  1  0
 31 32  1  0
 32 33  1  0
 33 34  1  0
 33 42  1  0
 34 35  2  0
 35 36  1  0
 36 37  2  0
 36 42  1  0
 37 38  1  0
 37 39  1  0
 39 40  2  0
 40 41  1  0
 41 42  2  0
 43 44  2  0
 43 45  1  0
  1 46  1  6
  2 47  1  0
  2 48  1  0
  3 49  1  1
  4 50  1  0
  4 51  1  0
 10 52  1  0
 12 53  1  6
 14 54  1  6
 15 55  1  0
 15 56  1  0
 21 57  1  6
 22 58  1  6
 23 59  1  0
 29 60  1  1
 30 61  1  0
 32 62  1  1
 34 63  1  0
 38 64  1  0
 38 65  1  0
 40 66  1  0
 45 67  1  0
M  CHG  2  19  -1  27  -1
M  END
>  <filename_input>  (21) 
7RWS_4UR_docked.sdf

>  <pdb_id>  (21) 
7RWS_4UR

>  <pose_rank>  (21) 
20

>  <num_atoms_heavy>  (21) 
45

>  <num_torsions>  (21) 
2

>  <pose>  (21) 
[24.47989283169592, 50.9803124100893, 39.21483821020516, -2.3114000184259167, 0.7994545700744882, -3.72849960500977, -0.11534006348168993, -0.06877074624091836]

>  <energy>  (21) 
-377.46778571425324

>  <inter_energy>  (21) 
-382.3859535097839

>  <intra_energy>  (21) 
16.575561839541457

>  <rmsd>  (21) 
7.54845

>  <sdf_rank>  (21) 
0

$$$$

     RDKit          3D

 67 73  0  0  0  0  0  0  0  0999 V2000
   13.2974   53.9340   35.1321 C   0  0  2  0  0  0  0  0  0  0  0  0
   14.6929   53.9045   34.4646 C   0  0  0  0  0  0  0  0  0  0  0  0
   17.1308   56.0073   37.6308 C   0  0  1  0  0  0  0  0  0  0  0  0
   23.3748   59.9402   37.2098 N   0  0  0  0  0  0  0  0  0  0  0  0
   22.2633   60.0117   38.1630 C   0  0  0  0  0  0  0  0  0  0  0  0
   21.0124   59.4004   37.8203 N   0  0  0  0  0  0  0  0  0  0  0  0
   19.8892   59.4632   38.7894 C   0  0  0  0  0  0  0  0  0  0  0  0
   19.9707   60.0805   40.0037 C   0  0  0  0  0  0  0  0  0  0  0  0
   18.7760   59.9468   40.5931 N   0  0  0  0  0  0  0  0  0  0  0  0
   17.9760   59.2505   39.7377 C   0  0  0  0  0  0  0  0  0  0  0  0
   18.7120   58.9598   38.6291 N   0  0  0  0  0  0  0  0  0  0  0  0
   17.9803   58.2493   37.6553 C   0  0  2  0  0  0  0  0  0  0  0  0
   16.5982   58.2835   38.0713 O   0  0  0  0  0  0  0  0  0  0  0  0
   16.0720   56.9433   38.0564 C   0  0  2  0  0  0  0  0  0  0  0  0
   15.4885   56.6585   39.4734 C   0  0  0  0  0  0  0  0  0  0  0  0
   15.4028   55.2362   39.6871 O   0  0  0  0  0  0  0  0  0  0  0  0
   13.8104   54.7335   40.0501 P   0  0  1  0  0  0  0  0  0  0  0  0
   13.9586   53.2765   40.3852 O   0  0  0  0  0  0  0  0  0  0  0  0
   13.0139   55.4852   41.0968 O   0  0  0  0  0  0  0  0  0  0  0  0
   12.9834   54.8742   38.5483 O   0  0  0  0  0  0  0  0  0  0  0  0
   13.5707   54.1570   37.4392 C   0  0  2  0  0  0  0  0  0  0  0  0
   13.2897   54.9542   36.2322 C   0  0  2  0  0  0  0  0  0  0  0  0
   11.9748   55.5185   36.2648 O   0  0  0  0  0  0  0  0  0  0  0  0
   15.7222   53.5904   35.5168 O   0  0  0  0  0  0  0  0  0  0  0  0
   17.2039   54.3531   35.4864 P   0  0  2  0  0  0  0  0  0  0  0  0
   17.5520   54.6806   34.0410 O   0  0  0  0  0  0  0  0  0  0  0  0
   18.2974   53.5748   36.1888 O   0  0  0  0  0  0  0  0  0  0  0  0
   16.8993   55.8657   36.1869 O   0  0  0  0  0  0  0  0  0  0  0  0
   18.3634   56.7731   37.8772 C   0  0  2  0  0  0  0  0  0  0  0  0
   19.4487   56.3747   37.0626 O   0  0  0  0  0  0  0  0  0  0  0  0
   13.0098   52.7139   35.7458 O   0  0  0  0  0  0  0  0  0  0  0  0
   12.8355   52.8681   37.1811 C   0  0  1  0  0  0  0  0  0  0  0  0
   13.4423   51.6978   37.7531 N   0  0  0  0  0  0  0  0  0  0  0  0
   13.5538   51.2973   39.0354 C   0  0  0  0  0  0  0  0  0  0  0  0
   14.2517   50.1518   39.0516 N   0  0  0  0  0  0  0  0  0  0  0  0
   14.5811   49.8567   37.7797 C   0  0  0  0  0  0  0  0  0  0  0  0
   15.2869   48.8031   37.2676 C   0  0  0  0  0  0  0  0  0  0  0  0
   15.9256   47.6373   37.8405 N   0  0  0  0  0  0  0  0  0  0  0  0
   15.5074   48.7047   35.9558 N   0  0  0  0  0  0  0  0  0  0  0  0
   15.0161   49.6653   35.1222 C   0  0  0  0  0  0  0  0  0  0  0  0
   14.3120   50.7170   35.6382 N   0  0  0  0  0  0  0  0  0  0  0  0
   14.0949   50.8075   36.9673 C   0  0  0  0  0  0  0  0  0  0  0  0
   21.3094   60.7412   40.3662 C   0  0  0  0  0  0  0  0  0  0  0  0
   21.4771   61.3052   41.4031 O   0  0  0  0  0  0  0  0  0  0  0  0
   22.3917   60.6827   39.4371 N   0  0  0  0  0  0  0  0  0  0  0  0
   12.5638   54.1606   34.3445 H   0  0  0  0  0  0  0  0  0  0  0  0
   14.7135   53.1304   33.6833 H   0  0  0  0  0  0  0  0  0  0  0  0
   14.9105   54.8801   34.0056 H   0  0  0  0  0  0  0  0  0  0  0  0
   17.1656   55.0232   38.1211 H   0  0  0  0  0  0  0  0  0  0  0  0
   24.2799   60.3742   37.4406 H   0  0  0  0  0  0  0  0  0  0  0  0
   23.2507   59.4558   36.3093 H   0  0  0  0  0  0  0  0  0  0  0  0
   16.9258   58.9733   39.9112 H   0  0  0  0  0  0  0  0  0  0  0  0
   18.1518   58.6383   36.6408 H   0  0  0  0  0  0  0  0  0  0  0  0
   15.2564   56.8123   37.3299 H   0  0  0  0  0  0  0  0  0  0  0  0
   16.1451   57.1037   40.2354 H   0  0  0  0  0  0  0  0  0  0  0  0
   14.4833   57.0990   39.5485 H   0  0  0  0  0  0  0  0  0  0  0  0
   14.6340   53.9792   37.6579 H   0  0  0  0  0  0  0  0  0  0  0  0
   14.0102   55.7783   36.1238 H   0  0  0  0  0  0  0  0  0  0  0  0
   11.6912   55.6402   37.2054 H   0  0  0  0  0  0  0  0  0  0  0  0
   18.7301   56.5936   38.8986 H   0  0  0  0  0  0  0  0  0  0  0  0
   20.2067   56.0966   37.6355 H   0  0  0  0  0  0  0  0  0  0  0  0
   11.8178   52.9320   37.5937 H   0  0  0  0  0  0  0  0  0  0  0  0
   13.1445   51.8180   39.9137 H   0  0  0  0  0  0  0  0  0  0  0  0
   16.4116   46.9644   37.2307 H   0  0  0  0  0  0  0  0  0  0  0  0
   15.8940   47.4806   38.8581 H   0  0  0  0  0  0  0  0  0  0  0  0
   15.1859   49.5942   34.0377 H   0  0  0  0  0  0  0  0  0  0  0  0
   23.2870   61.1300   39.6808 H   0  0  0  0  0  0  0  0  0  0  0  0
  1  2  1  0
  1 22  1  0
  1 31  1  0
  2 24  1  0
  3 14  1  0
  3 28  1  0
  3 29  1  0
  4  5  1  0
  5  6  2  0
  5 45  1  0
  6  7  1  0
  7  8  2  0
  7 11  1  0
  8  9  1  0
  8 43  1  0
  9 10  2  0
 10 11  1  0
 12 11  1  0
 12 13  1  0
 12 29  1  0
 13 14  1  0
 14 15  1  0
 15 16  1  0
 16 17  1  0
 17 18  2  0
 17 19  1  1
 17 20  1  0
 21 20  1  0
 21 22  1  0
 21 32  1  0
 22 23  1  0
 24 25  1  0
 25 26  2  0
 25 27  1  1
 25 28  1  0
 29 30  1  0
 31 32  1  0
 32 33  1  0
 33 34  1  0
 33 42  1  0
 34 35  2  0
 35 36  1  0
 36 37  2  0
 36 42  1  0
 37 38  1  0
 37 39  1  0
 39 40  2  0
 40 41  1  0
 41 42  2  0
 43 44  2  0
 43 45  1  0
  1 46  1  6
  2 47  1  0
  2 48  1  0
  3 49  1  1
  4 50  1  0
  4 51  1  0
 10 52  1  0
 12 53  1  6
 14 54  1  6
 15 55  1  0
 15 56  1  0
 21 57  1  1
 22 58  1  6
 23 59  1  0
 29 60  1  1
 30 61  1  0
 32 62  1  6
 34 63  1  0
 38 64  1  0
 38 65  1  0
 40 66  1  0
 45 67  1  0
M  CHG  2  19  -1  27  -1
M  END
>  <filename_input>  (22) 
7RWS_4UR_docked.sdf

>  <pdb_id>  (22) 
7RWS_4UR

>  <pose_rank>  (22) 
21

>  <num_atoms_heavy>  (22) 
45

>  <num_torsions>  (22) 
2

>  <pose>  (22) 
[13.297444879332902, 53.9340298723841, 35.13211321518405, -2.310073772739671, 1.9498192999113804, 3.8364548335527062, 2.1623308776326935, 2.2060406824266288]

>  <energy>  (22) 
-377.9585377367122

>  <inter_energy>  (22) 
-466.47303211253285

>  <intra_energy>  (22) 
96.71394536858048

>  <rmsd>  (22) 
7.15624

>  <sdf_rank>  (22) 
0

$$$$

     RDKit          3D

 67 73  0  0  0  0  0  0  0  0999 V2000
   21.8129   60.0824   39.6333 C   0  0  2  0  0  0  0  0  0  0  0  0
   20.7312   60.7014   40.5501 C   0  0  0  0  0  0  0  0  0  0  0  0
   17.1246   58.3215   39.2391 C   0  0  1  0  0  0  0  0  0  0  0  0
   15.2924   53.6829   35.8187 N   0  0  0  0  0  0  0  0  0  0  0  0
   14.3459   54.7696   36.0880 C   0  0  0  0  0  0  0  0  0  0  0  0
   14.8379   56.0022   36.6308 N   0  0  0  0  0  0  0  0  0  0  0  0
   13.8816   57.1072   36.8940 C   0  0  0  0  0  0  0  0  0  0  0  0
   12.5412   57.0217   36.6533 C   0  0  0  0  0  0  0  0  0  0  0  0
   12.0015   58.1915   37.0178 N   0  0  0  0  0  0  0  0  0  0  0  0
   13.0129   58.9809   37.4763 C   0  0  0  0  0  0  0  0  0  0  0  0
   14.1702   58.2701   37.3728 N   0  0  0  0  0  0  0  0  0  0  0  0
   15.2951   58.9823   37.8372 C   0  0  2  0  0  0  0  0  0  0  0  0
   16.4016   58.6041   36.9905 O   0  0  0  0  0  0  0  0  0  0  0  0
   17.5110   58.2094   37.8191 C   0  0  2  0  0  0  0  0  0  0  0  0
   17.9344   56.7764   37.3755 C   0  0  0  0  0  0  0  0  0  0  0  0
   18.6706   56.1367   38.4360 O   0  0  0  0  0  0  0  0  0  0  0  0
   20.2283   55.6450   37.9340 P   0  0  1  0  0  0  0  0  0  0  0  0
   20.7621   54.8780   39.1103 O   0  0  0  0  0  0  0  0  0  0  0  0
   20.3845   54.8839   36.6335 O   0  0  0  0  0  0  0  0  0  0  0  0
   21.0997   57.1217   37.7952 O   0  0  0  0  0  0  0  0  0  0  0  0
   21.1159   57.9539   38.9771 C   0  0  2  0  0  0  0  0  0  0  0  0
   21.1523   59.3489   38.5035 C   0  0  2  0  0  0  0  0  0  0  0  0
   22.0006   59.4979   37.3604 O   0  0  0  0  0  0  0  0  0  0  0  0
   19.8396   59.5984   41.0537 O   0  0  0  0  0  0  0  0  0  0  0  0
   18.1989   59.8539   41.1982 P   0  0  2  0  0  0  0  0  0  0  0  0
   17.9612   61.3282   41.4939 O   0  0  0  0  0  0  0  0  0  0  0  0
   17.5328   58.9408   42.2069 O   0  0  0  0  0  0  0  0  0  0  0  0
   17.6137   59.6534   39.6206 O   0  0  0  0  0  0  0  0  0  0  0  0
   15.6539   58.3159   39.1797 C   0  0  2  0  0  0  0  0  0  0  0  0
   15.0413   58.9632   40.2779 O   0  0  0  0  0  0  0  0  0  0  0  0
   22.5624   59.1252   40.3187 O   0  0  0  0  0  0  0  0  0  0  0  0
   22.4169   57.8075   39.7215 C   0  0  1  0  0  0  0  0  0  0  0  0
   22.3804   56.9007   40.8356 N   0  0  0  0  0  0  0  0  0  0  0  0
   21.3788   56.5741   41.6766 C   0  0  0  0  0  0  0  0  0  0  0  0
   21.8643   55.7125   42.5830 N   0  0  0  0  0  0  0  0  0  0  0  0
   23.1683   55.5212   42.3065 C   0  0  0  0  0  0  0  0  0  0  0  0
   24.1028   54.7421   42.9312 C   0  0  0  0  0  0  0  0  0  0  0  0
   24.0798   53.8498   44.0707 N   0  0  0  0  0  0  0  0  0  0  0  0
   25.3608   54.7019   42.4898 N   0  0  0  0  0  0  0  0  0  0  0  0
   25.7101   55.4436   41.4003 C   0  0  0  0  0  0  0  0  0  0  0  0
   24.7734   56.2215   40.7794 N   0  0  0  0  0  0  0  0  0  0  0  0
   23.5032   56.2555   41.2345 C   0  0  0  0  0  0  0  0  0  0  0  0
   12.0147   55.6979   36.0785 C   0  0  0  0  0  0  0  0  0  0  0  0
   10.8599   55.5272   35.8363 O   0  0  0  0  0  0  0  0  0  0  0  0
   12.9311   54.6332   35.8239 N   0  0  0  0  0  0  0  0  0  0  0  0
   22.4527   60.9054   39.2822 H   0  0  0  0  0  0  0  0  0  0  0  0
   21.2115   61.2071   41.4007 H   0  0  0  0  0  0  0  0  0  0  0  0
   20.1376   61.4368   39.9872 H   0  0  0  0  0  0  0  0  0  0  0  0
   17.5007   57.5526   39.9299 H   0  0  0  0  0  0  0  0  0  0  0  0
   14.9552   52.7911   35.4289 H   0  0  0  0  0  0  0  0  0  0  0  0
   16.2945   53.8111   36.0194 H   0  0  0  0  0  0  0  0  0  0  0  0
   12.9129   60.0067   37.8607 H   0  0  0  0  0  0  0  0  0  0  0  0
   15.1130   60.0664   37.8777 H   0  0  0  0  0  0  0  0  0  0  0  0
   18.3867   58.8648   37.7017 H   0  0  0  0  0  0  0  0  0  0  0  0
   17.0361   56.1846   37.1455 H   0  0  0  0  0  0  0  0  0  0  0  0
   18.5707   56.8454   36.4809 H   0  0  0  0  0  0  0  0  0  0  0  0
   20.2562   57.6857   39.6087 H   0  0  0  0  0  0  0  0  0  0  0  0
   20.1472   59.7014   38.2286 H   0  0  0  0  0  0  0  0  0  0  0  0
   22.9304   59.6613   37.6586 H   0  0  0  0  0  0  0  0  0  0  0  0
   15.2703   57.2868   39.2422 H   0  0  0  0  0  0  0  0  0  0  0  0
   15.3965   58.5878   41.1223 H   0  0  0  0  0  0  0  0  0  0  0  0
   23.1965   57.4397   39.0381 H   0  0  0  0  0  0  0  0  0  0  0  0
   20.3455   56.9481   41.6282 H   0  0  0  0  0  0  0  0  0  0  0  0
   24.9388   53.3597   44.3584 H   0  0  0  0  0  0  0  0  0  0  0  0
   23.2044   53.7049   44.5938 H   0  0  0  0  0  0  0  0  0  0  0  0
   26.7427   55.4160   41.0221 H   0  0  0  0  0  0  0  0  0  0  0  0
   12.5751   53.7452   35.4423 H   0  0  0  0  0  0  0  0  0  0  0  0
  1  2  1  0
  1 22  1  0
  1 31  1  0
  2 24  1  0
  3 14  1  0
  3 28  1  0
  3 29  1  0
  4  5  1  0
  5  6  2  0
  5 45  1  0
  6  7  1  0
  7  8  2  0
  7 11  1  0
  8  9  1  0
  8 43  1  0
  9 10  2  0
 10 11  1  0
 12 11  1  0
 12 13  1  0
 12 29  1  0
 13 14  1  0
 14 15  1  0
 15 16  1  0
 16 17  1  0
 17 18  2  0
 17 19  1  6
 17 20  1  0
 21 20  1  0
 21 22  1  0
 21 32  1  0
 22 23  1  0
 24 25  1  0
 25 26  2  0
 25 27  1  1
 25 28  1  0
 29 30  1  0
 31 32  1  0
 32 33  1  0
 33 34  1  0
 33 42  1  0
 34 35  2  0
 35 36  1  0
 36 37  2  0
 36 42  1  0
 37 38  1  0
 37 39  1  0
 39 40  2  0
 40 41  1  0
 41 42  2  0
 43 44  2  0
 43 45  1  0
  1 46  1  6
  2 47  1  0
  2 48  1  0
  3 49  1  1
  4 50  1  0
  4 51  1  0
 10 52  1  0
 12 53  1  1
 14 54  1  1
 15 55  1  0
 15 56  1  0
 21 57  1  1
 22 58  1  6
 23 59  1  0
 29 60  1  6
 30 61  1  0
 32 62  1  6
 34 63  1  0
 38 64  1  0
 38 65  1  0
 40 66  1  0
 45 67  1  0
M  CHG  2  19  -1  27  -1
M  END
>  <filename_input>  (23) 
7RWS_4UR_docked.sdf

>  <pdb_id>  (23) 
7RWS_4UR

>  <pose_rank>  (23) 
22

>  <num_atoms_heavy>  (23) 
45

>  <num_torsions>  (23) 
2

>  <pose>  (23) 
[21.812850030604952, 60.08243052387501, 39.63332071183312, 2.028470140572205, -1.1140457682741618, 1.4598920731698255, -0.5470458297145924, 0.4316045832766729]

>  <energy>  (23) 
-294.1545286252745

>  <inter_energy>  (23) 
-314.5643095962367

>  <intra_energy>  (23) 
19.76194511529875

>  <rmsd>  (23) 
8.66734

>  <sdf_rank>  (23) 
0

$$$$

     RDKit          3D

 67 73  0  0  0  0  0  0  0  0999 V2000
   24.4186   46.0472   41.2559 C   0  0  2  0  0  0  0  0  0  0  0  0
   24.7441   46.8734   39.9891 C   0  0  0  0  0  0  0  0  0  0  0  0
   20.9837   49.3532   39.6724 C   0  0  1  0  0  0  0  0  0  0  0  0
   13.9150   47.0876   39.0956 N   0  0  0  0  0  0  0  0  0  0  0  0
   14.5670   48.3458   38.7200 C   0  0  0  0  0  0  0  0  0  0  0  0
   15.9954   48.3805   38.6000 N   0  0  0  0  0  0  0  0  0  0  0  0
   16.6560   49.6516   38.2094 C   0  0  0  0  0  0  0  0  0  0  0  0
   15.9798   50.8099   37.9580 C   0  0  0  0  0  0  0  0  0  0  0  0
   16.8934   51.7386   37.6490 N   0  0  0  0  0  0  0  0  0  0  0  0
   18.1170   51.1428   37.7129 C   0  0  0  0  0  0  0  0  0  0  0  0
   17.9234   49.8389   38.0561 N   0  0  0  0  0  0  0  0  0  0  0  0
   19.1291   49.1168   38.1713 C   0  0  2  0  0  0  0  0  0  0  0  0
   18.9512   48.1876   39.2618 O   0  0  0  0  0  0  0  0  0  0  0  0
   20.0613   48.3141   40.1700 C   0  0  2  0  0  0  0  0  0  0  0  0
   19.4726   48.5962   41.5854 C   0  0  0  0  0  0  0  0  0  0  0  0
   20.4774   49.2087   42.4168 O   0  0  0  0  0  0  0  0  0  0  0  0
   20.7726   48.3096   43.8397 P   0  0  1  0  0  0  0  0  0  0  0  0
   21.7144   49.1764   44.6263 O   0  0  0  0  0  0  0  0  0  0  0  0
   19.6014   47.8310   44.6730 O   0  0  0  0  0  0  0  0  0  0  0  0
   21.6296   46.9268   43.2809 O   0  0  0  0  0  0  0  0  0  0  0  0
   22.8264   47.1971   42.5167 C   0  0  2  0  0  0  0  0  0  0  0  0
   22.9448   46.1092   41.5298 C   0  0  2  0  0  0  0  0  0  0  0  0
   22.5735   44.8450   42.0884 O   0  0  0  0  0  0  0  0  0  0  0  0
   24.2817   48.2890   40.2068 O   0  0  0  0  0  0  0  0  0  0  0  0
   23.5872   49.1406   38.9535 P   0  0  2  0  0  0  0  0  0  0  0  0
   24.1764   48.6410   37.6417 O   0  0  0  0  0  0  0  0  0  0  0  0
   23.6999   50.6432   39.1099 O   0  0  0  0  0  0  0  0  0  0  0  0
   21.9863   48.5863   38.9206 O   0  0  0  0  0  0  0  0  0  0  0  0
   20.1376   50.1282   38.7505 C   0  0  2  0  0  0  0  0  0  0  0  0
   20.8671   50.7943   37.7383 O   0  0  0  0  0  0  0  0  0  0  0  0
   25.0359   46.5932   42.3824 O   0  0  0  0  0  0  0  0  0  0  0  0
   24.0582   47.0283   43.3667 C   0  0  1  0  0  0  0  0  0  0  0  0
   24.5960   48.2471   43.9055 N   0  0  0  0  0  0  0  0  0  0  0  0
   25.3791   48.4683   44.9803 C   0  0  0  0  0  0  0  0  0  0  0  0
   25.5687   49.7919   45.0882 N   0  0  0  0  0  0  0  0  0  0  0  0
   24.8899   50.3843   44.0874 C   0  0  0  0  0  0  0  0  0  0  0  0
   24.7625   51.7067   43.7628 C   0  0  0  0  0  0  0  0  0  0  0  0
   25.2771   52.9404   44.3182 N   0  0  0  0  0  0  0  0  0  0  0  0
   24.0255   52.0830   42.7167 N   0  0  0  0  0  0  0  0  0  0  0  0
   23.4002   51.1333   41.9643 C   0  0  0  0  0  0  0  0  0  0  0  0
   23.5295   49.8129   42.2925 N   0  0  0  0  0  0  0  0  0  0  0  0
   24.2772   49.4428   43.3535 C   0  0  0  0  0  0  0  0  0  0  0  0
   14.4501   50.7729   38.0939 C   0  0  0  0  0  0  0  0  0  0  0  0
   13.7731   51.7341   37.8961 O   0  0  0  0  0  0  0  0  0  0  0  0
   13.8113   49.5525   38.4692 N   0  0  0  0  0  0  0  0  0  0  0  0
   24.7689   45.0203   41.0745 H   0  0  0  0  0  0  0  0  0  0  0  0
   25.8290   46.8618   39.8077 H   0  0  0  0  0  0  0  0  0  0  0  0
   24.2322   46.4410   39.1167 H   0  0  0  0  0  0  0  0  0  0  0  0
   21.4650   50.0039   40.4174 H   0  0  0  0  0  0  0  0  0  0  0  0
   12.8899   47.0458   39.1861 H   0  0  0  0  0  0  0  0  0  0  0  0
   14.4821   46.2455   39.2691 H   0  0  0  0  0  0  0  0  0  0  0  0
   19.0860   51.6271   37.5220 H   0  0  0  0  0  0  0  0  0  0  0  0
   19.4218   48.6427   37.2229 H   0  0  0  0  0  0  0  0  0  0  0  0
   20.6640   47.3965   40.2388 H   0  0  0  0  0  0  0  0  0  0  0  0
   18.6108   49.2737   41.4945 H   0  0  0  0  0  0  0  0  0  0  0  0
   19.1511   47.6482   42.0415 H   0  0  0  0  0  0  0  0  0  0  0  0
   22.7576   48.2136   42.1019 H   0  0  0  0  0  0  0  0  0  0  0  0
   22.3044   46.2951   40.6550 H   0  0  0  0  0  0  0  0  0  0  0  0
   22.5905   44.9030   43.0766 H   0  0  0  0  0  0  0  0  0  0  0  0
   19.6354   50.9474   39.2858 H   0  0  0  0  0  0  0  0  0  0  0  0
   21.5306   51.4001   38.1541 H   0  0  0  0  0  0  0  0  0  0  0  0
   23.8322   46.3753   44.2226 H   0  0  0  0  0  0  0  0  0  0  0  0
   25.7901   47.6990   45.6506 H   0  0  0  0  0  0  0  0  0  0  0  0
   25.0331   53.8419   43.8840 H   0  0  0  0  0  0  0  0  0  0  0  0
   25.8873   52.9167   45.1477 H   0  0  0  0  0  0  0  0  0  0  0  0
   22.7936   51.4290   41.0956 H   0  0  0  0  0  0  0  0  0  0  0  0
   12.7859   49.5312   38.5636 H   0  0  0  0  0  0  0  0  0  0  0  0
  1  2  1  0
  1 22  1  0
  1 31  1  0
  2 24  1  0
  3 14  1  0
  3 28  1  0
  3 29  1  0
  4  5  1  0
  5  6  2  0
  5 45  1  0
  6  7  1  0
  7  8  2  0
  7 11  1  0
  8  9  1  0
  8 43  1  0
  9 10  2  0
 10 11  1  0
 12 11  1  0
 12 13  1  0
 12 29  1  0
 13 14  1  0
 14 15  1  0
 15 16  1  0
 16 17  1  0
 17 18  2  0
 17 19  1  1
 17 20  1  0
 21 20  1  0
 21 22  1  0
 21 32  1  0
 22 23  1  0
 24 25  1  0
 25 26  2  0
 25 27  1  1
 25 28  1  0
 29 30  1  0
 31 32  1  0
 32 33  1  0
 33 34  1  0
 33 42  1  0
 34 35  2  0
 35 36  1  0
 36 37  2  0
 36 42  1  0
 37 38  1  0
 37 39  1  0
 39 40  2  0
 40 41  1  0
 41 42  2  0
 43 44  2  0
 43 45  1  0
  1 46  1  6
  2 47  1  0
  2 48  1  0
  3 49  1  1
  4 50  1  0
  4 51  1  0
 10 52  1  0
 12 53  1  6
 14 54  1  1
 15 55  1  0
 15 56  1  0
 21 57  1  6
 22 58  1  6
 23 59  1  0
 29 60  1  1
 30 61  1  0
 32 62  1  1
 34 63  1  0
 38 64  1  0
 38 65  1  0
 40 66  1  0
 45 67  1  0
M  CHG  2  19  -1  27  -1
M  END
>  <filename_input>  (24) 
7RWS_4UR_docked.sdf

>  <pdb_id>  (24) 
7RWS_4UR

>  <pose_rank>  (24) 
23

>  <num_atoms_heavy>  (24) 
45

>  <num_torsions>  (24) 
2

>  <pose>  (24) 
[24.418634489095385, 46.04715634288913, 41.25592893696184, -0.51407996024743, 1.6498089836158023, -5.146964375870799, -1.792661095686741, -2.5725569398128623]

>  <energy>  (24) 
-255.62171402850214

>  <inter_energy>  (24) 
-395.5260096823621

>  <intra_energy>  (24) 
140.59742622136133

>  <rmsd>  (24) 
7.32855

>  <sdf_rank>  (24) 
0

$$$$

     RDKit          3D

 67 73  0  0  0  0  0  0  0  0999 V2000
   24.8312   52.6366   37.8175 C   0  0  2  0  0  0  0  0  0  0  0  0
   23.5277   52.3541   37.0335 C   0  0  0  0  0  0  0  0  0  0  0  0
   20.8079   51.1423   40.4282 C   0  0  1  0  0  0  0  0  0  0  0  0
   14.3977   48.5371   40.9887 N   0  0  0  0  0  0  0  0  0  0  0  0
   15.5176   48.2929   41.9026 C   0  0  0  0  0  0  0  0  0  0  0  0
   16.8527   48.5635   41.4551 N   0  0  0  0  0  0  0  0  0  0  0  0
   17.9869   48.3265   42.3836 C   0  0  0  0  0  0  0  0  0  0  0  0
   17.8381   47.8548   43.6554 C   0  0  0  0  0  0  0  0  0  0  0  0
   19.0644   47.7580   44.1841 N   0  0  0  0  0  0  0  0  0  0  0  0
   19.9504   48.1707   43.2349 C   0  0  0  0  0  0  0  0  0  0  0  0
   19.2363   48.5258   42.1307 N   0  0  0  0  0  0  0  0  0  0  0  0
   20.0524   48.9576   41.0649 C   0  0  2  0  0  0  0  0  0  0  0  0
   21.3736   49.1577   41.6114 O   0  0  0  0  0  0  0  0  0  0  0  0
   21.8435   50.4649   41.2325 C   0  0  2  0  0  0  0  0  0  0  0  0
   22.2377   51.2135   42.5417 C   0  0  0  0  0  0  0  0  0  0  0  0
   22.2395   52.6351   42.3073 O   0  0  0  0  0  0  0  0  0  0  0  0
   23.7541   53.3444   42.6577 P   0  0  1  0  0  0  0  0  0  0  0  0
   23.5078   54.8183   42.5028 O   0  0  0  0  0  0  0  0  0  0  0  0
   24.4464   53.0121   43.9637 O   0  0  0  0  0  0  0  0  0  0  0  0
   24.7633   52.8141   41.3696 O   0  0  0  0  0  0  0  0  0  0  0  0
   24.2875   53.1105   40.0371 C   0  0  2  0  0  0  0  0  0  0  0  0
   24.7456   52.0058   39.1761 C   0  0  2  0  0  0  0  0  0  0  0  0
   26.0682   51.5804   39.5196 O   0  0  0  0  0  0  0  0  0  0  0  0
   22.3659   52.8959   37.8220 O   0  0  0  0  0  0  0  0  0  0  0  0
   20.9307   52.0500   37.8785 P   0  0  2  0  0  0  0  0  0  0  0  0
   20.7752   51.2703   36.5803 O   0  0  0  0  0  0  0  0  0  0  0  0
   19.7293   52.9205   38.1848 O   0  0  0  0  0  0  0  0  0  0  0  0
   21.2080   50.8524   39.0446 O   0  0  0  0  0  0  0  0  0  0  0  0
   19.5861   50.3973   40.7728 C   0  0  2  0  0  0  0  0  0  0  0  0
   18.5932   50.4433   39.7666 O   0  0  0  0  0  0  0  0  0  0  0  0
   24.9926   54.0041   38.0450 O   0  0  0  0  0  0  0  0  0  0  0  0
   24.9964   54.3105   39.4664 C   0  0  1  0  0  0  0  0  0  0  0  0
   24.2778   55.5500   39.5773 N   0  0  0  0  0  0  0  0  0  0  0  0
   24.7095   56.8268   39.5545 C   0  0  0  0  0  0  0  0  0  0  0  0
   23.6486   57.6255   39.7449 N   0  0  0  0  0  0  0  0  0  0  0  0
   22.5674   56.8378   39.8990 C   0  0  0  0  0  0  0  0  0  0  0  0
   21.2573   57.1624   40.1194 C   0  0  0  0  0  0  0  0  0  0  0  0
   20.5320   58.4071   40.2614 N   0  0  0  0  0  0  0  0  0  0  0  0
   20.3325   56.2101   40.2500 N   0  0  0  0  0  0  0  0  0  0  0  0
   20.7037   54.9015   40.1558 C   0  0  0  0  0  0  0  0  0  0  0  0
   22.0142   54.5813   39.9363 N   0  0  0  0  0  0  0  0  0  0  0  0
   22.9422   55.5527   39.8063 C   0  0  0  0  0  0  0  0  0  0  0  0
   16.4077   47.5586   44.1308 C   0  0  0  0  0  0  0  0  0  0  0  0
   16.1769   47.1429   45.2241 O   0  0  0  0  0  0  0  0  0  0  0  0
   15.3145   47.7854   43.2410 N   0  0  0  0  0  0  0  0  0  0  0  0
   25.6641   52.2363   37.2207 H   0  0  0  0  0  0  0  0  0  0  0  0
   23.5715   52.8479   36.0515 H   0  0  0  0  0  0  0  0  0  0  0  0
   23.4071   51.2712   36.8828 H   0  0  0  0  0  0  0  0  0  0  0  0
   20.6739   52.2236   40.5796 H   0  0  0  0  0  0  0  0  0  0  0  0
   13.4326   48.3479   41.2947 H   0  0  0  0  0  0  0  0  0  0  0  0
   14.5759   48.8978   40.0405 H   0  0  0  0  0  0  0  0  0  0  0  0
   21.0446   48.2099   43.3411 H   0  0  0  0  0  0  0  0  0  0  0  0
   20.0218   48.2649   40.2109 H   0  0  0  0  0  0  0  0  0  0  0  0
   22.7357   50.4289   40.5901 H   0  0  0  0  0  0  0  0  0  0  0  0
   21.5113   50.9743   43.3324 H   0  0  0  0  0  0  0  0  0  0  0  0
   23.2430   50.8949   42.8545 H   0  0  0  0  0  0  0  0  0  0  0  0
   23.1992   53.2652   40.0779 H   0  0  0  0  0  0  0  0  0  0  0  0
   24.0774   51.1358   39.2570 H   0  0  0  0  0  0  0  0  0  0  0  0
   26.1599   51.5509   40.5049 H   0  0  0  0  0  0  0  0  0  0  0  0
   19.0905   50.8524   41.6430 H   0  0  0  0  0  0  0  0  0  0  0  0
   17.6983   50.4848   40.1878 H   0  0  0  0  0  0  0  0  0  0  0  0
   25.9578   54.4537   39.9813 H   0  0  0  0  0  0  0  0  0  0  0  0
   25.7486   57.1558   39.4058 H   0  0  0  0  0  0  0  0  0  0  0  0
   19.5156   58.3948   40.4274 H   0  0  0  0  0  0  0  0  0  0  0  0
   21.0324   59.3050   40.1966 H   0  0  0  0  0  0  0  0  0  0  0  0
   19.9508   54.1059   40.2563 H   0  0  0  0  0  0  0  0  0  0  0  0
   14.3567   47.5822   43.5607 H   0  0  0  0  0  0  0  0  0  0  0  0
  1  2  1  0
  1 22  1  0
  1 31  1  0
  2 24  1  0
  3 14  1  0
  3 28  1  0
  3 29  1  0
  4  5  1  0
  5  6  2  0
  5 45  1  0
  6  7  1  0
  7  8  2  0
  7 11  1  0
  8  9  1  0
  8 43  1  0
  9 10  2  0
 10 11  1  0
 12 11  1  0
 12 13  1  0
 12 29  1  0
 13 14  1  0
 14 15  1  0
 15 16  1  0
 16 17  1  0
 17 18  2  0
 17 19  1  1
 17 20  1  0
 21 20  1  0
 21 22  1  0
 21 32  1  0
 22 23  1  0
 24 25  1  0
 25 26  2  0
 25 27  1  1
 25 28  1  0
 29 30  1  0
 31 32  1  0
 32 33  1  0
 33 34  1  0
 33 42  1  0
 34 35  2  0
 35 36  1  0
 36 37  2  0
 36 42  1  0
 37 38  1  0
 37 39  1  0
 39 40  2  0
 40 41  1  0
 41 42  2  0
 43 44  2  0
 43 45  1  0
  1 46  1  6
  2 47  1  0
  2 48  1  0
  3 49  1  6
  4 50  1  0
  4 51  1  0
 10 52  1  0
 12 53  1  6
 14 54  1  6
 15 55  1  0
 15 56  1  0
 21 57  1  1
 22 58  1  6
 23 59  1  0
 29 60  1  1
 30 61  1  0
 32 62  1  1
 34 63  1  0
 38 64  1  0
 38 65  1  0
 40 66  1  0
 45 67  1  0
M  CHG  2  19  -1  27  -1
M  END
>  <filename_input>  (25) 
7RWS_4UR_docked.sdf

>  <pdb_id>  (25) 
7RWS_4UR

>  <pose_rank>  (25) 
24

>  <num_atoms_heavy>  (25) 
45

>  <num_torsions>  (25) 
2

>  <pose>  (25) 
[24.831242306653923, 52.63657876947423, 37.817497306776716, 0.2886054178545351, 0.9507186463940968, 1.7541653184226695, 1.7619417938481814, -2.552721585888849]

>  <energy>  (25) 
-215.9993834035305

>  <inter_energy>  (25) 
-342.34892651683174

>  <intra_energy>  (25) 
124.22576476217472

>  <rmsd>  (25) 
9.55641

>  <sdf_rank>  (25) 
0

$$$$

     RDKit          3D

 67 73  0  0  0  0  0  0  0  0999 V2000
   15.5650   47.0980   38.9340 C   0  0  2  0  0  0  0  0  0  0  0  0
   16.0330   47.4660   37.5060 C   0  0  0  0  0  0  0  0  0  0  0  0
   15.2160   51.9070   37.5240 C   0  0  1  0  0  0  0  0  0  0  0  0
   15.6880   57.0680   39.8840 N   0  0  0  0  0  0  0  0  0  0  0  0
   14.7150   56.9680   38.7920 C   0  0  0  0  0  0  0  0  0  0  0  0
   14.4550   55.6850   38.2070 N   0  0  0  0  0  0  0  0  0  0  0  0
   13.4620   55.5810   37.1080 C   0  0  0  0  0  0  0  0  0  0  0  0
   12.7730   56.6470   36.6070 C   0  0  0  0  0  0  0  0  0  0  0  0
   11.9850   56.1810   35.6300 N   0  0  0  0  0  0  0  0  0  0  0  0
   12.1970   54.8380   35.5420 C   0  0  0  0  0  0  0  0  0  0  0  0
   13.1180   54.5030   36.4880 N   0  0  0  0  0  0  0  0  0  0  0  0
   13.4350   53.1290   36.4830 C   0  0  2  0  0  0  0  0  0  0  0  0
   12.9460   52.5880   37.7290 O   0  0  0  0  0  0  0  0  0  0  0  0
   14.0040   51.8460   38.3640 C   0  0  2  0  0  0  0  0  0  0  0  0
   14.1820   52.4280   39.7990 C   0  0  0  0  0  0  0  0  0  0  0  0
   15.4930   52.0990   40.2980 O   0  0  0  0  0  0  0  0  0  0  0  0
   15.4240   51.2270   41.7660 P   0  0  1  0  0  0  0  0  0  0  0  0
   16.8610   51.1200   42.1910 O   0  0  0  0  0  0  0  0  0  0  0  0
   14.5300   51.7230   42.8840 O   0  0  0  0  0  0  0  0  0  0  0  0
   14.8700   49.6690   41.2920 O   0  0  0  0  0  0  0  0  0  0  0  0
   15.6520   49.0090   40.2710 C   0  0  2  0  0  0  0  0  0  0  0  0
   14.7070   48.2010   39.4800 C   0  0  2  0  0  0  0  0  0  0  0  0
   13.7160   47.5840   40.3080 O   0  0  0  0  0  0  0  0  0  0  0  0
   16.7820   48.7700   37.5670 O   0  0  0  0  0  0  0  0  0  0  0  0
   16.5980   49.8940   36.3500 P   0  0  2  0  0  0  0  0  0  0  0  0
   16.2940   49.1590   35.0520 O   0  0  0  0  0  0  0  0  0  0  0  0
   17.7720   50.8430   36.2230 O   0  0  0  0  0  0  0  0  0  0  0  0
   15.1420   50.6730   36.7300 O   0  0  0  0  0  0  0  0  0  0  0  0
   14.9640   53.0790   36.6700 C   0  0  2  0  0  0  0  0  0  0  0  0
   15.6520   53.0370   35.4350 O   0  0  0  0  0  0  0  0  0  0  0  0
   16.6500   46.9960   39.8060 O   0  0  0  0  0  0  0  0  0  0  0  0
   16.5670   47.9770   40.8760 C   0  0  1  0  0  0  0  0  0  0  0  0
   17.9210   48.4120   41.0820 N   0  0  0  0  0  0  0  0  0  0  0  0
   18.8250   48.9240   40.2230 C   0  0  0  0  0  0  0  0  0  0  0  0
   19.9670   49.1270   40.8970 N   0  0  0  0  0  0  0  0  0  0  0  0
   19.7680   48.7260   42.1670 C   0  0  0  0  0  0  0  0  0  0  0  0
   20.6160   48.7240   43.2400 C   0  0  0  0  0  0  0  0  0  0  0  0
   21.9890   49.1330   43.4470 N   0  0  0  0  0  0  0  0  0  0  0  0
   20.2110   48.2700   44.4270 N   0  0  0  0  0  0  0  0  0  0  0  0
   18.9350   47.8100   44.5660 C   0  0  0  0  0  0  0  0  0  0  0  0
   18.0910   47.8130   43.4910 N   0  0  0  0  0  0  0  0  0  0  0  0
   18.5110   48.2740   42.2940 C   0  0  0  0  0  0  0  0  0  0  0  0
   13.0580   58.0220   37.2300 C   0  0  0  0  0  0  0  0  0  0  0  0
   12.5070   59.0120   36.8590 O   0  0  0  0  0  0  0  0  0  0  0  0
   14.0120   58.1260   38.2870 N   0  0  0  0  0  0  0  0  0  0  0  0
   15.0254   46.1420   38.8642 H   0  0  0  0  0  0  0  0  0  0  0  0
   16.6938   46.6769   37.1178 H   0  0  0  0  0  0  0  0  0  0  0  0
   15.1636   47.5630   36.8391 H   0  0  0  0  0  0  0  0  0  0  0  0
   16.1859   51.9860   38.0369 H   0  0  0  0  0  0  0  0  0  0  0  0
   15.8862   57.9822   40.3151 H   0  0  0  0  0  0  0  0  0  0  0  0
   16.1734   56.2240   40.2202 H   0  0  0  0  0  0  0  0  0  0  0  0
   11.7121   54.1489   34.8349 H   0  0  0  0  0  0  0  0  0  0  0  0
   13.0477   52.6164   35.5902 H   0  0  0  0  0  0  0  0  0  0  0  0
   13.7731   50.7755   38.4671 H   0  0  0  0  0  0  0  0  0  0  0  0
   14.0669   53.5215   39.7668 H   0  0  0  0  0  0  0  0  0  0  0  0
   13.4202   51.9955   40.4643 H   0  0  0  0  0  0  0  0  0  0  0  0
   16.2151   49.7703   39.7113 H   0  0  0  0  0  0  0  0  0  0  0  0
   14.1879   48.8170   38.7310 H   0  0  0  0  0  0  0  0  0  0  0  0
   13.9459   47.7271   41.2602 H   0  0  0  0  0  0  0  0  0  0  0  0
   15.3489   53.9924   37.1469 H   0  0  0  0  0  0  0  0  0  0  0  0
   16.6260   52.9775   35.6017 H   0  0  0  0  0  0  0  0  0  0  0  0
   16.1800   47.6676   41.8581 H   0  0  0  0  0  0  0  0  0  0  0  0
   18.6560   49.1377   39.1573 H   0  0  0  0  0  0  0  0  0  0  0  0
   22.4227   49.0297   44.3755 H   0  0  0  0  0  0  0  0  0  0  0  0
   22.5323   49.5273   42.6658 H   0  0  0  0  0  0  0  0  0  0  0  0
   18.5859   47.4376   45.5404 H   0  0  0  0  0  0  0  0  0  0  0  0
   14.2043   59.0496   38.7004 H   0  0  0  0  0  0  0  0  0  0  0  0
  1  2  1  0
  1 22  1  0
  1 31  1  0
  2 24  1  0
  3 14  1  0
  3 28  1  0
  3 29  1  0
  4  5  1  0
  5  6  2  0
  5 45  1  0
  6  7  1  0
  7  8  2  0
  7 11  1  0
  8  9  1  0
  8 43  1  0
  9 10  2  0
 10 11  1  0
 12 11  1  0
 12 13  1  0
 12 29  1  0
 13 14  1  0
 14 15  1  0
 15 16  1  0
 16 17  1  0
 17 18  2  0
 17 19  1  1
 17 20  1  0
 21 20  1  0
 21 22  1  0
 21 32  1  0
 22 23  1  0
 24 25  1  0
 25 26  2  0
 25 27  1  6
 25 28  1  0
 29 30  1  0
 31 32  1  0
 32 33  1  0
 33 34  1  0
 33 42  1  0
 34 35  2  0
 35 36  1  0
 36 37  2  0
 36 42  1  0
 37 38  1  0
 37 39  1  0
 39 40  2  0
 40 41  1  0
 41 42  2  0
 43 44  2  0
 43 45  1  0
  1 46  1  6
  2 47  1  0
  2 48  1  0
  3 49  1  1
  4 50  1  0
  4 51  1  0
 10 52  1  0
 12 53  1  6
 14 54  1  1
 15 55  1  0
 15 56  1  0
 21 57  1  6
 22 58  1  6
 23 59  1  0
 29 60  1  1
 30 61  1  0
 32 62  1  1
 34 63  1  0
 38 64  1  0
 38 65  1  0
 40 66  1  0
 45 67  1  0
M  CHG  2  19  -1  27  -1
M  END
>  <filename_input>  (26) 
7RWS_4UR_docked.sdf

>  <pdb_id>  (26) 
7RWS_4UR

>  <pose_rank>  (26) 
25

>  <num_atoms_heavy>  (26) 
45

>  <num_torsions>  (26) 
2

>  <pose>  (26) 
[15.565, 47.098, 38.934, 1e-06, 1e-06, 1e-06, 0.0, 0.0]

>  <energy>  (26) 
-914.7366950559119

>  <inter_energy>  (26) 
-936.0048587017579

>  <intra_energy>  (26) 
16.887191115026866

>  <rmsd>  (26) 
0.0

>  <sdf_rank>  (26) 
0

$$$$
