
     RDKit          3D

 15 15  0  0  0  0  0  0  0  0999 V2000
   30.9034    6.3829   60.6842 C   0  0  0  0  0  0  0  0  0  0  0  0
   31.4683    5.2740   61.2971 C   0  0  0  0  0  0  0  0  0  0  0  0
   30.6449    4.3564   61.9099 C   0  0  0  0  0  0  0  0  0  0  0  0
   29.2772    4.5432   61.9307 C   0  0  0  0  0  0  0  0  0  0  0  0
   28.7115    5.6443   61.3149 C   0  0  0  0  0  0  0  0  0  0  0  0
   29.5221    6.5738   60.6905 C   0  0  0  0  0  0  0  0  0  0  0  0
   28.4833    3.6293   62.5348 O   0  0  0  0  0  0  0  0  0  0  0  0
   31.7191    7.3244   60.0567 N   0  0  0  0  0  0  0  0  0  0  0  0
   32.8310    6.8710   59.3668 O   0  0  0  0  0  0  0  0  0  0  0  0
   31.4715    8.5191   60.1076 O   0  0  0  0  0  0  0  0  0  0  0  0
   32.5588    5.1298   61.2936 H   0  0  0  0  0  0  0  0  0  0  0  0
   31.0807    3.4664   62.3873 H   0  0  0  0  0  0  0  0  0  0  0  0
   27.6200    5.7803   61.3219 H   0  0  0  0  0  0  0  0  0  0  0  0
   29.0816    7.4560   60.2030 H   0  0  0  0  0  0  0  0  0  0  0  0
   27.5021    3.7600   62.5516 H   0  0  0  0  0  0  0  0  0  0  0  0
  1  2  2  0
  1  6  1  0
  1  8  1  0
  2  3  1  0
  3  4  2  0
  4  5  1  0
  4  7  1  0
  5  6  2  0
  8  9  1  0
  8 10  2  0
  2 11  1  0
  3 12  1  0
  5 13  1  0
  6 14  1  0
  7 15  1  0
M  CHG  2   8   1   9  -1
M  END
>  <filename_input>  (1) 
7RZL_NPO_docked.sdf

>  <pdb_id>  (1) 
7RZL_NPO

>  <pose_rank>  (1) 
0

>  <num_atoms_heavy>  (1) 
10

>  <num_torsions>  (1) 
1

>  <pose>  (1) 
[30.903447005456634, 6.382880265337594, 60.68418709379108, 0.13871237437787126, 0.26275405052817763, 0.09850132313540445, -2.527654396443394]

>  <energy>  (1) 
-575.9775779382138

>  <inter_energy>  (1) 
-562.739266361515

>  <intra_energy>  (1) 
0.0

>  <rmsd>  (1) 
0.90374

>  <sdf_rank>  (1) 
0

$$$$

     RDKit          3D

 15 15  0  0  0  0  0  0  0  0999 V2000
   31.6069    6.7194   60.6523 C   0  0  0  0  0  0  0  0  0  0  0  0
   30.2417    6.9643   60.6304 C   0  0  0  0  0  0  0  0  0  0  0  0
   29.3854    6.0278   61.1645 C   0  0  0  0  0  0  0  0  0  0  0  0
   29.8743    4.8529   61.6996 C   0  0  0  0  0  0  0  0  0  0  0  0
   31.2350    4.6095   61.7283 C   0  0  0  0  0  0  0  0  0  0  0  0
   32.1104    5.5405   61.2010 C   0  0  0  0  0  0  0  0  0  0  0  0
   29.0181    3.9455   62.2230 O   0  0  0  0  0  0  0  0  0  0  0  0
   32.4923    7.6551   60.1174 N   0  0  0  0  0  0  0  0  0  0  0  0
   31.9759    8.8518   59.6492 O   0  0  0  0  0  0  0  0  0  0  0  0
   33.6923    7.4371   60.0567 O   0  0  0  0  0  0  0  0  0  0  0  0
   29.8487    7.8937   60.1924 H   0  0  0  0  0  0  0  0  0  0  0  0
   28.3019    6.2175   61.1648 H   0  0  0  0  0  0  0  0  0  0  0  0
   31.6198    3.6782   62.1693 H   0  0  0  0  0  0  0  0  0  0  0  0
   33.1942    5.3530   61.2141 H   0  0  0  0  0  0  0  0  0  0  0  0
   29.3652    3.1019   62.6076 H   0  0  0  0  0  0  0  0  0  0  0  0
  1  2  2  0
  1  6  1  0
  1  8  1  0
  2  3  1  0
  3  4  2  0
  4  5  1  0
  4  7  1  0
  5  6  2  0
  8  9  1  0
  8 10  2  0
  2 11  1  0
  3 12  1  0
  5 13  1  0
  6 14  1  0
  7 15  1  0
M  CHG  2   8   1   9  -1
M  END
>  <filename_input>  (2) 
7RZL_NPO_docked.sdf

>  <pdb_id>  (2) 
7RZL_NPO

>  <pose_rank>  (2) 
1

>  <num_atoms_heavy>  (2) 
10

>  <num_torsions>  (2) 
1

>  <pose>  (2) 
[31.60693865867678, 6.719423738491939, 60.652264632718975, -2.0009625207296327, -1.7567600765163478, 1.1021591667132866, -3.1144593405795047]

>  <energy>  (2) 
-491.6955739450107

>  <inter_energy>  (2) 
-483.8544700088471

>  <intra_energy>  (2) 
0.0

>  <rmsd>  (2) 
1.00489

>  <sdf_rank>  (2) 
0

$$$$

     RDKit          3D

 15 15  0  0  0  0  0  0  0  0999 V2000
   30.5589    6.0398   61.0680 C   0  0  0  0  0  0  0  0  0  0  0  0
   29.3358    5.4167   61.2680 C   0  0  0  0  0  0  0  0  0  0  0  0
   29.2332    4.4375   62.2304 C   0  0  0  0  0  0  0  0  0  0  0  0
   30.3344    4.0667   62.9758 C   0  0  0  0  0  0  0  0  0  0  0  0
   31.5530    4.6908   62.7826 C   0  0  0  0  0  0  0  0  0  0  0  0
   31.6739    5.6795   61.8241 C   0  0  0  0  0  0  0  0  0  0  0  0
   30.2142    3.1048   63.9195 O   0  0  0  0  0  0  0  0  0  0  0  0
   30.6848    7.0350   60.0989 N   0  0  0  0  0  0  0  0  0  0  0  0
   31.9001    7.6894   59.9868 O   0  0  0  0  0  0  0  0  0  0  0  0
   29.7560    7.3317   59.3637 O   0  0  0  0  0  0  0  0  0  0  0  0
   28.4600    5.7009   60.6661 H   0  0  0  0  0  0  0  0  0  0  0  0
   28.2650    3.9461   62.4070 H   0  0  0  0  0  0  0  0  0  0  0  0
   32.4235    4.4015   63.3897 H   0  0  0  0  0  0  0  0  0  0  0  0
   32.6407    6.1776   61.6593 H   0  0  0  0  0  0  0  0  0  0  0  0
   31.0018    2.8364   64.4559 H   0  0  0  0  0  0  0  0  0  0  0  0
  1  2  2  0
  1  6  1  0
  1  8  1  0
  2  3  1  0
  3  4  2  0
  4  5  1  0
  4  7  1  0
  5  6  2  0
  8  9  1  0
  8 10  2  0
  2 11  1  0
  3 12  1  0
  5 13  1  0
  6 14  1  0
  7 15  1  0
M  CHG  2   8   1   9  -1
M  END
>  <filename_input>  (3) 
7RZL_NPO_docked.sdf

>  <pdb_id>  (3) 
7RZL_NPO

>  <pose_rank>  (3) 
2

>  <num_atoms_heavy>  (3) 
10

>  <num_torsions>  (3) 
1

>  <pose>  (3) 
[30.558926450757188, 6.039753633788862, 61.06801910609417, -1.4935071431060907, -2.3687127671277612, 1.8051229146183472, -6.3930925954578255]

>  <energy>  (3) 
-435.82075494193515

>  <inter_energy>  (3) 
-439.99057424904345

>  <intra_energy>  (3) 
0.0

>  <rmsd>  (3) 
1.69091

>  <sdf_rank>  (3) 
0

$$$$

     RDKit          3D

 15 15  0  0  0  0  0  0  0  0999 V2000
   31.2105    6.3920   60.9468 C   0  0  0  0  0  0  0  0  0  0  0  0
   31.2088    5.2533   61.7392 C   0  0  0  0  0  0  0  0  0  0  0  0
   30.0300    4.5653   61.9192 C   0  0  0  0  0  0  0  0  0  0  0  0
   28.8608    5.0093   61.3346 C   0  0  0  0  0  0  0  0  0  0  0  0
   28.8613    6.1402   60.5392 C   0  0  0  0  0  0  0  0  0  0  0  0
   30.0365    6.8414   60.3432 C   0  0  0  0  0  0  0  0  0  0  0  0
   27.7124    4.3185   61.5198 O   0  0  0  0  0  0  0  0  0  0  0  0
   32.3938    7.1036   60.7504 N   0  0  0  0  0  0  0  0  0  0  0  0
   33.5911    6.4094   60.8006 O   0  0  0  0  0  0  0  0  0  0  0  0
   32.3884    8.3065   60.5402 O   0  0  0  0  0  0  0  0  0  0  0  0
   32.1364    4.9051   62.2170 H   0  0  0  0  0  0  0  0  0  0  0  0
   30.0196    3.6535   62.5344 H   0  0  0  0  0  0  0  0  0  0  0  0
   27.9297    6.4810   60.0639 H   0  0  0  0  0  0  0  0  0  0  0  0
   30.0454    7.7455   59.7168 H   0  0  0  0  0  0  0  0  0  0  0  0
   26.8721    4.6340   61.1021 H   0  0  0  0  0  0  0  0  0  0  0  0
  1  2  2  0
  1  6  1  0
  1  8  1  0
  2  3  1  0
  3  4  2  0
  4  5  1  0
  4  7  1  0
  5  6  2  0
  8  9  1  0
  8 10  2  0
  2 11  1  0
  3 12  1  0
  5 13  1  0
  6 14  1  0
  7 15  1  0
M  CHG  2   8   1   9  -1
M  END
>  <filename_input>  (4) 
7RZL_NPO_docked.sdf

>  <pdb_id>  (4) 
7RZL_NPO

>  <pose_rank>  (4) 
3

>  <num_atoms_heavy>  (4) 
10

>  <num_torsions>  (4) 
1

>  <pose>  (4) 
[31.210450124240914, 6.391951612605542, 60.94680410366498, 0.09783644641356264, -0.20564602121036163, -0.08250730151422449, 3.6057702071644697]

>  <energy>  (4) 
-449.6110281275013

>  <inter_energy>  (4) 
-435.5962442641104

>  <intra_energy>  (4) 
0.0

>  <rmsd>  (4) 
0.854302

>  <sdf_rank>  (4) 
0

$$$$

     RDKit          3D

 15 15  0  0  0  0  0  0  0  0999 V2000
   32.1033    6.9984   61.0984 C   0  0  0  0  0  0  0  0  0  0  0  0
   32.0033    5.8538   61.8757 C   0  0  0  0  0  0  0  0  0  0  0  0
   30.7650    5.2851   62.0728 C   0  0  0  0  0  0  0  0  0  0  0  0
   29.6348    5.8532   61.5200 C   0  0  0  0  0  0  0  0  0  0  0  0
   29.7329    6.9903   60.7395 C   0  0  0  0  0  0  0  0  0  0  0  0
   30.9684    7.5726   60.5267 C   0  0  0  0  0  0  0  0  0  0  0  0
   28.4267    5.2786   61.7216 O   0  0  0  0  0  0  0  0  0  0  0  0
   33.3481    7.5904   60.8851 N   0  0  0  0  0  0  0  0  0  0  0  0
   33.4245    8.9731   60.8883 O   0  0  0  0  0  0  0  0  0  0  0  0
   34.3510    6.9191   60.6983 O   0  0  0  0  0  0  0  0  0  0  0  0
   32.9007    5.4069   62.3284 H   0  0  0  0  0  0  0  0  0  0  0  0
   30.6755    4.3698   62.6762 H   0  0  0  0  0  0  0  0  0  0  0  0
   28.8307    7.4302   60.2894 H   0  0  0  0  0  0  0  0  0  0  0  0
   31.0555    8.4807   59.9120 H   0  0  0  0  0  0  0  0  0  0  0  0
   27.6140    5.6833   61.3267 H   0  0  0  0  0  0  0  0  0  0  0  0
  1  2  2  0
  1  6  1  0
  1  8  1  0
  2  3  1  0
  3  4  2  0
  4  5  1  0
  4  7  1  0
  5  6  2  0
  8  9  1  0
  8 10  2  0
  2 11  1  0
  3 12  1  0
  5 13  1  0
  6 14  1  0
  7 15  1  0
M  CHG  2   8   1   9  -1
M  END
>  <filename_input>  (5) 
7RZL_NPO_docked.sdf

>  <pdb_id>  (5) 
7RZL_NPO

>  <pose_rank>  (5) 
4

>  <num_atoms_heavy>  (5) 
10

>  <num_torsions>  (5) 
1

>  <pose>  (5) 
[32.103313681338456, 6.9983926298532255, 61.098357612288154, 2.333969656154966, -4.376640968526896, -4.302464150755072, 6.928355971076726]

>  <energy>  (5) 
-380.5715372623599

>  <inter_energy>  (5) 
-385.0155362329241

>  <intra_energy>  (5) 
0.0

>  <rmsd>  (5) 
1.48276

>  <sdf_rank>  (5) 
0

$$$$

     RDKit          3D

 15 15  0  0  0  0  0  0  0  0999 V2000
   32.5644    6.8763   61.0517 C   0  0  0  0  0  0  0  0  0  0  0  0
   32.3638    5.5743   61.4863 C   0  0  0  0  0  0  0  0  0  0  0  0
   31.0766    5.1195   61.6650 C   0  0  0  0  0  0  0  0  0  0  0  0
   29.9991    5.9504   61.4322 C   0  0  0  0  0  0  0  0  0  0  0  0
   30.1964    7.2465   60.9928 C   0  0  0  0  0  0  0  0  0  0  0  0
   31.4815    7.7191   60.8032 C   0  0  0  0  0  0  0  0  0  0  0  0
   28.7411    5.4853   61.6099 O   0  0  0  0  0  0  0  0  0  0  0  0
   33.8600    7.3572   60.8632 N   0  0  0  0  0  0  0  0  0  0  0  0
   34.8904    6.4380   60.7577 O   0  0  0  0  0  0  0  0  0  0  0  0
   34.0933    8.5538   60.7926 O   0  0  0  0  0  0  0  0  0  0  0  0
   33.2211    4.9145   61.6853 H   0  0  0  0  0  0  0  0  0  0  0  0
   30.9053    4.0847   61.9962 H   0  0  0  0  0  0  0  0  0  0  0  0
   29.3335    7.8994   60.7948 H   0  0  0  0  0  0  0  0  0  0  0  0
   31.6485    8.7506   60.4595 H   0  0  0  0  0  0  0  0  0  0  0  0
   27.9660    6.0784   61.4439 H   0  0  0  0  0  0  0  0  0  0  0  0
  1  2  2  0
  1  6  1  0
  1  8  1  0
  2  3  1  0
  3  4  2  0
  4  5  1  0
  4  7  1  0
  5  6  2  0
  8  9  1  0
  8 10  2  0
  2 11  1  0
  3 12  1  0
  5 13  1  0
  6 14  1  0
  7 15  1  0
M  CHG  2   8   1   9  -1
M  END
>  <filename_input>  (6) 
7RZL_NPO_docked.sdf

>  <pdb_id>  (6) 
7RZL_NPO

>  <pose_rank>  (6) 
5

>  <num_atoms_heavy>  (6) 
10

>  <num_torsions>  (6) 
1

>  <pose>  (6) 
[32.56436769734693, 6.876325624996382, 61.051669304336016, 4.884263430040662, -0.8545889182590605, -4.643907248959043, 3.404614139449847]

>  <energy>  (6) 
-376.98387750140085

>  <inter_energy>  (6) 
-380.1106275235884

>  <intra_energy>  (6) 
0.0

>  <rmsd>  (6) 
1.76188

>  <sdf_rank>  (6) 
0

$$$$

     RDKit          3D

 15 15  0  0  0  0  0  0  0  0999 V2000
   31.9160    6.8825   60.7244 C   0  0  0  0  0  0  0  0  0  0  0  0
   32.2204    5.8803   61.6339 C   0  0  0  0  0  0  0  0  0  0  0  0
   31.2002    5.1144   62.1517 C   0  0  0  0  0  0  0  0  0  0  0  0
   29.8899    5.3492   61.7859 C   0  0  0  0  0  0  0  0  0  0  0  0
   29.5848    6.3433   60.8747 C   0  0  0  0  0  0  0  0  0  0  0  0
   30.5965    7.1193   60.3406 C   0  0  0  0  0  0  0  0  0  0  0  0
   28.9007    4.5843   62.3024 O   0  0  0  0  0  0  0  0  0  0  0  0
   32.9343    7.6697   60.1868 N   0  0  0  0  0  0  0  0  0  0  0  0
   32.5956    8.6193   59.2374 O   0  0  0  0  0  0  0  0  0  0  0  0
   34.0971    7.5346   60.5344 O   0  0  0  0  0  0  0  0  0  0  0  0
   33.2623    5.7000   61.9372 H   0  0  0  0  0  0  0  0  0  0  0  0
   31.4313    4.3080   62.8633 H   0  0  0  0  0  0  0  0  0  0  0  0
   28.5404    6.5162   60.5757 H   0  0  0  0  0  0  0  0  0  0  0  0
   30.3628    7.9164   59.6194 H   0  0  0  0  0  0  0  0  0  0  0  0
   27.9600    4.7498   62.0423 H   0  0  0  0  0  0  0  0  0  0  0  0
  1  2  2  0
  1  6  1  0
  1  8  1  0
  2  3  1  0
  3  4  2  0
  4  5  1  0
  4  7  1  0
  5  6  2  0
  8  9  1  0
  8 10  2  0
  2 11  1  0
  3 12  1  0
  5 13  1  0
  6 14  1  0
  7 15  1  0
M  CHG  2   8   1   9  -1
M  END
>  <filename_input>  (7) 
7RZL_NPO_docked.sdf

>  <pdb_id>  (7) 
7RZL_NPO

>  <pose_rank>  (7) 
6

>  <num_atoms_heavy>  (7) 
10

>  <num_torsions>  (7) 
1

>  <pose>  (7) 
[31.91600138568368, 6.882544223450481, 60.72439324143411, 4.488840366811166, -0.9312277091608011, -4.2195722763733645, 6.191913484857429]

>  <energy>  (7) 
-446.3565425359028

>  <inter_energy>  (7) 
-441.4440466303399

>  <intra_energy>  (7) 
0.0

>  <rmsd>  (7) 
1.15381

>  <sdf_rank>  (7) 
0

$$$$

     RDKit          3D

 15 15  0  0  0  0  0  0  0  0999 V2000
   32.9382    7.6722   60.1268 C   0  0  0  0  0  0  0  0  0  0  0  0
   31.6421    7.1793   60.1658 C   0  0  0  0  0  0  0  0  0  0  0  0
   31.3695    6.0749   60.9414 C   0  0  0  0  0  0  0  0  0  0  0  0
   32.3731    5.4542   61.6578 C   0  0  0  0  0  0  0  0  0  0  0  0
   33.6644    5.9476   61.6255 C   0  0  0  0  0  0  0  0  0  0  0  0
   33.9560    7.0584   60.8562 C   0  0  0  0  0  0  0  0  0  0  0  0
   32.0860    4.3720   62.4172 O   0  0  0  0  0  0  0  0  0  0  0  0
   33.2362    8.7905   59.3483 N   0  0  0  0  0  0  0  0  0  0  0  0
   32.8232    8.7969   58.0265 O   0  0  0  0  0  0  0  0  0  0  0  0
   33.8452    9.7444   59.8073 O   0  0  0  0  0  0  0  0  0  0  0  0
   30.8434    7.6640   59.5853 H   0  0  0  0  0  0  0  0  0  0  0  0
   30.3427    5.6835   60.9906 H   0  0  0  0  0  0  0  0  0  0  0  0
   34.4570    5.4577   62.2101 H   0  0  0  0  0  0  0  0  0  0  0  0
   34.9815    7.4546   60.8197 H   0  0  0  0  0  0  0  0  0  0  0  0
   32.8032    3.9244   62.9323 H   0  0  0  0  0  0  0  0  0  0  0  0
  1  2  2  0
  1  6  1  0
  1  8  1  0
  2  3  1  0
  3  4  2  0
  4  5  1  0
  4  7  1  0
  5  6  2  0
  8  9  1  0
  8 10  2  0
  2 11  1  0
  3 12  1  0
  5 13  1  0
  6 14  1  0
  7 15  1  0
M  CHG  2   8   1   9  -1
M  END
>  <filename_input>  (8) 
7RZL_NPO_docked.sdf

>  <pdb_id>  (8) 
7RZL_NPO

>  <pose_rank>  (8) 
7

>  <num_atoms_heavy>  (8) 
10

>  <num_torsions>  (8) 
1

>  <pose>  (8) 
[32.93823877672703, 7.672210561427874, 60.1267833027428, -1.6407746200454536, -2.3272231106898156, 1.5201366228658975, -4.062418803193847]

>  <energy>  (8) 
-344.86816974563254

>  <inter_energy>  (8) 
-323.965829544545

>  <intra_energy>  (8) 
0.0

>  <rmsd>  (8) 
2.99981

>  <sdf_rank>  (8) 
0

$$$$

     RDKit          3D

 15 15  0  0  0  0  0  0  0  0999 V2000
   30.0883    5.5661   61.5730 C   0  0  0  0  0  0  0  0  0  0  0  0
   29.2442    6.0826   60.6008 C   0  0  0  0  0  0  0  0  0  0  0  0
   29.7375    7.0095   59.7103 C   0  0  0  0  0  0  0  0  0  0  0  0
   31.0487    7.4337   59.7918 C   0  0  0  0  0  0  0  0  0  0  0  0
   31.8936    6.9155   60.7558 C   0  0  0  0  0  0  0  0  0  0  0  0
   31.4172    5.9804   61.6555 C   0  0  0  0  0  0  0  0  0  0  0  0
   31.5171    8.3428   58.9061 O   0  0  0  0  0  0  0  0  0  0  0  0
   29.6094    4.6253   62.4846 N   0  0  0  0  0  0  0  0  0  0  0  0
   28.3145    4.1605   62.3261 O   0  0  0  0  0  0  0  0  0  0  0  0
   30.3023    4.2153   63.4027 O   0  0  0  0  0  0  0  0  0  0  0  0
   28.1954    5.7562   60.5423 H   0  0  0  0  0  0  0  0  0  0  0  0
   29.0809    7.4157   58.9268 H   0  0  0  0  0  0  0  0  0  0  0  0
   32.9415    7.2463   60.8066 H   0  0  0  0  0  0  0  0  0  0  0  0
   32.0804    5.5668   62.4296 H   0  0  0  0  0  0  0  0  0  0  0  0
   32.4568    8.6492   58.9615 H   0  0  0  0  0  0  0  0  0  0  0  0
  1  2  2  0
  1  6  1  0
  1  8  1  0
  2  3  1  0
  3  4  2  0
  4  5  1  0
  4  7  1  0
  5  6  2  0
  8  9  1  0
  8 10  2  0
  2 11  1  0
  3 12  1  0
  5 13  1  0
  6 14  1  0
  7 15  1  0
M  CHG  2   8   1   9  -1
M  END
>  <filename_input>  (9) 
7RZL_NPO_docked.sdf

>  <pdb_id>  (9) 
7RZL_NPO

>  <pose_rank>  (9) 
8

>  <num_atoms_heavy>  (9) 
10

>  <num_torsions>  (9) 
1

>  <pose>  (9) 
[30.08830506984832, 5.566076757165872, 61.57295119088671, 0.40177887133371226, -1.8512936718744284, -1.8084086521363074, 3.1806564836904245]

>  <energy>  (9) 
-373.80735687778815

>  <inter_energy>  (9) 
-367.0094743970939

>  <intra_energy>  (9) 
0.0

>  <rmsd>  (9) 
3.96098

>  <sdf_rank>  (9) 
0

$$$$

     RDKit          3D

 15 15  0  0  0  0  0  0  0  0999 V2000
   32.0000    8.0865   60.6464 C   0  0  0  0  0  0  0  0  0  0  0  0
   32.1965    6.7340   60.4084 C   0  0  0  0  0  0  0  0  0  0  0  0
   31.4713    5.8150   61.1329 C   0  0  0  0  0  0  0  0  0  0  0  0
   30.5729    6.2300   62.0953 C   0  0  0  0  0  0  0  0  0  0  0  0
   30.3707    7.5775   62.3298 C   0  0  0  0  0  0  0  0  0  0  0  0
   31.0863    8.5149   61.6087 C   0  0  0  0  0  0  0  0  0  0  0  0
   29.8666    5.3126   62.7953 O   0  0  0  0  0  0  0  0  0  0  0  0
   32.7235    9.0346   59.9231 N   0  0  0  0  0  0  0  0  0  0  0  0
   33.6612    8.5844   59.0088 O   0  0  0  0  0  0  0  0  0  0  0  0
   32.5455   10.2321   60.0830 O   0  0  0  0  0  0  0  0  0  0  0  0
   32.9216    6.4006   59.6514 H   0  0  0  0  0  0  0  0  0  0  0  0
   31.6091    4.7403   60.9431 H   0  0  0  0  0  0  0  0  0  0  0  0
   29.6427    7.9025   63.0877 H   0  0  0  0  0  0  0  0  0  0  0  0
   30.9364    9.5891   61.7924 H   0  0  0  0  0  0  0  0  0  0  0  0
   29.2214    5.6066   63.4863 H   0  0  0  0  0  0  0  0  0  0  0  0
  1  2  2  0
  1  6  1  0
  1  8  1  0
  2  3  1  0
  3  4  2  0
  4  5  1  0
  4  7  1  0
  5  6  2  0
  8  9  1  0
  8 10  2  0
  2 11  1  0
  3 12  1  0
  5 13  1  0
  6 14  1  0
  7 15  1  0
M  CHG  2   8   1   9  -1
M  END
>  <filename_input>  (10) 
7RZL_NPO_docked.sdf

>  <pdb_id>  (10) 
7RZL_NPO

>  <pose_rank>  (10) 
9

>  <num_atoms_heavy>  (10) 
10

>  <num_torsions>  (10) 
1

>  <pose>  (10) 
[32.00003041548267, 8.086489767970257, 60.646392207962755, -3.036146946539052, -3.9722833399203292, 1.2718534874476444, -3.221016498556506]

>  <energy>  (10) 
-319.7256891615254

>  <inter_energy>  (10) 
-316.72736382422056

>  <intra_energy>  (10) 
0.0

>  <rmsd>  (10) 
2.46769

>  <sdf_rank>  (10) 
0

$$$$

     RDKit          3D

 15 15  0  0  0  0  0  0  0  0999 V2000
   29.7128    5.6304   61.4223 C   0  0  0  0  0  0  0  0  0  0  0  0
   29.4732    6.7081   60.5823 C   0  0  0  0  0  0  0  0  0  0  0  0
   30.5400    7.3404   59.9844 C   0  0  0  0  0  0  0  0  0  0  0  0
   31.8324    6.9210   60.2287 C   0  0  0  0  0  0  0  0  0  0  0  0
   32.0732    5.8430   61.0605 C   0  0  0  0  0  0  0  0  0  0  0  0
   31.0142    5.1928   61.6659 C   0  0  0  0  0  0  0  0  0  0  0  0
   32.8683    7.5522   59.6297 O   0  0  0  0  0  0  0  0  0  0  0  0
   28.6464    4.9749   62.0376 N   0  0  0  0  0  0  0  0  0  0  0  0
   27.3872    5.1029   61.4756 O   0  0  0  0  0  0  0  0  0  0  0  0
   28.8050    4.3040   63.0456 O   0  0  0  0  0  0  0  0  0  0  0  0
   28.4452    7.0527   60.3966 H   0  0  0  0  0  0  0  0  0  0  0  0
   30.3611    8.1874   59.3058 H   0  0  0  0  0  0  0  0  0  0  0  0
   33.1042    5.5040   61.2399 H   0  0  0  0  0  0  0  0  0  0  0  0
   31.1964    4.3380   62.3338 H   0  0  0  0  0  0  0  0  0  0  0  0
   33.7964    7.2541   59.8026 H   0  0  0  0  0  0  0  0  0  0  0  0
  1  2  2  0
  1  6  1  0
  1  8  1  0
  2  3  1  0
  3  4  2  0
  4  5  1  0
  4  7  1  0
  5  6  2  0
  8  9  1  0
  8 10  2  0
  2 11  1  0
  3 12  1  0
  5 13  1  0
  6 14  1  0
  7 15  1  0
M  CHG  2   8   1   9  -1
M  END
>  <filename_input>  (11) 
7RZL_NPO_docked.sdf

>  <pdb_id>  (11) 
7RZL_NPO

>  <pose_rank>  (11) 
10

>  <num_atoms_heavy>  (11) 
10

>  <num_torsions>  (11) 
1

>  <pose>  (11) 
[29.712756894457144, 5.63042845490593, 61.422271082955454, 0.034651152363105765, -1.9773793347757673, -2.461622085659917, 3.471537356156345]

>  <energy>  (11) 
-378.0284773739512

>  <inter_energy>  (11) 
-374.4950323670142

>  <intra_energy>  (11) 
0.0

>  <rmsd>  (11) 
4.04642

>  <sdf_rank>  (11) 
0

$$$$

     RDKit          3D

 15 15  0  0  0  0  0  0  0  0999 V2000
   31.3609    6.0133   60.9222 C   0  0  0  0  0  0  0  0  0  0  0  0
   32.2178    6.7621   60.1288 C   0  0  0  0  0  0  0  0  0  0  0  0
   33.5773    6.6231   60.2962 C   0  0  0  0  0  0  0  0  0  0  0  0
   34.0835    5.7643   61.2511 C   0  0  0  0  0  0  0  0  0  0  0  0
   33.2315    5.0123   62.0387 C   0  0  0  0  0  0  0  0  0  0  0  0
   31.8636    5.1350   61.8816 C   0  0  0  0  0  0  0  0  0  0  0  0
   35.4224    5.6381   61.3993 O   0  0  0  0  0  0  0  0  0  0  0  0
   29.9802    6.1380   60.7686 N   0  0  0  0  0  0  0  0  0  0  0  0
   29.1660    5.2021   61.3843 O   0  0  0  0  0  0  0  0  0  0  0  0
   29.4898    7.0424   60.1108 O   0  0  0  0  0  0  0  0  0  0  0  0
   31.8167    7.4570   59.3764 H   0  0  0  0  0  0  0  0  0  0  0  0
   34.2663    7.2017   59.6634 H   0  0  0  0  0  0  0  0  0  0  0  0
   33.6408    4.3186   62.7879 H   0  0  0  0  0  0  0  0  0  0  0  0
   31.1779    4.5451   62.5075 H   0  0  0  0  0  0  0  0  0  0  0  0
   35.7890    5.0232   62.0831 H   0  0  0  0  0  0  0  0  0  0  0  0
  1  2  2  0
  1  6  1  0
  1  8  1  0
  2  3  1  0
  3  4  2  0
  4  5  1  0
  4  7  1  0
  5  6  2  0
  8  9  1  0
  8 10  2  0
  2 11  1  0
  3 12  1  0
  5 13  1  0
  6 14  1  0
  7 15  1  0
M  CHG  2   8   1   9  -1
M  END
>  <filename_input>  (12) 
7RZL_NPO_docked.sdf

>  <pdb_id>  (12) 
7RZL_NPO

>  <pose_rank>  (12) 
11

>  <num_atoms_heavy>  (12) 
10

>  <num_torsions>  (12) 
1

>  <pose>  (12) 
[31.36091819376845, 6.0133335407161645, 60.92223843527513, -0.7014640928289184, 5.941816971940354, 6.148382673661116, 6.028161675852756]

>  <energy>  (12) 
-370.4828531237126

>  <inter_energy>  (12) 
-368.06036721067255

>  <intra_energy>  (12) 
0.0

>  <rmsd>  (12) 
3.91774

>  <sdf_rank>  (12) 
0

$$$$

     RDKit          3D

 15 15  0  0  0  0  0  0  0  0999 V2000
   33.5276    9.3728   60.0286 C   0  0  0  0  0  0  0  0  0  0  0  0
   33.6050    8.5966   61.1758 C   0  0  0  0  0  0  0  0  0  0  0  0
   32.7055    7.5691   61.3502 C   0  0  0  0  0  0  0  0  0  0  0  0
   31.7283    7.3228   60.4067 C   0  0  0  0  0  0  0  0  0  0  0  0
   31.6532    8.0909   59.2596 C   0  0  0  0  0  0  0  0  0  0  0  0
   32.5509    9.1240   59.0649 C   0  0  0  0  0  0  0  0  0  0  0  0
   30.8550    6.3065   60.5934 O   0  0  0  0  0  0  0  0  0  0  0  0
   34.4295   10.4183   59.8314 N   0  0  0  0  0  0  0  0  0  0  0  0
   34.8888   10.6528   58.5461 O   0  0  0  0  0  0  0  0  0  0  0  0
   34.8126   11.1148   60.7584 O   0  0  0  0  0  0  0  0  0  0  0  0
   34.3743    8.7994   61.9354 H   0  0  0  0  0  0  0  0  0  0  0  0
   32.7660    6.9386   62.2496 H   0  0  0  0  0  0  0  0  0  0  0  0
   30.8817    7.8807   58.5042 H   0  0  0  0  0  0  0  0  0  0  0  0
   32.4952    9.7442   58.1581 H   0  0  0  0  0  0  0  0  0  0  0  0
   30.1529    6.1270   59.9189 H   0  0  0  0  0  0  0  0  0  0  0  0
  1  2  2  0
  1  6  1  0
  1  8  1  0
  2  3  1  0
  3  4  2  0
  4  5  1  0
  4  7  1  0
  5  6  2  0
  8  9  1  0
  8 10  2  0
  2 11  1  0
  3 12  1  0
  5 13  1  0
  6 14  1  0
  7 15  1  0
M  CHG  2   8   1   9  -1
M  END
>  <filename_input>  (13) 
7RZL_NPO_docked.sdf

>  <pdb_id>  (13) 
7RZL_NPO

>  <pose_rank>  (13) 
12

>  <num_atoms_heavy>  (13) 
10

>  <num_torsions>  (13) 
1

>  <pose>  (13) 
[33.52758977997969, 9.37277434245417, 60.028612424816004, 1.8031098042045821, 4.373170163790431, -3.097412973316465, -6.975183273772749]

>  <energy>  (13) 
-265.21555951721945

>  <inter_energy>  (13) 
-263.65903910125104

>  <intra_energy>  (13) 
0.0

>  <rmsd>  (13) 
4.26089

>  <sdf_rank>  (13) 
0

$$$$

     RDKit          3D

 15 15  0  0  0  0  0  0  0  0999 V2000
   37.3565   13.7760   58.1243 C   0  0  0  0  0  0  0  0  0  0  0  0
   37.6902   12.7259   58.9670 C   0  0  0  0  0  0  0  0  0  0  0  0
   36.6857   11.9448   59.4928 C   0  0  0  0  0  0  0  0  0  0  0  0
   35.3629   12.2110   59.2009 C   0  0  0  0  0  0  0  0  0  0  0  0
   35.0283   13.2531   58.3561 C   0  0  0  0  0  0  0  0  0  0  0  0
   36.0237   14.0451   57.8149 C   0  0  0  0  0  0  0  0  0  0  0  0
   34.3893   11.4308   59.7240 O   0  0  0  0  0  0  0  0  0  0  0  0
   38.3585   14.5792   57.5799 N   0  0  0  0  0  0  0  0  0  0  0  0
   38.0094   15.8360   57.1148 O   0  0  0  0  0  0  0  0  0  0  0  0
   39.5158   14.1962   57.5084 O   0  0  0  0  0  0  0  0  0  0  0  0
   38.7427   12.5201   59.2118 H   0  0  0  0  0  0  0  0  0  0  0  0
   36.9394   11.1011   60.1514 H   0  0  0  0  0  0  0  0  0  0  0  0
   33.9734   13.4513   58.1153 H   0  0  0  0  0  0  0  0  0  0  0  0
   35.7667   14.8800   57.1464 H   0  0  0  0  0  0  0  0  0  0  0  0
   33.4396   11.6187   59.5169 H   0  0  0  0  0  0  0  0  0  0  0  0
  1  2  2  0
  1  6  1  0
  1  8  1  0
  2  3  1  0
  3  4  2  0
  4  5  1  0
  4  7  1  0
  5  6  2  0
  8  9  1  0
  8 10  2  0
  2 11  1  0
  3 12  1  0
  5 13  1  0
  6 14  1  0
  7 15  1  0
M  CHG  2   8   1   9  -1
M  END
>  <filename_input>  (14) 
7RZL_NPO_docked.sdf

>  <pdb_id>  (14) 
7RZL_NPO

>  <pose_rank>  (14) 
13

>  <num_atoms_heavy>  (14) 
10

>  <num_torsions>  (14) 
1

>  <pose>  (14) 
[37.35650332787132, 13.77596236556008, 58.124258505102944, -1.3900913453987993, -5.479874826163583, -2.5990898192564647, 6.597454053401874]

>  <energy>  (14) 
-148.34068174914057

>  <inter_energy>  (14) 
-146.18916966278806

>  <intra_energy>  (14) 
0.0

>  <rmsd>  (14) 
10.2934

>  <sdf_rank>  (14) 
0

$$$$

     RDKit          3D

 15 15  0  0  0  0  0  0  0  0999 V2000
   31.3132    7.0614   60.0439 C   0  0  0  0  0  0  0  0  0  0  0  0
   32.1150    6.0288   60.5078 C   0  0  0  0  0  0  0  0  0  0  0  0
   31.5589    5.0595   61.3119 C   0  0  0  0  0  0  0  0  0  0  0  0
   30.2263    5.1207   61.6673 C   0  0  0  0  0  0  0  0  0  0  0  0
   29.4237    6.1454   61.2009 C   0  0  0  0  0  0  0  0  0  0  0  0
   29.9635    7.1251   60.3886 C   0  0  0  0  0  0  0  0  0  0  0  0
   29.6962    4.1575   62.4556 O   0  0  0  0  0  0  0  0  0  0  0  0
   31.8560    8.0534   59.2274 N   0  0  0  0  0  0  0  0  0  0  0  0
   31.0001    8.7612   58.4002 O   0  0  0  0  0  0  0  0  0  0  0  0
   33.0520    8.3003   59.2312 O   0  0  0  0  0  0  0  0  0  0  0  0
   33.1803    5.9851   60.2370 H   0  0  0  0  0  0  0  0  0  0  0  0
   32.1820    4.2286   61.6744 H   0  0  0  0  0  0  0  0  0  0  0  0
   28.3591    6.1810   61.4754 H   0  0  0  0  0  0  0  0  0  0  0  0
   29.3341    7.9474   60.0175 H   0  0  0  0  0  0  0  0  0  0  0  0
   28.7409    4.1982   62.7124 H   0  0  0  0  0  0  0  0  0  0  0  0
  1  2  2  0
  1  6  1  0
  1  8  1  0
  2  3  1  0
  3  4  2  0
  4  5  1  0
  4  7  1  0
  5  6  2  0
  8  9  1  0
  8 10  2  0
  2 11  1  0
  3 12  1  0
  5 13  1  0
  6 14  1  0
  7 15  1  0
M  CHG  2   8   1   9  -1
M  END
>  <filename_input>  (15) 
7RZL_NPO_docked.sdf

>  <pdb_id>  (15) 
7RZL_NPO

>  <pose_rank>  (15) 
14

>  <num_atoms_heavy>  (15) 
10

>  <num_torsions>  (15) 
1

>  <pose>  (15) 
[31.313213118611216, 7.061391168644864, 60.04390379185705, -1.2126191420848762, -5.304565166399454, -1.7767154455308014, 5.835470234853902]

>  <energy>  (15) 
-425.5316082139895

>  <inter_energy>  (15) 
-423.57037732604664

>  <intra_energy>  (15) 
0.0

>  <rmsd>  (15) 
1.73671

>  <sdf_rank>  (15) 
0

$$$$

     RDKit          3D

 15 15  0  0  0  0  0  0  0  0999 V2000
   31.6456    6.3403   60.9074 C   0  0  0  0  0  0  0  0  0  0  0  0
   32.3715    5.2961   61.4614 C   0  0  0  0  0  0  0  0  0  0  0  0
   31.6963    4.2430   62.0364 C   0  0  0  0  0  0  0  0  0  0  0  0
   30.3165    4.2316   62.0778 C   0  0  0  0  0  0  0  0  0  0  0  0
   29.5907    5.2682   61.5205 C   0  0  0  0  0  0  0  0  0  0  0  0
   30.2514    6.3317   60.9346 C   0  0  0  0  0  0  0  0  0  0  0  0
   29.6698    3.1868   62.6439 O   0  0  0  0  0  0  0  0  0  0  0  0
   32.3096    7.4166   60.3190 N   0  0  0  0  0  0  0  0  0  0  0  0
   33.6897    7.3594   60.2202 O   0  0  0  0  0  0  0  0  0  0  0  0
   31.7024    8.3895   59.8993 O   0  0  0  0  0  0  0  0  0  0  0  0
   33.4713    5.3092   61.4416 H   0  0  0  0  0  0  0  0  0  0  0  0
   32.2614    3.4031   62.4667 H   0  0  0  0  0  0  0  0  0  0  0  0
   28.4912    5.2466   61.5433 H   0  0  0  0  0  0  0  0  0  0  0  0
   29.6826    7.1637   60.4938 H   0  0  0  0  0  0  0  0  0  0  0  0
   28.6804    3.1753   62.6754 H   0  0  0  0  0  0  0  0  0  0  0  0
  1  2  2  0
  1  6  1  0
  1  8  1  0
  2  3  1  0
  3  4  2  0
  4  5  1  0
  4  7  1  0
  5  6  2  0
  8  9  1  0
  8 10  2  0
  2 11  1  0
  3 12  1  0
  5 13  1  0
  6 14  1  0
  7 15  1  0
M  CHG  2   8   1   9  -1
M  END
>  <filename_input>  (16) 
7RZL_NPO_docked.sdf

>  <pdb_id>  (16) 
7RZL_NPO

>  <pose_rank>  (16) 
15

>  <num_atoms_heavy>  (16) 
10

>  <num_torsions>  (16) 
1

>  <pose>  (16) 
[31.645598261425608, 6.3402926948968865, 60.90736218071998, 0.1676285267269129, 0.2822353291359747, 0.24593000381133182, 3.1814018408668057]

>  <energy>  (16) 
-454.2032562162595

>  <inter_energy>  (16) 
-444.39836664292653

>  <intra_energy>  (16) 
0.0

>  <rmsd>  (16) 
0.951139

>  <sdf_rank>  (16) 
0

$$$$

     RDKit          3D

 15 15  0  0  0  0  0  0  0  0999 V2000
   22.8693    2.9797   54.4093 C   0  0  0  0  0  0  0  0  0  0  0  0
   23.9035    3.6743   53.7991 C   0  0  0  0  0  0  0  0  0  0  0  0
   23.8168    5.0440   53.6904 C   0  0  0  0  0  0  0  0  0  0  0  0
   22.7096    5.7180   54.1656 C   0  0  0  0  0  0  0  0  0  0  0  0
   21.6805    5.0285   54.7798 C   0  0  0  0  0  0  0  0  0  0  0  0
   21.7524    3.6534   54.9023 C   0  0  0  0  0  0  0  0  0  0  0  0
   22.6431    7.0645   54.0530 O   0  0  0  0  0  0  0  0  0  0  0  0
   22.9372    1.5919   54.5308 N   0  0  0  0  0  0  0  0  0  0  0  0
   23.6207    0.8823   53.5576 O   0  0  0  0  0  0  0  0  0  0  0  0
   22.4117    1.0060   55.4645 O   0  0  0  0  0  0  0  0  0  0  0  0
   24.7807    3.1382   53.4077 H   0  0  0  0  0  0  0  0  0  0  0  0
   24.6371    5.6065   53.2206 H   0  0  0  0  0  0  0  0  0  0  0  0
   20.8075    5.5723   55.1698 H   0  0  0  0  0  0  0  0  0  0  0  0
   20.9358    3.0957   55.3843 H   0  0  0  0  0  0  0  0  0  0  0  0
   21.8507    7.5511   54.3927 H   0  0  0  0  0  0  0  0  0  0  0  0
  1  2  2  0
  1  6  1  0
  1  8  1  0
  2  3  1  0
  3  4  2  0
  4  5  1  0
  4  7  1  0
  5  6  2  0
  8  9  1  0
  8 10  2  0
  2 11  1  0
  3 12  1  0
  5 13  1  0
  6 14  1  0
  7 15  1  0
M  CHG  2   8   1   9  -1
M  END
>  <filename_input>  (17) 
7RZL_NPO_docked.sdf

>  <pdb_id>  (17) 
7RZL_NPO

>  <pose_rank>  (17) 
16

>  <num_atoms_heavy>  (17) 
10

>  <num_torsions>  (17) 
1

>  <pose>  (17) 
[22.869327622008296, 2.9797163964286186, 54.40930457851706, 3.1236682284156863, -1.4390841001724837, -0.06039869498362443, 2.5662579156229524]

>  <energy>  (17) 
-149.83626047895405

>  <inter_energy>  (17) 
-106.23241433824126

>  <intra_energy>  (17) 
0.0

>  <rmsd>  (17) 
11.4812

>  <sdf_rank>  (17) 
0

$$$$

     RDKit          3D

 15 15  0  0  0  0  0  0  0  0999 V2000
   30.9659    0.0175   67.9789 C   0  0  0  0  0  0  0  0  0  0  0  0
   30.8558   -1.3198   67.6271 C   0  0  0  0  0  0  0  0  0  0  0  0
   30.3680   -2.2166   68.5508 C   0  0  0  0  0  0  0  0  0  0  0  0
   30.0086   -1.7968   69.8159 C   0  0  0  0  0  0  0  0  0  0  0  0
   30.1114   -0.4633   70.1667 C   0  0  0  0  0  0  0  0  0  0  0  0
   30.5946    0.4524   69.2507 C   0  0  0  0  0  0  0  0  0  0  0  0
   29.5281   -2.6916   70.7096 O   0  0  0  0  0  0  0  0  0  0  0  0
   31.4567    0.9430   67.0581 N   0  0  0  0  0  0  0  0  0  0  0  0
   32.7909    0.8615   66.6958 O   0  0  0  0  0  0  0  0  0  0  0  0
   30.7404    1.8076   66.5776 O   0  0  0  0  0  0  0  0  0  0  0  0
   31.1541   -1.6591   66.6241 H   0  0  0  0  0  0  0  0  0  0  0  0
   30.2637   -3.2772   68.2784 H   0  0  0  0  0  0  0  0  0  0  0  0
   29.8097   -0.1322   71.1713 H   0  0  0  0  0  0  0  0  0  0  0  0
   30.6854    1.5143   69.5226 H   0  0  0  0  0  0  0  0  0  0  0  0
   29.2694   -2.3942   71.6177 H   0  0  0  0  0  0  0  0  0  0  0  0
  1  2  2  0
  1  6  1  0
  1  8  1  0
  2  3  1  0
  3  4  2  0
  4  5  1  0
  4  7  1  0
  5  6  2  0
  8  9  1  0
  8 10  2  0
  2 11  1  0
  3 12  1  0
  5 13  1  0
  6 14  1  0
  7 15  1  0
M  CHG  2   8   1   9  -1
M  END
>  <filename_input>  (18) 
7RZL_NPO_docked.sdf

>  <pdb_id>  (18) 
7RZL_NPO

>  <pose_rank>  (18) 
17

>  <num_atoms_heavy>  (18) 
10

>  <num_torsions>  (18) 
1

>  <pose>  (18) 
[30.965875315562414, 0.017521472467116, 67.97885002048545, -2.2755148729818333, -3.8425198483822456, 1.6034482501071436, 1.9093119356376653]

>  <energy>  (18) 
-142.6366183631505

>  <inter_energy>  (18) 
-131.16632540607824

>  <intra_energy>  (18) 
0.0

>  <rmsd>  (18) 
9.36839

>  <sdf_rank>  (18) 
0

$$$$

     RDKit          3D

 15 15  0  0  0  0  0  0  0  0999 V2000
   22.8499    2.9759   53.1003 C   0  0  0  0  0  0  0  0  0  0  0  0
   23.6520    2.0624   52.4320 C   0  0  0  0  0  0  0  0  0  0  0  0
   23.2346    0.7545   52.3301 C   0  0  0  0  0  0  0  0  0  0  0  0
   22.0431    0.3507   52.8987 C   0  0  0  0  0  0  0  0  0  0  0  0
   21.2390    1.2608   53.5596 C   0  0  0  0  0  0  0  0  0  0  0  0
   21.6395    2.5794   53.6679 C   0  0  0  0  0  0  0  0  0  0  0  0
   21.6473   -0.9380   52.7857 O   0  0  0  0  0  0  0  0  0  0  0  0
   23.2533    4.3062   53.2144 N   0  0  0  0  0  0  0  0  0  0  0  0
   22.5712    5.1233   54.1003 O   0  0  0  0  0  0  0  0  0  0  0  0
   24.1805    4.7512   52.5560 O   0  0  0  0  0  0  0  0  0  0  0  0
   24.6082    2.3787   51.9897 H   0  0  0  0  0  0  0  0  0  0  0  0
   23.8560    0.0245   51.7908 H   0  0  0  0  0  0  0  0  0  0  0  0
   20.2836    0.9365   53.9980 H   0  0  0  0  0  0  0  0  0  0  0  0
   21.0091    3.3093   54.1969 H   0  0  0  0  0  0  0  0  0  0  0  0
   20.7935   -1.2310   53.1921 H   0  0  0  0  0  0  0  0  0  0  0  0
  1  2  2  0
  1  6  1  0
  1  8  1  0
  2  3  1  0
  3  4  2  0
  4  5  1  0
  4  7  1  0
  5  6  2  0
  8  9  1  0
  8 10  2  0
  2 11  1  0
  3 12  1  0
  5 13  1  0
  6 14  1  0
  7 15  1  0
M  CHG  2   8   1   9  -1
M  END
>  <filename_input>  (19) 
7RZL_NPO_docked.sdf

>  <pdb_id>  (19) 
7RZL_NPO

>  <pose_rank>  (19) 
18

>  <num_atoms_heavy>  (19) 
10

>  <num_torsions>  (19) 
1

>  <pose>  (19) 
[22.84991054610576, 2.9758843656622394, 53.10025469624785, -3.8892373265480735, -2.7340514996776704, -1.6006138575485394, 0.17602195485258998]

>  <energy>  (19) 
-103.75704907783941

>  <inter_energy>  (19) 
-82.09085071875529

>  <intra_energy>  (19) 
0.0

>  <rmsd>  (19) 
12.3201

>  <sdf_rank>  (19) 
0

$$$$

     RDKit          3D

 15 15  0  0  0  0  0  0  0  0999 V2000
   32.4344    1.2060   69.2821 C   0  0  0  0  0  0  0  0  0  0  0  0
   31.8596    0.3165   70.1780 C   0  0  0  0  0  0  0  0  0  0  0  0
   30.7254   -0.3692   69.8053 C   0  0  0  0  0  0  0  0  0  0  0  0
   30.1560   -0.1639   68.5645 C   0  0  0  0  0  0  0  0  0  0  0  0
   30.7308    0.7174   67.6675 C   0  0  0  0  0  0  0  0  0  0  0  0
   31.8726    1.4112   68.0225 C   0  0  0  0  0  0  0  0  0  0  0  0
   29.0433   -0.8491   68.2142 O   0  0  0  0  0  0  0  0  0  0  0  0
   33.5842    1.9104   69.6389 N   0  0  0  0  0  0  0  0  0  0  0  0
   33.5529    2.6719   70.7952 O   0  0  0  0  0  0  0  0  0  0  0  0
   34.5972    1.8664   68.9584 O   0  0  0  0  0  0  0  0  0  0  0  0
   32.3037    0.1611   71.1723 H   0  0  0  0  0  0  0  0  0  0  0  0
   30.2688   -1.0872   70.5024 H   0  0  0  0  0  0  0  0  0  0  0  0
   30.2811    0.8659   66.6747 H   0  0  0  0  0  0  0  0  0  0  0  0
   32.3337    2.1188   67.3177 H   0  0  0  0  0  0  0  0  0  0  0  0
   28.6323   -0.7044   67.3252 H   0  0  0  0  0  0  0  0  0  0  0  0
  1  2  2  0
  1  6  1  0
  1  8  1  0
  2  3  1  0
  3  4  2  0
  4  5  1  0
  4  7  1  0
  5  6  2  0
  8  9  1  0
  8 10  2  0
  2 11  1  0
  3 12  1  0
  5 13  1  0
  6 14  1  0
  7 15  1  0
M  CHG  2   8   1   9  -1
M  END
>  <filename_input>  (20) 
7RZL_NPO_docked.sdf

>  <pdb_id>  (20) 
7RZL_NPO

>  <pose_rank>  (20) 
19

>  <num_atoms_heavy>  (20) 
10

>  <num_torsions>  (20) 
1

>  <pose>  (20) 
[32.434445553163144, 1.206003123717542, 69.28209258568349, 1.0053233117379083, 5.32835609058465, 0.29100822577674423, -4.151457200089286]

>  <energy>  (20) 
-100.78942082552857

>  <inter_energy>  (20) 
-96.48962813673174

>  <intra_energy>  (20) 
0.0

>  <rmsd>  (20) 
9.20778

>  <sdf_rank>  (20) 
0

$$$$

     RDKit          3D

 15 15  0  0  0  0  0  0  0  0999 V2000
   31.7617   14.8232   69.9547 C   0  0  0  0  0  0  0  0  0  0  0  0
   31.0803   15.2627   71.0802 C   0  0  0  0  0  0  0  0  0  0  0  0
   29.7069   15.3496   71.0393 C   0  0  0  0  0  0  0  0  0  0  0  0
   29.0159   15.0209   69.8903 C   0  0  0  0  0  0  0  0  0  0  0  0
   29.6924   14.5764   68.7694 C   0  0  0  0  0  0  0  0  0  0  0  0
   31.0711   14.4782   68.7934 C   0  0  0  0  0  0  0  0  0  0  0  0
   27.6660   15.1092   69.8694 O   0  0  0  0  0  0  0  0  0  0  0  0
   33.1530   14.7268   69.9748 N   0  0  0  0  0  0  0  0  0  0  0  0
   33.7247   13.6392   70.6136 O   0  0  0  0  0  0  0  0  0  0  0  0
   33.8595   15.5722   69.4481 O   0  0  0  0  0  0  0  0  0  0  0  0
   31.6295   15.5380   71.9926 H   0  0  0  0  0  0  0  0  0  0  0  0
   29.1551   15.6840   71.9302 H   0  0  0  0  0  0  0  0  0  0  0  0
   29.1354   14.3019   67.8614 H   0  0  0  0  0  0  0  0  0  0  0  0
   31.6184   14.1312   67.9046 H   0  0  0  0  0  0  0  0  0  0  0  0
   27.1672   14.8743   69.0472 H   0  0  0  0  0  0  0  0  0  0  0  0
  1  2  2  0
  1  6  1  0
  1  8  1  0
  2  3  1  0
  3  4  2  0
  4  5  1  0
  4  7  1  0
  5  6  2  0
  8  9  1  0
  8 10  2  0
  2 11  1  0
  3 12  1  0
  5 13  1  0
  6 14  1  0
  7 15  1  0
M  CHG  2   8   1   9  -1
M  END
>  <filename_input>  (21) 
7RZL_NPO_docked.sdf

>  <pdb_id>  (21) 
7RZL_NPO

>  <pose_rank>  (21) 
20

>  <num_atoms_heavy>  (21) 
10

>  <num_torsions>  (21) 
1

>  <pose>  (21) 
[31.761698584060795, 14.82315575764178, 69.95470346270996, 4.082299312082992, 2.3731618693755183, 1.2743688169032819, -1.8223871558662936]

>  <energy>  (21) 
-124.0507831533438

>  <inter_energy>  (21) 
-105.47911370324161

>  <intra_energy>  (21) 
0.0

>  <rmsd>  (21) 
12.7045

>  <sdf_rank>  (21) 
0

$$$$

     RDKit          3D

 15 15  0  0  0  0  0  0  0  0999 V2000
   24.7458    1.7973   52.7007 C   0  0  0  0  0  0  0  0  0  0  0  0
   23.5869    1.0487   52.5563 C   0  0  0  0  0  0  0  0  0  0  0  0
   22.3674    1.6624   52.7347 C   0  0  0  0  0  0  0  0  0  0  0  0
   22.2961    2.9998   53.0696 C   0  0  0  0  0  0  0  0  0  0  0  0
   23.4497    3.7494   53.2078 C   0  0  0  0  0  0  0  0  0  0  0  0
   24.6829    3.1514   53.0277 C   0  0  0  0  0  0  0  0  0  0  0  0
   21.0889    3.5869   53.2377 O   0  0  0  0  0  0  0  0  0  0  0  0
   25.9916    1.1957   52.5235 N   0  0  0  0  0  0  0  0  0  0  0  0
   26.8722    1.7677   51.6206 O   0  0  0  0  0  0  0  0  0  0  0  0
   26.3093    0.1909   53.1406 O   0  0  0  0  0  0  0  0  0  0  0  0
   23.6414   -0.0203   52.3027 H   0  0  0  0  0  0  0  0  0  0  0  0
   21.4416    1.0818   52.6094 H   0  0  0  0  0  0  0  0  0  0  0  0
   23.3863    4.8182   53.4602 H   0  0  0  0  0  0  0  0  0  0  0  0
   25.6063    3.7384   53.1413 H   0  0  0  0  0  0  0  0  0  0  0  0
   21.0340    4.5458   53.4779 H   0  0  0  0  0  0  0  0  0  0  0  0
  1  2  2  0
  1  6  1  0
  1  8  1  0
  2  3  1  0
  3  4  2  0
  4  5  1  0
  4  7  1  0
  5  6  2  0
  8  9  1  0
  8 10  2  0
  2 11  1  0
  3 12  1  0
  5 13  1  0
  6 14  1  0
  7 15  1  0
M  CHG  2   8   1   9  -1
M  END
>  <filename_input>  (22) 
7RZL_NPO_docked.sdf

>  <pdb_id>  (22) 
7RZL_NPO

>  <pose_rank>  (22) 
21

>  <num_atoms_heavy>  (22) 
10

>  <num_torsions>  (22) 
1

>  <pose>  (22) 
[24.74578010205197, 1.7972822607124845, 52.700728855160754, -2.7033829205422935, 0.5388923928299335, 3.9302598796359636, -0.9819789028184567]

>  <energy>  (22) 
-97.97679646417751

>  <inter_energy>  (22) 
-92.07431398922132

>  <intra_energy>  (22) 
0.0

>  <rmsd>  (22) 
11.7245

>  <sdf_rank>  (22) 
0

$$$$

     RDKit          3D

 15 15  0  0  0  0  0  0  0  0999 V2000
   22.4296   13.9665   62.8149 C   0  0  0  0  0  0  0  0  0  0  0  0
   22.4380   12.7917   63.5525 C   0  0  0  0  0  0  0  0  0  0  0  0
   22.8428   12.8306   64.8679 C   0  0  0  0  0  0  0  0  0  0  0  0
   23.2514   14.0174   65.4426 C   0  0  0  0  0  0  0  0  0  0  0  0
   23.2378   15.1907   64.7112 C   0  0  0  0  0  0  0  0  0  0  0  0
   22.8300   15.1719   63.3905 C   0  0  0  0  0  0  0  0  0  0  0  0
   23.6427   14.0372   66.7375 O   0  0  0  0  0  0  0  0  0  0  0  0
   22.0224   13.9499   61.4810 N   0  0  0  0  0  0  0  0  0  0  0  0
   22.8468   13.3367   60.5525 O   0  0  0  0  0  0  0  0  0  0  0  0
   20.9704   14.4597   61.1279 O   0  0  0  0  0  0  0  0  0  0  0  0
   22.1257   11.8424   63.0930 H   0  0  0  0  0  0  0  0  0  0  0  0
   22.8405   11.9076   65.4663 H   0  0  0  0  0  0  0  0  0  0  0  0
   23.5504   16.1360   65.1788 H   0  0  0  0  0  0  0  0  0  0  0  0
   22.8213   16.0993   62.7991 H   0  0  0  0  0  0  0  0  0  0  0  0
   23.9363   14.8865   67.1530 H   0  0  0  0  0  0  0  0  0  0  0  0
  1  2  2  0
  1  6  1  0
  1  8  1  0
  2  3  1  0
  3  4  2  0
  4  5  1  0
  4  7  1  0
  5  6  2  0
  8  9  1  0
  8 10  2  0
  2 11  1  0
  3 12  1  0
  5 13  1  0
  6 14  1  0
  7 15  1  0
M  CHG  2   8   1   9  -1
M  END
>  <filename_input>  (23) 
7RZL_NPO_docked.sdf

>  <pdb_id>  (23) 
7RZL_NPO

>  <pose_rank>  (23) 
22

>  <num_atoms_heavy>  (23) 
10

>  <num_torsions>  (23) 
1

>  <pose>  (23) 
[22.429642289051994, 13.966542633468274, 62.814875223603956, -0.10861598930075791, 1.5417639069082973, -1.2645306471240678, 1.8748784294018659]

>  <energy>  (23) 
-60.71611098542331

>  <inter_energy>  (23) 
-47.45704983023195

>  <intra_energy>  (23) 
0.0

>  <rmsd>  (23) 
12.2109

>  <sdf_rank>  (23) 
0

$$$$

     RDKit          3D

 15 15  0  0  0  0  0  0  0  0999 V2000
   23.9747   13.6110   68.3077 C   0  0  0  0  0  0  0  0  0  0  0  0
   24.1490   12.5918   69.2325 C   0  0  0  0  0  0  0  0  0  0  0  0
   23.0969   11.7458   69.5021 C   0  0  0  0  0  0  0  0  0  0  0  0
   21.8789   11.9172   68.8751 C   0  0  0  0  0  0  0  0  0  0  0  0
   21.7047   12.9283   67.9483 C   0  0  0  0  0  0  0  0  0  0  0  0
   22.7513   13.7845   67.6612 C   0  0  0  0  0  0  0  0  0  0  0  0
   20.8572   11.0741   69.1500 O   0  0  0  0  0  0  0  0  0  0  0  0
   25.0277   14.4788   68.0189 N   0  0  0  0  0  0  0  0  0  0  0  0
   25.0583   15.0785   66.7710 O   0  0  0  0  0  0  0  0  0  0  0  0
   25.9059   14.7114   68.8350 O   0  0  0  0  0  0  0  0  0  0  0  0
   25.1145   12.4615   69.7434 H   0  0  0  0  0  0  0  0  0  0  0  0
   23.2279   10.9259   70.2236 H   0  0  0  0  0  0  0  0  0  0  0  0
   20.7365   13.0509   67.4409 H   0  0  0  0  0  0  0  0  0  0  0  0
   22.6204   14.5954   66.9295 H   0  0  0  0  0  0  0  0  0  0  0  0
   19.9824   11.1940   68.7023 H   0  0  0  0  0  0  0  0  0  0  0  0
  1  2  2  0
  1  6  1  0
  1  8  1  0
  2  3  1  0
  3  4  2  0
  4  5  1  0
  4  7  1  0
  5  6  2  0
  8  9  1  0
  8 10  2  0
  2 11  1  0
  3 12  1  0
  5 13  1  0
  6 14  1  0
  7 15  1  0
M  CHG  2   8   1   9  -1
M  END
>  <filename_input>  (24) 
7RZL_NPO_docked.sdf

>  <pdb_id>  (24) 
7RZL_NPO

>  <pose_rank>  (24) 
23

>  <num_atoms_heavy>  (24) 
10

>  <num_torsions>  (24) 
1

>  <pose>  (24) 
[23.974651716885848, 13.610956241124331, 68.30765654584556, 0.18001321450749186, 5.492227716328348, -2.547092923565224, -0.5134604522155658]

>  <energy>  (24) 
-106.78641255354772

>  <inter_energy>  (24) 
-78.19764327800783

>  <intra_energy>  (24) 
0.0

>  <rmsd>  (24) 
12.7141

>  <sdf_rank>  (24) 
0

$$$$

     RDKit          3D

 15 15  0  0  0  0  0  0  0  0999 V2000
   32.4972   -1.3230   52.4855 C   0  0  0  0  0  0  0  0  0  0  0  0
   32.3043   -2.2360   53.5119 C   0  0  0  0  0  0  0  0  0  0  0  0
   33.3153   -3.1177   53.8217 C   0  0  0  0  0  0  0  0  0  0  0  0
   34.4991   -3.1073   53.1115 C   0  0  0  0  0  0  0  0  0  0  0  0
   34.6960   -2.1940   52.0923 C   0  0  0  0  0  0  0  0  0  0  0  0
   33.6940   -1.2978   51.7702 C   0  0  0  0  0  0  0  0  0  0  0  0
   35.4828   -3.9790   53.4321 O   0  0  0  0  0  0  0  0  0  0  0  0
   31.4865   -0.4202   52.1556 N   0  0  0  0  0  0  0  0  0  0  0  0
   30.1725   -0.8488   52.2411 O   0  0  0  0  0  0  0  0  0  0  0  0
   31.7399    0.7199   51.7986 O   0  0  0  0  0  0  0  0  0  0  0  0
   31.3569   -2.2553   54.0705 H   0  0  0  0  0  0  0  0  0  0  0  0
   33.1786   -3.8370   54.6426 H   0  0  0  0  0  0  0  0  0  0  0  0
   35.6470   -2.1805   51.5395 H   0  0  0  0  0  0  0  0  0  0  0  0
   33.8394   -0.5714   50.9570 H   0  0  0  0  0  0  0  0  0  0  0  0
   36.3330   -3.9743   52.9250 H   0  0  0  0  0  0  0  0  0  0  0  0
  1  2  2  0
  1  6  1  0
  1  8  1  0
  2  3  1  0
  3  4  2  0
  4  5  1  0
  4  7  1  0
  5  6  2  0
  8  9  1  0
  8 10  2  0
  2 11  1  0
  3 12  1  0
  5 13  1  0
  6 14  1  0
  7 15  1  0
M  CHG  2   8   1   9  -1
M  END
>  <filename_input>  (25) 
7RZL_NPO_docked.sdf

>  <pdb_id>  (25) 
7RZL_NPO

>  <pose_rank>  (25) 
24

>  <num_atoms_heavy>  (25) 
10

>  <num_torsions>  (25) 
1

>  <pose>  (25) 
[32.49723501005011, -1.323008027745288, 52.48545090827646, 0.01874107006576956, -1.988632811600609, 1.779074298827553, 2.472644619273426]

>  <energy>  (25) 
-92.40166374198854

>  <inter_energy>  (25) 
-73.87446094080119

>  <intra_energy>  (25) 
0.0

>  <rmsd>  (25) 
12.1078

>  <sdf_rank>  (25) 
0

$$$$

     RDKit          3D

 15 15  0  0  0  0  0  0  0  0999 V2000
   31.3890    5.9680   61.1980 C   0  0  0  0  0  0  0  0  0  0  0  0
   31.6500    4.9220   62.0710 C   0  0  0  0  0  0  0  0  0  0  0  0
   30.5990    4.1740   62.5520 C   0  0  0  0  0  0  0  0  0  0  0  0
   29.3010    4.4690   62.1860 C   0  0  0  0  0  0  0  0  0  0  0  0
   29.0390    5.5070   61.3110 C   0  0  0  0  0  0  0  0  0  0  0  0
   30.0820    6.2660   60.8140 C   0  0  0  0  0  0  0  0  0  0  0  0
   28.2810    3.7210   62.6660 O   0  0  0  0  0  0  0  0  0  0  0  0
   32.4390    6.7380   60.6980 N   0  0  0  0  0  0  0  0  0  0  0  0
   32.1320    7.8040   59.8690 O   0  0  0  0  0  0  0  0  0  0  0  0
   33.6020    6.4890   60.9750 O   0  0  0  0  0  0  0  0  0  0  0  0
   32.6822    4.6934   62.3747 H   0  0  0  0  0  0  0  0  0  0  0  0
   30.7953    3.3337   63.2341 H   0  0  0  0  0  0  0  0  0  0  0  0
   28.0040    5.7281   61.0113 H   0  0  0  0  0  0  0  0  0  0  0  0
   29.8828    7.0975   60.1219 H   0  0  0  0  0  0  0  0  0  0  0  0
   27.3489    3.9297   62.4057 H   0  0  0  0  0  0  0  0  0  0  0  0
  1  2  2  0
  1  6  1  0
  1  8  1  0
  2  3  1  0
  3  4  2  0
  4  5  1  0
  4  7  1  0
  5  6  2  0
  8  9  1  0
  8 10  2  0
  2 11  1  0
  3 12  1  0
  5 13  1  0
  6 14  1  0
  7 15  1  0
M  CHG  2   8   1   9  -1
M  END
>  <filename_input>  (26) 
7RZL_NPO_docked.sdf

>  <pdb_id>  (26) 
7RZL_NPO

>  <pose_rank>  (26) 
25

>  <num_atoms_heavy>  (26) 
10

>  <num_torsions>  (26) 
1

>  <pose>  (26) 
[31.389, 5.968, 61.198, 1e-06, 1e-06, 1e-06, 0.0]

>  <energy>  (26) 
-454.78294312913175

>  <inter_energy>  (26) 
-458.63206480375715

>  <intra_energy>  (26) 
0.0

>  <rmsd>  (26) 
0.0

>  <sdf_rank>  (26) 
0

$$$$
