
     RDKit          3D

 46 48  0  0  0  0  0  0  0  0999 V2000
   23.3514   18.2260   -6.9414 P   0  0  1  0  0  0  0  0  0  0  0  0
   24.6044   19.1277   -6.3923 O   0  0  0  0  0  0  0  0  0  0  0  0
   22.0330   18.4080   -5.5960 S   0  0  0  0  0  0  0  0  0  0  0  0
   22.7929   18.7132   -8.2230 O   0  0  0  0  0  0  0  0  0  0  0  0
   23.7176   16.7792   -7.2321 O   0  0  0  0  0  0  0  0  0  0  0  0
   26.0124   19.2556   -7.0868 P   0  0  1  0  0  0  0  0  0  0  0  0
   26.8502   18.1002   -6.7472 O   0  0  0  0  0  0  0  0  0  0  0  0
   25.8622   19.6277   -8.4875 O   0  0  0  0  0  0  0  0  0  0  0  0
   26.6665   22.0425   -6.7365 P   0  0  1  0  0  0  0  0  0  0  0  0
   27.4563   22.2054   -7.9635 O   0  0  0  0  0  0  0  0  0  0  0  0
   25.3118   22.5781   -6.7800 O   0  0  0  0  0  0  0  0  0  0  0  0
   26.6334   20.4911   -6.2634 O   0  0  0  0  0  0  0  0  0  0  0  0
   27.5994   22.6163   -5.5843 O   0  0  0  0  0  0  0  0  0  0  0  0
   27.2788   22.4291   -4.1954 C   0  0  0  0  0  0  0  0  0  0  0  0
   27.8764   23.5119   -3.3169 C   0  0  1  0  0  0  0  0  0  0  0  0
   29.2592   23.2833   -3.1037 O   0  0  0  0  0  0  0  0  0  0  0  0
   27.7750   24.8900   -3.9480 C   0  0  1  0  0  0  0  0  0  0  0  0
   27.7350   25.8199   -2.9254 O   0  0  0  0  0  0  0  0  0  0  0  0
   29.1159   25.0966   -4.6228 C   0  0  1  0  0  0  0  0  0  0  0  0
   29.4640   26.4560   -4.7041 O   0  0  0  0  0  0  0  0  0  0  0  0
   30.0466   24.3673   -3.6196 C   0  0  2  0  0  0  0  0  0  0  0  0
   31.2433   23.7684   -4.2284 N   0  0  0  0  0  0  0  0  0  0  0  0
   31.2466   22.8756   -5.2806 C   0  0  0  0  0  0  0  0  0  0  0  0
   32.5212   22.5082   -5.5497 N   0  0  0  0  0  0  0  0  0  0  0  0
   33.3475   23.2029   -4.7202 C   0  0  0  0  0  0  0  0  0  0  0  0
   34.7502   23.2353   -4.5585 C   0  0  0  0  0  0  0  0  0  0  0  0
   35.5820   22.5368   -5.2066 O   0  0  0  0  0  0  0  0  0  0  0  0
   35.2268   24.0699   -3.5775 N   0  0  0  0  0  0  0  0  0  0  0  0
   34.3559   24.8198   -2.7827 C   0  0  0  0  0  0  0  0  0  0  0  0
   34.8200   25.5924   -1.8448 N   0  0  0  0  0  0  0  0  0  0  0  0
   33.0045   24.7832   -2.9030 N   0  0  0  0  0  0  0  0  0  0  0  0
   32.5234   23.9654   -3.8675 C   0  0  0  0  0  0  0  0  0  0  0  0
   22.0595   19.3530   -8.0415 H   0  0  0  0  0  0  0  0  0  0  0  0
   23.8408   16.2922   -6.3791 H   0  0  0  0  0  0  0  0  0  0  0  0
   26.1850   22.4429   -4.0796 H   0  0  0  0  0  0  0  0  0  0  0  0
   27.7035   21.4652   -3.8784 H   0  0  0  0  0  0  0  0  0  0  0  0
   27.3040   23.4761   -2.3782 H   0  0  0  0  0  0  0  0  0  0  0  0
   26.9062   24.9826   -4.6163 H   0  0  0  0  0  0  0  0  0  0  0  0
   27.7551   25.3522   -2.0531 H   0  0  0  0  0  0  0  0  0  0  0  0
   29.1532   24.7348   -5.6609 H   0  0  0  0  0  0  0  0  0  0  0  0
   29.5591   26.8275   -3.7914 H   0  0  0  0  0  0  0  0  0  0  0  0
   30.4003   25.0988   -2.8780 H   0  0  0  0  0  0  0  0  0  0  0  0
   30.3543   22.5190   -5.8160 H   0  0  0  0  0  0  0  0  0  0  0  0
   36.2427   24.1443   -3.4252 H   0  0  0  0  0  0  0  0  0  0  0  0
   34.1719   26.1423   -1.2628 H   0  0  0  0  0  0  0  0  0  0  0  0
   35.8355   25.6545   -1.6840 H   0  0  0  0  0  0  0  0  0  0  0  0
  1  2  1  1
  1  3  2  0
  1  4  1  0
  1  5  1  0
  2  6  1  0
  6  7  2  0
  6  8  1  6
  6 12  1  0
  9 10  2  0
  9 11  1  6
  9 12  1  0
  9 13  1  0
 13 14  1  0
 15 14  1  0
 15 16  1  0
 15 17  1  0
 16 21  1  0
 17 18  1  0
 17 19  1  0
 19 20  1  0
 19 21  1  0
 21 22  1  0
 22 23  1  0
 22 32  1  0
 23 24  2  0
 24 25  1  0
 25 26  1  0
 25 32  2  0
 26 27  2  0
 26 28  1  0
 28 29  1  0
 29 30  1  0
 29 31  2  0
 31 32  1  0
  4 33  1  0
  5 34  1  0
 14 35  1  0
 14 36  1  0
 15 37  1  1
 17 38  1  6
 18 39  1  0
 19 40  1  6
 20 41  1  0
 21 42  1  1
 23 43  1  0
 28 44  1  0
 30 45  1  0
 30 46  1  0
M  CHG  2   8  -1  11  -1
M  END
>  <filename_input>  (1) 
7SCW_GSP_docked.sdf

>  <pdb_id>  (1) 
7SCW_GSP

>  <pose_rank>  (1) 
0

>  <num_atoms_heavy>  (1) 
32

>  <num_torsions>  (1) 
8

>  <pose>  (1) 
[27.876373825280126, 23.511890785010095, -3.316861656610417, 0.07315328748323487, 0.018733145677302276, -0.002525968270382065, -0.07681012028993534, 12.310684037488178, -0.09553831149813777, -12.385962380842207, 0.056367308315412486, -6.133796536457534, -6.119999239759963, -0.23487505107087808]

>  <energy>  (1) 
-1677.8452369388601

>  <inter_energy>  (1) 
-1693.0839763018164

>  <intra_energy>  (1) 
12.879246608768945

>  <rmsd>  (1) 
0.268439

>  <sdf_rank>  (1) 
0

$$$$

     RDKit          3D

 46 48  0  0  0  0  0  0  0  0999 V2000
   24.7601   24.7349  -10.3481 P   0  0  1  0  0  0  0  0  0  0  0  0
   25.5943   23.7043   -9.3856 O   0  0  0  0  0  0  0  0  0  0  0  0
   26.0390   25.3103  -11.6187 S   0  0  0  0  0  0  0  0  0  0  0  0
   23.6352   24.0914  -11.0640 O   0  0  0  0  0  0  0  0  0  0  0  0
   24.1027   25.8810   -9.5956 O   0  0  0  0  0  0  0  0  0  0  0  0
   26.3929   24.1077   -8.0891 P   0  0  1  0  0  0  0  0  0  0  0  0
   27.4062   25.1177   -8.4136 O   0  0  0  0  0  0  0  0  0  0  0  0
   25.4804   24.3579   -6.9810 O   0  0  0  0  0  0  0  0  0  0  0  0
   26.8666   21.6237   -6.7025 P   0  0  1  0  0  0  0  0  0  0  0  0
   25.5019   21.7908   -6.1874 O   0  0  0  0  0  0  0  0  0  0  0  0
   27.1914   20.2992   -7.2164 O   0  0  0  0  0  0  0  0  0  0  0  0
   27.2136   22.7503   -7.8170 O   0  0  0  0  0  0  0  0  0  0  0  0
   27.8010   22.1591   -5.5332 O   0  0  0  0  0  0  0  0  0  0  0  0
   27.3554   22.1819   -4.1665 C   0  0  0  0  0  0  0  0  0  0  0  0
   27.8958   23.3780   -3.4059 C   0  0  1  0  0  0  0  0  0  0  0  0
   29.2885   23.2438   -3.1772 O   0  0  0  0  0  0  0  0  0  0  0  0
   27.7237   24.6774   -4.1738 C   0  0  1  0  0  0  0  0  0  0  0  0
   27.6352   25.7036   -3.2512 O   0  0  0  0  0  0  0  0  0  0  0  0
   29.0525   24.8827   -4.8726 C   0  0  1  0  0  0  0  0  0  0  0  0
   29.3299   26.2429   -5.0939 O   0  0  0  0  0  0  0  0  0  0  0  0
   30.0192   24.3086   -3.8047 C   0  0  2  0  0  0  0  0  0  0  0  0
   31.2454   23.7129   -4.3550 N   0  0  0  0  0  0  0  0  0  0  0  0
   31.2985   22.7839   -5.3739 C   0  0  0  0  0  0  0  0  0  0  0  0
   32.5878   22.4331   -5.5908 N   0  0  0  0  0  0  0  0  0  0  0  0
   33.3744   23.1733   -4.7621 C   0  0  0  0  0  0  0  0  0  0  0  0
   34.7705   23.2399   -4.5591 C   0  0  0  0  0  0  0  0  0  0  0  0
   35.6353   22.5360   -5.1562 O   0  0  0  0  0  0  0  0  0  0  0  0
   35.2002   24.1181   -3.5947 N   0  0  0  0  0  0  0  0  0  0  0  0
   34.2909   24.8777   -2.8541 C   0  0  0  0  0  0  0  0  0  0  0  0
   34.7106   25.6922   -1.9309 N   0  0  0  0  0  0  0  0  0  0  0  0
   32.9448   24.8095   -3.0141 N   0  0  0  0  0  0  0  0  0  0  0  0
   32.5096   23.9485   -3.9628 C   0  0  0  0  0  0  0  0  0  0  0  0
   22.9927   23.7238  -10.4065 H   0  0  0  0  0  0  0  0  0  0  0  0
   24.1899   25.7290   -8.6212 H   0  0  0  0  0  0  0  0  0  0  0  0
   26.2561   22.2212   -4.1533 H   0  0  0  0  0  0  0  0  0  0  0  0
   27.7301   21.2722   -3.6745 H   0  0  0  0  0  0  0  0  0  0  0  0
   27.3257   23.4089   -2.4657 H   0  0  0  0  0  0  0  0  0  0  0  0
   26.8516   24.6565   -4.8438 H   0  0  0  0  0  0  0  0  0  0  0  0
   27.6676   25.3280   -2.3358 H   0  0  0  0  0  0  0  0  0  0  0  0
   29.1089   24.4192   -5.8686 H   0  0  0  0  0  0  0  0  0  0  0  0
   29.4243   26.7061   -4.2240 H   0  0  0  0  0  0  0  0  0  0  0  0
   30.3342   25.1291   -3.1434 H   0  0  0  0  0  0  0  0  0  0  0  0
   30.4304   22.3905   -5.9230 H   0  0  0  0  0  0  0  0  0  0  0  0
   36.2093   24.2184   -3.4144 H   0  0  0  0  0  0  0  0  0  0  0  0
   34.0344   26.2489   -1.3890 H   0  0  0  0  0  0  0  0  0  0  0  0
   35.7192   25.7805   -1.7417 H   0  0  0  0  0  0  0  0  0  0  0  0
  1  2  1  1
  1  3  2  0
  1  4  1  0
  1  5  1  0
  2  6  1  0
  6  7  2  0
  6  8  1  1
  6 12  1  0
  9 10  2  0
  9 11  1  6
  9 12  1  0
  9 13  1  0
 13 14  1  0
 15 14  1  0
 15 16  1  0
 15 17  1  0
 16 21  1  0
 17 18  1  0
 17 19  1  0
 19 20  1  0
 19 21  1  0
 21 22  1  0
 22 23  1  0
 22 32  1  0
 23 24  2  0
 24 25  1  0
 25 26  1  0
 25 32  2  0
 26 27  2  0
 26 28  1  0
 28 29  1  0
 29 30  1  0
 29 31  2  0
 31 32  1  0
  4 33  1  0
  5 34  1  0
 14 35  1  0
 14 36  1  0
 15 37  1  1
 17 38  1  6
 18 39  1  0
 19 40  1  6
 20 41  1  0
 21 42  1  1
 23 43  1  0
 28 44  1  0
 30 45  1  0
 30 46  1  0
M  CHG  2   8  -1  11  -1
M  END
>  <filename_input>  (2) 
7SCW_GSP_docked.sdf

>  <pdb_id>  (2) 
7SCW_GSP

>  <pose_rank>  (2) 
1

>  <num_atoms_heavy>  (2) 
32

>  <num_torsions>  (2) 
8

>  <pose>  (2) 
[27.895836897938604, 23.378014068459333, -3.405877325694681, 3.030951961581239, -2.3165601369574014, -4.915764811920073, 0.004095544396866858, -0.13364208135519415, 0.06685610842409617, -2.7293918254647336, 1.411079468430584, 0.07912730909715197, 0.5747842816330166, -1.744571408883075]

>  <energy>  (2) 
-1475.2493539662614

>  <inter_energy>  (2) 
-1488.831513980874

>  <intra_energy>  (2) 
25.35844315273982

>  <rmsd>  (2) 
3.63712

>  <sdf_rank>  (2) 
0

$$$$

     RDKit          3D

 46 48  0  0  0  0  0  0  0  0999 V2000
   25.5515   18.7167   -7.4666 P   0  0  1  0  0  0  0  0  0  0  0  0
   25.7509   20.2214   -8.0834 O   0  0  0  0  0  0  0  0  0  0  0  0
   23.7661   18.7126   -6.8394 S   0  0  0  0  0  0  0  0  0  0  0  0
   25.7037   17.6427   -8.4742 O   0  0  0  0  0  0  0  0  0  0  0  0
   26.5661   18.3538   -6.3938 O   0  0  0  0  0  0  0  0  0  0  0  0
   24.8834   21.4833   -7.7142 P   0  0  1  0  0  0  0  0  0  0  0  0
   23.5829   21.4177   -8.3899 O   0  0  0  0  0  0  0  0  0  0  0  0
   24.9183   21.7283   -6.2783 O   0  0  0  0  0  0  0  0  0  0  0  0
   25.7816   24.2021   -8.0598 P   0  0  1  0  0  0  0  0  0  0  0  0
   26.8285   24.9021   -8.8146 O   0  0  0  0  0  0  0  0  0  0  0  0
   24.4529   24.7981   -8.1187 O   0  0  0  0  0  0  0  0  0  0  0  0
   25.7051   22.6368   -8.4789 O   0  0  0  0  0  0  0  0  0  0  0  0
   26.3940   24.0225   -6.6039 O   0  0  0  0  0  0  0  0  0  0  0  0
   27.6005   24.6969   -6.2082 C   0  0  0  0  0  0  0  0  0  0  0  0
   27.8578   24.5865   -4.7172 C   0  0  1  0  0  0  0  0  0  0  0  0
   28.8797   23.6411   -4.4497 O   0  0  0  0  0  0  0  0  0  0  0  0
   28.3350   25.8967   -4.1143 C   0  0  1  0  0  0  0  0  0  0  0  0
   27.9531   25.9129   -2.7854 O   0  0  0  0  0  0  0  0  0  0  0  0
   29.8453   25.7759   -4.0940 C   0  0  1  0  0  0  0  0  0  0  0  0
   30.4231   26.5313   -3.0590 O   0  0  0  0  0  0  0  0  0  0  0  0
   29.9985   24.2615   -3.7979 C   0  0  2  0  0  0  0  0  0  0  0  0
   31.2099   23.6524   -4.3661 N   0  0  0  0  0  0  0  0  0  0  0  0
   31.2376   22.7199   -5.3828 C   0  0  0  0  0  0  0  0  0  0  0  0
   32.5197   22.3560   -5.6194 N   0  0  0  0  0  0  0  0  0  0  0  0
   33.3267   23.0910   -4.8058 C   0  0  0  0  0  0  0  0  0  0  0  0
   34.7265   23.1447   -4.6255 C   0  0  0  0  0  0  0  0  0  0  0  0
   35.5747   22.4307   -5.2343 O   0  0  0  0  0  0  0  0  0  0  0  0
   35.1802   24.0215   -3.6709 N   0  0  0  0  0  0  0  0  0  0  0  0
   34.2903   24.7920   -2.9181 C   0  0  0  0  0  0  0  0  0  0  0  0
   34.7327   25.6051   -2.0042 N   0  0  0  0  0  0  0  0  0  0  0  0
   32.9412   24.7364   -3.0561 N   0  0  0  0  0  0  0  0  0  0  0  0
   32.4825   23.8769   -3.9950 C   0  0  0  0  0  0  0  0  0  0  0  0
   25.8268   16.7743   -8.0149 H   0  0  0  0  0  0  0  0  0  0  0  0
   26.1663   18.4968   -5.4995 H   0  0  0  0  0  0  0  0  0  0  0  0
   28.4488   24.2505   -6.7478 H   0  0  0  0  0  0  0  0  0  0  0  0
   27.4862   25.7633   -6.4525 H   0  0  0  0  0  0  0  0  0  0  0  0
   26.8955   24.2882   -4.2755 H   0  0  0  0  0  0  0  0  0  0  0  0
   27.9523   26.7730   -4.6582 H   0  0  0  0  0  0  0  0  0  0  0  0
   28.7582   25.8788   -2.2103 H   0  0  0  0  0  0  0  0  0  0  0  0
   30.3339   26.1366   -5.0112 H   0  0  0  0  0  0  0  0  0  0  0  0
   30.1412   26.1628   -2.1844 H   0  0  0  0  0  0  0  0  0  0  0  0
   30.0555   24.1240   -2.7081 H   0  0  0  0  0  0  0  0  0  0  0  0
   30.3569   22.3334   -5.9166 H   0  0  0  0  0  0  0  0  0  0  0  0
   36.1930   24.1126   -3.5072 H   0  0  0  0  0  0  0  0  0  0  0  0
   34.0707   26.1700   -1.4532 H   0  0  0  0  0  0  0  0  0  0  0  0
   35.7451   25.6842   -1.8317 H   0  0  0  0  0  0  0  0  0  0  0  0
  1  2  1  6
  1  3  2  0
  1  4  1  0
  1  5  1  0
  2  6  1  0
  6  7  2  0
  6  8  1  1
  6 12  1  0
  9 10  2  0
  9 11  1  1
  9 12  1  0
  9 13  1  0
 13 14  1  0
 15 14  1  0
 15 16  1  0
 15 17  1  0
 16 21  1  0
 17 18  1  0
 17 19  1  0
 19 20  1  0
 19 21  1  0
 21 22  1  0
 22 23  1  0
 22 32  1  0
 23 24  2  0
 24 25  1  0
 25 26  1  0
 25 32  2  0
 26 27  2  0
 26 28  1  0
 28 29  1  0
 29 30  1  0
 29 31  2  0
 31 32  1  0
  4 33  1  0
  5 34  1  0
 14 35  1  0
 14 36  1  0
 15 37  1  1
 17 38  1  6
 18 39  1  0
 19 40  1  6
 20 41  1  0
 21 42  1  1
 23 43  1  0
 28 44  1  0
 30 45  1  0
 30 46  1  0
M  CHG  2   8  -1  11  -1
M  END
>  <filename_input>  (3) 
7SCW_GSP_docked.sdf

>  <pdb_id>  (3) 
7SCW_GSP

>  <pose_rank>  (3) 
2

>  <num_atoms_heavy>  (3) 
32

>  <num_torsions>  (3) 
8

>  <pose>  (3) 
[27.857759916116148, 24.586538328345732, -4.717239610844281, 0.8596376735990772, -0.4224767528170544, -0.37218909494676, 5.2024453835078655, 2.913200935928523, -0.7293502456997883, -2.9609686442612713, -2.197632754747793, -0.7864307897242158, 0.23855104255933274, -2.9319670982207957]

>  <energy>  (3) 
-1450.5967993061656

>  <inter_energy>  (3) 
-1484.5766370545298

>  <intra_energy>  (3) 
35.74189908641182

>  <rmsd>  (3) 
2.12799

>  <sdf_rank>  (3) 
0

$$$$

     RDKit          3D

 46 48  0  0  0  0  0  0  0  0999 V2000
   22.7208   18.2982   -6.7549 P   0  0  1  0  0  0  0  0  0  0  0  0
   23.2437   19.7682   -6.2547 O   0  0  0  0  0  0  0  0  0  0  0  0
   23.7504   17.9497   -8.3041 S   0  0  0  0  0  0  0  0  0  0  0  0
   22.9647   17.2203   -5.7698 O   0  0  0  0  0  0  0  0  0  0  0  0
   21.2220   18.2314   -7.0019 O   0  0  0  0  0  0  0  0  0  0  0  0
   22.5030   20.6996   -5.2226 P   0  0  1  0  0  0  0  0  0  0  0  0
   21.5437   21.5636   -5.9195 O   0  0  0  0  0  0  0  0  0  0  0  0
   22.0494   19.9311   -4.0708 O   0  0  0  0  0  0  0  0  0  0  0  0
   25.0311   21.2395   -3.9442 P   0  0  1  0  0  0  0  0  0  0  0  0
   24.7918   21.3293   -2.4983 O   0  0  0  0  0  0  0  0  0  0  0  0
   25.5312   19.9576   -4.4245 O   0  0  0  0  0  0  0  0  0  0  0  0
   23.7109   21.6684   -4.7837 O   0  0  0  0  0  0  0  0  0  0  0  0
   25.9374   22.5026   -4.2762 O   0  0  0  0  0  0  0  0  0  0  0  0
   27.3695   22.4505   -4.1610 C   0  0  0  0  0  0  0  0  0  0  0  0
   27.9386   23.6942   -3.5047 C   0  0  1  0  0  0  0  0  0  0  0  0
   29.3285   23.5483   -3.2661 O   0  0  0  0  0  0  0  0  0  0  0  0
   27.7940   24.9275   -4.3799 C   0  0  1  0  0  0  0  0  0  0  0  0
   27.7309   26.0299   -3.5475 O   0  0  0  0  0  0  0  0  0  0  0  0
   29.1254   25.0427   -5.0942 C   0  0  1  0  0  0  0  0  0  0  0  0
   29.4329   26.3725   -5.4301 O   0  0  0  0  0  0  0  0  0  0  0  0
   30.0814   24.5393   -3.9820 C   0  0  2  0  0  0  0  0  0  0  0  0
   31.2926   23.8715   -4.4804 N   0  0  0  0  0  0  0  0  0  0  0  0
   31.3361   22.9512   -5.5076 C   0  0  0  0  0  0  0  0  0  0  0  0
   32.6094   22.5204   -5.6669 N   0  0  0  0  0  0  0  0  0  0  0  0
   33.4002   23.2001   -4.7916 C   0  0  0  0  0  0  0  0  0  0  0  0
   34.7861   23.1747   -4.5208 C   0  0  0  0  0  0  0  0  0  0  0  0
   35.6324   22.4226   -5.0848 O   0  0  0  0  0  0  0  0  0  0  0  0
   35.2233   24.0137   -3.5255 N   0  0  0  0  0  0  0  0  0  0  0  0
   34.3292   24.8228   -2.8196 C   0  0  0  0  0  0  0  0  0  0  0  0
   34.7544   25.5993   -1.8666 N   0  0  0  0  0  0  0  0  0  0  0  0
   32.9910   24.8429   -3.0450 N   0  0  0  0  0  0  0  0  0  0  0  0
   32.5486   24.0213   -4.0247 C   0  0  0  0  0  0  0  0  0  0  0  0
   22.8820   17.5858   -4.8535 H   0  0  0  0  0  0  0  0  0  0  0  0
   20.7453   18.2101   -6.1345 H   0  0  0  0  0  0  0  0  0  0  0  0
   27.6443   21.5738   -3.5561 H   0  0  0  0  0  0  0  0  0  0  0  0
   27.7871   22.3841   -5.1764 H   0  0  0  0  0  0  0  0  0  0  0  0
   27.3716   23.8176   -2.5702 H   0  0  0  0  0  0  0  0  0  0  0  0
   26.9200   24.8697   -5.0454 H   0  0  0  0  0  0  0  0  0  0  0  0
   27.7479   25.7320   -2.6035 H   0  0  0  0  0  0  0  0  0  0  0  0
   29.1689   24.4953   -6.0474 H   0  0  0  0  0  0  0  0  0  0  0  0
   29.5553   26.9020   -4.6025 H   0  0  0  0  0  0  0  0  0  0  0  0
   30.4165   25.4055   -3.3927 H   0  0  0  0  0  0  0  0  0  0  0  0
   30.4725   22.6200   -6.1030 H   0  0  0  0  0  0  0  0  0  0  0  0
   36.2268   24.0471   -3.2955 H   0  0  0  0  0  0  0  0  0  0  0  0
   34.0894   26.1930   -1.3506 H   0  0  0  0  0  0  0  0  0  0  0  0
   35.7562   25.6206   -1.6280 H   0  0  0  0  0  0  0  0  0  0  0  0
  1  2  1  1
  1  3  2  0
  1  4  1  0
  1  5  1  0
  2  6  1  0
  6  7  2  0
  6  8  1  1
  6 12  1  0
  9 10  2  0
  9 11  1  1
  9 12  1  0
  9 13  1  0
 13 14  1  0
 15 14  1  0
 15 16  1  0
 15 17  1  0
 16 21  1  0
 17 18  1  0
 17 19  1  0
 19 20  1  0
 19 21  1  0
 21 22  1  0
 22 23  1  0
 22 32  1  0
 23 24  2  0
 24 25  1  0
 25 26  1  0
 25 32  2  0
 26 27  2  0
 26 28  1  0
 28 29  1  0
 29 30  1  0
 29 31  2  0
 31 32  1  0
  4 33  1  0
  5 34  1  0
 14 35  1  0
 14 36  1  0
 15 37  1  1
 17 38  1  6
 18 39  1  0
 19 40  1  6
 20 41  1  0
 21 42  1  1
 23 43  1  0
 28 44  1  0
 30 45  1  0
 30 46  1  0
M  CHG  2   8  -1  11  -1
M  END
>  <filename_input>  (4) 
7SCW_GSP_docked.sdf

>  <pdb_id>  (4) 
7SCW_GSP

>  <pose_rank>  (4) 
3

>  <num_atoms_heavy>  (4) 
32

>  <num_torsions>  (4) 
8

>  <pose>  (4) 
[27.938624793950257, 23.694230785972007, -3.5047102509703985, -0.11413298376566411, 0.02643853263300764, 0.024437679862786322, 6.403506191960789, -14.727087230516203, -6.077795793388066, -1.6325897664573332, -0.38534656109760335, 6.979493632418092, 6.3230806075573485, -0.4368407273930841]

>  <energy>  (4) 
-1430.1662150982215

>  <inter_energy>  (4) 
-1409.2825900458224

>  <intra_energy>  (4) 
6.625563325430398

>  <rmsd>  (4) 
2.37925

>  <sdf_rank>  (4) 
0

$$$$

     RDKit          3D

 46 48  0  0  0  0  0  0  0  0999 V2000
   25.0340   23.8417    1.8560 P   0  0  1  0  0  0  0  0  0  0  0  0
   25.4343   23.5304    0.2981 O   0  0  0  0  0  0  0  0  0  0  0  0
   25.3225   22.1936    2.7402 S   0  0  0  0  0  0  0  0  0  0  0  0
   25.8857   24.8751    2.4873 O   0  0  0  0  0  0  0  0  0  0  0  0
   23.6223   24.3787    2.0313 O   0  0  0  0  0  0  0  0  0  0  0  0
   24.7458   22.4564   -0.6259 P   0  0  1  0  0  0  0  0  0  0  0  0
   25.4941   21.1954   -0.5793 O   0  0  0  0  0  0  0  0  0  0  0  0
   23.3070   22.4290   -0.3974 O   0  0  0  0  0  0  0  0  0  0  0  0
   24.8019   22.3568   -3.5076 P   0  0  1  0  0  0  0  0  0  0  0  0
   23.9030   21.2042   -3.3687 O   0  0  0  0  0  0  0  0  0  0  0  0
   24.4133   23.3458   -4.5052 O   0  0  0  0  0  0  0  0  0  0  0  0
   25.0502   23.0812   -2.0775 O   0  0  0  0  0  0  0  0  0  0  0  0
   26.2442   21.7156   -3.6962 O   0  0  0  0  0  0  0  0  0  0  0  0
   27.2861   22.4062   -4.4065 C   0  0  0  0  0  0  0  0  0  0  0  0
   27.8594   23.5605   -3.6062 C   0  0  1  0  0  0  0  0  0  0  0  0
   29.2337   23.3495   -3.3292 O   0  0  0  0  0  0  0  0  0  0  0  0
   27.7840   24.8787   -4.3575 C   0  0  1  0  0  0  0  0  0  0  0  0
   27.7146   25.8939   -3.4212 O   0  0  0  0  0  0  0  0  0  0  0  0
   29.1468   25.0243   -5.0037 C   0  0  1  0  0  0  0  0  0  0  0  0
   29.5027   26.3712   -5.1913 O   0  0  0  0  0  0  0  0  0  0  0  0
   30.0417   24.3838   -3.9113 C   0  0  2  0  0  0  0  0  0  0  0  0
   31.2550   23.7328   -4.4267 N   0  0  0  0  0  0  0  0  0  0  0  0
   31.2909   22.7718   -5.4162 C   0  0  0  0  0  0  0  0  0  0  0  0
   32.5708   22.3736   -5.6049 N   0  0  0  0  0  0  0  0  0  0  0  0
   33.3704   23.1134   -4.7882 C   0  0  0  0  0  0  0  0  0  0  0  0
   34.7652   23.1417   -4.5684 C   0  0  0  0  0  0  0  0  0  0  0  0
   35.6143   22.3926   -5.1322 O   0  0  0  0  0  0  0  0  0  0  0  0
   35.2108   24.0348   -3.6252 N   0  0  0  0  0  0  0  0  0  0  0  0
   34.3172   24.8453   -2.9203 C   0  0  0  0  0  0  0  0  0  0  0  0
   34.7513   25.6740   -2.0165 N   0  0  0  0  0  0  0  0  0  0  0  0
   32.9718   24.8152   -3.0964 N   0  0  0  0  0  0  0  0  0  0  0  0
   32.5211   23.9399   -4.0245 C   0  0  0  0  0  0  0  0  0  0  0  0
   25.8225   24.7984    3.4723 H   0  0  0  0  0  0  0  0  0  0  0  0
   23.4165   24.4570    2.9965 H   0  0  0  0  0  0  0  0  0  0  0  0
   28.0943   21.6942   -4.6296 H   0  0  0  0  0  0  0  0  0  0  0  0
   26.8494   22.8189   -5.3279 H   0  0  0  0  0  0  0  0  0  0  0  0
   27.2569   23.6070   -2.6871 H   0  0  0  0  0  0  0  0  0  0  0  0
   26.9375   24.9140   -5.0591 H   0  0  0  0  0  0  0  0  0  0  0  0
   27.7412   25.5057   -2.5109 H   0  0  0  0  0  0  0  0  0  0  0  0
   29.2161   24.5737   -6.0048 H   0  0  0  0  0  0  0  0  0  0  0  0
   29.6181   26.8078   -4.3103 H   0  0  0  0  0  0  0  0  0  0  0  0
   30.3742   25.1764   -3.2249 H   0  0  0  0  0  0  0  0  0  0  0  0
   30.4175   22.3896   -5.9649 H   0  0  0  0  0  0  0  0  0  0  0  0
   36.2203   24.1085   -3.4343 H   0  0  0  0  0  0  0  0  0  0  0  0
   34.0866   26.2683   -1.5009 H   0  0  0  0  0  0  0  0  0  0  0  0
   35.7598   25.7358   -1.8164 H   0  0  0  0  0  0  0  0  0  0  0  0
  1  2  1  6
  1  3  2  0
  1  4  1  0
  1  5  1  0
  2  6  1  0
  6  7  2  0
  6  8  1  1
  6 12  1  0
  9 10  2  0
  9 11  1  6
  9 12  1  0
  9 13  1  0
 13 14  1  0
 15 14  1  0
 15 16  1  0
 15 17  1  0
 16 21  1  0
 17 18  1  0
 17 19  1  0
 19 20  1  0
 19 21  1  0
 21 22  1  0
 22 23  1  0
 22 32  1  0
 23 24  2  0
 24 25  1  0
 25 26  1  0
 25 32  2  0
 26 27  2  0
 26 28  1  0
 28 29  1  0
 29 30  1  0
 29 31  2  0
 31 32  1  0
  4 33  1  0
  5 34  1  0
 14 35  1  0
 14 36  1  0
 15 37  1  1
 17 38  1  6
 18 39  1  0
 19 40  1  6
 20 41  1  0
 21 42  1  1
 23 43  1  0
 28 44  1  0
 30 45  1  0
 30 46  1  0
M  CHG  2   8  -1  11  -1
M  END
>  <filename_input>  (5) 
7SCW_GSP_docked.sdf

>  <pdb_id>  (5) 
7SCW_GSP

>  <pose_rank>  (5) 
4

>  <num_atoms_heavy>  (5) 
32

>  <num_torsions>  (5) 
8

>  <pose>  (5) 
[27.85936576683678, 23.560451681088196, -3.6062262426874274, 4.267468941843547, 4.337832733099768, 1.482738456558437, -0.052089657436155984, 3.149284679983042, -2.4043622360541623, -0.4752980660983247, -4.8493733559220376, -7.724680443865654, -0.0688438232929938, -2.255398942612744]

>  <energy>  (5) 
-1364.839979580579

>  <inter_energy>  (5) 
-1355.3480771761076

>  <intra_energy>  (5) 
10.094103581734712

>  <rmsd>  (5) 
5.19371

>  <sdf_rank>  (5) 
0

$$$$

     RDKit          3D

 46 48  0  0  0  0  0  0  0  0999 V2000
   24.2129   19.6032    1.4879 P   0  0  1  0  0  0  0  0  0  0  0  0
   24.3750   19.9375   -0.1079 O   0  0  0  0  0  0  0  0  0  0  0  0
   25.4829   20.7309    2.3225 S   0  0  0  0  0  0  0  0  0  0  0  0
   22.8698   19.9226    2.0226 O   0  0  0  0  0  0  0  0  0  0  0  0
   24.3987   18.1331    1.8288 O   0  0  0  0  0  0  0  0  0  0  0  0
   23.5723   21.0392   -0.8975 P   0  0  1  0  0  0  0  0  0  0  0  0
   22.3281   20.4732   -1.4304 O   0  0  0  0  0  0  0  0  0  0  0  0
   23.5103   22.2772   -0.1317 O   0  0  0  0  0  0  0  0  0  0  0  0
   25.5566   22.4740   -2.4210 P   0  0  1  0  0  0  0  0  0  0  0  0
   24.8315   23.7379   -2.6017 O   0  0  0  0  0  0  0  0  0  0  0  0
   26.5876   22.4776   -1.3908 O   0  0  0  0  0  0  0  0  0  0  0  0
   24.5316   21.2412   -2.1739 O   0  0  0  0  0  0  0  0  0  0  0  0
   26.0425   22.0820   -3.8829 O   0  0  0  0  0  0  0  0  0  0  0  0
   27.2024   22.6893   -4.4769 C   0  0  0  0  0  0  0  0  0  0  0  0
   27.8141   23.7532   -3.5851 C   0  0  1  0  0  0  0  0  0  0  0  0
   29.1755   23.4643   -3.3150 O   0  0  0  0  0  0  0  0  0  0  0  0
   27.8010   25.1276   -4.2323 C   0  0  1  0  0  0  0  0  0  0  0  0
   27.7634   26.0694   -3.2205 O   0  0  0  0  0  0  0  0  0  0  0  0
   29.1755   25.2656   -4.8550 C   0  0  1  0  0  0  0  0  0  0  0  0
   29.5885   26.6068   -4.9348 O   0  0  0  0  0  0  0  0  0  0  0  0
   30.0315   24.5057   -3.8090 C   0  0  2  0  0  0  0  0  0  0  0  0
   31.2225   23.8463   -4.3642 N   0  0  0  0  0  0  0  0  0  0  0  0
   31.2236   22.9251   -5.3915 C   0  0  0  0  0  0  0  0  0  0  0  0
   32.4910   22.5035   -5.6111 N   0  0  0  0  0  0  0  0  0  0  0  0
   33.3177   23.1901   -4.7753 C   0  0  0  0  0  0  0  0  0  0  0  0
   34.7151   23.1753   -4.5711 C   0  0  0  0  0  0  0  0  0  0  0  0
   35.5390   22.4289   -5.1743 O   0  0  0  0  0  0  0  0  0  0  0  0
   35.1932   24.0188   -3.5985 N   0  0  0  0  0  0  0  0  0  0  0  0
   34.3278   24.8221   -2.8513 C   0  0  0  0  0  0  0  0  0  0  0  0
   34.7923   25.6029   -1.9204 N   0  0  0  0  0  0  0  0  0  0  0  0
   32.9802   24.8320   -3.0125 N   0  0  0  0  0  0  0  0  0  0  0  0
   32.4977   24.0059   -3.9692 C   0  0  0  0  0  0  0  0  0  0  0  0
   22.8984   19.9158    3.0122 H   0  0  0  0  0  0  0  0  0  0  0  0
   24.4128   18.0217    2.8124 H   0  0  0  0  0  0  0  0  0  0  0  0
   27.9545   21.9085   -4.6633 H   0  0  0  0  0  0  0  0  0  0  0  0
   26.8872   23.1741   -5.4126 H   0  0  0  0  0  0  0  0  0  0  0  0
   27.2042   23.7538   -2.6697 H   0  0  0  0  0  0  0  0  0  0  0  0
   26.9643   25.2524   -4.9354 H   0  0  0  0  0  0  0  0  0  0  0  0
   27.7817   25.6118   -2.3428 H   0  0  0  0  0  0  0  0  0  0  0  0
   29.2369   24.8911   -5.8875 H   0  0  0  0  0  0  0  0  0  0  0  0
   29.7010   26.9723   -4.0216 H   0  0  0  0  0  0  0  0  0  0  0  0
   30.3890   25.2283   -3.0606 H   0  0  0  0  0  0  0  0  0  0  0  0
   30.3350   22.5868   -5.9446 H   0  0  0  0  0  0  0  0  0  0  0  0
   36.2062   24.0599   -3.4168 H   0  0  0  0  0  0  0  0  0  0  0  0
   34.1483   26.1922   -1.3737 H   0  0  0  0  0  0  0  0  0  0  0  0
   35.8042   25.6319   -1.7300 H   0  0  0  0  0  0  0  0  0  0  0  0
  1  2  1  6
  1  3  2  0
  1  4  1  0
  1  5  1  0
  2  6  1  0
  6  7  2  0
  6  8  1  1
  6 12  1  0
  9 10  2  0
  9 11  1  1
  9 12  1  0
  9 13  1  0
 13 14  1  0
 15 14  1  0
 15 16  1  0
 15 17  1  0
 16 21  1  0
 17 18  1  0
 17 19  1  0
 19 20  1  0
 19 21  1  0
 21 22  1  0
 22 23  1  0
 22 32  1  0
 23 24  2  0
 24 25  1  0
 25 26  1  0
 25 32  2  0
 26 27  2  0
 26 28  1  0
 28 29  1  0
 29 30  1  0
 29 31  2  0
 31 32  1  0
  4 33  1  0
  5 34  1  0
 14 35  1  0
 14 36  1  0
 15 37  1  1
 17 38  1  6
 18 39  1  0
 19 40  1  6
 20 41  1  0
 21 42  1  1
 23 43  1  0
 28 44  1  0
 30 45  1  0
 30 46  1  0
M  CHG  2   8  -1  11  -1
M  END
>  <filename_input>  (6) 
7SCW_GSP_docked.sdf

>  <pdb_id>  (6) 
7SCW_GSP

>  <pose_rank>  (6) 
5

>  <num_atoms_heavy>  (6) 
32

>  <num_torsions>  (6) 
8

>  <pose>  (6) 
[27.814067617167783, 23.753233813860014, -3.5851141777051225, 0.06361978631673419, -0.022540174555228543, -0.04687590729510201, -0.09809816358232372, 9.533697840757542, -3.739168515803428, -1.756614431036085, -0.011870098248614734, 6.353729970452437, 0.01833747682543462, 1.399593906223791]

>  <energy>  (6) 
-1342.2895665872547

>  <inter_energy>  (6) 
-1364.8009037000745

>  <intra_energy>  (6) 
28.47315045183587

>  <rmsd>  (6) 
4.66115

>  <sdf_rank>  (6) 
0

$$$$

     RDKit          3D

 46 48  0  0  0  0  0  0  0  0999 V2000
   23.0810   20.5827   -1.6698 P   0  0  1  0  0  0  0  0  0  0  0  0
   23.6588   21.0577   -3.1275 O   0  0  0  0  0  0  0  0  0  0  0  0
   21.7153   19.3455   -2.1004 S   0  0  0  0  0  0  0  0  0  0  0  0
   24.0919   19.9013   -0.8297 O   0  0  0  0  0  0  0  0  0  0  0  0
   22.5986   21.7307   -0.7973 O   0  0  0  0  0  0  0  0  0  0  0  0
   23.0094   20.7205   -4.5225 P   0  0  1  0  0  0  0  0  0  0  0  0
   23.5671   19.4706   -5.0507 O   0  0  0  0  0  0  0  0  0  0  0  0
   21.5617   20.8760   -4.4661 O   0  0  0  0  0  0  0  0  0  0  0  0
   24.7334   22.9918   -4.9542 P   0  0  1  0  0  0  0  0  0  0  0  0
   25.4279   23.5812   -6.1058 O   0  0  0  0  0  0  0  0  0  0  0  0
   24.1143   23.9391   -4.0358 O   0  0  0  0  0  0  0  0  0  0  0  0
   23.6431   21.8889   -5.4300 O   0  0  0  0  0  0  0  0  0  0  0  0
   25.7987   22.0023   -4.3116 O   0  0  0  0  0  0  0  0  0  0  0  0
   27.2113   22.1992   -4.4923 C   0  0  0  0  0  0  0  0  0  0  0  0
   27.7510   23.3196   -3.6234 C   0  0  1  0  0  0  0  0  0  0  0  0
   29.1264   23.1225   -3.3419 O   0  0  0  0  0  0  0  0  0  0  0  0
   27.6554   24.6752   -4.3025 C   0  0  1  0  0  0  0  0  0  0  0  0
   27.5541   25.6359   -3.3131 O   0  0  0  0  0  0  0  0  0  0  0  0
   29.0217   24.8844   -4.9235 C   0  0  1  0  0  0  0  0  0  0  0  0
   29.3506   26.2466   -5.0330 O   0  0  0  0  0  0  0  0  0  0  0  0
   29.9183   24.2038   -3.8570 C   0  0  2  0  0  0  0  0  0  0  0  0
   31.1507   23.6075   -4.3926 N   0  0  0  0  0  0  0  0  0  0  0  0
   31.2181   22.7036   -5.4330 C   0  0  0  0  0  0  0  0  0  0  0  0
   32.5081   22.3430   -5.6277 N   0  0  0  0  0  0  0  0  0  0  0  0
   33.2827   23.0528   -4.7619 C   0  0  0  0  0  0  0  0  0  0  0  0
   34.6741   23.0977   -4.5238 C   0  0  0  0  0  0  0  0  0  0  0  0
   35.5452   22.3987   -5.1175 O   0  0  0  0  0  0  0  0  0  0  0  0
   35.0902   23.9463   -3.5275 N   0  0  0  0  0  0  0  0  0  0  0  0
   34.1718   24.6980   -2.7900 C   0  0  0  0  0  0  0  0  0  0  0  0
   34.5781   25.4842   -1.8367 N   0  0  0  0  0  0  0  0  0  0  0  0
   32.8293   24.6499   -2.9839 N   0  0  0  0  0  0  0  0  0  0  0  0
   32.4076   23.8181   -3.9642 C   0  0  0  0  0  0  0  0  0  0  0  0
   23.8780   20.0455    0.1261 H   0  0  0  0  0  0  0  0  0  0  0  0
   22.7014   21.4860    0.1565 H   0  0  0  0  0  0  0  0  0  0  0  0
   27.7346   21.2670   -4.2333 H   0  0  0  0  0  0  0  0  0  0  0  0
   27.3813   22.4759   -5.5433 H   0  0  0  0  0  0  0  0  0  0  0  0
   27.1377   23.3031   -2.7104 H   0  0  0  0  0  0  0  0  0  0  0  0
   26.8160   24.7312   -5.0113 H   0  0  0  0  0  0  0  0  0  0  0  0
   27.6000   25.2010   -2.4249 H   0  0  0  0  0  0  0  0  0  0  0  0
   29.1114   24.4908   -5.9467 H   0  0  0  0  0  0  0  0  0  0  0  0
   29.4448   26.6371   -4.1282 H   0  0  0  0  0  0  0  0  0  0  0  0
   30.2262   24.9643   -3.1244 H   0  0  0  0  0  0  0  0  0  0  0  0
   30.3591   22.3344   -6.0126 H   0  0  0  0  0  0  0  0  0  0  0  0
   36.0957   24.0301   -3.3205 H   0  0  0  0  0  0  0  0  0  0  0  0
   33.8953   26.0352   -1.2973 H   0  0  0  0  0  0  0  0  0  0  0  0
   35.5828   25.5556   -1.6212 H   0  0  0  0  0  0  0  0  0  0  0  0
  1  2  1  6
  1  3  2  0
  1  4  1  0
  1  5  1  0
  2  6  1  0
  6  7  2  0
  6  8  1  1
  6 12  1  0
  9 10  2  0
  9 11  1  1
  9 12  1  0
  9 13  1  0
 13 14  1  0
 15 14  1  0
 15 16  1  0
 15 17  1  0
 16 21  1  0
 17 18  1  0
 17 19  1  0
 19 20  1  0
 19 21  1  0
 21 22  1  0
 22 23  1  0
 22 32  1  0
 23 24  2  0
 24 25  1  0
 25 26  1  0
 25 32  2  0
 26 27  2  0
 26 28  1  0
 28 29  1  0
 29 30  1  0
 29 31  2  0
 31 32  1  0
  4 33  1  0
  5 34  1  0
 14 35  1  0
 14 36  1  0
 15 37  1  1
 17 38  1  6
 18 39  1  0
 19 40  1  6
 20 41  1  0
 21 42  1  1
 23 43  1  0
 28 44  1  0
 30 45  1  0
 30 46  1  0
M  CHG  2   8  -1  11  -1
M  END
>  <filename_input>  (7) 
7SCW_GSP_docked.sdf

>  <pdb_id>  (7) 
7SCW_GSP

>  <pose_rank>  (7) 
6

>  <num_atoms_heavy>  (7) 
32

>  <num_torsions>  (7) 
8

>  <pose>  (7) 
[27.750970506829333, 23.31958023667591, -3.623431626665385, -5.0434938001198555, 3.0950598672436387, -1.9557011072434096, -0.05150592123640134, -2.504834388899967, -2.3559935134532775, -2.7144423166194627, -2.3455161994096714, -4.34533632701624, -0.0029139249548971197, -3.138203989631766]

>  <energy>  (7) 
-1271.9478303793474

>  <inter_energy>  (7) 
-1338.09502291645

>  <intra_energy>  (7) 
65.43114815900364

>  <rmsd>  (7) 
3.10846

>  <sdf_rank>  (7) 
0

$$$$

     RDKit          3D

 46 48  0  0  0  0  0  0  0  0999 V2000
   23.7551   24.3194  -11.9423 P   0  0  1  0  0  0  0  0  0  0  0  0
   24.2397   23.8745  -10.4417 O   0  0  0  0  0  0  0  0  0  0  0  0
   22.7153   22.8554  -12.5396 S   0  0  0  0  0  0  0  0  0  0  0  0
   22.9120   25.5364  -11.9517 O   0  0  0  0  0  0  0  0  0  0  0  0
   24.9010   24.6649  -12.8800 O   0  0  0  0  0  0  0  0  0  0  0  0
   25.4662   24.4796   -9.6600 P   0  0  1  0  0  0  0  0  0  0  0  0
   26.7206   23.9241  -10.1798 O   0  0  0  0  0  0  0  0  0  0  0  0
   25.3347   25.9256   -9.5380 O   0  0  0  0  0  0  0  0  0  0  0  0
   26.4165   23.5027   -7.1183 P   0  0  1  0  0  0  0  0  0  0  0  0
   25.8585   22.8638   -5.9199 O   0  0  0  0  0  0  0  0  0  0  0  0
   27.5338   22.8070   -7.7444 O   0  0  0  0  0  0  0  0  0  0  0  0
   25.2603   23.7950   -8.2180 O   0  0  0  0  0  0  0  0  0  0  0  0
   26.6986   25.0027   -6.6742 O   0  0  0  0  0  0  0  0  0  0  0  0
   27.9298   25.3774   -6.0334 C   0  0  0  0  0  0  0  0  0  0  0  0
   28.0095   24.8754   -4.6041 C   0  0  1  0  0  0  0  0  0  0  0  0
   28.9040   23.7802   -4.5026 O   0  0  0  0  0  0  0  0  0  0  0  0
   28.5360   25.9325   -3.6485 C   0  0  1  0  0  0  0  0  0  0  0  0
   28.0127   25.6668   -2.3964 O   0  0  0  0  0  0  0  0  0  0  0  0
   30.0172   25.6343   -3.5334 C   0  0  1  0  0  0  0  0  0  0  0  0
   30.5443   26.0398   -2.2950 O   0  0  0  0  0  0  0  0  0  0  0  0
   29.9963   24.0864   -3.6225 C   0  0  2  0  0  0  0  0  0  0  0  0
   31.2017   23.4977   -4.2240 N   0  0  0  0  0  0  0  0  0  0  0  0
   31.2172   22.4956   -5.1725 C   0  0  0  0  0  0  0  0  0  0  0  0
   32.5002   22.1790   -5.4657 N   0  0  0  0  0  0  0  0  0  0  0  0
   33.3148   23.0105   -4.7598 C   0  0  0  0  0  0  0  0  0  0  0  0
   34.7181   23.1463   -4.6751 C   0  0  0  0  0  0  0  0  0  0  0  0
   35.5646   22.4322   -5.2861 O   0  0  0  0  0  0  0  0  0  0  0  0
   35.1815   24.1121   -3.8159 N   0  0  0  0  0  0  0  0  0  0  0  0
   34.2991   24.8910   -3.0627 C   0  0  0  0  0  0  0  0  0  0  0  0
   34.7523   25.7899   -2.2389 N   0  0  0  0  0  0  0  0  0  0  0  0
   32.9491   24.7590   -3.1086 N   0  0  0  0  0  0  0  0  0  0  0  0
   32.4807   23.8113   -3.9531 C   0  0  0  0  0  0  0  0  0  0  0  0
   22.7207   25.8125  -11.0205 H   0  0  0  0  0  0  0  0  0  0  0  0
   25.7009   24.9061  -12.3487 H   0  0  0  0  0  0  0  0  0  0  0  0
   28.7692   24.9540   -6.6046 H   0  0  0  0  0  0  0  0  0  0  0  0
   27.9758   26.4761   -6.0079 H   0  0  0  0  0  0  0  0  0  0  0  0
   26.9809   24.5927   -4.3355 H   0  0  0  0  0  0  0  0  0  0  0  0
   28.2982   26.9539   -3.9803 H   0  0  0  0  0  0  0  0  0  0  0  0
   28.6414   25.9860   -1.7015 H   0  0  0  0  0  0  0  0  0  0  0  0
   30.6353   26.1491   -4.2836 H   0  0  0  0  0  0  0  0  0  0  0  0
   30.0162   25.6336   -1.5627 H   0  0  0  0  0  0  0  0  0  0  0  0
   29.9196   23.6800   -2.6032 H   0  0  0  0  0  0  0  0  0  0  0  0
   30.3276   22.0279   -5.6195 H   0  0  0  0  0  0  0  0  0  0  0  0
   36.1960   24.2648   -3.7251 H   0  0  0  0  0  0  0  0  0  0  0  0
   34.0958   26.3603   -1.6870 H   0  0  0  0  0  0  0  0  0  0  0  0
   35.7676   25.9312   -2.1384 H   0  0  0  0  0  0  0  0  0  0  0  0
  1  2  1  1
  1  3  2  0
  1  4  1  0
  1  5  1  0
  2  6  1  0
  6  7  2  0
  6  8  1  1
  6 12  1  0
  9 10  2  0
  9 11  1  6
  9 12  1  0
  9 13  1  0
 13 14  1  0
 15 14  1  0
 15 16  1  0
 15 17  1  0
 16 21  1  0
 17 18  1  0
 17 19  1  0
 19 20  1  0
 19 21  1  0
 21 22  1  0
 22 23  1  0
 22 32  1  0
 23 24  2  0
 24 25  1  0
 25 26  1  0
 25 32  2  0
 26 27  2  0
 26 28  1  0
 28 29  1  0
 29 30  1  0
 29 31  2  0
 31 32  1  0
  4 33  1  0
  5 34  1  0
 14 35  1  0
 14 36  1  0
 15 37  1  1
 17 38  1  6
 18 39  1  0
 19 40  1  6
 20 41  1  0
 21 42  1  1
 23 43  1  0
 28 44  1  0
 30 45  1  0
 30 46  1  0
M  CHG  2   8  -1  11  -1
M  END
>  <filename_input>  (8) 
7SCW_GSP_docked.sdf

>  <pdb_id>  (8) 
7SCW_GSP

>  <pose_rank>  (8) 
7

>  <num_atoms_heavy>  (8) 
32

>  <num_torsions>  (8) 
8

>  <pose>  (8) 
[28.00947228421772, 24.875372544886954, -4.604068792345312, 1.108776370164153, -0.5206967731172034, -0.4899523836813995, -1.4774164411563024, -3.337719134763354, 1.3312342985204018, -1.6453988320847122, -1.995757127535312, -1.7194990148278488, 0.22937970237880576, -0.5167356310611186]

>  <energy>  (8) 
-1291.1771613128985

>  <inter_energy>  (8) 
-1344.566747558901

>  <intra_energy>  (8) 
41.85257048214201

>  <rmsd>  (8) 
4.02595

>  <sdf_rank>  (8) 
0

$$$$

     RDKit          3D

 46 48  0  0  0  0  0  0  0  0999 V2000
   22.6372   18.9444   -6.5203 P   0  0  1  0  0  0  0  0  0  0  0  0
   23.2922   20.1813   -7.3721 O   0  0  0  0  0  0  0  0  0  0  0  0
   23.2409   17.3959   -7.4253 S   0  0  0  0  0  0  0  0  0  0  0  0
   23.1021   18.8857   -5.1159 O   0  0  0  0  0  0  0  0  0  0  0  0
   21.1233   19.0172   -6.3983 O   0  0  0  0  0  0  0  0  0  0  0  0
   24.6671   20.8820   -7.0561 P   0  0  1  0  0  0  0  0  0  0  0  0
   25.6051   19.9154   -6.4747 O   0  0  0  0  0  0  0  0  0  0  0  0
   25.1025   21.6918   -8.1865 O   0  0  0  0  0  0  0  0  0  0  0  0
   25.0214   23.1653   -5.3302 P   0  0  1  0  0  0  0  0  0  0  0  0
   26.0756   23.5509   -6.2766 O   0  0  0  0  0  0  0  0  0  0  0  0
   24.0666   24.2111   -4.9857 O   0  0  0  0  0  0  0  0  0  0  0  0
   24.2331   21.8421   -5.8394 O   0  0  0  0  0  0  0  0  0  0  0  0
   25.8028   22.5139   -4.1087 O   0  0  0  0  0  0  0  0  0  0  0  0
   27.2393   22.4648   -4.0764 C   0  0  0  0  0  0  0  0  0  0  0  0
   27.8413   23.6917   -3.4179 C   0  0  1  0  0  0  0  0  0  0  0  0
   29.2310   23.5164   -3.1985 O   0  0  0  0  0  0  0  0  0  0  0  0
   27.7101   24.9346   -4.2815 C   0  0  1  0  0  0  0  0  0  0  0  0
   27.6795   26.0313   -3.4398 O   0  0  0  0  0  0  0  0  0  0  0  0
   29.0342   25.0292   -5.0121 C   0  0  1  0  0  0  0  0  0  0  0  0
   29.3637   26.3554   -5.3416 O   0  0  0  0  0  0  0  0  0  0  0  0
   29.9942   24.4980   -3.9164 C   0  0  2  0  0  0  0  0  0  0  0  0
   31.1855   23.8105   -4.4357 N   0  0  0  0  0  0  0  0  0  0  0  0
   31.1954   22.8872   -5.4610 C   0  0  0  0  0  0  0  0  0  0  0  0
   32.4587   22.4364   -5.6430 N   0  0  0  0  0  0  0  0  0  0  0  0
   33.2762   23.1059   -4.7845 C   0  0  0  0  0  0  0  0  0  0  0  0
   34.6664   23.0598   -4.5397 C   0  0  0  0  0  0  0  0  0  0  0  0
   35.4903   22.2934   -5.1175 O   0  0  0  0  0  0  0  0  0  0  0  0
   35.1351   23.8943   -3.5550 N   0  0  0  0  0  0  0  0  0  0  0  0
   34.2669   24.7188   -2.8346 C   0  0  0  0  0  0  0  0  0  0  0  0
   34.7219   25.4910   -1.8918 N   0  0  0  0  0  0  0  0  0  0  0  0
   32.9252   24.7591   -3.0349 N   0  0  0  0  0  0  0  0  0  0  0  0
   32.4519   23.9420   -4.0040 C   0  0  0  0  0  0  0  0  0  0  0  0
   22.3273   18.9835   -4.5075 H   0  0  0  0  0  0  0  0  0  0  0  0
   20.8696   19.0294   -5.4414 H   0  0  0  0  0  0  0  0  0  0  0  0
   27.5504   21.5723   -3.5136 H   0  0  0  0  0  0  0  0  0  0  0  0
   27.5987   22.4293   -5.1154 H   0  0  0  0  0  0  0  0  0  0  0  0
   27.2889   23.8187   -2.4752 H   0  0  0  0  0  0  0  0  0  0  0  0
   26.8266   24.8994   -4.9360 H   0  0  0  0  0  0  0  0  0  0  0  0
   27.6880   25.7250   -2.4984 H   0  0  0  0  0  0  0  0  0  0  0  0
   29.0546   24.4887   -5.9700 H   0  0  0  0  0  0  0  0  0  0  0  0
   29.4938   26.8790   -4.5115 H   0  0  0  0  0  0  0  0  0  0  0  0
   30.3540   25.3527   -3.3247 H   0  0  0  0  0  0  0  0  0  0  0  0
   30.3158   22.5679   -6.0392 H   0  0  0  0  0  0  0  0  0  0  0  0
   36.1431   23.9128   -3.3439 H   0  0  0  0  0  0  0  0  0  0  0  0
   34.0759   26.0960   -1.3650 H   0  0  0  0  0  0  0  0  0  0  0  0
   35.7282   25.4974   -1.6721 H   0  0  0  0  0  0  0  0  0  0  0  0
  1  2  1  6
  1  3  2  0
  1  4  1  0
  1  5  1  0
  2  6  1  0
  6  7  2  0
  6  8  1  6
  6 12  1  0
  9 10  2  0
  9 11  1  1
  9 12  1  0
  9 13  1  0
 13 14  1  0
 15 14  1  0
 15 16  1  0
 15 17  1  0
 16 21  1  0
 17 18  1  0
 17 19  1  0
 19 20  1  0
 19 21  1  0
 21 22  1  0
 22 23  1  0
 22 32  1  0
 23 24  2  0
 24 25  1  0
 25 26  1  0
 25 32  2  0
 26 27  2  0
 26 28  1  0
 28 29  1  0
 29 30  1  0
 29 31  2  0
 31 32  1  0
  4 33  1  0
  5 34  1  0
 14 35  1  0
 14 36  1  0
 15 37  1  1
 17 38  1  6
 18 39  1  0
 19 40  1  6
 20 41  1  0
 21 42  1  1
 23 43  1  0
 28 44  1  0
 30 45  1  0
 30 46  1  0
M  CHG  2   8  -1  11  -1
M  END
>  <filename_input>  (9) 
7SCW_GSP_docked.sdf

>  <pdb_id>  (9) 
7SCW_GSP

>  <pose_rank>  (9) 
8

>  <num_atoms_heavy>  (9) 
32

>  <num_torsions>  (9) 
8

>  <pose>  (9) 
[27.841347489839197, 23.691684558012362, -3.4179234077318585, -0.1057840621180613, 0.040345439837833987, 0.0054879021405295665, 6.390731114428531, -2.2146458190404066, -2.1167624715223625, -3.097931864508309, 1.3304578878957403, -0.9174231803192149, 2.137294724823408, 1.3550849605245738]

>  <energy>  (9) 
-1423.5912005282712

>  <inter_energy>  (9) 
-1468.0857406702353

>  <intra_energy>  (9) 
41.475295004448206

>  <rmsd>  (9) 
1.66713

>  <sdf_rank>  (9) 
0

$$$$

     RDKit          3D

 46 48  0  0  0  0  0  0  0  0999 V2000
   27.1949   25.5656   -9.2007 P   0  0  1  0  0  0  0  0  0  0  0  0
   26.6066   24.0491   -9.0044 O   0  0  0  0  0  0  0  0  0  0  0  0
   27.3547   26.2260   -7.4345 S   0  0  0  0  0  0  0  0  0  0  0  0
   28.5280   25.6010   -9.8437 O   0  0  0  0  0  0  0  0  0  0  0  0
   26.3370   26.4456  -10.0960 O   0  0  0  0  0  0  0  0  0  0  0  0
   25.1152   23.6856   -8.6508 P   0  0  1  0  0  0  0  0  0  0  0  0
   24.6768   24.4409   -7.4721 O   0  0  0  0  0  0  0  0  0  0  0  0
   24.2842   23.7052   -9.8476 O   0  0  0  0  0  0  0  0  0  0  0  0
   24.9365   21.5984   -6.6686 P   0  0  1  0  0  0  0  0  0  0  0  0
   23.5382   21.8783   -6.3189 O   0  0  0  0  0  0  0  0  0  0  0  0
   25.3492   20.2048   -6.5600 O   0  0  0  0  0  0  0  0  0  0  0  0
   25.2963   22.1688   -8.1440 O   0  0  0  0  0  0  0  0  0  0  0  0
   25.7772   22.6368   -5.8072 O   0  0  0  0  0  0  0  0  0  0  0  0
   27.1476   22.3838   -5.4538 C   0  0  0  0  0  0  0  0  0  0  0  0
   27.6228   23.2748   -4.3217 C   0  0  1  0  0  0  0  0  0  0  0  0
   28.9399   22.9301   -3.9265 O   0  0  0  0  0  0  0  0  0  0  0  0
   27.6785   24.7390   -4.7227 C   0  0  1  0  0  0  0  0  0  0  0  0
   27.4959   25.4961   -3.5801 O   0  0  0  0  0  0  0  0  0  0  0  0
   29.1215   24.9663   -5.1255 C   0  0  1  0  0  0  0  0  0  0  0  0
   29.5249   26.2973   -4.9215 O   0  0  0  0  0  0  0  0  0  0  0  0
   29.8409   24.0313   -4.1192 C   0  0  2  0  0  0  0  0  0  0  0  0
   31.1029   23.4632   -4.6154 N   0  0  0  0  0  0  0  0  0  0  0  0
   31.2205   22.5328   -5.6276 C   0  0  0  0  0  0  0  0  0  0  0  0
   32.5255   22.2119   -5.7890 N   0  0  0  0  0  0  0  0  0  0  0  0
   33.2591   22.9727   -4.9308 C   0  0  0  0  0  0  0  0  0  0  0  0
   34.6435   23.0728   -4.6697 C   0  0  0  0  0  0  0  0  0  0  0  0
   35.5489   22.3878   -5.2274 O   0  0  0  0  0  0  0  0  0  0  0  0
   35.0116   23.9635   -3.6915 N   0  0  0  0  0  0  0  0  0  0  0  0
   34.0544   24.7035   -2.9925 C   0  0  0  0  0  0  0  0  0  0  0  0
   34.4159   25.5303   -2.0556 N   0  0  0  0  0  0  0  0  0  0  0  0
   32.7183   24.6032   -3.2085 N   0  0  0  0  0  0  0  0  0  0  0  0
   32.3436   23.7296   -4.1713 C   0  0  0  0  0  0  0  0  0  0  0  0
   29.2304   25.6197   -9.1463 H   0  0  0  0  0  0  0  0  0  0  0  0
   25.7672   27.0301   -9.5359 H   0  0  0  0  0  0  0  0  0  0  0  0
   27.2446   21.3333   -5.1421 H   0  0  0  0  0  0  0  0  0  0  0  0
   27.7685   22.5994   -6.3358 H   0  0  0  0  0  0  0  0  0  0  0  0
   26.8972   23.1266   -3.5083 H   0  0  0  0  0  0  0  0  0  0  0  0
   26.9407   24.9899   -5.4991 H   0  0  0  0  0  0  0  0  0  0  0  0
   27.6331   24.9271   -2.7817 H   0  0  0  0  0  0  0  0  0  0  0  0
   29.3236   24.7716   -6.1891 H   0  0  0  0  0  0  0  0  0  0  0  0
   29.5803   26.4801   -3.9501 H   0  0  0  0  0  0  0  0  0  0  0  0
   30.0873   24.6128   -3.2186 H   0  0  0  0  0  0  0  0  0  0  0  0
   30.3856   22.1175   -6.2111 H   0  0  0  0  0  0  0  0  0  0  0  0
   36.0097   24.0882   -3.4694 H   0  0  0  0  0  0  0  0  0  0  0  0
   33.7046   26.0724   -1.5446 H   0  0  0  0  0  0  0  0  0  0  0  0
   35.4133   25.6429   -1.8246 H   0  0  0  0  0  0  0  0  0  0  0  0
  1  2  1  1
  1  3  2  0
  1  4  1  0
  1  5  1  0
  2  6  1  0
  6  7  2  0
  6  8  1  6
  6 12  1  0
  9 10  2  0
  9 11  1  6
  9 12  1  0
  9 13  1  0
 13 14  1  0
 15 14  1  0
 15 16  1  0
 15 17  1  0
 16 21  1  0
 17 18  1  0
 17 19  1  0
 19 20  1  0
 19 21  1  0
 21 22  1  0
 22 23  1  0
 22 32  1  0
 23 24  2  0
 24 25  1  0
 25 26  1  0
 25 32  2  0
 26 27  2  0
 26 28  1  0
 28 29  1  0
 29 30  1  0
 29 31  2  0
 31 32  1  0
  4 33  1  0
  5 34  1  0
 14 35  1  0
 14 36  1  0
 15 37  1  1
 17 38  1  6
 18 39  1  0
 19 40  1  6
 20 41  1  0
 21 42  1  1
 23 43  1  0
 28 44  1  0
 30 45  1  0
 30 46  1  0
M  CHG  2   8  -1  11  -1
M  END
>  <filename_input>  (10) 
7SCW_GSP_docked.sdf

>  <pdb_id>  (10) 
7SCW_GSP

>  <pose_rank>  (10) 
9

>  <num_atoms_heavy>  (10) 
32

>  <num_torsions>  (10) 
8

>  <pose>  (10) 
[27.622752514161782, 23.274822295892566, -4.321673150925524, 0.23742662644792625, -0.15192391444846895, -0.04345903313269133, -0.31887515875689293, -2.12383936092554, -6.5367468499711965, -0.43246355257728347, 2.1123776195836372, 3.9505100628447067, 0.673915412509947, -1.9761604825478176]

>  <energy>  (10) 
-1291.54164312805

>  <inter_energy>  (10) 
-1354.6175450710236

>  <intra_energy>  (10) 
65.22780093151093

>  <rmsd>  (10) 
4.02669

>  <sdf_rank>  (10) 
0

$$$$

     RDKit          3D

 46 48  0  0  0  0  0  0  0  0999 V2000
   23.4644   25.2816    0.1517 P   0  0  1  0  0  0  0  0  0  0  0  0
   24.4432   24.8113   -1.0752 O   0  0  0  0  0  0  0  0  0  0  0  0
   23.9792   24.1742    1.5973 S   0  0  0  0  0  0  0  0  0  0  0  0
   23.6531   26.6961    0.5459 O   0  0  0  0  0  0  0  0  0  0  0  0
   21.9825   25.1913   -0.1765 O   0  0  0  0  0  0  0  0  0  0  0  0
   24.6905   23.3231   -1.5286 P   0  0  1  0  0  0  0  0  0  0  0  0
   26.0659   22.9210   -1.2144 O   0  0  0  0  0  0  0  0  0  0  0  0
   23.5922   22.4666   -1.1004 O   0  0  0  0  0  0  0  0  0  0  0  0
   24.7293   22.3020   -4.2255 P   0  0  1  0  0  0  0  0  0  0  0  0
   23.8882   21.1642   -3.8333 O   0  0  0  0  0  0  0  0  0  0  0  0
   24.4883   22.8370   -5.5597 O   0  0  0  0  0  0  0  0  0  0  0  0
   24.6497   23.4943   -3.1284 O   0  0  0  0  0  0  0  0  0  0  0  0
   26.2148   21.8173   -3.9337 O   0  0  0  0  0  0  0  0  0  0  0  0
   27.3422   22.4058   -4.6043 C   0  0  0  0  0  0  0  0  0  0  0  0
   27.8907   23.6079   -3.8588 C   0  0  1  0  0  0  0  0  0  0  0  0
   29.2514   23.4102   -3.5135 O   0  0  0  0  0  0  0  0  0  0  0  0
   27.8540   24.8742   -4.6972 C   0  0  1  0  0  0  0  0  0  0  0  0
   27.7541   25.9490   -3.8329 O   0  0  0  0  0  0  0  0  0  0  0  0
   29.2425   24.9717   -5.2962 C   0  0  1  0  0  0  0  0  0  0  0  0
   29.6145   26.3019   -5.5570 O   0  0  0  0  0  0  0  0  0  0  0  0
   30.0888   24.4007   -4.1291 C   0  0  2  0  0  0  0  0  0  0  0  0
   31.3174   23.7125   -4.5514 N   0  0  0  0  0  0  0  0  0  0  0  0
   31.4084   22.7874   -5.5712 C   0  0  0  0  0  0  0  0  0  0  0  0
   32.6821   22.3366   -5.6520 N   0  0  0  0  0  0  0  0  0  0  0  0
   33.4292   23.0078   -4.7329 C   0  0  0  0  0  0  0  0  0  0  0  0
   34.7958   22.9624   -4.3790 C   0  0  0  0  0  0  0  0  0  0  0  0
   35.6627   22.1952   -4.8886 O   0  0  0  0  0  0  0  0  0  0  0  0
   35.1852   23.7988   -3.3619 N   0  0  0  0  0  0  0  0  0  0  0  0
   34.2628   24.6243   -2.7138 C   0  0  0  0  0  0  0  0  0  0  0  0
   34.6419   25.3983   -1.7394 N   0  0  0  0  0  0  0  0  0  0  0  0
   32.9410   24.6640   -3.0194 N   0  0  0  0  0  0  0  0  0  0  0  0
   32.5458   23.8451   -4.0214 C   0  0  0  0  0  0  0  0  0  0  0  0
   23.6623   26.7650    1.5335 H   0  0  0  0  0  0  0  0  0  0  0  0
   21.4598   25.1594    0.6636 H   0  0  0  0  0  0  0  0  0  0  0  0
   28.1368   21.6501   -4.6906 H   0  0  0  0  0  0  0  0  0  0  0  0
   27.0049   22.7480   -5.5938 H   0  0  0  0  0  0  0  0  0  0  0  0
   27.2523   23.7171   -2.9697 H   0  0  0  0  0  0  0  0  0  0  0  0
   27.0365   24.8667   -5.4332 H   0  0  0  0  0  0  0  0  0  0  0  0
   27.7843   25.6246   -2.8980 H   0  0  0  0  0  0  0  0  0  0  0  0
   29.3487   24.4560   -6.2620 H   0  0  0  0  0  0  0  0  0  0  0  0
   29.7485   26.7810   -4.7011 H   0  0  0  0  0  0  0  0  0  0  0  0
   30.3989   25.2354   -3.4831 H   0  0  0  0  0  0  0  0  0  0  0  0
   30.5771   22.4669   -6.2164 H   0  0  0  0  0  0  0  0  0  0  0  0
   36.1734   23.8179   -3.0720 H   0  0  0  0  0  0  0  0  0  0  0  0
   33.9562   26.0041   -1.2664 H   0  0  0  0  0  0  0  0  0  0  0  0
   35.6277   25.4053   -1.4409 H   0  0  0  0  0  0  0  0  0  0  0  0
  1  2  1  6
  1  3  2  0
  1  4  1  0
  1  5  1  0
  2  6  1  0
  6  7  2  0
  6  8  1  1
  6 12  1  0
  9 10  2  0
  9 11  1  6
  9 12  1  0
  9 13  1  0
 13 14  1  0
 15 14  1  0
 15 16  1  0
 15 17  1  0
 16 21  1  0
 17 18  1  0
 17 19  1  0
 19 20  1  0
 19 21  1  0
 21 22  1  0
 22 23  1  0
 22 32  1  0
 23 24  2  0
 24 25  1  0
 25 26  1  0
 25 32  2  0
 26 27  2  0
 26 28  1  0
 28 29  1  0
 29 30  1  0
 29 31  2  0
 31 32  1  0
  4 33  1  0
  5 34  1  0
 14 35  1  0
 14 36  1  0
 15 37  1  1
 17 38  1  6
 18 39  1  0
 19 40  1  6
 20 41  1  0
 21 42  1  1
 23 43  1  0
 28 44  1  0
 30 45  1  0
 30 46  1  0
M  CHG  2   8  -1  11  -1
M  END
>  <filename_input>  (11) 
7SCW_GSP_docked.sdf

>  <pdb_id>  (11) 
7SCW_GSP

>  <pose_rank>  (11) 
10

>  <num_atoms_heavy>  (11) 
32

>  <num_torsions>  (11) 
8

>  <pose>  (11) 
[27.890698943847987, 23.60787142927972, -3.858831159571026, 5.081717369645286, 3.47159075443908, 0.632156193564365, 0.07322670357443133, 3.2122117590844743, -2.1303743709349288, -0.4075739196352698, -4.3845198761211925, -7.471141527619086, -0.36595953117643454, -2.4456733653512583]

>  <energy>  (11) 
-1245.9125243098665

>  <inter_energy>  (11) 
-1289.1541914097174

>  <intra_energy>  (11) 
22.85645734013723

>  <rmsd>  (11) 
4.90974

>  <sdf_rank>  (11) 
0

$$$$

     RDKit          3D

 46 48  0  0  0  0  0  0  0  0999 V2000
   24.8645   24.5479  -11.6449 P   0  0  1  0  0  0  0  0  0  0  0  0
   25.6723   24.2616  -10.2485 O   0  0  0  0  0  0  0  0  0  0  0  0
   25.1146   26.3993  -11.9464 S   0  0  0  0  0  0  0  0  0  0  0  0
   25.4066   23.8004  -12.8022 O   0  0  0  0  0  0  0  0  0  0  0  0
   23.4008   24.1383  -11.6021 O   0  0  0  0  0  0  0  0  0  0  0  0
   25.0591   24.3596   -8.8008 P   0  0  1  0  0  0  0  0  0  0  0  0
   24.5054   25.6994   -8.5761 O   0  0  0  0  0  0  0  0  0  0  0  0
   24.2270   23.1979   -8.5159 O   0  0  0  0  0  0  0  0  0  0  0  0
   27.8122   23.6297   -8.3473 P   0  0  1  0  0  0  0  0  0  0  0  0
   27.6036   22.4720   -9.2260 O   0  0  0  0  0  0  0  0  0  0  0  0
   28.7097   24.6583   -8.8579 O   0  0  0  0  0  0  0  0  0  0  0  0
   26.3987   24.2956   -7.9110 O   0  0  0  0  0  0  0  0  0  0  0  0
   28.2131   22.9973   -6.9451 O   0  0  0  0  0  0  0  0  0  0  0  0
   27.3002   22.9933   -5.8345 C   0  0  0  0  0  0  0  0  0  0  0  0
   27.7979   23.8405   -4.6786 C   0  0  1  0  0  0  0  0  0  0  0  0
   29.0441   23.3616   -4.2015 O   0  0  0  0  0  0  0  0  0  0  0  0
   28.0344   25.2862   -5.0812 C   0  0  1  0  0  0  0  0  0  0  0  0
   27.8644   26.0703   -3.9550 O   0  0  0  0  0  0  0  0  0  0  0  0
   29.5153   25.3541   -5.3948 C   0  0  1  0  0  0  0  0  0  0  0  0
   30.0456   26.6366   -5.1715 O   0  0  0  0  0  0  0  0  0  0  0  0
   30.0678   24.3584   -4.3423 C   0  0  2  0  0  0  0  0  0  0  0  0
   31.2896   23.6539   -4.7573 N   0  0  0  0  0  0  0  0  0  0  0  0
   31.3623   22.6807   -5.7328 C   0  0  0  0  0  0  0  0  0  0  0  0
   32.6357   22.2301   -5.8192 N   0  0  0  0  0  0  0  0  0  0  0  0
   33.3998   22.9470   -4.9499 C   0  0  0  0  0  0  0  0  0  0  0  0
   34.7737   22.9226   -4.6238 C   0  0  0  0  0  0  0  0  0  0  0  0
   35.6325   22.1340   -5.1142 O   0  0  0  0  0  0  0  0  0  0  0  0
   35.1816   23.8084   -3.6569 N   0  0  0  0  0  0  0  0  0  0  0  0
   34.2702   24.6618   -3.0297 C   0  0  0  0  0  0  0  0  0  0  0  0
   34.6670   25.4831   -2.1023 N   0  0  0  0  0  0  0  0  0  0  0  0
   32.9420   24.6829   -3.3084 N   0  0  0  0  0  0  0  0  0  0  0  0
   32.5286   23.8153   -4.2609 C   0  0  0  0  0  0  0  0  0  0  0  0
   25.9557   23.0432  -12.4781 H   0  0  0  0  0  0  0  0  0  0  0  0
   23.1085   24.0565  -10.6598 H   0  0  0  0  0  0  0  0  0  0  0  0
   26.3308   23.3891   -6.1717 H   0  0  0  0  0  0  0  0  0  0  0  0
   27.2081   21.9569   -5.4776 H   0  0  0  0  0  0  0  0  0  0  0  0
   27.0124   23.7789   -3.9111 H   0  0  0  0  0  0  0  0  0  0  0  0
   27.3765   25.6060   -5.9027 H   0  0  0  0  0  0  0  0  0  0  0  0
   27.9849   25.5146   -3.1446 H   0  0  0  0  0  0  0  0  0  0  0  0
   29.7600   25.1279   -6.4431 H   0  0  0  0  0  0  0  0  0  0  0  0
   30.1134   26.8007   -4.1975 H   0  0  0  0  0  0  0  0  0  0  0  0
   30.3195   24.9198   -3.4305 H   0  0  0  0  0  0  0  0  0  0  0  0
   30.5187   22.3271   -6.3438 H   0  0  0  0  0  0  0  0  0  0  0  0
   36.1757   23.8442   -3.3896 H   0  0  0  0  0  0  0  0  0  0  0  0
   33.9894   26.1092   -1.6444 H   0  0  0  0  0  0  0  0  0  0  0  0
   35.6589   25.5072   -1.8258 H   0  0  0  0  0  0  0  0  0  0  0  0
  1  2  1  1
  1  3  2  0
  1  4  1  0
  1  5  1  0
  2  6  1  0
  6  7  2  0
  6  8  1  1
  6 12  1  0
  9 10  2  0
  9 11  1  6
  9 12  1  0
  9 13  1  0
 13 14  1  0
 15 14  1  0
 15 16  1  0
 15 17  1  0
 16 21  1  0
 17 18  1  0
 17 19  1  0
 19 20  1  0
 19 21  1  0
 21 22  1  0
 22 23  1  0
 22 32  1  0
 23 24  2  0
 24 25  1  0
 25 26  1  0
 25 32  2  0
 26 27  2  0
 26 28  1  0
 28 29  1  0
 29 30  1  0
 29 31  2  0
 31 32  1  0
  4 33  1  0
  5 34  1  0
 14 35  1  0
 14 36  1  0
 15 37  1  1
 17 38  1  6
 18 39  1  0
 19 40  1  6
 20 41  1  0
 21 42  1  1
 23 43  1  0
 28 44  1  0
 30 45  1  0
 30 46  1  0
M  CHG  2   8  -1  11  -1
M  END
>  <filename_input>  (12) 
7SCW_GSP_docked.sdf

>  <pdb_id>  (12) 
7SCW_GSP

>  <pose_rank>  (12) 
11

>  <num_atoms_heavy>  (12) 
32

>  <num_torsions>  (12) 
8

>  <pose>  (12) 
[27.797946115244322, 23.840493490888345, -4.678647004637504, 0.22339744929240812, -0.22601477111153556, -0.14199384615226604, 12.216216876761363, -37.64857940409353, -11.978961641646196, 7.552565262295094, 13.138978779034737, -11.129022027058648, 0.580847232357204, -8.0215322135143]

>  <energy>  (12) 
-1252.0657750522407

>  <inter_energy>  (12) 
-1271.7854821696656

>  <intra_energy>  (12) 
25.87480612644282

>  <rmsd>  (12) 
3.98786

>  <sdf_rank>  (12) 
0

$$$$

     RDKit          3D

 46 48  0  0  0  0  0  0  0  0999 V2000
   23.3544   17.9667   -7.2681 P   0  0  1  0  0  0  0  0  0  0  0  0
   24.2526   18.9815   -6.3474 O   0  0  0  0  0  0  0  0  0  0  0  0
   22.3737   16.9524   -6.0069 S   0  0  0  0  0  0  0  0  0  0  0  0
   22.4016   18.6677   -8.1584 O   0  0  0  0  0  0  0  0  0  0  0  0
   24.1765   17.1110   -8.2188 O   0  0  0  0  0  0  0  0  0  0  0  0
   24.4582   20.5200   -6.6163 P   0  0  1  0  0  0  0  0  0  0  0  0
   23.8835   20.8871   -7.9153 O   0  0  0  0  0  0  0  0  0  0  0  0
   24.0942   21.3000   -5.4407 O   0  0  0  0  0  0  0  0  0  0  0  0
   26.9872   21.8956   -6.7870 P   0  0  1  0  0  0  0  0  0  0  0  0
   28.1468   21.7523   -7.6762 O   0  0  0  0  0  0  0  0  0  0  0  0
   26.1712   23.0847   -6.9977 O   0  0  0  0  0  0  0  0  0  0  0  0
   26.0533   20.5697   -6.8248 O   0  0  0  0  0  0  0  0  0  0  0  0
   27.5835   21.7175   -5.3243 O   0  0  0  0  0  0  0  0  0  0  0  0
   28.8757   22.2399   -4.9714 C   0  0  0  0  0  0  0  0  0  0  0  0
   28.7913   23.2962   -3.8858 C   0  0  1  0  0  0  0  0  0  0  0  0
   30.0343   23.4344   -3.2180 O   0  0  0  0  0  0  0  0  0  0  0  0
   28.4623   24.6713   -4.4413 C   0  0  1  0  0  0  0  0  0  0  0  0
   27.8105   25.3814   -3.4499 O   0  0  0  0  0  0  0  0  0  0  0  0
   29.8090   25.3483   -4.5973 C   0  0  1  0  0  0  0  0  0  0  0  0
   29.7153   26.7462   -4.4830 O   0  0  0  0  0  0  0  0  0  0  0  0
   30.5576   24.7625   -3.3723 C   0  0  2  0  0  0  0  0  0  0  0  0
   32.0096   24.6258   -3.5578 N   0  0  0  0  0  0  0  0  0  0  0  0
   32.9768   25.1119   -2.7021 C   0  0  0  0  0  0  0  0  0  0  0  0
   34.2009   24.8353   -3.2094 N   0  0  0  0  0  0  0  0  0  0  0  0
   34.0337   24.1203   -4.3558 C   0  0  0  0  0  0  0  0  0  0  0  0
   34.9370   23.5617   -5.2869 C   0  0  0  0  0  0  0  0  0  0  0  0
   36.1976   23.6503   -5.2333 O   0  0  0  0  0  0  0  0  0  0  0  0
   34.3760   22.9100   -6.3576 N   0  0  0  0  0  0  0  0  0  0  0  0
   32.9891   22.8329   -6.5091 C   0  0  0  0  0  0  0  0  0  0  0  0
   32.4712   22.2284   -7.5379 N   0  0  0  0  0  0  0  0  0  0  0  0
   32.1038   23.3854   -5.6414 N   0  0  0  0  0  0  0  0  0  0  0  0
   32.6450   24.0290   -4.5814 C   0  0  0  0  0  0  0  0  0  0  0  0
   21.7371   19.1565   -7.6111 H   0  0  0  0  0  0  0  0  0  0  0  0
   24.7592   16.5044   -7.6967 H   0  0  0  0  0  0  0  0  0  0  0  0
   29.5058   21.4128   -4.6123 H   0  0  0  0  0  0  0  0  0  0  0  0
   29.3050   22.7113   -5.8677 H   0  0  0  0  0  0  0  0  0  0  0  0
   27.9954   22.9555   -3.2072 H   0  0  0  0  0  0  0  0  0  0  0  0
   27.8655   24.6194   -5.3639 H   0  0  0  0  0  0  0  0  0  0  0  0
   28.1075   25.0579   -2.5627 H   0  0  0  0  0  0  0  0  0  0  0  0
   30.2832   25.1779   -5.5751 H   0  0  0  0  0  0  0  0  0  0  0  0
   29.6984   26.9986   -3.5259 H   0  0  0  0  0  0  0  0  0  0  0  0
   30.4093   25.4389   -2.5176 H   0  0  0  0  0  0  0  0  0  0  0  0
   32.7836   25.6407   -1.7571 H   0  0  0  0  0  0  0  0  0  0  0  0
   34.9876   22.4707   -7.0604 H   0  0  0  0  0  0  0  0  0  0  0  0
   31.4479   22.1756   -7.6429 H   0  0  0  0  0  0  0  0  0  0  0  0
   33.0843   21.8024   -8.2475 H   0  0  0  0  0  0  0  0  0  0  0  0
  1  2  1  1
  1  3  2  0
  1  4  1  0
  1  5  1  0
  2  6  1  0
  6  7  2  0
  6  8  1  1
  6 12  1  0
  9 10  2  0
  9 11  1  1
  9 12  1  0
  9 13  1  0
 13 14  1  0
 15 14  1  0
 15 16  1  0
 15 17  1  0
 16 21  1  0
 17 18  1  0
 17 19  1  0
 19 20  1  0
 19 21  1  0
 21 22  1  0
 22 23  1  0
 22 32  1  0
 23 24  2  0
 24 25  1  0
 25 26  1  0
 25 32  2  0
 26 27  2  0
 26 28  1  0
 28 29  1  0
 29 30  1  0
 29 31  2  0
 31 32  1  0
  4 33  1  0
  5 34  1  0
 14 35  1  0
 14 36  1  0
 15 37  1  1
 17 38  1  6
 18 39  1  0
 19 40  1  6
 20 41  1  0
 21 42  1  1
 23 43  1  0
 28 44  1  0
 30 45  1  0
 30 46  1  0
M  CHG  2   8  -1  11  -1
M  END
>  <filename_input>  (13) 
7SCW_GSP_docked.sdf

>  <pdb_id>  (13) 
7SCW_GSP

>  <pose_rank>  (13) 
12

>  <num_atoms_heavy>  (13) 
32

>  <num_torsions>  (13) 
8

>  <pose>  (13) 
[28.791305133039803, 23.296180370873014, -3.8857577603006472, -2.1262292026577723, 3.7692626719531943, -3.862838129032468, 3.112416711413953, -2.4203341950458097, -1.6397978978310044, -2.496922197269094, -1.4573923729552383, -0.9962086987155055, 1.4407600458361978, 0.6111748361264846]

>  <energy>  (13) 
-859.6938522078032

>  <inter_energy>  (13) 
-888.5450615561821

>  <intra_energy>  (13) 
29.805621745663483

>  <rmsd>  (13) 
2.34056

>  <sdf_rank>  (13) 
0

$$$$

     RDKit          3D

 46 48  0  0  0  0  0  0  0  0999 V2000
   24.7347   23.2589    1.8266 P   0  0  1  0  0  0  0  0  0  0  0  0
   25.1028   23.0621    0.2422 O   0  0  0  0  0  0  0  0  0  0  0  0
   23.6987   21.7324    2.2482 S   0  0  0  0  0  0  0  0  0  0  0  0
   25.9238   23.2846    2.7082 O   0  0  0  0  0  0  0  0  0  0  0  0
   24.0271   24.5691    2.1340 O   0  0  0  0  0  0  0  0  0  0  0  0
   24.0586   22.9424   -0.9311 P   0  0  1  0  0  0  0  0  0  0  0  0
   23.6353   21.5468   -1.0905 O   0  0  0  0  0  0  0  0  0  0  0  0
   23.0395   23.9779   -0.8193 O   0  0  0  0  0  0  0  0  0  0  0  0
   24.7459   22.7785   -3.7272 P   0  0  1  0  0  0  0  0  0  0  0  0
   23.6081   21.8545   -3.8121 O   0  0  0  0  0  0  0  0  0  0  0  0
   24.6826   23.9425   -4.6020 O   0  0  0  0  0  0  0  0  0  0  0  0
   25.0043   23.2498   -2.1966 O   0  0  0  0  0  0  0  0  0  0  0  0
   26.0250   21.8511   -3.9031 O   0  0  0  0  0  0  0  0  0  0  0  0
   27.2453   22.3549   -4.4724 C   0  0  0  0  0  0  0  0  0  0  0  0
   27.8128   23.5166   -3.6788 C   0  0  1  0  0  0  0  0  0  0  0  0
   29.1860   23.3102   -3.3932 O   0  0  0  0  0  0  0  0  0  0  0  0
   27.7391   24.8285   -4.4413 C   0  0  1  0  0  0  0  0  0  0  0  0
   27.6635   25.8513   -3.5137 O   0  0  0  0  0  0  0  0  0  0  0  0
   29.1049   24.9709   -5.0819 C   0  0  1  0  0  0  0  0  0  0  0  0
   29.4597   26.3168   -5.2788 O   0  0  0  0  0  0  0  0  0  0  0  0
   29.9953   24.3409   -3.9798 C   0  0  2  0  0  0  0  0  0  0  0  0
   31.2122   23.6876   -4.4837 N   0  0  0  0  0  0  0  0  0  0  0  0
   31.2505   22.6830   -5.4288 C   0  0  0  0  0  0  0  0  0  0  0  0
   32.5342   22.2983   -5.6190 N   0  0  0  0  0  0  0  0  0  0  0  0
   33.3326   23.0882   -4.8495 C   0  0  0  0  0  0  0  0  0  0  0  0
   34.7298   23.1502   -4.6528 C   0  0  0  0  0  0  0  0  0  0  0  0
   35.5836   22.3906   -5.1950 O   0  0  0  0  0  0  0  0  0  0  0  0
   35.1735   24.0931   -3.7584 N   0  0  0  0  0  0  0  0  0  0  0  0
   34.2761   24.9198   -3.0774 C   0  0  0  0  0  0  0  0  0  0  0  0
   34.7089   25.7963   -2.2191 N   0  0  0  0  0  0  0  0  0  0  0  0
   32.9290   24.8588   -3.2310 N   0  0  0  0  0  0  0  0  0  0  0  0
   32.4802   23.9343   -4.1111 C   0  0  0  0  0  0  0  0  0  0  0  0
   25.6332   23.2783    3.6546 H   0  0  0  0  0  0  0  0  0  0  0  0
   23.9632   24.6874    3.1148 H   0  0  0  0  0  0  0  0  0  0  0  0
   27.9879   21.5436   -4.4925 H   0  0  0  0  0  0  0  0  0  0  0  0
   27.0198   22.7174   -5.4862 H   0  0  0  0  0  0  0  0  0  0  0  0
   27.2056   23.5698   -2.7631 H   0  0  0  0  0  0  0  0  0  0  0  0
   26.8961   24.8567   -5.1474 H   0  0  0  0  0  0  0  0  0  0  0  0
   27.6916   25.4710   -2.6001 H   0  0  0  0  0  0  0  0  0  0  0  0
   29.1799   24.5122   -6.0788 H   0  0  0  0  0  0  0  0  0  0  0  0
   29.5763   26.7591   -4.4008 H   0  0  0  0  0  0  0  0  0  0  0  0
   30.3231   25.1397   -3.2982 H   0  0  0  0  0  0  0  0  0  0  0  0
   30.3760   22.2613   -5.9459 H   0  0  0  0  0  0  0  0  0  0  0  0
   36.1842   24.1925   -3.5867 H   0  0  0  0  0  0  0  0  0  0  0  0
   34.0414   26.4023   -1.7209 H   0  0  0  0  0  0  0  0  0  0  0  0
   35.7189   25.8843   -2.0378 H   0  0  0  0  0  0  0  0  0  0  0  0
  1  2  1  6
  1  3  2  0
  1  4  1  0
  1  5  1  0
  2  6  1  0
  6  7  2  0
  6  8  1  1
  6 12  1  0
  9 10  2  0
  9 11  1  6
  9 12  1  0
  9 13  1  0
 13 14  1  0
 15 14  1  0
 15 16  1  0
 15 17  1  0
 16 21  1  0
 17 18  1  0
 17 19  1  0
 19 20  1  0
 19 21  1  0
 21 22  1  0
 22 23  1  0
 22 32  1  0
 23 24  2  0
 24 25  1  0
 25 26  1  0
 25 32  2  0
 26 27  2  0
 26 28  1  0
 28 29  1  0
 29 30  1  0
 29 31  2  0
 31 32  1  0
  4 33  1  0
  5 34  1  0
 14 35  1  0
 14 36  1  0
 15 37  1  1
 17 38  1  6
 18 39  1  0
 19 40  1  6
 20 41  1  0
 21 42  1  1
 23 43  1  0
 28 44  1  0
 30 45  1  0
 30 46  1  0
M  CHG  2   8  -1  11  -1
M  END
>  <filename_input>  (14) 
7SCW_GSP_docked.sdf

>  <pdb_id>  (14) 
7SCW_GSP

>  <pose_rank>  (14) 
13

>  <num_atoms_heavy>  (14) 
32

>  <num_torsions>  (14) 
8

>  <pose>  (14) 
[27.81276197090715, 23.51659029920194, -3.6788241754199835, 4.702743426999712, 4.066725601379385, 0.677788565011663, -0.09749305058374877, 3.3679596063674206, -2.649694743305592, -0.506744900494411, -5.276289263967845, -7.977753450761385, 0.06633407050386932, -2.2628444136998933]

>  <energy>  (14) 
-1280.5654714816387

>  <inter_energy>  (14) 
-1325.585535776464

>  <intra_energy>  (14) 
34.35100747097894

>  <rmsd>  (14) 
5.08688

>  <sdf_rank>  (14) 
0

$$$$

     RDKit          3D

 46 48  0  0  0  0  0  0  0  0999 V2000
   25.9518   24.5897  -10.5158 P   0  0  1  0  0  0  0  0  0  0  0  0
   26.7923   24.4628   -9.1151 O   0  0  0  0  0  0  0  0  0  0  0  0
   27.1029   25.5720  -11.6522 S   0  0  0  0  0  0  0  0  0  0  0  0
   25.6613   23.2830  -11.1482 O   0  0  0  0  0  0  0  0  0  0  0  0
   24.5808   25.2266  -10.3532 O   0  0  0  0  0  0  0  0  0  0  0  0
   26.7150   25.4716   -7.9077 P   0  0  1  0  0  0  0  0  0  0  0  0
   27.6006   26.6162   -8.1481 O   0  0  0  0  0  0  0  0  0  0  0  0
   25.3287   25.7213   -7.5351 O   0  0  0  0  0  0  0  0  0  0  0  0
   28.0512   23.1146   -6.9195 P   0  0  1  0  0  0  0  0  0  0  0  0
   27.1117   22.2270   -7.6160 O   0  0  0  0  0  0  0  0  0  0  0  0
   29.3916   23.1882   -7.4872 O   0  0  0  0  0  0  0  0  0  0  0  0
   27.4361   24.6069   -6.7577 O   0  0  0  0  0  0  0  0  0  0  0  0
   27.9697   22.6639   -5.3973 O   0  0  0  0  0  0  0  0  0  0  0  0
   27.0433   23.2733   -4.4823 C   0  0  0  0  0  0  0  0  0  0  0  0
   27.7252   23.7753   -3.2235 C   0  0  1  0  0  0  0  0  0  0  0  0
   29.0034   23.1813   -3.0705 O   0  0  0  0  0  0  0  0  0  0  0  0
   27.9646   25.2752   -3.2545 C   0  0  1  0  0  0  0  0  0  0  0  0
   27.9787   25.7266   -1.9475 O   0  0  0  0  0  0  0  0  0  0  0  0
   29.3918   25.4205   -3.7423 C   0  0  1  0  0  0  0  0  0  0  0  0
   29.9990   26.5933   -3.2611 O   0  0  0  0  0  0  0  0  0  0  0  0
   30.0389   24.1758   -3.0817 C   0  0  2  0  0  0  0  0  0  0  0  0
   31.1645   23.6056   -3.8362 N   0  0  0  0  0  0  0  0  0  0  0  0
   31.0636   22.6551   -4.8314 C   0  0  0  0  0  0  0  0  0  0  0  0
   32.3032   22.3393   -5.2739 N   0  0  0  0  0  0  0  0  0  0  0  0
   33.2013   23.1225   -4.6155 C   0  0  0  0  0  0  0  0  0  0  0  0
   34.6079   23.2368   -4.6719 C   0  0  0  0  0  0  0  0  0  0  0  0
   35.3736   22.5462   -5.4046 O   0  0  0  0  0  0  0  0  0  0  0  0
   35.1752   24.1500   -3.8174 N   0  0  0  0  0  0  0  0  0  0  0  0
   34.3900   24.8983   -2.9366 C   0  0  0  0  0  0  0  0  0  0  0  0
   34.9422   25.7466   -2.1196 N   0  0  0  0  0  0  0  0  0  0  0  0
   33.0405   24.7849   -2.8470 N   0  0  0  0  0  0  0  0  0  0  0  0
   32.4701   23.8891   -3.6854 C   0  0  0  0  0  0  0  0  0  0  0  0
   25.5100   22.6025  -10.4453 H   0  0  0  0  0  0  0  0  0  0  0  0
   24.3737   25.3228   -9.3899 H   0  0  0  0  0  0  0  0  0  0  0  0
   26.5570   24.1228   -4.9842 H   0  0  0  0  0  0  0  0  0  0  0  0
   26.3097   22.5089   -4.1863 H   0  0  0  0  0  0  0  0  0  0  0  0
   27.0474   23.5113   -2.3984 H   0  0  0  0  0  0  0  0  0  0  0  0
   27.2163   25.8071   -3.8604 H   0  0  0  0  0  0  0  0  0  0  0  0
   27.9544   24.9526   -1.3307 H   0  0  0  0  0  0  0  0  0  0  0  0
   29.4847   25.4850   -4.8365 H   0  0  0  0  0  0  0  0  0  0  0  0
   29.9947   26.5849   -2.2711 H   0  0  0  0  0  0  0  0  0  0  0  0
   30.4329   24.4693   -2.0976 H   0  0  0  0  0  0  0  0  0  0  0  0
   30.1242   22.2225   -5.2061 H   0  0  0  0  0  0  0  0  0  0  0  0
   36.1962   24.2856   -3.8260 H   0  0  0  0  0  0  0  0  0  0  0  0
   34.3569   26.2947   -1.4731 H   0  0  0  0  0  0  0  0  0  0  0  0
   35.9647   25.8703   -2.1192 H   0  0  0  0  0  0  0  0  0  0  0  0
  1  2  1  1
  1  3  2  0
  1  4  1  0
  1  5  1  0
  2  6  1  0
  6  7  2  0
  6  8  1  1
  6 12  1  0
  9 10  2  0
  9 11  1  6
  9 12  1  0
  9 13  1  0
 13 14  1  0
 15 14  1  0
 15 16  1  0
 15 17  1  0
 16 21  1  0
 17 18  1  0
 17 19  1  0
 19 20  1  0
 19 21  1  0
 21 22  1  0
 22 23  1  0
 22 32  1  0
 23 24  2  0
 24 25  1  0
 25 26  1  0
 25 32  2  0
 26 27  2  0
 26 28  1  0
 28 29  1  0
 29 30  1  0
 29 31  2  0
 31 32  1  0
  4 33  1  0
  5 34  1  0
 14 35  1  0
 14 36  1  0
 15 37  1  1
 17 38  1  6
 18 39  1  0
 19 40  1  6
 20 41  1  0
 21 42  1  1
 23 43  1  0
 28 44  1  0
 30 45  1  0
 30 46  1  0
M  CHG  2   8  -1  11  -1
M  END
>  <filename_input>  (15) 
7SCW_GSP_docked.sdf

>  <pdb_id>  (15) 
7SCW_GSP

>  <pose_rank>  (15) 
14

>  <num_atoms_heavy>  (15) 
32

>  <num_torsions>  (15) 
8

>  <pose>  (15) 
[27.725223704036864, 23.7752818995465, -3.2235340159704724, 0.4805628791240235, -0.07010330922908936, -0.20993158020516564, 11.908390787300071, -36.90665196484638, -12.194386247927959, 7.828215270879253, 12.894947613696013, -10.68860531387035, 0.12587501828752068, -7.995407209206125]

>  <energy>  (15) 
-1289.558789461397

>  <inter_energy>  (15) 
-1309.1820604215247

>  <intra_energy>  (15) 
35.39901466087741

>  <rmsd>  (15) 
4.04227

>  <sdf_rank>  (15) 
0

$$$$

     RDKit          3D

 46 48  0  0  0  0  0  0  0  0999 V2000
   25.6873   19.9579   -6.7552 P   0  0  1  0  0  0  0  0  0  0  0  0
   27.2520   20.4327   -6.8580 O   0  0  0  0  0  0  0  0  0  0  0  0
   25.2196   19.5354   -8.5396 S   0  0  0  0  0  0  0  0  0  0  0  0
   25.4913   18.7548   -5.9150 O   0  0  0  0  0  0  0  0  0  0  0  0
   24.7717   20.9944   -6.1234 O   0  0  0  0  0  0  0  0  0  0  0  0
   27.7578   21.9244   -6.8424 P   0  0  1  0  0  0  0  0  0  0  0  0
   29.1094   22.0057   -7.4070 O   0  0  0  0  0  0  0  0  0  0  0  0
   26.7282   22.8212   -7.3511 O   0  0  0  0  0  0  0  0  0  0  0  0
   27.6898   23.5401   -4.4544 P   0  0  1  0  0  0  0  0  0  0  0  0
   27.9606   24.7048   -5.3064 O   0  0  0  0  0  0  0  0  0  0  0  0
   26.3798   23.5138   -3.8160 O   0  0  0  0  0  0  0  0  0  0  0  0
   27.9407   22.1546   -5.2600 O   0  0  0  0  0  0  0  0  0  0  0  0
   28.9380   23.4667   -3.4728 O   0  0  0  0  0  0  0  0  0  0  0  0
   28.7755   23.1961   -2.0702 C   0  0  0  0  0  0  0  0  0  0  0  0
   29.3556   24.2965   -1.2019 C   0  0  1  0  0  0  0  0  0  0  0  0
   30.7477   24.1082   -1.0109 O   0  0  0  0  0  0  0  0  0  0  0  0
   29.2042   25.6706   -1.8319 C   0  0  1  0  0  0  0  0  0  0  0  0
   29.1537   26.5999   -0.8092 O   0  0  0  0  0  0  0  0  0  0  0  0
   30.5276   25.9152   -2.5283 C   0  0  1  0  0  0  0  0  0  0  0  0
   30.8348   27.2841   -2.6158 O   0  0  0  0  0  0  0  0  0  0  0  0
   31.4950   25.2142   -1.5398 C   0  0  2  0  0  0  0  0  0  0  0  0
   32.6986   24.6495   -2.1675 N   0  0  0  0  0  0  0  0  0  0  0  0
   33.9727   24.6898   -1.6392 C   0  0  0  0  0  0  0  0  0  0  0  0
   34.8336   24.1072   -2.5062 N   0  0  0  0  0  0  0  0  0  0  0  0
   34.1172   23.6358   -3.5636 C   0  0  0  0  0  0  0  0  0  0  0  0
   34.4750   22.9445   -4.7421 C   0  0  0  0  0  0  0  0  0  0  0  0
   35.6510   22.6214   -5.0774 O   0  0  0  0  0  0  0  0  0  0  0  0
   33.4483   22.6476   -5.6044 N   0  0  0  0  0  0  0  0  0  0  0  0
   32.1354   23.0342   -5.3230 C   0  0  0  0  0  0  0  0  0  0  0  0
   31.1752   22.7625   -6.1575 N   0  0  0  0  0  0  0  0  0  0  0  0
   31.7738   23.7222   -4.2104 N   0  0  0  0  0  0  0  0  0  0  0  0
   32.7770   24.0191   -3.3524 C   0  0  0  0  0  0  0  0  0  0  0  0
   25.5328   19.0095   -4.9592 H   0  0  0  0  0  0  0  0  0  0  0  0
   24.8298   20.9287   -5.1372 H   0  0  0  0  0  0  0  0  0  0  0  0
   27.7020   23.1003   -1.8502 H   0  0  0  0  0  0  0  0  0  0  0  0
   29.3164   22.2659   -1.8416 H   0  0  0  0  0  0  0  0  0  0  0  0
   28.7996   24.2451   -0.2541 H   0  0  0  0  0  0  0  0  0  0  0  0
   28.3225   25.7374   -2.4862 H   0  0  0  0  0  0  0  0  0  0  0  0
   29.1791   26.1323    0.0631 H   0  0  0  0  0  0  0  0  0  0  0  0
   30.5587   25.5537   -3.5667 H   0  0  0  0  0  0  0  0  0  0  0  0
   30.9196   27.6622   -1.7047 H   0  0  0  0  0  0  0  0  0  0  0  0
   31.8392   25.9562   -0.8043 H   0  0  0  0  0  0  0  0  0  0  0  0
   34.2456   25.1263   -0.6671 H   0  0  0  0  0  0  0  0  0  0  0  0
   33.6493   22.1315   -6.4728 H   0  0  0  0  0  0  0  0  0  0  0  0
   30.2098   23.0507   -5.9432 H   0  0  0  0  0  0  0  0  0  0  0  0
   31.3803   22.2593   -7.0324 H   0  0  0  0  0  0  0  0  0  0  0  0
  1  2  1  6
  1  3  2  0
  1  4  1  0
  1  5  1  0
  2  6  1  0
  6  7  2  0
  6  8  1  6
  6 12  1  0
  9 10  2  0
  9 11  1  1
  9 12  1  0
  9 13  1  0
 13 14  1  0
 15 14  1  0
 15 16  1  0
 15 17  1  0
 16 21  1  0
 17 18  1  0
 17 19  1  0
 19 20  1  0
 19 21  1  0
 21 22  1  0
 22 23  1  0
 22 32  1  0
 23 24  2  0
 24 25  1  0
 25 26  1  0
 25 32  2  0
 26 27  2  0
 26 28  1  0
 28 29  1  0
 29 30  1  0
 29 31  2  0
 31 32  1  0
  4 33  1  0
  5 34  1  0
 14 35  1  0
 14 36  1  0
 15 37  1  1
 17 38  1  6
 18 39  1  0
 19 40  1  6
 20 41  1  0
 21 42  1  1
 23 43  1  0
 28 44  1  0
 30 45  1  0
 30 46  1  0
M  CHG  2   8  -1  11  -1
M  END
>  <filename_input>  (16) 
7SCW_GSP_docked.sdf

>  <pdb_id>  (16) 
7SCW_GSP

>  <pose_rank>  (16) 
15

>  <num_atoms_heavy>  (16) 
32

>  <num_torsions>  (16) 
8

>  <pose>  (16) 
[29.355555792285244, 24.29654332164315, -1.2018784580911082, -5.287407489510835, -2.624413706605449, -1.8915659497124604, -2.9612159279796524, -0.3690865312539088, 0.4608091987575159, -0.754594636913116, 0.6194876975069826, -0.6795911673751778, -1.221793587599865, -1.5304884534379384]

>  <energy>  (16) 
-761.0746863819661

>  <inter_energy>  (16) 
-825.5280029811355

>  <intra_energy>  (16) 
75.82192241568418

>  <rmsd>  (16) 
3.25895

>  <sdf_rank>  (16) 
0

$$$$

     RDKit          3D

 46 48  0  0  0  0  0  0  0  0999 V2000
   25.6099   24.4401  -11.2602 P   0  0  1  0  0  0  0  0  0  0  0  0
   26.4421   24.6383   -9.8629 O   0  0  0  0  0  0  0  0  0  0  0  0
   26.5658   25.4866  -12.5141 S   0  0  0  0  0  0  0  0  0  0  0  0
   25.5818   23.0379  -11.7346 O   0  0  0  0  0  0  0  0  0  0  0  0
   24.1406   24.8178  -11.1582 O   0  0  0  0  0  0  0  0  0  0  0  0
   26.1302   25.7168   -8.7579 P   0  0  1  0  0  0  0  0  0  0  0  0
   26.6290   27.0306   -9.1791 O   0  0  0  0  0  0  0  0  0  0  0  0
   24.7510   25.6012   -8.3024 O   0  0  0  0  0  0  0  0  0  0  0  0
   28.1725   23.9972   -7.6672 P   0  0  1  0  0  0  0  0  0  0  0  0
   27.5426   22.8078   -8.2543 O   0  0  0  0  0  0  0  0  0  0  0  0
   29.4128   24.4325   -8.2968 O   0  0  0  0  0  0  0  0  0  0  0  0
   27.1270   25.2351   -7.5897 O   0  0  0  0  0  0  0  0  0  0  0  0
   28.2633   23.6729   -6.1137 O   0  0  0  0  0  0  0  0  0  0  0  0
   27.2423   24.1005   -5.1963 C   0  0  0  0  0  0  0  0  0  0  0  0
   27.8149   24.5293   -3.8586 C   0  0  1  0  0  0  0  0  0  0  0  0
   28.9624   23.7636   -3.5316 O   0  0  0  0  0  0  0  0  0  0  0  0
   28.2693   25.9790   -3.8621 C   0  0  1  0  0  0  0  0  0  0  0  0
   28.1735   26.4537   -2.5669 O   0  0  0  0  0  0  0  0  0  0  0  0
   29.7548   25.9090   -4.1525 C   0  0  1  0  0  0  0  0  0  0  0  0
   30.4545   26.9946   -3.5976 O   0  0  0  0  0  0  0  0  0  0  0  0
   30.1222   24.6006   -3.4060 C   0  0  2  0  0  0  0  0  0  0  0  0
   31.2448   23.8592   -3.9989 N   0  0  0  0  0  0  0  0  0  0  0  0
   31.1342   22.8383   -4.9205 C   0  0  0  0  0  0  0  0  0  0  0  0
   32.3685   22.3658   -5.2130 N   0  0  0  0  0  0  0  0  0  0  0  0
   33.2813   23.1139   -4.5342 C   0  0  0  0  0  0  0  0  0  0  0  0
   34.6915   23.0861   -4.4616 C   0  0  0  0  0  0  0  0  0  0  0  0
   35.4430   22.2621   -5.0585 O   0  0  0  0  0  0  0  0  0  0  0  0
   35.2727   24.0125   -3.6310 N   0  0  0  0  0  0  0  0  0  0  0  0
   34.4946   24.9086   -2.8935 C   0  0  0  0  0  0  0  0  0  0  0  0
   35.0574   25.7689   -2.0965 N   0  0  0  0  0  0  0  0  0  0  0  0
   33.1380   24.9348   -2.9277 N   0  0  0  0  0  0  0  0  0  0  0  0
   32.5541   24.0274   -3.7440 C   0  0  0  0  0  0  0  0  0  0  0  0
   25.5696   22.4264  -10.9562 H   0  0  0  0  0  0  0  0  0  0  0  0
   23.8824   24.8842  -10.2048 H   0  0  0  0  0  0  0  0  0  0  0  0
   26.7020   24.9503   -5.6389 H   0  0  0  0  0  0  0  0  0  0  0  0
   26.5709   23.2476   -5.0177 H   0  0  0  0  0  0  0  0  0  0  0  0
   27.0021   24.3832   -3.1319 H   0  0  0  0  0  0  0  0  0  0  0  0
   27.6930   26.5976   -4.5658 H   0  0  0  0  0  0  0  0  0  0  0  0
   28.3236   25.7101   -1.9309 H   0  0  0  0  0  0  0  0  0  0  0  0
   30.0014   25.9346   -5.2243 H   0  0  0  0  0  0  0  0  0  0  0  0
   30.4192   26.9397   -2.6098 H   0  0  0  0  0  0  0  0  0  0  0  0
   30.4193   24.8577   -2.3785 H   0  0  0  0  0  0  0  0  0  0  0  0
   30.1919   22.4669   -5.3497 H   0  0  0  0  0  0  0  0  0  0  0  0
   36.2989   24.0473   -3.5504 H   0  0  0  0  0  0  0  0  0  0  0  0
   34.4773   26.4264   -1.5560 H   0  0  0  0  0  0  0  0  0  0  0  0
   36.0831   25.7926   -2.0059 H   0  0  0  0  0  0  0  0  0  0  0  0
  1  2  1  1
  1  3  2  0
  1  4  1  0
  1  5  1  0
  2  6  1  0
  6  7  2  0
  6  8  1  1
  6 12  1  0
  9 10  2  0
  9 11  1  6
  9 12  1  0
  9 13  1  0
 13 14  1  0
 15 14  1  0
 15 16  1  0
 15 17  1  0
 16 21  1  0
 17 18  1  0
 17 19  1  0
 19 20  1  0
 19 21  1  0
 21 22  1  0
 22 23  1  0
 22 32  1  0
 23 24  2  0
 24 25  1  0
 25 26  1  0
 25 32  2  0
 26 27  2  0
 26 28  1  0
 28 29  1  0
 29 30  1  0
 29 31  2  0
 31 32  1  0
  4 33  1  0
  5 34  1  0
 14 35  1  0
 14 36  1  0
 15 37  1  1
 17 38  1  6
 18 39  1  0
 19 40  1  6
 20 41  1  0
 21 42  1  1
 23 43  1  0
 28 44  1  0
 30 45  1  0
 30 46  1  0
M  CHG  2   8  -1  11  -1
M  END
>  <filename_input>  (17) 
7SCW_GSP_docked.sdf

>  <pdb_id>  (17) 
7SCW_GSP

>  <pose_rank>  (17) 
16

>  <num_atoms_heavy>  (17) 
32

>  <num_torsions>  (17) 
8

>  <pose>  (17) 
[27.81492474597687, 24.52933378159874, -3.8585581159261024, 0.4764420929747883, -0.23873965942534503, -0.31748672389034344, 11.81571936555615, -37.18139176081292, -12.460743278280495, 7.77292069756447, 12.918301786655475, -10.658016139766191, 0.22265567234852257, -7.959284808259648]

>  <energy>  (17) 
-1277.3525627574418

>  <inter_energy>  (17) 
-1304.2023432352091

>  <intra_energy>  (17) 
27.839186424479994

>  <rmsd>  (17) 
4.22274

>  <sdf_rank>  (17) 
0

$$$$

     RDKit          3D

 46 48  0  0  0  0  0  0  0  0999 V2000
   26.2842   24.0488   -7.6530 P   0  0  1  0  0  0  0  0  0  0  0  0
   25.0454   23.7915   -6.6120 O   0  0  0  0  0  0  0  0  0  0  0  0
   27.3322   25.3725   -6.7983 S   0  0  0  0  0  0  0  0  0  0  0  0
   27.1232   22.8498   -7.8772 O   0  0  0  0  0  0  0  0  0  0  0  0
   25.8381   24.4458   -9.0514 O   0  0  0  0  0  0  0  0  0  0  0  0
   25.1364   22.9794   -5.2653 P   0  0  1  0  0  0  0  0  0  0  0  0
   23.8508   23.0248   -4.5600 O   0  0  0  0  0  0  0  0  0  0  0  0
   25.7715   21.6869   -5.4869 O   0  0  0  0  0  0  0  0  0  0  0  0
   26.3042   23.9311   -2.8060 P   0  0  1  0  0  0  0  0  0  0  0  0
   25.0292   24.2018   -2.1301 O   0  0  0  0  0  0  0  0  0  0  0  0
   27.0017   22.7238   -2.3816 O   0  0  0  0  0  0  0  0  0  0  0  0
   26.1229   23.9277   -4.4181 O   0  0  0  0  0  0  0  0  0  0  0  0
   27.1230   25.2866   -2.6677 O   0  0  0  0  0  0  0  0  0  0  0  0
   28.5606   25.3006   -2.6843 C   0  0  0  0  0  0  0  0  0  0  0  0
   29.1532   25.0745   -1.3062 C   0  0  1  0  0  0  0  0  0  0  0  0
   30.2785   24.2149   -1.3752 O   0  0  0  0  0  0  0  0  0  0  0  0
   29.6516   26.3622   -0.6728 C   0  0  1  0  0  0  0  0  0  0  0  0
   29.5773   26.2129    0.6999 O   0  0  0  0  0  0  0  0  0  0  0  0
   31.1328   26.3918   -0.9913 C   0  0  1  0  0  0  0  0  0  0  0  0
   31.8683   27.0989   -0.0243 O   0  0  0  0  0  0  0  0  0  0  0  0
   31.4640   24.8791   -0.9117 C   0  0  2  0  0  0  0  0  0  0  0  0
   32.5602   24.4515   -1.7930 N   0  0  0  0  0  0  0  0  0  0  0  0
   33.9029   24.6799   -1.5717 C   0  0  0  0  0  0  0  0  0  0  0  0
   34.6170   24.1798   -2.6071 N   0  0  0  0  0  0  0  0  0  0  0  0
   33.7516   23.5756   -3.4671 C   0  0  0  0  0  0  0  0  0  0  0  0
   33.9250   22.8891   -4.6892 C   0  0  0  0  0  0  0  0  0  0  0  0
   35.0276   22.7093   -5.2822 O   0  0  0  0  0  0  0  0  0  0  0  0
   32.7805   22.4252   -5.2899 N   0  0  0  0  0  0  0  0  0  0  0  0
   31.5249   22.6479   -4.7186 C   0  0  0  0  0  0  0  0  0  0  0  0
   30.4474   22.2188   -5.3077 N   0  0  0  0  0  0  0  0  0  0  0  0
   31.3335   23.3279   -3.5597 N   0  0  0  0  0  0  0  0  0  0  0  0
   32.4543   23.7886   -2.9579 C   0  0  0  0  0  0  0  0  0  0  0  0
   27.3912   22.4668   -7.0045 H   0  0  0  0  0  0  0  0  0  0  0  0
   25.1001   25.1026   -8.9883 H   0  0  0  0  0  0  0  0  0  0  0  0
   28.9146   24.5053   -3.3567 H   0  0  0  0  0  0  0  0  0  0  0  0
   28.8840   26.2930   -3.0316 H   0  0  0  0  0  0  0  0  0  0  0  0
   28.3402   24.6405   -0.7056 H   0  0  0  0  0  0  0  0  0  0  0  0
   29.0908   27.2437   -1.0170 H   0  0  0  0  0  0  0  0  0  0  0  0
   29.9725   27.0067    1.1401 H   0  0  0  0  0  0  0  0  0  0  0  0
   31.3743   26.8857   -1.9440 H   0  0  0  0  0  0  0  0  0  0  0  0
   31.5781   26.8199    0.8802 H   0  0  0  0  0  0  0  0  0  0  0  0
   31.7742   24.6444    0.1172 H   0  0  0  0  0  0  0  0  0  0  0  0
   34.3261   25.1880   -0.6926 H   0  0  0  0  0  0  0  0  0  0  0  0
   32.8488   21.9046   -6.1760 H   0  0  0  0  0  0  0  0  0  0  0  0
   29.5253   22.3867   -4.8806 H   0  0  0  0  0  0  0  0  0  0  0  0
   30.5164   21.7112   -6.2013 H   0  0  0  0  0  0  0  0  0  0  0  0
  1  2  1  1
  1  3  2  0
  1  4  1  0
  1  5  1  0
  2  6  1  0
  6  7  2  0
  6  8  1  6
  6 12  1  0
  9 10  2  0
  9 11  1  1
  9 12  1  0
  9 13  1  0
 13 14  1  0
 15 14  1  0
 15 16  1  0
 15 17  1  0
 16 21  1  0
 17 18  1  0
 17 19  1  0
 19 20  1  0
 19 21  1  0
 21 22  1  0
 22 23  1  0
 22 32  1  0
 23 24  2  0
 24 25  1  0
 25 26  1  0
 25 32  2  0
 26 27  2  0
 26 28  1  0
 28 29  1  0
 29 30  1  0
 29 31  2  0
 31 32  1  0
  4 33  1  0
  5 34  1  0
 14 35  1  0
 14 36  1  0
 15 37  1  1
 17 38  1  6
 18 39  1  0
 19 40  1  6
 20 41  1  0
 21 42  1  1
 23 43  1  0
 28 44  1  0
 30 45  1  0
 30 46  1  0
M  CHG  2   8  -1  11  -1
M  END
>  <filename_input>  (18) 
7SCW_GSP_docked.sdf

>  <pdb_id>  (18) 
7SCW_GSP

>  <pose_rank>  (18) 
17

>  <num_atoms_heavy>  (18) 
32

>  <num_torsions>  (18) 
8

>  <pose>  (18) 
[29.153190274015863, 25.074529247546128, -1.306182085424785, 0.9264626556118364, -0.15919905774686022, -0.4053240684542439, -16.65117243282608, 16.091766793499808, -24.050627192432604, 12.102750416031144, -6.1555876884804865, -7.894069238412005, -7.9040564401920514, -4.622970374637141]

>  <energy>  (18) 
-574.0133812263463

>  <inter_energy>  (18) 
-618.4172269766971

>  <intra_energy>  (18) 
53.17685053789298

>  <rmsd>  (18) 
4.57693

>  <sdf_rank>  (18) 
0

$$$$

     RDKit          3D

 46 48  0  0  0  0  0  0  0  0999 V2000
   23.5445   24.5092  -12.4808 P   0  0  1  0  0  0  0  0  0  0  0  0
   24.0308   24.3790  -10.9216 O   0  0  0  0  0  0  0  0  0  0  0  0
   22.4862   26.0779  -12.5001 S   0  0  0  0  0  0  0  0  0  0  0  0
   24.6643   24.6795  -13.4342 O   0  0  0  0  0  0  0  0  0  0  0  0
   22.8104   23.2826  -12.9991 O   0  0  0  0  0  0  0  0  0  0  0  0
   24.5546   23.0620  -10.2341 P   0  0  1  0  0  0  0  0  0  0  0  0
   23.4644   22.4046   -9.5049 O   0  0  0  0  0  0  0  0  0  0  0  0
   25.3498   22.2762  -11.1685 O   0  0  0  0  0  0  0  0  0  0  0  0
   26.6507   22.8911   -8.2606 P   0  0  1  0  0  0  0  0  0  0  0  0
   26.1859   21.5537   -7.8719 O   0  0  0  0  0  0  0  0  0  0  0  0
   27.9196   22.9370   -8.9761 O   0  0  0  0  0  0  0  0  0  0  0  0
   25.5126   23.6851   -9.1007 O   0  0  0  0  0  0  0  0  0  0  0  0
   26.5834   23.7408   -6.9188 O   0  0  0  0  0  0  0  0  0  0  0  0
   27.2541   23.3098   -5.7225 C   0  0  0  0  0  0  0  0  0  0  0  0
   27.8107   24.4739   -4.9247 C   0  0  1  0  0  0  0  0  0  0  0  0
   29.1707   24.2528   -4.5908 O   0  0  0  0  0  0  0  0  0  0  0  0
   27.7806   25.7768   -5.7054 C   0  0  1  0  0  0  0  0  0  0  0  0
   27.6882   26.8122   -4.7936 O   0  0  0  0  0  0  0  0  0  0  0  0
   29.1688   25.8927   -6.3016 C   0  0  1  0  0  0  0  0  0  0  0  0
   29.5485   27.2311   -6.5031 O   0  0  0  0  0  0  0  0  0  0  0  0
   30.0133   25.2650   -5.1626 C   0  0  2  0  0  0  0  0  0  0  0  0
   31.2371   24.5891   -5.6173 N   0  0  0  0  0  0  0  0  0  0  0  0
   31.4780   24.1445   -6.9012 C   0  0  0  0  0  0  0  0  0  0  0  0
   32.6876   23.5386   -6.9437 N   0  0  0  0  0  0  0  0  0  0  0  0
   33.2577   23.6417   -5.7117 C   0  0  0  0  0  0  0  0  0  0  0  0
   34.4930   23.2112   -5.1793 C   0  0  0  0  0  0  0  0  0  0  0  0
   35.3800   22.5648   -5.8080 O   0  0  0  0  0  0  0  0  0  0  0  0
   34.7093   23.4893   -3.8520 N   0  0  0  0  0  0  0  0  0  0  0  0
   33.7416   24.1434   -3.0850 C   0  0  0  0  0  0  0  0  0  0  0  0
   33.9522   24.3842   -1.8242 N   0  0  0  0  0  0  0  0  0  0  0  0
   32.5379   24.5414   -3.5693 N   0  0  0  0  0  0  0  0  0  0  0  0
   32.3140   24.2740   -4.8767 C   0  0  0  0  0  0  0  0  0  0  0  0
   25.5081   24.8079  -12.9326 H   0  0  0  0  0  0  0  0  0  0  0  0
   22.4877   22.7434  -12.2341 H   0  0  0  0  0  0  0  0  0  0  0  0
   26.5381   22.7600   -5.0938 H   0  0  0  0  0  0  0  0  0  0  0  0
   28.0985   22.6712   -6.0209 H   0  0  0  0  0  0  0  0  0  0  0  0
   27.1742   24.5469   -4.0306 H   0  0  0  0  0  0  0  0  0  0  0  0
   26.9621   25.8071   -6.4396 H   0  0  0  0  0  0  0  0  0  0  0  0
   27.7209   26.4463   -3.8743 H   0  0  0  0  0  0  0  0  0  0  0  0
   29.2707   25.4203   -7.2897 H   0  0  0  0  0  0  0  0  0  0  0  0
   29.6741   27.6740   -5.6266 H   0  0  0  0  0  0  0  0  0  0  0  0
   30.3292   26.0680   -4.4804 H   0  0  0  0  0  0  0  0  0  0  0  0
   30.7950   24.2637   -7.7552 H   0  0  0  0  0  0  0  0  0  0  0  0
   35.5995   23.2112   -3.4147 H   0  0  0  0  0  0  0  0  0  0  0  0
   33.2342   24.8668   -1.2652 H   0  0  0  0  0  0  0  0  0  0  0  0
   34.8369   24.0923   -1.3848 H   0  0  0  0  0  0  0  0  0  0  0  0
  1  2  1  1
  1  3  2  0
  1  4  1  0
  1  5  1  0
  2  6  1  0
  6  7  2  0
  6  8  1  6
  6 12  1  0
  9 10  2  0
  9 11  1  6
  9 12  1  0
  9 13  1  0
 13 14  1  0
 15 14  1  0
 15 16  1  0
 15 17  1  0
 16 21  1  0
 17 18  1  0
 17 19  1  0
 19 20  1  0
 19 21  1  0
 21 22  1  0
 22 23  1  0
 22 32  1  0
 23 24  2  0
 24 25  1  0
 25 26  1  0
 25 32  2  0
 26 27  2  0
 26 28  1  0
 28 29  1  0
 29 30  1  0
 29 31  2  0
 31 32  1  0
  4 33  1  0
  5 34  1  0
 14 35  1  0
 14 36  1  0
 15 37  1  1
 17 38  1  6
 18 39  1  0
 19 40  1  6
 20 41  1  0
 21 42  1  1
 23 43  1  0
 28 44  1  0
 30 45  1  0
 30 46  1  0
M  CHG  2   8  -1  11  -1
M  END
>  <filename_input>  (19) 
7SCW_GSP_docked.sdf

>  <pdb_id>  (19) 
7SCW_GSP

>  <pose_rank>  (19) 
18

>  <num_atoms_heavy>  (19) 
32

>  <num_torsions>  (19) 
8

>  <pose>  (19) 
[27.810743801291324, 24.473854491988902, -4.924719464842634, 3.3116066210874915, 5.005143420934321, 1.627663547562198, 0.5342584105698629, 5.113191199411399, -1.1688132380341336, 4.09006196396445, 0.43213468248145753, 5.290975266139389, -0.10867118916346785, -0.5099401382185537]

>  <energy>  (19) 
-739.1554919392738

>  <inter_energy>  (19) 
-735.1140449706744

>  <intra_energy>  (19) 
1.7592307022726024

>  <rmsd>  (19) 
4.03456

>  <sdf_rank>  (19) 
0

$$$$

     RDKit          3D

 46 48  0  0  0  0  0  0  0  0999 V2000
   24.5883   18.5380   -7.5724 P   0  0  1  0  0  0  0  0  0  0  0  0
   25.3488   19.9411   -7.2018 O   0  0  0  0  0  0  0  0  0  0  0  0
   25.3970   17.9944   -9.1947 S   0  0  0  0  0  0  0  0  0  0  0  0
   24.7892   17.4750   -6.5617 O   0  0  0  0  0  0  0  0  0  0  0  0
   23.0763   18.6663   -7.6681 O   0  0  0  0  0  0  0  0  0  0  0  0
   24.7423   21.3842   -7.3781 P   0  0  1  0  0  0  0  0  0  0  0  0
   24.5408   21.6773   -8.8014 O   0  0  0  0  0  0  0  0  0  0  0  0
   23.6354   21.5925   -6.4537 O   0  0  0  0  0  0  0  0  0  0  0  0
   27.5493   21.8155   -6.8759 P   0  0  1  0  0  0  0  0  0  0  0  0
   27.6670   20.4301   -6.4042 O   0  0  0  0  0  0  0  0  0  0  0  0
   28.2019   22.1094   -8.1455 O   0  0  0  0  0  0  0  0  0  0  0  0
   25.9977   22.2858   -6.9292 O   0  0  0  0  0  0  0  0  0  0  0  0
   28.0165   22.6976   -5.6387 O   0  0  0  0  0  0  0  0  0  0  0  0
   27.0739   23.4421   -4.8487 C   0  0  0  0  0  0  0  0  0  0  0  0
   27.7340   24.1429   -3.6762 C   0  0  1  0  0  0  0  0  0  0  0  0
   29.0070   23.5815   -3.4039 O   0  0  0  0  0  0  0  0  0  0  0  0
   27.9790   25.6175   -3.9474 C   0  0  1  0  0  0  0  0  0  0  0  0
   27.9703   26.2766   -2.7318 O   0  0  0  0  0  0  0  0  0  0  0  0
   29.4156   25.6806   -4.4252 C   0  0  1  0  0  0  0  0  0  0  0  0
   30.0178   26.9161   -4.1308 O   0  0  0  0  0  0  0  0  0  0  0  0
   30.0459   24.5604   -3.5579 C   0  0  2  0  0  0  0  0  0  0  0  0
   31.1835   23.8741   -4.1875 N   0  0  0  0  0  0  0  0  0  0  0  0
   31.0967   22.9428   -5.2019 C   0  0  0  0  0  0  0  0  0  0  0  0
   32.3382   22.4963   -5.5047 N   0  0  0  0  0  0  0  0  0  0  0  0
   33.2331   23.1762   -4.7365 C   0  0  0  0  0  0  0  0  0  0  0  0
   34.6409   23.1383   -4.6302 C   0  0  0  0  0  0  0  0  0  0  0  0
   35.4076   22.3711   -5.2810 O   0  0  0  0  0  0  0  0  0  0  0  0
   35.2004   23.9827   -3.7029 N   0  0  0  0  0  0  0  0  0  0  0  0
   34.4035   24.8089   -2.9063 C   0  0  0  0  0  0  0  0  0  0  0  0
   34.9455   25.5906   -2.0189 N   0  0  0  0  0  0  0  0  0  0  0  0
   33.0483   24.8416   -2.9730 N   0  0  0  0  0  0  0  0  0  0  0  0
   32.4858   24.0147   -3.8844 C   0  0  0  0  0  0  0  0  0  0  0  0
   24.7156   17.8642   -5.6544 H   0  0  0  0  0  0  0  0  0  0  0  0
   22.6896   18.6991   -6.7574 H   0  0  0  0  0  0  0  0  0  0  0  0
   26.5946   24.1977   -5.4885 H   0  0  0  0  0  0  0  0  0  0  0  0
   26.3369   22.7320   -4.4455 H   0  0  0  0  0  0  0  0  0  0  0  0
   27.0400   24.0176   -2.8320 H   0  0  0  0  0  0  0  0  0  0  0  0
   27.2441   26.0434   -4.6463 H   0  0  0  0  0  0  0  0  0  0  0  0
   27.9790   25.6134   -1.9968 H   0  0  0  0  0  0  0  0  0  0  0  0
   29.5291   25.5653   -5.5133 H   0  0  0  0  0  0  0  0  0  0  0  0
   30.0735   27.0304   -3.1490 H   0  0  0  0  0  0  0  0  0  0  0  0
   30.4225   25.0108   -2.6276 H   0  0  0  0  0  0  0  0  0  0  0  0
   30.1659   22.6150   -5.6878 H   0  0  0  0  0  0  0  0  0  0  0  0
   36.2243   24.0074   -3.5929 H   0  0  0  0  0  0  0  0  0  0  0  0
   34.3517   26.1968   -1.4353 H   0  0  0  0  0  0  0  0  0  0  0  0
   35.9686   25.6032   -1.9000 H   0  0  0  0  0  0  0  0  0  0  0  0
  1  2  1  1
  1  3  2  0
  1  4  1  0
  1  5  1  0
  2  6  1  0
  6  7  2  0
  6  8  1  1
  6 12  1  0
  9 10  2  0
  9 11  1  6
  9 12  1  0
  9 13  1  0
 13 14  1  0
 15 14  1  0
 15 16  1  0
 15 17  1  0
 16 21  1  0
 17 18  1  0
 17 19  1  0
 19 20  1  0
 19 21  1  0
 21 22  1  0
 22 23  1  0
 22 32  1  0
 23 24  2  0
 24 25  1  0
 25 26  1  0
 25 32  2  0
 26 27  2  0
 26 28  1  0
 28 29  1  0
 29 30  1  0
 29 31  2  0
 31 32  1  0
  4 33  1  0
  5 34  1  0
 14 35  1  0
 14 36  1  0
 15 37  1  1
 17 38  1  6
 18 39  1  0
 19 40  1  6
 20 41  1  0
 21 42  1  1
 23 43  1  0
 28 44  1  0
 30 45  1  0
 30 46  1  0
M  CHG  2   8  -1  11  -1
M  END
>  <filename_input>  (20) 
7SCW_GSP_docked.sdf

>  <pdb_id>  (20) 
7SCW_GSP

>  <pose_rank>  (20) 
19

>  <num_atoms_heavy>  (20) 
32

>  <num_torsions>  (20) 
8

>  <pose>  (20) 
[27.733954220886712, 24.14292010335923, -3.676220250956871, 0.3189160381786496, -0.10543711837259097, -0.199712177417527, 12.132866760261274, -36.912837996752, -13.169692243986638, 7.559212719859482, 13.04416496892673, -10.353002032429046, 0.42739503354922254, -7.7726612576278]

>  <energy>  (20) 
-1468.453784404671

>  <inter_energy>  (20) 
-1512.729972962586

>  <intra_energy>  (20) 
33.093009478624126

>  <rmsd>  (20) 
1.68613

>  <sdf_rank>  (20) 
0

$$$$

     RDKit          3D

 46 48  0  0  0  0  0  0  0  0999 V2000
   26.0622   24.9558   -8.4050 P   0  0  1  0  0  0  0  0  0  0  0  0
   27.1497   23.9731   -7.6727 O   0  0  0  0  0  0  0  0  0  0  0  0
   24.4997   24.7725   -7.3533 S   0  0  0  0  0  0  0  0  0  0  0  0
   26.4667   26.3800   -8.4111 O   0  0  0  0  0  0  0  0  0  0  0  0
   25.8385   24.6361   -9.8746 O   0  0  0  0  0  0  0  0  0  0  0  0
   28.2016   24.4202   -6.5889 P   0  0  1  0  0  0  0  0  0  0  0  0
   29.1806   23.3511   -6.3635 O   0  0  0  0  0  0  0  0  0  0  0  0
   28.6829   25.7675   -6.8654 O   0  0  0  0  0  0  0  0  0  0  0  0
   27.1143   23.2351   -4.1950 P   0  0  1  0  0  0  0  0  0  0  0  0
   25.7202   22.7817   -4.1121 O   0  0  0  0  0  0  0  0  0  0  0  0
   28.1031   22.1967   -4.4564 O   0  0  0  0  0  0  0  0  0  0  0  0
   27.2759   24.4370   -5.2724 O   0  0  0  0  0  0  0  0  0  0  0  0
   27.3364   24.0819   -2.8681 O   0  0  0  0  0  0  0  0  0  0  0  0
   28.5096   24.8916   -2.6815 C   0  0  0  0  0  0  0  0  0  0  0  0
   29.1099   24.7230   -1.2985 C   0  0  1  0  0  0  0  0  0  0  0  0
   30.3133   23.9757   -1.3579 O   0  0  0  0  0  0  0  0  0  0  0  0
   29.4769   26.0525   -0.6615 C   0  0  1  0  0  0  0  0  0  0  0  0
   29.4060   25.8961    0.7106 O   0  0  0  0  0  0  0  0  0  0  0  0
   30.9509   26.2246   -0.9678 C   0  0  1  0  0  0  0  0  0  0  0  0
   31.6070   26.9988    0.0048 O   0  0  0  0  0  0  0  0  0  0  0  0
   31.4255   24.7508   -0.8849 C   0  0  2  0  0  0  0  0  0  0  0  0
   32.5650   24.4310   -1.7571 N   0  0  0  0  0  0  0  0  0  0  0  0
   33.8706   24.8253   -1.5478 C   0  0  0  0  0  0  0  0  0  0  0  0
   34.6394   24.3831   -2.5704 N   0  0  0  0  0  0  0  0  0  0  0  0
   33.8527   23.6537   -3.4085 C   0  0  0  0  0  0  0  0  0  0  0  0
   34.1069   22.9561   -4.6099 C   0  0  0  0  0  0  0  0  0  0  0  0
   35.2232   22.8917   -5.2013 O   0  0  0  0  0  0  0  0  0  0  0  0
   33.0263   22.3403   -5.1920 N   0  0  0  0  0  0  0  0  0  0  0  0
   31.7531   22.4281   -4.6230 C   0  0  0  0  0  0  0  0  0  0  0  0
   30.7348   21.8553   -5.1948 N   0  0  0  0  0  0  0  0  0  0  0  0
   31.4817   23.1152   -3.4845 N   0  0  0  0  0  0  0  0  0  0  0  0
   32.5393   23.7250   -2.9010 C   0  0  0  0  0  0  0  0  0  0  0  0
   26.5579   26.7011   -7.4791 H   0  0  0  0  0  0  0  0  0  0  0  0
   25.2725   23.8278   -9.9540 H   0  0  0  0  0  0  0  0  0  0  0  0
   29.2614   24.6036   -3.4312 H   0  0  0  0  0  0  0  0  0  0  0  0
   28.2136   25.9450   -2.7944 H   0  0  0  0  0  0  0  0  0  0  0  0
   28.3376   24.2125   -0.7045 H   0  0  0  0  0  0  0  0  0  0  0  0
   28.8367   26.8760   -1.0107 H   0  0  0  0  0  0  0  0  0  0  0  0
   29.7716   26.7023    1.1539 H   0  0  0  0  0  0  0  0  0  0  0  0
   31.1516   26.7398   -1.9188 H   0  0  0  0  0  0  0  0  0  0  0  0
   31.3434   26.6878    0.9070 H   0  0  0  0  0  0  0  0  0  0  0  0
   31.7484   24.5466    0.1466 H   0  0  0  0  0  0  0  0  0  0  0  0
   34.2300   25.4069   -0.6861 H   0  0  0  0  0  0  0  0  0  0  0  0
   33.1564   21.8048   -6.0622 H   0  0  0  0  0  0  0  0  0  0  0  0
   29.7993   21.9244   -4.7695 H   0  0  0  0  0  0  0  0  0  0  0  0
   30.8641   21.3326   -6.0729 H   0  0  0  0  0  0  0  0  0  0  0  0
  1  2  1  1
  1  3  2  0
  1  4  1  0
  1  5  1  0
  2  6  1  0
  6  7  2  0
  6  8  1  6
  6 12  1  0
  9 10  2  0
  9 11  1  6
  9 12  1  0
  9 13  1  0
 13 14  1  0
 15 14  1  0
 15 16  1  0
 15 17  1  0
 16 21  1  0
 17 18  1  0
 17 19  1  0
 19 20  1  0
 19 21  1  0
 21 22  1  0
 22 23  1  0
 22 32  1  0
 23 24  2  0
 24 25  1  0
 25 26  1  0
 25 32  2  0
 26 27  2  0
 26 28  1  0
 28 29  1  0
 29 30  1  0
 29 31  2  0
 31 32  1  0
  4 33  1  0
  5 34  1  0
 14 35  1  0
 14 36  1  0
 15 37  1  1
 17 38  1  6
 18 39  1  0
 19 40  1  6
 20 41  1  0
 21 42  1  1
 23 43  1  0
 28 44  1  0
 30 45  1  0
 30 46  1  0
M  CHG  2   8  -1  11  -1
M  END
>  <filename_input>  (21) 
7SCW_GSP_docked.sdf

>  <pdb_id>  (21) 
7SCW_GSP

>  <pose_rank>  (21) 
20

>  <num_atoms_heavy>  (21) 
32

>  <num_torsions>  (21) 
8

>  <pose>  (21) 
[29.109949639686512, 24.723020648971524, -1.2985076310975194, 0.9320773589109188, -0.12152097800780855, -0.312357950651746, -16.69107610070162, 15.535183991032799, -24.894682167226097, 12.748971955913023, -7.232702139595109, -9.035694220170484, -7.643888263098048, -4.94720905933489]

>  <energy>  (21) 
-487.00783785521196

>  <inter_energy>  (21) 
-610.1119202016284

>  <intra_energy>  (21) 
119.30776309530589

>  <rmsd>  (21) 
4.67819

>  <sdf_rank>  (21) 
0

$$$$

     RDKit          3D

 46 48  0  0  0  0  0  0  0  0999 V2000
   23.1870   17.8287   -7.4264 P   0  0  1  0  0  0  0  0  0  0  0  0
   24.2652   19.0545   -7.2869 O   0  0  0  0  0  0  0  0  0  0  0  0
   23.4614   17.1760   -9.1814 S   0  0  0  0  0  0  0  0  0  0  0  0
   23.4223   16.7260   -6.4670 O   0  0  0  0  0  0  0  0  0  0  0  0
   21.7490   18.2428   -7.1572 O   0  0  0  0  0  0  0  0  0  0  0  0
   24.0549   20.3653   -6.4390 P   0  0  1  0  0  0  0  0  0  0  0  0
   23.8657   21.5171   -7.3277 O   0  0  0  0  0  0  0  0  0  0  0  0
   23.0918   20.1363   -5.3699 O   0  0  0  0  0  0  0  0  0  0  0  0
   26.4321   21.8910   -5.8573 P   0  0  1  0  0  0  0  0  0  0  0  0
   27.1458   22.0053   -7.1353 O   0  0  0  0  0  0  0  0  0  0  0  0
   25.6287   23.0456   -5.4756 O   0  0  0  0  0  0  0  0  0  0  0  0
   25.5258   20.5464   -5.8112 O   0  0  0  0  0  0  0  0  0  0  0  0
   27.5500   21.4528   -4.8155 O   0  0  0  0  0  0  0  0  0  0  0  0
   28.5881   22.3578   -4.4028 C   0  0  0  0  0  0  0  0  0  0  0  0
   28.0426   23.7190   -4.0143 C   0  0  1  0  0  0  0  0  0  0  0  0
   28.7656   24.2595   -2.9211 O   0  0  0  0  0  0  0  0  0  0  0  0
   28.1668   24.7339   -5.1378 C   0  0  1  0  0  0  0  0  0  0  0  0
   27.1580   25.6659   -4.9772 O   0  0  0  0  0  0  0  0  0  0  0  0
   29.4507   25.4793   -4.8340 C   0  0  1  0  0  0  0  0  0  0  0  0
   29.4296   26.7943   -5.3303 O   0  0  0  0  0  0  0  0  0  0  0  0
   29.4030   25.4937   -3.2842 C   0  0  2  0  0  0  0  0  0  0  0  0
   30.7232   25.4941   -2.6372 N   0  0  0  0  0  0  0  0  0  0  0  0
   31.0444   26.1572   -1.4706 C   0  0  0  0  0  0  0  0  0  0  0  0
   32.3556   25.9650   -1.1949 N   0  0  0  0  0  0  0  0  0  0  0  0
   32.8708   25.1325   -2.1410 C   0  0  0  0  0  0  0  0  0  0  0  0
   34.1566   24.5878   -2.3522 C   0  0  0  0  0  0  0  0  0  0  0  0
   35.1774   24.8134   -1.6402 O   0  0  0  0  0  0  0  0  0  0  0  0
   34.2989   23.7835   -3.4562 N   0  0  0  0  0  0  0  0  0  0  0  0
   33.2258   23.5470   -4.3193 C   0  0  0  0  0  0  0  0  0  0  0  0
   33.3792   22.7978   -5.3716 N   0  0  0  0  0  0  0  0  0  0  0  0
   31.9898   24.0816   -4.1502 N   0  0  0  0  0  0  0  0  0  0  0  0
   31.8373   24.8748   -3.0646 C   0  0  0  0  0  0  0  0  0  0  0  0
   23.3486   17.0717   -5.5423 H   0  0  0  0  0  0  0  0  0  0  0  0
   21.5957   18.2870   -6.1802 H   0  0  0  0  0  0  0  0  0  0  0  0
   29.1109   21.9256   -3.5369 H   0  0  0  0  0  0  0  0  0  0  0  0
   29.2706   22.4986   -5.2540 H   0  0  0  0  0  0  0  0  0  0  0  0
   26.9848   23.5499   -3.7645 H   0  0  0  0  0  0  0  0  0  0  0  0
   28.1329   24.2652   -6.1324 H   0  0  0  0  0  0  0  0  0  0  0  0
   26.9969   25.8148   -4.0118 H   0  0  0  0  0  0  0  0  0  0  0  0
   30.3468   25.0247   -5.2816 H   0  0  0  0  0  0  0  0  0  0  0  0
   29.4194   27.4324   -4.5735 H   0  0  0  0  0  0  0  0  0  0  0  0
   28.8907   26.4117   -2.9603 H   0  0  0  0  0  0  0  0  0  0  0  0
   30.3454   26.7485   -0.8609 H   0  0  0  0  0  0  0  0  0  0  0  0
   35.2114   23.3475   -3.6512 H   0  0  0  0  0  0  0  0  0  0  0  0
   32.5836   22.6279   -6.0033 H   0  0  0  0  0  0  0  0  0  0  0  0
   34.2963   22.3745   -5.5732 H   0  0  0  0  0  0  0  0  0  0  0  0
  1  2  1  1
  1  3  2  0
  1  4  1  0
  1  5  1  0
  2  6  1  0
  6  7  2  0
  6  8  1  1
  6 12  1  0
  9 10  2  0
  9 11  1  1
  9 12  1  0
  9 13  1  0
 13 14  1  0
 15 14  1  0
 15 16  1  0
 15 17  1  0
 16 21  1  0
 17 18  1  0
 17 19  1  0
 19 20  1  0
 19 21  1  0
 21 22  1  0
 22 23  1  0
 22 32  1  0
 23 24  2  0
 24 25  1  0
 25 26  1  0
 25 32  2  0
 26 27  2  0
 26 28  1  0
 28 29  1  0
 29 30  1  0
 29 31  2  0
 31 32  1  0
  4 33  1  0
  5 34  1  0
 14 35  1  0
 14 36  1  0
 15 37  1  1
 17 38  1  6
 18 39  1  0
 19 40  1  1
 20 41  1  0
 21 42  1  6
 23 43  1  0
 28 44  1  0
 30 45  1  0
 30 46  1  0
M  CHG  2   8  -1  11  -1
M  END
>  <filename_input>  (22) 
7SCW_GSP_docked.sdf

>  <pdb_id>  (22) 
7SCW_GSP

>  <pose_rank>  (22) 
21

>  <num_atoms_heavy>  (22) 
32

>  <num_torsions>  (22) 
8

>  <pose>  (22) 
[28.042588313301362, 23.718988919319916, -4.014255299885235, -0.3189089757065078, -0.7855958032456012, 0.45201901490503565, -2.8831642708737952, 3.6017448086905937, -2.8526684377040494, 4.358177475123779, -0.2923210664813897, 4.10957841175619, -0.32766067532212073, -0.7332731741034311]

>  <energy>  (22) 
-685.4283502451702

>  <inter_energy>  (22) 
-750.4018826574878

>  <intra_energy>  (22) 
64.87302984136377

>  <rmsd>  (22) 
2.55549

>  <sdf_rank>  (22) 
0

$$$$

     RDKit          3D

 46 48  0  0  0  0  0  0  0  0999 V2000
   24.4261   19.6967    1.2330 P   0  0  1  0  0  0  0  0  0  0  0  0
   25.4125   20.6576    0.3453 O   0  0  0  0  0  0  0  0  0  0  0  0
   25.3815   18.0695    1.3769 S   0  0  0  0  0  0  0  0  0  0  0  0
   24.1665   20.2173    2.5944 O   0  0  0  0  0  0  0  0  0  0  0  0
   23.0369   19.5274    0.6386 O   0  0  0  0  0  0  0  0  0  0  0  0
   25.1670   22.1824    0.0354 P   0  0  1  0  0  0  0  0  0  0  0  0
   23.8585   22.5987    0.5517 O   0  0  0  0  0  0  0  0  0  0  0  0
   26.3423   22.9721    0.3793 O   0  0  0  0  0  0  0  0  0  0  0  0
   25.8776   22.9583   -2.6499 P   0  0  1  0  0  0  0  0  0  0  0  0
   25.6593   22.4458   -4.0084 O   0  0  0  0  0  0  0  0  0  0  0  0
   25.6691   24.3898   -2.4723 O   0  0  0  0  0  0  0  0  0  0  0  0
   24.9994   22.1322   -1.5645 O   0  0  0  0  0  0  0  0  0  0  0  0
   27.3159   22.4146   -2.2463 O   0  0  0  0  0  0  0  0  0  0  0  0
   28.5174   23.0639   -2.6955 C   0  0  0  0  0  0  0  0  0  0  0  0
   28.9363   24.1962   -1.7770 C   0  0  1  0  0  0  0  0  0  0  0  0
   30.3118   24.0969   -1.4479 O   0  0  0  0  0  0  0  0  0  0  0  0
   28.7605   25.5599   -2.4228 C   0  0  1  0  0  0  0  0  0  0  0  0
   28.5489   26.4804   -1.4129 O   0  0  0  0  0  0  0  0  0  0  0  0
   30.1281   25.8915   -2.9848 C   0  0  1  0  0  0  0  0  0  0  0  0
   30.3539   27.2776   -3.0453 O   0  0  0  0  0  0  0  0  0  0  0  0
   31.0354   25.2504   -1.9031 C   0  0  2  0  0  0  0  0  0  0  0  0
   32.3292   24.7665   -2.4064 N   0  0  0  0  0  0  0  0  0  0  0  0
   33.5570   25.0068   -1.8242 C   0  0  0  0  0  0  0  0  0  0  0  0
   34.5272   24.4412   -2.5799 N   0  0  0  0  0  0  0  0  0  0  0  0
   33.9319   23.7847   -3.6134 C   0  0  0  0  0  0  0  0  0  0  0  0
   34.4336   23.0218   -4.6909 C   0  0  0  0  0  0  0  0  0  0  0  0
   35.6560   22.8034   -4.9315 O   0  0  0  0  0  0  0  0  0  0  0  0
   33.4996   22.5221   -5.5648 N   0  0  0  0  0  0  0  0  0  0  0  0
   32.1377   22.7821   -5.3912 C   0  0  0  0  0  0  0  0  0  0  0  0
   31.2652   22.3178   -6.2369 N   0  0  0  0  0  0  0  0  0  0  0  0
   31.6365   23.5345   -4.3789 N   0  0  0  0  0  0  0  0  0  0  0  0
   32.5476   24.0311   -3.5105 C   0  0  0  0  0  0  0  0  0  0  0  0
   24.4916   19.5653    3.2646 H   0  0  0  0  0  0  0  0  0  0  0  0
   22.3732   19.4465    1.3687 H   0  0  0  0  0  0  0  0  0  0  0  0
   29.3278   22.3211   -2.7342 H   0  0  0  0  0  0  0  0  0  0  0  0
   28.3180   23.4920   -3.6890 H   0  0  0  0  0  0  0  0  0  0  0  0
   28.2934   24.1058   -0.8890 H   0  0  0  0  0  0  0  0  0  0  0  0
   27.9457   25.5723   -3.1617 H   0  0  0  0  0  0  0  0  0  0  0  0
   28.6511   26.0356   -0.5343 H   0  0  0  0  0  0  0  0  0  0  0  0
   30.2854   25.5364   -4.0140 H   0  0  0  0  0  0  0  0  0  0  0  0
   30.4133   27.6426   -2.1269 H   0  0  0  0  0  0  0  0  0  0  0  0
   31.2564   26.0104   -1.1392 H   0  0  0  0  0  0  0  0  0  0  0  0
   33.7213   25.5692   -0.8933 H   0  0  0  0  0  0  0  0  0  0  0  0
   33.8079   21.9462   -6.3611 H   0  0  0  0  0  0  0  0  0  0  0  0
   30.2629   22.5135   -6.1025 H   0  0  0  0  0  0  0  0  0  0  0  0
   31.5765   21.7544   -7.0410 H   0  0  0  0  0  0  0  0  0  0  0  0
  1  2  1  6
  1  3  2  0
  1  4  1  0
  1  5  1  0
  2  6  1  0
  6  7  2  0
  6  8  1  6
  6 12  1  0
  9 10  2  0
  9 11  1  6
  9 12  1  0
  9 13  1  0
 13 14  1  0
 15 14  1  0
 15 16  1  0
 15 17  1  0
 16 21  1  0
 17 18  1  0
 17 19  1  0
 19 20  1  0
 19 21  1  0
 21 22  1  0
 22 23  1  0
 22 32  1  0
 23 24  2  0
 24 25  1  0
 25 26  1  0
 25 32  2  0
 26 27  2  0
 26 28  1  0
 28 29  1  0
 29 30  1  0
 29 31  2  0
 31 32  1  0
  4 33  1  0
  5 34  1  0
 14 35  1  0
 14 36  1  0
 15 37  1  1
 17 38  1  6
 18 39  1  0
 19 40  1  6
 20 41  1  0
 21 42  1  1
 23 43  1  0
 28 44  1  0
 30 45  1  0
 30 46  1  0
M  CHG  2   8  -1  11  -1
M  END
>  <filename_input>  (23) 
7SCW_GSP_docked.sdf

>  <pdb_id>  (23) 
7SCW_GSP

>  <pose_rank>  (23) 
22

>  <num_atoms_heavy>  (23) 
32

>  <num_torsions>  (23) 
8

>  <pose>  (23) 
[28.936344539872113, 24.196190858212887, -1.7769503149863628, -3.258759559930912, 2.8618721711880006, -4.361840138497815, 3.196905541777283, -2.8918600525654705, -2.178792558104111, -1.745843613366033, -2.221835475242303, -0.28031816175314356, 1.4859193521745027, -0.05789851969899978]

>  <energy>  (23) 
-653.4883851575046

>  <inter_energy>  (23) 
-687.6824730675987

>  <intra_energy>  (23) 
29.701903457733284

>  <rmsd>  (23) 
5.21759

>  <sdf_rank>  (23) 
0

$$$$

     RDKit          3D

 46 48  0  0  0  0  0  0  0  0999 V2000
   23.4303   19.4488   -6.6033 P   0  0  1  0  0  0  0  0  0  0  0  0
   24.9063   19.7019   -5.9387 O   0  0  0  0  0  0  0  0  0  0  0  0
   22.2971   19.1811   -5.1115 S   0  0  0  0  0  0  0  0  0  0  0  0
   22.9285   20.6051   -7.3798 O   0  0  0  0  0  0  0  0  0  0  0  0
   23.3944   18.3003   -7.5990 O   0  0  0  0  0  0  0  0  0  0  0  0
   26.1329   20.3731   -6.6642 P   0  0  1  0  0  0  0  0  0  0  0  0
   27.0681   20.9196   -5.6747 O   0  0  0  0  0  0  0  0  0  0  0  0
   26.6483   19.5029   -7.7131 O   0  0  0  0  0  0  0  0  0  0  0  0
   25.3238   23.1412   -6.6899 P   0  0  1  0  0  0  0  0  0  0  0  0
   24.9692   24.1340   -7.7118 O   0  0  0  0  0  0  0  0  0  0  0  0
   24.4763   23.1228   -5.5043 O   0  0  0  0  0  0  0  0  0  0  0  0
   25.4160   21.6523   -7.3274 O   0  0  0  0  0  0  0  0  0  0  0  0
   26.8737   23.3772   -6.4273 O   0  0  0  0  0  0  0  0  0  0  0  0
   27.4124   24.6981   -6.2477 C   0  0  0  0  0  0  0  0  0  0  0  0
   28.9152   24.6824   -6.0410 C   0  0  1  0  0  0  0  0  0  0  0  0
   29.2823   25.4991   -4.9417 O   0  0  0  0  0  0  0  0  0  0  0  0
   29.4404   23.2933   -5.7208 C   0  0  1  0  0  0  0  0  0  0  0  0
   30.7514   23.2279   -6.1556 O   0  0  0  0  0  0  0  0  0  0  0  0
   29.5194   23.2582   -4.2080 C   0  0  1  0  0  0  0  0  0  0  0  0
   30.5177   22.3808   -3.7502 O   0  0  0  0  0  0  0  0  0  0  0  0
   29.9259   24.7260   -3.9173 C   0  0  2  0  0  0  0  0  0  0  0  0
   29.4425   25.2450   -2.6295 N   0  0  0  0  0  0  0  0  0  0  0  0
   30.1334   26.1059   -1.8014 C   0  0  0  0  0  0  0  0  0  0  0  0
   29.3997   26.3384   -0.6879 N   0  0  0  0  0  0  0  0  0  0  0  0
   28.2132   25.6835   -0.8168 C   0  0  0  0  0  0  0  0  0  0  0  0
   27.0747   25.5741    0.0118 C   0  0  0  0  0  0  0  0  0  0  0  0
   26.9424   26.1013    1.1540 O   0  0  0  0  0  0  0  0  0  0  0  0
   26.0546   24.7866   -0.4628 N   0  0  0  0  0  0  0  0  0  0  0  0
   26.1651   24.1242   -1.6881 C   0  0  0  0  0  0  0  0  0  0  0  0
   25.1986   23.3666   -2.1171 N   0  0  0  0  0  0  0  0  0  0  0  0
   27.2601   24.1937   -2.4870 N   0  0  0  0  0  0  0  0  0  0  0  0
   28.2712   24.9681   -2.0303 C   0  0  0  0  0  0  0  0  0  0  0  0
   22.6217   21.3120   -6.7582 H   0  0  0  0  0  0  0  0  0  0  0  0
   23.3675   17.4401   -7.1098 H   0  0  0  0  0  0  0  0  0  0  0  0
   27.1842   25.2979   -7.1411 H   0  0  0  0  0  0  0  0  0  0  0  0
   26.9526   25.1299   -5.3465 H   0  0  0  0  0  0  0  0  0  0  0  0
   29.3444   25.0471   -6.9858 H   0  0  0  0  0  0  0  0  0  0  0  0
   28.8240   22.4986   -6.1664 H   0  0  0  0  0  0  0  0  0  0  0  0
   31.3574   23.1977   -5.3733 H   0  0  0  0  0  0  0  0  0  0  0  0
   28.5961   22.9113   -3.7211 H   0  0  0  0  0  0  0  0  0  0  0  0
   30.5237   22.3755   -2.7602 H   0  0  0  0  0  0  0  0  0  0  0  0
   31.0240   24.7844   -3.8907 H   0  0  0  0  0  0  0  0  0  0  0  0
   31.1238   26.5352   -2.0128 H   0  0  0  0  0  0  0  0  0  0  0  0
   25.1940   24.6827    0.0935 H   0  0  0  0  0  0  0  0  0  0  0  0
   25.2872   22.8814   -3.0214 H   0  0  0  0  0  0  0  0  0  0  0  0
   24.3447   23.2521   -1.5527 H   0  0  0  0  0  0  0  0  0  0  0  0
  1  2  1  1
  1  3  2  0
  1  4  1  0
  1  5  1  0
  2  6  1  0
  6  7  2  0
  6  8  1  6
  6 12  1  0
  9 10  2  0
  9 11  1  1
  9 12  1  0
  9 13  1  0
 13 14  1  0
 15 14  1  0
 15 16  1  0
 15 17  1  0
 16 21  1  0
 17 18  1  0
 17 19  1  0
 19 20  1  0
 19 21  1  0
 21 22  1  0
 22 23  1  0
 22 32  1  0
 23 24  2  0
 24 25  1  0
 25 26  1  0
 25 32  2  0
 26 27  2  0
 26 28  1  0
 28 29  1  0
 29 30  1  0
 29 31  2  0
 31 32  1  0
  4 33  1  0
  5 34  1  0
 14 35  1  0
 14 36  1  0
 15 37  1  6
 17 38  1  6
 18 39  1  0
 19 40  1  1
 20 41  1  0
 21 42  1  1
 23 43  1  0
 28 44  1  0
 30 45  1  0
 30 46  1  0
M  CHG  2   8  -1  11  -1
M  END
>  <filename_input>  (24) 
7SCW_GSP_docked.sdf

>  <pdb_id>  (24) 
7SCW_GSP

>  <pose_rank>  (24) 
23

>  <num_atoms_heavy>  (24) 
32

>  <num_torsions>  (24) 
8

>  <pose>  (24) 
[28.91519352356854, 24.682403235998752, -6.040962394351583, 2.7794035641400896, 1.3070836569459352, 1.7451486110501575, -9.18480587419226, -20.07010477884886, 5.7593007951477935, -14.91395652573785, 3.9878854125033545, -2.7706750701483736, -1.959479970827092, 0.15913000570758642]

>  <energy>  (24) 
-523.3477150461832

>  <inter_energy>  (24) 
-567.1748870097232

>  <intra_energy>  (24) 
54.52853794091673

>  <rmsd>  (24) 
4.94226

>  <sdf_rank>  (24) 
0

$$$$

     RDKit          3D

 46 48  0  0  0  0  0  0  0  0999 V2000
   22.1835   26.0016    2.3712 P   0  0  1  0  0  0  0  0  0  0  0  0
   23.2694   24.7827    2.5099 O   0  0  0  0  0  0  0  0  0  0  0  0
   20.6736   25.3798    3.3278 S   0  0  0  0  0  0  0  0  0  0  0  0
   22.6423   27.2707    2.9802 O   0  0  0  0  0  0  0  0  0  0  0  0
   21.8688   26.3825    0.9332 O   0  0  0  0  0  0  0  0  0  0  0  0
   23.1778   23.3891    1.7812 P   0  0  1  0  0  0  0  0  0  0  0  0
   23.3063   22.3000    2.7556 O   0  0  0  0  0  0  0  0  0  0  0  0
   22.0585   23.3698    0.8486 O   0  0  0  0  0  0  0  0  0  0  0  0
   24.7672   23.8611   -0.5786 P   0  0  1  0  0  0  0  0  0  0  0  0
   24.0115   22.9997   -1.4966 O   0  0  0  0  0  0  0  0  0  0  0  0
   24.5177   25.2916   -0.7033 O   0  0  0  0  0  0  0  0  0  0  0  0
   24.5632   23.3959    0.9620 O   0  0  0  0  0  0  0  0  0  0  0  0
   26.2792   23.4054   -0.7601 O   0  0  0  0  0  0  0  0  0  0  0  0
   26.8163   23.0831   -2.0541 C   0  0  0  0  0  0  0  0  0  0  0  0
   26.8231   24.2791   -2.9874 C   0  0  1  0  0  0  0  0  0  0  0  0
   27.8142   25.2161   -2.6003 O   0  0  0  0  0  0  0  0  0  0  0  0
   27.1522   23.8932   -4.4194 C   0  0  1  0  0  0  0  0  0  0  0  0
   26.5525   24.8188   -5.2536 O   0  0  0  0  0  0  0  0  0  0  0  0
   28.6407   24.1467   -4.5469 C   0  0  1  0  0  0  0  0  0  0  0  0
   29.0134   24.4607   -5.8654 O   0  0  0  0  0  0  0  0  0  0  0  0
   28.7883   25.3955   -3.6397 C   0  0  2  0  0  0  0  0  0  0  0  0
   30.0959   25.5129   -2.9780 N   0  0  0  0  0  0  0  0  0  0  0  0
   30.3693   26.2958   -1.8752 C   0  0  0  0  0  0  0  0  0  0  0  0
   31.6823   26.1863   -1.5650 N   0  0  0  0  0  0  0  0  0  0  0  0
   32.2476   25.2911   -2.4210 C   0  0  0  0  0  0  0  0  0  0  0  0
   33.5581   24.7840   -2.5624 C   0  0  0  0  0  0  0  0  0  0  0  0
   34.5563   25.1187   -1.8613 O   0  0  0  0  0  0  0  0  0  0  0  0
   33.7524   23.8862   -3.5832 N   0  0  0  0  0  0  0  0  0  0  0  0
   32.7051   23.5241   -4.4343 C   0  0  0  0  0  0  0  0  0  0  0  0
   32.9074   22.6864   -5.4087 N   0  0  0  0  0  0  0  0  0  0  0  0
   31.4455   24.0193   -4.3332 N   0  0  0  0  0  0  0  0  0  0  0  0
   31.2417   24.9039   -3.3298 C   0  0  0  0  0  0  0  0  0  0  0  0
   22.6140   27.1925    3.9667 H   0  0  0  0  0  0  0  0  0  0  0  0
   21.2382   27.1457    0.9244 H   0  0  0  0  0  0  0  0  0  0  0  0
   27.8491   22.7254   -1.9297 H   0  0  0  0  0  0  0  0  0  0  0  0
   26.1752   22.3097   -2.5021 H   0  0  0  0  0  0  0  0  0  0  0  0
   25.8100   24.7033   -2.9269 H   0  0  0  0  0  0  0  0  0  0  0  0
   26.8396   22.8663   -4.6597 H   0  0  0  0  0  0  0  0  0  0  0  0
   26.1032   25.5122   -4.7083 H   0  0  0  0  0  0  0  0  0  0  0  0
   29.2650   23.2821   -4.2772 H   0  0  0  0  0  0  0  0  0  0  0  0
   29.7704   25.0985   -5.8514 H   0  0  0  0  0  0  0  0  0  0  0  0
   28.6659   26.2942   -4.2620 H   0  0  0  0  0  0  0  0  0  0  0  0
   29.6362   26.9117   -1.3337 H   0  0  0  0  0  0  0  0  0  0  0  0
   34.6853   23.4729   -3.7237 H   0  0  0  0  0  0  0  0  0  0  0  0
   32.1305   22.4242   -6.0321 H   0  0  0  0  0  0  0  0  0  0  0  0
   33.8445   22.2854   -5.5569 H   0  0  0  0  0  0  0  0  0  0  0  0
  1  2  1  6
  1  3  2  0
  1  4  1  0
  1  5  1  0
  2  6  1  0
  6  7  2  0
  6  8  1  6
  6 12  1  0
  9 10  2  0
  9 11  1  1
  9 12  1  0
  9 13  1  0
 13 14  1  0
 15 14  1  0
 15 16  1  0
 15 17  1  0
 16 21  1  0
 17 18  1  0
 17 19  1  0
 19 20  1  0
 19 21  1  0
 21 22  1  0
 22 23  1  0
 22 32  1  0
 23 24  2  0
 24 25  1  0
 25 26  1  0
 25 32  2  0
 26 27  2  0
 26 28  1  0
 28 29  1  0
 29 30  1  0
 29 31  2  0
 31 32  1  0
  4 33  1  0
  5 34  1  0
 14 35  1  0
 14 36  1  0
 15 37  1  6
 17 38  1  6
 18 39  1  0
 19 40  1  1
 20 41  1  0
 21 42  1  6
 23 43  1  0
 28 44  1  0
 30 45  1  0
 30 46  1  0
M  CHG  2   8  -1  11  -1
M  END
>  <filename_input>  (25) 
7SCW_GSP_docked.sdf

>  <pdb_id>  (25) 
7SCW_GSP

>  <pose_rank>  (25) 
24

>  <num_atoms_heavy>  (25) 
32

>  <num_torsions>  (25) 
8

>  <pose>  (25) 
[26.82313701055793, 24.279131689697504, -2.9873996548238906, 4.308494519366929, 1.6178840082567028, -1.3693880592946943, 4.340913430408315, -10.212082087348458, -2.5745613982604585, -2.450999684864852, 0.04506901900152015, 0.20810794561162496, 5.633404870032788, -2.047584343841842]

>  <energy>  (25) 
-393.675560926357

>  <inter_energy>  (25) 
-439.16217760032134

>  <intra_energy>  (25) 
46.46868749074875

>  <rmsd>  (25) 
6.88064

>  <sdf_rank>  (25) 
0

$$$$

     RDKit          3D

 46 48  0  0  0  0  0  0  0  0999 V2000
   23.3210   18.2670   -6.9970 P   0  0  1  0  0  0  0  0  0  0  0  0
   24.6800   18.9270   -6.3630 O   0  0  0  0  0  0  0  0  0  0  0  0
   21.9670   18.7310   -5.7590 S   0  0  0  0  0  0  0  0  0  0  0  0
   22.9620   18.8190   -8.3230 O   0  0  0  0  0  0  0  0  0  0  0  0
   23.4230   16.7700   -7.2430 O   0  0  0  0  0  0  0  0  0  0  0  0
   26.0740   19.0250   -7.0900 P   0  0  1  0  0  0  0  0  0  0  0  0
   26.8800   17.8340   -6.8000 O   0  0  0  0  0  0  0  0  0  0  0  0
   25.9020   19.4370   -8.4770 O   0  0  0  0  0  0  0  0  0  0  0  0
   27.0040   21.7360   -6.7690 P   0  0  1  0  0  0  0  0  0  0  0  0
   27.9680   21.7690   -7.8760 O   0  0  0  0  0  0  0  0  0  0  0  0
   25.7260   22.3890   -7.0230 O   0  0  0  0  0  0  0  0  0  0  0  0
   26.7570   20.2180   -6.2530 O   0  0  0  0  0  0  0  0  0  0  0  0
   27.8190   22.2770   -5.5160 O   0  0  0  0  0  0  0  0  0  0  0  0
   27.2130   22.3880   -4.2170 C   0  0  0  0  0  0  0  0  0  0  0  0
   27.7920   23.5340   -3.4090 C   0  0  1  0  0  0  0  0  0  0  0  0
   29.1710   23.3260   -3.1540 O   0  0  0  0  0  0  0  0  0  0  0  0
   27.7000   24.8620   -4.1410 C   0  0  1  0  0  0  0  0  0  0  0  0
   27.6390   25.8640   -3.1900 O   0  0  0  0  0  0  0  0  0  0  0  0
   29.0530   25.0230   -4.8040 C   0  0  1  0  0  0  0  0  0  0  0  0
   29.4000   26.3740   -4.9780 O   0  0  0  0  0  0  0  0  0  0  0  0
   29.9660   24.3720   -3.7330 C   0  0  2  0  0  0  0  0  0  0  0  0
   31.1750   23.7340   -4.2740 N   0  0  0  0  0  0  0  0  0  0  0  0
   31.2070   22.8300   -5.3160 C   0  0  0  0  0  0  0  0  0  0  0  0
   32.4830   22.4250   -5.5160 N   0  0  0  0  0  0  0  0  0  0  0  0
   33.2850   23.1060   -4.6520 C   0  0  0  0  0  0  0  0  0  0  0  0
   34.6780   23.1020   -4.4190 C   0  0  0  0  0  0  0  0  0  0  0  0
   35.5220   22.3740   -5.0170 O   0  0  0  0  0  0  0  0  0  0  0  0
   35.1270   23.9340   -3.4230 N   0  0  0  0  0  0  0  0  0  0  0  0
   34.2380   24.7160   -2.6810 C   0  0  0  0  0  0  0  0  0  0  0  0
   34.6750   25.4860   -1.7280 N   0  0  0  0  0  0  0  0  0  0  0  0
   32.8940   24.7150   -2.8700 N   0  0  0  0  0  0  0  0  0  0  0  0
   32.4400   23.9000   -3.8500 C   0  0  0  0  0  0  0  0  0  0  0  0
   22.4262   19.6428   -8.2034 H   0  0  0  0  0  0  0  0  0  0  0  0
   23.4554   16.2944   -6.3753 H   0  0  0  0  0  0  0  0  0  0  0  0
   26.1330   22.5541   -4.3433 H   0  0  0  0  0  0  0  0  0  0  0  0
   27.4141   21.4548   -3.6704 H   0  0  0  0  0  0  0  0  0  0  0  0
   27.2022   23.5651   -2.4810 H   0  0  0  0  0  0  0  0  0  0  0  0
   26.8437   24.9028   -4.8303 H   0  0  0  0  0  0  0  0  0  0  0  0
   27.6634   25.4624   -2.2854 H   0  0  0  0  0  0  0  0  0  0  0  0
   29.1104   24.5864   -5.8120 H   0  0  0  0  0  0  0  0  0  0  0  0
   29.5102   26.8031   -4.0926 H   0  0  0  0  0  0  0  0  0  0  0  0
   30.3043   25.1568   -3.0404 H   0  0  0  0  0  0  0  0  0  0  0  0
   30.3336   22.4919   -5.8930 H   0  0  0  0  0  0  0  0  0  0  0  0
   36.1356   23.9824   -3.2196 H   0  0  0  0  0  0  0  0  0  0  0  0
   34.0137   26.0596   -1.1853 H   0  0  0  0  0  0  0  0  0  0  0  0
   35.6823   25.5221   -1.5161 H   0  0  0  0  0  0  0  0  0  0  0  0
  1  2  1  1
  1  3  2  0
  1  4  1  0
  1  5  1  0
  2  6  1  0
  6  7  2  0
  6  8  1  6
  6 12  1  0
  9 10  2  0
  9 11  1  6
  9 12  1  0
  9 13  1  0
 13 14  1  0
 15 14  1  0
 15 16  1  0
 15 17  1  0
 16 21  1  0
 17 18  1  0
 17 19  1  0
 19 20  1  0
 19 21  1  0
 21 22  1  0
 22 23  1  0
 22 32  1  0
 23 24  2  0
 24 25  1  0
 25 26  1  0
 25 32  2  0
 26 27  2  0
 26 28  1  0
 28 29  1  0
 29 30  1  0
 29 31  2  0
 31 32  1  0
  4 33  1  0
  5 34  1  0
 14 35  1  0
 14 36  1  0
 15 37  1  1
 17 38  1  6
 18 39  1  0
 19 40  1  6
 20 41  1  0
 21 42  1  1
 23 43  1  0
 28 44  1  0
 30 45  1  0
 30 46  1  0
M  CHG  2   8  -1  11  -1
M  END
>  <filename_input>  (26) 
7SCW_GSP_docked.sdf

>  <pdb_id>  (26) 
7SCW_GSP

>  <pose_rank>  (26) 
25

>  <num_atoms_heavy>  (26) 
32

>  <num_torsions>  (26) 
8

>  <pose>  (26) 
[27.792, 23.534, -3.409, 1e-06, 1e-06, 1e-06, 0.0, 0.0, 0.0, 0.0, 0.0, 0.0, 0.0, 0.0]

>  <energy>  (26) 
-1594.5991673838491

>  <inter_energy>  (26) 
-1635.015835413801

>  <intra_energy>  (26) 
15.320150612266241

>  <rmsd>  (26) 
0.0

>  <sdf_rank>  (26) 
0

$$$$
