
     RDKit          3D

 36 36  0  0  0  0  0  0  0  0999 V2000
   11.5813   -1.2340   -5.6875 C   0  0  2  0  0  0  0  0  0  0  0  0
   11.8575   -0.1936   -4.7524 O   0  0  0  0  0  0  0  0  0  0  0  0
   12.8908   -1.8709   -6.1212 C   0  0  2  0  0  0  0  0  0  0  0  0
   13.7191   -0.8739   -6.6994 O   0  0  0  0  0  0  0  0  0  0  0  0
   12.5758   -2.9448   -7.1440 C   0  0  2  0  0  0  0  0  0  0  0  0
   13.7557   -3.6057   -7.5595 O   0  0  0  0  0  0  0  0  0  0  0  0
   11.9551   -2.3080   -8.3838 C   0  0  1  0  0  0  0  0  0  0  0  0
   11.8295   -3.3150   -9.3870 O   0  0  0  0  0  0  0  0  0  0  0  0
   10.6252   -1.6885   -7.9840 C   0  0  2  0  0  0  0  0  0  0  0  0
   10.0785   -1.0728   -9.1557 O   0  0  0  0  0  0  0  0  0  0  0  0
   10.8707   -0.6429   -6.9082 C   0  0  1  0  0  0  0  0  0  0  0  0
    9.6259   -0.1128   -6.4261 O   0  0  0  0  0  0  0  0  0  0  0  0
   11.8211   -0.4392   -3.1599 P   0  0  2  0  0  0  0  0  0  0  0  0
   12.3745    0.8032   -2.5089 O   0  0  0  0  0  0  0  0  0  0  0  0
   12.6625   -1.6430   -2.8017 O   0  0  0  0  0  0  0  0  0  0  0  0
   10.4151   -0.6718   -2.6701 O   0  0  0  0  0  0  0  0  0  0  0  0
   14.5594   -4.6847   -6.7033 P   0  0  2  0  0  0  0  0  0  0  0  0
   15.6507   -5.2545   -7.5886 O   0  0  0  0  0  0  0  0  0  0  0  0
   13.6081   -5.7680   -6.2874 O   0  0  0  0  0  0  0  0  0  0  0  0
   15.1666   -3.9958   -5.5169 O   0  0  0  0  0  0  0  0  0  0  0  0
   12.2958   -3.1023  -10.9297 P   0  0  1  0  0  0  0  0  0  0  0  0
   13.7020   -3.6289  -11.0989 O   0  0  0  0  0  0  0  0  0  0  0  0
   11.3866   -3.8543  -11.8684 O   0  0  0  0  0  0  0  0  0  0  0  0
   12.2492   -1.6209  -11.2121 O   0  0  0  0  0  0  0  0  0  0  0  0
    8.6342   -1.4640   -9.7492 P   0  0  2  0  0  0  0  0  0  0  0  0
    8.4947   -2.9721   -9.7064 O   0  0  0  0  0  0  0  0  0  0  0  0
    8.4912   -1.0098  -11.1801 O   0  0  0  0  0  0  0  0  0  0  0  0
    7.5909   -0.7878   -8.8913 O   0  0  0  0  0  0  0  0  0  0  0  0
   10.9362   -1.9937   -5.2220 H   0  0  0  0  0  0  0  0  0  0  0  0
   13.4146   -2.3165   -5.2626 H   0  0  0  0  0  0  0  0  0  0  0  0
   14.1547   -0.3496   -5.9814 H   0  0  0  0  0  0  0  0  0  0  0  0
   11.8853   -3.6610   -6.6747 H   0  0  0  0  0  0  0  0  0  0  0  0
   12.5792   -1.5045   -8.8020 H   0  0  0  0  0  0  0  0  0  0  0  0
    9.9300   -2.4431   -7.5873 H   0  0  0  0  0  0  0  0  0  0  0  0
   11.4925    0.1340   -7.3770 H   0  0  0  0  0  0  0  0  0  0  0  0
    9.6281   -0.1137   -5.4361 H   0  0  0  0  0  0  0  0  0  0  0  0
  1  2  1  0
  1  3  1  0
  1 11  1  0
  2 13  1  0
  3  4  1  0
  3  5  1  0
  5  6  1  0
  5  7  1  0
  6 17  1  0
  7  8  1  0
  7  9  1  0
  8 21  1  0
  9 10  1  0
  9 11  1  0
 10 25  1  0
 11 12  1  0
 13 14  2  0
 13 15  1  6
 13 16  1  0
 17 18  2  0
 17 19  1  1
 17 20  1  0
 21 22  1  1
 21 23  1  0
 21 24  2  0
 25 26  1  6
 25 27  2  0
 25 28  1  0
  1 29  1  1
  3 30  1  1
  4 31  1  0
  5 32  1  1
  7 33  1  6
  9 34  1  1
 11 35  1  6
 12 36  1  0
M  CHG  8  15  -1  16  -1  19  -1  20  -1  22  -1  23  -1  26  -1  28  -1
M  END
>  <filename_input>  (1) 
7SDD_4IP_docked.sdf

>  <pdb_id>  (1) 
7SDD_4IP

>  <pose_rank>  (1) 
0

>  <num_atoms_heavy>  (1) 
28

>  <num_torsions>  (1) 
8

>  <pose>  (1) 
[11.58130269724871, -1.23400728907341, -5.687516802917616, 5.078359819668065, 3.335733939985277, 1.1449984932690094, 0.3663202835029614, -2.2452020729977566, -0.025883652695021478, 0.047642602712910175, 12.679635691320838, 1.621759430111085, 12.512487736271598, 4.860790357406259]

>  <energy>  (1) 
-647.5821171170746

>  <inter_energy>  (1) 
-657.3563317636984

>  <intra_energy>  (1) 
15.629836347560598

>  <rmsd>  (1) 
0.842033

>  <sdf_rank>  (1) 
0

$$$$

     RDKit          3D

 36 36  0  0  0  0  0  0  0  0999 V2000
    9.8865   -0.2632   -7.0375 C   0  0  2  0  0  0  0  0  0  0  0  0
    8.4609   -0.2805   -7.0597 O   0  0  0  0  0  0  0  0  0  0  0  0
   10.4097   -1.3484   -7.9633 C   0  0  2  0  0  0  0  0  0  0  0  0
    9.9093   -2.6042   -7.5305 O   0  0  0  0  0  0  0  0  0  0  0  0
   11.9241   -1.3379   -7.8922 C   0  0  2  0  0  0  0  0  0  0  0  0
   12.4757   -2.3039   -8.7664 O   0  0  0  0  0  0  0  0  0  0  0  0
   12.3752   -1.6980   -6.4799 C   0  0  1  0  0  0  0  0  0  0  0  0
   13.7945   -1.8462   -6.4891 O   0  0  0  0  0  0  0  0  0  0  0  0
   11.8906   -0.6097   -5.5348 C   0  0  2  0  0  0  0  0  0  0  0  0
   12.2997   -0.9857   -4.2148 O   0  0  0  0  0  0  0  0  0  0  0  0
   10.3745   -0.5286   -5.6106 C   0  0  1  0  0  0  0  0  0  0  0  0
    9.8869    0.5625   -4.8139 O   0  0  0  0  0  0  0  0  0  0  0  0
    7.6038    0.7591   -7.9441 P   0  0  2  0  0  0  0  0  0  0  0  0
    7.4039    0.1267   -9.2982 O   0  0  0  0  0  0  0  0  0  0  0  0
    8.3515    2.0663   -8.0767 O   0  0  0  0  0  0  0  0  0  0  0  0
    6.2594    1.0346   -7.3217 O   0  0  0  0  0  0  0  0  0  0  0  0
   12.2098   -2.3862  -10.3367 P   0  0  2  0  0  0  0  0  0  0  0  0
   13.3516   -1.6734  -11.0348 O   0  0  0  0  0  0  0  0  0  0  0  0
   10.9084   -1.7020  -10.6365 O   0  0  0  0  0  0  0  0  0  0  0  0
   12.1814   -3.8308  -10.7404 O   0  0  0  0  0  0  0  0  0  0  0  0
   14.5479   -3.2530   -6.1795 P   0  0  1  0  0  0  0  0  0  0  0  0
   15.6057   -3.0264   -5.1245 O   0  0  0  0  0  0  0  0  0  0  0  0
   13.5695   -4.2779   -5.6643 O   0  0  0  0  0  0  0  0  0  0  0  0
   15.1791   -3.7170   -7.4690 O   0  0  0  0  0  0  0  0  0  0  0  0
   11.9293   -0.1182   -2.9104 P   0  0  2  0  0  0  0  0  0  0  0  0
   12.0756    1.3494   -3.2575 O   0  0  0  0  0  0  0  0  0  0  0  0
   12.8564   -0.4343   -1.7638 O   0  0  0  0  0  0  0  0  0  0  0  0
   10.5079   -0.4565   -2.5270 O   0  0  0  0  0  0  0  0  0  0  0  0
   10.2539    0.7181   -7.3723 H   0  0  0  0  0  0  0  0  0  0  0  0
   10.0842   -1.1722   -8.9991 H   0  0  0  0  0  0  0  0  0  0  0  0
    9.8983   -2.6318   -6.5410 H   0  0  0  0  0  0  0  0  0  0  0  0
   12.2649   -0.3313   -8.1759 H   0  0  0  0  0  0  0  0  0  0  0  0
   11.9484   -2.6499   -6.1311 H   0  0  0  0  0  0  0  0  0  0  0  0
   12.3080    0.3727   -5.8006 H   0  0  0  0  0  0  0  0  0  0  0  0
   10.0007   -1.4982   -5.2499 H   0  0  0  0  0  0  0  0  0  0  0  0
    9.9861    0.3405   -3.8542 H   0  0  0  0  0  0  0  0  0  0  0  0
  1  2  1  0
  1  3  1  0
  1 11  1  0
  2 13  1  0
  3  4  1  0
  3  5  1  0
  5  6  1  0
  5  7  1  0
  6 17  1  0
  7  8  1  0
  7  9  1  0
  8 21  1  0
  9 10  1  0
  9 11  1  0
 10 25  1  0
 11 12  1  0
 13 14  2  0
 13 15  1  6
 13 16  1  0
 17 18  2  0
 17 19  1  1
 17 20  1  0
 21 22  1  1
 21 23  1  0
 21 24  2  0
 25 26  1  6
 25 27  2  0
 25 28  1  0
  1 29  1  6
  3 30  1  6
  4 31  1  0
  5 32  1  6
  7 33  1  1
  9 34  1  6
 11 35  1  1
 12 36  1  0
M  CHG  8  15  -1  16  -1  19  -1  20  -1  22  -1  23  -1  26  -1  28  -1
M  END
>  <filename_input>  (2) 
7SDD_4IP_docked.sdf

>  <pdb_id>  (2) 
7SDD_4IP

>  <pose_rank>  (2) 
1

>  <num_atoms_heavy>  (2) 
28

>  <num_torsions>  (2) 
8

>  <pose>  (2) 
[9.886532983088264, -0.26321284807502726, -7.037483995276563, -2.0307941182624587, 1.8292699491175763, 1.6852576057558433, 6.558957835223382, -3.665226391774736, 5.93205613041629, -1.2988903858193526, 0.40609014149086636, -2.2788709017054063, 0.994227353985866, -1.381131665034395]

>  <energy>  (2) 
-398.0353333584492

>  <inter_energy>  (2) 
-486.54542400034137

>  <intra_energy>  (2) 
92.1986049878678

>  <rmsd>  (2) 
5.21634

>  <sdf_rank>  (2) 
0

$$$$

     RDKit          3D

 36 36  0  0  0  0  0  0  0  0999 V2000
   12.6499   -2.7456   -7.4469 C   0  0  2  0  0  0  0  0  0  0  0  0
   13.9590   -3.1758   -7.8137 O   0  0  0  0  0  0  0  0  0  0  0  0
   11.8119   -2.5822   -8.7037 C   0  0  2  0  0  0  0  0  0  0  0  0
   12.4384   -1.6356   -9.5557 O   0  0  0  0  0  0  0  0  0  0  0  0
   10.4394   -2.0860   -8.2929 C   0  0  2  0  0  0  0  0  0  0  0  0
    9.5949   -1.9513   -9.4200 O   0  0  0  0  0  0  0  0  0  0  0  0
   10.5615   -0.7062   -7.6533 C   0  0  1  0  0  0  0  0  0  0  0  0
    9.2462   -0.1975   -7.4356 O   0  0  0  0  0  0  0  0  0  0  0  0
   11.3714   -0.8461   -6.3739 C   0  0  2  0  0  0  0  0  0  0  0  0
   11.4970    0.4644   -5.8099 O   0  0  0  0  0  0  0  0  0  0  0  0
   12.7436   -1.4034   -6.7161 C   0  0  1  0  0  0  0  0  0  0  0  0
   13.4996   -1.6531   -5.5206 O   0  0  0  0  0  0  0  0  0  0  0  0
   14.5481   -4.6081   -7.3674 P   0  0  2  0  0  0  0  0  0  0  0  0
   13.3674   -5.5059   -7.0964 O   0  0  0  0  0  0  0  0  0  0  0  0
   15.3929   -4.4561   -6.1229 O   0  0  0  0  0  0  0  0  0  0  0  0
   15.3963   -5.2179   -8.4534 O   0  0  0  0  0  0  0  0  0  0  0  0
    8.1126   -2.5280   -9.5367 P   0  0  2  0  0  0  0  0  0  0  0  0
    8.2177   -4.0197   -9.7881 O   0  0  0  0  0  0  0  0  0  0  0  0
    7.4277   -1.8532  -10.6887 O   0  0  0  0  0  0  0  0  0  0  0  0
    7.3985   -2.2734   -8.2421 O   0  0  0  0  0  0  0  0  0  0  0  0
    8.6065    1.0235   -8.2974 P   0  0  1  0  0  0  0  0  0  0  0  0
    7.0993    0.9291   -8.2463 O   0  0  0  0  0  0  0  0  0  0  0  0
    9.0228    2.3542   -7.7238 O   0  0  0  0  0  0  0  0  0  0  0  0
    9.0970    0.8758   -9.7166 O   0  0  0  0  0  0  0  0  0  0  0  0
   12.1340    0.7265   -4.3550 P   0  0  2  0  0  0  0  0  0  0  0  0
   11.8734   -0.4931   -3.4946 O   0  0  0  0  0  0  0  0  0  0  0  0
   11.5034    1.9250   -3.6914 O   0  0  0  0  0  0  0  0  0  0  0  0
   13.6138    0.9651   -4.5420 O   0  0  0  0  0  0  0  0  0  0  0  0
   12.1835   -3.4899   -6.7848 H   0  0  0  0  0  0  0  0  0  0  0  0
   11.7173   -3.5378   -9.2402 H   0  0  0  0  0  0  0  0  0  0  0  0
   12.8934   -0.9483   -9.0073 H   0  0  0  0  0  0  0  0  0  0  0  0
   10.0170   -2.8171   -7.5879 H   0  0  0  0  0  0  0  0  0  0  0  0
   11.0884    0.0121   -8.2986 H   0  0  0  0  0  0  0  0  0  0  0  0
   10.8850   -1.5263   -5.6592 H   0  0  0  0  0  0  0  0  0  0  0  0
   13.2260   -0.6495   -7.3557 H   0  0  0  0  0  0  0  0  0  0  0  0
   12.9356   -1.4668   -4.7286 H   0  0  0  0  0  0  0  0  0  0  0  0
  1  2  1  0
  1  3  1  0
  1 11  1  0
  2 13  1  0
  3  4  1  0
  3  5  1  0
  5  6  1  0
  5  7  1  0
  6 17  1  0
  7  8  1  0
  7  9  1  0
  8 21  1  0
  9 10  1  0
  9 11  1  0
 10 25  1  0
 11 12  1  0
 13 14  2  0
 13 15  1  1
 13 16  1  0
 17 18  2  0
 17 19  1  6
 17 20  1  0
 21 22  1  6
 21 23  1  0
 21 24  2  0
 25 26  1  1
 25 27  2  0
 25 28  1  0
  1 29  1  1
  3 30  1  6
  4 31  1  0
  5 32  1  1
  7 33  1  6
  9 34  1  1
 11 35  1  6
 12 36  1  0
M  CHG  8  15  -1  16  -1  19  -1  20  -1  22  -1  23  -1  26  -1  28  -1
M  END
>  <filename_input>  (3) 
7SDD_4IP_docked.sdf

>  <pdb_id>  (3) 
7SDD_4IP

>  <pose_rank>  (3) 
2

>  <num_atoms_heavy>  (3) 
28

>  <num_torsions>  (3) 
8

>  <pose>  (3) 
[12.649949251918592, -2.7456023489743284, -7.4469437998493175, -1.8708486185549045, -3.4074204244749877, 2.1102658801559646, -0.00991047685274685, 1.4655026486401195, 0.9416492716475374, 1.9695969113250453, 0.5315193586491344, 2.697910210462845, 0.8200539832329793, -1.1836563806154896]

>  <energy>  (3) 
-494.94834133479156

>  <inter_energy>  (3) 
-561.5286439592722

>  <intra_energy>  (3) 
83.06438600192764

>  <rmsd>  (3) 
4.88373

>  <sdf_rank>  (3) 
0

$$$$

     RDKit          3D

 36 36  0  0  0  0  0  0  0  0999 V2000
   11.7741   -1.1836   -5.6246 C   0  0  2  0  0  0  0  0  0  0  0  0
   11.4643   -1.3603   -4.2440 O   0  0  0  0  0  0  0  0  0  0  0  0
   10.6250   -0.4553   -6.3011 C   0  0  2  0  0  0  0  0  0  0  0  0
    9.4379   -1.2164   -6.1394 O   0  0  0  0  0  0  0  0  0  0  0  0
   10.9582   -0.3152   -7.7735 C   0  0  2  0  0  0  0  0  0  0  0  0
    9.9406    0.3933   -8.4546 O   0  0  0  0  0  0  0  0  0  0  0  0
   11.0515   -1.6971   -8.4135 C   0  0  1  0  0  0  0  0  0  0  0  0
   11.1954   -1.5271   -9.8230 O   0  0  0  0  0  0  0  0  0  0  0  0
   12.2160   -2.4382   -7.7753 C   0  0  2  0  0  0  0  0  0  0  0  0
   12.2632   -3.7400   -8.3704 O   0  0  0  0  0  0  0  0  0  0  0  0
   11.9682   -2.5538   -6.2800 C   0  0  1  0  0  0  0  0  0  0  0  0
   13.0987   -3.1514   -5.6257 O   0  0  0  0  0  0  0  0  0  0  0  0
   11.4205   -0.1252   -3.2095 P   0  0  2  0  0  0  0  0  0  0  0  0
   11.9631    1.0791   -3.9366 O   0  0  0  0  0  0  0  0  0  0  0  0
   12.2669   -0.4354   -1.9959 O   0  0  0  0  0  0  0  0  0  0  0  0
   10.0132    0.1625   -2.7540 O   0  0  0  0  0  0  0  0  0  0  0  0
   10.0860    1.8603   -9.0628 P   0  0  2  0  0  0  0  0  0  0  0  0
   10.8092    2.7134   -8.0389 O   0  0  0  0  0  0  0  0  0  0  0  0
    8.7129    2.4082   -9.3201 O   0  0  0  0  0  0  0  0  0  0  0  0
   10.8934    1.7756  -10.3245 O   0  0  0  0  0  0  0  0  0  0  0  0
   10.0657   -1.9858  -10.8981 P   0  0  1  0  0  0  0  0  0  0  0  0
    9.3128   -0.7660  -11.3760 O   0  0  0  0  0  0  0  0  0  0  0  0
   10.7055   -2.6512  -12.0902 O   0  0  0  0  0  0  0  0  0  0  0  0
    9.1336   -2.9380  -10.1904 O   0  0  0  0  0  0  0  0  0  0  0  0
   13.6463   -4.4812   -8.7297 P   0  0  2  0  0  0  0  0  0  0  0  0
   13.8952   -5.5545   -7.6897 O   0  0  0  0  0  0  0  0  0  0  0  0
   14.8042   -3.5153   -8.7084 O   0  0  0  0  0  0  0  0  0  0  0  0
   13.4998   -5.0736  -10.1115 O   0  0  0  0  0  0  0  0  0  0  0  0
   12.6978   -0.5953   -5.7283 H   0  0  0  0  0  0  0  0  0  0  0  0
   10.4743    0.5397   -5.8570 H   0  0  0  0  0  0  0  0  0  0  0  0
    9.2514   -1.3360   -5.1745 H   0  0  0  0  0  0  0  0  0  0  0  0
   11.9131    0.2256   -7.8499 H   0  0  0  0  0  0  0  0  0  0  0  0
   10.1471   -2.3006   -8.2465 H   0  0  0  0  0  0  0  0  0  0  0  0
   13.1676   -1.9094   -7.9331 H   0  0  0  0  0  0  0  0  0  0  0  0
   11.0607   -3.1655   -6.1696 H   0  0  0  0  0  0  0  0  0  0  0  0
   12.9825   -3.0899   -4.6444 H   0  0  0  0  0  0  0  0  0  0  0  0
  1  2  1  0
  1  3  1  0
  1 11  1  0
  2 13  1  0
  3  4  1  0
  3  5  1  0
  5  6  1  0
  5  7  1  0
  6 17  1  0
  7  8  1  0
  7  9  1  0
  8 21  1  0
  9 10  1  0
  9 11  1  0
 10 25  1  0
 11 12  1  0
 13 14  2  0
 13 15  1  1
 13 16  1  0
 17 18  2  0
 17 19  1  6
 17 20  1  0
 21 22  1  6
 21 23  1  0
 21 24  2  0
 25 26  1  1
 25 27  2  0
 25 28  1  0
  1 29  1  1
  3 30  1  1
  4 31  1  0
  5 32  1  1
  7 33  1  6
  9 34  1  1
 11 35  1  6
 12 36  1  0
M  CHG  8  15  -1  16  -1  19  -1  20  -1  22  -1  23  -1  26  -1  28  -1
M  END
>  <filename_input>  (4) 
7SDD_4IP_docked.sdf

>  <pdb_id>  (4) 
7SDD_4IP

>  <pose_rank>  (4) 
3

>  <num_atoms_heavy>  (4) 
28

>  <num_torsions>  (4) 
8

>  <pose>  (4) 
[11.774127642153529, -1.1836307813532492, -5.6246466437535965, 0.2588418448111223, 0.7350962087080066, 2.6424347425178523, -5.4849577872381365, -5.383779789936485, 0.5923135487812535, 2.5462068077370934, -5.839565575150844, -4.513076305053186, 0.28156396266920863, -5.139845225050263]

>  <energy>  (4) 
-517.3174187765575

>  <inter_energy>  (4) 
-533.772736341742

>  <intra_energy>  (4) 
21.42910626347794

>  <rmsd>  (4) 
2.32699

>  <sdf_rank>  (4) 
0

$$$$

     RDKit          3D

 36 36  0  0  0  0  0  0  0  0999 V2000
   11.0510   -1.4826   -5.0464 C   0  0  2  0  0  0  0  0  0  0  0  0
   10.7049   -1.7832   -3.6961 O   0  0  0  0  0  0  0  0  0  0  0  0
    9.8119   -1.6121   -5.9161 C   0  0  2  0  0  0  0  0  0  0  0  0
    9.3052   -2.9330   -5.8028 O   0  0  0  0  0  0  0  0  0  0  0  0
   10.2121   -1.3282   -7.3507 C   0  0  2  0  0  0  0  0  0  0  0  0
    9.0892   -1.3940   -8.2088 O   0  0  0  0  0  0  0  0  0  0  0  0
   11.2055   -2.3842   -7.8260 C   0  0  1  0  0  0  0  0  0  0  0  0
   11.4291   -2.1899   -9.2219 O   0  0  0  0  0  0  0  0  0  0  0  0
   12.4701   -2.2563   -6.9912 C   0  0  2  0  0  0  0  0  0  0  0  0
   13.3727   -3.2755   -7.4356 O   0  0  0  0  0  0  0  0  0  0  0  0
   12.1193   -2.4685   -5.5274 C   0  0  1  0  0  0  0  0  0  0  0  0
   13.2690   -2.2467   -4.6954 O   0  0  0  0  0  0  0  0  0  0  0  0
   10.3542   -0.6324   -2.6236 P   0  0  2  0  0  0  0  0  0  0  0  0
   11.1342    0.5949   -3.0220 O   0  0  0  0  0  0  0  0  0  0  0  0
   10.7480   -1.0810   -1.2347 O   0  0  0  0  0  0  0  0  0  0  0  0
    8.8827   -0.3074   -2.6253 O   0  0  0  0  0  0  0  0  0  0  0  0
    8.0845   -0.1922   -8.5077 P   0  0  2  0  0  0  0  0  0  0  0  0
    7.5639   -0.3683   -9.9210 O   0  0  0  0  0  0  0  0  0  0  0  0
    8.8378    1.1001   -8.3880 O   0  0  0  0  0  0  0  0  0  0  0  0
    6.9501   -0.2643   -7.5287 O   0  0  0  0  0  0  0  0  0  0  0  0
   11.3172   -3.3840  -10.3194 P   0  0  1  0  0  0  0  0  0  0  0  0
   12.6799   -3.6297  -10.9243 O   0  0  0  0  0  0  0  0  0  0  0  0
   10.8441   -4.6599   -9.6703 O   0  0  0  0  0  0  0  0  0  0  0  0
   10.3435   -2.9297  -11.3786 O   0  0  0  0  0  0  0  0  0  0  0  0
   13.3365   -4.7787   -6.8607 P   0  0  2  0  0  0  0  0  0  0  0  0
   13.8645   -5.7109   -7.9321 O   0  0  0  0  0  0  0  0  0  0  0  0
   11.9297   -5.1960   -6.5130 O   0  0  0  0  0  0  0  0  0  0  0  0
   14.2011   -4.8136   -5.6225 O   0  0  0  0  0  0  0  0  0  0  0  0
   11.4443   -0.4574   -5.1122 H   0  0  0  0  0  0  0  0  0  0  0  0
    9.0333   -0.9026   -5.5993 H   0  0  0  0  0  0  0  0  0  0  0  0
    9.2141   -3.1706   -4.8460 H   0  0  0  0  0  0  0  0  0  0  0  0
   10.6542   -0.3214   -7.3812 H   0  0  0  0  0  0  0  0  0  0  0  0
   10.8270   -3.4085   -7.6939 H   0  0  0  0  0  0  0  0  0  0  0  0
   12.9291   -1.2627   -7.1012 H   0  0  0  0  0  0  0  0  0  0  0  0
   11.7516   -3.5024   -5.4506 H   0  0  0  0  0  0  0  0  0  0  0  0
   13.0023   -2.2982   -3.7434 H   0  0  0  0  0  0  0  0  0  0  0  0
  1  2  1  0
  1  3  1  0
  1 11  1  0
  2 13  1  0
  3  4  1  0
  3  5  1  0
  5  6  1  0
  5  7  1  0
  6 17  1  0
  7  8  1  0
  7  9  1  0
  8 21  1  0
  9 10  1  0
  9 11  1  0
 10 25  1  0
 11 12  1  0
 13 14  2  0
 13 15  1  1
 13 16  1  0
 17 18  2  0
 17 19  1  6
 17 20  1  0
 21 22  1  6
 21 23  1  0
 21 24  2  0
 25 26  1  6
 25 27  2  0
 25 28  1  0
  1 29  1  1
  3 30  1  1
  4 31  1  0
  5 32  1  1
  7 33  1  6
  9 34  1  1
 11 35  1  6
 12 36  1  0
M  CHG  8  15  -1  16  -1  19  -1  20  -1  22  -1  23  -1  26  -1  28  -1
M  END
>  <filename_input>  (5) 
7SDD_4IP_docked.sdf

>  <pdb_id>  (5) 
7SDD_4IP

>  <pose_rank>  (5) 
4

>  <num_atoms_heavy>  (5) 
28

>  <num_torsions>  (5) 
8

>  <pose>  (5) 
[11.051036343373555, -1.482600989039232, -5.046362814202453, -0.22320210533473056, 0.9891578238587702, 3.1773332841342623, 0.3328392460021191, -5.748681609669026, 6.443504455400131, 5.91273051780275, -18.67763710568059, -2.031545939040515, -3.685203054018504, -4.299282722212096]

>  <energy>  (5) 
-540.0093192649838

>  <inter_energy>  (5) 
-580.1446047445487

>  <intra_energy>  (5) 
43.2604083362698

>  <rmsd>  (5) 
1.43323

>  <sdf_rank>  (5) 
0

$$$$

     RDKit          3D

 36 36  0  0  0  0  0  0  0  0999 V2000
    9.3629    0.6853   -6.5163 C   0  0  2  0  0  0  0  0  0  0  0  0
    8.0596    0.8138   -5.9523 O   0  0  0  0  0  0  0  0  0  0  0  0
    9.3431   -0.4147   -7.5642 C   0  0  2  0  0  0  0  0  0  0  0  0
    8.9319   -1.6273   -6.9518 O   0  0  0  0  0  0  0  0  0  0  0  0
   10.7462   -0.5606   -8.1200 C   0  0  2  0  0  0  0  0  0  0  0  0
   10.7859   -1.5467   -9.1337 O   0  0  0  0  0  0  0  0  0  0  0  0
   11.6933   -1.0135   -7.0129 C   0  0  1  0  0  0  0  0  0  0  0  0
   12.9603   -1.3047   -7.6013 O   0  0  0  0  0  0  0  0  0  0  0  0
   11.7563    0.0850   -5.9631 C   0  0  2  0  0  0  0  0  0  0  0  0
   12.6260   -0.3762   -4.9230 O   0  0  0  0  0  0  0  0  0  0  0  0
   10.3596    0.3224   -5.4120 C   0  0  1  0  0  0  0  0  0  0  0  0
   10.3596    1.4291   -4.4964 O   0  0  0  0  0  0  0  0  0  0  0  0
    6.8126    1.3893   -6.7956 P   0  0  2  0  0  0  0  0  0  0  0  0
    5.9208    0.2177   -7.1201 O   0  0  0  0  0  0  0  0  0  0  0  0
    7.3045    2.0464   -8.0652 O   0  0  0  0  0  0  0  0  0  0  0  0
    6.0306    2.4031   -6.0009 O   0  0  0  0  0  0  0  0  0  0  0  0
   10.0342   -1.4580  -10.5373 P   0  0  2  0  0  0  0  0  0  0  0  0
    9.0162   -2.5807  -10.5860 O   0  0  0  0  0  0  0  0  0  0  0  0
   11.0467   -1.6259  -11.6320 O   0  0  0  0  0  0  0  0  0  0  0  0
    9.3407   -0.1304  -10.6238 O   0  0  0  0  0  0  0  0  0  0  0  0
   13.6017   -2.7977   -7.6478 P   0  0  1  0  0  0  0  0  0  0  0  0
   13.5652   -3.3082   -9.0695 O   0  0  0  0  0  0  0  0  0  0  0  0
   15.0361   -2.7747   -7.1837 O   0  0  0  0  0  0  0  0  0  0  0  0
   12.7632   -3.6742   -6.7504 O   0  0  0  0  0  0  0  0  0  0  0  0
   12.1444   -1.4012   -3.7789 P   0  0  2  0  0  0  0  0  0  0  0  0
   13.3236   -2.2699   -3.3911 O   0  0  0  0  0  0  0  0  0  0  0  0
   11.0353   -2.2931   -4.2773 O   0  0  0  0  0  0  0  0  0  0  0  0
   11.6542   -0.5805   -2.6093 O   0  0  0  0  0  0  0  0  0  0  0  0
    9.6641    1.6353   -6.9820 H   0  0  0  0  0  0  0  0  0  0  0  0
    8.6439   -0.1704   -8.3775 H   0  0  0  0  0  0  0  0  0  0  0  0
    8.9656   -1.5279   -5.9674 H   0  0  0  0  0  0  0  0  0  0  0  0
   11.0469    0.4155   -8.5284 H   0  0  0  0  0  0  0  0  0  0  0  0
   11.3470   -1.9286   -6.5103 H   0  0  0  0  0  0  0  0  0  0  0  0
   12.1312    1.0285   -6.3865 H   0  0  0  0  0  0  0  0  0  0  0  0
   10.0644   -0.6161   -4.9201 H   0  0  0  0  0  0  0  0  0  0  0  0
   10.3596    1.0883   -3.5669 H   0  0  0  0  0  0  0  0  0  0  0  0
  1  2  1  0
  1  3  1  0
  1 11  1  0
  2 13  1  0
  3  4  1  0
  3  5  1  0
  5  6  1  0
  5  7  1  0
  6 17  1  0
  7  8  1  0
  7  9  1  0
  8 21  1  0
  9 10  1  0
  9 11  1  0
 10 25  1  0
 11 12  1  0
 13 14  2  0
 13 15  1  6
 13 16  1  0
 17 18  2  0
 17 19  1  6
 17 20  1  0
 21 22  1  6
 21 23  1  0
 21 24  2  0
 25 26  1  1
 25 27  2  0
 25 28  1  0
  1 29  1  6
  3 30  1  6
  4 31  1  0
  5 32  1  6
  7 33  1  1
  9 34  1  6
 11 35  1  1
 12 36  1  0
M  CHG  8  15  -1  16  -1  19  -1  20  -1  22  -1  23  -1  26  -1  28  -1
M  END
>  <filename_input>  (6) 
7SDD_4IP_docked.sdf

>  <pdb_id>  (6) 
7SDD_4IP

>  <pose_rank>  (6) 
5

>  <num_atoms_heavy>  (6) 
28

>  <num_torsions>  (6) 
8

>  <pose>  (6) 
[9.362936132498223, 0.6853462170618424, -6.516277849133444, 1.3931033079792996, -1.690973925727174, -1.8980495185700597, 0.8120070962624474, 2.9108173872922523, 12.357026581997731, 1.2782166578463763, 13.001329428777474, 1.8718856315831958, 2.6989059795005246, 1.8997853636808923]

>  <energy>  (6) 
-379.46658325103385

>  <inter_energy>  (6) 
-430.40324995148364

>  <intra_energy>  (6) 
51.61411746129987

>  <rmsd>  (6) 
4.27309

>  <sdf_rank>  (6) 
0

$$$$

     RDKit          3D

 36 36  0  0  0  0  0  0  0  0999 V2000
   10.0954    1.0204   -6.8842 C   0  0  2  0  0  0  0  0  0  0  0  0
   10.1189    2.4436   -6.9691 O   0  0  0  0  0  0  0  0  0  0  0  0
   10.9602    0.5794   -5.7154 C   0  0  2  0  0  0  0  0  0  0  0  0
   12.2824    1.0554   -5.9150 O   0  0  0  0  0  0  0  0  0  0  0  0
   10.9528   -0.9361   -5.6700 C   0  0  2  0  0  0  0  0  0  0  0  0
   11.7115   -1.4104   -4.5741 O   0  0  0  0  0  0  0  0  0  0  0  0
   11.5952   -1.4918   -6.9374 C   0  0  1  0  0  0  0  0  0  0  0  0
   11.7270   -2.9048   -6.7880 O   0  0  0  0  0  0  0  0  0  0  0  0
   10.7311   -1.0907   -8.1227 C   0  0  2  0  0  0  0  0  0  0  0  0
   11.3701   -1.5973   -9.3000 O   0  0  0  0  0  0  0  0  0  0  0  0
   10.6478    0.4260   -8.1827 C   0  0  1  0  0  0  0  0  0  0  0  0
    9.7502    0.8416   -9.2242 O   0  0  0  0  0  0  0  0  0  0  0  0
    9.1419    3.3722   -6.0855 P   0  0  2  0  0  0  0  0  0  0  0  0
    9.6605    3.3372   -4.6701 O   0  0  0  0  0  0  0  0  0  0  0  0
    7.7282    2.8396   -6.1435 O   0  0  0  0  0  0  0  0  0  0  0  0
    9.1403    4.7962   -6.5783 O   0  0  0  0  0  0  0  0  0  0  0  0
   11.3240   -1.2323   -3.0374 P   0  0  2  0  0  0  0  0  0  0  0  0
    9.8158   -1.3439   -2.9272 O   0  0  0  0  0  0  0  0  0  0  0  0
   11.7798    0.1238   -2.5848 O   0  0  0  0  0  0  0  0  0  0  0  0
   11.9801   -2.3280   -2.2501 O   0  0  0  0  0  0  0  0  0  0  0  0
   13.1310   -3.6978   -6.9941 P   0  0  1  0  0  0  0  0  0  0  0  0
   13.7928   -3.2115   -8.2625 O   0  0  0  0  0  0  0  0  0  0  0  0
   14.0630   -3.4381   -5.8377 O   0  0  0  0  0  0  0  0  0  0  0  0
   12.8049   -5.1672   -7.0986 O   0  0  0  0  0  0  0  0  0  0  0  0
   10.6171   -2.5527  -10.3542 P   0  0  2  0  0  0  0  0  0  0  0  0
   11.6457   -3.0910  -11.3279 O   0  0  0  0  0  0  0  0  0  0  0  0
    9.5734   -1.7911  -11.1319 O   0  0  0  0  0  0  0  0  0  0  0  0
    9.9609   -3.6659   -9.5720 O   0  0  0  0  0  0  0  0  0  0  0  0
    9.0631    0.6718   -6.7335 H   0  0  0  0  0  0  0  0  0  0  0  0
   10.5750    0.9824   -4.7672 H   0  0  0  0  0  0  0  0  0  0  0  0
   12.7133    1.2105   -5.0372 H   0  0  0  0  0  0  0  0  0  0  0  0
    9.9065   -1.2624   -5.5764 H   0  0  0  0  0  0  0  0  0  0  0  0
   12.6021   -1.0851   -7.1126 H   0  0  0  0  0  0  0  0  0  0  0  0
    9.7116   -1.4945   -8.0356 H   0  0  0  0  0  0  0  0  0  0  0  0
   11.6742    0.7790   -8.3617 H   0  0  0  0  0  0  0  0  0  0  0  0
    8.9298    1.2214   -8.8207 H   0  0  0  0  0  0  0  0  0  0  0  0
  1  2  1  0
  1  3  1  0
  1 11  1  0
  2 13  1  0
  3  4  1  0
  3  5  1  0
  5  6  1  0
  5  7  1  0
  6 17  1  0
  7  8  1  0
  7  9  1  0
  8 21  1  0
  9 10  1  0
  9 11  1  0
 10 25  1  0
 11 12  1  0
 13 14  2  0
 13 15  1  1
 13 16  1  0
 17 18  2  0
 17 19  1  1
 17 20  1  0
 21 22  1  6
 21 23  1  0
 21 24  2  0
 25 26  1  6
 25 27  2  0
 25 28  1  0
  1 29  1  1
  3 30  1  1
  4 31  1  0
  5 32  1  1
  7 33  1  6
  9 34  1  1
 11 35  1  6
 12 36  1  0
M  CHG  8  15  -1  16  -1  19  -1  20  -1  22  -1  23  -1  26  -1  28  -1
M  END
>  <filename_input>  (7) 
7SDD_4IP_docked.sdf

>  <pdb_id>  (7) 
7SDD_4IP

>  <pose_rank>  (7) 
6

>  <num_atoms_heavy>  (7) 
28

>  <num_torsions>  (7) 
8

>  <pose>  (7) 
[10.095401940794298, 1.0204183833492149, -6.88424783087312, 3.4352002610845105, 3.546089066748894, 0.5861906269406207, -5.732785781486051, 8.619239307413967, -0.15585497215260083, 3.9383338394350877, -6.067630051461701, 5.448127551608583, -0.007685624422390042, -3.6417717534701466]

>  <energy>  (7) 
-504.7110567643413

>  <inter_energy>  (7) 
-520.1729318659219

>  <intra_energy>  (7) 
14.054228679674305

>  <rmsd>  (7) 
4.40271

>  <sdf_rank>  (7) 
0

$$$$

     RDKit          3D

 36 36  0  0  0  0  0  0  0  0999 V2000
    9.6392   -0.3423   -4.4481 C   0  0  2  0  0  0  0  0  0  0  0  0
   11.0496   -0.2270   -4.6231 O   0  0  0  0  0  0  0  0  0  0  0  0
    8.9508    0.7647   -5.2286 C   0  0  2  0  0  0  0  0  0  0  0  0
    9.4207    2.0196   -4.7605 O   0  0  0  0  0  0  0  0  0  0  0  0
    7.4574    0.6468   -4.9950 C   0  0  2  0  0  0  0  0  0  0  0  0
    6.7539    1.6297   -5.7302 O   0  0  0  0  0  0  0  0  0  0  0  0
    7.1477    0.8798   -3.5193 C   0  0  1  0  0  0  0  0  0  0  0  0
    5.7302    0.9318   -3.3639 O   0  0  0  0  0  0  0  0  0  0  0  0
    7.8002   -0.2341   -2.7157 C   0  0  2  0  0  0  0  0  0  0  0  0
    7.5208    0.0238   -1.3349 O   0  0  0  0  0  0  0  0  0  0  0  0
    9.3002   -0.2071   -2.9610 C   0  0  1  0  0  0  0  0  0  0  0  0
    9.9391   -1.3136   -2.3049 O   0  0  0  0  0  0  0  0  0  0  0  0
   11.9725   -1.4905   -5.0096 P   0  0  2  0  0  0  0  0  0  0  0  0
   11.1698   -2.3516   -5.9518 O   0  0  0  0  0  0  0  0  0  0  0  0
   12.3362   -2.2669   -3.7645 O   0  0  0  0  0  0  0  0  0  0  0  0
   13.2427   -1.0564   -5.6943 O   0  0  0  0  0  0  0  0  0  0  0  0
    5.7880    1.3421   -6.9661 P   0  0  2  0  0  0  0  0  0  0  0  0
    6.6489    1.2474   -8.2108 O   0  0  0  0  0  0  0  0  0  0  0  0
    4.8190    2.4812   -7.0891 O   0  0  0  0  0  0  0  0  0  0  0  0
    5.0832    0.0393   -6.7275 O   0  0  0  0  0  0  0  0  0  0  0  0
    4.9340    2.2590   -2.8666 P   0  0  1  0  0  0  0  0  0  0  0  0
    5.1780    3.3801   -3.8499 O   0  0  0  0  0  0  0  0  0  0  0  0
    3.4511    1.9952   -2.7992 O   0  0  0  0  0  0  0  0  0  0  0  0
    5.4750    2.6230   -1.5060 O   0  0  0  0  0  0  0  0  0  0  0  0
    6.8875   -1.0852   -0.3550 P   0  0  2  0  0  0  0  0  0  0  0  0
    5.9232   -0.3933    0.5868 O   0  0  0  0  0  0  0  0  0  0  0  0
    7.9563   -1.7623    0.4656 O   0  0  0  0  0  0  0  0  0  0  0  0
    6.1819   -2.1053   -1.2173 O   0  0  0  0  0  0  0  0  0  0  0  0
    9.2959   -1.3216   -4.8131 H   0  0  0  0  0  0  0  0  0  0  0  0
    9.1674    0.6809   -6.3038 H   0  0  0  0  0  0  0  0  0  0  0  0
    9.4220    2.0230   -3.7705 H   0  0  0  0  0  0  0  0  0  0  0  0
    7.1478   -0.3593   -5.3141 H   0  0  0  0  0  0  0  0  0  0  0  0
    7.5534    1.8329   -3.1491 H   0  0  0  0  0  0  0  0  0  0  0  0
    7.4151   -1.2225   -3.0069 H   0  0  0  0  0  0  0  0  0  0  0  0
    9.6535    0.7592   -2.5719 H   0  0  0  0  0  0  0  0  0  0  0  0
    9.8727   -1.1986   -1.3239 H   0  0  0  0  0  0  0  0  0  0  0  0
  1  2  1  0
  1  3  1  0
  1 11  1  0
  2 13  1  0
  3  4  1  0
  3  5  1  0
  5  6  1  0
  5  7  1  0
  6 17  1  0
  7  8  1  0
  7  9  1  0
  8 21  1  0
  9 10  1  0
  9 11  1  0
 10 25  1  0
 11 12  1  0
 13 14  2  0
 13 15  1  1
 13 16  1  0
 17 18  2  0
 17 19  1  6
 17 20  1  0
 21 22  1  6
 21 23  1  0
 21 24  2  0
 25 26  1  1
 25 27  2  0
 25 28  1  0
  1 29  1  6
  3 30  1  6
  4 31  1  0
  5 32  1  6
  7 33  1  1
  9 34  1  6
 11 35  1  1
 12 36  1  0
M  CHG  8  15  -1  16  -1  19  -1  20  -1  22  -1  23  -1  26  -1  28  -1
M  END
>  <filename_input>  (8) 
7SDD_4IP_docked.sdf

>  <pdb_id>  (8) 
7SDD_4IP

>  <pose_rank>  (8) 
7

>  <num_atoms_heavy>  (8) 
28

>  <num_torsions>  (8) 
8

>  <pose>  (8) 
[9.63915916497579, -0.34231947056940504, -4.448058604656921, 1.3941468505011954, 1.6599863982749332, 0.1036747016321558, -0.28385343901575677, 1.6868629856831039, -18.234993265678405, -4.449148114034719, 6.685990101242002, 7.317006258017061, 0.05099180818389583, 3.118327105399037]

>  <energy>  (8) 
-240.5730594708294

>  <inter_energy>  (8) 
-258.5736252036368

>  <intra_energy>  (8) 
21.057052923529255

>  <rmsd>  (8) 
7.3838

>  <sdf_rank>  (8) 
0

$$$$

     RDKit          3D

 36 36  0  0  0  0  0  0  0  0999 V2000
   12.4436   -2.8800   -8.0120 C   0  0  2  0  0  0  0  0  0  0  0  0
   12.9144   -4.2260   -8.0073 O   0  0  0  0  0  0  0  0  0  0  0  0
   12.1740   -2.4445   -6.5815 C   0  0  2  0  0  0  0  0  0  0  0  0
   11.2135   -3.3175   -6.0071 O   0  0  0  0  0  0  0  0  0  0  0  0
   11.6367   -1.0271   -6.6144 C   0  0  2  0  0  0  0  0  0  0  0  0
   11.4023   -0.5472   -5.3044 O   0  0  0  0  0  0  0  0  0  0  0  0
   10.3004   -1.0006   -7.3503 C   0  0  1  0  0  0  0  0  0  0  0  0
    9.7430    0.3061   -7.2157 O   0  0  0  0  0  0  0  0  0  0  0  0
   10.5465   -1.4032   -8.7959 C   0  0  2  0  0  0  0  0  0  0  0  0
    9.2755   -1.3998   -9.4559 O   0  0  0  0  0  0  0  0  0  0  0  0
   11.1483   -2.7988   -8.8245 C   0  0  1  0  0  0  0  0  0  0  0  0
   11.4969   -3.1709  -10.1673 O   0  0  0  0  0  0  0  0  0  0  0  0
   14.4837   -4.5859   -7.9351 P   0  0  2  0  0  0  0  0  0  0  0  0
   15.0686   -3.7842   -6.7999 O   0  0  0  0  0  0  0  0  0  0  0  0
   15.1587   -4.2257   -9.2390 O   0  0  0  0  0  0  0  0  0  0  0  0
   14.7010   -6.0533   -7.6699 O   0  0  0  0  0  0  0  0  0  0  0  0
   12.5038   -0.4168   -4.1585 P   0  0  2  0  0  0  0  0  0  0  0  0
   12.5689   -1.7447   -3.4294 O   0  0  0  0  0  0  0  0  0  0  0  0
   12.0852    0.6739   -3.2167 O   0  0  0  0  0  0  0  0  0  0  0  0
   13.8262   -0.1166   -4.8002 O   0  0  0  0  0  0  0  0  0  0  0  0
    8.3135    0.5982   -6.4989 P   0  0  1  0  0  0  0  0  0  0  0  0
    7.5492    1.6148   -7.3146 O   0  0  0  0  0  0  0  0  0  0  0  0
    7.4929   -0.6639   -6.4156 O   0  0  0  0  0  0  0  0  0  0  0  0
    8.6051    1.1386   -5.1207 O   0  0  0  0  0  0  0  0  0  0  0  0
    8.8745   -0.3020  -10.5629 P   0  0  2  0  0  0  0  0  0  0  0  0
    9.8867    0.8240  -10.5050 O   0  0  0  0  0  0  0  0  0  0  0  0
    7.5054    0.2698  -10.2932 O   0  0  0  0  0  0  0  0  0  0  0  0
    8.8864   -0.9873  -11.9090 O   0  0  0  0  0  0  0  0  0  0  0  0
   13.1997   -2.2209   -8.4636 H   0  0  0  0  0  0  0  0  0  0  0  0
   13.0940   -2.4802   -5.9796 H   0  0  0  0  0  0  0  0  0  0  0  0
   11.2697   -3.2664   -5.0201 H   0  0  0  0  0  0  0  0  0  0  0  0
   12.3840   -0.3983   -7.1206 H   0  0  0  0  0  0  0  0  0  0  0  0
    9.5740   -1.7118   -6.9303 H   0  0  0  0  0  0  0  0  0  0  0  0
   11.2405   -0.7118   -9.2962 H   0  0  0  0  0  0  0  0  0  0  0  0
   10.3847   -3.4669   -8.3996 H   0  0  0  0  0  0  0  0  0  0  0  0
   12.1735   -3.8932  -10.1445 H   0  0  0  0  0  0  0  0  0  0  0  0
  1  2  1  0
  1  3  1  0
  1 11  1  0
  2 13  1  0
  3  4  1  0
  3  5  1  0
  5  6  1  0
  5  7  1  0
  6 17  1  0
  7  8  1  0
  7  9  1  0
  8 21  1  0
  9 10  1  0
  9 11  1  0
 10 25  1  0
 11 12  1  0
 13 14  2  0
 13 15  1  6
 13 16  1  0
 17 18  2  0
 17 19  1  1
 17 20  1  0
 21 22  1  6
 21 23  1  0
 21 24  2  0
 25 26  1  6
 25 27  2  0
 25 28  1  0
  1 29  1  6
  3 30  1  1
  4 31  1  0
  5 32  1  6
  7 33  1  1
  9 34  1  6
 11 35  1  1
 12 36  1  0
M  CHG  8  15  -1  16  -1  19  -1  20  -1  22  -1  23  -1  26  -1  28  -1
M  END
>  <filename_input>  (9) 
7SDD_4IP_docked.sdf

>  <pdb_id>  (9) 
7SDD_4IP

>  <pose_rank>  (9) 
8

>  <num_atoms_heavy>  (9) 
28

>  <num_torsions>  (9) 
8

>  <pose>  (9) 
[12.44357459022046, -2.880022961880993, -8.011962907686529, -2.3020789367345293, 0.7969391669706889, -2.2184949412703525, 6.703370187578273, -4.369397525861596, -0.3058983125179087, 1.782201804547922, -5.938269418977176, 3.8534667430441663, -0.27003282045063115, -0.9038890812496486]

>  <energy>  (9) 
-596.1549698881659

>  <inter_energy>  (9) 
-600.0919686265265

>  <intra_energy>  (9) 
17.470338071052822

>  <rmsd>  (9) 
5.13076

>  <sdf_rank>  (9) 
0

$$$$

     RDKit          3D

 36 36  0  0  0  0  0  0  0  0999 V2000
   12.8054   -2.6527   -7.5529 C   0  0  2  0  0  0  0  0  0  0  0  0
   13.1884   -3.9728   -7.9322 O   0  0  0  0  0  0  0  0  0  0  0  0
   12.1406   -2.7028   -6.1876 C   0  0  2  0  0  0  0  0  0  0  0  0
   11.0116   -3.5602   -6.2559 O   0  0  0  0  0  0  0  0  0  0  0  0
   11.7062   -1.2964   -5.8239 C   0  0  2  0  0  0  0  0  0  0  0  0
   11.1130   -1.2692   -4.5397 O   0  0  0  0  0  0  0  0  0  0  0  0
   10.6547   -0.8099   -6.8167 C   0  0  1  0  0  0  0  0  0  0  0  0
   10.1456    0.4391   -6.3509 O   0  0  0  0  0  0  0  0  0  0  0  0
   11.3033   -0.7206   -8.1892 C   0  0  2  0  0  0  0  0  0  0  0  0
   10.2902   -0.2919   -9.1063 O   0  0  0  0  0  0  0  0  0  0  0  0
   11.8187   -2.0955   -8.5826 C   0  0  1  0  0  0  0  0  0  0  0  0
   12.5355   -2.0293   -9.8255 O   0  0  0  0  0  0  0  0  0  0  0  0
   14.3277   -4.7959   -7.1435 P   0  0  2  0  0  0  0  0  0  0  0  0
   13.6450   -5.9586   -6.4686 O   0  0  0  0  0  0  0  0  0  0  0  0
   14.9935   -3.9066   -6.1181 O   0  0  0  0  0  0  0  0  0  0  0  0
   15.3821   -5.3179   -8.0850 O   0  0  0  0  0  0  0  0  0  0  0  0
   11.8245   -0.7635   -3.2051 P   0  0  2  0  0  0  0  0  0  0  0  0
   11.0685    0.4559   -2.7142 O   0  0  0  0  0  0  0  0  0  0  0  0
   13.2438   -0.4000   -3.5296 O   0  0  0  0  0  0  0  0  0  0  0  0
   11.7537   -1.8590   -2.1825 O   0  0  0  0  0  0  0  0  0  0  0  0
   11.0198    1.8096   -6.3335 P   0  0  1  0  0  0  0  0  0  0  0  0
   10.7652    2.5755   -7.6109 O   0  0  0  0  0  0  0  0  0  0  0  0
   10.6231    2.6784   -5.1668 O   0  0  0  0  0  0  0  0  0  0  0  0
   12.4725    1.4137   -6.2359 O   0  0  0  0  0  0  0  0  0  0  0  0
    9.0966   -1.2552   -9.5946 P   0  0  2  0  0  0  0  0  0  0  0  0
    9.0044   -2.4233   -8.6340 O   0  0  0  0  0  0  0  0  0  0  0  0
    9.3609   -1.7925  -10.9787 O   0  0  0  0  0  0  0  0  0  0  0  0
    7.8251   -0.4397   -9.5968 O   0  0  0  0  0  0  0  0  0  0  0  0
   13.6927   -2.0039   -7.5093 H   0  0  0  0  0  0  0  0  0  0  0  0
   12.8350   -3.0868   -5.4259 H   0  0  0  0  0  0  0  0  0  0  0  0
   10.7133   -3.7867   -5.3394 H   0  0  0  0  0  0  0  0  0  0  0  0
   12.5999   -0.6554   -5.8424 H   0  0  0  0  0  0  0  0  0  0  0  0
    9.8028   -1.5007   -6.9003 H   0  0  0  0  0  0  0  0  0  0  0  0
   12.1475   -0.0154   -8.1930 H   0  0  0  0  0  0  0  0  0  0  0  0
   10.9319   -2.7422   -8.6553 H   0  0  0  0  0  0  0  0  0  0  0  0
   13.5045   -1.9399   -9.6433 H   0  0  0  0  0  0  0  0  0  0  0  0
  1  2  1  0
  1  3  1  0
  1 11  1  0
  2 13  1  0
  3  4  1  0
  3  5  1  0
  5  6  1  0
  5  7  1  0
  6 17  1  0
  7  8  1  0
  7  9  1  0
  8 21  1  0
  9 10  1  0
  9 11  1  0
 10 25  1  0
 11 12  1  0
 13 14  2  0
 13 15  1  1
 13 16  1  0
 17 18  2  0
 17 19  1  6
 17 20  1  0
 21 22  1  6
 21 23  1  0
 21 24  2  0
 25 26  1  1
 25 27  2  0
 25 28  1  0
  1 29  1  1
  3 30  1  1
  4 31  1  0
  5 32  1  1
  7 33  1  6
  9 34  1  1
 11 35  1  6
 12 36  1  0
M  CHG  8  15  -1  16  -1  19  -1  20  -1  22  -1  23  -1  26  -1  28  -1
M  END
>  <filename_input>  (10) 
7SDD_4IP_docked.sdf

>  <pdb_id>  (10) 
7SDD_4IP

>  <pose_rank>  (10) 
9

>  <num_atoms_heavy>  (10) 
28

>  <num_torsions>  (10) 
8

>  <pose>  (10) 
[12.805431703606965, -2.6527151652172005, -7.552879466903862, 1.8912567894786316, -1.3234433878795362, 2.2901811241196484, 0.8589856956543934, -3.2570909014173672, 6.7271560409369675, -0.9472617009124289, -2.6459582794562158, 1.6029934967248207, -3.4616458000147428, -0.371963814184526]

>  <energy>  (10) 
-575.3389401145848

>  <inter_energy>  (10) 
-643.4506690706811

>  <intra_energy>  (10) 
71.77538919257714

>  <rmsd>  (10) 
5.0475

>  <sdf_rank>  (10) 
0

$$$$

     RDKit          3D

 36 36  0  0  0  0  0  0  0  0999 V2000
   11.5009   -1.9019   -4.2694 C   0  0  2  0  0  0  0  0  0  0  0  0
   11.8104   -1.5009   -2.9365 O   0  0  0  0  0  0  0  0  0  0  0  0
   12.7905   -2.2462   -4.9954 C   0  0  2  0  0  0  0  0  0  0  0  0
   13.6400   -1.1091   -4.9904 O   0  0  0  0  0  0  0  0  0  0  0  0
   12.4407   -2.6298   -6.4199 C   0  0  2  0  0  0  0  0  0  0  0  0
   13.6002   -3.0016   -7.1401 O   0  0  0  0  0  0  0  0  0  0  0  0
   11.8277   -1.4320   -7.1392 C   0  0  1  0  0  0  0  0  0  0  0  0
   11.6690   -1.7719   -8.5160 O   0  0  0  0  0  0  0  0  0  0  0  0
   10.5170   -1.0847   -6.4509 C   0  0  2  0  0  0  0  0  0  0  0  0
    9.9779    0.0585   -7.1243 O   0  0  0  0  0  0  0  0  0  0  0  0
   10.7970   -0.7515   -4.9944 C   0  0  1  0  0  0  0  0  0  0  0  0
    9.5697   -0.5247   -4.2834 O   0  0  0  0  0  0  0  0  0  0  0  0
   10.8569   -1.8622   -1.6884 P   0  0  2  0  0  0  0  0  0  0  0  0
    9.6808   -2.6286   -2.2387 O   0  0  0  0  0  0  0  0  0  0  0  0
   10.3903   -0.5950   -1.0087 O   0  0  0  0  0  0  0  0  0  0  0  0
   11.5751   -2.7155   -0.6751 O   0  0  0  0  0  0  0  0  0  0  0  0
   14.2109   -4.4731   -7.2099 P   0  0  2  0  0  0  0  0  0  0  0  0
   13.0788   -5.4531   -6.9705 O   0  0  0  0  0  0  0  0  0  0  0  0
   15.2520   -4.6087   -6.1378 O   0  0  0  0  0  0  0  0  0  0  0  0
   14.7932   -4.6834   -8.5765 O   0  0  0  0  0  0  0  0  0  0  0  0
   10.5877   -2.8630   -9.0480 P   0  0  1  0  0  0  0  0  0  0  0  0
   10.2287   -3.7969   -7.9157 O   0  0  0  0  0  0  0  0  0  0  0  0
    9.3305   -2.1784   -9.5212 O   0  0  0  0  0  0  0  0  0  0  0  0
   11.2381   -3.6259  -10.1756 O   0  0  0  0  0  0  0  0  0  0  0  0
   10.5677    1.5429   -6.9238 P   0  0  2  0  0  0  0  0  0  0  0  0
   10.8929    2.1143   -8.2888 O   0  0  0  0  0  0  0  0  0  0  0  0
   11.8305    1.5214   -6.0997 O   0  0  0  0  0  0  0  0  0  0  0  0
    9.5113    2.3613   -6.2194 O   0  0  0  0  0  0  0  0  0  0  0  0
   10.8399   -2.7809   -4.2515 H   0  0  0  0  0  0  0  0  0  0  0  0
   13.3088   -3.0813   -4.5014 H   0  0  0  0  0  0  0  0  0  0  0  0
   13.8355   -0.8474   -4.0559 H   0  0  0  0  0  0  0  0  0  0  0  0
   11.7354   -3.4727   -6.3753 H   0  0  0  0  0  0  0  0  0  0  0  0
   12.4692   -0.5396   -7.0936 H   0  0  0  0  0  0  0  0  0  0  0  0
    9.8055   -1.9228   -6.4883 H   0  0  0  0  0  0  0  0  0  0  0  0
   11.4351    0.1444   -5.0057 H   0  0  0  0  0  0  0  0  0  0  0  0
    9.7420   -0.5566   -3.3091 H   0  0  0  0  0  0  0  0  0  0  0  0
  1  2  1  0
  1  3  1  0
  1 11  1  0
  2 13  1  0
  3  4  1  0
  3  5  1  0
  5  6  1  0
  5  7  1  0
  6 17  1  0
  7  8  1  0
  7  9  1  0
  8 21  1  0
  9 10  1  0
  9 11  1  0
 10 25  1  0
 11 12  1  0
 13 14  2  0
 13 15  1  1
 13 16  1  0
 17 18  2  0
 17 19  1  1
 17 20  1  0
 21 22  1  1
 21 23  1  0
 21 24  2  0
 25 26  1  6
 25 27  2  0
 25 28  1  0
  1 29  1  1
  3 30  1  1
  4 31  1  0
  5 32  1  1
  7 33  1  6
  9 34  1  1
 11 35  1  6
 12 36  1  0
M  CHG  8  15  -1  16  -1  19  -1  20  -1  22  -1  23  -1  26  -1  28  -1
M  END
>  <filename_input>  (11) 
7SDD_4IP_docked.sdf

>  <pdb_id>  (11) 
7SDD_4IP

>  <pose_rank>  (11) 
10

>  <num_atoms_heavy>  (11) 
28

>  <num_torsions>  (11) 
8

>  <pose>  (11) 
[11.500907155800022, -1.9018614086195589, -4.269442143023924, -5.762641801401783, 0.40894327670853214, 0.6898088003790972, 5.786393833366351, 1.0404162379329676, 0.2050241351228854, -2.5198633288537304, 3.6418085509896154, -0.42052614379924663, -3.4988972961657776, -4.750484428443429]

>  <energy>  (11) 
-515.7381363693968

>  <inter_energy>  (11) 
-588.3137129006053

>  <intra_energy>  (11) 
75.67176818402642

>  <rmsd>  (11) 
2.55011

>  <sdf_rank>  (11) 
0

$$$$

     RDKit          3D

 36 36  0  0  0  0  0  0  0  0999 V2000
    9.8115   -1.0131   -9.1763 C   0  0  2  0  0  0  0  0  0  0  0  0
    9.4115   -0.2898  -10.3383 O   0  0  0  0  0  0  0  0  0  0  0  0
    9.8218   -0.0702   -7.9849 C   0  0  2  0  0  0  0  0  0  0  0  0
   10.7161    0.9994   -8.2513 O   0  0  0  0  0  0  0  0  0  0  0  0
   10.2884   -0.8502   -6.7714 C   0  0  2  0  0  0  0  0  0  0  0  0
   10.2816   -0.0343   -5.6156 O   0  0  0  0  0  0  0  0  0  0  0  0
   11.7244   -1.3204   -6.9832 C   0  0  1  0  0  0  0  0  0  0  0  0
   12.1887   -1.8987   -5.7641 O   0  0  0  0  0  0  0  0  0  0  0  0
   11.7382   -2.2919   -8.1530 C   0  0  2  0  0  0  0  0  0  0  0  0
   13.0984   -2.6941   -8.3500 O   0  0  0  0  0  0  0  0  0  0  0  0
   11.2169   -1.5812   -9.3916 C   0  0  1  0  0  0  0  0  0  0  0  0
   11.1114   -2.4977  -10.4925 O   0  0  0  0  0  0  0  0  0  0  0  0
    7.8782    0.1313  -10.6014 P   0  0  2  0  0  0  0  0  0  0  0  0
    7.7185    0.3087  -12.0902 O   0  0  0  0  0  0  0  0  0  0  0  0
    7.5638    1.4215   -9.8789 O   0  0  0  0  0  0  0  0  0  0  0  0
    6.9245   -0.9329  -10.1233 O   0  0  0  0  0  0  0  0  0  0  0  0
    9.1597   -0.0487   -4.4824 P   0  0  2  0  0  0  0  0  0  0  0  0
    9.2920    1.2357   -3.6874 O   0  0  0  0  0  0  0  0  0  0  0  0
    9.3933   -1.2361   -3.5951 O   0  0  0  0  0  0  0  0  0  0  0  0
    7.8145   -0.1083   -5.1439 O   0  0  0  0  0  0  0  0  0  0  0  0
   13.5704   -1.4525   -5.0329 P   0  0  1  0  0  0  0  0  0  0  0  0
   13.6485   -2.1138   -3.6765 O   0  0  0  0  0  0  0  0  0  0  0  0
   14.7650   -1.8835   -5.8455 O   0  0  0  0  0  0  0  0  0  0  0  0
   13.5360    0.0488   -4.8871 O   0  0  0  0  0  0  0  0  0  0  0  0
   13.5567   -4.2373   -8.3489 P   0  0  2  0  0  0  0  0  0  0  0  0
   12.4664   -5.0572   -7.6898 O   0  0  0  0  0  0  0  0  0  0  0  0
   14.8350   -4.4261   -7.5713 O   0  0  0  0  0  0  0  0  0  0  0  0
   13.7669   -4.6509   -9.7865 O   0  0  0  0  0  0  0  0  0  0  0  0
    9.1088   -1.8385   -8.9893 H   0  0  0  0  0  0  0  0  0  0  0  0
    8.8184    0.3410   -7.8002 H   0  0  0  0  0  0  0  0  0  0  0  0
   11.0363    1.3824   -7.3964 H   0  0  0  0  0  0  0  0  0  0  0  0
    9.6048   -1.7017   -6.6385 H   0  0  0  0  0  0  0  0  0  0  0  0
   12.4055   -0.4940   -7.2345 H   0  0  0  0  0  0  0  0  0  0  0  0
   11.1031   -3.1687   -7.9585 H   0  0  0  0  0  0  0  0  0  0  0  0
   11.9318   -0.7716   -9.5998 H   0  0  0  0  0  0  0  0  0  0  0  0
   11.0053   -3.4190  -10.1460 H   0  0  0  0  0  0  0  0  0  0  0  0
  1  2  1  0
  1  3  1  0
  1 11  1  0
  2 13  1  0
  3  4  1  0
  3  5  1  0
  5  6  1  0
  5  7  1  0
  6 17  1  0
  7  8  1  0
  7  9  1  0
  8 21  1  0
  9 10  1  0
  9 11  1  0
 10 25  1  0
 11 12  1  0
 13 14  2  0
 13 15  1  1
 13 16  1  0
 17 18  2  0
 17 19  1  1
 17 20  1  0
 21 22  1  1
 21 23  1  0
 21 24  2  0
 25 26  1  1
 25 27  2  0
 25 28  1  0
  1 29  1  1
  3 30  1  1
  4 31  1  0
  5 32  1  1
  7 33  1  6
  9 34  1  1
 11 35  1  6
 12 36  1  0
M  CHG  8  15  -1  16  -1  19  -1  20  -1  22  -1  23  -1  26  -1  28  -1
M  END
>  <filename_input>  (12) 
7SDD_4IP_docked.sdf

>  <pdb_id>  (12) 
7SDD_4IP

>  <pose_rank>  (12) 
11

>  <num_atoms_heavy>  (12) 
28

>  <num_torsions>  (12) 
8

>  <pose>  (12) 
[9.811460569836532, -1.013083476912079, -9.176267756979684, 2.239786990984175, 3.151806995544441, -1.0883567279089261, 0.7006254359415668, -1.6664420032088088, 0.43029843441565535, 0.47390996176445976, 0.20562566915011285, 2.968081389495015, -0.01549556383475621, -0.9847709710219761]

>  <energy>  (12) 
-482.05217200821556

>  <inter_energy>  (12) 
-495.2581546406549

>  <intra_energy>  (12) 
12.490347115683743

>  <rmsd>  (12) 
5.34386

>  <sdf_rank>  (12) 
0

$$$$

     RDKit          3D

 36 36  0  0  0  0  0  0  0  0999 V2000
    7.5077    2.2619   -6.2987 C   0  0  2  0  0  0  0  0  0  0  0  0
    6.3658    3.1135   -6.3624 O   0  0  0  0  0  0  0  0  0  0  0  0
    8.7645    3.1107   -6.3905 C   0  0  2  0  0  0  0  0  0  0  0  0
    8.7407    3.8395   -7.6082 O   0  0  0  0  0  0  0  0  0  0  0  0
    9.9627    2.1821   -6.3618 C   0  0  2  0  0  0  0  0  0  0  0  0
   11.1705    2.9176   -6.4041 O   0  0  0  0  0  0  0  0  0  0  0  0
    9.9421    1.2778   -7.5904 C   0  0  1  0  0  0  0  0  0  0  0  0
   11.1634    0.5404   -7.6220 O   0  0  0  0  0  0  0  0  0  0  0  0
    8.7078    0.3934   -7.5083 C   0  0  2  0  0  0  0  0  0  0  0  0
    8.6956   -0.4226   -8.6851 O   0  0  0  0  0  0  0  0  0  0  0  0
    7.4700    1.2750   -7.4687 C   0  0  1  0  0  0  0  0  0  0  0  0
    6.2892    0.4792   -7.2803 O   0  0  0  0  0  0  0  0  0  0  0  0
    5.9170    4.0413   -5.1233 P   0  0  2  0  0  0  0  0  0  0  0  0
    6.9350    3.8396   -4.0294 O   0  0  0  0  0  0  0  0  0  0  0  0
    4.5408    3.6375   -4.6453 O   0  0  0  0  0  0  0  0  0  0  0  0
    5.8846    5.4977   -5.5086 O   0  0  0  0  0  0  0  0  0  0  0  0
   11.9785    3.4391   -5.1319 P   0  0  2  0  0  0  0  0  0  0  0  0
   11.4859    4.8378   -4.8155 O   0  0  0  0  0  0  0  0  0  0  0  0
   13.4394    3.4667   -5.4733 O   0  0  0  0  0  0  0  0  0  0  0  0
   11.6969    2.5212   -3.9790 O   0  0  0  0  0  0  0  0  0  0  0  0
   11.5509   -0.5938   -6.5238 P   0  0  1  0  0  0  0  0  0  0  0  0
   10.4308   -0.7105   -5.5163 O   0  0  0  0  0  0  0  0  0  0  0  0
   11.7395   -1.9342   -7.1877 O   0  0  0  0  0  0  0  0  0  0  0  0
   12.8241   -0.1475   -5.8484 O   0  0  0  0  0  0  0  0  0  0  0  0
    9.4460    0.0022  -10.0445 P   0  0  2  0  0  0  0  0  0  0  0  0
    8.4042    0.1639  -11.1327 O   0  0  0  0  0  0  0  0  0  0  0  0
   10.4309   -1.0547  -10.4770 O   0  0  0  0  0  0  0  0  0  0  0  0
   10.1723    1.2995   -9.7774 O   0  0  0  0  0  0  0  0  0  0  0  0
    7.5058    1.7042   -5.3506 H   0  0  0  0  0  0  0  0  0  0  0  0
    8.8225    3.8195   -5.5513 H   0  0  0  0  0  0  0  0  0  0  0  0
    8.7089    4.8093   -7.4118 H   0  0  0  0  0  0  0  0  0  0  0  0
    9.9084    1.5953   -5.4330 H   0  0  0  0  0  0  0  0  0  0  0  0
    9.8774    1.8455   -8.5304 H   0  0  0  0  0  0  0  0  0  0  0  0
    8.7195   -0.2352   -6.6056 H   0  0  0  0  0  0  0  0  0  0  0  0
    7.4515    1.8146   -8.4271 H   0  0  0  0  0  0  0  0  0  0  0  0
    6.1195    0.3648   -6.3117 H   0  0  0  0  0  0  0  0  0  0  0  0
  1  2  1  0
  1  3  1  0
  1 11  1  0
  2 13  1  0
  3  4  1  0
  3  5  1  0
  5  6  1  0
  5  7  1  0
  6 17  1  0
  7  8  1  0
  7  9  1  0
  8 21  1  0
  9 10  1  0
  9 11  1  0
 10 25  1  0
 11 12  1  0
 13 14  2  0
 13 15  1  1
 13 16  1  0
 17 18  2  0
 17 19  1  6
 17 20  1  0
 21 22  1  1
 21 23  1  0
 21 24  2  0
 25 26  1  6
 25 27  2  0
 25 28  1  0
  1 29  1  1
  3 30  1  1
  4 31  1  0
  5 32  1  1
  7 33  1  6
  9 34  1  1
 11 35  1  6
 12 36  1  0
M  CHG  8  15  -1  16  -1  19  -1  20  -1  22  -1  23  -1  26  -1  28  -1
M  END
>  <filename_input>  (13) 
7SDD_4IP_docked.sdf

>  <pdb_id>  (13) 
7SDD_4IP

>  <pose_rank>  (13) 
12

>  <num_atoms_heavy>  (13) 
28

>  <num_torsions>  (13) 
8

>  <pose>  (13) 
[7.507717103479726, 2.2619042983956863, -6.298675007610982, 2.7005634180280382, 1.3134664211509646, -3.8202637841729805, 0.7228511584968229, 1.0889289184888704, 0.2430961191286013, 1.7114852689888753, -2.679861777310023, -0.029253697090903197, -2.604941955186939, 3.563710104432901]

>  <energy>  (13) 
-206.70953022187612

>  <inter_energy>  (13) 
-340.1182143305378

>  <intra_energy>  (13) 
139.9758415928704

>  <rmsd>  (13) 
5.98843

>  <sdf_rank>  (13) 
0

$$$$

     RDKit          3D

 36 36  0  0  0  0  0  0  0  0999 V2000
    8.4626   -0.5202   -6.7926 C   0  0  2  0  0  0  0  0  0  0  0  0
    7.5516    0.3039   -7.5166 O   0  0  0  0  0  0  0  0  0  0  0  0
    9.4698    0.3642   -6.0772 C   0  0  2  0  0  0  0  0  0  0  0  0
   10.1526    1.1554   -7.0377 O   0  0  0  0  0  0  0  0  0  0  0  0
   10.4507   -0.5335   -5.3487 C   0  0  2  0  0  0  0  0  0  0  0  0
   11.3950    0.2339   -4.6270 O   0  0  0  0  0  0  0  0  0  0  0  0
   11.2284   -1.3719   -6.3587 C   0  0  1  0  0  0  0  0  0  0  0  0
   12.2542   -2.0751   -5.6589 O   0  0  0  0  0  0  0  0  0  0  0  0
   10.2467   -2.2909   -7.0689 C   0  0  2  0  0  0  0  0  0  0  0  0
   10.9950   -3.0437   -8.0303 O   0  0  0  0  0  0  0  0  0  0  0  0
    9.1955   -1.4446   -7.7687 C   0  0  1  0  0  0  0  0  0  0  0  0
    8.1870   -2.2793   -8.3597 O   0  0  0  0  0  0  0  0  0  0  0  0
    5.9774    0.3493   -7.1742 P   0  0  2  0  0  0  0  0  0  0  0  0
    5.2689   -0.4343   -8.2500 O   0  0  0  0  0  0  0  0  0  0  0  0
    5.4918    1.7809   -7.1567 O   0  0  0  0  0  0  0  0  0  0  0  0
    5.6868   -0.2739   -5.8333 O   0  0  0  0  0  0  0  0  0  0  0  0
   11.0646    1.1627   -3.3734 P   0  0  2  0  0  0  0  0  0  0  0  0
   10.8520    2.5729   -3.8888 O   0  0  0  0  0  0  0  0  0  0  0  0
   12.2312    1.1237   -2.4304 O   0  0  0  0  0  0  0  0  0  0  0  0
    9.8103    0.6579   -2.7233 O   0  0  0  0  0  0  0  0  0  0  0  0
   13.8218   -1.6471   -5.7048 P   0  0  1  0  0  0  0  0  0  0  0  0
   14.2385   -1.1468   -4.3413 O   0  0  0  0  0  0  0  0  0  0  0  0
   14.6852   -2.8292   -6.0659 O   0  0  0  0  0  0  0  0  0  0  0  0
   13.9575   -0.5515   -6.7333 O   0  0  0  0  0  0  0  0  0  0  0  0
   11.5685   -2.3937   -9.3868 P   0  0  2  0  0  0  0  0  0  0  0  0
   11.7569   -0.9076   -9.1599 O   0  0  0  0  0  0  0  0  0  0  0  0
   10.6069   -2.5857  -10.5326 O   0  0  0  0  0  0  0  0  0  0  0  0
   12.8795   -3.0757   -9.6997 O   0  0  0  0  0  0  0  0  0  0  0  0
    7.9143   -1.1271   -6.0570 H   0  0  0  0  0  0  0  0  0  0  0  0
    8.9686    1.0290   -5.3583 H   0  0  0  0  0  0  0  0  0  0  0  0
   10.7240    1.8175   -6.5737 H   0  0  0  0  0  0  0  0  0  0  0  0
    9.8741   -1.1697   -4.6611 H   0  0  0  0  0  0  0  0  0  0  0  0
   11.7184   -0.7573   -7.1281 H   0  0  0  0  0  0  0  0  0  0  0  0
    9.7405   -2.9657   -6.3630 H   0  0  0  0  0  0  0  0  0  0  0  0
    9.7349   -0.8559   -8.5253 H   0  0  0  0  0  0  0  0  0  0  0  0
    7.6594   -2.7160   -7.6448 H   0  0  0  0  0  0  0  0  0  0  0  0
  1  2  1  0
  1  3  1  0
  1 11  1  0
  2 13  1  0
  3  4  1  0
  3  5  1  0
  5  6  1  0
  5  7  1  0
  6 17  1  0
  7  8  1  0
  7  9  1  0
  8 21  1  0
  9 10  1  0
  9 11  1  0
 10 25  1  0
 11 12  1  0
 13 14  2  0
 13 15  1  1
 13 16  1  0
 17 18  2  0
 17 19  1  1
 17 20  1  0
 21 22  1  1
 21 23  1  0
 21 24  2  0
 25 26  1  1
 25 27  2  0
 25 28  1  0
  1 29  1  1
  3 30  1  1
  4 31  1  0
  5 32  1  1
  7 33  1  6
  9 34  1  1
 11 35  1  6
 12 36  1  0
M  CHG  8  15  -1  16  -1  19  -1  20  -1  22  -1  23  -1  26  -1  28  -1
M  END
>  <filename_input>  (14) 
7SDD_4IP_docked.sdf

>  <pdb_id>  (14) 
7SDD_4IP

>  <pose_rank>  (14) 
13

>  <num_atoms_heavy>  (14) 
28

>  <num_torsions>  (14) 
8

>  <pose>  (14) 
[8.462616859090968, -0.5202309525660425, -6.792580733818108, -1.1086002304529696, -0.971348520869654, 0.8640507742600751, -6.299931403249312, -0.775947636601386, 6.099376328773296, 7.941151558585854, 6.893501819549832, -4.354249251701033, -3.4579625039438944, -0.22620925013434945]

>  <energy>  (14) 
-350.5784991725755

>  <inter_energy>  (14) 
-396.83242374772436

>  <intra_energy>  (14) 
46.80594229655088

>  <rmsd>  (14) 
5.50333

>  <sdf_rank>  (14) 
0

$$$$

     RDKit          3D

 36 36  0  0  0  0  0  0  0  0999 V2000
   10.4499    1.1816   -5.5793 C   0  0  2  0  0  0  0  0  0  0  0  0
   10.3936    1.7575   -4.2761 O   0  0  0  0  0  0  0  0  0  0  0  0
    9.2421    0.2810   -5.7757 C   0  0  2  0  0  0  0  0  0  0  0  0
    9.2493   -0.7248   -4.7743 O   0  0  0  0  0  0  0  0  0  0  0  0
    9.3446   -0.3507   -7.1502 C   0  0  2  0  0  0  0  0  0  0  0  0
    8.2236   -1.1736   -7.4107 O   0  0  0  0  0  0  0  0  0  0  0  0
   10.5823   -1.2405   -7.2162 C   0  0  1  0  0  0  0  0  0  0  0  0
   10.5568   -1.9488   -8.4548 O   0  0  0  0  0  0  0  0  0  0  0  0
   11.8103   -0.3584   -7.0533 C   0  0  2  0  0  0  0  0  0  0  0  0
   12.9543   -1.2191   -7.0885 O   0  0  0  0  0  0  0  0  0  0  0  0
   11.7318    0.3550   -5.7132 C   0  0  1  0  0  0  0  0  0  0  0  0
   12.8198    1.2818   -5.5703 O   0  0  0  0  0  0  0  0  0  0  0  0
    9.9791    3.2962   -4.0351 P   0  0  2  0  0  0  0  0  0  0  0  0
   10.5591    3.7065   -2.7052 O   0  0  0  0  0  0  0  0  0  0  0  0
    8.4734    3.4310   -4.0190 O   0  0  0  0  0  0  0  0  0  0  0  0
   10.5309    4.1912   -5.1145 O   0  0  0  0  0  0  0  0  0  0  0  0
    6.8825   -0.7041   -8.1346 P   0  0  2  0  0  0  0  0  0  0  0  0
    7.2270    0.4775   -9.0203 O   0  0  0  0  0  0  0  0  0  0  0  0
    5.8915   -0.2957   -7.0845 O   0  0  0  0  0  0  0  0  0  0  0  0
    6.3682   -1.8399   -8.9690 O   0  0  0  0  0  0  0  0  0  0  0  0
   10.9030   -1.2592   -9.8856 P   0  0  1  0  0  0  0  0  0  0  0  0
   10.9250    0.2425   -9.7190 O   0  0  0  0  0  0  0  0  0  0  0  0
   12.2561   -1.7064  -10.3777 O   0  0  0  0  0  0  0  0  0  0  0  0
    9.8200   -1.6672  -10.8537 O   0  0  0  0  0  0  0  0  0  0  0  0
   13.2865   -2.2708   -5.9159 P   0  0  2  0  0  0  0  0  0  0  0  0
   12.2436   -2.1157   -4.8279 O   0  0  0  0  0  0  0  0  0  0  0  0
   14.6460   -2.0094   -5.3178 O   0  0  0  0  0  0  0  0  0  0  0  0
   13.2519   -3.6542   -6.5217 O   0  0  0  0  0  0  0  0  0  0  0  0
   10.4470    1.9763   -6.3398 H   0  0  0  0  0  0  0  0  0  0  0  0
    8.3069    0.8551   -5.6984 H   0  0  0  0  0  0  0  0  0  0  0  0
    9.2462   -0.3001   -3.8800 H   0  0  0  0  0  0  0  0  0  0  0  0
    9.3976    0.4628   -7.8887 H   0  0  0  0  0  0  0  0  0  0  0  0
   10.6064   -1.9891   -6.4107 H   0  0  0  0  0  0  0  0  0  0  0  0
   11.8742    0.3976   -7.8497 H   0  0  0  0  0  0  0  0  0  0  0  0
   11.7629   -0.4342   -4.9475 H   0  0  0  0  0  0  0  0  0  0  0  0
   12.9991    1.4345   -4.6087 H   0  0  0  0  0  0  0  0  0  0  0  0
  1  2  1  0
  1  3  1  0
  1 11  1  0
  2 13  1  0
  3  4  1  0
  3  5  1  0
  5  6  1  0
  5  7  1  0
  6 17  1  0
  7  8  1  0
  7  9  1  0
  8 21  1  0
  9 10  1  0
  9 11  1  0
 10 25  1  0
 11 12  1  0
 13 14  2  0
 13 15  1  1
 13 16  1  0
 17 18  2  0
 17 19  1  1
 17 20  1  0
 21 22  1  1
 21 23  1  0
 21 24  2  0
 25 26  1  1
 25 27  2  0
 25 28  1  0
  1 29  1  6
  3 30  1  6
  4 31  1  0
  5 32  1  6
  7 33  1  1
  9 34  1  6
 11 35  1  1
 12 36  1  0
M  CHG  8  15  -1  16  -1  19  -1  20  -1  22  -1  23  -1  26  -1  28  -1
M  END
>  <filename_input>  (15) 
7SDD_4IP_docked.sdf

>  <pdb_id>  (15) 
7SDD_4IP

>  <pose_rank>  (15) 
14

>  <num_atoms_heavy>  (15) 
28

>  <num_torsions>  (15) 
8

>  <pose>  (15) 
[10.449943890893257, 1.1815610903201879, -5.579300957409245, 0.1424645381639718, 2.1890625692570076, 3.00808443838684, -6.098655767266539, -1.687462964443397, 0.265086839169265, -2.529475521740198, -2.5502324808737016, -0.2542491694091264, 2.896145326762492, -0.7153661769400084]

>  <energy>  (15) 
-364.1297522369125

>  <inter_energy>  (15) 
-427.87000227487846

>  <intra_energy>  (15) 
64.94998950511764

>  <rmsd>  (15) 
2.76503

>  <sdf_rank>  (15) 
0

$$$$

     RDKit          3D

 36 36  0  0  0  0  0  0  0  0999 V2000
   11.3462   -1.3407   -9.2900 C   0  0  2  0  0  0  0  0  0  0  0  0
   10.2884   -1.6493  -10.1949 O   0  0  0  0  0  0  0  0  0  0  0  0
   11.5498   -2.5144   -8.3469 C   0  0  2  0  0  0  0  0  0  0  0  0
   10.3387   -2.7604   -7.6489 O   0  0  0  0  0  0  0  0  0  0  0  0
   12.6496   -2.1478   -7.3698 C   0  0  2  0  0  0  0  0  0  0  0  0
   12.9155   -3.2200   -6.4859 O   0  0  0  0  0  0  0  0  0  0  0  0
   12.2072   -0.9611   -6.5191 C   0  0  1  0  0  0  0  0  0  0  0  0
   13.1865   -0.7513   -5.5025 O   0  0  0  0  0  0  0  0  0  0  0  0
   12.0258    0.2387   -7.4357 C   0  0  2  0  0  0  0  0  0  0  0  0
   11.5823    1.3287   -6.6194 O   0  0  0  0  0  0  0  0  0  0  0  0
   10.9749   -0.0938   -8.4825 C   0  0  1  0  0  0  0  0  0  0  0  0
   10.8544    0.9753   -9.4342 O   0  0  0  0  0  0  0  0  0  0  0  0
    8.7452   -1.3387   -9.8492 P   0  0  2  0  0  0  0  0  0  0  0  0
    7.9767   -2.6164  -10.0737 O   0  0  0  0  0  0  0  0  0  0  0  0
    8.2227   -0.2427  -10.7498 O   0  0  0  0  0  0  0  0  0  0  0  0
    8.5781   -0.9044   -8.4159 O   0  0  0  0  0  0  0  0  0  0  0  0
   13.9368   -4.4131   -6.7632 P   0  0  2  0  0  0  0  0  0  0  0  0
   13.1258   -5.6831   -6.9326 O   0  0  0  0  0  0  0  0  0  0  0  0
   14.8570   -4.5367   -5.5845 O   0  0  0  0  0  0  0  0  0  0  0  0
   14.6907   -4.1118   -8.0248 O   0  0  0  0  0  0  0  0  0  0  0  0
   12.8224   -0.6286   -3.9230 P   0  0  1  0  0  0  0  0  0  0  0  0
   13.5447    0.5636   -3.3396 O   0  0  0  0  0  0  0  0  0  0  0  0
   11.3399   -0.4304   -3.7330 O   0  0  0  0  0  0  0  0  0  0  0  0
   13.2815   -1.9020   -3.2566 O   0  0  0  0  0  0  0  0  0  0  0  0
   12.0015    2.8560   -6.9072 P   0  0  2  0  0  0  0  0  0  0  0  0
   10.7428    3.6991   -6.9286 O   0  0  0  0  0  0  0  0  0  0  0  0
   12.6911    2.9901   -8.2416 O   0  0  0  0  0  0  0  0  0  0  0  0
   12.9370    3.2874   -5.8024 O   0  0  0  0  0  0  0  0  0  0  0  0
   12.2737   -1.1501   -9.8499 H   0  0  0  0  0  0  0  0  0  0  0  0
   11.8321   -3.4209   -8.9025 H   0  0  0  0  0  0  0  0  0  0  0  0
   10.5069   -2.7263   -6.6739 H   0  0  0  0  0  0  0  0  0  0  0  0
   13.5494   -1.9066   -7.9548 H   0  0  0  0  0  0  0  0  0  0  0  0
   11.2452   -1.1386   -6.0161 H   0  0  0  0  0  0  0  0  0  0  0  0
   12.9622    0.5006   -7.9499 H   0  0  0  0  0  0  0  0  0  0  0  0
   10.0380   -0.2577   -7.9300 H   0  0  0  0  0  0  0  0  0  0  0  0
   10.7574    1.8354   -8.9537 H   0  0  0  0  0  0  0  0  0  0  0  0
  1  2  1  0
  1  3  1  0
  1 11  1  0
  2 13  1  0
  3  4  1  0
  3  5  1  0
  5  6  1  0
  5  7  1  0
  6 17  1  0
  7  8  1  0
  7  9  1  0
  8 21  1  0
  9 10  1  0
  9 11  1  0
 10 25  1  0
 11 12  1  0
 13 14  2  0
 13 15  1  6
 13 16  1  0
 17 18  2  0
 17 19  1  1
 17 20  1  0
 21 22  1  1
 21 23  1  0
 21 24  2  0
 25 26  1  6
 25 27  2  0
 25 28  1  0
  1 29  1  6
  3 30  1  6
  4 31  1  0
  5 32  1  6
  7 33  1  1
  9 34  1  6
 11 35  1  1
 12 36  1  0
M  CHG  8  15  -1  16  -1  19  -1  20  -1  22  -1  23  -1  26  -1  28  -1
M  END
>  <filename_input>  (16) 
7SDD_4IP_docked.sdf

>  <pdb_id>  (16) 
7SDD_4IP

>  <pose_rank>  (16) 
15

>  <num_atoms_heavy>  (16) 
28

>  <num_torsions>  (16) 
8

>  <pose>  (16) 
[11.346191661561237, -1.3406618360481322, -9.289956993831309, 1.7293178466323131, -2.3355243695678647, 0.32073937810328873, -2.7321986040499744, -1.1845102110216574, 0.18582535323103339, 1.3569125044521881, 0.18551288748675093, -2.3508205805892923, 0.3584694005020382, 1.578193112877384]

>  <energy>  (16) 
-480.81657334281795

>  <inter_energy>  (16) 
-577.9740738351924

>  <intra_energy>  (16) 
98.07028667757278

>  <rmsd>  (16) 
5.49059

>  <sdf_rank>  (16) 
0

$$$$

     RDKit          3D

 36 36  0  0  0  0  0  0  0  0999 V2000
   11.0890   -0.0339   -5.6295 C   0  0  2  0  0  0  0  0  0  0  0  0
   11.3466    0.9989   -4.6808 O   0  0  0  0  0  0  0  0  0  0  0  0
   12.3970   -0.7238   -5.9783 C   0  0  2  0  0  0  0  0  0  0  0  0
   13.2989    0.2374   -6.5049 O   0  0  0  0  0  0  0  0  0  0  0  0
   12.1050   -1.7890   -7.0170 C   0  0  2  0  0  0  0  0  0  0  0  0
   13.2817   -2.4975   -7.3558 O   0  0  0  0  0  0  0  0  0  0  0  0
   11.5894   -1.1338   -8.2947 C   0  0  1  0  0  0  0  0  0  0  0  0
   11.4875   -2.1395   -9.3019 O   0  0  0  0  0  0  0  0  0  0  0  0
   10.2624   -0.4607   -7.9809 C   0  0  2  0  0  0  0  0  0  0  0  0
    9.8155    0.1709   -9.1861 O   0  0  0  0  0  0  0  0  0  0  0  0
   10.4807    0.5792   -6.8938 C   0  0  1  0  0  0  0  0  0  0  0  0
    9.2299    1.1600   -6.4923 O   0  0  0  0  0  0  0  0  0  0  0  0
   10.7320    0.9686   -3.1912 P   0  0  2  0  0  0  0  0  0  0  0  0
   11.4424   -0.1307   -2.4428 O   0  0  0  0  0  0  0  0  0  0  0  0
    9.2465    0.6940   -3.2489 O   0  0  0  0  0  0  0  0  0  0  0  0
   10.9520    2.2774   -2.4774 O   0  0  0  0  0  0  0  0  0  0  0  0
   13.6743   -3.9461   -6.8165 P   0  0  2  0  0  0  0  0  0  0  0  0
   14.7637   -3.7703   -5.7764 O   0  0  0  0  0  0  0  0  0  0  0  0
   14.1818   -4.7625   -7.9687 O   0  0  0  0  0  0  0  0  0  0  0  0
   12.4605   -4.5670   -6.1904 O   0  0  0  0  0  0  0  0  0  0  0  0
   10.4643   -3.3990   -9.2065 P   0  0  1  0  0  0  0  0  0  0  0  0
    9.4176   -3.2696  -10.2886 O   0  0  0  0  0  0  0  0  0  0  0  0
   11.2013   -4.6990   -9.4062 O   0  0  0  0  0  0  0  0  0  0  0  0
    9.8217   -3.3525   -7.8422 O   0  0  0  0  0  0  0  0  0  0  0  0
    8.2578    0.3103   -9.5676 P   0  0  2  0  0  0  0  0  0  0  0  0
    7.5622   -0.9874   -9.2103 O   0  0  0  0  0  0  0  0  0  0  0  0
    8.0781    0.5599  -11.0440 O   0  0  0  0  0  0  0  0  0  0  0  0
    7.6984    1.4722   -8.7807 O   0  0  0  0  0  0  0  0  0  0  0  0
   10.3863   -0.7656   -5.2042 H   0  0  0  0  0  0  0  0  0  0  0  0
   12.8477   -1.1857   -5.0875 H   0  0  0  0  0  0  0  0  0  0  0  0
   13.7456    0.7134   -5.7606 H   0  0  0  0  0  0  0  0  0  0  0  0
   11.3585   -2.4754   -6.5908 H   0  0  0  0  0  0  0  0  0  0  0  0
   12.2698   -0.3573   -8.6742 H   0  0  0  0  0  0  0  0  0  0  0  0
    9.5143   -1.1856   -7.6275 H   0  0  0  0  0  0  0  0  0  0  0  0
   11.1610    1.3290   -7.3239 H   0  0  0  0  0  0  0  0  0  0  0  0
    9.1791    1.1836   -5.5039 H   0  0  0  0  0  0  0  0  0  0  0  0
  1  2  1  0
  1  3  1  0
  1 11  1  0
  2 13  1  0
  3  4  1  0
  3  5  1  0
  5  6  1  0
  5  7  1  0
  6 17  1  0
  7  8  1  0
  7  9  1  0
  8 21  1  0
  9 10  1  0
  9 11  1  0
 10 25  1  0
 11 12  1  0
 13 14  2  0
 13 15  1  6
 13 16  1  0
 17 18  2  0
 17 19  1  6
 17 20  1  0
 21 22  1  6
 21 23  1  0
 21 24  2  0
 25 26  1  1
 25 27  2  0
 25 28  1  0
  1 29  1  1
  3 30  1  1
  4 31  1  0
  5 32  1  1
  7 33  1  6
  9 34  1  1
 11 35  1  6
 12 36  1  0
M  CHG  8  15  -1  16  -1  19  -1  20  -1  22  -1  23  -1  26  -1  28  -1
M  END
>  <filename_input>  (17) 
7SDD_4IP_docked.sdf

>  <pdb_id>  (17) 
7SDD_4IP

>  <pose_rank>  (17) 
16

>  <num_atoms_heavy>  (17) 
28

>  <num_torsions>  (17) 
8

>  <pose>  (17) 
[11.088990077954506, -0.033947617162461044, -5.629504485701467, 3.371754785187248, 4.532549453544775, 2.371759108230435, -0.017900993798218127, -3.9983453229680026, 6.716391784267887, 1.4779192523825515, -2.7286953589740897, 1.9521057539073055, 0.3777816163464817, -1.3906523098376626]

>  <energy>  (17) 
-455.4741964468618

>  <inter_energy>  (17) 
-509.3445449452513

>  <intra_energy>  (17) 
56.52099780359514

>  <rmsd>  (17) 
1.74509

>  <sdf_rank>  (17) 
0

$$$$

     RDKit          3D

 36 36  0  0  0  0  0  0  0  0999 V2000
   11.8667   -2.5803   -6.3337 C   0  0  2  0  0  0  0  0  0  0  0  0
   13.1707   -2.9414   -5.8836 O   0  0  0  0  0  0  0  0  0  0  0  0
   11.9160   -2.3078   -7.8277 C   0  0  2  0  0  0  0  0  0  0  0  0
   12.8467   -1.2652   -8.0756 O   0  0  0  0  0  0  0  0  0  0  0  0
   10.5299   -1.8870   -8.2753 C   0  0  2  0  0  0  0  0  0  0  0  0
   10.5001   -1.6565   -9.6708 O   0  0  0  0  0  0  0  0  0  0  0  0
   10.1447   -0.5776   -7.5935 C   0  0  1  0  0  0  0  0  0  0  0  0
    8.9170   -0.1233   -8.1616 O   0  0  0  0  0  0  0  0  0  0  0  0
   10.0575   -0.8296   -6.0964 C   0  0  2  0  0  0  0  0  0  0  0  0
    9.7249    0.4186   -5.4782 O   0  0  0  0  0  0  0  0  0  0  0  0
   11.4079   -1.3182   -5.5981 C   0  0  1  0  0  0  0  0  0  0  0  0
   11.3352   -1.6721   -4.2079 O   0  0  0  0  0  0  0  0  0  0  0  0
   13.9327   -4.2540   -6.4257 P   0  0  2  0  0  0  0  0  0  0  0  0
   12.8974   -5.3421   -6.5588 O   0  0  0  0  0  0  0  0  0  0  0  0
   15.0110   -4.6673   -5.4500 O   0  0  0  0  0  0  0  0  0  0  0  0
   14.5684   -4.0069   -7.7693 O   0  0  0  0  0  0  0  0  0  0  0  0
   11.0975   -2.6336  -10.7806 P   0  0  2  0  0  0  0  0  0  0  0  0
   10.2112   -2.5339  -12.0069 O   0  0  0  0  0  0  0  0  0  0  0  0
   11.0833   -4.0337  -10.2408 O   0  0  0  0  0  0  0  0  0  0  0  0
   12.4892   -2.1829  -11.1135 O   0  0  0  0  0  0  0  0  0  0  0  0
    7.5313   -0.9702   -8.0883 P   0  0  1  0  0  0  0  0  0  0  0  0
    6.8142   -0.8619   -9.4139 O   0  0  0  0  0  0  0  0  0  0  0  0
    7.8117   -2.4257   -7.8128 O   0  0  0  0  0  0  0  0  0  0  0  0
    6.6958   -0.3684   -6.9854 O   0  0  0  0  0  0  0  0  0  0  0  0
   10.6682    1.7188   -5.5838 P   0  0  2  0  0  0  0  0  0  0  0  0
   10.4336    2.5779   -4.3579 O   0  0  0  0  0  0  0  0  0  0  0  0
   10.3394    2.5330   -6.8098 O   0  0  0  0  0  0  0  0  0  0  0  0
   12.0986    1.2389   -5.6570 O   0  0  0  0  0  0  0  0  0  0  0  0
   11.1607   -3.3988   -6.1295 H   0  0  0  0  0  0  0  0  0  0  0  0
   12.2296   -3.2054   -8.3809 H   0  0  0  0  0  0  0  0  0  0  0  0
   13.1716   -0.9012   -7.2142 H   0  0  0  0  0  0  0  0  0  0  0  0
    9.8332   -2.6958   -8.0096 H   0  0  0  0  0  0  0  0  0  0  0  0
   10.8915    0.2146   -7.7502 H   0  0  0  0  0  0  0  0  0  0  0  0
    9.2995   -1.5902   -5.8574 H   0  0  0  0  0  0  0  0  0  0  0  0
   12.1128   -0.4923   -5.7741 H   0  0  0  0  0  0  0  0  0  0  0  0
   11.5004   -0.8685   -3.6538 H   0  0  0  0  0  0  0  0  0  0  0  0
  1  2  1  0
  1  3  1  0
  1 11  1  0
  2 13  1  0
  3  4  1  0
  3  5  1  0
  5  6  1  0
  5  7  1  0
  6 17  1  0
  7  8  1  0
  7  9  1  0
  8 21  1  0
  9 10  1  0
  9 11  1  0
 10 25  1  0
 11 12  1  0
 13 14  2  0
 13 15  1  1
 13 16  1  0
 17 18  2  0
 17 19  1  1
 17 20  1  0
 21 22  1  6
 21 23  1  0
 21 24  2  0
 25 26  1  1
 25 27  2  0
 25 28  1  0
  1 29  1  6
  3 30  1  6
  4 31  1  0
  5 32  1  6
  7 33  1  1
  9 34  1  6
 11 35  1  1
 12 36  1  0
M  CHG  8  15  -1  16  -1  19  -1  20  -1  22  -1  23  -1  26  -1  28  -1
M  END
>  <filename_input>  (18) 
7SDD_4IP_docked.sdf

>  <pdb_id>  (18) 
7SDD_4IP

>  <pose_rank>  (18) 
17

>  <num_atoms_heavy>  (18) 
28

>  <num_torsions>  (18) 
8

>  <pose>  (18) 
[11.866716690294796, -2.580300581298277, -6.333706572162268, -3.330644590924274, -3.1513682580570017, 1.5792812307494741, 0.9321446127398821, 0.3716054128725482, -0.5073529705045244, -6.7076749532828455, -9.072161548571525, 3.819942480797682, 15.59691998989189, 2.945616280640256]

>  <energy>  (18) 
-482.05600583108026

>  <inter_energy>  (18) 
-574.4677823833686

>  <intra_energy>  (18) 
86.27007790421428

>  <rmsd>  (18) 
4.91709

>  <sdf_rank>  (18) 
0

$$$$

     RDKit          3D

 36 36  0  0  0  0  0  0  0  0999 V2000
    7.1799    0.0309   -5.3742 C   0  0  2  0  0  0  0  0  0  0  0  0
    5.8714    0.5975   -5.3695 O   0  0  0  0  0  0  0  0  0  0  0  0
    7.9645    0.5861   -4.1975 C   0  0  2  0  0  0  0  0  0  0  0  0
    8.0220    2.0001   -4.3077 O   0  0  0  0  0  0  0  0  0  0  0  0
    9.3628    0.0020   -4.2465 C   0  0  2  0  0  0  0  0  0  0  0  0
   10.1346    0.4513   -3.1493 O   0  0  0  0  0  0  0  0  0  0  0  0
   10.0701    0.4667   -5.5160 C   0  0  1  0  0  0  0  0  0  0  0  0
   11.4312    0.0432   -5.4487 O   0  0  0  0  0  0  0  0  0  0  0  0
    9.3220   -0.1019   -6.7116 C   0  0  2  0  0  0  0  0  0  0  0  0
    9.9863    0.3726   -7.8882 O   0  0  0  0  0  0  0  0  0  0  0  0
    7.8874    0.4000   -6.6810 C   0  0  1  0  0  0  0  0  0  0  0  0
    7.1189   -0.2034   -7.7338 O   0  0  0  0  0  0  0  0  0  0  0  0
    4.6102   -0.1610   -4.7125 P   0  0  2  0  0  0  0  0  0  0  0  0
    3.8088   -0.7486   -5.8465 O   0  0  0  0  0  0  0  0  0  0  0  0
    3.7703    0.8175   -3.9235 O   0  0  0  0  0  0  0  0  0  0  0  0
    5.0519   -1.2685   -3.7910 O   0  0  0  0  0  0  0  0  0  0  0  0
   10.2036   -0.2522   -1.7198 P   0  0  2  0  0  0  0  0  0  0  0  0
    9.4087   -1.5409   -1.8022 O   0  0  0  0  0  0  0  0  0  0  0  0
    9.5955    0.6702   -0.7045 O   0  0  0  0  0  0  0  0  0  0  0  0
   11.6394   -0.5525   -1.4049 O   0  0  0  0  0  0  0  0  0  0  0  0
   11.9243   -1.4486   -5.8660 P   0  0  1  0  0  0  0  0  0  0  0  0
   12.3383   -2.1992   -4.6217 O   0  0  0  0  0  0  0  0  0  0  0  0
   10.8081   -2.2096   -6.5354 O   0  0  0  0  0  0  0  0  0  0  0  0
   13.0977   -1.2879   -6.8007 O   0  0  0  0  0  0  0  0  0  0  0  0
    9.9144   -0.4012   -9.2980 P   0  0  2  0  0  0  0  0  0  0  0  0
   11.1310   -1.2971   -9.4118 O   0  0  0  0  0  0  0  0  0  0  0  0
    9.9231    0.5682  -10.4532 O   0  0  0  0  0  0  0  0  0  0  0  0
    8.6342   -1.2029   -9.3127 O   0  0  0  0  0  0  0  0  0  0  0  0
    7.1136   -1.0640   -5.2917 H   0  0  0  0  0  0  0  0  0  0  0  0
    7.4835    0.3216   -3.2442 H   0  0  0  0  0  0  0  0  0  0  0  0
    8.0383    2.4012   -3.4028 H   0  0  0  0  0  0  0  0  0  0  0  0
    9.2682   -1.0936   -4.2202 H   0  0  0  0  0  0  0  0  0  0  0  0
   10.0722    1.5618   -5.6203 H   0  0  0  0  0  0  0  0  0  0  0  0
    9.3090   -1.2017   -6.6953 H   0  0  0  0  0  0  0  0  0  0  0  0
    7.9462    1.4928   -6.7917 H   0  0  0  0  0  0  0  0  0  0  0  0
    6.4043   -0.7646   -7.3407 H   0  0  0  0  0  0  0  0  0  0  0  0
  1  2  1  0
  1  3  1  0
  1 11  1  0
  2 13  1  0
  3  4  1  0
  3  5  1  0
  5  6  1  0
  5  7  1  0
  6 17  1  0
  7  8  1  0
  7  9  1  0
  8 21  1  0
  9 10  1  0
  9 11  1  0
 10 25  1  0
 11 12  1  0
 13 14  2  0
 13 15  1  1
 13 16  1  0
 17 18  2  0
 17 19  1  1
 17 20  1  0
 21 22  1  1
 21 23  1  0
 21 24  2  0
 25 26  1  6
 25 27  2  0
 25 28  1  0
  1 29  1  1
  3 30  1  1
  4 31  1  0
  5 32  1  6
  7 33  1  6
  9 34  1  1
 11 35  1  6
 12 36  1  0
M  CHG  8  15  -1  16  -1  19  -1  20  -1  22  -1  23  -1  26  -1  28  -1
M  END
>  <filename_input>  (19) 
7SDD_4IP_docked.sdf

>  <pdb_id>  (19) 
7SDD_4IP

>  <pose_rank>  (19) 
18

>  <num_atoms_heavy>  (19) 
28

>  <num_torsions>  (19) 
8

>  <pose>  (19) 
[7.179920720413583, 0.030933273808977924, -5.374201588492049, 0.5244032579934278, 4.008993254870953, -2.4567154933929984, 0.33771037853123015, -0.7356751516859118, 0.198048192598768, -2.8814961288174143, -2.4073016455829825, -1.945021222287724, -5.759684939044404, 3.9526838836429468]

>  <energy>  (19) 
-244.36295507726373

>  <inter_energy>  (19) 
-340.7424707188845

>  <intra_energy>  (19) 
97.902518005143

>  <rmsd>  (19) 
5.55994

>  <sdf_rank>  (19) 
0

$$$$

     RDKit          3D

 36 36  0  0  0  0  0  0  0  0999 V2000
   11.2217   -1.1512   -5.0969 C   0  0  2  0  0  0  0  0  0  0  0  0
   11.5607   -0.1672   -4.1222 O   0  0  0  0  0  0  0  0  0  0  0  0
   12.4989   -1.7220   -5.6898 C   0  0  2  0  0  0  0  0  0  0  0  0
   13.2487   -0.6667   -6.2717 O   0  0  0  0  0  0  0  0  0  0  0  0
   12.1139   -2.7347   -6.7504 C   0  0  2  0  0  0  0  0  0  0  0  0
   13.2643   -3.3341   -7.3150 O   0  0  0  0  0  0  0  0  0  0  0  0
   11.3679   -2.0353   -7.8827 C   0  0  1  0  0  0  0  0  0  0  0  0
   11.1717   -2.9773   -8.9364 O   0  0  0  0  0  0  0  0  0  0  0  0
   10.0675   -1.4802   -7.3227 C   0  0  2  0  0  0  0  0  0  0  0  0
    9.4020   -0.8042   -8.3956 O   0  0  0  0  0  0  0  0  0  0  0  0
   10.3889   -0.5011   -6.2052 C   0  0  1  0  0  0  0  0  0  0  0  0
    9.1828   -0.0382   -5.5772 O   0  0  0  0  0  0  0  0  0  0  0  0
   11.7774    1.3828   -4.5070 P   0  0  2  0  0  0  0  0  0  0  0  0
   10.6482    2.1566   -3.8751 O   0  0  0  0  0  0  0  0  0  0  0  0
   11.7578    1.5515   -6.0092 O   0  0  0  0  0  0  0  0  0  0  0  0
   13.0905    1.9028   -3.9815 O   0  0  0  0  0  0  0  0  0  0  0  0
   13.8581   -4.7569   -6.9072 P   0  0  2  0  0  0  0  0  0  0  0  0
   14.8815   -5.1463   -7.9562 O   0  0  0  0  0  0  0  0  0  0  0  0
   12.7355   -5.7523   -6.8807 O   0  0  0  0  0  0  0  0  0  0  0  0
   14.5182   -4.6314   -5.5658 O   0  0  0  0  0  0  0  0  0  0  0  0
   11.9895   -2.9304  -10.3405 P   0  0  1  0  0  0  0  0  0  0  0  0
   13.1980   -2.0377  -10.1799 O   0  0  0  0  0  0  0  0  0  0  0  0
   12.4606   -4.3093  -10.7277 O   0  0  0  0  0  0  0  0  0  0  0  0
   11.0553   -2.3714  -11.3851 O   0  0  0  0  0  0  0  0  0  0  0  0
   10.0219    0.4908   -9.1237 P   0  0  2  0  0  0  0  0  0  0  0  0
    9.4988    1.7275   -8.4218 O   0  0  0  0  0  0  0  0  0  0  0  0
    9.6093    0.5515  -10.5729 O   0  0  0  0  0  0  0  0  0  0  0  0
   11.5260    0.3930   -9.0238 O   0  0  0  0  0  0  0  0  0  0  0  0
   10.6387   -1.9573   -4.6274 H   0  0  0  0  0  0  0  0  0  0  0  0
   13.1092   -2.2083   -4.9145 H   0  0  0  0  0  0  0  0  0  0  0  0
   13.6447   -0.1094   -5.5557 H   0  0  0  0  0  0  0  0  0  0  0  0
   11.4852   -3.4989   -6.2700 H   0  0  0  0  0  0  0  0  0  0  0  0
   11.9333   -1.1892   -8.3002 H   0  0  0  0  0  0  0  0  0  0  0  0
    9.4283   -2.2781   -6.9168 H   0  0  0  0  0  0  0  0  0  0  0  0
   10.9480    0.3217   -6.6746 H   0  0  0  0  0  0  0  0  0  0  0  0
    9.2867   -0.0781   -4.5935 H   0  0  0  0  0  0  0  0  0  0  0  0
  1  2  1  0
  1  3  1  0
  1 11  1  0
  2 13  1  0
  3  4  1  0
  3  5  1  0
  5  6  1  0
  5  7  1  0
  6 17  1  0
  7  8  1  0
  7  9  1  0
  8 21  1  0
  9 10  1  0
  9 11  1  0
 10 25  1  0
 11 12  1  0
 13 14  2  0
 13 15  1  6
 13 16  1  0
 17 18  2  0
 17 19  1  1
 17 20  1  0
 21 22  1  1
 21 23  1  0
 21 24  2  0
 25 26  1  1
 25 27  2  0
 25 28  1  0
  1 29  1  1
  3 30  1  1
  4 31  1  0
  5 32  1  1
  7 33  1  6
  9 34  1  1
 11 35  1  6
 12 36  1  0
M  CHG  8  15  -1  16  -1  19  -1  20  -1  22  -1  23  -1  26  -1  28  -1
M  END
>  <filename_input>  (20) 
7SDD_4IP_docked.sdf

>  <pdb_id>  (20) 
7SDD_4IP

>  <pose_rank>  (20) 
19

>  <num_atoms_heavy>  (20) 
28

>  <num_torsions>  (20) 
8

>  <pose>  (20) 
[11.221665966795017, -1.1512283071594136, -5.096916628767351, 2.3747443217099247, -5.645901780395791, -1.2034185596574007, -2.718435555603178, -3.2712728071373465, 0.3844109795764734, -0.05474162351179088, 0.5543608145924974, 0.2518738691929263, 2.988583831272411, -2.280819663076291]

>  <energy>  (20) 
-471.41651880148004

>  <inter_energy>  (20) 
-606.2889739459644

>  <intra_energy>  (20) 
137.3667736057486

>  <rmsd>  (20) 
1.99968

>  <sdf_rank>  (20) 
0

$$$$

     RDKit          3D

 36 36  0  0  0  0  0  0  0  0999 V2000
   12.6887   -2.1974   -6.8691 C   0  0  2  0  0  0  0  0  0  0  0  0
   13.5040   -3.3641   -6.9547 O   0  0  0  0  0  0  0  0  0  0  0  0
   11.6947   -2.3698   -5.7330 C   0  0  2  0  0  0  0  0  0  0  0  0
   10.9067   -3.5240   -5.9811 O   0  0  0  0  0  0  0  0  0  0  0  0
   10.8137   -1.1367   -5.6873 C   0  0  2  0  0  0  0  0  0  0  0  0
    9.8885   -1.2185   -4.6201 O   0  0  0  0  0  0  0  0  0  0  0  0
   10.0059   -1.0337   -6.9775 C   0  0  1  0  0  0  0  0  0  0  0  0
    9.0688    0.0327   -6.8330 O   0  0  0  0  0  0  0  0  0  0  0  0
   10.9765   -0.8289   -8.1301 C   0  0  2  0  0  0  0  0  0  0  0  0
   10.1974   -0.7657   -9.3302 O   0  0  0  0  0  0  0  0  0  0  0  0
   11.9322   -2.0097   -8.1870 C   0  0  1  0  0  0  0  0  0  0  0  0
   12.9341   -1.8002   -9.1947 O   0  0  0  0  0  0  0  0  0  0  0  0
   13.2425   -4.5150   -8.0523 P   0  0  2  0  0  0  0  0  0  0  0  0
   13.6116   -5.8287   -7.4109 O   0  0  0  0  0  0  0  0  0  0  0  0
   14.0942   -4.2670   -9.2764 O   0  0  0  0  0  0  0  0  0  0  0  0
   11.7961   -4.5572   -8.4729 O   0  0  0  0  0  0  0  0  0  0  0  0
   10.2678   -1.4009   -3.0818 P   0  0  2  0  0  0  0  0  0  0  0  0
    9.1590   -0.7764   -2.2573 O   0  0  0  0  0  0  0  0  0  0  0  0
   11.5676   -0.6967   -2.8244 O   0  0  0  0  0  0  0  0  0  0  0  0
   10.3653   -2.8684   -2.7855 O   0  0  0  0  0  0  0  0  0  0  0  0
    9.4838    1.6028   -6.9049 P   0  0  1  0  0  0  0  0  0  0  0  0
   10.9065    1.7614   -6.4213 O   0  0  0  0  0  0  0  0  0  0  0  0
    9.4003    2.1104   -8.3222 O   0  0  0  0  0  0  0  0  0  0  0  0
    8.5342    2.3591   -6.0090 O   0  0  0  0  0  0  0  0  0  0  0  0
    9.3584   -2.0211   -9.8882 P   0  0  2  0  0  0  0  0  0  0  0  0
   10.1416   -2.6509  -11.0220 O   0  0  0  0  0  0  0  0  0  0  0  0
    8.0144   -1.5871  -10.4170 O   0  0  0  0  0  0  0  0  0  0  0  0
    9.1694   -2.9878   -8.7429 O   0  0  0  0  0  0  0  0  0  0  0  0
   13.3176   -1.3148   -6.6804 H   0  0  0  0  0  0  0  0  0  0  0  0
   12.2143   -2.4922   -4.7711 H   0  0  0  0  0  0  0  0  0  0  0  0
   10.6315   -3.9270   -5.1197 H   0  0  0  0  0  0  0  0  0  0  0  0
   11.4686   -0.2629   -5.5552 H   0  0  0  0  0  0  0  0  0  0  0  0
    9.4323   -1.9480   -7.1896 H   0  0  0  0  0  0  0  0  0  0  0  0
   11.5645    0.0923   -8.0055 H   0  0  0  0  0  0  0  0  0  0  0  0
   11.3116   -2.8917   -8.4037 H   0  0  0  0  0  0  0  0  0  0  0  0
   13.8052   -1.6181   -8.7611 H   0  0  0  0  0  0  0  0  0  0  0  0
  1  2  1  0
  1  3  1  0
  1 11  1  0
  2 13  1  0
  3  4  1  0
  3  5  1  0
  5  6  1  0
  5  7  1  0
  6 17  1  0
  7  8  1  0
  7  9  1  0
  8 21  1  0
  9 10  1  0
  9 11  1  0
 10 25  1  0
 11 12  1  0
 13 14  2  0
 13 15  1  6
 13 16  1  0
 17 18  2  0
 17 19  1  6
 17 20  1  0
 21 22  1  1
 21 23  1  0
 21 24  2  0
 25 26  1  6
 25 27  2  0
 25 28  1  0
  1 29  1  1
  3 30  1  1
  4 31  1  0
  5 32  1  1
  7 33  1  6
  9 34  1  1
 11 35  1  6
 12 36  1  0
M  CHG  8  15  -1  16  -1  19  -1  20  -1  22  -1  23  -1  26  -1  28  -1
M  END
>  <filename_input>  (21) 
7SDD_4IP_docked.sdf

>  <pdb_id>  (21) 
7SDD_4IP

>  <pose_rank>  (21) 
20

>  <num_atoms_heavy>  (21) 
28

>  <num_torsions>  (21) 
8

>  <pose>  (21) 
[12.68871815157431, -2.1973938295471553, -6.869090573547305, -1.492681487109048, 0.7696917199587197, -2.2026643114424367, -2.5086756710640006, -1.4966902012038203, 18.515518706577094, -0.31411616039282514, -2.5450059275173045, -0.541785989065776, 2.9510193343682327, 3.8399375805229248]

>  <energy>  (21) 
-366.0056060832492

>  <inter_energy>  (21) 
-521.799730268862

>  <intra_energy>  (21) 
160.7604675116122

>  <rmsd>  (21) 
5.14813

>  <sdf_rank>  (21) 
0

$$$$

     RDKit          3D

 36 36  0  0  0  0  0  0  0  0999 V2000
   11.0349   -0.5999   -6.3843 C   0  0  2  0  0  0  0  0  0  0  0  0
   10.8895   -0.1579   -5.0364 O   0  0  0  0  0  0  0  0  0  0  0  0
    9.8623   -1.4981   -6.7404 C   0  0  2  0  0  0  0  0  0  0  0  0
    9.8357   -2.5984   -5.8442 O   0  0  0  0  0  0  0  0  0  0  0  0
   10.0591   -1.9878   -8.1617 C   0  0  2  0  0  0  0  0  0  0  0  0
    8.9751   -2.8007   -8.5686 O   0  0  0  0  0  0  0  0  0  0  0  0
   11.3195   -2.8439   -8.2409 C   0  0  1  0  0  0  0  0  0  0  0  0
   11.3826   -3.4256   -9.5424 O   0  0  0  0  0  0  0  0  0  0  0  0
   12.5145   -1.9604   -7.9187 C   0  0  2  0  0  0  0  0  0  0  0  0
   13.6790   -2.7925   -7.9699 O   0  0  0  0  0  0  0  0  0  0  0  0
   12.3418   -1.3857   -6.5220 C   0  0  1  0  0  0  0  0  0  0  0  0
   13.3972   -0.4582   -6.2237 O   0  0  0  0  0  0  0  0  0  0  0  0
   11.6722   -0.8590   -3.8144 P   0  0  2  0  0  0  0  0  0  0  0  0
   12.9372   -0.0699   -3.5897 O   0  0  0  0  0  0  0  0  0  0  0  0
   11.9991   -2.2933   -4.1629 O   0  0  0  0  0  0  0  0  0  0  0  0
   10.8485   -0.8461   -2.5526 O   0  0  0  0  0  0  0  0  0  0  0  0
    7.6395   -2.2771   -9.2652 P   0  0  2  0  0  0  0  0  0  0  0  0
    8.0365   -1.5590  -10.5403 O   0  0  0  0  0  0  0  0  0  0  0  0
    6.9521   -1.3293   -8.3267 O   0  0  0  0  0  0  0  0  0  0  0  0
    6.7751   -3.4600   -9.5886 O   0  0  0  0  0  0  0  0  0  0  0  0
   11.6890   -2.5692  -10.8898 P   0  0  1  0  0  0  0  0  0  0  0  0
   10.8037   -3.0705  -12.0070 O   0  0  0  0  0  0  0  0  0  0  0  0
   11.3982   -1.1066  -10.6677 O   0  0  0  0  0  0  0  0  0  0  0  0
   13.1430   -2.7793  -11.2337 O   0  0  0  0  0  0  0  0  0  0  0  0
   13.9342   -3.9944   -6.9300 P   0  0  2  0  0  0  0  0  0  0  0  0
   12.5937   -4.5940   -6.5572 O   0  0  0  0  0  0  0  0  0  0  0  0
   14.6024   -3.4957   -5.6734 O   0  0  0  0  0  0  0  0  0  0  0  0
   14.8220   -5.0074   -7.6137 O   0  0  0  0  0  0  0  0  0  0  0  0
   11.0568    0.2665   -7.0617 H   0  0  0  0  0  0  0  0  0  0  0  0
    8.9107   -0.9517   -6.6631 H   0  0  0  0  0  0  0  0  0  0  0  0
    9.8438   -2.2651   -4.9120 H   0  0  0  0  0  0  0  0  0  0  0  0
   10.1352   -1.1038   -8.8121 H   0  0  0  0  0  0  0  0  0  0  0  0
   11.3150   -3.6686   -7.5130 H   0  0  0  0  0  0  0  0  0  0  0  0
   12.6063   -1.1277   -8.6315 H   0  0  0  0  0  0  0  0  0  0  0  0
   12.3475   -2.2465   -5.8372 H   0  0  0  0  0  0  0  0  0  0  0  0
   13.4940   -0.3730   -5.2421 H   0  0  0  0  0  0  0  0  0  0  0  0
  1  2  1  0
  1  3  1  0
  1 11  1  0
  2 13  1  0
  3  4  1  0
  3  5  1  0
  5  6  1  0
  5  7  1  0
  6 17  1  0
  7  8  1  0
  7  9  1  0
  8 21  1  0
  9 10  1  0
  9 11  1  0
 10 25  1  0
 11 12  1  0
 13 14  2  0
 13 15  1  6
 13 16  1  0
 17 18  2  0
 17 19  1  1
 17 20  1  0
 21 22  1  6
 21 23  1  0
 21 24  2  0
 25 26  1  1
 25 27  2  0
 25 28  1  0
  1 29  1  6
  3 30  1  6
  4 31  1  0
  5 32  1  6
  7 33  1  1
  9 34  1  6
 11 35  1  1
 12 36  1  0
M  CHG  8  15  -1  16  -1  19  -1  20  -1  22  -1  23  -1  26  -1  28  -1
M  END
>  <filename_input>  (22) 
7SDD_4IP_docked.sdf

>  <pdb_id>  (22) 
7SDD_4IP

>  <pose_rank>  (22) 
21

>  <num_atoms_heavy>  (22) 
28

>  <num_torsions>  (22) 
8

>  <pose>  (22) 
[11.034863317016917, -0.5999125416567432, -6.38432471047677, 0.01704297602561197, -1.4288020465304543, -2.1421562623750354, 3.7406101411992005, 2.6995430462258176, 0.2162203531500713, 4.328655581552097, -2.630022034308734, -2.4698436341053607, 2.947482171392743, -0.0917947930061393]

>  <energy>  (22) 
-445.5473809710087

>  <inter_energy>  (22) 
-595.5248148288084

>  <intra_energy>  (22) 
155.23686373765614

>  <rmsd>  (22) 
1.21874

>  <sdf_rank>  (22) 
0

$$$$

     RDKit          3D

 36 36  0  0  0  0  0  0  0  0999 V2000
   11.0292   -0.6502   -4.7370 C   0  0  2  0  0  0  0  0  0  0  0  0
   11.7461   -0.7714   -3.5104 O   0  0  0  0  0  0  0  0  0  0  0  0
   11.3513   -1.8445   -5.6193 C   0  0  2  0  0  0  0  0  0  0  0  0
   12.7513   -1.8830   -5.8499 O   0  0  0  0  0  0  0  0  0  0  0  0
   10.6111   -1.6736   -6.9314 C   0  0  2  0  0  0  0  0  0  0  0  0
   10.8392   -2.7783   -7.7854 O   0  0  0  0  0  0  0  0  0  0  0  0
   11.1246   -0.4316   -7.6536 C   0  0  1  0  0  0  0  0  0  0  0  0
   10.5345   -0.3949   -8.9523 O   0  0  0  0  0  0  0  0  0  0  0  0
   10.7870    0.7844   -6.8053 C   0  0  2  0  0  0  0  0  0  0  0  0
   11.3050    1.9314   -7.4888 O   0  0  0  0  0  0  0  0  0  0  0  0
   11.4524    0.6391   -5.4463 C   0  0  1  0  0  0  0  0  0  0  0  0
   11.0670    1.7161   -4.5777 O   0  0  0  0  0  0  0  0  0  0  0  0
   10.9982   -0.9022   -2.0887 P   0  0  2  0  0  0  0  0  0  0  0  0
   10.6235   -2.3527   -1.9188 O   0  0  0  0  0  0  0  0  0  0  0  0
    9.7623   -0.0317   -2.0711 O   0  0  0  0  0  0  0  0  0  0  0  0
   11.8966   -0.4854   -0.9530 O   0  0  0  0  0  0  0  0  0  0  0  0
   12.2687   -3.2811   -8.2820 P   0  0  2  0  0  0  0  0  0  0  0  0
   12.7358   -4.3594   -7.3236 O   0  0  0  0  0  0  0  0  0  0  0  0
   13.2174   -2.1187   -8.2597 O   0  0  0  0  0  0  0  0  0  0  0  0
   12.1213   -3.8487   -9.6629 O   0  0  0  0  0  0  0  0  0  0  0  0
    8.9481   -0.1469   -9.2061 P   0  0  1  0  0  0  0  0  0  0  0  0
    8.2737    0.1372   -7.8841 O   0  0  0  0  0  0  0  0  0  0  0  0
    8.7339    1.0353  -10.1170 O   0  0  0  0  0  0  0  0  0  0  0  0
    8.3906   -1.4057   -9.8235 O   0  0  0  0  0  0  0  0  0  0  0  0
   10.5918    3.3733   -7.4296 P   0  0  2  0  0  0  0  0  0  0  0  0
   10.8011    4.0629   -8.7624 O   0  0  0  0  0  0  0  0  0  0  0  0
   11.1904    4.2338   -6.3454 O   0  0  0  0  0  0  0  0  0  0  0  0
    9.1251    3.1448   -7.1498 O   0  0  0  0  0  0  0  0  0  0  0  0
    9.9480   -0.6186   -4.5367 H   0  0  0  0  0  0  0  0  0  0  0  0
   11.0429   -2.7840   -5.1373 H   0  0  0  0  0  0  0  0  0  0  0  0
   13.2283   -1.8961   -4.9825 H   0  0  0  0  0  0  0  0  0  0  0  0
    9.5389   -1.5872   -6.7013 H   0  0  0  0  0  0  0  0  0  0  0  0
   12.2161   -0.4444   -7.7895 H   0  0  0  0  0  0  0  0  0  0  0  0
    9.7019    0.8848   -6.6553 H   0  0  0  0  0  0  0  0  0  0  0  0
   12.5356    0.6352   -5.6381 H   0  0  0  0  0  0  0  0  0  0  0  0
   11.1687    1.4321   -3.6348 H   0  0  0  0  0  0  0  0  0  0  0  0
  1  2  1  0
  1  3  1  0
  1 11  1  0
  2 13  1  0
  3  4  1  0
  3  5  1  0
  5  6  1  0
  5  7  1  0
  6 17  1  0
  7  8  1  0
  7  9  1  0
  8 21  1  0
  9 10  1  0
  9 11  1  0
 10 25  1  0
 11 12  1  0
 13 14  2  0
 13 15  1  6
 13 16  1  0
 17 18  2  0
 17 19  1  6
 17 20  1  0
 21 22  1  1
 21 23  1  0
 21 24  2  0
 25 26  1  6
 25 27  2  0
 25 28  1  0
  1 29  1  1
  3 30  1  1
  4 31  1  0
  5 32  1  1
  7 33  1  6
  9 34  1  1
 11 35  1  6
 12 36  1  0
M  CHG  8  15  -1  16  -1  19  -1  20  -1  22  -1  23  -1  26  -1  28  -1
M  END
>  <filename_input>  (23) 
7SDD_4IP_docked.sdf

>  <pdb_id>  (23) 
7SDD_4IP

>  <pose_rank>  (23) 
22

>  <num_atoms_heavy>  (23) 
28

>  <num_torsions>  (23) 
8

>  <pose>  (23) 
[11.029161162059179, -0.6502134285157425, -4.7370308707254685, -1.8296461068286107, 0.3122311568835656, 4.82525387750052, -0.038799500206408565, 2.4966821517749636, -2.3436133862662674, -1.3424832565864966, -2.6752048664494334, 0.04949008707375423, 0.38091992947010944, 3.0566729019113654]

>  <energy>  (23) 
-353.2137764571614

>  <inter_energy>  (23) 
-483.29459868456206

>  <intra_energy>  (23) 
134.78021183119364

>  <rmsd>  (23) 
3.51681

>  <sdf_rank>  (23) 
0

$$$$

     RDKit          3D

 36 36  0  0  0  0  0  0  0  0999 V2000
   12.4359   -1.9267   -7.1696 C   0  0  2  0  0  0  0  0  0  0  0  0
   12.4463   -3.2743   -7.6356 O   0  0  0  0  0  0  0  0  0  0  0  0
   12.0841   -1.9162   -5.6916 C   0  0  2  0  0  0  0  0  0  0  0  0
   10.8142   -2.5251   -5.5156 O   0  0  0  0  0  0  0  0  0  0  0  0
   12.0392   -0.4731   -5.2287 C   0  0  2  0  0  0  0  0  0  0  0  0
   11.7545   -0.3970   -3.8450 O   0  0  0  0  0  0  0  0  0  0  0  0
   10.9234    0.2671   -5.9601 C   0  0  1  0  0  0  0  0  0  0  0  0
   10.7965    1.5658   -5.3826 O   0  0  0  0  0  0  0  0  0  0  0  0
   11.2661    0.2987   -7.4413 C   0  0  2  0  0  0  0  0  0  0  0  0
   10.1912    0.9706   -8.1078 O   0  0  0  0  0  0  0  0  0  0  0  0
   11.3885   -1.1283   -7.9507 C   0  0  1  0  0  0  0  0  0  0  0  0
   11.8195   -1.1400   -9.3208 O   0  0  0  0  0  0  0  0  0  0  0  0
   13.6454   -4.2933   -7.2877 P   0  0  2  0  0  0  0  0  0  0  0  0
   13.0226   -5.5017   -6.6354 O   0  0  0  0  0  0  0  0  0  0  0  0
   14.6296   -3.6343   -6.3482 O   0  0  0  0  0  0  0  0  0  0  0  0
   14.3808   -4.7240   -8.5304 O   0  0  0  0  0  0  0  0  0  0  0  0
   10.7871   -1.3816   -3.0464 P   0  0  2  0  0  0  0  0  0  0  0  0
   11.3490   -2.7840   -3.1756 O   0  0  0  0  0  0  0  0  0  0  0  0
    9.4203   -1.3100   -3.6616 O   0  0  0  0  0  0  0  0  0  0  0  0
   10.7677   -0.9658   -1.6050 O   0  0  0  0  0  0  0  0  0  0  0  0
    9.3661    2.2969   -5.1333 P   0  0  1  0  0  0  0  0  0  0  0  0
    9.3477    2.8876   -3.7427 O   0  0  0  0  0  0  0  0  0  0  0  0
    9.1570    3.4094   -6.1291 O   0  0  0  0  0  0  0  0  0  0  0  0
    8.2941    1.2445   -5.2741 O   0  0  0  0  0  0  0  0  0  0  0  0
   10.4214    2.2541   -9.0518 P   0  0  2  0  0  0  0  0  0  0  0  0
   11.8267    2.7704   -8.8187 O   0  0  0  0  0  0  0  0  0  0  0  0
    9.4453    3.3554   -8.7225 O   0  0  0  0  0  0  0  0  0  0  0  0
   10.2263    1.8084  -10.4818 O   0  0  0  0  0  0  0  0  0  0  0  0
   13.4265   -1.4721   -7.3179 H   0  0  0  0  0  0  0  0  0  0  0  0
   12.8309   -2.4721   -5.1057 H   0  0  0  0  0  0  0  0  0  0  0  0
   10.6232   -2.6166   -4.5485 H   0  0  0  0  0  0  0  0  0  0  0  0
   13.0211   -0.0240   -5.4391 H   0  0  0  0  0  0  0  0  0  0  0  0
    9.9491   -0.2334   -5.8591 H   0  0  0  0  0  0  0  0  0  0  0  0
   12.2172    0.8196   -7.6258 H   0  0  0  0  0  0  0  0  0  0  0  0
   10.3924   -1.5793   -7.8309 H   0  0  0  0  0  0  0  0  0  0  0  0
   12.8085   -1.1670   -9.3554 H   0  0  0  0  0  0  0  0  0  0  0  0
  1  2  1  0
  1  3  1  0
  1 11  1  0
  2 13  1  0
  3  4  1  0
  3  5  1  0
  5  6  1  0
  5  7  1  0
  6 17  1  0
  7  8  1  0
  7  9  1  0
  8 21  1  0
  9 10  1  0
  9 11  1  0
 10 25  1  0
 11 12  1  0
 13 14  2  0
 13 15  1  1
 13 16  1  0
 17 18  2  0
 17 19  1  6
 17 20  1  0
 21 22  1  1
 21 23  1  0
 21 24  2  0
 25 26  1  6
 25 27  2  0
 25 28  1  0
  1 29  1  1
  3 30  1  1
  4 31  1  0
  5 32  1  1
  7 33  1  6
  9 34  1  1
 11 35  1  6
 12 36  1  0
M  CHG  8  15  -1  16  -1  19  -1  20  -1  22  -1  23  -1  26  -1  28  -1
M  END
>  <filename_input>  (24) 
7SDD_4IP_docked.sdf

>  <pdb_id>  (24) 
7SDD_4IP

>  <pose_rank>  (24) 
23

>  <num_atoms_heavy>  (24) 
28

>  <num_torsions>  (24) 
8

>  <pose>  (24) 
[12.435878990706952, -1.926673103739454, -7.169639369539966, -1.9809750754691566, 1.557817295144956, -2.050911566932003, 0.7080420163860736, 3.2234263639485263, 10.611515895887258, -1.9197092169124248, 6.250714381335396, 2.311993596718718, -12.57359232928709, 5.3747421290493165]

>  <energy>  (24) 
-330.3024047265439

>  <inter_energy>  (24) 
-477.4114884218972

>  <intra_energy>  (24) 
148.70435115973265

>  <rmsd>  (24) 
5.65009

>  <sdf_rank>  (24) 
0

$$$$

     RDKit          3D

 36 36  0  0  0  0  0  0  0  0999 V2000
   12.2894   -2.4131   -7.2278 C   0  0  2  0  0  0  0  0  0  0  0  0
   12.2805   -3.8220   -7.0084 O   0  0  0  0  0  0  0  0  0  0  0  0
   12.4810   -1.7056   -5.8969 C   0  0  2  0  0  0  0  0  0  0  0  0
   11.4277   -2.0775   -5.0213 O   0  0  0  0  0  0  0  0  0  0  0  0
   12.4464   -0.2110   -6.1492 C   0  0  2  0  0  0  0  0  0  0  0  0
   12.6601    0.5070   -4.9491 O   0  0  0  0  0  0  0  0  0  0  0  0
   11.0717    0.1900   -6.6759 C   0  0  1  0  0  0  0  0  0  0  0  0
   11.0168    1.6144   -6.7401 O   0  0  0  0  0  0  0  0  0  0  0  0
   10.8661   -0.4810   -8.0250 C   0  0  2  0  0  0  0  0  0  0  0  0
    9.5597   -0.1139   -8.4828 O   0  0  0  0  0  0  0  0  0  0  0  0
   10.9547   -1.9879   -7.8460 C   0  0  1  0  0  0  0  0  0  0  0  0
   10.8748   -2.6528   -9.1167 O   0  0  0  0  0  0  0  0  0  0  0  0
   13.6293   -4.7038   -7.0389 P   0  0  2  0  0  0  0  0  0  0  0  0
   13.3866   -5.9120   -6.1702 O   0  0  0  0  0  0  0  0  0  0  0  0
   14.7898   -3.8945   -6.5062 O   0  0  0  0  0  0  0  0  0  0  0  0
   13.9602   -5.1566   -8.4376 O   0  0  0  0  0  0  0  0  0  0  0  0
   11.8815    0.2660   -3.5783 P   0  0  2  0  0  0  0  0  0  0  0  0
   12.5337   -0.9111   -2.8795 O   0  0  0  0  0  0  0  0  0  0  0  0
   10.4476   -0.0447   -3.8926 O   0  0  0  0  0  0  0  0  0  0  0  0
   12.0083    1.5001   -2.7346 O   0  0  0  0  0  0  0  0  0  0  0  0
    9.7045    2.4777   -6.3214 P   0  0  1  0  0  0  0  0  0  0  0  0
    9.9511    3.1362   -4.9840 O   0  0  0  0  0  0  0  0  0  0  0  0
    9.4280    3.5532   -7.3412 O   0  0  0  0  0  0  0  0  0  0  0  0
    8.5454    1.5160   -6.2306 O   0  0  0  0  0  0  0  0  0  0  0  0
    9.2777    0.4027   -9.9812 P   0  0  2  0  0  0  0  0  0  0  0  0
   10.3931    1.3490  -10.3762 O   0  0  0  0  0  0  0  0  0  0  0  0
    7.9675    1.1446  -10.0648 O   0  0  0  0  0  0  0  0  0  0  0  0
    9.2371   -0.8100  -10.8809 O   0  0  0  0  0  0  0  0  0  0  0  0
   13.1094   -2.1462   -7.9106 H   0  0  0  0  0  0  0  0  0  0  0  0
   13.4414   -1.9838   -5.4384 H   0  0  0  0  0  0  0  0  0  0  0  0
   11.7257   -1.9723   -4.0831 H   0  0  0  0  0  0  0  0  0  0  0  0
   13.2370    0.0234   -6.8772 H   0  0  0  0  0  0  0  0  0  0  0  0
   10.2553   -0.1404   -6.0170 H   0  0  0  0  0  0  0  0  0  0  0  0
   11.6295   -0.1689   -8.7529 H   0  0  0  0  0  0  0  0  0  0  0  0
   10.1192   -2.2644   -7.1860 H   0  0  0  0  0  0  0  0  0  0  0  0
   10.7581   -3.6254   -8.9734 H   0  0  0  0  0  0  0  0  0  0  0  0
  1  2  1  0
  1  3  1  0
  1 11  1  0
  2 13  1  0
  3  4  1  0
  3  5  1  0
  5  6  1  0
  5  7  1  0
  6 17  1  0
  7  8  1  0
  7  9  1  0
  8 21  1  0
  9 10  1  0
  9 11  1  0
 10 25  1  0
 11 12  1  0
 13 14  2  0
 13 15  1  1
 13 16  1  0
 17 18  2  0
 17 19  1  6
 17 20  1  0
 21 22  1  1
 21 23  1  0
 21 24  2  0
 25 26  1  6
 25 27  2  0
 25 28  1  0
  1 29  1  6
  3 30  1  1
  4 31  1  0
  5 32  1  6
  7 33  1  1
  9 34  1  6
 11 35  1  1
 12 36  1  0
M  CHG  8  15  -1  16  -1  19  -1  20  -1  22  -1  23  -1  26  -1  28  -1
M  END
>  <filename_input>  (25) 
7SDD_4IP_docked.sdf

>  <pdb_id>  (25) 
7SDD_4IP

>  <pose_rank>  (25) 
24

>  <num_atoms_heavy>  (25) 
28

>  <num_torsions>  (25) 
8

>  <pose>  (25) 
[12.289405532403157, -2.4131192904220224, -7.227780442097027, -2.664188803477969, 1.1221929926281857, -2.3199354171800044, 0.4561220026880005, 3.7348361014513274, 10.348135041440461, -1.5507181874208995, 6.270911492803702, 1.8102106097177608, -12.432986798531449, 4.8833792215741125]

>  <energy>  (25) 
-463.87386987035654

>  <inter_energy>  (25) 
-578.0947046645274

>  <intra_energy>  (25) 
120.00061842451956

>  <rmsd>  (25) 
5.28164

>  <sdf_rank>  (25) 
0

$$$$

     RDKit          3D

 36 36  0  0  0  0  0  0  0  0999 V2000
   11.1800   -1.4030   -5.3670 C   0  0  2  0  0  0  0  0  0  0  0  0
   11.4900   -0.4370   -4.3650 O   0  0  0  0  0  0  0  0  0  0  0  0
   12.4740   -1.9750   -5.9210 C   0  0  2  0  0  0  0  0  0  0  0  0
   13.2530   -0.9170   -6.4580 O   0  0  0  0  0  0  0  0  0  0  0  0
   12.1210   -2.9680   -7.0110 C   0  0  2  0  0  0  0  0  0  0  0  0
   13.2870   -3.5680   -7.5420 O   0  0  0  0  0  0  0  0  0  0  0  0
   11.4230   -2.2450   -8.1590 C   0  0  1  0  0  0  0  0  0  0  0  0
   11.2590   -3.1690   -9.2340 O   0  0  0  0  0  0  0  0  0  0  0  0
   10.1070   -1.6880   -7.6390 C   0  0  2  0  0  0  0  0  0  0  0  0
    9.4870   -0.9900   -8.7250 O   0  0  0  0  0  0  0  0  0  0  0  0
   10.3940   -0.7290   -6.4950 C   0  0  1  0  0  0  0  0  0  0  0  0
    9.1690   -0.2660   -5.9050 O   0  0  0  0  0  0  0  0  0  0  0  0
   11.0790   -0.6410   -2.8200 P   0  0  2  0  0  0  0  0  0  0  0  0
    9.5760   -0.7520   -2.7740 O   0  0  0  0  0  0  0  0  0  0  0  0
   11.5470    0.5390   -1.9990 O   0  0  0  0  0  0  0  0  0  0  0  0
   11.6870   -1.8960   -2.2490 O   0  0  0  0  0  0  0  0  0  0  0  0
   14.1350   -4.7200   -6.8370 P   0  0  2  0  0  0  0  0  0  0  0  0
   15.1470   -5.2290   -7.8450 O   0  0  0  0  0  0  0  0  0  0  0  0
   13.2000   -5.8230   -6.4360 O   0  0  0  0  0  0  0  0  0  0  0  0
   14.8410   -4.1340   -5.6500 O   0  0  0  0  0  0  0  0  0  0  0  0
   11.4910   -2.7750  -10.7940 P   0  0  1  0  0  0  0  0  0  0  0  0
   11.9310   -1.3320  -10.8800 O   0  0  0  0  0  0  0  0  0  0  0  0
   12.5630   -3.6400  -11.4070 O   0  0  0  0  0  0  0  0  0  0  0  0
   10.1750   -2.9690  -11.5060 O   0  0  0  0  0  0  0  0  0  0  0  0
    7.9910   -1.3130   -9.2240 P   0  0  2  0  0  0  0  0  0  0  0  0
    7.1340   -1.5960   -8.0070 O   0  0  0  0  0  0  0  0  0  0  0  0
    7.9650   -2.5250  -10.1210 O   0  0  0  0  0  0  0  0  0  0  0  0
    7.4930   -0.1050   -9.9820 O   0  0  0  0  0  0  0  0  0  0  0  0
   10.5739   -2.2114   -4.9322 H   0  0  0  0  0  0  0  0  0  0  0  0
   13.0513   -2.4782   -5.1314 H   0  0  0  0  0  0  0  0  0  0  0  0
   13.6435   -0.3866   -5.7189 H   0  0  0  0  0  0  0  0  0  0  0  0
   11.4691   -3.7343   -6.5664 H   0  0  0  0  0  0  0  0  0  0  0  0
   12.0100   -1.3972   -8.5419 H   0  0  0  0  0  0  0  0  0  0  0  0
    9.4470   -2.4868   -7.2697 H   0  0  0  0  0  0  0  0  0  0  0  0
   10.9764    0.0964   -6.9303 H   0  0  0  0  0  0  0  0  0  0  0  0
    9.2462   -0.2952   -4.9184 H   0  0  0  0  0  0  0  0  0  0  0  0
  1  2  1  0
  1  3  1  0
  1 11  1  0
  2 13  1  0
  3  4  1  0
  3  5  1  0
  5  6  1  0
  5  7  1  0
  6 17  1  0
  7  8  1  0
  7  9  1  0
  8 21  1  0
  9 10  1  0
  9 11  1  0
 10 25  1  0
 11 12  1  0
 13 14  2  0
 13 15  1  1
 13 16  1  0
 17 18  2  0
 17 19  1  1
 17 20  1  0
 21 22  1  1
 21 23  1  0
 21 24  2  0
 25 26  1  1
 25 27  2  0
 25 28  1  0
  1 29  1  1
  3 30  1  1
  4 31  1  0
  5 32  1  1
  7 33  1  6
  9 34  1  1
 11 35  1  6
 12 36  1  0
M  CHG  8  15  -1  16  -1  19  -1  20  -1  22  -1  23  -1  26  -1  28  -1
M  END
>  <filename_input>  (26) 
7SDD_4IP_docked.sdf

>  <pdb_id>  (26) 
7SDD_4IP

>  <pose_rank>  (26) 
25

>  <num_atoms_heavy>  (26) 
28

>  <num_torsions>  (26) 
8

>  <pose>  (26) 
[11.18, -1.403, -5.367, 1e-06, 1e-06, 1e-06, 0.0, 0.0, 0.0, 0.0, 0.0, 0.0, 0.0, 0.0]

>  <energy>  (26) 
-633.2726536047152

>  <inter_energy>  (26) 
-670.8309700473551

>  <intra_energy>  (26) 
33.704143730707344

>  <rmsd>  (26) 
0.0

>  <sdf_rank>  (26) 
0

$$$$
