
     RDKit          3D

 39 42  0  0  0  0  0  0  0  0999 V2000
    0.2742    0.6394   -6.5501 N   0  0  0  0  0  0  0  0  0  0  0  0
    2.8508    3.7427   -7.6626 N   0  0  0  0  0  0  0  0  0  0  0  0
    2.6266    5.2406   -4.8067 C   0  0  0  0  0  0  0  0  0  0  0  0
    1.4074    5.2763   -5.3264 C   0  0  0  0  0  0  0  0  0  0  0  0
    0.7614    6.5948   -5.6953 C   0  0  0  0  0  0  0  0  0  0  0  0
    0.7050    3.9428   -5.3937 C   0  0  0  0  0  0  0  0  0  0  0  0
    0.2229    1.7823   -5.9337 C   0  0  0  0  0  0  0  0  0  0  0  0
    1.1863    0.5408   -7.5151 C   0  0  0  0  0  0  0  0  0  0  0  0
    4.0056    3.4267   -8.4646 C   0  0  0  0  0  0  0  0  0  0  0  0
    6.4111    3.4565   -7.9906 C   0  0  0  0  0  0  0  0  0  0  0  0
    7.4236    3.6834   -5.7594 C   0  0  0  0  0  0  0  0  0  0  0  0
    1.4767    7.6901   -5.5513 C   0  0  0  0  0  0  0  0  0  0  0  0
    1.9761    2.6721   -7.2716 C   0  0  0  0  0  0  0  0  0  0  0  0
   -0.2736    3.7113   -4.4751 C   0  0  0  0  0  0  0  0  0  0  0  0
    5.1978    3.5135   -7.5172 C   0  0  0  0  0  0  0  0  0  0  0  0
    7.6126    3.5515   -7.0556 C   0  0  0  0  0  0  0  0  0  0  0  0
    6.0085    3.7429   -5.1982 C   0  0  0  0  0  0  0  0  0  0  0  0
    4.9682    3.6546   -6.0093 C   0  0  0  0  0  0  0  0  0  0  0  0
    2.8834    7.6568   -4.9763 C   0  0  0  0  0  0  0  0  0  0  0  0
    3.4420    6.5147   -4.6209 C   0  0  0  0  0  0  0  0  0  0  0  0
    1.0627    2.8606   -6.2597 C   0  0  0  0  0  0  0  0  0  0  0  0
    2.0390    1.5023   -7.9108 N   0  0  0  0  0  0  0  0  0  0  0  0
    8.9128    3.4992   -7.5863 O   0  0  0  0  0  0  0  0  0  0  0  0
   -0.9435    2.0921   -4.6110 S   0  0  0  0  0  0  0  0  0  0  0  0
    1.2398   -1.0500   -8.3199 Cl  0  0  0  0  0  0  0  0  0  0  0  0
    2.6571    4.7130   -7.3765 H   0  0  0  0  0  0  0  0  0  0  0  0
    3.0571    4.2745   -4.5043 H   0  0  0  0  0  0  0  0  0  0  0  0
   -0.2716    6.6360   -6.0712 H   0  0  0  0  0  0  0  0  0  0  0  0
    3.9185    2.4120   -8.8805 H   0  0  0  0  0  0  0  0  0  0  0  0
    4.1110    4.1148   -9.3163 H   0  0  0  0  0  0  0  0  0  0  0  0
    6.5697    3.3390   -9.0727 H   0  0  0  0  0  0  0  0  0  0  0  0
    8.2873    3.7506   -5.0816 H   0  0  0  0  0  0  0  0  0  0  0  0
    1.0451    8.6553   -5.8551 H   0  0  0  0  0  0  0  0  0  0  0  0
   -0.6065    4.4524   -3.7335 H   0  0  0  0  0  0  0  0  0  0  0  0
    5.8519    3.8597   -4.1157 H   0  0  0  0  0  0  0  0  0  0  0  0
    3.9458    3.6821   -5.6045 H   0  0  0  0  0  0  0  0  0  0  0  0
    3.4429    8.5961   -4.8548 H   0  0  0  0  0  0  0  0  0  0  0  0
    4.4600    6.4838   -4.2053 H   0  0  0  0  0  0  0  0  0  0  0  0
    9.6962    3.5604   -6.9841 H   0  0  0  0  0  0  0  0  0  0  0  0
  1  7  2  0
  1  8  1  0
  2  9  1  0
  2 13  1  0
  3  4  2  0
  3 20  1  0
  4  5  1  0
  4  6  1  0
  5 12  2  0
  6 14  2  0
  6 21  1  0
  7 21  1  0
  7 24  1  0
  8 22  2  0
  8 25  1  0
  9 15  1  0
 10 15  2  0
 10 16  1  0
 11 16  2  0
 11 17  1  0
 12 19  1  0
 13 21  2  0
 13 22  1  0
 14 24  1  0
 15 18  1  0
 16 23  1  0
 17 18  2  0
 19 20  2  0
  2 26  1  0
  3 27  1  0
  5 28  1  0
  9 29  1  0
  9 30  1  0
 10 31  1  0
 11 32  1  0
 12 33  1  0
 14 34  1  0
 17 35  1  0
 18 36  1  0
 19 37  1  0
 20 38  1  0
 23 39  1  0
M  END
>  <filename_input>  (1) 
7SFO_98L_docked.sdf

>  <pdb_id>  (1) 
7SFO_98L

>  <pose_rank>  (1) 
0

>  <num_atoms_heavy>  (1) 
25

>  <num_torsions>  (1) 
4

>  <pose>  (1) 
[0.27420659883637766, 0.6393757881371964, -6.550088450874917, 2.8909833363016544, 0.07070601420685055, -1.4331994645300614, 6.16050319526156, -25.612124276457596, 6.722391871319543, -0.24340401409639784]

>  <energy>  (1) 
-801.5173289456153

>  <inter_energy>  (1) 
-828.4714790631813

>  <intra_energy>  (1) 
30.790137935331206

>  <rmsd>  (1) 
4.78442

>  <sdf_rank>  (1) 
0

$$$$

     RDKit          3D

 39 42  0  0  0  0  0  0  0  0999 V2000
    1.1915    7.3377   -4.2275 N   0  0  0  0  0  0  0  0  0  0  0  0
    3.7267    4.2622   -5.5008 N   0  0  0  0  0  0  0  0  0  0  0  0
    1.1349    1.6064   -4.4721 C   0  0  0  0  0  0  0  0  0  0  0  0
    1.0884    2.5525   -5.3998 C   0  0  0  0  0  0  0  0  0  0  0  0
    1.5441    2.2713   -6.8159 C   0  0  0  0  0  0  0  0  0  0  0  0
    0.6754    3.9146   -4.8996 C   0  0  0  0  0  0  0  0  0  0  0  0
    0.7231    6.1390   -4.4081 C   0  0  0  0  0  0  0  0  0  0  0  0
    2.4881    7.4989   -4.4839 C   0  0  0  0  0  0  0  0  0  0  0  0
    3.9424    4.0745   -6.9132 C   0  0  0  0  0  0  0  0  0  0  0  0
    5.9717    3.8077   -8.2634 C   0  0  0  0  0  0  0  0  0  0  0  0
    8.2413    3.4648   -7.3768 C   0  0  0  0  0  0  0  0  0  0  0  0
    1.9157    1.0431   -7.1084 C   0  0  0  0  0  0  0  0  0  0  0  0
    2.8538    5.3218   -5.0773 C   0  0  0  0  0  0  0  0  0  0  0  0
   -0.6403    4.0891   -4.5933 C   0  0  0  0  0  0  0  0  0  0  0  0
    5.4439    3.8584   -7.0725 C   0  0  0  0  0  0  0  0  0  0  0  0
    7.4730    3.6014   -8.4372 C   0  0  0  0  0  0  0  0  0  0  0  0
    7.6304    3.5153   -5.9821 C   0  0  0  0  0  0  0  0  0  0  0  0
    6.3282    3.6882   -5.8333 C   0  0  0  0  0  0  0  0  0  0  0  0
    1.9518   -0.0535   -6.0564 C   0  0  0  0  0  0  0  0  0  0  0  0
    1.5878    0.1913   -4.8113 C   0  0  0  0  0  0  0  0  0  0  0  0
    1.5232    5.0663   -4.8365 C   0  0  0  0  0  0  0  0  0  0  0  0
    3.3458    6.5491   -4.8967 N   0  0  0  0  0  0  0  0  0  0  0  0
    8.0246    3.5608   -9.7291 O   0  0  0  0  0  0  0  0  0  0  0  0
   -0.9971    5.7409   -4.1104 S   0  0  0  0  0  0  0  0  0  0  0  0
    3.0859    9.1624   -4.2462 Cl  0  0  0  0  0  0  0  0  0  0  0  0
    4.1873    3.6512   -4.8113 H   0  0  0  0  0  0  0  0  0  0  0  0
    0.8415    1.8471   -3.4396 H   0  0  0  0  0  0  0  0  0  0  0  0
    1.5640    3.0671   -7.5750 H   0  0  0  0  0  0  0  0  0  0  0  0
    3.3875    3.1955   -7.2731 H   0  0  0  0  0  0  0  0  0  0  0  0
    3.5908    4.9376   -7.4974 H   0  0  0  0  0  0  0  0  0  0  0  0
    5.3293    3.9144   -9.1500 H   0  0  0  0  0  0  0  0  0  0  0  0
    9.3242    3.3143   -7.4979 H   0  0  0  0  0  0  0  0  0  0  0  0
    2.2078    0.8038   -8.1416 H   0  0  0  0  0  0  0  0  0  0  0  0
   -1.3929    3.2884   -4.6426 H   0  0  0  0  0  0  0  0  0  0  0  0
    8.2743    3.4075   -5.0968 H   0  0  0  0  0  0  0  0  0  0  0  0
    5.8832    3.7097   -4.8276 H   0  0  0  0  0  0  0  0  0  0  0  0
    2.2855   -1.0637   -6.3361 H   0  0  0  0  0  0  0  0  0  0  0  0
    1.6106   -0.5982   -4.0457 H   0  0  0  0  0  0  0  0  0  0  0  0
    8.9984    3.4272   -9.8476 H   0  0  0  0  0  0  0  0  0  0  0  0
  1  7  2  0
  1  8  1  0
  2  9  1  0
  2 13  1  0
  3  4  2  0
  3 20  1  0
  4  5  1  0
  4  6  1  0
  5 12  2  0
  6 14  2  0
  6 21  1  0
  7 21  1  0
  7 24  1  0
  8 22  2  0
  8 25  1  0
  9 15  1  0
 10 15  2  0
 10 16  1  0
 11 16  2  0
 11 17  1  0
 12 19  1  0
 13 21  2  0
 13 22  1  0
 14 24  1  0
 15 18  1  0
 16 23  1  0
 17 18  2  0
 19 20  2  0
  2 26  1  0
  3 27  1  0
  5 28  1  0
  9 29  1  0
  9 30  1  0
 10 31  1  0
 11 32  1  0
 12 33  1  0
 14 34  1  0
 17 35  1  0
 18 36  1  0
 19 37  1  0
 20 38  1  0
 23 39  1  0
M  END
>  <filename_input>  (2) 
7SFO_98L_docked.sdf

>  <pdb_id>  (2) 
7SFO_98L

>  <pose_rank>  (2) 
1

>  <num_atoms_heavy>  (2) 
25

>  <num_torsions>  (2) 
4

>  <pose>  (2) 
[1.19150774890456, 7.337670022777333, -4.227480524116832, 2.9359273927293947, -5.3220119568084465, 1.1964454417071815, 3.0495398849949304, 10.860177566172267, 17.20830972161787, -6.555344242261875]

>  <energy>  (2) 
-927.6220415899387

>  <inter_energy>  (2) 
-947.1500700695345

>  <intra_energy>  (2) 
27.938239243071944

>  <rmsd>  (2) 
1.28255

>  <sdf_rank>  (2) 
0

$$$$

     RDKit          3D

 39 42  0  0  0  0  0  0  0  0999 V2000
    1.2211    7.4874   -4.2288 N   0  0  0  0  0  0  0  0  0  0  0  0
    3.8375    4.4608   -5.4541 N   0  0  0  0  0  0  0  0  0  0  0  0
    1.1792    2.6628   -6.9716 C   0  0  0  0  0  0  0  0  0  0  0  0
    1.1930    2.7692   -5.6501 C   0  0  0  0  0  0  0  0  0  0  0  0
    1.5189    1.5736   -4.7805 C   0  0  0  0  0  0  0  0  0  0  0  0
    0.7467    4.1072   -5.1147 C   0  0  0  0  0  0  0  0  0  0  0  0
    0.7639    6.3033   -4.5073 C   0  0  0  0  0  0  0  0  0  0  0  0
    2.5346    7.6512   -4.3733 C   0  0  0  0  0  0  0  0  0  0  0  0
    5.2549    4.7122   -5.3866 C   0  0  0  0  0  0  0  0  0  0  0  0
    7.0270    4.0982   -6.9660 C   0  0  0  0  0  0  0  0  0  0  0  0
    7.0674    2.0604   -8.3444 C   0  0  0  0  0  0  0  0  0  0  0  0
    1.8575    0.4524   -5.3807 C   0  0  0  0  0  0  0  0  0  0  0  0
    2.9378    5.5043   -5.0471 C   0  0  0  0  0  0  0  0  0  0  0  0
   -0.5883    4.2764   -4.9049 C   0  0  0  0  0  0  0  0  0  0  0  0
    5.8844    3.7857   -6.4217 C   0  0  0  0  0  0  0  0  0  0  0  0
    7.6725    3.1764   -7.9957 C   0  0  0  0  0  0  0  0  0  0  0  0
    5.7281    1.6923   -7.7183 C   0  0  0  0  0  0  0  0  0  0  0  0
    5.1672    2.4953   -6.8304 C   0  0  0  0  0  0  0  0  0  0  0  0
    1.8654    0.3269   -6.8956 C   0  0  0  0  0  0  0  0  0  0  0  0
    1.5502    1.3552   -7.6612 C   0  0  0  0  0  0  0  0  0  0  0  0
    1.5913    5.2475   -4.9256 C   0  0  0  0  0  0  0  0  0  0  0  0
    3.4187    6.7169   -4.7653 N   0  0  0  0  0  0  0  0  0  0  0  0
    8.9101    3.5254   -8.5628 O   0  0  0  0  0  0  0  0  0  0  0  0
   -0.9760    5.9041   -4.3675 S   0  0  0  0  0  0  0  0  0  0  0  0
    3.1180    9.2957   -4.0038 Cl  0  0  0  0  0  0  0  0  0  0  0  0
    3.4780    3.5546   -5.7862 H   0  0  0  0  0  0  0  0  0  0  0  0
    0.8950    3.5334   -7.5810 H   0  0  0  0  0  0  0  0  0  0  0  0
    1.4741    1.6398   -3.6834 H   0  0  0  0  0  0  0  0  0  0  0  0
    5.4707    5.7630   -5.6298 H   0  0  0  0  0  0  0  0  0  0  0  0
    5.6539    4.5275   -4.3782 H   0  0  0  0  0  0  0  0  0  0  0  0
    7.5296    5.0341   -6.6805 H   0  0  0  0  0  0  0  0  0  0  0  0
    7.5288    1.3936   -9.0878 H   0  0  0  0  0  0  0  0  0  0  0  0
    2.1424   -0.4170   -4.7700 H   0  0  0  0  0  0  0  0  0  0  0  0
   -1.3378    3.4852   -5.0547 H   0  0  0  0  0  0  0  0  0  0  0  0
    5.2268    0.7564   -8.0057 H   0  0  0  0  0  0  0  0  0  0  0  0
    4.1931    2.2387   -6.3885 H   0  0  0  0  0  0  0  0  0  0  0  0
    2.1372   -0.6326   -7.3597 H   0  0  0  0  0  0  0  0  0  0  0  0
    1.5552    1.2713   -8.7579 H   0  0  0  0  0  0  0  0  0  0  0  0
    9.3334    2.9308   -9.2316 H   0  0  0  0  0  0  0  0  0  0  0  0
  1  7  2  0
  1  8  1  0
  2  9  1  0
  2 13  1  0
  3  4  2  0
  3 20  1  0
  4  5  1  0
  4  6  1  0
  5 12  2  0
  6 14  2  0
  6 21  1  0
  7 21  1  0
  7 24  1  0
  8 22  2  0
  8 25  1  0
  9 15  1  0
 10 15  2  0
 10 16  1  0
 11 16  2  0
 11 17  1  0
 12 19  1  0
 13 21  2  0
 13 22  1  0
 14 24  1  0
 15 18  1  0
 16 23  1  0
 17 18  2  0
 19 20  2  0
  2 26  1  0
  3 27  1  0
  5 28  1  0
  9 29  1  0
  9 30  1  0
 10 31  1  0
 11 32  1  0
 12 33  1  0
 14 34  1  0
 17 35  1  0
 18 36  1  0
 19 37  1  0
 20 38  1  0
 23 39  1  0
M  END
>  <filename_input>  (3) 
7SFO_98L_docked.sdf

>  <pdb_id>  (3) 
7SFO_98L

>  <pose_rank>  (3) 
2

>  <num_atoms_heavy>  (3) 
25

>  <num_torsions>  (3) 
4

>  <pose>  (3) 
[1.2211242015585044, 7.487447098620782, -4.228833872146307, -2.557999299741621, 0.7065967487218001, 5.667617225946063, -0.4205734223421191, 6.229792277074545, 5.862324709775264, -0.8593485782364818]

>  <energy>  (3) 
-921.4466030252926

>  <inter_energy>  (3) 
-926.2572197378424

>  <intra_energy>  (3) 
0.6751592389772247

>  <rmsd>  (3) 
0.811457

>  <sdf_rank>  (3) 
0

$$$$

     RDKit          3D

 39 42  0  0  0  0  0  0  0  0999 V2000
    2.4727    4.8522   -3.9061 N   0  0  0  0  0  0  0  0  0  0  0  0
    4.2106    2.0678   -6.5011 N   0  0  0  0  0  0  0  0  0  0  0  0
    0.8289    1.1903   -7.8285 C   0  0  0  0  0  0  0  0  0  0  0  0
    1.2880    0.9109   -6.6164 C   0  0  0  0  0  0  0  0  0  0  0  0
    1.7353   -0.4913   -6.2622 C   0  0  0  0  0  0  0  0  0  0  0  0
    1.2058    2.0471   -5.6273 C   0  0  0  0  0  0  0  0  0  0  0  0
    1.7525    3.8987   -4.4170 C   0  0  0  0  0  0  0  0  0  0  0  0
    3.7522    4.8737   -4.2737 C   0  0  0  0  0  0  0  0  0  0  0  0
    4.1985    2.3310   -7.9179 C   0  0  0  0  0  0  0  0  0  0  0  0
    6.6040    2.7729   -8.0919 C   0  0  0  0  0  0  0  0  0  0  0  0
    7.6196    4.9413   -8.6589 C   0  0  0  0  0  0  0  0  0  0  0  0
    1.7214   -1.3990   -7.2151 C   0  0  0  0  0  0  0  0  0  0  0  0
    3.6113    3.0325   -5.6213 C   0  0  0  0  0  0  0  0  0  0  0  0
   -0.0186    2.3183   -5.0959 C   0  0  0  0  0  0  0  0  0  0  0  0
    5.3919    3.2456   -8.1742 C   0  0  0  0  0  0  0  0  0  0  0  0
    7.8064    3.6740   -8.3549 C   0  0  0  0  0  0  0  0  0  0  0  0
    6.2062    5.5026   -8.7493 C   0  0  0  0  0  0  0  0  0  0  0  0
    5.1654    4.7217   -8.5154 C   0  0  0  0  0  0  0  0  0  0  0  0
    1.2170   -1.0826   -8.6137 C   0  0  0  0  0  0  0  0  0  0  0  0
    0.7937    0.1293   -8.9221 C   0  0  0  0  0  0  0  0  0  0  0  0
    2.2777    2.9361   -5.2955 C   0  0  0  0  0  0  0  0  0  0  0  0
    4.3605    4.0083   -5.1040 N   0  0  0  0  0  0  0  0  0  0  0  0
    9.1049    3.1430   -8.2722 O   0  0  0  0  0  0  0  0  0  0  0  0
    0.0133    3.7167   -4.0318 S   0  0  0  0  0  0  0  0  0  0  0  0
    4.6998    6.2105   -3.5692 Cl  0  0  0  0  0  0  0  0  0  0  0  0
    4.6388    1.2085   -6.1281 H   0  0  0  0  0  0  0  0  0  0  0  0
    0.4672    2.2055   -8.0486 H   0  0  0  0  0  0  0  0  0  0  0  0
    2.0611   -0.7432   -5.2422 H   0  0  0  0  0  0  0  0  0  0  0  0
    4.3044    1.3936   -8.4837 H   0  0  0  0  0  0  0  0  0  0  0  0
    3.2538    2.7945   -8.2382 H   0  0  0  0  0  0  0  0  0  0  0  0
    6.7610    1.7160   -7.8308 H   0  0  0  0  0  0  0  0  0  0  0  0
    8.4841    5.5948   -8.8477 H   0  0  0  0  0  0  0  0  0  0  0  0
    2.0845   -2.4135   -6.9936 H   0  0  0  0  0  0  0  0  0  0  0  0
   -0.9233    1.7299   -5.3083 H   0  0  0  0  0  0  0  0  0  0  0  0
    6.0513    6.5600   -9.0099 H   0  0  0  0  0  0  0  0  0  0  0  0
    4.1447    5.1288   -8.5653 H   0  0  0  0  0  0  0  0  0  0  0  0
    1.2044   -1.8732   -9.3783 H   0  0  0  0  0  0  0  0  0  0  0  0
    0.4286    0.3649   -9.9326 H   0  0  0  0  0  0  0  0  0  0  0  0
    9.8888    3.7233   -8.4419 H   0  0  0  0  0  0  0  0  0  0  0  0
  1  7  2  0
  1  8  1  0
  2  9  1  0
  2 13  1  0
  3  4  2  0
  3 20  1  0
  4  5  1  0
  4  6  1  0
  5 12  2  0
  6 14  2  0
  6 21  1  0
  7 21  1  0
  7 24  1  0
  8 22  2  0
  8 25  1  0
  9 15  1  0
 10 15  2  0
 10 16  1  0
 11 16  2  0
 11 17  1  0
 12 19  1  0
 13 21  2  0
 13 22  1  0
 14 24  1  0
 15 18  1  0
 16 23  1  0
 17 18  2  0
 19 20  2  0
  2 26  1  0
  3 27  1  0
  5 28  1  0
  9 29  1  0
  9 30  1  0
 10 31  1  0
 11 32  1  0
 12 33  1  0
 14 34  1  0
 17 35  1  0
 18 36  1  0
 19 37  1  0
 20 38  1  0
 23 39  1  0
M  END
>  <filename_input>  (4) 
7SFO_98L_docked.sdf

>  <pdb_id>  (4) 
7SFO_98L

>  <pose_rank>  (4) 
3

>  <num_atoms_heavy>  (4) 
25

>  <num_torsions>  (4) 
4

>  <pose>  (4) 
[2.4726678907126964, 4.852178516038813, -3.906136645692478, 0.32828972528073747, 0.19263825981251753, -0.19533509243631828, 5.674833132316337, 4.5049667598939465, -21.406759073978165, 3.9766571204554055]

>  <energy>  (4) 
-850.34645625985

>  <inter_energy>  (4) 
-857.8481412633682

>  <intra_energy>  (4) 
10.113520917668144

>  <rmsd>  (4) 
2.15333

>  <sdf_rank>  (4) 
0

$$$$

     RDKit          3D

 39 42  0  0  0  0  0  0  0  0999 V2000
    7.0194    3.7922   -6.3144 N   0  0  0  0  0  0  0  0  0  0  0  0
    3.0353    3.8224   -7.5922 N   0  0  0  0  0  0  0  0  0  0  0  0
    2.2949    6.5277   -5.7716 C   0  0  0  0  0  0  0  0  0  0  0  0
    2.6001    5.5124   -4.9754 C   0  0  0  0  0  0  0  0  0  0  0  0
    1.5491    4.8831   -4.0859 C   0  0  0  0  0  0  0  0  0  0  0  0
    4.0625    5.1428   -4.9476 C   0  0  0  0  0  0  0  0  0  0  0  0
    6.1101    4.3862   -5.6009 C   0  0  0  0  0  0  0  0  0  0  0  0
    6.5950    3.2299   -7.4442 C   0  0  0  0  0  0  0  0  0  0  0  0
    2.6254    2.8477   -8.5714 C   0  0  0  0  0  0  0  0  0  0  0  0
    1.8657    0.5327   -8.2963 C   0  0  0  0  0  0  0  0  0  0  0  0
    0.7388   -0.3727   -6.3051 C   0  0  0  0  0  0  0  0  0  0  0  0
    0.3146    5.3284   -4.1850 C   0  0  0  0  0  0  0  0  0  0  0  0
    4.4058    3.8239   -7.1612 C   0  0  0  0  0  0  0  0  0  0  0  0
    4.8037    5.6256   -3.9119 C   0  0  0  0  0  0  0  0  0  0  0  0
    1.9632    1.7252   -7.7789 C   0  0  0  0  0  0  0  0  0  0  0  0
    1.2142   -0.6014   -7.5113 C   0  0  0  0  0  0  0  0  0  0  0  0
    0.8422    1.0203   -5.6970 C   0  0  0  0  0  0  0  0  0  0  0  0
    1.4018    2.0035   -6.3811 C   0  0  0  0  0  0  0  0  0  0  0  0
   -0.0490    6.4779   -5.1109 C   0  0  0  0  0  0  0  0  0  0  0  0
    0.8678    7.0546   -5.8656 C   0  0  0  0  0  0  0  0  0  0  0  0
    4.7574    4.4324   -5.9780 C   0  0  0  0  0  0  0  0  0  0  0  0
    5.3311    3.2120   -7.9030 N   0  0  0  0  0  0  0  0  0  0  0  0
    1.1286   -1.8828   -8.0820 O   0  0  0  0  0  0  0  0  0  0  0  0
    6.5017    5.1941   -4.0516 S   0  0  0  0  0  0  0  0  0  0  0  0
    7.8770    2.4459   -8.4050 Cl  0  0  0  0  0  0  0  0  0  0  0  0
    2.3618    4.5017   -7.2105 H   0  0  0  0  0  0  0  0  0  0  0  0
    3.0854    6.9980   -6.3748 H   0  0  0  0  0  0  0  0  0  0  0  0
    1.8086    4.0803   -3.3801 H   0  0  0  0  0  0  0  0  0  0  0  0
    1.9102    3.2918   -9.2794 H   0  0  0  0  0  0  0  0  0  0  0  0
    3.4773    2.4812   -9.1629 H   0  0  0  0  0  0  0  0  0  0  0  0
    2.2562    0.3428   -9.3070 H   0  0  0  0  0  0  0  0  0  0  0  0
    0.2668   -1.1875   -5.7364 H   0  0  0  0  0  0  0  0  0  0  0  0
   -0.4750    4.8564   -3.5819 H   0  0  0  0  0  0  0  0  0  0  0  0
    4.3875    6.2174   -3.0834 H   0  0  0  0  0  0  0  0  0  0  0  0
    0.4504    1.2084   -4.6866 H   0  0  0  0  0  0  0  0  0  0  0  0
    1.4639    3.0136   -5.9498 H   0  0  0  0  0  0  0  0  0  0  0  0
   -1.0891    6.8336   -5.1526 H   0  0  0  0  0  0  0  0  0  0  0  0
    0.6109    7.8859   -6.5385 H   0  0  0  0  0  0  0  0  0  0  0  0
    0.7068   -2.6224   -7.5769 H   0  0  0  0  0  0  0  0  0  0  0  0
  1  7  2  0
  1  8  1  0
  2  9  1  0
  2 13  1  0
  3  4  2  0
  3 20  1  0
  4  5  1  0
  4  6  1  0
  5 12  2  0
  6 14  2  0
  6 21  1  0
  7 21  1  0
  7 24  1  0
  8 22  2  0
  8 25  1  0
  9 15  1  0
 10 15  2  0
 10 16  1  0
 11 16  2  0
 11 17  1  0
 12 19  1  0
 13 21  2  0
 13 22  1  0
 14 24  1  0
 15 18  1  0
 16 23  1  0
 17 18  2  0
 19 20  2  0
  2 26  1  0
  3 27  1  0
  5 28  1  0
  9 29  1  0
  9 30  1  0
 10 31  1  0
 11 32  1  0
 12 33  1  0
 14 34  1  0
 17 35  1  0
 18 36  1  0
 19 37  1  0
 20 38  1  0
 23 39  1  0
M  END
>  <filename_input>  (5) 
7SFO_98L_docked.sdf

>  <pdb_id>  (5) 
7SFO_98L

>  <pose_rank>  (5) 
4

>  <num_atoms_heavy>  (5) 
25

>  <num_torsions>  (5) 
4

>  <pose>  (5) 
[7.019414992782372, 3.792221867461722, -6.314386844220488, 0.5137948522714602, 1.0938927040817674, -1.7510353363622904, -0.2254912320145548, 0.13509526857258597, -2.282054612688275, -0.02839361057854451]

>  <energy>  (5) 
-698.0094839275868

>  <inter_energy>  (5) 
-701.8078933041709

>  <intra_energy>  (5) 
5.723718894832233

>  <rmsd>  (5) 
5.92154

>  <sdf_rank>  (5) 
0

$$$$

     RDKit          3D

 39 42  0  0  0  0  0  0  0  0999 V2000
    6.3628    2.1143   -7.9089 N   0  0  0  0  0  0  0  0  0  0  0  0
    3.8568    4.5178   -5.5743 N   0  0  0  0  0  0  0  0  0  0  0  0
    0.8633    1.6073   -5.9897 C   0  0  0  0  0  0  0  0  0  0  0  0
    2.0574    1.9385   -5.5182 C   0  0  0  0  0  0  0  0  0  0  0  0
    2.1905    2.7357   -4.2382 C   0  0  0  0  0  0  0  0  0  0  0  0
    3.2179    1.5703   -6.4092 C   0  0  0  0  0  0  0  0  0  0  0  0
    5.2334    1.6452   -7.4694 C   0  0  0  0  0  0  0  0  0  0  0  0
    6.6476    3.3665   -7.5568 C   0  0  0  0  0  0  0  0  0  0  0  0
    3.3861    5.7553   -6.1433 C   0  0  0  0  0  0  0  0  0  0  0  0
    1.9182    6.8886   -4.5393 C   0  0  0  0  0  0  0  0  0  0  0  0
   -0.4996    6.5016   -4.2965 C   0  0  0  0  0  0  0  0  0  0  0  0
    1.0895    3.0224   -3.5765 C   0  0  0  0  0  0  0  0  0  0  0  0
    4.7242    3.6884   -6.3640 C   0  0  0  0  0  0  0  0  0  0  0  0
    3.2426    0.3004   -6.9010 C   0  0  0  0  0  0  0  0  0  0  0  0
    2.0282    6.0119   -5.4978 C   0  0  0  0  0  0  0  0  0  0  0  0
    0.5647    7.1620   -3.8912 C   0  0  0  0  0  0  0  0  0  0  0  0
   -0.3773    5.4700   -5.4109 C   0  0  0  0  0  0  0  0  0  0  0  0
    0.7976    5.2300   -5.9675 C   0  0  0  0  0  0  0  0  0  0  0  0
   -0.2827    2.6281   -4.0983 C   0  0  0  0  0  0  0  0  0  0  0  0
   -0.4100    1.9617   -5.2308 C   0  0  0  0  0  0  0  0  0  0  0  0
    4.3512    2.4019   -6.6799 C   0  0  0  0  0  0  0  0  0  0  0  0
    5.8824    4.1805   -6.8085 N   0  0  0  0  0  0  0  0  0  0  0  0
    0.4646    8.1190   -2.8669 O   0  0  0  0  0  0  0  0  0  0  0  0
    4.6894   -0.0185   -7.8464 S   0  0  0  0  0  0  0  0  0  0  0  0
    8.2159    3.9641   -8.1605 Cl  0  0  0  0  0  0  0  0  0  0  0  0
    3.5779    4.2346   -4.6241 H   0  0  0  0  0  0  0  0  0  0  0  0
    0.7903    1.0673   -6.9453 H   0  0  0  0  0  0  0  0  0  0  0  0
    3.1747    3.0645   -3.8732 H   0  0  0  0  0  0  0  0  0  0  0  0
    4.0827    6.5743   -5.9112 H   0  0  0  0  0  0  0  0  0  0  0  0
    3.3119    5.6976   -7.2393 H   0  0  0  0  0  0  0  0  0  0  0  0
    2.8084    7.4355   -4.1951 H   0  0  0  0  0  0  0  0  0  0  0  0
   -1.4772    6.6947   -3.8306 H   0  0  0  0  0  0  0  0  0  0  0  0
    1.1642    3.5615   -2.6206 H   0  0  0  0  0  0  0  0  0  0  0  0
    2.4483   -0.4404   -6.7265 H   0  0  0  0  0  0  0  0  0  0  0  0
   -1.2686    4.9236   -5.7531 H   0  0  0  0  0  0  0  0  0  0  0  0
    0.8907    4.4747   -6.7618 H   0  0  0  0  0  0  0  0  0  0  0  0
   -1.1809    2.9016   -3.5252 H   0  0  0  0  0  0  0  0  0  0  0  0
   -1.4000    1.6725   -5.6132 H   0  0  0  0  0  0  0  0  0  0  0  0
   -0.4114    8.3004   -2.4428 H   0  0  0  0  0  0  0  0  0  0  0  0
  1  7  2  0
  1  8  1  0
  2  9  1  0
  2 13  1  0
  3  4  2  0
  3 20  1  0
  4  5  1  0
  4  6  1  0
  5 12  2  0
  6 14  2  0
  6 21  1  0
  7 21  1  0
  7 24  1  0
  8 22  2  0
  8 25  1  0
  9 15  1  0
 10 15  2  0
 10 16  1  0
 11 16  2  0
 11 17  1  0
 12 19  1  0
 13 21  2  0
 13 22  1  0
 14 24  1  0
 15 18  1  0
 16 23  1  0
 17 18  2  0
 19 20  2  0
  2 26  1  0
  3 27  1  0
  5 28  1  0
  9 29  1  0
  9 30  1  0
 10 31  1  0
 11 32  1  0
 12 33  1  0
 14 34  1  0
 17 35  1  0
 18 36  1  0
 19 37  1  0
 20 38  1  0
 23 39  1  0
M  END
>  <filename_input>  (6) 
7SFO_98L_docked.sdf

>  <pdb_id>  (6) 
7SFO_98L

>  <pose_rank>  (6) 
5

>  <num_atoms_heavy>  (6) 
25

>  <num_torsions>  (6) 
4

>  <pose>  (6) 
[6.362823432225288, 2.114338256720992, -7.9089039531132626, 2.4671094103232605, 2.3993878178748775, -0.03322378896068975, 3.4958461399566683, 0.8353475568751926, -1.376420594365767, -1.758664264867085]

>  <energy>  (6) 
-618.1028007610507

>  <inter_energy>  (6) 
-674.6064026418123

>  <intra_energy>  (6) 
77.57867584105718

>  <rmsd>  (6) 
5.94166

>  <sdf_rank>  (6) 
0

$$$$

     RDKit          3D

 39 42  0  0  0  0  0  0  0  0999 V2000
    6.5111    2.3845   -8.0395 N   0  0  0  0  0  0  0  0  0  0  0  0
    4.8842    4.9373   -5.1510 N   0  0  0  0  0  0  0  0  0  0  0  0
    2.8590    3.6809   -4.4601 C   0  0  0  0  0  0  0  0  0  0  0  0
    2.3265    3.1513   -5.5528 C   0  0  0  0  0  0  0  0  0  0  0  0
    0.8259    3.0050   -5.6900 C   0  0  0  0  0  0  0  0  0  0  0  0
    3.3228    2.6142   -6.5501 C   0  0  0  0  0  0  0  0  0  0  0  0
    5.2776    2.2360   -7.6582 C   0  0  0  0  0  0  0  0  0  0  0  0
    7.1870    3.3675   -7.4482 C   0  0  0  0  0  0  0  0  0  0  0  0
    3.5842    5.5047   -5.4051 C   0  0  0  0  0  0  0  0  0  0  0  0
    2.6901    7.7809   -5.2280 C   0  0  0  0  0  0  0  0  0  0  0  0
    3.9519    9.7559   -4.4784 C   0  0  0  0  0  0  0  0  0  0  0  0
    0.0716    3.4862   -4.7247 C   0  0  0  0  0  0  0  0  0  0  0  0
    5.4477    4.0521   -6.1323 C   0  0  0  0  0  0  0  0  0  0  0  0
    2.9365    1.5414   -7.2951 C   0  0  0  0  0  0  0  0  0  0  0  0
    3.7161    6.9899   -5.0836 C   0  0  0  0  0  0  0  0  0  0  0  0
    2.8053    9.2665   -4.9013 C   0  0  0  0  0  0  0  0  0  0  0  0
    5.1574    8.8389   -4.3146 C   0  0  0  0  0  0  0  0  0  0  0  0
    5.0575    7.5527   -4.6038 C   0  0  0  0  0  0  0  0  0  0  0  0
    0.6726    4.1145   -3.4779 C   0  0  0  0  0  0  0  0  0  0  0  0
    1.9811    4.2160   -3.3350 C   0  0  0  0  0  0  0  0  0  0  0  0
    4.6760    3.0593   -6.6915 C   0  0  0  0  0  0  0  0  0  0  0  0
    6.7160    4.2132   -6.5149 N   0  0  0  0  0  0  0  0  0  0  0  0
    1.6846   10.1009   -5.0528 O   0  0  0  0  0  0  0  0  0  0  0  0
    4.2207    0.9659   -8.3480 S   0  0  0  0  0  0  0  0  0  0  0  0
    8.8817    3.5227   -7.9823 Cl  0  0  0  0  0  0  0  0  0  0  0  0
    5.3973    5.1611   -4.2863 H   0  0  0  0  0  0  0  0  0  0  0  0
    3.9534    3.7350   -4.3639 H   0  0  0  0  0  0  0  0  0  0  0  0
    0.3808    2.5129   -6.5673 H   0  0  0  0  0  0  0  0  0  0  0  0
    3.3026    5.3633   -6.4590 H   0  0  0  0  0  0  0  0  0  0  0  0
    2.8038    5.0239   -4.7969 H   0  0  0  0  0  0  0  0  0  0  0  0
    1.7337    7.3740   -5.5883 H   0  0  0  0  0  0  0  0  0  0  0  0
    4.0395   10.8269   -4.2432 H   0  0  0  0  0  0  0  0  0  0  0  0
   -1.0226    3.4323   -4.8229 H   0  0  0  0  0  0  0  0  0  0  0  0
    1.9359    1.0874   -7.2437 H   0  0  0  0  0  0  0  0  0  0  0  0
    6.1131    9.2478   -3.9549 H   0  0  0  0  0  0  0  0  0  0  0  0
    5.9309    6.8919   -4.5006 H   0  0  0  0  0  0  0  0  0  0  0  0
    0.0089    4.4893   -2.6847 H   0  0  0  0  0  0  0  0  0  0  0  0
    2.4221    4.6706   -2.4357 H   0  0  0  0  0  0  0  0  0  0  0  0
    1.7539   11.0658   -4.8422 H   0  0  0  0  0  0  0  0  0  0  0  0
  1  7  2  0
  1  8  1  0
  2  9  1  0
  2 13  1  0
  3  4  2  0
  3 20  1  0
  4  5  1  0
  4  6  1  0
  5 12  2  0
  6 14  2  0
  6 21  1  0
  7 21  1  0
  7 24  1  0
  8 22  2  0
  8 25  1  0
  9 15  1  0
 10 15  2  0
 10 16  1  0
 11 16  2  0
 11 17  1  0
 12 19  1  0
 13 21  2  0
 13 22  1  0
 14 24  1  0
 15 18  1  0
 16 23  1  0
 17 18  2  0
 19 20  2  0
  2 26  1  0
  3 27  1  0
  5 28  1  0
  9 29  1  0
  9 30  1  0
 10 31  1  0
 11 32  1  0
 12 33  1  0
 14 34  1  0
 17 35  1  0
 18 36  1  0
 19 37  1  0
 20 38  1  0
 23 39  1  0
M  END
>  <filename_input>  (7) 
7SFO_98L_docked.sdf

>  <pdb_id>  (7) 
7SFO_98L

>  <pose_rank>  (7) 
6

>  <num_atoms_heavy>  (7) 
25

>  <num_torsions>  (7) 
4

>  <pose>  (7) 
[6.511053576931085, 2.384455668150559, -8.039457955010642, 2.938198154960304, 2.050995377761097, 0.32059107837325895, 0.645584836331327, 2.1410310789782176, -0.053997876246010726, -0.4143343086657343]

>  <energy>  (7) 
-385.1397118641837

>  <inter_energy>  (7) 
-601.4121942754549

>  <intra_energy>  (7) 
218.11089476262308

>  <rmsd>  (7) 
5.84169

>  <sdf_rank>  (7) 
0

$$$$

     RDKit          3D

 39 42  0  0  0  0  0  0  0  0999 V2000
    6.8122    4.2668   -6.1878 N   0  0  0  0  0  0  0  0  0  0  0  0
    3.1111    2.9993   -4.7038 N   0  0  0  0  0  0  0  0  0  0  0  0
    2.8316    0.5467   -7.3074 C   0  0  0  0  0  0  0  0  0  0  0  0
    2.7667    1.8369   -7.6062 C   0  0  0  0  0  0  0  0  0  0  0  0
    1.4513    2.4754   -7.9986 C   0  0  0  0  0  0  0  0  0  0  0  0
    4.0958    2.5499   -7.6400 C   0  0  0  0  0  0  0  0  0  0  0  0
    5.9831    3.6306   -6.9602 C   0  0  0  0  0  0  0  0  0  0  0  0
    6.4059    4.4606   -4.9347 C   0  0  0  0  0  0  0  0  0  0  0  0
    2.5754    3.6692   -3.5458 C   0  0  0  0  0  0  0  0  0  0  0  0
    0.7793    5.1791   -4.2572 C   0  0  0  0  0  0  0  0  0  0  0  0
    1.0794    7.5090   -4.9895 C   0  0  0  0  0  0  0  0  0  0  0  0
    0.3701    1.7260   -7.9613 C   0  0  0  0  0  0  0  0  0  0  0  0
    4.3879    3.4222   -5.2088 C   0  0  0  0  0  0  0  0  0  0  0  0
    4.8017    2.4892   -8.8032 C   0  0  0  0  0  0  0  0  0  0  0  0
    2.0558    5.0105   -4.0530 C   0  0  0  0  0  0  0  0  0  0  0  0
    0.2448    6.5181   -4.7554 C   0  0  0  0  0  0  0  0  0  0  0  0
    2.5733    7.3168   -4.7605 C   0  0  0  0  0  0  0  0  0  0  0  0
    3.0355    6.1539   -4.3343 C   0  0  0  0  0  0  0  0  0  0  0  0
    0.4315    0.2510   -7.5991 C   0  0  0  0  0  0  0  0  0  0  0  0
    1.5794   -0.3219   -7.2879 C   0  0  0  0  0  0  0  0  0  0  0  0
    4.7279    3.1780   -6.5197 C   0  0  0  0  0  0  0  0  0  0  0  0
    5.2318    4.0734   -4.4058 N   0  0  0  0  0  0  0  0  0  0  0  0
   -1.1359    6.6836   -4.9588 O   0  0  0  0  0  0  0  0  0  0  0  0
    6.3643    3.2834   -8.6749 S   0  0  0  0  0  0  0  0  0  0  0  0
    7.5816    5.3163   -3.9019 Cl  0  0  0  0  0  0  0  0  0  0  0  0
    2.5909    2.2355   -5.1587 H   0  0  0  0  0  0  0  0  0  0  0  0
    3.8062    0.0955   -7.0696 H   0  0  0  0  0  0  0  0  0  0  0  0
    1.4010    3.5307   -8.3049 H   0  0  0  0  0  0  0  0  0  0  0  0
    1.7562    3.0810   -3.1065 H   0  0  0  0  0  0  0  0  0  0  0  0
    3.3356    3.7971   -2.7611 H   0  0  0  0  0  0  0  0  0  0  0  0
    0.0822    4.3493   -4.0688 H   0  0  0  0  0  0  0  0  0  0  0  0
    0.6981    8.4756   -5.3503 H   0  0  0  0  0  0  0  0  0  0  0  0
   -0.6038    2.1790   -8.1984 H   0  0  0  0  0  0  0  0  0  0  0  0
    4.4360    1.9994   -9.7177 H   0  0  0  0  0  0  0  0  0  0  0  0
    3.2688    8.1476   -4.9502 H   0  0  0  0  0  0  0  0  0  0  0  0
    4.1153    6.0084   -4.1829 H   0  0  0  0  0  0  0  0  0  0  0  0
   -0.4920   -0.3465   -7.5963 H   0  0  0  0  0  0  0  0  0  0  0  0
    1.6304   -1.3885   -7.0238 H   0  0  0  0  0  0  0  0  0  0  0  0
   -1.4881    7.5506   -5.2820 H   0  0  0  0  0  0  0  0  0  0  0  0
  1  7  2  0
  1  8  1  0
  2  9  1  0
  2 13  1  0
  3  4  2  0
  3 20  1  0
  4  5  1  0
  4  6  1  0
  5 12  2  0
  6 14  2  0
  6 21  1  0
  7 21  1  0
  7 24  1  0
  8 22  2  0
  8 25  1  0
  9 15  1  0
 10 15  2  0
 10 16  1  0
 11 16  2  0
 11 17  1  0
 12 19  1  0
 13 21  2  0
 13 22  1  0
 14 24  1  0
 15 18  1  0
 16 23  1  0
 17 18  2  0
 19 20  2  0
  2 26  1  0
  3 27  1  0
  5 28  1  0
  9 29  1  0
  9 30  1  0
 10 31  1  0
 11 32  1  0
 12 33  1  0
 14 34  1  0
 17 35  1  0
 18 36  1  0
 19 37  1  0
 20 38  1  0
 23 39  1  0
M  END
>  <filename_input>  (8) 
7SFO_98L_docked.sdf

>  <pdb_id>  (8) 
7SFO_98L

>  <pose_rank>  (8) 
7

>  <num_atoms_heavy>  (8) 
25

>  <num_torsions>  (8) 
4

>  <pose>  (8) 
[6.812214107246028, 4.26678265781422, -6.187816320012703, -1.0112039106626625, -1.834274097382284, -1.2338958851899766, -6.740596026723948, 0.19351048316331534, -2.676789280154371, -1.7789295433842065]

>  <energy>  (8) 
-610.8445140112472

>  <inter_energy>  (8) 
-639.8723887978496

>  <intra_energy>  (8) 
29.975704502499973

>  <rmsd>  (8) 
5.52794

>  <sdf_rank>  (8) 
0

$$$$

     RDKit          3D

 39 42  0  0  0  0  0  0  0  0999 V2000
    6.9693    4.7660   -6.2398 N   0  0  0  0  0  0  0  0  0  0  0  0
    4.3765    1.5468   -6.8888 N   0  0  0  0  0  0  0  0  0  0  0  0
    2.0989    2.5814   -4.5205 C   0  0  0  0  0  0  0  0  0  0  0  0
    2.2786    3.4432   -5.5119 C   0  0  0  0  0  0  0  0  0  0  0  0
    1.2895    3.5253   -6.6551 C   0  0  0  0  0  0  0  0  0  0  0  0
    3.5752    4.2127   -5.4592 C   0  0  0  0  0  0  0  0  0  0  0  0
    5.7329    4.8346   -5.8454 C   0  0  0  0  0  0  0  0  0  0  0  0
    7.3211    3.6378   -6.8531 C   0  0  0  0  0  0  0  0  0  0  0  0
    3.3932    1.6430   -7.9378 C   0  0  0  0  0  0  0  0  0  0  0  0
    1.6002    0.1419   -8.6754 C   0  0  0  0  0  0  0  0  0  0  0  0
    0.8215   -1.8541   -7.4654 C   0  0  0  0  0  0  0  0  0  0  0  0
    0.2148    2.7681   -6.5923 C   0  0  0  0  0  0  0  0  0  0  0  0
    5.2634    2.6573   -6.6790 C   0  0  0  0  0  0  0  0  0  0  0  0
    3.5322    5.4625   -4.9195 C   0  0  0  0  0  0  0  0  0  0  0  0
    2.4941    0.4226   -7.7689 C   0  0  0  0  0  0  0  0  0  0  0  0
    0.7007   -1.0806   -8.5238 C   0  0  0  0  0  0  0  0  0  0  0  0
    1.8587   -1.5280   -6.3981 C   0  0  0  0  0  0  0  0  0  0  0  0
    2.6335   -0.4648   -6.5281 C   0  0  0  0  0  0  0  0  0  0  0  0
   -0.0104    1.7925   -5.4486 C   0  0  0  0  0  0  0  0  0  0  0  0
    0.8636    1.6905   -4.4644 C   0  0  0  0  0  0  0  0  0  0  0  0
    4.8145    3.7885   -6.0366 C   0  0  0  0  0  0  0  0  0  0  0  0
    6.5306    2.5761   -7.0898 N   0  0  0  0  0  0  0  0  0  0  0  0
   -0.2494   -1.3726   -9.5174 O   0  0  0  0  0  0  0  0  0  0  0  0
    5.0876    6.2764   -5.0024 S   0  0  0  0  0  0  0  0  0  0  0  0
    9.0186    3.5932   -7.3990 Cl  0  0  0  0  0  0  0  0  0  0  0  0
    4.4419    0.7019   -6.3033 H   0  0  0  0  0  0  0  0  0  0  0  0
    2.8546    2.5082   -3.7245 H   0  0  0  0  0  0  0  0  0  0  0  0
    1.4632    4.1955   -7.5098 H   0  0  0  0  0  0  0  0  0  0  0  0
    2.8083    2.5686   -7.8324 H   0  0  0  0  0  0  0  0  0  0  0  0
    3.8606    1.6701   -8.9332 H   0  0  0  0  0  0  0  0  0  0  0  0
    1.4938    0.7919   -9.5564 H   0  0  0  0  0  0  0  0  0  0  0  0
    0.1737   -2.7358   -7.3516 H   0  0  0  0  0  0  0  0  0  0  0  0
   -0.5404    2.8433   -7.3885 H   0  0  0  0  0  0  0  0  0  0  0  0
    2.6279    5.9108   -4.4820 H   0  0  0  0  0  0  0  0  0  0  0  0
    1.9631   -2.1788   -5.5174 H   0  0  0  0  0  0  0  0  0  0  0  0
    3.3725   -0.2192   -5.7512 H   0  0  0  0  0  0  0  0  0  0  0  0
   -0.9129    1.1637   -5.4408 H   0  0  0  0  0  0  0  0  0  0  0  0
    0.7059    0.9874   -3.6334 H   0  0  0  0  0  0  0  0  0  0  0  0
   -0.8357   -2.1648   -9.4241 H   0  0  0  0  0  0  0  0  0  0  0  0
  1  7  2  0
  1  8  1  0
  2  9  1  0
  2 13  1  0
  3  4  2  0
  3 20  1  0
  4  5  1  0
  4  6  1  0
  5 12  2  0
  6 14  2  0
  6 21  1  0
  7 21  1  0
  7 24  1  0
  8 22  2  0
  8 25  1  0
  9 15  1  0
 10 15  2  0
 10 16  1  0
 11 16  2  0
 11 17  1  0
 12 19  1  0
 13 21  2  0
 13 22  1  0
 14 24  1  0
 15 18  1  0
 16 23  1  0
 17 18  2  0
 19 20  2  0
  2 26  1  0
  3 27  1  0
  5 28  1  0
  9 29  1  0
  9 30  1  0
 10 31  1  0
 11 32  1  0
 12 33  1  0
 14 34  1  0
 17 35  1  0
 18 36  1  0
 19 37  1  0
 20 38  1  0
 23 39  1  0
M  END
>  <filename_input>  (9) 
7SFO_98L_docked.sdf

>  <pdb_id>  (9) 
7SFO_98L

>  <pose_rank>  (9) 
8

>  <num_atoms_heavy>  (9) 
25

>  <num_torsions>  (9) 
4

>  <pose>  (9) 
[6.969281143283723, 4.76601077193897, -6.23984677897467, 0.5567561629353331, -1.9667684485814876, 4.454487325305358, -3.643659071917165, -2.0105592408986936, -0.7241916059508545, -0.26036935951768647]

>  <energy>  (9) 
-624.6428567670109

>  <inter_energy>  (9) 
-656.3988935455569

>  <intra_energy>  (9) 
40.60547702588896

>  <rmsd>  (9) 
5.52822

>  <sdf_rank>  (9) 
0

$$$$

     RDKit          3D

 39 42  0  0  0  0  0  0  0  0999 V2000
    5.8399    4.7733   -5.8167 N   0  0  0  0  0  0  0  0  0  0  0  0
    2.4497    2.5234   -4.8414 N   0  0  0  0  0  0  0  0  0  0  0  0
    3.3512    0.0062   -7.2585 C   0  0  0  0  0  0  0  0  0  0  0  0
    2.9701    1.2132   -7.6531 C   0  0  0  0  0  0  0  0  0  0  0  0
    1.6111    1.4280   -8.2848 C   0  0  0  0  0  0  0  0  0  0  0  0
    4.0258    2.2844   -7.5342 C   0  0  0  0  0  0  0  0  0  0  0  0
    5.3764    3.8953   -6.6552 C   0  0  0  0  0  0  0  0  0  0  0  0
    5.1798    4.8813   -4.6654 C   0  0  0  0  0  0  0  0  0  0  0  0
    1.7763    2.8018   -3.5980 C   0  0  0  0  0  0  0  0  0  0  0  0
    1.2501    4.8433   -4.8500 C   0  0  0  0  0  0  0  0  0  0  0  0
   -0.5861    6.3989   -4.3371 C   0  0  0  0  0  0  0  0  0  0  0  0
    0.7992    0.3950   -8.3599 C   0  0  0  0  0  0  0  0  0  0  0  0
    3.6220    3.2861   -5.1697 C   0  0  0  0  0  0  0  0  0  0  0  0
    4.9145    2.3948   -8.5605 C   0  0  0  0  0  0  0  0  0  0  0  0
    0.9514    4.0593   -3.8522 C   0  0  0  0  0  0  0  0  0  0  0  0
    0.4279    6.0991   -5.1214 C   0  0  0  0  0  0  0  0  0  0  0  0
   -0.9363    5.4915   -3.1645 C   0  0  0  0  0  0  0  0  0  0  0  0
   -0.2191    4.4066   -2.9272 C   0  0  0  0  0  0  0  0  0  0  0  0
    1.2194   -0.9883   -7.8904 C   0  0  0  0  0  0  0  0  0  0  0  0
    2.4150   -1.1914   -7.3688 C   0  0  0  0  0  0  0  0  0  0  0  0
    4.2443    3.1085   -6.3842 C   0  0  0  0  0  0  0  0  0  0  0  0
    4.0898    4.1838   -4.3000 N   0  0  0  0  0  0  0  0  0  0  0  0
    0.7589    6.9257   -6.2088 O   0  0  0  0  0  0  0  0  0  0  0  0
    6.1383    3.6177   -8.2516 S   0  0  0  0  0  0  0  0  0  0  0  0
    5.8613    6.0799   -3.5339 Cl  0  0  0  0  0  0  0  0  0  0  0  0
    2.0988    1.7950   -5.4794 H   0  0  0  0  0  0  0  0  0  0  0  0
    4.3606   -0.1333   -6.8442 H   0  0  0  0  0  0  0  0  0  0  0  0
    1.3123    2.4148   -8.6682 H   0  0  0  0  0  0  0  0  0  0  0  0
    1.1218    1.9628   -3.3194 H   0  0  0  0  0  0  0  0  0  0  0  0
    2.4885    2.9419   -2.7714 H   0  0  0  0  0  0  0  0  0  0  0  0
    2.1017    4.5973   -5.5013 H   0  0  0  0  0  0  0  0  0  0  0  0
   -1.1805    7.3045   -4.5285 H   0  0  0  0  0  0  0  0  0  0  0  0
   -0.2103    0.5363   -8.7735 H   0  0  0  0  0  0  0  0  0  0  0  0
    4.8712    1.7882   -9.4771 H   0  0  0  0  0  0  0  0  0  0  0  0
   -1.7879    5.7396   -2.5139 H   0  0  0  0  0  0  0  0  0  0  0  0
   -0.4610    3.7583   -2.0720 H   0  0  0  0  0  0  0  0  0  0  0  0
    0.5185   -1.8306   -7.9863 H   0  0  0  0  0  0  0  0  0  0  0  0
    2.7247   -2.1897   -7.0261 H   0  0  0  0  0  0  0  0  0  0  0  0
    0.2286    7.7419   -6.3895 H   0  0  0  0  0  0  0  0  0  0  0  0
  1  7  2  0
  1  8  1  0
  2  9  1  0
  2 13  1  0
  3  4  2  0
  3 20  1  0
  4  5  1  0
  4  6  1  0
  5 12  2  0
  6 14  2  0
  6 21  1  0
  7 21  1  0
  7 24  1  0
  8 22  2  0
  8 25  1  0
  9 15  1  0
 10 15  2  0
 10 16  1  0
 11 16  2  0
 11 17  1  0
 12 19  1  0
 13 21  2  0
 13 22  1  0
 14 24  1  0
 15 18  1  0
 16 23  1  0
 17 18  2  0
 19 20  2  0
  2 26  1  0
  3 27  1  0
  5 28  1  0
  9 29  1  0
  9 30  1  0
 10 31  1  0
 11 32  1  0
 12 33  1  0
 14 34  1  0
 17 35  1  0
 18 36  1  0
 19 37  1  0
 20 38  1  0
 23 39  1  0
M  END
>  <filename_input>  (10) 
7SFO_98L_docked.sdf

>  <pdb_id>  (10) 
7SFO_98L

>  <pose_rank>  (10) 
9

>  <num_atoms_heavy>  (10) 
25

>  <num_torsions>  (10) 
4

>  <pose>  (10) 
[5.839917360380401, 4.773313529120253, -5.816692169520576, 1.019839983890265, 3.2560447001831707, 1.7533615175518875, -0.4737787008887842, -0.13445655906317228, -2.630226395100718, 2.3894959792626014]

>  <energy>  (10) 
-524.0751770791893

>  <inter_energy>  (10) 
-549.6402916854108

>  <intra_energy>  (10) 
51.52405341621294

>  <rmsd>  (10) 
5.50907

>  <sdf_rank>  (10) 
0

$$$$

     RDKit          3D

 39 42  0  0  0  0  0  0  0  0999 V2000
    0.4330    1.1302   -6.2919 N   0  0  0  0  0  0  0  0  0  0  0  0
    3.4731    3.9969   -6.0760 N   0  0  0  0  0  0  0  0  0  0  0  0
    5.9281    1.8879   -6.3550 C   0  0  0  0  0  0  0  0  0  0  0  0
    5.1853    1.7404   -7.4433 C   0  0  0  0  0  0  0  0  0  0  0  0
    5.6438    2.2963   -8.7747 C   0  0  0  0  0  0  0  0  0  0  0  0
    3.8371    1.1040   -7.2122 C   0  0  0  0  0  0  0  0  0  0  0  0
    1.6265    0.8488   -6.7222 C   0  0  0  0  0  0  0  0  0  0  0  0
    0.2648    2.3598   -5.8096 C   0  0  0  0  0  0  0  0  0  0  0  0
    3.9253    4.4034   -4.7694 C   0  0  0  0  0  0  0  0  0  0  0  0
    4.0497    6.8438   -4.5669 C   0  0  0  0  0  0  0  0  0  0  0  0
    2.1509    8.3355   -4.0934 C   0  0  0  0  0  0  0  0  0  0  0  0
    6.8309    2.8622   -8.8274 C   0  0  0  0  0  0  0  0  0  0  0  0
    2.4253    3.0178   -6.1629 C   0  0  0  0  0  0  0  0  0  0  0  0
    3.6710   -0.1733   -7.6552 C   0  0  0  0  0  0  0  0  0  0  0  0
    3.3035    5.7755   -4.5300 C   0  0  0  0  0  0  0  0  0  0  0  0
    3.4395    8.2230   -4.3385 C   0  0  0  0  0  0  0  0  0  0  0  0
    1.2741    7.0907   -4.0410 C   0  0  0  0  0  0  0  0  0  0  0  0
    1.8055    5.8956   -4.2334 C   0  0  0  0  0  0  0  0  0  0  0  0
    7.6989    3.0167   -7.5891 C   0  0  0  0  0  0  0  0  0  0  0  0
    7.2924    2.5644   -6.4174 C   0  0  0  0  0  0  0  0  0  0  0  0
    2.6873    1.7692   -6.6787 C   0  0  0  0  0  0  0  0  0  0  0  0
    1.2031    3.3187   -5.7193 N   0  0  0  0  0  0  0  0  0  0  0  0
    4.2585    9.3637   -4.3934 O   0  0  0  0  0  0  0  0  0  0  0  0
    2.0328   -0.7571   -7.4021 S   0  0  0  0  0  0  0  0  0  0  0  0
   -1.3920    2.7130   -5.2513 Cl  0  0  0  0  0  0  0  0  0  0  0  0
    3.8912    4.3988   -6.9272 H   0  0  0  0  0  0  0  0  0  0  0  0
    5.5531    1.5155   -5.3903 H   0  0  0  0  0  0  0  0  0  0  0  0
    5.0060    2.2296   -9.6684 H   0  0  0  0  0  0  0  0  0  0  0  0
    3.5849    3.6888   -4.0056 H   0  0  0  0  0  0  0  0  0  0  0  0
    5.0232    4.4377   -4.7106 H   0  0  0  0  0  0  0  0  0  0  0  0
    5.1277    6.7499   -4.7644 H   0  0  0  0  0  0  0  0  0  0  0  0
    1.7073    9.3281   -3.9265 H   0  0  0  0  0  0  0  0  0  0  0  0
    7.2048    3.2331   -9.7931 H   0  0  0  0  0  0  0  0  0  0  0  0
    4.4703   -0.7706   -8.1182 H   0  0  0  0  0  0  0  0  0  0  0  0
    0.1964    7.1866   -3.8426 H   0  0  0  0  0  0  0  0  0  0  0  0
    1.1769    4.9944   -4.1809 H   0  0  0  0  0  0  0  0  0  0  0  0
    8.6779    3.5115   -7.6704 H   0  0  0  0  0  0  0  0  0  0  0  0
    7.9162    2.6721   -5.5178 H   0  0  0  0  0  0  0  0  0  0  0  0
    3.8677   10.2613   -4.2459 H   0  0  0  0  0  0  0  0  0  0  0  0
  1  7  2  0
  1  8  1  0
  2  9  1  0
  2 13  1  0
  3  4  2  0
  3 20  1  0
  4  5  1  0
  4  6  1  0
  5 12  2  0
  6 14  2  0
  6 21  1  0
  7 21  1  0
  7 24  1  0
  8 22  2  0
  8 25  1  0
  9 15  1  0
 10 15  2  0
 10 16  1  0
 11 16  2  0
 11 17  1  0
 12 19  1  0
 13 21  2  0
 13 22  1  0
 14 24  1  0
 15 18  1  0
 16 23  1  0
 17 18  2  0
 19 20  2  0
  2 26  1  0
  3 27  1  0
  5 28  1  0
  9 29  1  0
  9 30  1  0
 10 31  1  0
 11 32  1  0
 12 33  1  0
 14 34  1  0
 17 35  1  0
 18 36  1  0
 19 37  1  0
 20 38  1  0
 23 39  1  0
M  END
>  <filename_input>  (11) 
7SFO_98L_docked.sdf

>  <pdb_id>  (11) 
7SFO_98L

>  <pose_rank>  (11) 
10

>  <num_atoms_heavy>  (11) 
25

>  <num_torsions>  (11) 
4

>  <pose>  (11) 
[0.43302185233973156, 1.1301554625869896, -6.291902167583654, -1.0869368940196538, 1.134161040192821, -4.400575565588108, 2.456778956562365, 0.9642900591558936, 0.46842180851081855, 0.8589801908191708]

>  <energy>  (11) 
-585.0539792616572

>  <inter_energy>  (11) 
-595.0318593544496

>  <intra_energy>  (11) 
25.48264914761932

>  <rmsd>  (11) 
5.74736

>  <sdf_rank>  (11) 
0

$$$$

     RDKit          3D

 39 42  0  0  0  0  0  0  0  0999 V2000
    1.9384   -0.2982   -7.2814 N   0  0  0  0  0  0  0  0  0  0  0  0
    2.5806    3.8274   -7.5531 N   0  0  0  0  0  0  0  0  0  0  0  0
    6.0535    3.3524   -7.9654 C   0  0  0  0  0  0  0  0  0  0  0  0
    5.5285    3.0411   -6.7884 C   0  0  0  0  0  0  0  0  0  0  0  0
    5.8014    3.8952   -5.5686 C   0  0  0  0  0  0  0  0  0  0  0  0
    4.7691    1.7379   -6.7550 C   0  0  0  0  0  0  0  0  0  0  0  0
    3.1145    0.1964   -7.0345 C   0  0  0  0  0  0  0  0  0  0  0  0
    0.9997    0.5809   -7.6259 C   0  0  0  0  0  0  0  0  0  0  0  0
    1.4814    4.7081   -7.2482 C   0  0  0  0  0  0  0  0  0  0  0  0
    2.1986    4.9040   -4.9117 C   0  0  0  0  0  0  0  0  0  0  0  0
    2.7673    7.0052   -3.7645 C   0  0  0  0  0  0  0  0  0  0  0  0
    6.5126    4.9903   -5.7330 C   0  0  0  0  0  0  0  0  0  0  0  0
    2.3630    2.4095   -7.4739 C   0  0  0  0  0  0  0  0  0  0  0  0
    5.4828    0.6122   -6.4746 C   0  0  0  0  0  0  0  0  0  0  0  0
    1.9275    5.5131   -6.0319 C   0  0  0  0  0  0  0  0  0  0  0  0
    2.6547    5.6956   -3.6903 C   0  0  0  0  0  0  0  0  0  0  0  0
    2.4447    7.7247   -5.0681 C   0  0  0  0  0  0  0  0  0  0  0  0
    2.0439    7.0377   -6.1241 C   0  0  0  0  0  0  0  0  0  0  0  0
    7.1008    5.3668   -7.0832 C   0  0  0  0  0  0  0  0  0  0  0  0
    6.8956    4.6100   -8.1452 C   0  0  0  0  0  0  0  0  0  0  0  0
    3.3926    1.5716   -7.1113 C   0  0  0  0  0  0  0  0  0  0  0  0
    1.1513    1.9129   -7.7311 N   0  0  0  0  0  0  0  0  0  0  0  0
    2.9531    5.0195   -2.4949 O   0  0  0  0  0  0  0  0  0  0  0  0
    4.4948   -0.8390   -6.5561 S   0  0  0  0  0  0  0  0  0  0  0  0
   -0.5929   -0.1406   -7.9787 Cl  0  0  0  0  0  0  0  0  0  0  0  0
    3.5003    4.2055   -7.8215 H   0  0  0  0  0  0  0  0  0  0  0  0
    5.8783    2.6916   -8.8271 H   0  0  0  0  0  0  0  0  0  0  0  0
    5.4180    3.6100   -4.5779 H   0  0  0  0  0  0  0  0  0  0  0  0
    1.2777    5.3766   -8.0977 H   0  0  0  0  0  0  0  0  0  0  0  0
    0.5548    4.1496   -7.0497 H   0  0  0  0  0  0  0  0  0  0  0  0
    2.0977    3.8105   -4.8469 H   0  0  0  0  0  0  0  0  0  0  0  0
    3.0944    7.5799   -2.8855 H   0  0  0  0  0  0  0  0  0  0  0  0
    6.6861    5.6507   -4.8705 H   0  0  0  0  0  0  0  0  0  0  0  0
    6.5543    0.6115   -6.2257 H   0  0  0  0  0  0  0  0  0  0  0  0
    2.5454    8.8183   -5.1308 H   0  0  0  0  0  0  0  0  0  0  0  0
    1.7959    7.5569   -7.0617 H   0  0  0  0  0  0  0  0  0  0  0  0
    7.7049    6.2813   -7.1765 H   0  0  0  0  0  0  0  0  0  0  0  0
    7.3174    4.8775   -9.1252 H   0  0  0  0  0  0  0  0  0  0  0  0
    3.2495    5.5284   -1.6991 H   0  0  0  0  0  0  0  0  0  0  0  0
  1  7  2  0
  1  8  1  0
  2  9  1  0
  2 13  1  0
  3  4  2  0
  3 20  1  0
  4  5  1  0
  4  6  1  0
  5 12  2  0
  6 14  2  0
  6 21  1  0
  7 21  1  0
  7 24  1  0
  8 22  2  0
  8 25  1  0
  9 15  1  0
 10 15  2  0
 10 16  1  0
 11 16  2  0
 11 17  1  0
 12 19  1  0
 13 21  2  0
 13 22  1  0
 14 24  1  0
 15 18  1  0
 16 23  1  0
 17 18  2  0
 19 20  2  0
  2 26  1  0
  3 27  1  0
  5 28  1  0
  9 29  1  0
  9 30  1  0
 10 31  1  0
 11 32  1  0
 12 33  1  0
 14 34  1  0
 17 35  1  0
 18 36  1  0
 19 37  1  0
 20 38  1  0
 23 39  1  0
M  END
>  <filename_input>  (12) 
7SFO_98L_docked.sdf

>  <pdb_id>  (12) 
7SFO_98L

>  <pose_rank>  (12) 
11

>  <num_atoms_heavy>  (12) 
25

>  <num_torsions>  (12) 
4

>  <pose>  (12) 
[1.9384214851345618, -0.2982145428214382, -7.281363159575016, -0.31598289103418187, -0.38882930299714374, 2.2771152263184504, -0.40071059661377756, 0.34550963541285157, 4.328474786138575, 14.225786855958962]

>  <energy>  (12) 
-630.1389510993841

>  <inter_energy>  (12) 
-616.094659018027

>  <intra_energy>  (12) 
2.32970863003448

>  <rmsd>  (12) 
6.4009

>  <sdf_rank>  (12) 
0

$$$$

     RDKit          3D

 39 42  0  0  0  0  0  0  0  0999 V2000
    4.8048    1.8876   -7.3373 N   0  0  0  0  0  0  0  0  0  0  0  0
    1.8657    3.0354   -4.5893 N   0  0  0  0  0  0  0  0  0  0  0  0
    1.4926    5.6307   -5.4740 C   0  0  0  0  0  0  0  0  0  0  0  0
    2.7801    5.9364   -5.3903 C   0  0  0  0  0  0  0  0  0  0  0  0
    3.2333    7.1877   -4.6688 C   0  0  0  0  0  0  0  0  0  0  0  0
    3.7022    5.0236   -6.1600 C   0  0  0  0  0  0  0  0  0  0  0  0
    4.5974    3.1468   -7.0919 C   0  0  0  0  0  0  0  0  0  0  0  0
    4.0265    1.0320   -6.6777 C   0  0  0  0  0  0  0  0  0  0  0  0
    0.4969    2.6566   -4.8336 C   0  0  0  0  0  0  0  0  0  0  0  0
    0.8286    0.5241   -5.9975 C   0  0  0  0  0  0  0  0  0  0  0  0
    0.5852    0.1671   -8.4198 C   0  0  0  0  0  0  0  0  0  0  0  0
    2.3161    7.9165   -4.0690 C   0  0  0  0  0  0  0  0  0  0  0  0
    2.8649    2.6411   -5.5433 C   0  0  0  0  0  0  0  0  0  0  0  0
    4.6065    5.6135   -6.9902 C   0  0  0  0  0  0  0  0  0  0  0  0
    0.5300    1.7898   -6.0882 C   0  0  0  0  0  0  0  0  0  0  0  0
    0.8563   -0.3564   -7.2427 C   0  0  0  0  0  0  0  0  0  0  0  0
    0.2430    1.6472   -8.5346 C   0  0  0  0  0  0  0  0  0  0  0  0
    0.2252    2.4103   -7.4552 C   0  0  0  0  0  0  0  0  0  0  0  0
    0.8397    7.5622   -4.1414 C   0  0  0  0  0  0  0  0  0  0  0  0
    0.4324    6.4910   -4.7966 C   0  0  0  0  0  0  0  0  0  0  0  0
    3.6244    3.5943   -6.1824 C   0  0  0  0  0  0  0  0  0  0  0  0
    3.0678    1.3451   -5.7883 N   0  0  0  0  0  0  0  0  0  0  0  0
    1.1696   -1.7212   -7.1228 O   0  0  0  0  0  0  0  0  0  0  0  0
    5.5523    4.4354   -7.8881 S   0  0  0  0  0  0  0  0  0  0  0  0
    4.3271   -0.6841   -7.0600 Cl  0  0  0  0  0  0  0  0  0  0  0  0
    2.1215    3.5759   -3.7507 H   0  0  0  0  0  0  0  0  0  0  0  0
    1.1843    4.7408   -6.0423 H   0  0  0  0  0  0  0  0  0  0  0  0
    4.2940    7.4781   -4.6466 H   0  0  0  0  0  0  0  0  0  0  0  0
    0.0987    2.0851   -3.9822 H   0  0  0  0  0  0  0  0  0  0  0  0
   -0.1523    3.5352   -4.9624 H   0  0  0  0  0  0  0  0  0  0  0  0
    1.0623    0.0877   -5.0152 H   0  0  0  0  0  0  0  0  0  0  0  0
    0.6057   -0.4641   -9.3205 H   0  0  0  0  0  0  0  0  0  0  0  0
    2.6262    8.8056   -3.5003 H   0  0  0  0  0  0  0  0  0  0  0  0
    4.7307    6.7022   -7.0875 H   0  0  0  0  0  0  0  0  0  0  0  0
    0.0103    2.0820   -9.5179 H   0  0  0  0  0  0  0  0  0  0  0  0
   -0.0068    3.4824   -7.5380 H   0  0  0  0  0  0  0  0  0  0  0  0
    0.1014    8.2065   -3.6416 H   0  0  0  0  0  0  0  0  0  0  0  0
   -0.6344    6.2285   -4.8517 H   0  0  0  0  0  0  0  0  0  0  0  0
    1.1890   -2.2972   -7.9277 H   0  0  0  0  0  0  0  0  0  0  0  0
  1  7  2  0
  1  8  1  0
  2  9  1  0
  2 13  1  0
  3  4  2  0
  3 20  1  0
  4  5  1  0
  4  6  1  0
  5 12  2  0
  6 14  2  0
  6 21  1  0
  7 21  1  0
  7 24  1  0
  8 22  2  0
  8 25  1  0
  9 15  1  0
 10 15  2  0
 10 16  1  0
 11 16  2  0
 11 17  1  0
 12 19  1  0
 13 21  2  0
 13 22  1  0
 14 24  1  0
 15 18  1  0
 16 23  1  0
 17 18  2  0
 19 20  2  0
  2 26  1  0
  3 27  1  0
  5 28  1  0
  9 29  1  0
  9 30  1  0
 10 31  1  0
 11 32  1  0
 12 33  1  0
 14 34  1  0
 17 35  1  0
 18 36  1  0
 19 37  1  0
 20 38  1  0
 23 39  1  0
M  END
>  <filename_input>  (13) 
7SFO_98L_docked.sdf

>  <pdb_id>  (13) 
7SFO_98L

>  <pose_rank>  (13) 
12

>  <num_atoms_heavy>  (13) 
25

>  <num_torsions>  (13) 
4

>  <pose>  (13) 
[4.804760005667287, 1.8876260146190975, -7.337299221954867, 1.59958573068074, -0.7901289220377254, 3.1013810435608704, 0.3175455020594309, -1.239961689480617, -3.9336393038614337, -2.1068744640843224]

>  <energy>  (13) 
-424.0888104622084

>  <inter_energy>  (13) 
-574.4589086198946

>  <intra_energy>  (13) 
186.82298444468876

>  <rmsd>  (13) 
6.26681

>  <sdf_rank>  (13) 
0

$$$$

     RDKit          3D

 39 42  0  0  0  0  0  0  0  0999 V2000
    1.1913    1.0327   -6.1432 N   0  0  0  0  0  0  0  0  0  0  0  0
    2.8402    4.4624   -7.8824 N   0  0  0  0  0  0  0  0  0  0  0  0
    5.4548    2.7337   -9.1727 C   0  0  0  0  0  0  0  0  0  0  0  0
    5.4820    2.7556   -7.8473 C   0  0  0  0  0  0  0  0  0  0  0  0
    6.5586    3.5208   -7.1076 C   0  0  0  0  0  0  0  0  0  0  0  0
    4.4558    1.8774   -7.1752 C   0  0  0  0  0  0  0  0  0  0  0  0
    2.4568    1.0714   -6.4360 C   0  0  0  0  0  0  0  0  0  0  0  0
    0.4924    2.1256   -6.4431 C   0  0  0  0  0  0  0  0  0  0  0  0
    3.4797    5.4171   -7.0128 C   0  0  0  0  0  0  0  0  0  0  0  0
    2.1117    4.9322   -5.0367 C   0  0  0  0  0  0  0  0  0  0  0  0
    0.4845    6.4693   -4.0148 C   0  0  0  0  0  0  0  0  0  0  0  0
    7.4162    4.2185   -7.8217 C   0  0  0  0  0  0  0  0  0  0  0  0
    2.2706    3.2799   -7.2983 C   0  0  0  0  0  0  0  0  0  0  0  0
    4.8616    0.6367   -6.7866 C   0  0  0  0  0  0  0  0  0  0  0  0
    2.4309    5.7860   -5.9686 C   0  0  0  0  0  0  0  0  0  0  0  0
    1.0713    5.2913   -3.9805 C   0  0  0  0  0  0  0  0  0  0  0  0
    0.8469    7.4693   -5.1055 C   0  0  0  0  0  0  0  0  0  0  0  0
    1.7445    7.1543   -6.0236 C   0  0  0  0  0  0  0  0  0  0  0  0
    7.3798    4.2166   -9.3413 C   0  0  0  0  0  0  0  0  0  0  0  0
    6.4647    3.5254   -9.9951 C   0  0  0  0  0  0  0  0  0  0  0  0
    3.0677    2.1924   -7.0229 C   0  0  0  0  0  0  0  0  0  0  0  0
    0.9694    3.2511   -7.0034 N   0  0  0  0  0  0  0  0  0  0  0  0
    0.7489    4.3614   -2.9773 O   0  0  0  0  0  0  0  0  0  0  0  0
    3.5478   -0.3084   -6.1014 S   0  0  0  0  0  0  0  0  0  0  0  0
   -1.2436    2.0230   -6.0469 Cl  0  0  0  0  0  0  0  0  0  0  0  0
    2.7925    4.6240   -8.8986 H   0  0  0  0  0  0  0  0  0  0  0  0
    4.6901    2.1337   -9.6878 H   0  0  0  0  0  0  0  0  0  0  0  0
    6.6220    3.4945   -6.0098 H   0  0  0  0  0  0  0  0  0  0  0  0
    4.3605    4.9679   -6.5307 H   0  0  0  0  0  0  0  0  0  0  0  0
    3.8319    6.3002   -7.5662 H   0  0  0  0  0  0  0  0  0  0  0  0
    2.5963    3.9450   -5.0117 H   0  0  0  0  0  0  0  0  0  0  0  0
   -0.2674    6.7315   -3.2560 H   0  0  0  0  0  0  0  0  0  0  0  0
    8.1797    4.8187   -7.3051 H   0  0  0  0  0  0  0  0  0  0  0  0
    5.8930    0.2685   -6.8897 H   0  0  0  0  0  0  0  0  0  0  0  0
    0.3606    8.4557   -5.1293 H   0  0  0  0  0  0  0  0  0  0  0  0
    1.9964    7.8691   -6.8208 H   0  0  0  0  0  0  0  0  0  0  0  0
    8.1252    4.7986   -9.9032 H   0  0  0  0  0  0  0  0  0  0  0  0
    6.4322    3.5209  -11.0947 H   0  0  0  0  0  0  0  0  0  0  0  0
    0.0744    4.5893   -2.2894 H   0  0  0  0  0  0  0  0  0  0  0  0
  1  7  2  0
  1  8  1  0
  2  9  1  0
  2 13  1  0
  3  4  2  0
  3 20  1  0
  4  5  1  0
  4  6  1  0
  5 12  2  0
  6 14  2  0
  6 21  1  0
  7 21  1  0
  7 24  1  0
  8 22  2  0
  8 25  1  0
  9 15  1  0
 10 15  2  0
 10 16  1  0
 11 16  2  0
 11 17  1  0
 12 19  1  0
 13 21  2  0
 13 22  1  0
 14 24  1  0
 15 18  1  0
 16 23  1  0
 17 18  2  0
 19 20  2  0
  2 26  1  0
  3 27  1  0
  5 28  1  0
  9 29  1  0
  9 30  1  0
 10 31  1  0
 11 32  1  0
 12 33  1  0
 14 34  1  0
 17 35  1  0
 18 36  1  0
 19 37  1  0
 20 38  1  0
 23 39  1  0
M  END
>  <filename_input>  (14) 
7SFO_98L_docked.sdf

>  <pdb_id>  (14) 
7SFO_98L

>  <pose_rank>  (14) 
13

>  <num_atoms_heavy>  (14) 
25

>  <num_torsions>  (14) 
4

>  <pose>  (14) 
[1.1912855572804693, 1.032663960953804, -6.143185138087002, -0.07890103730040908, 0.15282869795729004, 1.9746315034954138, -0.268115468570724, 7.771676007621508, 1.3054663994838571, 4.008021798115508]

>  <energy>  (14) 
-524.2289390526383

>  <inter_energy>  (14) 
-580.1797828907692

>  <intra_energy>  (14) 
76.29663247246735

>  <rmsd>  (14) 
6.14006

>  <sdf_rank>  (14) 
0

$$$$

     RDKit          3D

 39 42  0  0  0  0  0  0  0  0999 V2000
    1.2376    6.5133   -5.2909 N   0  0  0  0  0  0  0  0  0  0  0  0
    3.8928    3.4871   -6.4307 N   0  0  0  0  0  0  0  0  0  0  0  0
    1.8286    0.9799   -5.6431 C   0  0  0  0  0  0  0  0  0  0  0  0
    1.2719    1.7533   -6.5650 C   0  0  0  0  0  0  0  0  0  0  0  0
    1.2382    1.3256   -8.0168 C   0  0  0  0  0  0  0  0  0  0  0  0
    0.8084    3.1009   -6.0699 C   0  0  0  0  0  0  0  0  0  0  0  0
    0.7963    5.3148   -5.5309 C   0  0  0  0  0  0  0  0  0  0  0  0
    2.5482    6.6910   -5.4449 C   0  0  0  0  0  0  0  0  0  0  0  0
    3.9248    3.0695   -7.8095 C   0  0  0  0  0  0  0  0  0  0  0  0
    6.3716    2.9933   -7.6710 C   0  0  0  0  0  0  0  0  0  0  0  0
    7.9247    4.0706   -9.2464 C   0  0  0  0  0  0  0  0  0  0  0  0
    1.7118    0.1349   -8.3169 C   0  0  0  0  0  0  0  0  0  0  0  0
    2.9797    4.5301   -6.0531 C   0  0  0  0  0  0  0  0  0  0  0  0
   -0.5283    3.2577   -5.8608 C   0  0  0  0  0  0  0  0  0  0  0  0
    5.3209    3.4231   -8.3118 C   0  0  0  0  0  0  0  0  0  0  0  0
    7.7737    3.3316   -8.1674 C   0  0  0  0  0  0  0  0  0  0  0  0
    6.7014    4.5830   -9.9960 C   0  0  0  0  0  0  0  0  0  0  0  0
    5.4869    4.2938   -9.5611 C   0  0  0  0  0  0  0  0  0  0  0  0
    2.3326   -0.7678   -7.2631 C   0  0  0  0  0  0  0  0  0  0  0  0
    2.3962   -0.3887   -6.0001 C   0  0  0  0  0  0  0  0  0  0  0  0
    1.6373    4.2583   -5.9191 C   0  0  0  0  0  0  0  0  0  0  0  0
    3.4442    5.7575   -5.8107 N   0  0  0  0  0  0  0  0  0  0  0  0
    8.8940    2.8494   -7.4691 O   0  0  0  0  0  0  0  0  0  0  0  0
   -0.9373    4.8958   -5.3727 S   0  0  0  0  0  0  0  0  0  0  0  0
    3.1094    8.3542   -5.1286 Cl  0  0  0  0  0  0  0  0  0  0  0  0
    4.5099    3.0484   -5.7324 H   0  0  0  0  0  0  0  0  0  0  0  0
    1.8818    1.3323   -4.6024 H   0  0  0  0  0  0  0  0  0  0  0  0
    0.8313    1.9880   -8.7951 H   0  0  0  0  0  0  0  0  0  0  0  0
    3.7517    1.9859   -7.8869 H   0  0  0  0  0  0  0  0  0  0  0  0
    3.1411    3.5630   -8.4030 H   0  0  0  0  0  0  0  0  0  0  0  0
    6.2461    2.3819   -6.7653 H   0  0  0  0  0  0  0  0  0  0  0  0
    8.9341    4.3182   -9.6067 H   0  0  0  0  0  0  0  0  0  0  0  0
    1.6569   -0.2164   -9.3578 H   0  0  0  0  0  0  0  0  0  0  0  0
   -1.2669    2.4518   -5.9833 H   0  0  0  0  0  0  0  0  0  0  0  0
    6.8289    5.1950  -10.9011 H   0  0  0  0  0  0  0  0  0  0  0  0
    4.6024    4.6755  -10.0923 H   0  0  0  0  0  0  0  0  0  0  0  0
    2.7338   -1.7491   -7.5565 H   0  0  0  0  0  0  0  0  0  0  0  0
    2.8431   -1.0377   -5.2326 H   0  0  0  0  0  0  0  0  0  0  0  0
    9.8062    3.0660   -7.7869 H   0  0  0  0  0  0  0  0  0  0  0  0
  1  7  2  0
  1  8  1  0
  2  9  1  0
  2 13  1  0
  3  4  2  0
  3 20  1  0
  4  5  1  0
  4  6  1  0
  5 12  2  0
  6 14  2  0
  6 21  1  0
  7 21  1  0
  7 24  1  0
  8 22  2  0
  8 25  1  0
  9 15  1  0
 10 15  2  0
 10 16  1  0
 11 16  2  0
 11 17  1  0
 12 19  1  0
 13 21  2  0
 13 22  1  0
 14 24  1  0
 15 18  1  0
 16 23  1  0
 17 18  2  0
 19 20  2  0
  2 26  1  0
  3 27  1  0
  5 28  1  0
  9 29  1  0
  9 30  1  0
 10 31  1  0
 11 32  1  0
 12 33  1  0
 14 34  1  0
 17 35  1  0
 18 36  1  0
 19 37  1  0
 20 38  1  0
 23 39  1  0
M  END
>  <filename_input>  (15) 
7SFO_98L_docked.sdf

>  <pdb_id>  (15) 
7SFO_98L

>  <pose_rank>  (15) 
14

>  <num_atoms_heavy>  (15) 
25

>  <num_torsions>  (15) 
4

>  <pose>  (15) 
[1.2375943166123344, 6.513327671764761, -5.290877333190563, 5.792581195894071, -0.03730938944094246, 2.3749857652991406, -10.023389949682016, -8.300189056010904, -14.54914325644638, 9.960663768895499]

>  <energy>  (15) 
-836.8269655868987

>  <inter_energy>  (15) 
-858.2116567850301

>  <intra_energy>  (15) 
27.090886080154274

>  <rmsd>  (15) 
1.35046

>  <sdf_rank>  (15) 
0

$$$$

     RDKit          3D

 39 42  0  0  0  0  0  0  0  0999 V2000
    4.9462    4.7803   -8.4767 N   0  0  0  0  0  0  0  0  0  0  0  0
    3.6153    2.2335   -5.4354 N   0  0  0  0  0  0  0  0  0  0  0  0
    0.5890    5.1677   -4.6315 C   0  0  0  0  0  0  0  0  0  0  0  0
    1.8311    4.7048   -4.6592 C   0  0  0  0  0  0  0  0  0  0  0  0
    2.3665    3.8561   -3.5257 C   0  0  0  0  0  0  0  0  0  0  0  0
    2.6654    5.1905   -5.8186 C   0  0  0  0  0  0  0  0  0  0  0  0
    4.0711    5.1989   -7.6119 C   0  0  0  0  0  0  0  0  0  0  0  0
    5.3551    3.5222   -8.3263 C   0  0  0  0  0  0  0  0  0  0  0  0
    2.2246    1.8577   -5.3999 C   0  0  0  0  0  0  0  0  0  0  0  0
    2.2987    0.3254   -7.3125 C   0  0  0  0  0  0  0  0  0  0  0  0
    2.0506   -2.1198   -7.1930 C   0  0  0  0  0  0  0  0  0  0  0  0
    1.5378    3.5354   -2.5549 C   0  0  0  0  0  0  0  0  0  0  0  0
    4.0620    3.1029   -6.4884 C   0  0  0  0  0  0  0  0  0  0  0  0
    2.4385    6.4602   -6.2560 C   0  0  0  0  0  0  0  0  0  0  0  0
    2.1604    0.4675   -6.0241 C   0  0  0  0  0  0  0  0  0  0  0  0
    2.2459   -1.0599   -7.9490 C   0  0  0  0  0  0  0  0  0  0  0  0
    1.8804   -1.9606   -5.6875 C   0  0  0  0  0  0  0  0  0  0  0  0
    1.9205   -0.7588   -5.1381 C   0  0  0  0  0  0  0  0  0  0  0  0
    0.1055    4.0437   -2.5253 C   0  0  0  0  0  0  0  0  0  0  0  0
   -0.3597    4.8119   -3.4930 C   0  0  0  0  0  0  0  0  0  0  0  0
    3.5844    4.3908   -6.5705 C   0  0  0  0  0  0  0  0  0  0  0  0
    4.9597    2.6615   -7.3718 N   0  0  0  0  0  0  0  0  0  0  0  0
    2.4083   -1.1935   -9.3386 O   0  0  0  0  0  0  0  0  0  0  0  0
    3.4124    6.8631   -7.6624 S   0  0  0  0  0  0  0  0  0  0  0  0
    6.5375    2.9798   -9.5465 Cl  0  0  0  0  0  0  0  0  0  0  0  0
    4.2735    1.8871   -4.7229 H   0  0  0  0  0  0  0  0  0  0  0  0
    0.2370    5.8200   -5.4443 H   0  0  0  0  0  0  0  0  0  0  0  0
    3.4134    3.5186   -3.5140 H   0  0  0  0  0  0  0  0  0  0  0  0
    1.8605    1.8301   -4.3622 H   0  0  0  0  0  0  0  0  0  0  0  0
    1.5940    2.5775   -5.9424 H   0  0  0  0  0  0  0  0  0  0  0  0
    2.4546    1.2113   -7.9457 H   0  0  0  0  0  0  0  0  0  0  0  0
    2.0103   -3.1203   -7.6484 H   0  0  0  0  0  0  0  0  0  0  0  0
    1.8910    2.8822   -1.7433 H   0  0  0  0  0  0  0  0  0  0  0  0
    1.7274    7.1538   -5.7833 H   0  0  0  0  0  0  0  0  0  0  0  0
    1.7238   -2.8477   -5.0561 H   0  0  0  0  0  0  0  0  0  0  0  0
    1.7827   -0.6404   -4.0532 H   0  0  0  0  0  0  0  0  0  0  0  0
   -0.5514    3.7681   -1.6873 H   0  0  0  0  0  0  0  0  0  0  0  0
   -1.3955    5.1820   -3.4781 H   0  0  0  0  0  0  0  0  0  0  0  0
    2.3750   -2.0902   -9.7569 H   0  0  0  0  0  0  0  0  0  0  0  0
  1  7  2  0
  1  8  1  0
  2  9  1  0
  2 13  1  0
  3  4  2  0
  3 20  1  0
  4  5  1  0
  4  6  1  0
  5 12  2  0
  6 14  2  0
  6 21  1  0
  7 21  1  0
  7 24  1  0
  8 22  2  0
  8 25  1  0
  9 15  1  0
 10 15  2  0
 10 16  1  0
 11 16  2  0
 11 17  1  0
 12 19  1  0
 13 21  2  0
 13 22  1  0
 14 24  1  0
 15 18  1  0
 16 23  1  0
 17 18  2  0
 19 20  2  0
  2 26  1  0
  3 27  1  0
  5 28  1  0
  9 29  1  0
  9 30  1  0
 10 31  1  0
 11 32  1  0
 12 33  1  0
 14 34  1  0
 17 35  1  0
 18 36  1  0
 19 37  1  0
 20 38  1  0
 23 39  1  0
M  END
>  <filename_input>  (16) 
7SFO_98L_docked.sdf

>  <pdb_id>  (16) 
7SFO_98L

>  <pose_rank>  (16) 
15

>  <num_atoms_heavy>  (16) 
25

>  <num_torsions>  (16) 
4

>  <pose>  (16) 
[4.946154764272364, 4.7803378231669384, -8.476741772235787, 3.062090730127704, -1.2738880331196083, 3.02477671833718, 4.939088941886757, -2.222634570646505, -8.558531539855922, 1.4465921786688503]

>  <energy>  (16) 
-396.2102599890038

>  <inter_energy>  (16) 
-468.56824090111456

>  <intra_energy>  (16) 
97.67988286900511

>  <rmsd>  (16) 
5.47221

>  <sdf_rank>  (16) 
0

$$$$

     RDKit          3D

 39 42  0  0  0  0  0  0  0  0999 V2000
    5.7640   -3.6349    2.3687 N   0  0  0  0  0  0  0  0  0  0  0  0
    9.1202   -1.1490    2.6213 N   0  0  0  0  0  0  0  0  0  0  0  0
   11.3075   -3.6710    1.1974 C   0  0  0  0  0  0  0  0  0  0  0  0
   10.3008   -3.1551    0.5058 C   0  0  0  0  0  0  0  0  0  0  0  0
   10.5280   -2.0031   -0.4498 C   0  0  0  0  0  0  0  0  0  0  0  0
    8.9424   -3.7181    0.8433 C   0  0  0  0  0  0  0  0  0  0  0  0
    6.8280   -3.9029    1.6723 C   0  0  0  0  0  0  0  0  0  0  0  0
    5.8263   -2.5417    3.1263 C   0  0  0  0  0  0  0  0  0  0  0  0
    9.3680   -0.4657    3.8656 C   0  0  0  0  0  0  0  0  0  0  0  0
   10.0705    1.7355    3.0451 C   0  0  0  0  0  0  0  0  0  0  0  0
    8.6769    3.7633    3.0265 C   0  0  0  0  0  0  0  0  0  0  0  0
   11.7635   -1.5841   -0.6231 C   0  0  0  0  0  0  0  0  0  0  0  0
    7.9625   -1.9942    2.5242 C   0  0  0  0  0  0  0  0  0  0  0  0
    8.5536   -4.8399    0.1758 C   0  0  0  0  0  0  0  0  0  0  0  0
    9.1251    1.0120    3.5763 C   0  0  0  0  0  0  0  0  0  0  0  0
    9.8382    3.2122    2.7419 C   0  0  0  0  0  0  0  0  0  0  0  0
    7.5700    2.9259    3.6545 C   0  0  0  0  0  0  0  0  0  0  0  0
    7.7749    1.6476    3.9222 C   0  0  0  0  0  0  0  0  0  0  0  0
   12.9272   -2.1839    0.1494 C   0  0  0  0  0  0  0  0  0  0  0  0
   12.7334   -3.1665    1.0095 C   0  0  0  0  0  0  0  0  0  0  0  0
    7.9842   -3.1055    1.7128 C   0  0  0  0  0  0  0  0  0  0  0  0
    6.8749   -1.7081    3.2428 N   0  0  0  0  0  0  0  0  0  0  0  0
   10.8661    3.9727    2.1587 O   0  0  0  0  0  0  0  0  0  0  0  0
    6.9212   -5.3338    0.6000 S   0  0  0  0  0  0  0  0  0  0  0  0
    4.3384   -2.1969    4.0475 Cl  0  0  0  0  0  0  0  0  0  0  0  0
    9.7578   -1.0342    1.8206 H   0  0  0  0  0  0  0  0  0  0  0  0
   11.1103   -4.4772    1.9193 H   0  0  0  0  0  0  0  0  0  0  0  0
    9.6882   -1.5319   -0.9816 H   0  0  0  0  0  0  0  0  0  0  0  0
    8.6782   -0.8232    4.6443 H   0  0  0  0  0  0  0  0  0  0  0  0
   10.3889   -0.6465    4.2334 H   0  0  0  0  0  0  0  0  0  0  0  0
   11.0435    1.2774    2.8138 H   0  0  0  0  0  0  0  0  0  0  0  0
    8.5059    4.8283    2.8108 H   0  0  0  0  0  0  0  0  0  0  0  0
   11.9592   -0.7786   -1.3462 H   0  0  0  0  0  0  0  0  0  0  0  0
    9.1883   -5.3751   -0.5458 H   0  0  0  0  0  0  0  0  0  0  0  0
    6.5979    3.3860    3.8859 H   0  0  0  0  0  0  0  0  0  0  0  0
    6.9822    1.0450    4.3895 H   0  0  0  0  0  0  0  0  0  0  0  0
   13.9434   -1.7943   -0.0102 H   0  0  0  0  0  0  0  0  0  0  0  0
   13.5714   -3.6056    1.5707 H   0  0  0  0  0  0  0  0  0  0  0  0
   10.7207    4.9315    1.9598 H   0  0  0  0  0  0  0  0  0  0  0  0
  1  7  2  0
  1  8  1  0
  2  9  1  0
  2 13  1  0
  3  4  2  0
  3 20  1  0
  4  5  1  0
  4  6  1  0
  5 12  2  0
  6 14  2  0
  6 21  1  0
  7 21  1  0
  7 24  1  0
  8 22  2  0
  8 25  1  0
  9 15  1  0
 10 15  2  0
 10 16  1  0
 11 16  2  0
 11 17  1  0
 12 19  1  0
 13 21  2  0
 13 22  1  0
 14 24  1  0
 15 18  1  0
 16 23  1  0
 17 18  2  0
 19 20  2  0
  2 26  1  0
  3 27  1  0
  5 28  1  0
  9 29  1  0
  9 30  1  0
 10 31  1  0
 11 32  1  0
 12 33  1  0
 14 34  1  0
 17 35  1  0
 18 36  1  0
 19 37  1  0
 20 38  1  0
 23 39  1  0
M  END
>  <filename_input>  (17) 
7SFO_98L_docked.sdf

>  <pdb_id>  (17) 
7SFO_98L

>  <pose_rank>  (17) 
16

>  <num_atoms_heavy>  (17) 
25

>  <num_torsions>  (17) 
4

>  <pose>  (17) 
[5.764026091683018, -3.6349129958659283, 2.3686710890423814, 0.6546532188656501, -0.4352977135220186, 1.3315063965030542, -3.4650893915552006, -5.9432661850704545, 0.34047982771368995, 1.2821571697296767]

>  <energy>  (17) 
-194.86261140281144

>  <inter_energy>  (17) 
-193.50187140234516

>  <intra_energy>  (17) 
3.020074968446341

>  <rmsd>  (17) 
12.425

>  <sdf_rank>  (17) 
0

$$$$

     RDKit          3D

 39 42  0  0  0  0  0  0  0  0999 V2000
    5.0462    3.6725    2.8835 N   0  0  0  0  0  0  0  0  0  0  0  0
    8.2084    1.0226    3.5802 N   0  0  0  0  0  0  0  0  0  0  0  0
   10.1175    2.1580    1.2560 C   0  0  0  0  0  0  0  0  0  0  0  0
    9.8783    3.1991    2.0414 C   0  0  0  0  0  0  0  0  0  0  0  0
   10.9440    3.7203    2.9818 C   0  0  0  0  0  0  0  0  0  0  0  0
    8.4605    3.7133    2.0023 C   0  0  0  0  0  0  0  0  0  0  0  0
    6.2367    3.9468    2.4404 C   0  0  0  0  0  0  0  0  0  0  0  0
    4.9272    2.5319    3.5600 C   0  0  0  0  0  0  0  0  0  0  0  0
    7.8973   -0.3687    3.7901 C   0  0  0  0  0  0  0  0  0  0  0  0
    9.0647   -1.9349    2.3081 C   0  0  0  0  0  0  0  0  0  0  0  0
   11.4367   -2.5659    2.4817 C   0  0  0  0  0  0  0  0  0  0  0  0
   12.1310    3.1536    2.9387 C   0  0  0  0  0  0  0  0  0  0  0  0
    7.1253    1.9389    3.3536 C   0  0  0  0  0  0  0  0  0  0  0  0
    8.2557    4.9202    1.4053 C   0  0  0  0  0  0  0  0  0  0  0  0
    9.1343   -1.1374    3.3369 C   0  0  0  0  0  0  0  0  0  0  0  0
   10.2962   -2.7026    1.8384 C   0  0  0  0  0  0  0  0  0  0  0  0
   11.5237   -1.6415    3.6897 C   0  0  0  0  0  0  0  0  0  0  0  0
   10.4539   -0.9814    4.0991 C   0  0  0  0  0  0  0  0  0  0  0  0
   12.4210    1.9732    2.0259 C   0  0  0  0  0  0  0  0  0  0  0  0
   11.4875    1.4909    1.2266 C   0  0  0  0  0  0  0  0  0  0  0  0
    7.3382    3.0988    2.6443 C   0  0  0  0  0  0  0  0  0  0  0  0
    5.9074    1.6473    3.8148 N   0  0  0  0  0  0  0  0  0  0  0  0
   10.2037   -3.5491    0.7203 O   0  0  0  0  0  0  0  0  0  0  0  0
    6.5792    5.4375    1.5094 S   0  0  0  0  0  0  0  0  0  0  0  0
    3.2837    2.2042    4.1704 Cl  0  0  0  0  0  0  0  0  0  0  0  0
    9.1841    1.3524    3.5924 H   0  0  0  0  0  0  0  0  0  0  0  0
    9.3131    1.7690    0.6144 H   0  0  0  0  0  0  0  0  0  0  0  0
   10.7332    4.5453    3.6782 H   0  0  0  0  0  0  0  0  0  0  0  0
    7.6940   -0.5607    4.8539 H   0  0  0  0  0  0  0  0  0  0  0  0
    7.0003   -0.6744    3.2315 H   0  0  0  0  0  0  0  0  0  0  0  0
    8.1103   -2.0553    1.7746 H   0  0  0  0  0  0  0  0  0  0  0  0
   12.3267   -3.1190    2.1472 H   0  0  0  0  0  0  0  0  0  0  0  0
   12.9346    3.5444    3.5801 H   0  0  0  0  0  0  0  0  0  0  0  0
    9.0483    5.5040    0.9145 H   0  0  0  0  0  0  0  0  0  0  0  0
   12.4787   -1.5231    4.2224 H   0  0  0  0  0  0  0  0  0  0  0  0
   10.5109   -0.3253    4.9801 H   0  0  0  0  0  0  0  0  0  0  0  0
   13.4210    1.5151    2.0314 H   0  0  0  0  0  0  0  0  0  0  0  0
   11.6913    0.6377    0.5628 H   0  0  0  0  0  0  0  0  0  0  0  0
   10.9999   -4.0497    0.4112 H   0  0  0  0  0  0  0  0  0  0  0  0
  1  7  2  0
  1  8  1  0
  2  9  1  0
  2 13  1  0
  3  4  2  0
  3 20  1  0
  4  5  1  0
  4  6  1  0
  5 12  2  0
  6 14  2  0
  6 21  1  0
  7 21  1  0
  7 24  1  0
  8 22  2  0
  8 25  1  0
  9 15  1  0
 10 15  2  0
 10 16  1  0
 11 16  2  0
 11 17  1  0
 12 19  1  0
 13 21  2  0
 13 22  1  0
 14 24  1  0
 15 18  1  0
 16 23  1  0
 17 18  2  0
 19 20  2  0
  2 26  1  0
  3 27  1  0
  5 28  1  0
  9 29  1  0
  9 30  1  0
 10 31  1  0
 11 32  1  0
 12 33  1  0
 14 34  1  0
 17 35  1  0
 18 36  1  0
 19 37  1  0
 20 38  1  0
 23 39  1  0
M  END
>  <filename_input>  (18) 
7SFO_98L_docked.sdf

>  <pdb_id>  (18) 
7SFO_98L

>  <pose_rank>  (18) 
17

>  <num_atoms_heavy>  (18) 
25

>  <num_torsions>  (18) 
4

>  <pose>  (18) 
[5.046196946977357, 3.6725286282931187, 2.8834530375346965, -2.492549153160189, 2.7653666094188774, 0.1523893488893557, 2.4258540747121566, 0.2495194067624278, -1.329199745085443, 0.7274003306084466]

>  <energy>  (18) 
-215.26151431102494

>  <inter_energy>  (18) 
-211.60198331000223

>  <intra_energy>  (18) 
7.639749618088944

>  <rmsd>  (18) 
11.6029

>  <sdf_rank>  (18) 
0

$$$$

     RDKit          3D

 39 42  0  0  0  0  0  0  0  0999 V2000
    6.5388    1.3406    2.5502 N   0  0  0  0  0  0  0  0  0  0  0  0
   10.6473    1.7088    3.2513 N   0  0  0  0  0  0  0  0  0  0  0  0
   11.2630   -1.2705    0.8292 C   0  0  0  0  0  0  0  0  0  0  0  0
   10.7343   -1.1938    2.0426 C   0  0  0  0  0  0  0  0  0  0  0  0
   11.5470   -1.5613    3.2658 C   0  0  0  0  0  0  0  0  0  0  0  0
    9.2675   -0.8425    2.0766 C   0  0  0  0  0  0  0  0  0  0  0  0
    7.3393    0.3563    2.2685 C   0  0  0  0  0  0  0  0  0  0  0  0
    7.1149    2.4333    3.0470 C   0  0  0  0  0  0  0  0  0  0  0  0
   11.4830    2.2778    2.2243 C   0  0  0  0  0  0  0  0  0  0  0  0
   12.0413    4.4822    3.1413 C   0  0  0  0  0  0  0  0  0  0  0  0
   10.9489    6.6007    2.5303 C   0  0  0  0  0  0  0  0  0  0  0  0
   12.8100   -1.8862    3.0886 C   0  0  0  0  0  0  0  0  0  0  0  0
    9.2384    1.5882    2.9975 C   0  0  0  0  0  0  0  0  0  0  0  0
    8.3984   -1.7629    1.5740 C   0  0  0  0  0  0  0  0  0  0  0  0
   11.2924    3.7873    2.3316 C   0  0  0  0  0  0  0  0  0  0  0  0
   11.8678    5.9936    3.2517 C   0  0  0  0  0  0  0  0  0  0  0  0
   10.0648    5.7941    1.5876 C   0  0  0  0  0  0  0  0  0  0  0  0
   10.2125    4.4834    1.4975 C   0  0  0  0  0  0  0  0  0  0  0  0
   13.4309   -1.9560    1.7028 C   0  0  0  0  0  0  0  0  0  0  0  0
   12.7201   -1.6694    0.6279 C   0  0  0  0  0  0  0  0  0  0  0  0
    8.7270    0.4206    2.4789 C   0  0  0  0  0  0  0  0  0  0  0  0
    8.4263    2.6062    3.2893 N   0  0  0  0  0  0  0  0  0  0  0  0
   12.6925    6.7267    4.1221 O   0  0  0  0  0  0  0  0  0  0  0  0
    6.7372   -1.1892    1.5941 S   0  0  0  0  0  0  0  0  0  0  0  0
    5.9853    3.7682    3.3981 Cl  0  0  0  0  0  0  0  0  0  0  0  0
   11.0506    1.3959    4.1460 H   0  0  0  0  0  0  0  0  0  0  0  0
   10.6392   -1.0421   -0.0476 H   0  0  0  0  0  0  0  0  0  0  0  0
   11.0968   -1.5570    4.2695 H   0  0  0  0  0  0  0  0  0  0  0  0
   12.5364    2.0105    2.3943 H   0  0  0  0  0  0  0  0  0  0  0  0
   11.2137    1.9030    1.2258 H   0  0  0  0  0  0  0  0  0  0  0  0
   12.8043    3.9746    3.7497 H   0  0  0  0  0  0  0  0  0  0  0  0
   10.8196    7.6903    2.6082 H   0  0  0  0  0  0  0  0  0  0  0  0
   13.4327   -2.1133    3.9664 H   0  0  0  0  0  0  0  0  0  0  0  0
    8.7013   -2.7515    1.1986 H   0  0  0  0  0  0  0  0  0  0  0  0
    9.3018    6.3034    0.9806 H   0  0  0  0  0  0  0  0  0  0  0  0
    9.5650    3.8973    0.8288 H   0  0  0  0  0  0  0  0  0  0  0  0
   14.4856   -2.2490    1.5944 H   0  0  0  0  0  0  0  0  0  0  0  0
   13.1639   -1.7169   -0.3775 H   0  0  0  0  0  0  0  0  0  0  0  0
   12.5842    7.7079    4.1976 H   0  0  0  0  0  0  0  0  0  0  0  0
  1  7  2  0
  1  8  1  0
  2  9  1  0
  2 13  1  0
  3  4  2  0
  3 20  1  0
  4  5  1  0
  4  6  1  0
  5 12  2  0
  6 14  2  0
  6 21  1  0
  7 21  1  0
  7 24  1  0
  8 22  2  0
  8 25  1  0
  9 15  1  0
 10 15  2  0
 10 16  1  0
 11 16  2  0
 11 17  1  0
 12 19  1  0
 13 21  2  0
 13 22  1  0
 14 24  1  0
 15 18  1  0
 16 23  1  0
 17 18  2  0
 19 20  2  0
  2 26  1  0
  3 27  1  0
  5 28  1  0
  9 29  1  0
  9 30  1  0
 10 31  1  0
 11 32  1  0
 12 33  1  0
 14 34  1  0
 17 35  1  0
 18 36  1  0
 19 37  1  0
 20 38  1  0
 23 39  1  0
M  END
>  <filename_input>  (19) 
7SFO_98L_docked.sdf

>  <pdb_id>  (19) 
7SFO_98L

>  <pose_rank>  (19) 
18

>  <num_atoms_heavy>  (19) 
25

>  <num_torsions>  (19) 
4

>  <pose>  (19) 
[6.5388119444883746, 1.3405581888501041, 2.550167818951438, 0.10690647368787144, -0.549426850755858, 0.8861455674191723, -0.7724719281372657, -33.13555359995788, -15.187771190936346, 10.549839642377068]

>  <energy>  (19) 
-148.94573580514881

>  <inter_energy>  (19) 
-178.28691160865668

>  <intra_energy>  (19) 
24.650210953968326

>  <rmsd>  (19) 
11.9389

>  <sdf_rank>  (19) 
0

$$$$

     RDKit          3D

 39 42  0  0  0  0  0  0  0  0999 V2000
    7.0551    4.7241    2.9091 N   0  0  0  0  0  0  0  0  0  0  0  0
    9.8181    1.6429    2.2931 N   0  0  0  0  0  0  0  0  0  0  0  0
    7.2238   -0.7038    1.7880 C   0  0  0  0  0  0  0  0  0  0  0  0
    7.3649   -0.1930    3.0034 C   0  0  0  0  0  0  0  0  0  0  0  0
    7.8992   -1.0373    4.1407 C   0  0  0  0  0  0  0  0  0  0  0  0
    6.8441    1.2134    3.1670 C   0  0  0  0  0  0  0  0  0  0  0  0
    6.6976    3.4853    3.0716 C   0  0  0  0  0  0  0  0  0  0  0  0
    8.3175    4.9193    2.5333 C   0  0  0  0  0  0  0  0  0  0  0  0
   10.5736    1.1792    3.4292 C   0  0  0  0  0  0  0  0  0  0  0  0
   11.0282   -0.6050    1.8099 C   0  0  0  0  0  0  0  0  0  0  0  0
   12.8232   -2.2777    1.9955 C   0  0  0  0  0  0  0  0  0  0  0  0
    8.2849   -2.2650    3.8650 C   0  0  0  0  0  0  0  0  0  0  0  0
    8.8661    2.7006    2.4906 C   0  0  0  0  0  0  0  0  0  0  0  0
    5.5325    1.3526    3.5066 C   0  0  0  0  0  0  0  0  0  0  0  0
   11.3592   -0.0301    2.9321 C   0  0  0  0  0  0  0  0  0  0  0  0
   11.8109   -1.8093    1.2963 C   0  0  0  0  0  0  0  0  0  0  0  0
   13.2109   -1.6158    3.3117 C   0  0  0  0  0  0  0  0  0  0  0  0
   12.5279   -0.5757    3.7584 C   0  0  0  0  0  0  0  0  0  0  0  0
    8.1469   -2.8523    2.4697 C   0  0  0  0  0  0  0  0  0  0  0  0
    7.6510   -2.1339    1.4794 C   0  0  0  0  0  0  0  0  0  0  0  0
    7.5783    2.4078    2.8776 C   0  0  0  0  0  0  0  0  0  0  0  0
    9.2443    3.9689    2.3192 N   0  0  0  0  0  0  0  0  0  0  0  0
   11.4455   -2.4084    0.0786 O   0  0  0  0  0  0  0  0  0  0  0  0
    5.0388    3.0379    3.5759 S   0  0  0  0  0  0  0  0  0  0  0  0
    8.7611    6.6309    2.2989 Cl  0  0  0  0  0  0  0  0  0  0  0  0
    9.9574    1.2261    1.3616 H   0  0  0  0  0  0  0  0  0  0  0  0
    6.7909   -0.0846    0.9885 H   0  0  0  0  0  0  0  0  0  0  0  0
    7.9630   -0.6379    5.1636 H   0  0  0  0  0  0  0  0  0  0  0  0
   11.2590    1.9643    3.7812 H   0  0  0  0  0  0  0  0  0  0  0  0
    9.9199    0.9207    4.2753 H   0  0  0  0  0  0  0  0  0  0  0  0
   10.1778   -0.2186    1.2289 H   0  0  0  0  0  0  0  0  0  0  0  0
   13.3892   -3.1470    1.6293 H   0  0  0  0  0  0  0  0  0  0  0  0
    8.7186   -2.8825    4.6653 H   0  0  0  0  0  0  0  0  0  0  0  0
    4.8596    0.5074    3.7136 H   0  0  0  0  0  0  0  0  0  0  0  0
   14.0611   -2.0041    3.8917 H   0  0  0  0  0  0  0  0  0  0  0  0
   12.7968   -0.1058    4.7160 H   0  0  0  0  0  0  0  0  0  0  0  0
    8.4643   -3.8888    2.2829 H   0  0  0  0  0  0  0  0  0  0  0  0
    7.5496   -2.5526    0.4673 H   0  0  0  0  0  0  0  0  0  0  0  0
   11.9501   -3.1903   -0.2594 H   0  0  0  0  0  0  0  0  0  0  0  0
  1  7  2  0
  1  8  1  0
  2  9  1  0
  2 13  1  0
  3  4  2  0
  3 20  1  0
  4  5  1  0
  4  6  1  0
  5 12  2  0
  6 14  2  0
  6 21  1  0
  7 21  1  0
  7 24  1  0
  8 22  2  0
  8 25  1  0
  9 15  1  0
 10 15  2  0
 10 16  1  0
 11 16  2  0
 11 17  1  0
 12 19  1  0
 13 21  2  0
 13 22  1  0
 14 24  1  0
 15 18  1  0
 16 23  1  0
 17 18  2  0
 19 20  2  0
  2 26  1  0
  3 27  1  0
  5 28  1  0
  9 29  1  0
  9 30  1  0
 10 31  1  0
 11 32  1  0
 12 33  1  0
 14 34  1  0
 17 35  1  0
 18 36  1  0
 19 37  1  0
 20 38  1  0
 23 39  1  0
M  END
>  <filename_input>  (20) 
7SFO_98L_docked.sdf

>  <pdb_id>  (20) 
7SFO_98L

>  <pose_rank>  (20) 
19

>  <num_atoms_heavy>  (20) 
25

>  <num_torsions>  (20) 
4

>  <pose>  (20) 
[7.055121612188343, 4.724060582951897, 2.909072159883472, 5.384102196058298, -2.2457152959534623, -1.1448281875669266, -0.40559692201818126, -4.866947636863479, -0.977417068801943, 2.46289130789996]

>  <energy>  (20) 
-189.9773358469497

>  <inter_energy>  (20) 
-183.88138576570853

>  <intra_energy>  (20) 
5.70927148623626

>  <rmsd>  (20) 
11.1763

>  <sdf_rank>  (20) 
0

$$$$

     RDKit          3D

 39 42  0  0  0  0  0  0  0  0999 V2000
   11.2429    9.8738   -1.7329 N   0  0  0  0  0  0  0  0  0  0  0  0
    9.2815    6.1913   -2.0473 N   0  0  0  0  0  0  0  0  0  0  0  0
   11.0752    4.8716    1.0432 C   0  0  0  0  0  0  0  0  0  0  0  0
   10.2055    5.8673    0.9418 C   0  0  0  0  0  0  0  0  0  0  0  0
    8.7242    5.6244    1.1380 C   0  0  0  0  0  0  0  0  0  0  0  0
   10.7954    7.1853    0.5048 C   0  0  0  0  0  0  0  0  0  0  0  0
   11.2268    9.0552   -0.7238 C   0  0  0  0  0  0  0  0  0  0  0  0
   10.5986    9.4634   -2.8235 C   0  0  0  0  0  0  0  0  0  0  0  0
    7.8460    6.1521   -1.9269 C   0  0  0  0  0  0  0  0  0  0  0  0
    6.0687    5.4094   -3.4441 C   0  0  0  0  0  0  0  0  0  0  0  0
    6.4115    4.2147   -5.5677 C   0  0  0  0  0  0  0  0  0  0  0  0
    8.3414    4.4133    1.4829 C   0  0  0  0  0  0  0  0  0  0  0  0
    9.9426    7.4619   -1.9352 C   0  0  0  0  0  0  0  0  0  0  0  0
   11.4897    7.8932    1.4386 C   0  0  0  0  0  0  0  0  0  0  0  0
    7.3473    5.4721   -3.1979 C   0  0  0  0  0  0  0  0  0  0  0  0
    5.5567    4.7406   -4.7158 C   0  0  0  0  0  0  0  0  0  0  0  0
    7.9069    4.2773   -5.2829 C   0  0  0  0  0  0  0  0  0  0  0  0
    8.3487    4.8521   -4.1774 C   0  0  0  0  0  0  0  0  0  0  0  0
    9.3336    3.2703    1.6225 C   0  0  0  0  0  0  0  0  0  0  0  0
   10.6235    3.4658    1.4206 C   0  0  0  0  0  0  0  0  0  0  0  0
   10.5835    7.8068   -0.7673 C   0  0  0  0  0  0  0  0  0  0  0  0
    9.9512    8.2950   -2.9777 N   0  0  0  0  0  0  0  0  0  0  0  0
    4.1750    4.6930   -4.9688 O   0  0  0  0  0  0  0  0  0  0  0  0
   12.0429    9.4432    0.8220 S   0  0  0  0  0  0  0  0  0  0  0  0
   10.6248   10.6250   -4.1768 Cl  0  0  0  0  0  0  0  0  0  0  0  0
    9.8207    5.3289   -2.2097 H   0  0  0  0  0  0  0  0  0  0  0  0
   12.1412    5.0635    0.8516 H   0  0  0  0  0  0  0  0  0  0  0  0
    7.9922    6.4332    0.9970 H   0  0  0  0  0  0  0  0  0  0  0  0
    7.5505    5.5725   -1.0399 H   0  0  0  0  0  0  0  0  0  0  0  0
    7.4193    7.1591   -1.8093 H   0  0  0  0  0  0  0  0  0  0  0  0
    5.3535    5.8423   -2.7292 H   0  0  0  0  0  0  0  0  0  0  0  0
    6.0462    3.7300   -6.4852 H   0  0  0  0  0  0  0  0  0  0  0  0
    7.2751    4.2233    1.6752 H   0  0  0  0  0  0  0  0  0  0  0  0
   11.6820    7.5358    2.4609 H   0  0  0  0  0  0  0  0  0  0  0  0
    8.6205    3.8432   -5.9986 H   0  0  0  0  0  0  0  0  0  0  0  0
    9.4270    4.8849   -3.9625 H   0  0  0  0  0  0  0  0  0  0  0  0
    8.9723    2.2677    1.8951 H   0  0  0  0  0  0  0  0  0  0  0  0
   11.3467    2.6431    1.5212 H   0  0  0  0  0  0  0  0  0  0  0  0
    3.8373    4.2602   -5.7926 H   0  0  0  0  0  0  0  0  0  0  0  0
  1  7  2  0
  1  8  1  0
  2  9  1  0
  2 13  1  0
  3  4  2  0
  3 20  1  0
  4  5  1  0
  4  6  1  0
  5 12  2  0
  6 14  2  0
  6 21  1  0
  7 21  1  0
  7 24  1  0
  8 22  2  0
  8 25  1  0
  9 15  1  0
 10 15  2  0
 10 16  1  0
 11 16  2  0
 11 17  1  0
 12 19  1  0
 13 21  2  0
 13 22  1  0
 14 24  1  0
 15 18  1  0
 16 23  1  0
 17 18  2  0
 19 20  2  0
  2 26  1  0
  3 27  1  0
  5 28  1  0
  9 29  1  0
  9 30  1  0
 10 31  1  0
 11 32  1  0
 12 33  1  0
 14 34  1  0
 17 35  1  0
 18 36  1  0
 19 37  1  0
 20 38  1  0
 23 39  1  0
M  END
>  <filename_input>  (21) 
7SFO_98L_docked.sdf

>  <pdb_id>  (21) 
7SFO_98L

>  <pose_rank>  (21) 
20

>  <num_atoms_heavy>  (21) 
25

>  <num_torsions>  (21) 
4

>  <pose>  (21) 
[11.242922361505242, 9.873802721599608, -1.7329434825026149, 0.8009738284739143, -4.084141565574448, 0.9521333724851124, -9.562327307316034, -1.5629792861955871, -1.832528381383421, -6.569634680642243]

>  <energy>  (21) 
-75.46638114010226

>  <inter_energy>  (21) 
-108.42663026533548

>  <intra_energy>  (21) 
15.086168625058734

>  <rmsd>  (21) 
9.3946

>  <sdf_rank>  (21) 
0

$$$$

     RDKit          3D

 39 42  0  0  0  0  0  0  0  0999 V2000
   -1.4477   13.3299   -8.7328 N   0  0  0  0  0  0  0  0  0  0  0  0
   -1.2185   10.8893  -12.1236 N   0  0  0  0  0  0  0  0  0  0  0  0
   -4.8507   11.2208  -12.6396 C   0  0  0  0  0  0  0  0  0  0  0  0
   -4.3069   10.5537  -11.6311 C   0  0  0  0  0  0  0  0  0  0  0  0
   -4.2975    9.0399  -11.6198 C   0  0  0  0  0  0  0  0  0  0  0  0
   -3.8322   11.4105  -10.4836 C   0  0  0  0  0  0  0  0  0  0  0  0
   -2.5116   12.7319   -9.1791 C   0  0  0  0  0  0  0  0  0  0  0  0
   -0.3299   13.1189   -9.4248 C   0  0  0  0  0  0  0  0  0  0  0  0
   -0.3990    9.7062  -12.0493 C   0  0  0  0  0  0  0  0  0  0  0  0
   -1.5887    8.7548  -13.9706 C   0  0  0  0  0  0  0  0  0  0  0  0
   -0.5371    7.9467  -16.0432 C   0  0  0  0  0  0  0  0  0  0  0  0
   -4.7788    8.4154  -12.6736 C   0  0  0  0  0  0  0  0  0  0  0  0
   -1.2994   11.7387  -10.9678 C   0  0  0  0  0  0  0  0  0  0  0  0
   -4.7762   11.8447   -9.6030 C   0  0  0  0  0  0  0  0  0  0  0  0
   -0.4442    9.0890  -13.4433 C   0  0  0  0  0  0  0  0  0  0  0  0
   -1.6494    8.1452  -15.3675 C   0  0  0  0  0  0  0  0  0  0  0  0
    0.8046    8.3276  -15.4304 C   0  0  0  0  0  0  0  0  0  0  0  0
    0.8560    8.8504  -14.2172 C   0  0  0  0  0  0  0  0  0  0  0  0
   -5.3848    9.1723  -13.8442 C   0  0  0  0  0  0  0  0  0  0  0  0
   -5.4273   10.4918  -13.8474 C   0  0  0  0  0  0  0  0  0  0  0  0
   -2.4987   11.9025  -10.3132 C   0  0  0  0  0  0  0  0  0  0  0  0
   -0.2004   12.3489  -10.5196 N   0  0  0  0  0  0  0  0  0  0  0  0
   -2.8938    7.8018  -15.9231 O   0  0  0  0  0  0  0  0  0  0  0  0
   -4.1010   12.9021   -8.3722 S   0  0  0  0  0  0  0  0  0  0  0  0
    1.1015   13.9755   -8.7934 Cl  0  0  0  0  0  0  0  0  0  0  0  0
   -1.7339   11.1203  -12.9849 H   0  0  0  0  0  0  0  0  0  0  0  0
   -4.8863   12.3197  -12.6039 H   0  0  0  0  0  0  0  0  0  0  0  0
   -3.9015    8.4805  -10.7594 H   0  0  0  0  0  0  0  0  0  0  0  0
    0.6341    9.9708  -11.7797 H   0  0  0  0  0  0  0  0  0  0  0  0
   -0.7620    9.0066  -11.2819 H   0  0  0  0  0  0  0  0  0  0  0  0
   -2.5178    8.9136  -13.4036 H   0  0  0  0  0  0  0  0  0  0  0  0
   -0.5766    7.5059  -17.0502 H   0  0  0  0  0  0  0  0  0  0  0  0
   -4.7414    7.3165  -12.7082 H   0  0  0  0  0  0  0  0  0  0  0  0
   -5.8389   11.5657   -9.6561 H   0  0  0  0  0  0  0  0  0  0  0  0
    1.7328    8.1673  -15.9986 H   0  0  0  0  0  0  0  0  0  0  0  0
    1.8250    9.1121  -13.7670 H   0  0  0  0  0  0  0  0  0  0  0  0
   -5.7931    8.6137  -14.6993 H   0  0  0  0  0  0  0  0  0  0  0  0
   -5.8635   11.0454  -14.6919 H   0  0  0  0  0  0  0  0  0  0  0  0
   -2.9390    7.4059  -16.8293 H   0  0  0  0  0  0  0  0  0  0  0  0
  1  7  2  0
  1  8  1  0
  2  9  1  0
  2 13  1  0
  3  4  2  0
  3 20  1  0
  4  5  1  0
  4  6  1  0
  5 12  2  0
  6 14  2  0
  6 21  1  0
  7 21  1  0
  7 24  1  0
  8 22  2  0
  8 25  1  0
  9 15  1  0
 10 15  2  0
 10 16  1  0
 11 16  2  0
 11 17  1  0
 12 19  1  0
 13 21  2  0
 13 22  1  0
 14 24  1  0
 15 18  1  0
 16 23  1  0
 17 18  2  0
 19 20  2  0
  2 26  1  0
  3 27  1  0
  5 28  1  0
  9 29  1  0
  9 30  1  0
 10 31  1  0
 11 32  1  0
 12 33  1  0
 14 34  1  0
 17 35  1  0
 18 36  1  0
 19 37  1  0
 20 38  1  0
 23 39  1  0
M  END
>  <filename_input>  (22) 
7SFO_98L_docked.sdf

>  <pdb_id>  (22) 
7SFO_98L

>  <pose_rank>  (22) 
21

>  <num_atoms_heavy>  (22) 
25

>  <num_torsions>  (22) 
4

>  <pose>  (22) 
[-1.4476769212462182, 13.329937282906243, -8.732804831402445, 0.53618513813078, 0.4157825690695479, -0.49834948149863884, -0.5531152516864376, 0.9169814792901029, -0.7981884954343625, 1.7249289873760618]

>  <energy>  (22) 
-120.31283363782076

>  <inter_energy>  (22) 
-120.98951897374658

>  <intra_energy>  (22) 
5.037062164127563

>  <rmsd>  (22) 
10.8016

>  <sdf_rank>  (22) 
0

$$$$

     RDKit          3D

 39 42  0  0  0  0  0  0  0  0999 V2000
   -3.7704    7.9601  -15.8127 N   0  0  0  0  0  0  0  0  0  0  0  0
   -3.8285    9.4703  -11.9110 N   0  0  0  0  0  0  0  0  0  0  0  0
   -0.3046   10.9724  -12.5021 C   0  0  0  0  0  0  0  0  0  0  0  0
   -0.7259    9.7230  -12.3622 C   0  0  0  0  0  0  0  0  0  0  0  0
   -0.5679    8.9957  -11.0439 C   0  0  0  0  0  0  0  0  0  0  0  0
   -1.2403    9.0797  -13.6262 C   0  0  0  0  0  0  0  0  0  0  0  0
   -2.6620    8.3131  -15.2334 C   0  0  0  0  0  0  0  0  0  0  0  0
   -4.8791    8.1254  -15.0941 C   0  0  0  0  0  0  0  0  0  0  0  0
   -4.1653   10.8560  -11.7034 C   0  0  0  0  0  0  0  0  0  0  0  0
   -3.8742   10.0882   -9.3930 C   0  0  0  0  0  0  0  0  0  0  0  0
   -4.5673   11.3227   -7.3805 C   0  0  0  0  0  0  0  0  0  0  0  0
   -0.0684    9.6676  -10.0284 C   0  0  0  0  0  0  0  0  0  0  0  0
   -3.8107    8.9650  -13.2558 C   0  0  0  0  0  0  0  0  0  0  0  0
   -0.3295    8.8242  -14.6061 C   0  0  0  0  0  0  0  0  0  0  0  0
   -4.3097   11.0201  -10.1938 C   0  0  0  0  0  0  0  0  0  0  0  0
   -4.0037   10.2434   -7.8811 C   0  0  0  0  0  0  0  0  0  0  0  0
   -5.0856   12.4124   -8.3105 C   0  0  0  0  0  0  0  0  0  0  0  0
   -4.9779   12.2737   -9.6208 C   0  0  0  0  0  0  0  0  0  0  0  0
    0.3977   11.1072  -10.1736 C   0  0  0  0  0  0  0  0  0  0  0  0
    0.2943   11.7384  -11.3285 C   0  0  0  0  0  0  0  0  0  0  0  0
   -2.6172    8.8287  -13.9271 C   0  0  0  0  0  0  0  0  0  0  0  0
   -4.9555    8.6072  -13.8410 N   0  0  0  0  0  0  0  0  0  0  0  0
   -3.5179    9.2327   -7.0340 O   0  0  0  0  0  0  0  0  0  0  0  0
   -1.0765    8.1590  -16.0511 S   0  0  0  0  0  0  0  0  0  0  0  0
   -6.3797    7.6509  -15.9333 Cl  0  0  0  0  0  0  0  0  0  0  0  0
   -3.6058    8.8567  -11.1143 H   0  0  0  0  0  0  0  0  0  0  0  0
   -0.3887   11.4645  -13.4822 H   0  0  0  0  0  0  0  0  0  0  0  0
   -0.8609    7.9408  -10.9383 H   0  0  0  0  0  0  0  0  0  0  0  0
   -3.3655   11.5072  -12.0858 H   0  0  0  0  0  0  0  0  0  0  0  0
   -5.0878   11.1350  -12.2336 H   0  0  0  0  0  0  0  0  0  0  0  0
   -3.4097    9.1828   -9.8108 H   0  0  0  0  0  0  0  0  0  0  0  0
   -4.6641   11.4376   -6.2908 H   0  0  0  0  0  0  0  0  0  0  0  0
    0.0141    9.1743   -9.0487 H   0  0  0  0  0  0  0  0  0  0  0  0
    0.7495    9.0127  -14.5047 H   0  0  0  0  0  0  0  0  0  0  0  0
   -5.5505   13.3166   -7.8908 H   0  0  0  0  0  0  0  0  0  0  0  0
   -5.3652   13.0524  -10.2943 H   0  0  0  0  0  0  0  0  0  0  0  0
    0.8264   11.6294   -9.3056 H   0  0  0  0  0  0  0  0  0  0  0  0
    0.6286   12.7805  -11.4397 H   0  0  0  0  0  0  0  0  0  0  0  0
   -3.5994    9.3283   -6.0520 H   0  0  0  0  0  0  0  0  0  0  0  0
  1  7  2  0
  1  8  1  0
  2  9  1  0
  2 13  1  0
  3  4  2  0
  3 20  1  0
  4  5  1  0
  4  6  1  0
  5 12  2  0
  6 14  2  0
  6 21  1  0
  7 21  1  0
  7 24  1  0
  8 22  2  0
  8 25  1  0
  9 15  1  0
 10 15  2  0
 10 16  1  0
 11 16  2  0
 11 17  1  0
 12 19  1  0
 13 21  2  0
 13 22  1  0
 14 24  1  0
 15 18  1  0
 16 23  1  0
 17 18  2  0
 19 20  2  0
  2 26  1  0
  3 27  1  0
  5 28  1  0
  9 29  1  0
  9 30  1  0
 10 31  1  0
 11 32  1  0
 12 33  1  0
 14 34  1  0
 17 35  1  0
 18 36  1  0
 19 37  1  0
 20 38  1  0
 23 39  1  0
M  END
>  <filename_input>  (23) 
7SFO_98L_docked.sdf

>  <pdb_id>  (23) 
7SFO_98L

>  <pose_rank>  (23) 
22

>  <num_atoms_heavy>  (23) 
25

>  <num_torsions>  (23) 
4

>  <pose>  (23) 
[-3.7704053057602733, 7.960094827060817, -15.812692902296824, -0.9603688417728551, 2.3700813454382956, -2.600137972218742, -7.04139825812842, -58.1540413016877, -32.43291904887218, 2.9744413657690942]

>  <energy>  (23) 
-151.1619112374778

>  <inter_energy>  (23) 
-139.51083951974593

>  <intra_energy>  (23) 
3.0009440164522196

>  <rmsd>  (23) 
12.1654

>  <sdf_rank>  (23) 
0

$$$$

     RDKit          3D

 39 42  0  0  0  0  0  0  0  0999 V2000
   -0.2579   10.2102  -10.2564 N   0  0  0  0  0  0  0  0  0  0  0  0
   -1.8836   10.6413  -14.0876 N   0  0  0  0  0  0  0  0  0  0  0  0
   -5.0786    9.2563  -13.0750 C   0  0  0  0  0  0  0  0  0  0  0  0
   -4.6157   10.3826  -12.5506 C   0  0  0  0  0  0  0  0  0  0  0  0
   -5.0472   11.7263  -13.0982 C   0  0  0  0  0  0  0  0  0  0  0  0
   -3.5637   10.2027  -11.4842 C   0  0  0  0  0  0  0  0  0  0  0  0
   -1.5459   10.1748  -10.4262 C   0  0  0  0  0  0  0  0  0  0  0  0
    0.4675   10.4002  -11.3566 C   0  0  0  0  0  0  0  0  0  0  0  0
   -1.0279   10.4038  -15.2226 C   0  0  0  0  0  0  0  0  0  0  0  0
   -2.2718    8.3076  -15.4882 C   0  0  0  0  0  0  0  0  0  0  0  0
   -1.2807    6.1152  -16.0037 C   0  0  0  0  0  0  0  0  0  0  0  0
   -5.9481   11.7373  -14.0576 C   0  0  0  0  0  0  0  0  0  0  0  0
   -1.3255   10.5076  -12.7706 C   0  0  0  0  0  0  0  0  0  0  0  0
   -4.0007   10.0341  -10.2053 C   0  0  0  0  0  0  0  0  0  0  0  0
   -1.1132    8.9051  -15.4927 C   0  0  0  0  0  0  0  0  0  0  0  0
   -2.3726    6.8111  -15.7659 C   0  0  0  0  0  0  0  0  0  0  0  0
    0.0776    6.8052  -16.0029 C   0  0  0  0  0  0  0  0  0  0  0  0
    0.1638    8.1012  -15.7562 C   0  0  0  0  0  0  0  0  0  0  0  0
   -6.5006   10.4514  -14.6506 C   0  0  0  0  0  0  0  0  0  0  0  0
   -6.1049    9.2747  -14.2017 C   0  0  0  0  0  0  0  0  0  0  0  0
   -2.1511   10.3159  -11.6864 C   0  0  0  0  0  0  0  0  0  0  0  0
   -0.0015   10.5471  -12.6083 N   0  0  0  0  0  0  0  0  0  0  0  0
   -3.6320    6.1873  -15.7677 O   0  0  0  0  0  0  0  0  0  0  0  0
   -2.6738    9.9264   -9.0579 S   0  0  0  0  0  0  0  0  0  0  0  0
    2.2279   10.4656  -11.0774 Cl  0  0  0  0  0  0  0  0  0  0  0  0
   -2.8719   10.9007  -14.2176 H   0  0  0  0  0  0  0  0  0  0  0  0
   -4.7157    8.2918  -12.6903 H   0  0  0  0  0  0  0  0  0  0  0  0
   -4.6220   12.6624  -12.7072 H   0  0  0  0  0  0  0  0  0  0  0  0
   -1.3811   10.9723  -16.0956 H   0  0  0  0  0  0  0  0  0  0  0  0
    0.0061   10.7245  -15.0274 H   0  0  0  0  0  0  0  0  0  0  0  0
   -3.1838    8.8871  -15.2824 H   0  0  0  0  0  0  0  0  0  0  0  0
   -1.3490    5.0355  -16.2028 H   0  0  0  0  0  0  0  0  0  0  0  0
   -6.3108   12.7026  -14.4405 H   0  0  0  0  0  0  0  0  0  0  0  0
   -5.0621    9.9725   -9.9230 H   0  0  0  0  0  0  0  0  0  0  0  0
    0.9886    6.2239  -16.2081 H   0  0  0  0  0  0  0  0  0  0  0  0
    1.1450    8.5983  -15.7402 H   0  0  0  0  0  0  0  0  0  0  0  0
   -7.2395   10.5019  -15.4640 H   0  0  0  0  0  0  0  0  0  0  0  0
   -6.5018    8.3405  -14.6257 H   0  0  0  0  0  0  0  0  0  0  0  0
   -3.7032    5.2163  -15.9473 H   0  0  0  0  0  0  0  0  0  0  0  0
  1  7  2  0
  1  8  1  0
  2  9  1  0
  2 13  1  0
  3  4  2  0
  3 20  1  0
  4  5  1  0
  4  6  1  0
  5 12  2  0
  6 14  2  0
  6 21  1  0
  7 21  1  0
  7 24  1  0
  8 22  2  0
  8 25  1  0
  9 15  1  0
 10 15  2  0
 10 16  1  0
 11 16  2  0
 11 17  1  0
 12 19  1  0
 13 21  2  0
 13 22  1  0
 14 24  1  0
 15 18  1  0
 16 23  1  0
 17 18  2  0
 19 20  2  0
  2 26  1  0
  3 27  1  0
  5 28  1  0
  9 29  1  0
  9 30  1  0
 10 31  1  0
 11 32  1  0
 12 33  1  0
 14 34  1  0
 17 35  1  0
 18 36  1  0
 19 37  1  0
 20 38  1  0
 23 39  1  0
M  END
>  <filename_input>  (24) 
7SFO_98L_docked.sdf

>  <pdb_id>  (24) 
7SFO_98L

>  <pose_rank>  (24) 
23

>  <num_atoms_heavy>  (24) 
25

>  <num_torsions>  (24) 
4

>  <pose>  (24) 
[-0.25793521742748626, 10.21015309899791, -10.25642957313499, -3.2643785839047634, -2.572917423112469, 2.010016816593857, -3.467979312919232, 0.14348343056552176, 3.804087820840052, -2.7603481172261675]

>  <energy>  (24) 
-131.3319057744166

>  <inter_energy>  (24) 
-138.9040692490774

>  <intra_energy>  (24) 
3.6586979846685392

>  <rmsd>  (24) 
11.3784

>  <sdf_rank>  (24) 
0

$$$$

     RDKit          3D

 39 42  0  0  0  0  0  0  0  0999 V2000
    5.8151   -2.8236    0.5536 N   0  0  0  0  0  0  0  0  0  0  0  0
    9.3878   -1.4859    2.2720 N   0  0  0  0  0  0  0  0  0  0  0  0
   10.3770   -4.8396    3.2416 C   0  0  0  0  0  0  0  0  0  0  0  0
   10.2269   -4.5020    1.9682 C   0  0  0  0  0  0  0  0  0  0  0  0
   11.4176   -4.0807    1.1336 C   0  0  0  0  0  0  0  0  0  0  0  0
    8.7982   -4.4569    1.4860 C   0  0  0  0  0  0  0  0  0  0  0  0
    6.7798   -3.6620    0.7886 C   0  0  0  0  0  0  0  0  0  0  0  0
    6.0558   -1.5555    0.8803 C   0  0  0  0  0  0  0  0  0  0  0  0
    9.3751   -0.2330    2.9839 C   0  0  0  0  0  0  0  0  0  0  0  0
   11.3939    0.1701    1.6520 C   0  0  0  0  0  0  0  0  0  0  0  0
   13.3350    1.5014    2.3692 C   0  0  0  0  0  0  0  0  0  0  0  0
   12.6080   -4.1323    1.6926 C   0  0  0  0  0  0  0  0  0  0  0  0
    8.1663   -1.9421    1.6689 C   0  0  0  0  0  0  0  0  0  0  0  0
    8.2635   -5.6213    1.0238 C   0  0  0  0  0  0  0  0  0  0  0  0
   10.7595    0.3715    2.7729 C   0  0  0  0  0  0  0  0  0  0  0  0
   12.7749    0.7763    1.4239 C   0  0  0  0  0  0  0  0  0  0  0  0
   12.6029    1.7346    3.6848 C   0  0  0  0  0  0  0  0  0  0  0  0
   11.4085    1.2036    3.8832 C   0  0  0  0  0  0  0  0  0  0  0  0
   12.7922   -4.5388    3.1456 C   0  0  0  0  0  0  0  0  0  0  0  0
   11.7556   -4.8756    3.8905 C   0  0  0  0  0  0  0  0  0  0  0  0
    8.0028   -3.2733    1.3609 C   0  0  0  0  0  0  0  0  0  0  0  0
    7.1832   -1.0716    1.4308 N   0  0  0  0  0  0  0  0  0  0  0  0
   13.4380    0.5570    0.2043 O   0  0  0  0  0  0  0  0  0  0  0  0
    6.6295   -5.4064    0.4134 S   0  0  0  0  0  0  0  0  0  0  0  0
    4.7163   -0.4340    0.5205 Cl  0  0  0  0  0  0  0  0  0  0  0  0
   10.2522   -2.0411    2.1974 H   0  0  0  0  0  0  0  0  0  0  0  0
    9.4911   -5.0982    3.8401 H   0  0  0  0  0  0  0  0  0  0  0  0
   11.2920   -3.7428    0.0943 H   0  0  0  0  0  0  0  0  0  0  0  0
    8.5994    0.4323    2.5769 H   0  0  0  0  0  0  0  0  0  0  0  0
    9.1501   -0.3731    4.0515 H   0  0  0  0  0  0  0  0  0  0  0  0
   10.9297   -0.4417    0.8645 H   0  0  0  0  0  0  0  0  0  0  0  0
   14.3315    1.9390    2.2092 H   0  0  0  0  0  0  0  0  0  0  0  0
   13.4930   -3.8744    1.0924 H   0  0  0  0  0  0  0  0  0  0  0  0
    8.7933   -6.5852    1.0318 H   0  0  0  0  0  0  0  0  0  0  0  0
   13.0691    2.3461    4.4713 H   0  0  0  0  0  0  0  0  0  0  0  0
   10.8849    1.3582    4.8381 H   0  0  0  0  0  0  0  0  0  0  0  0
   13.8019   -4.5524    3.5820 H   0  0  0  0  0  0  0  0  0  0  0  0
   11.8824   -5.1719    4.9422 H   0  0  0  0  0  0  0  0  0  0  0  0
   14.3345    0.9481    0.0509 H   0  0  0  0  0  0  0  0  0  0  0  0
  1  7  2  0
  1  8  1  0
  2  9  1  0
  2 13  1  0
  3  4  2  0
  3 20  1  0
  4  5  1  0
  4  6  1  0
  5 12  2  0
  6 14  2  0
  6 21  1  0
  7 21  1  0
  7 24  1  0
  8 22  2  0
  8 25  1  0
  9 15  1  0
 10 15  2  0
 10 16  1  0
 11 16  2  0
 11 17  1  0
 12 19  1  0
 13 21  2  0
 13 22  1  0
 14 24  1  0
 15 18  1  0
 16 23  1  0
 17 18  2  0
 19 20  2  0
  2 26  1  0
  3 27  1  0
  5 28  1  0
  9 29  1  0
  9 30  1  0
 10 31  1  0
 11 32  1  0
 12 33  1  0
 14 34  1  0
 17 35  1  0
 18 36  1  0
 19 37  1  0
 20 38  1  0
 23 39  1  0
M  END
>  <filename_input>  (25) 
7SFO_98L_docked.sdf

>  <pdb_id>  (25) 
7SFO_98L

>  <pose_rank>  (25) 
24

>  <num_atoms_heavy>  (25) 
25

>  <num_torsions>  (25) 
4

>  <pose>  (25) 
[5.815115772993341, -2.8236226428595583, 0.5535721425448956, 0.7968244926670707, 2.6033066065817274, -4.091277698949574, -9.749132903331155, 6.438779873000589, 18.555778189910157, 3.317213079400439]

>  <energy>  (25) 
-110.43126692836556

>  <inter_energy>  (25) 
-115.11756860057675

>  <intra_energy>  (25) 
1.5325598088876793

>  <rmsd>  (25) 
12.7098

>  <sdf_rank>  (25) 
0

$$$$

     RDKit          3D

 39 42  0  0  0  0  0  0  0  0999 V2000
    1.1480    7.1630   -4.3160 N   0  0  0  0  0  0  0  0  0  0  0  0
    3.8290    4.1840   -5.5180 N   0  0  0  0  0  0  0  0  0  0  0  0
    1.6840    2.4500   -6.9320 C   0  0  0  0  0  0  0  0  0  0  0  0
    1.2230    2.4310   -5.6890 C   0  0  0  0  0  0  0  0  0  0  0  0
    1.0860    1.1260   -4.9340 C   0  0  0  0  0  0  0  0  0  0  0  0
    0.7480    3.7640   -5.1660 C   0  0  0  0  0  0  0  0  0  0  0  0
    0.7170    5.9660   -4.5810 C   0  0  0  0  0  0  0  0  0  0  0  0
    2.4570    7.3550   -4.4660 C   0  0  0  0  0  0  0  0  0  0  0  0
    5.2410    4.4440   -5.3940 C   0  0  0  0  0  0  0  0  0  0  0  0
    7.1090    3.7570   -6.8260 C   0  0  0  0  0  0  0  0  0  0  0  0
    6.9780    3.3610   -9.2510 C   0  0  0  0  0  0  0  0  0  0  0  0
    1.5070    0.0280   -5.5250 C   0  0  0  0  0  0  0  0  0  0  0  0
    2.9070    5.2110   -5.1190 C   0  0  0  0  0  0  0  0  0  0  0  0
   -0.5900    3.9050   -4.9540 C   0  0  0  0  0  0  0  0  0  0  0  0
    5.8460    4.0690   -6.7430 C   0  0  0  0  0  0  0  0  0  0  0  0
    7.7250    3.3710   -8.1670 C   0  0  0  0  0  0  0  0  0  0  0  0
    5.5030    3.7320   -9.1630 C   0  0  0  0  0  0  0  0  0  0  0  0
    4.9720    4.0720   -8.0010 C   0  0  0  0  0  0  0  0  0  0  0  0
    2.0570    0.0430   -6.9420 C   0  0  0  0  0  0  0  0  0  0  0  0
    2.1490    1.1720   -7.6200 C   0  0  0  0  0  0  0  0  0  0  0  0
    1.5670    4.9250   -4.9910 C   0  0  0  0  0  0  0  0  0  0  0  0
    3.3610    6.4370   -4.8510 N   0  0  0  0  0  0  0  0  0  0  0  0
    9.0860    3.0270   -8.2340 O   0  0  0  0  0  0  0  0  0  0  0  0
   -1.0130    5.5290   -4.4320 S   0  0  0  0  0  0  0  0  0  0  0  0
    3.0040    9.0160   -4.1150 Cl  0  0  0  0  0  0  0  0  0  0  0  0
    3.4889    3.2833   -5.8840 H   0  0  0  0  0  0  0  0  0  0  0  0
    1.7317    3.4048   -7.4762 H   0  0  0  0  0  0  0  0  0  0  0  0
    0.6491    1.0965   -3.9249 H   0  0  0  0  0  0  0  0  0  0  0  0
    5.4181    5.5075   -5.1759 H   0  0  0  0  0  0  0  0  0  0  0  0
    5.6907    3.8683   -4.5716 H   0  0  0  0  0  0  0  0  0  0  0  0
    7.7354    3.7722   -5.9219 H   0  0  0  0  0  0  0  0  0  0  0  0
    7.4188    3.0848  -10.2202 H   0  0  0  0  0  0  0  0  0  0  0  0
    1.4596   -0.9258   -4.9791 H   0  0  0  0  0  0  0  0  0  0  0  0
   -1.3217    3.0956   -5.0935 H   0  0  0  0  0  0  0  0  0  0  0  0
    4.8784    3.7170  -10.0684 H   0  0  0  0  0  0  0  0  0  0  0  0
    3.9109    4.3548   -7.9380 H   0  0  0  0  0  0  0  0  0  0  0  0
    2.3824   -0.8986   -7.4083 H   0  0  0  0  0  0  0  0  0  0  0  0
    2.5472    1.1897   -8.6453 H   0  0  0  0  0  0  0  0  0  0  0  0
    9.4909    2.7757   -9.1018 H   0  0  0  0  0  0  0  0  0  0  0  0
  1  7  2  0
  1  8  1  0
  2  9  1  0
  2 13  1  0
  3  4  2  0
  3 20  1  0
  4  5  1  0
  4  6  1  0
  5 12  2  0
  6 14  2  0
  6 21  1  0
  7 21  1  0
  7 24  1  0
  8 22  2  0
  8 25  1  0
  9 15  1  0
 10 15  2  0
 10 16  1  0
 11 16  2  0
 11 17  1  0
 12 19  1  0
 13 21  2  0
 13 22  1  0
 14 24  1  0
 15 18  1  0
 16 23  1  0
 17 18  2  0
 19 20  2  0
  2 26  1  0
  3 27  1  0
  5 28  1  0
  9 29  1  0
  9 30  1  0
 10 31  1  0
 11 32  1  0
 12 33  1  0
 14 34  1  0
 17 35  1  0
 18 36  1  0
 19 37  1  0
 20 38  1  0
 23 39  1  0
M  END
>  <filename_input>  (26) 
7SFO_98L_docked.sdf

>  <pdb_id>  (26) 
7SFO_98L

>  <pose_rank>  (26) 
25

>  <num_atoms_heavy>  (26) 
25

>  <num_torsions>  (26) 
4

>  <pose>  (26) 
[1.148, 7.163, -4.316, 1e-06, 1e-06, 1e-06, 0.0, 0.0, 0.0, 0.0]

>  <energy>  (26) 
-894.9583751056019

>  <inter_energy>  (26) 
-903.9583481982881

>  <intra_energy>  (26) 
13.305471904801742

>  <rmsd>  (26) 
0.0

>  <sdf_rank>  (26) 
0

$$$$
