
     RDKit          3D

 54 57  0  0  0  0  0  0  0  0999 V2000
  -33.9603    4.2115  -24.4009 N   0  0  0  0  0  0  0  0  0  0  0  0
  -31.0285    4.2971  -22.1781 N   0  0  0  0  0  0  0  0  0  0  0  0
  -33.0541    4.4124  -20.9534 C   0  0  0  0  0  0  0  0  0  0  0  0
  -31.6645    4.3359  -21.0001 C   0  0  0  0  0  0  0  0  0  0  0  0
  -31.7639    4.2887  -23.2953 C   0  0  0  0  0  0  0  0  0  0  0  0
  -30.9762    4.2395  -24.5865 C   0  0  0  0  0  0  0  0  0  0  0  0
  -30.8538    4.2325  -19.7792 C   0  0  0  0  0  0  0  0  0  0  0  0
  -30.6039    4.4543  -17.2722 C   0  0  0  0  0  0  0  0  0  0  0  0
  -29.3897    3.8920  -19.9494 C   0  0  0  0  0  0  0  0  0  0  0  0
  -24.9240    3.3726  -18.2140 C   0  0  0  0  0  0  0  0  0  0  0  0
  -23.3543    2.2999  -19.6943 C   0  0  0  0  0  0  0  0  0  0  0  0
  -24.0242    3.1971  -17.1672 C   0  0  0  0  0  0  0  0  0  0  0  0
  -36.0061    4.3131  -25.7291 C   0  0  0  0  0  0  0  0  0  0  0  0
  -26.4624    4.6585  -16.9428 O   0  0  0  0  0  0  0  0  0  0  0  0
  -26.2603    3.9811  -17.9470 C   0  0  0  0  0  0  0  0  0  0  0  0
  -22.8160    2.5592  -17.3834 C   0  0  0  0  0  0  0  0  0  0  0  0
  -22.4828    2.1050  -18.6439 C   0  0  0  0  0  0  0  0  0  0  0  0
  -24.5707    2.9277  -19.4864 C   0  0  0  0  0  0  0  0  0  0  0  0
  -27.2212    3.7304  -18.8443 N   0  0  0  0  0  0  0  0  0  0  0  0
  -28.5625    4.2941  -18.7279 C   0  0  2  0  0  0  0  0  0  0  0  0
  -29.2376    3.7995  -17.4569 C   0  0  0  0  0  0  0  0  0  0  0  0
  -31.3979    4.4470  -18.5470 C   0  0  0  0  0  0  0  0  0  0  0  0
  -33.8081    4.3986  -22.0625 N   0  0  0  0  0  0  0  0  0  0  0  0
  -29.6616    4.0225  -24.4661 N   0  0  0  0  0  0  0  0  0  0  0  0
  -31.5416    4.3622  -25.6968 O   0  0  0  0  0  0  0  0  0  0  0  0
  -33.1732    4.3182  -23.2473 C   0  0  0  0  0  0  0  0  0  0  0  0
  -35.3593    4.2333  -24.4905 C   0  0  0  0  0  0  0  0  0  0  0  0
  -36.3401    4.2826  -23.5455 C   0  0  0  0  0  0  0  0  0  0  0  0
  -37.3154    4.4252  -25.5680 N   0  0  0  0  0  0  0  0  0  0  0  0
  -37.4973    4.4005  -24.2056 N   0  0  0  0  0  0  0  0  0  0  0  0
  -38.8386    4.4788  -23.6407 C   0  0  0  0  0  0  0  0  0  0  0  0
  -33.4505    4.1041  -25.2895 H   0  0  0  0  0  0  0  0  0  0  0  0
  -33.5499    4.4865  -19.9743 H   0  0  0  0  0  0  0  0  0  0  0  0
  -31.1622    3.9037  -16.5008 H   0  0  0  0  0  0  0  0  0  0  0  0
  -30.4459    5.5006  -16.9716 H   0  0  0  0  0  0  0  0  0  0  0  0
  -29.2928    2.8071  -20.1024 H   0  0  0  0  0  0  0  0  0  0  0  0
  -29.0093    4.4517  -20.8166 H   0  0  0  0  0  0  0  0  0  0  0  0
  -23.0819    1.9548  -20.7026 H   0  0  0  0  0  0  0  0  0  0  0  0
  -24.2750    3.5677  -16.1623 H   0  0  0  0  0  0  0  0  0  0  0  0
  -35.4962    4.2864  -26.7034 H   0  0  0  0  0  0  0  0  0  0  0  0
  -22.1170    2.4130  -16.5467 H   0  0  0  0  0  0  0  0  0  0  0  0
  -21.5253    1.5895  -18.8095 H   0  0  0  0  0  0  0  0  0  0  0  0
  -25.2614    3.0761  -20.3296 H   0  0  0  0  0  0  0  0  0  0  0  0
  -27.0068    3.1185  -19.6447 H   0  0  0  0  0  0  0  0  0  0  0  0
  -28.4886    5.3905  -18.6789 H   0  0  0  0  0  0  0  0  0  0  0  0
  -28.6018    4.0442  -16.5933 H   0  0  0  0  0  0  0  0  0  0  0  0
  -29.3786    2.7114  -17.5359 H   0  0  0  0  0  0  0  0  0  0  0  0
  -32.4816    4.6250  -18.4832 H   0  0  0  0  0  0  0  0  0  0  0  0
  -29.0680    3.9776  -25.3067 H   0  0  0  0  0  0  0  0  0  0  0  0
  -29.2431    3.9005  -23.5329 H   0  0  0  0  0  0  0  0  0  0  0  0
  -36.2063    4.2347  -22.4547 H   0  0  0  0  0  0  0  0  0  0  0  0
  -38.7748    4.4751  -22.5426 H   0  0  0  0  0  0  0  0  0  0  0  0
  -39.3243    5.4068  -23.9767 H   0  0  0  0  0  0  0  0  0  0  0  0
  -39.4290    3.6136  -23.9767 H   0  0  0  0  0  0  0  0  0  0  0  0
  1 26  1  0
  1 27  1  0
  2  4  2  0
  2  5  1  0
  3  4  1  0
  3 23  2  0
  4  7  1  0
  5  6  1  0
  5 26  2  0
  6 24  1  0
  6 25  2  0
  7  9  1  0
  7 22  2  0
  8 21  1  0
  8 22  1  0
  9 20  1  0
 10 12  1  0
 10 15  1  0
 10 18  2  0
 11 17  2  0
 11 18  1  0
 12 16  2  0
 13 27  1  0
 13 29  2  0
 14 15  2  0
 15 19  1  0
 16 17  1  0
 20 19  1  0
 20 21  1  0
 23 26  1  0
 27 28  2  0
 28 30  1  0
 29 30  1  0
 30 31  1  0
  1 32  1  0
  3 33  1  0
  8 34  1  0
  8 35  1  0
  9 36  1  0
  9 37  1  0
 11 38  1  0
 12 39  1  0
 13 40  1  0
 16 41  1  0
 17 42  1  0
 18 43  1  0
 19 44  1  0
 20 45  1  1
 21 46  1  0
 21 47  1  0
 22 48  1  0
 24 49  1  0
 24 50  1  0
 28 51  1  0
 31 52  1  0
 31 53  1  0
 31 54  1  0
M  END
>  <filename_input>  (1) 
7SIU_9ID_docked.sdf

>  <pdb_id>  (1) 
7SIU_9ID

>  <pose_rank>  (1) 
0

>  <num_atoms_heavy>  (1) 
31

>  <num_torsions>  (1) 
6

>  <pose>  (1) 
[-31.0284566511764, 4.297102301361629, -22.17809014733957, 4.865892094599381, 1.5009010127627813, 3.508534342436595, 0.07889261787150617, 0.46437628868947345, 6.006293600319601, 6.363802097336944, -0.0021636232768286606, -0.025252440241210983]

>  <energy>  (1) 
-1739.282165902947

>  <inter_energy>  (1) 
-1813.7941435859618

>  <intra_energy>  (1) 
47.11063744088115

>  <rmsd>  (1) 
0.408416

>  <sdf_rank>  (1) 
0

$$$$

     RDKit          3D

 54 57  0  0  0  0  0  0  0  0999 V2000
  -34.1542    4.4113  -24.2498 N   0  0  0  0  0  0  0  0  0  0  0  0
  -31.2078    4.3836  -22.0449 N   0  0  0  0  0  0  0  0  0  0  0  0
  -33.2245    4.4709  -20.8032 C   0  0  0  0  0  0  0  0  0  0  0  0
  -31.8360    4.3830  -20.8621 C   0  0  0  0  0  0  0  0  0  0  0  0
  -31.9503    4.4251  -23.1566 C   0  0  0  0  0  0  0  0  0  0  0  0
  -31.1713    4.4181  -24.4540 C   0  0  0  0  0  0  0  0  0  0  0  0
  -31.0187    4.2251  -19.6514 C   0  0  0  0  0  0  0  0  0  0  0  0
  -28.7913    4.3595  -18.4609 C   0  0  0  0  0  0  0  0  0  0  0  0
  -31.6944    3.6322  -18.4348 C   0  0  0  0  0  0  0  0  0  0  0  0
  -32.8912    1.5103  -14.7799 C   0  0  0  0  0  0  0  0  0  0  0  0
  -32.8016    0.8633  -12.4605 C   0  0  0  0  0  0  0  0  0  0  0  0
  -34.2682    1.6708  -14.6599 C   0  0  0  0  0  0  0  0  0  0  0  0
  -36.2400    4.5238  -25.5133 C   0  0  0  0  0  0  0  0  0  0  0  0
  -32.4730    0.9675  -17.0529 O   0  0  0  0  0  0  0  0  0  0  0  0
  -32.2355    1.7116  -16.1053 C   0  0  0  0  0  0  0  0  0  0  0  0
  -34.9008    1.4066  -13.4584 C   0  0  0  0  0  0  0  0  0  0  0  0
  -34.1702    0.9972  -12.3608 C   0  0  0  0  0  0  0  0  0  0  0  0
  -32.1601    1.1150  -13.6614 C   0  0  0  0  0  0  0  0  0  0  0  0
  -31.3664    2.7257  -16.1942 N   0  0  0  0  0  0  0  0  0  0  0  0
  -30.6837    3.0599  -17.4403 C   0  0  2  0  0  0  0  0  0  0  0  0
  -29.5764    4.0717  -17.1839 C   0  0  0  0  0  0  0  0  0  0  0  0
  -29.7037    4.5870  -19.6319 C   0  0  0  0  0  0  0  0  0  0  0  0
  -33.9855    4.5069  -21.9070 N   0  0  0  0  0  0  0  0  0  0  0  0
  -29.8427    4.3082  -24.3422 N   0  0  0  0  0  0  0  0  0  0  0  0
  -31.7532    4.4779  -25.5609 O   0  0  0  0  0  0  0  0  0  0  0  0
  -33.3589    4.4661  -23.0982 C   0  0  0  0  0  0  0  0  0  0  0  0
  -35.5466    4.2660  -24.3251 C   0  0  0  0  0  0  0  0  0  0  0  0
  -36.4929    3.9801  -23.3869 C   0  0  0  0  0  0  0  0  0  0  0  0
  -37.5467    4.4237  -25.3247 N   0  0  0  0  0  0  0  0  0  0  0  0
  -37.6774    4.0826  -23.9994 N   0  0  0  0  0  0  0  0  0  0  0  0
  -38.9978    3.8587  -23.4240 C   0  0  0  0  0  0  0  0  0  0  0  0
  -33.6568    4.4868  -25.1486 H   0  0  0  0  0  0  0  0  0  0  0  0
  -33.7134    4.5120  -19.8187 H   0  0  0  0  0  0  0  0  0  0  0  0
  -28.1770    5.2590  -18.3071 H   0  0  0  0  0  0  0  0  0  0  0  0
  -28.1606    3.4856  -18.6810 H   0  0  0  0  0  0  0  0  0  0  0  0
  -32.2788    4.4185  -17.9346 H   0  0  0  0  0  0  0  0  0  0  0  0
  -32.3418    2.8096  -18.7727 H   0  0  0  0  0  0  0  0  0  0  0  0
  -32.2165    0.5549  -11.5816 H   0  0  0  0  0  0  0  0  0  0  0  0
  -34.8569    2.0097  -15.5251 H   0  0  0  0  0  0  0  0  0  0  0  0
  -35.7644    4.7752  -26.4727 H   0  0  0  0  0  0  0  0  0  0  0  0
  -35.9915    1.5233  -13.3771 H   0  0  0  0  0  0  0  0  0  0  0  0
  -34.6783    0.7787  -11.4099 H   0  0  0  0  0  0  0  0  0  0  0  0
  -31.0682    1.0024  -13.7329 H   0  0  0  0  0  0  0  0  0  0  0  0
  -31.1726    3.2896  -15.3543 H   0  0  0  0  0  0  0  0  0  0  0  0
  -30.2325    2.1482  -17.8587 H   0  0  0  0  0  0  0  0  0  0  0  0
  -28.8909    3.6697  -16.4233 H   0  0  0  0  0  0  0  0  0  0  0  0
  -30.0328    5.0096  -16.8346 H   0  0  0  0  0  0  0  0  0  0  0  0
  -29.2873    5.0738  -20.5261 H   0  0  0  0  0  0  0  0  0  0  0  0
  -29.2539    4.2972  -25.1873 H   0  0  0  0  0  0  0  0  0  0  0  0
  -29.4085    4.2346  -23.4111 H   0  0  0  0  0  0  0  0  0  0  0  0
  -36.3171    3.7169  -22.3334 H   0  0  0  0  0  0  0  0  0  0  0  0
  -38.9263    3.8708  -22.3264 H   0  0  0  0  0  0  0  0  0  0  0  0
  -39.6819    4.6537  -23.7557 H   0  0  0  0  0  0  0  0  0  0  0  0
  -39.3816    2.8827  -23.7557 H   0  0  0  0  0  0  0  0  0  0  0  0
  1 26  1  0
  1 27  1  0
  2  4  2  0
  2  5  1  0
  3  4  1  0
  3 23  2  0
  4  7  1  0
  5  6  1  0
  5 26  2  0
  6 24  1  0
  6 25  2  0
  7  9  1  0
  7 22  2  0
  8 21  1  0
  8 22  1  0
  9 20  1  0
 10 12  1  0
 10 15  1  0
 10 18  2  0
 11 17  2  0
 11 18  1  0
 12 16  2  0
 13 27  1  0
 13 29  2  0
 14 15  2  0
 15 19  1  0
 16 17  1  0
 20 19  1  0
 20 21  1  0
 23 26  1  0
 27 28  2  0
 28 30  1  0
 29 30  1  0
 30 31  1  0
  1 32  1  0
  3 33  1  0
  8 34  1  0
  8 35  1  0
  9 36  1  0
  9 37  1  0
 11 38  1  0
 12 39  1  0
 13 40  1  0
 16 41  1  0
 17 42  1  0
 18 43  1  0
 19 44  1  0
 20 45  1  6
 21 46  1  0
 21 47  1  0
 22 48  1  0
 24 49  1  0
 24 50  1  0
 28 51  1  0
 31 52  1  0
 31 53  1  0
 31 54  1  0
M  END
>  <filename_input>  (2) 
7SIU_9ID_docked.sdf

>  <pdb_id>  (2) 
7SIU_9ID

>  <pose_rank>  (2) 
1

>  <num_atoms_heavy>  (2) 
31

>  <num_torsions>  (2) 
6

>  <pose>  (2) 
[-31.20778042870692, 4.383555529120389, -22.044869962904727, 3.145161197015179, 1.2710291994294967, 5.194579501835891, 10.107362184165632, -1.4018802791332992, -1.768636737697183, -0.023655288741284718, 6.114790101217808, -0.11196634947950065]

>  <energy>  (2) 
-1450.5511695789312

>  <inter_energy>  (2) 
-1491.5561139516983

>  <intra_energy>  (2) 
41.440409277765596

>  <rmsd>  (2) 
5.50629

>  <sdf_rank>  (2) 
0

$$$$

     RDKit          3D

 54 57  0  0  0  0  0  0  0  0999 V2000
  -34.1238    4.3263  -24.4619 N   0  0  0  0  0  0  0  0  0  0  0  0
  -31.2962    4.3738  -22.1068 N   0  0  0  0  0  0  0  0  0  0  0  0
  -33.3761    4.4341  -20.9724 C   0  0  0  0  0  0  0  0  0  0  0  0
  -31.9851    4.3719  -20.9582 C   0  0  0  0  0  0  0  0  0  0  0  0
  -31.9804    4.3915  -23.2559 C   0  0  0  0  0  0  0  0  0  0  0  0
  -31.1349    4.3876  -24.5109 C   0  0  0  0  0  0  0  0  0  0  0  0
  -31.2292    4.2402  -19.7052 C   0  0  0  0  0  0  0  0  0  0  0  0
  -29.0551    4.3566  -18.4183 C   0  0  0  0  0  0  0  0  0  0  0  0
  -31.9784    3.7200  -18.4985 C   0  0  0  0  0  0  0  0  0  0  0  0
  -33.3006    1.7019  -14.7735 C   0  0  0  0  0  0  0  0  0  0  0  0
  -33.3435    1.3208  -12.3946 C   0  0  0  0  0  0  0  0  0  0  0  0
  -34.6914    1.7443  -14.7702 C   0  0  0  0  0  0  0  0  0  0  0  0
  -36.3577    3.8122  -23.6224 C   0  0  0  0  0  0  0  0  0  0  0  0
  -32.6500    0.9548  -16.9309 O   0  0  0  0  0  0  0  0  0  0  0  0
  -32.5596    1.8194  -16.0636 C   0  0  0  0  0  0  0  0  0  0  0  0
  -35.3940    1.5533  -13.5941 C   0  0  0  0  0  0  0  0  0  0  0  0
  -34.7221    1.3355  -12.4078 C   0  0  0  0  0  0  0  0  0  0  0  0
  -32.6309    1.5003  -13.5681 C   0  0  0  0  0  0  0  0  0  0  0  0
  -31.7821    2.8991  -16.2100 N   0  0  0  0  0  0  0  0  0  0  0  0
  -31.0331    3.1596  -17.4353 C   0  0  2  0  0  0  0  0  0  0  0  0
  -29.9062    4.1470  -17.1689 C   0  0  0  0  0  0  0  0  0  0  0  0
  -29.9055    4.5623  -19.6391 C   0  0  0  0  0  0  0  0  0  0  0  0
  -34.0792    4.4459  -22.1145 N   0  0  0  0  0  0  0  0  0  0  0  0
  -29.8096    4.3869  -24.3278 N   0  0  0  0  0  0  0  0  0  0  0  0
  -31.6597    4.3526  -25.6471 O   0  0  0  0  0  0  0  0  0  0  0  0
  -33.3907    4.4064  -23.2711 C   0  0  0  0  0  0  0  0  0  0  0  0
  -35.5175    4.3320  -24.6138 C   0  0  0  0  0  0  0  0  0  0  0  0
  -36.3277    4.6904  -25.6494 C   0  0  0  0  0  0  0  0  0  0  0  0
  -37.6198    3.8268  -24.0224 N   0  0  0  0  0  0  0  0  0  0  0  0
  -37.5750    4.3787  -25.2807 N   0  0  0  0  0  0  0  0  0  0  0  0
  -38.8027    4.5803  -26.0399 C   0  0  0  0  0  0  0  0  0  0  0  0
  -33.5732    4.2547  -25.3295 H   0  0  0  0  0  0  0  0  0  0  0  0
  -33.9163    4.4747  -20.0151 H   0  0  0  0  0  0  0  0  0  0  0  0
  -28.4196    5.2426  -18.2727 H   0  0  0  0  0  0  0  0  0  0  0  0
  -28.4436    3.4554  -18.5731 H   0  0  0  0  0  0  0  0  0  0  0  0
  -32.5591    4.5442  -18.0585 H   0  0  0  0  0  0  0  0  0  0  0  0
  -32.6361    2.9040  -18.8326 H   0  0  0  0  0  0  0  0  0  0  0  0
  -32.8069    1.1656  -11.4469 H   0  0  0  0  0  0  0  0  0  0  0  0
  -35.2352    1.9308  -15.7081 H   0  0  0  0  0  0  0  0  0  0  0  0
  -36.0162    3.4422  -22.6444 H   0  0  0  0  0  0  0  0  0  0  0  0
  -36.4937    1.5751  -13.6039 H   0  0  0  0  0  0  0  0  0  0  0  0
  -35.2847    1.1743  -11.4764 H   0  0  0  0  0  0  0  0  0  0  0  0
  -31.5312    1.4838  -13.5488 H   0  0  0  0  0  0  0  0  0  0  0  0
  -31.7099    3.5692  -15.4311 H   0  0  0  0  0  0  0  0  0  0  0  0
  -30.5931    2.2176  -17.7947 H   0  0  0  0  0  0  0  0  0  0  0  0
  -29.2695    3.7566  -16.3613 H   0  0  0  0  0  0  0  0  0  0  0  0
  -30.3475    5.1122  -16.8797 H   0  0  0  0  0  0  0  0  0  0  0  0
  -29.4332    4.9981  -20.5318 H   0  0  0  0  0  0  0  0  0  0  0  0
  -29.1774    4.3843  -25.1410 H   0  0  0  0  0  0  0  0  0  0  0  0
  -29.4216    4.3888  -23.3738 H   0  0  0  0  0  0  0  0  0  0  0  0
  -36.0170    5.1462  -26.6011 H   0  0  0  0  0  0  0  0  0  0  0  0
  -39.6447    4.7185  -25.3455 H   0  0  0  0  0  0  0  0  0  0  0  0
  -38.6996    5.4735  -26.6735 H   0  0  0  0  0  0  0  0  0  0  0  0
  -38.9906    3.7009  -26.6735 H   0  0  0  0  0  0  0  0  0  0  0  0
  1 26  1  0
  1 27  1  0
  2  4  2  0
  2  5  1  0
  3  4  1  0
  3 23  2  0
  4  7  1  0
  5  6  1  0
  5 26  2  0
  6 24  1  0
  6 25  2  0
  7  9  1  0
  7 22  2  0
  8 21  1  0
  8 22  1  0
  9 20  1  0
 10 12  1  0
 10 15  1  0
 10 18  2  0
 11 17  2  0
 11 18  1  0
 12 16  2  0
 13 27  1  0
 13 29  2  0
 14 15  2  0
 15 19  1  0
 16 17  1  0
 20 19  1  0
 20 21  1  0
 23 26  1  0
 27 28  2  0
 28 30  1  0
 29 30  1  0
 30 31  1  0
  1 32  1  0
  3 33  1  0
  8 34  1  0
  8 35  1  0
  9 36  1  0
  9 37  1  0
 11 38  1  0
 12 39  1  0
 13 40  1  0
 16 41  1  0
 17 42  1  0
 18 43  1  0
 19 44  1  0
 20 45  1  6
 21 46  1  0
 21 47  1  0
 22 48  1  0
 24 49  1  0
 24 50  1  0
 28 51  1  0
 31 52  1  0
 31 53  1  0
 31 54  1  0
M  END
>  <filename_input>  (3) 
7SIU_9ID_docked.sdf

>  <pdb_id>  (3) 
7SIU_9ID

>  <pose_rank>  (3) 
2

>  <num_atoms_heavy>  (3) 
31

>  <num_torsions>  (3) 
6

>  <pose>  (3) 
[-31.296218350182087, 4.373838783802599, -22.106751790729138, 3.04168593483302, 4.405403368800133, 3.1004181867789447, -8.802016377154878, -1.2515330799077282, -1.7752433489525832, -0.09280331171537931, -0.00729781819263448, 2.7546852558371184]

>  <energy>  (3) 
-1420.951154791422

>  <inter_energy>  (3) 
-1475.0854807277108

>  <intra_energy>  (3) 
45.32564245350173

>  <rmsd>  (3) 
5.75542

>  <sdf_rank>  (3) 
0

$$$$

     RDKit          3D

 54 57  0  0  0  0  0  0  0  0999 V2000
  -34.0091    4.2490  -24.2162 N   0  0  0  0  0  0  0  0  0  0  0  0
  -31.0271    4.3061  -22.0602 N   0  0  0  0  0  0  0  0  0  0  0  0
  -33.0229    4.2240  -20.7849 C   0  0  0  0  0  0  0  0  0  0  0  0
  -31.6330    4.2207  -20.8689 C   0  0  0  0  0  0  0  0  0  0  0  0
  -31.7906    4.3486  -23.1577 C   0  0  0  0  0  0  0  0  0  0  0  0
  -31.0358    4.4400  -24.4661 C   0  0  0  0  0  0  0  0  0  0  0  0
  -30.7863    4.0625  -19.6786 C   0  0  0  0  0  0  0  0  0  0  0  0
  -28.5094    4.0471  -18.5777 C   0  0  0  0  0  0  0  0  0  0  0  0
  -31.4674    3.6275  -18.3998 C   0  0  0  0  0  0  0  0  0  0  0  0
  -32.0043    1.6106  -14.2345 C   0  0  0  0  0  0  0  0  0  0  0  0
  -32.5097    2.5433  -12.0710 C   0  0  0  0  0  0  0  0  0  0  0  0
  -32.7978    0.5110  -13.9223 C   0  0  0  0  0  0  0  0  0  0  0  0
  -36.1777    3.3676  -23.5232 C   0  0  0  0  0  0  0  0  0  0  0  0
  -30.7948    0.6282  -16.0255 O   0  0  0  0  0  0  0  0  0  0  0  0
  -31.2694    1.6480  -15.5328 C   0  0  0  0  0  0  0  0  0  0  0  0
  -33.4180    0.4241  -12.6888 C   0  0  0  0  0  0  0  0  0  0  0  0
  -33.2699    1.4356  -11.7609 C   0  0  0  0  0  0  0  0  0  0  0  0
  -31.8762    2.6352  -13.2987 C   0  0  0  0  0  0  0  0  0  0  0  0
  -31.1399    2.8478  -16.1119 N   0  0  0  0  0  0  0  0  0  0  0  0
  -30.4792    3.0234  -17.4016 C   0  0  2  0  0  0  0  0  0  0  0  0
  -29.2659    3.9304  -17.2572 C   0  0  0  0  0  0  0  0  0  0  0  0
  -29.4419    4.2869  -19.7303 C   0  0  0  0  0  0  0  0  0  0  0  0
  -33.8044    4.2597  -21.8743 N   0  0  0  0  0  0  0  0  0  0  0  0
  -29.7011    4.4159  -24.3786 N   0  0  0  0  0  0  0  0  0  0  0  0
  -31.6399    4.4996  -25.5611 O   0  0  0  0  0  0  0  0  0  0  0  0
  -33.1979    4.3040  -23.0757 C   0  0  0  0  0  0  0  0  0  0  0  0
  -35.4099    4.2646  -24.2747 C   0  0  0  0  0  0  0  0  0  0  0  0
  -36.2901    4.9724  -25.0375 C   0  0  0  0  0  0  0  0  0  0  0  0
  -37.4634    3.4936  -23.8132 N   0  0  0  0  0  0  0  0  0  0  0  0
  -37.5071    4.4970  -24.7519 N   0  0  0  0  0  0  0  0  0  0  0  0
  -38.7841    4.9371  -25.2995 C   0  0  0  0  0  0  0  0  0  0  0  0
  -33.5181    4.1899  -25.1197 H   0  0  0  0  0  0  0  0  0  0  0  0
  -33.4957    4.1964  -19.7921 H   0  0  0  0  0  0  0  0  0  0  0  0
  -27.8018    4.8866  -18.5106 H   0  0  0  0  0  0  0  0  0  0  0  0
  -27.9795    3.0997  -18.7554 H   0  0  0  0  0  0  0  0  0  0  0  0
  -31.9483    4.5025  -17.9382 H   0  0  0  0  0  0  0  0  0  0  0  0
  -32.2078    2.8550  -18.6549 H   0  0  0  0  0  0  0  0  0  0  0  0
  -32.4061    3.3581  -11.3393 H   0  0  0  0  0  0  0  0  0  0  0  0
  -32.9328   -0.2934  -14.6603 H   0  0  0  0  0  0  0  0  0  0  0  0
  -35.7688    2.6553  -22.7915 H   0  0  0  0  0  0  0  0  0  0  0  0
  -34.0323   -0.4555  -12.4461 H   0  0  0  0  0  0  0  0  0  0  0  0
  -33.7566    1.3580  -10.7775 H   0  0  0  0  0  0  0  0  0  0  0  0
  -31.2690    3.5211  -13.5364 H   0  0  0  0  0  0  0  0  0  0  0  0
  -31.5195    3.6757  -15.6309 H   0  0  0  0  0  0  0  0  0  0  0  0
  -30.1398    2.0433  -17.7679 H   0  0  0  0  0  0  0  0  0  0  0  0
  -28.5935    3.5127  -16.4933 H   0  0  0  0  0  0  0  0  0  0  0  0
  -29.6107    4.9321  -16.9614 H   0  0  0  0  0  0  0  0  0  0  0  0
  -29.0159    4.6655  -20.6711 H   0  0  0  0  0  0  0  0  0  0  0  0
  -29.1279    4.4745  -25.2324 H   0  0  0  0  0  0  0  0  0  0  0  0
  -29.2467    4.3389  -23.4575 H   0  0  0  0  0  0  0  0  0  0  0  0
  -36.0473    5.7763  -25.7480 H   0  0  0  0  0  0  0  0  0  0  0  0
  -39.4737    5.1748  -24.4761 H   0  0  0  0  0  0  0  0  0  0  0  0
  -38.6285    5.8335  -25.9178 H   0  0  0  0  0  0  0  0  0  0  0  0
  -39.2139    4.1353  -25.9178 H   0  0  0  0  0  0  0  0  0  0  0  0
  1 26  1  0
  1 27  1  0
  2  4  2  0
  2  5  1  0
  3  4  1  0
  3 23  2  0
  4  7  1  0
  5  6  1  0
  5 26  2  0
  6 24  1  0
  6 25  2  0
  7  9  1  0
  7 22  2  0
  8 21  1  0
  8 22  1  0
  9 20  1  0
 10 12  1  0
 10 15  1  0
 10 18  2  0
 11 17  2  0
 11 18  1  0
 12 16  2  0
 13 27  1  0
 13 29  2  0
 14 15  2  0
 15 19  1  0
 16 17  1  0
 20 19  1  0
 20 21  1  0
 23 26  1  0
 27 28  2  0
 28 30  1  0
 29 30  1  0
 30 31  1  0
  1 32  1  0
  3 33  1  0
  8 34  1  0
  8 35  1  0
  9 36  1  0
  9 37  1  0
 11 38  1  0
 12 39  1  0
 13 40  1  0
 16 41  1  0
 17 42  1  0
 18 43  1  0
 19 44  1  0
 20 45  1  6
 21 46  1  0
 21 47  1  0
 22 48  1  0
 24 49  1  0
 24 50  1  0
 28 51  1  0
 31 52  1  0
 31 53  1  0
 31 54  1  0
M  END
>  <filename_input>  (4) 
7SIU_9ID_docked.sdf

>  <pdb_id>  (4) 
7SIU_9ID

>  <pose_rank>  (4) 
3

>  <num_atoms_heavy>  (4) 
31

>  <num_torsions>  (4) 
6

>  <pose>  (4) 
[-31.02714804342606, 4.306074652688513, -22.060211225326935, 0.6398552678111484, 0.5743284260361446, -6.231681458571067, -2.6561659077159723, -0.5228674616699702, -1.2548621720665907, -0.03341801879763892, 0.04892838096664694, 2.3661203715605104]

>  <energy>  (4) 
-1366.1276948430968

>  <inter_energy>  (4) 
-1406.8254488314415

>  <intra_energy>  (4) 
31.213070502437258

>  <rmsd>  (4) 
5.28535

>  <sdf_rank>  (4) 
0

$$$$

     RDKit          3D

 54 57  0  0  0  0  0  0  0  0999 V2000
  -33.9601    4.3716  -24.2769 N   0  0  0  0  0  0  0  0  0  0  0  0
  -32.4633    3.3894  -21.0614 N   0  0  0  0  0  0  0  0  0  0  0  0
  -31.1729    5.0515  -22.1516 C   0  0  0  0  0  0  0  0  0  0  0  0
  -31.4177    4.2262  -21.0571 C   0  0  0  0  0  0  0  0  0  0  0  0
  -33.2818    3.4036  -22.1192 C   0  0  0  0  0  0  0  0  0  0  0  0
  -34.4425    2.4350  -22.0505 C   0  0  0  0  0  0  0  0  0  0  0  0
  -30.5894    4.2827  -19.8449 C   0  0  0  0  0  0  0  0  0  0  0  0
  -30.2724    4.9193  -17.4179 C   0  0  0  0  0  0  0  0  0  0  0  0
  -29.1540    3.8213  -19.9676 C   0  0  0  0  0  0  0  0  0  0  0  0
  -24.5980    3.5191  -18.5472 C   0  0  0  0  0  0  0  0  0  0  0  0
  -23.0383    2.2374  -19.8628 C   0  0  0  0  0  0  0  0  0  0  0  0
  -23.8392    3.2402  -17.4147 C   0  0  0  0  0  0  0  0  0  0  0  0
  -36.0109    4.9478  -23.0844 C   0  0  0  0  0  0  0  0  0  0  0  0
  -25.8772    5.4102  -17.8966 O   0  0  0  0  0  0  0  0  0  0  0  0
  -25.8645    4.2976  -18.4162 C   0  0  0  0  0  0  0  0  0  0  0  0
  -22.7080    2.4496  -17.5084 C   0  0  0  0  0  0  0  0  0  0  0  0
  -22.3103    1.9430  -18.7295 C   0  0  0  0  0  0  0  0  0  0  0  0
  -24.1780    3.0190  -19.7783 C   0  0  0  0  0  0  0  0  0  0  0  0
  -26.9771    3.7101  -18.8728 N   0  0  0  0  0  0  0  0  0  0  0  0
  -28.2769    4.3734  -18.8433 C   0  0  2  0  0  0  0  0  0  0  0  0
  -28.9549    4.1529  -17.4989 C   0  0  0  0  0  0  0  0  0  0  0  0
  -31.0923    4.7436  -18.6639 C   0  0  0  0  0  0  0  0  0  0  0  0
  -31.9859    5.0840  -23.2179 N   0  0  0  0  0  0  0  0  0  0  0  0
  -35.2559    2.5648  -20.9963 N   0  0  0  0  0  0  0  0  0  0  0  0
  -34.6365    1.5894  -22.9531 O   0  0  0  0  0  0  0  0  0  0  0  0
  -33.0611    4.2734  -23.2073 C   0  0  0  0  0  0  0  0  0  0  0  0
  -35.3587    4.4493  -24.2180 C   0  0  0  0  0  0  0  0  0  0  0  0
  -36.3390    4.0312  -25.0676 C   0  0  0  0  0  0  0  0  0  0  0  0
  -37.3238    4.8308  -23.2093 N   0  0  0  0  0  0  0  0  0  0  0  0
  -37.5017    4.2629  -24.4485 N   0  0  0  0  0  0  0  0  0  0  0  0
  -38.8442    4.0005  -24.9517 C   0  0  0  0  0  0  0  0  0  0  0  0
  -33.5441    4.3887  -25.2190 H   0  0  0  0  0  0  0  0  0  0  0  0
  -30.2833    5.6983  -22.1414 H   0  0  0  0  0  0  0  0  0  0  0  0
  -30.8481    4.5494  -16.5567 H   0  0  0  0  0  0  0  0  0  0  0  0
  -30.0416    5.9890  -17.3062 H   0  0  0  0  0  0  0  0  0  0  0  0
  -29.1297    2.7222  -19.9298 H   0  0  0  0  0  0  0  0  0  0  0  0
  -28.7572    4.1953  -20.9229 H   0  0  0  0  0  0  0  0  0  0  0  0
  -22.7120    1.8494  -20.8390 H   0  0  0  0  0  0  0  0  0  0  0  0
  -24.1406    3.6506  -16.4396 H   0  0  0  0  0  0  0  0  0  0  0  0
  -35.5021    5.3780  -22.2091 H   0  0  0  0  0  0  0  0  0  0  0  0
  -22.1223    2.2233  -16.6052 H   0  0  0  0  0  0  0  0  0  0  0  0
  -21.4157    1.3066  -18.7981 H   0  0  0  0  0  0  0  0  0  0  0  0
  -24.7547    3.2462  -20.6871 H   0  0  0  0  0  0  0  0  0  0  0  0
  -26.9138    2.7571  -19.2583 H   0  0  0  0  0  0  0  0  0  0  0  0
  -28.1323    5.4543  -18.9873 H   0  0  0  0  0  0  0  0  0  0  0  0
  -28.2865    4.5011  -16.6976 H   0  0  0  0  0  0  0  0  0  0  0  0
  -29.1667    3.0795  -17.3853 H   0  0  0  0  0  0  0  0  0  0  0  0
  -32.1608    5.0016  -18.6214 H   0  0  0  0  0  0  0  0  0  0  0  0
  -36.0652    1.9366  -20.8898 H   0  0  0  0  0  0  0  0  0  0  0  0
  -35.0729    3.2930  -20.2912 H   0  0  0  0  0  0  0  0  0  0  0  0
  -36.2011    3.5902  -26.0658 H   0  0  0  0  0  0  0  0  0  0  0  0
  -39.5333    3.8658  -24.1050 H   0  0  0  0  0  0  0  0  0  0  0  0
  -39.1785    4.8503  -25.5650 H   0  0  0  0  0  0  0  0  0  0  0  0
  -38.8339    3.0873  -25.5650 H   0  0  0  0  0  0  0  0  0  0  0  0
  1 26  1  0
  1 27  1  0
  2  4  2  0
  2  5  1  0
  3  4  1  0
  3 23  2  0
  4  7  1  0
  5  6  1  0
  5 26  2  0
  6 24  1  0
  6 25  2  0
  7  9  1  0
  7 22  2  0
  8 21  1  0
  8 22  1  0
  9 20  1  0
 10 12  1  0
 10 15  1  0
 10 18  2  0
 11 17  2  0
 11 18  1  0
 12 16  2  0
 13 27  1  0
 13 29  2  0
 14 15  2  0
 15 19  1  0
 16 17  1  0
 20 19  1  0
 20 21  1  0
 23 26  1  0
 27 28  2  0
 28 30  1  0
 29 30  1  0
 30 31  1  0
  1 32  1  0
  3 33  1  0
  8 34  1  0
  8 35  1  0
  9 36  1  0
  9 37  1  0
 11 38  1  0
 12 39  1  0
 13 40  1  0
 16 41  1  0
 17 42  1  0
 18 43  1  0
 19 44  1  0
 20 45  1  6
 21 46  1  0
 21 47  1  0
 22 48  1  0
 24 49  1  0
 24 50  1  0
 28 51  1  0
 31 52  1  0
 31 53  1  0
 31 54  1  0
M  END
>  <filename_input>  (5) 
7SIU_9ID_docked.sdf

>  <pdb_id>  (5) 
7SIU_9ID

>  <pose_rank>  (5) 
4

>  <num_atoms_heavy>  (5) 
31

>  <num_torsions>  (5) 
6

>  <pose>  (5) 
[-32.46333352235674, 3.389412081024531, -21.061436608924776, 2.3016924204858573, -0.11101355468113933, 3.1169297438716606, 2.2412303675926566, 0.05099036303908529, 0.3474154456659907, 0.9250489933321417, -2.3781412880732833, 3.7216688006402165]

>  <energy>  (5) 
-1141.44198621915

>  <inter_energy>  (5) 
-1204.2213089117488

>  <intra_energy>  (5) 
52.013829393385

>  <rmsd>  (5) 
2.03619

>  <sdf_rank>  (5) 
0

$$$$

     RDKit          3D

 54 57  0  0  0  0  0  0  0  0999 V2000
  -34.1947    5.4118  -21.8108 N   0  0  0  0  0  0  0  0  0  0  0  0
  -32.8000    3.3912  -19.0694 N   0  0  0  0  0  0  0  0  0  0  0  0
  -31.1138    4.6260  -20.1867 C   0  0  0  0  0  0  0  0  0  0  0  0
  -31.5186    3.7683  -19.1671 C   0  0  0  0  0  0  0  0  0  0  0  0
  -33.6771    3.8943  -19.9449 C   0  0  0  0  0  0  0  0  0  0  0  0
  -35.1054    3.4263  -19.7692 C   0  0  0  0  0  0  0  0  0  0  0  0
  -30.5846    3.2985  -18.1348 C   0  0  0  0  0  0  0  0  0  0  0  0
  -30.0778    2.6819  -15.7350 C   0  0  0  0  0  0  0  0  0  0  0  0
  -29.1433    3.0978  -18.5477 C   0  0  0  0  0  0  0  0  0  0  0  0
  -24.5592    2.9486  -18.3914 C   0  0  0  0  0  0  0  0  0  0  0  0
  -23.1483    2.1366  -20.1680 C   0  0  0  0  0  0  0  0  0  0  0  0
  -23.5871    2.5645  -17.4727 C   0  0  0  0  0  0  0  0  0  0  0  0
  -34.0241    4.3930  -24.0228 C   0  0  0  0  0  0  0  0  0  0  0  0
  -25.9499    4.7162  -17.6317 O   0  0  0  0  0  0  0  0  0  0  0  0
  -25.8484    3.5240  -17.9076 C   0  0  0  0  0  0  0  0  0  0  0  0
  -22.4226    1.9534  -17.9014 C   0  0  0  0  0  0  0  0  0  0  0  0
  -22.2048    1.7335  -19.2469 C   0  0  0  0  0  0  0  0  0  0  0  0
  -24.3220    2.7396  -19.7486 C   0  0  0  0  0  0  0  0  0  0  0  0
  -26.8704    2.6703  -17.7724 N   0  0  0  0  0  0  0  0  0  0  0  0
  -28.1973    3.1046  -17.3464 C   0  0  2  0  0  0  0  0  0  0  0  0
  -28.7324    2.1856  -16.2579 C   0  0  0  0  0  0  0  0  0  0  0  0
  -30.9998    3.0660  -16.8565 C   0  0  0  0  0  0  0  0  0  0  0  0
  -31.9798    5.1453  -21.0695 N   0  0  0  0  0  0  0  0  0  0  0  0
  -35.4226    2.2690  -20.3605 N   0  0  0  0  0  0  0  0  0  0  0  0
  -35.9218    4.0782  -19.0792 O   0  0  0  0  0  0  0  0  0  0  0  0
  -33.2758    4.8003  -20.9486 C   0  0  0  0  0  0  0  0  0  0  0  0
  -34.7947    4.8645  -22.9537 C   0  0  0  0  0  0  0  0  0  0  0  0
  -36.0958    4.7470  -23.3419 C   0  0  0  0  0  0  0  0  0  0  0  0
  -34.7982    4.0198  -25.0300 N   0  0  0  0  0  0  0  0  0  0  0  0
  -36.0780    4.2460  -24.5818 N   0  0  0  0  0  0  0  0  0  0  0  0
  -37.2211    3.9247  -25.4270 C   0  0  0  0  0  0  0  0  0  0  0  0
  -34.4615    6.3789  -21.5775 H   0  0  0  0  0  0  0  0  0  0  0  0
  -30.0484    4.8863  -20.2710 H   0  0  0  0  0  0  0  0  0  0  0  0
  -30.5481    1.8819  -15.1443 H   0  0  0  0  0  0  0  0  0  0  0  0
  -29.8985    3.5737  -15.1164 H   0  0  0  0  0  0  0  0  0  0  0  0
  -29.0534    2.1313  -19.0651 H   0  0  0  0  0  0  0  0  0  0  0  0
  -28.8598    3.9305  -19.2081 H   0  0  0  0  0  0  0  0  0  0  0  0
  -22.9676    1.9784  -21.2414 H   0  0  0  0  0  0  0  0  0  0  0  0
  -23.7457    2.7479  -16.3997 H   0  0  0  0  0  0  0  0  0  0  0  0
  -32.9254    4.3399  -24.0258 H   0  0  0  0  0  0  0  0  0  0  0  0
  -21.6661    1.6410  -17.1665 H   0  0  0  0  0  0  0  0  0  0  0  0
  -21.2819    1.2383  -19.5829 H   0  0  0  0  0  0  0  0  0  0  0  0
  -25.0707    3.0550  -20.4901 H   0  0  0  0  0  0  0  0  0  0  0  0
  -26.7153    1.6726  -17.9759 H   0  0  0  0  0  0  0  0  0  0  0  0
  -28.1282    4.1239  -16.9389 H   0  0  0  0  0  0  0  0  0  0  0  0
  -28.0125    2.1554  -15.4267 H   0  0  0  0  0  0  0  0  0  0  0  0
  -28.8714    1.1813  -16.6844 H   0  0  0  0  0  0  0  0  0  0  0  0
  -32.0724    3.1657  -16.6341 H   0  0  0  0  0  0  0  0  0  0  0  0
  -36.3787    1.8944  -20.2796 H   0  0  0  0  0  0  0  0  0  0  0  0
  -34.7108    1.7525  -20.8966 H   0  0  0  0  0  0  0  0  0  0  0  0
  -36.9854    5.0121  -22.7517 H   0  0  0  0  0  0  0  0  0  0  0  0
  -38.0877    3.6812  -24.7948 H   0  0  0  0  0  0  0  0  0  0  0  0
  -37.4622    4.7899  -26.0621 H   0  0  0  0  0  0  0  0  0  0  0  0
  -36.9762    3.0606  -26.0621 H   0  0  0  0  0  0  0  0  0  0  0  0
  1 26  1  0
  1 27  1  0
  2  4  2  0
  2  5  1  0
  3  4  1  0
  3 23  2  0
  4  7  1  0
  5  6  1  0
  5 26  2  0
  6 24  1  0
  6 25  2  0
  7  9  1  0
  7 22  2  0
  8 21  1  0
  8 22  1  0
  9 20  1  0
 10 12  1  0
 10 15  1  0
 10 18  2  0
 11 17  2  0
 11 18  1  0
 12 16  2  0
 13 27  1  0
 13 29  2  0
 14 15  2  0
 15 19  1  0
 16 17  1  0
 20 19  1  0
 20 21  1  0
 23 26  1  0
 27 28  2  0
 28 30  1  0
 29 30  1  0
 30 31  1  0
  1 32  1  0
  3 33  1  0
  8 34  1  0
  8 35  1  0
  9 36  1  0
  9 37  1  0
 11 38  1  0
 12 39  1  0
 13 40  1  0
 16 41  1  0
 17 42  1  0
 18 43  1  0
 19 44  1  0
 20 45  1  1
 21 46  1  0
 21 47  1  0
 22 48  1  0
 24 49  1  0
 24 50  1  0
 28 51  1  0
 31 52  1  0
 31 53  1  0
 31 54  1  0
M  END
>  <filename_input>  (6) 
7SIU_9ID_docked.sdf

>  <pdb_id>  (6) 
7SIU_9ID

>  <pose_rank>  (6) 
5

>  <num_atoms_heavy>  (6) 
31

>  <num_torsions>  (6) 
6

>  <pose>  (6) 
[-32.7999514777238, 3.391155455383156, -19.069375440560208, 2.1310810080923357, -0.8237285014101472, 2.822948716493232, 2.8450577018467307, -0.7659726806367126, -5.451633648375426, -1.562936316663254, -4.543605171996995, 2.2650384331524926]

>  <energy>  (6) 
-895.4897097267267

>  <inter_energy>  (6) 
-892.8731783606037

>  <intra_energy>  (6) 
2.5865629029661013

>  <rmsd>  (6) 
2.78416

>  <sdf_rank>  (6) 
0

$$$$

     RDKit          3D

 54 57  0  0  0  0  0  0  0  0999 V2000
  -29.9987    3.9580  -21.4213 N   0  0  0  0  0  0  0  0  0  0  0  0
  -33.3671    4.1415  -22.8924 N   0  0  0  0  0  0  0  0  0  0  0  0
  -33.4550    4.0114  -20.5278 C   0  0  0  0  0  0  0  0  0  0  0  0
  -34.0853    4.1471  -21.7620 C   0  0  0  0  0  0  0  0  0  0  0  0
  -32.0362    4.0478  -22.7971 C   0  0  0  0  0  0  0  0  0  0  0  0
  -31.2926    4.0524  -24.1151 C   0  0  0  0  0  0  0  0  0  0  0  0
  -35.5346    4.3620  -21.8712 C   0  0  0  0  0  0  0  0  0  0  0  0
  -37.8650    4.2183  -20.8991 C   0  0  0  0  0  0  0  0  0  0  0  0
  -36.0610    4.8558  -23.2006 C   0  0  0  0  0  0  0  0  0  0  0  0
  -39.6474    5.8279  -26.2633 C   0  0  0  0  0  0  0  0  0  0  0  0
  -41.2290    6.4270  -27.9797 C   0  0  0  0  0  0  0  0  0  0  0  0
  -38.6741    6.5626  -26.9334 C   0  0  0  0  0  0  0  0  0  0  0  0
  -27.8673    3.8979  -20.2325 C   0  0  0  0  0  0  0  0  0  0  0  0
  -40.0886    4.3217  -24.4821 O   0  0  0  0  0  0  0  0  0  0  0  0
  -39.2847    5.0719  -25.0287 C   0  0  0  0  0  0  0  0  0  0  0  0
  -38.9752    7.1999  -28.1237 C   0  0  0  0  0  0  0  0  0  0  0  0
  -40.2493    7.1278  -28.6505 C   0  0  0  0  0  0  0  0  0  0  0  0
  -40.9353    5.7767  -26.7931 C   0  0  0  0  0  0  0  0  0  0  0  0
  -38.0533    5.2737  -24.5445 N   0  0  0  0  0  0  0  0  0  0  0  0
  -37.5539    4.5702  -23.3672 C   0  0  2  0  0  0  0  0  0  0  0  0
  -38.3102    5.0138  -22.1234 C   0  0  0  0  0  0  0  0  0  0  0  0
  -36.3688    4.1142  -20.8209 C   0  0  0  0  0  0  0  0  0  0  0  0
  -32.1217    3.9227  -20.4123 N   0  0  0  0  0  0  0  0  0  0  0  0
  -29.9574    4.0232  -24.0377 N   0  0  0  0  0  0  0  0  0  0  0  0
  -31.9061    4.0494  -25.2065 O   0  0  0  0  0  0  0  0  0  0  0  0
  -31.3939    3.9581  -21.5446 C   0  0  0  0  0  0  0  0  0  0  0  0
  -29.2396    4.1716  -20.2621 C   0  0  0  0  0  0  0  0  0  0  0  0
  -29.5799    4.5472  -18.9969 C   0  0  0  0  0  0  0  0  0  0  0  0
  -27.3804    4.0736  -19.0139 N   0  0  0  0  0  0  0  0  0  0  0  0
  -28.4611    4.4791  -18.2672 N   0  0  0  0  0  0  0  0  0  0  0  0
  -28.3014    4.7961  -16.8536 C   0  0  0  0  0  0  0  0  0  0  0  0
  -29.4670    3.7796  -22.2852 H   0  0  0  0  0  0  0  0  0  0  0  0
  -34.0711    3.9757  -19.6172 H   0  0  0  0  0  0  0  0  0  0  0  0
  -38.2357    4.7203  -19.9933 H   0  0  0  0  0  0  0  0  0  0  0  0
  -38.2766    3.2016  -20.9814 H   0  0  0  0  0  0  0  0  0  0  0  0
  -35.8977    5.9417  -23.2661 H   0  0  0  0  0  0  0  0  0  0  0  0
  -35.5222    4.3237  -23.9984 H   0  0  0  0  0  0  0  0  0  0  0  0
  -42.2490    6.3843  -28.3892 H   0  0  0  0  0  0  0  0  0  0  0  0
  -37.6598    6.6370  -26.5144 H   0  0  0  0  0  0  0  0  0  0  0  0
  -27.2744    3.5801  -21.1028 H   0  0  0  0  0  0  0  0  0  0  0  0
  -38.1954    7.7670  -28.6531 H   0  0  0  0  0  0  0  0  0  0  0  0
  -40.4821    7.6278  -29.6023 H   0  0  0  0  0  0  0  0  0  0  0  0
  -41.7222    5.2171  -26.2662 H   0  0  0  0  0  0  0  0  0  0  0  0
  -37.4367    5.9486  -25.0192 H   0  0  0  0  0  0  0  0  0  0  0  0
  -37.7084    3.4894  -23.5018 H   0  0  0  0  0  0  0  0  0  0  0  0
  -39.3872    4.8566  -22.2822 H   0  0  0  0  0  0  0  0  0  0  0  0
  -38.0979    6.0783  -21.9455 H   0  0  0  0  0  0  0  0  0  0  0  0
  -35.9195    3.8211  -19.8606 H   0  0  0  0  0  0  0  0  0  0  0  0
  -29.3915    4.0245  -24.8983 H   0  0  0  0  0  0  0  0  0  0  0  0
  -29.4952    3.9994  -23.1175 H   0  0  0  0  0  0  0  0  0  0  0  0
  -30.5780    4.8471  -18.6452 H   0  0  0  0  0  0  0  0  0  0  0  0
  -28.7138    3.9775  -16.2454 H   0  0  0  0  0  0  0  0  0  0  0  0
  -27.2328    4.9209  -16.6242 H   0  0  0  0  0  0  0  0  0  0  0  0
  -28.8370    5.7291  -16.6242 H   0  0  0  0  0  0  0  0  0  0  0  0
  1 26  1  0
  1 27  1  0
  2  4  2  0
  2  5  1  0
  3  4  1  0
  3 23  2  0
  4  7  1  0
  5  6  1  0
  5 26  2  0
  6 24  1  0
  6 25  2  0
  7  9  1  0
  7 22  2  0
  8 21  1  0
  8 22  1  0
  9 20  1  0
 10 12  1  0
 10 15  1  0
 10 18  2  0
 11 17  2  0
 11 18  1  0
 12 16  2  0
 13 27  1  0
 13 29  2  0
 14 15  2  0
 15 19  1  0
 16 17  1  0
 20 19  1  0
 20 21  1  0
 23 26  1  0
 27 28  2  0
 28 30  1  0
 29 30  1  0
 30 31  1  0
  1 32  1  0
  3 33  1  0
  8 34  1  0
  8 35  1  0
  9 36  1  0
  9 37  1  0
 11 38  1  0
 12 39  1  0
 13 40  1  0
 16 41  1  0
 17 42  1  0
 18 43  1  0
 19 44  1  0
 20 45  1  6
 21 46  1  0
 21 47  1  0
 22 48  1  0
 24 49  1  0
 24 50  1  0
 28 51  1  0
 31 52  1  0
 31 53  1  0
 31 54  1  0
M  END
>  <filename_input>  (7) 
7SIU_9ID_docked.sdf

>  <pdb_id>  (7) 
7SIU_9ID

>  <pose_rank>  (7) 
6

>  <num_atoms_heavy>  (7) 
31

>  <num_torsions>  (7) 
6

>  <pose>  (7) 
[-33.36711059228809, 4.1414751271067995, -22.892428930917397, 1.5989818359030128, 0.10650400947111993, -2.7940507143893036, 0.0017469441612586133, 0.3767303147222752, -3.659854372080681, -3.271132064710894, -0.27743241642139327, -6.35365847216353]

>  <energy>  (7) 
-720.631514547272

>  <inter_energy>  (7) 
-751.5895774388792

>  <intra_energy>  (7) 
54.3049113625719

>  <rmsd>  (7) 
11.1647

>  <sdf_rank>  (7) 
0

$$$$

     RDKit          3D

 54 57  0  0  0  0  0  0  0  0999 V2000
  -30.4276    4.1802  -21.0198 N   0  0  0  0  0  0  0  0  0  0  0  0
  -33.7297    3.9572  -22.6292 N   0  0  0  0  0  0  0  0  0  0  0  0
  -33.9020    3.8483  -20.2681 C   0  0  0  0  0  0  0  0  0  0  0  0
  -34.4909    3.8950  -21.5291 C   0  0  0  0  0  0  0  0  0  0  0  0
  -32.4020    4.0181  -22.4784 C   0  0  0  0  0  0  0  0  0  0  0  0
  -31.6088    4.0911  -23.7650 C   0  0  0  0  0  0  0  0  0  0  0  0
  -35.9494    3.9408  -21.7007 C   0  0  0  0  0  0  0  0  0  0  0  0
  -37.9896    4.4186  -23.1169 C   0  0  0  0  0  0  0  0  0  0  0  0
  -36.7974    3.6351  -20.4859 C   0  0  0  0  0  0  0  0  0  0  0  0
  -40.3527    3.7618  -17.5252 C   0  0  0  0  0  0  0  0  0  0  0  0
  -42.4494    3.3115  -16.4266 C   0  0  0  0  0  0  0  0  0  0  0  0
  -39.7029    3.0226  -16.5415 C   0  0  0  0  0  0  0  0  0  0  0  0
  -30.3936    4.3327  -18.5835 C   0  0  0  0  0  0  0  0  0  0  0  0
  -39.3951    5.6586  -18.5841 O   0  0  0  0  0  0  0  0  0  0  0  0
  -39.5553    4.4411  -18.5882 C   0  0  0  0  0  0  0  0  0  0  0  0
  -40.4209    2.4572  -15.5032 C   0  0  0  0  0  0  0  0  0  0  0  0
  -41.7921    2.6059  -15.4412 C   0  0  0  0  0  0  0  0  0  0  0  0
  -41.7389    3.8904  -17.4644 C   0  0  0  0  0  0  0  0  0  0  0  0
  -39.0490    3.6576  -19.5481 N   0  0  0  0  0  0  0  0  0  0  0  0
  -38.2176    4.1842  -20.6260 C   0  0  2  0  0  0  0  0  0  0  0  0
  -38.7943    3.7954  -21.9795 C   0  0  0  0  0  0  0  0  0  0  0  0
  -36.5119    4.2579  -22.9021 C   0  0  0  0  0  0  0  0  0  0  0  0
  -32.5734    3.9146  -20.0971 N   0  0  0  0  0  0  0  0  0  0  0  0
  -30.4570    4.7693  -23.7088 N   0  0  0  0  0  0  0  0  0  0  0  0
  -32.0038    3.5161  -24.8047 O   0  0  0  0  0  0  0  0  0  0  0  0
  -31.8072    4.0188  -21.1995 C   0  0  0  0  0  0  0  0  0  0  0  0
  -29.7233    4.2608  -19.8101 C   0  0  0  0  0  0  0  0  0  0  0  0
  -28.3958    4.3805  -19.5257 C   0  0  0  0  0  0  0  0  0  0  0  0
  -29.5359    4.5068  -17.5900 N   0  0  0  0  0  0  0  0  0  0  0  0
  -28.3040    4.5299  -18.1998 N   0  0  0  0  0  0  0  0  0  0  0  0
  -27.0922    4.6834  -17.4046 C   0  0  0  0  0  0  0  0  0  0  0  0
  -29.8631    4.2478  -21.8786 H   0  0  0  0  0  0  0  0  0  0  0  0
  -34.5480    3.7538  -19.3828 H   0  0  0  0  0  0  0  0  0  0  0  0
  -38.2684    3.9286  -24.0615 H   0  0  0  0  0  0  0  0  0  0  0  0
  -38.2173    5.4943  -23.1500 H   0  0  0  0  0  0  0  0  0  0  0  0
  -36.8497    2.5442  -20.3547 H   0  0  0  0  0  0  0  0  0  0  0  0
  -36.3305    4.1185  -19.6151 H   0  0  0  0  0  0  0  0  0  0  0  0
  -43.5439    3.4150  -16.3880 H   0  0  0  0  0  0  0  0  0  0  0  0
  -38.6123    2.8872  -16.5898 H   0  0  0  0  0  0  0  0  0  0  0  0
  -31.4840    4.2553  -18.4616 H   0  0  0  0  0  0  0  0  0  0  0  0
  -39.8967    1.8860  -14.7228 H   0  0  0  0  0  0  0  0  0  0  0  0
  -42.3582    2.1630  -14.6085 H   0  0  0  0  0  0  0  0  0  0  0  0
  -42.2712    4.4544  -18.2445 H   0  0  0  0  0  0  0  0  0  0  0  0
  -39.2530    2.6483  -19.5252 H   0  0  0  0  0  0  0  0  0  0  0  0
  -38.1953    5.2819  -20.5592 H   0  0  0  0  0  0  0  0  0  0  0  0
  -39.8351    4.1461  -22.0410 H   0  0  0  0  0  0  0  0  0  0  0  0
  -38.7497    2.7007  -22.0778 H   0  0  0  0  0  0  0  0  0  0  0  0
  -35.8443    4.4044  -23.7640 H   0  0  0  0  0  0  0  0  0  0  0  0
  -29.8692    4.8568  -24.5501 H   0  0  0  0  0  0  0  0  0  0  0  0
  -30.1580    5.2041  -22.8242 H   0  0  0  0  0  0  0  0  0  0  0  0
  -27.5639    4.3587  -20.2450 H   0  0  0  0  0  0  0  0  0  0  0  0
  -27.3486    4.6509  -16.3354 H   0  0  0  0  0  0  0  0  0  0  0  0
  -26.3938    3.8665  -17.6392 H   0  0  0  0  0  0  0  0  0  0  0  0
  -26.6195    5.6486  -17.6392 H   0  0  0  0  0  0  0  0  0  0  0  0
  1 26  1  0
  1 27  1  0
  2  4  2  0
  2  5  1  0
  3  4  1  0
  3 23  2  0
  4  7  1  0
  5  6  1  0
  5 26  2  0
  6 24  1  0
  6 25  2  0
  7  9  1  0
  7 22  2  0
  8 21  1  0
  8 22  1  0
  9 20  1  0
 10 12  1  0
 10 15  1  0
 10 18  2  0
 11 17  2  0
 11 18  1  0
 12 16  2  0
 13 27  1  0
 13 29  2  0
 14 15  2  0
 15 19  1  0
 16 17  1  0
 20 19  1  0
 20 21  1  0
 23 26  1  0
 27 28  2  0
 28 30  1  0
 29 30  1  0
 30 31  1  0
  1 32  1  0
  3 33  1  0
  8 34  1  0
  8 35  1  0
  9 36  1  0
  9 37  1  0
 11 38  1  0
 12 39  1  0
 13 40  1  0
 16 41  1  0
 17 42  1  0
 18 43  1  0
 19 44  1  0
 20 45  1  6
 21 46  1  0
 21 47  1  0
 22 48  1  0
 24 49  1  0
 24 50  1  0
 28 51  1  0
 31 52  1  0
 31 53  1  0
 31 54  1  0
M  END
>  <filename_input>  (8) 
7SIU_9ID_docked.sdf

>  <pdb_id>  (8) 
7SIU_9ID

>  <pose_rank>  (8) 
7

>  <num_atoms_heavy>  (8) 
31

>  <num_torsions>  (8) 
6

>  <pose>  (8) 
[-33.72967424048449, 3.9572494596420276, -22.62920606126673, 1.592186647057149, 0.17316094299526658, -2.6688914120667073, 3.1929364847262, -0.6326678235572539, -2.48383197854324, 2.5204399954150536, -0.06405476980456837, -3.127828939967969]

>  <energy>  (8) 
-606.2713692723305

>  <inter_energy>  (8) 
-655.7632277726619

>  <intra_energy>  (8) 
52.33618789942993

>  <rmsd>  (8) 
10.6223

>  <sdf_rank>  (8) 
0

$$$$

     RDKit          3D

 54 57  0  0  0  0  0  0  0  0999 V2000
  -36.0822    4.3073  -21.0923 N   0  0  0  0  0  0  0  0  0  0  0  0
  -32.6931    3.6853  -19.7995 N   0  0  0  0  0  0  0  0  0  0  0  0
  -34.3184    3.5609  -18.0792 C   0  0  0  0  0  0  0  0  0  0  0  0
  -33.0028    3.4411  -18.5196 C   0  0  0  0  0  0  0  0  0  0  0  0
  -33.6832    4.0003  -20.6419 C   0  0  0  0  0  0  0  0  0  0  0  0
  -33.2575    4.2577  -22.0711 C   0  0  0  0  0  0  0  0  0  0  0  0
  -31.9266    2.9879  -17.6279 C   0  0  0  0  0  0  0  0  0  0  0  0
  -31.1155    2.2434  -15.3510 C   0  0  0  0  0  0  0  0  0  0  0  0
  -30.5248    2.9610  -18.1960 C   0  0  0  0  0  0  0  0  0  0  0  0
  -25.8370    3.1304  -18.1878 C   0  0  0  0  0  0  0  0  0  0  0  0
  -23.4465    2.8282  -18.2009 C   0  0  0  0  0  0  0  0  0  0  0  0
  -25.8590    2.8458  -19.5498 C   0  0  0  0  0  0  0  0  0  0  0  0
  -38.4356    4.4147  -21.7325 C   0  0  0  0  0  0  0  0  0  0  0  0
  -27.1583    4.4889  -16.7579 O   0  0  0  0  0  0  0  0  0  0  0  0
  -27.1018    3.5041  -17.4894 C   0  0  0  0  0  0  0  0  0  0  0  0
  -24.6829    2.5795  -20.2274 C   0  0  0  0  0  0  0  0  0  0  0  0
  -23.4765    2.5765  -19.5561 C   0  0  0  0  0  0  0  0  0  0  0  0
  -24.6168    3.1063  -17.5153 C   0  0  0  0  0  0  0  0  0  0  0  0
  -28.1537    2.7003  -17.6870 N   0  0  0  0  0  0  0  0  0  0  0  0
  -29.4615    2.9691  -17.0972 C   0  0  2  0  0  0  0  0  0  0  0  0
  -29.7941    1.9223  -16.0440 C   0  0  0  0  0  0  0  0  0  0  0  0
  -32.1817    2.6196  -16.3397 C   0  0  0  0  0  0  0  0  0  0  0  0
  -35.3248    3.8695  -18.9103 N   0  0  0  0  0  0  0  0  0  0  0  0
  -33.8250    3.4835  -23.0028 N   0  0  0  0  0  0  0  0  0  0  0  0
  -32.4460    5.1686  -22.3526 O   0  0  0  0  0  0  0  0  0  0  0  0
  -35.0225    4.0753  -20.2062 C   0  0  0  0  0  0  0  0  0  0  0  0
  -37.4238    4.5647  -20.7770 C   0  0  0  0  0  0  0  0  0  0  0  0
  -38.0268    5.0587  -19.6591 C   0  0  0  0  0  0  0  0  0  0  0  0
  -39.6018    4.8104  -21.2465 N   0  0  0  0  0  0  0  0  0  0  0  0
  -39.3224    5.2019  -19.9587 N   0  0  0  0  0  0  0  0  0  0  0  0
  -40.3876    5.6846  -19.0888 C   0  0  0  0  0  0  0  0  0  0  0  0
  -35.8479    4.2863  -22.0951 H   0  0  0  0  0  0  0  0  0  0  0  0
  -34.5396    3.3970  -17.0142 H   0  0  0  0  0  0  0  0  0  0  0  0
  -31.4473    1.3588  -14.7876 H   0  0  0  0  0  0  0  0  0  0  0  0
  -30.9524    3.0990  -14.6791 H   0  0  0  0  0  0  0  0  0  0  0  0
  -30.4040    2.0500  -18.8005 H   0  0  0  0  0  0  0  0  0  0  0  0
  -30.3886    3.8652  -18.8074 H   0  0  0  0  0  0  0  0  0  0  0  0
  -22.4880    2.8080  -17.6616 H   0  0  0  0  0  0  0  0  0  0  0  0
  -26.8169    2.8325  -20.0904 H   0  0  0  0  0  0  0  0  0  0  0  0
  -38.2826    4.0218  -22.7485 H   0  0  0  0  0  0  0  0  0  0  0  0
  -24.7089    2.3691  -21.3068 H   0  0  0  0  0  0  0  0  0  0  0  0
  -22.5424    2.3740  -20.1006 H   0  0  0  0  0  0  0  0  0  0  0  0
  -24.5832    3.3093  -16.4347 H   0  0  0  0  0  0  0  0  0  0  0  0
  -28.0361    1.8631  -18.2754 H   0  0  0  0  0  0  0  0  0  0  0  0
  -29.4412    3.9564  -16.6128 H   0  0  0  0  0  0  0  0  0  0  0  0
  -28.9905    1.8996  -15.2932 H   0  0  0  0  0  0  0  0  0  0  0  0
  -29.8869    0.9444  -16.5391 H   0  0  0  0  0  0  0  0  0  0  0  0
  -33.2294    2.5967  -16.0053 H   0  0  0  0  0  0  0  0  0  0  0  0
  -33.5786    3.6073  -23.9953 H   0  0  0  0  0  0  0  0  0  0  0  0
  -34.5084    2.7636  -22.7278 H   0  0  0  0  0  0  0  0  0  0  0  0
  -37.5432    5.2934  -18.6994 H   0  0  0  0  0  0  0  0  0  0  0  0
  -40.0918    5.5505  -18.0378 H   0  0  0  0  0  0  0  0  0  0  0  0
  -40.5668    6.7518  -19.2860 H   0  0  0  0  0  0  0  0  0  0  0  0
  -41.3081    5.1156  -19.2860 H   0  0  0  0  0  0  0  0  0  0  0  0
  1 26  1  0
  1 27  1  0
  2  4  2  0
  2  5  1  0
  3  4  1  0
  3 23  2  0
  4  7  1  0
  5  6  1  0
  5 26  2  0
  6 24  1  0
  6 25  2  0
  7  9  1  0
  7 22  2  0
  8 21  1  0
  8 22  1  0
  9 20  1  0
 10 12  1  0
 10 15  1  0
 10 18  2  0
 11 17  2  0
 11 18  1  0
 12 16  2  0
 13 27  1  0
 13 29  2  0
 14 15  2  0
 15 19  1  0
 16 17  1  0
 20 19  1  0
 20 21  1  0
 23 26  1  0
 27 28  2  0
 28 30  1  0
 29 30  1  0
 30 31  1  0
  1 32  1  0
  3 33  1  0
  8 34  1  0
  8 35  1  0
  9 36  1  0
  9 37  1  0
 11 38  1  0
 12 39  1  0
 13 40  1  0
 16 41  1  0
 17 42  1  0
 18 43  1  0
 19 44  1  0
 20 45  1  1
 21 46  1  0
 21 47  1  0
 22 48  1  0
 24 49  1  0
 24 50  1  0
 28 51  1  0
 31 52  1  0
 31 53  1  0
 31 54  1  0
M  END
>  <filename_input>  (9) 
7SIU_9ID_docked.sdf

>  <pdb_id>  (9) 
7SIU_9ID

>  <pose_rank>  (9) 
8

>  <num_atoms_heavy>  (9) 
31

>  <num_torsions>  (9) 
6

>  <pose>  (9) 
[-32.69314989722878, 3.685267721158712, -19.799481162380342, -3.071120279803442, -4.569203859974099, 2.260734973679907, 0.3281244401160805, -0.40030840224739317, -2.921615093375771, 2.05033678632826, 0.13910229916135178, 0.4523165474572497]

>  <energy>  (9) 
-570.8933552126156

>  <inter_energy>  (9) 
-577.5057812457727

>  <intra_energy>  (9) 
21.27987411665873

>  <rmsd>  (9) 
2.87447

>  <sdf_rank>  (9) 
0

$$$$

     RDKit          3D

 54 57  0  0  0  0  0  0  0  0999 V2000
  -36.1218    2.8441  -16.8320 N   0  0  0  0  0  0  0  0  0  0  0  0
  -33.7001    3.4151  -19.5436 N   0  0  0  0  0  0  0  0  0  0  0  0
  -32.7542    3.8739  -17.4197 C   0  0  0  0  0  0  0  0  0  0  0  0
  -32.6386    3.7584  -18.8025 C   0  0  0  0  0  0  0  0  0  0  0  0
  -34.8503    3.1458  -18.9164 C   0  0  0  0  0  0  0  0  0  0  0  0
  -36.0029    2.7610  -19.8184 C   0  0  0  0  0  0  0  0  0  0  0  0
  -31.3533    3.9435  -19.4897 C   0  0  0  0  0  0  0  0  0  0  0  0
  -30.0039    4.1933  -21.6142 C   0  0  0  0  0  0  0  0  0  0  0  0
  -30.1060    3.9393  -18.6338 C   0  0  0  0  0  0  0  0  0  0  0  0
  -25.3119    3.9316  -18.1324 C   0  0  0  0  0  0  0  0  0  0  0  0
  -22.9661    4.1933  -17.6477 C   0  0  0  0  0  0  0  0  0  0  0  0
  -25.5814    4.0195  -16.7701 C   0  0  0  0  0  0  0  0  0  0  0  0
  -35.1460    1.2660  -15.2455 C   0  0  0  0  0  0  0  0  0  0  0  0
  -26.2045    3.3248  -20.2469 O   0  0  0  0  0  0  0  0  0  0  0  0
  -26.4264    3.6799  -19.0924 C   0  0  0  0  0  0  0  0  0  0  0  0
  -24.5491    4.1690  -15.8614 C   0  0  0  0  0  0  0  0  0  0  0  0
  -23.2418    4.2498  -16.2980 C   0  0  0  0  0  0  0  0  0  0  0  0
  -23.9910    4.0331  -18.5647 C   0  0  0  0  0  0  0  0  0  0  0  0
  -27.6675    3.8826  -18.6339 N   0  0  0  0  0  0  0  0  0  0  0  0
  -28.8506    3.6371  -19.4527 C   0  0  2  0  0  0  0  0  0  0  0  0
  -28.8220    4.5071  -20.7009 C   0  0  0  0  0  0  0  0  0  0  0  0
  -31.2894    4.0998  -20.8432 C   0  0  0  0  0  0  0  0  0  0  0  0
  -33.8973    3.6019  -16.7730 N   0  0  0  0  0  0  0  0  0  0  0  0
  -36.6612    3.7722  -20.3962 N   0  0  0  0  0  0  0  0  0  0  0  0
  -36.2898    1.5606  -20.0287 O   0  0  0  0  0  0  0  0  0  0  0  0
  -34.9552    3.2166  -17.5116 C   0  0  0  0  0  0  0  0  0  0  0  0
  -36.2309    2.0249  -15.6994 C   0  0  0  0  0  0  0  0  0  0  0  0
  -37.2849    1.6979  -14.8997 C   0  0  0  0  0  0  0  0  0  0  0  0
  -35.5054    0.4939  -14.2317 N   0  0  0  0  0  0  0  0  0  0  0  0
  -36.8349    0.7826  -14.0346 N   0  0  0  0  0  0  0  0  0  0  0  0
  -37.5791    0.1289  -12.9653 C   0  0  0  0  0  0  0  0  0  0  0  0
  -37.0050    3.2164  -17.2092 H   0  0  0  0  0  0  0  0  0  0  0  0
  -31.8788    4.1992  -16.8383 H   0  0  0  0  0  0  0  0  0  0  0  0
  -30.0958    4.9911  -22.3659 H   0  0  0  0  0  0  0  0  0  0  0  0
  -29.8192    3.2207  -22.0938 H   0  0  0  0  0  0  0  0  0  0  0  0
  -29.9942    4.9277  -18.1641 H   0  0  0  0  0  0  0  0  0  0  0  0
  -30.2161    3.1492  -17.8765 H   0  0  0  0  0  0  0  0  0  0  0  0
  -21.9266    4.2760  -17.9978 H   0  0  0  0  0  0  0  0  0  0  0  0
  -26.6209    3.9698  -16.4137 H   0  0  0  0  0  0  0  0  0  0  0  0
  -34.1331    1.3057  -15.6726 H   0  0  0  0  0  0  0  0  0  0  0  0
  -24.7710    4.2239  -14.7854 H   0  0  0  0  0  0  0  0  0  0  0  0
  -22.4231    4.3588  -15.5716 H   0  0  0  0  0  0  0  0  0  0  0  0
  -23.7616    3.9858  -19.6395 H   0  0  0  0  0  0  0  0  0  0  0  0
  -27.7919    4.2235  -17.6699 H   0  0  0  0  0  0  0  0  0  0  0  0
  -28.8599    2.5820  -19.7636 H   0  0  0  0  0  0  0  0  0  0  0  0
  -27.8858    4.3209  -21.2476 H   0  0  0  0  0  0  0  0  0  0  0  0
  -28.8865    5.5615  -20.3945 H   0  0  0  0  0  0  0  0  0  0  0  0
  -32.2345    4.1611  -21.4026 H   0  0  0  0  0  0  0  0  0  0  0  0
  -37.4561    3.5786  -21.0219 H   0  0  0  0  0  0  0  0  0  0  0  0
  -36.3731    4.7444  -20.2153 H   0  0  0  0  0  0  0  0  0  0  0  0
  -38.3048    2.1063  -14.9549 H   0  0  0  0  0  0  0  0  0  0  0  0
  -37.1946    0.4666  -11.9915 H   0  0  0  0  0  0  0  0  0  0  0  0
  -38.6448    0.3882  -13.0486 H   0  0  0  0  0  0  0  0  0  0  0  0
  -37.4593   -0.9614  -13.0486 H   0  0  0  0  0  0  0  0  0  0  0  0
  1 26  1  0
  1 27  1  0
  2  4  2  0
  2  5  1  0
  3  4  1  0
  3 23  2  0
  4  7  1  0
  5  6  1  0
  5 26  2  0
  6 24  1  0
  6 25  2  0
  7  9  1  0
  7 22  2  0
  8 21  1  0
  8 22  1  0
  9 20  1  0
 10 12  1  0
 10 15  1  0
 10 18  2  0
 11 17  2  0
 11 18  1  0
 12 16  2  0
 13 27  1  0
 13 29  2  0
 14 15  2  0
 15 19  1  0
 16 17  1  0
 20 19  1  0
 20 21  1  0
 23 26  1  0
 27 28  2  0
 28 30  1  0
 29 30  1  0
 30 31  1  0
  1 32  1  0
  3 33  1  0
  8 34  1  0
  8 35  1  0
  9 36  1  0
  9 37  1  0
 11 38  1  0
 12 39  1  0
 13 40  1  0
 16 41  1  0
 17 42  1  0
 18 43  1  0
 19 44  1  0
 20 45  1  6
 21 46  1  0
 21 47  1  0
 22 48  1  0
 24 49  1  0
 24 50  1  0
 28 51  1  0
 31 52  1  0
 31 53  1  0
 31 54  1  0
M  END
>  <filename_input>  (10) 
7SIU_9ID_docked.sdf

>  <pdb_id>  (10) 
7SIU_9ID

>  <pose_rank>  (10) 
9

>  <num_atoms_heavy>  (10) 
31

>  <num_torsions>  (10) 
6

>  <pose>  (10) 
[-33.70005460024086, 3.415086266305309, -19.54360348199729, 1.0485921762937358, -4.657736713555693, -0.5888557090661537, -8.901488644876183, 0.5095371672346527, 2.77550299194604, -1.4998345639778758, -0.8311842832376549, -3.2094587609327485]

>  <energy>  (10) 
-562.8531547430531

>  <inter_energy>  (10) 
-617.5059444752768

>  <intra_energy>  (10) 
26.83741221021318

>  <rmsd>  (10) 
5.84401

>  <sdf_rank>  (10) 
0

$$$$

     RDKit          3D

 54 57  0  0  0  0  0  0  0  0999 V2000
  -35.8995    4.0570  -21.9792 N   0  0  0  0  0  0  0  0  0  0  0  0
  -33.2271    3.6559  -19.4809 N   0  0  0  0  0  0  0  0  0  0  0  0
  -32.4502    4.7850  -21.4143 C   0  0  0  0  0  0  0  0  0  0  0  0
  -32.2438    4.2956  -20.1270 C   0  0  0  0  0  0  0  0  0  0  0  0
  -34.4144    3.5428  -20.0865 C   0  0  0  0  0  0  0  0  0  0  0  0
  -35.4765    2.8123  -19.2938 C   0  0  0  0  0  0  0  0  0  0  0  0
  -30.9795    4.5121  -19.4104 C   0  0  0  0  0  0  0  0  0  0  0  0
  -28.5048    5.0338  -19.4119 C   0  0  0  0  0  0  0  0  0  0  0  0
  -30.9850    4.2809  -17.9155 C   0  0  0  0  0  0  0  0  0  0  0  0
  -29.4899    3.1382  -13.6899 C   0  0  0  0  0  0  0  0  0  0  0  0
  -30.8148    3.3521  -11.6886 C   0  0  0  0  0  0  0  0  0  0  0  0
  -28.3446    3.3521  -12.9290 C   0  0  0  0  0  0  0  0  0  0  0  0
  -35.3287    4.1973  -24.3486 C   0  0  0  0  0  0  0  0  0  0  0  0
  -29.0598    1.9022  -15.6706 O   0  0  0  0  0  0  0  0  0  0  0  0
  -29.3761    2.9776  -15.1693 C   0  0  0  0  0  0  0  0  0  0  0  0
  -28.4423    3.5856  -11.5691 C   0  0  0  0  0  0  0  0  0  0  0  0
  -29.6760    3.5921  -10.9494 C   0  0  0  0  0  0  0  0  0  0  0  0
  -30.7289    3.1278  -13.0522 C   0  0  0  0  0  0  0  0  0  0  0  0
  -29.6150    4.0674  -15.9088 N   0  0  0  0  0  0  0  0  0  0  0  0
  -29.5775    4.0427  -17.3677 C   0  0  2  0  0  0  0  0  0  0  0  0
  -28.6278    5.1096  -17.8925 C   0  0  0  0  0  0  0  0  0  0  0  0
  -29.8478    4.8931  -20.0694 C   0  0  0  0  0  0  0  0  0  0  0  0
  -33.6352    4.6864  -22.0347 N   0  0  0  0  0  0  0  0  0  0  0  0
  -35.8299    1.6070  -19.7543 N   0  0  0  0  0  0  0  0  0  0  0  0
  -35.9620    3.3057  -18.2505 O   0  0  0  0  0  0  0  0  0  0  0  0
  -34.6379    4.0800  -21.3713 C   0  0  0  0  0  0  0  0  0  0  0  0
  -36.2246    4.4142  -23.2954 C   0  0  0  0  0  0  0  0  0  0  0  0
  -37.2924    5.0686  -23.8331 C   0  0  0  0  0  0  0  0  0  0  0  0
  -35.8004    4.7040  -25.4772 N   0  0  0  0  0  0  0  0  0  0  0  0
  -37.0202    5.2356  -25.1318 N   0  0  0  0  0  0  0  0  0  0  0  0
  -37.8586    5.8705  -26.1410 C   0  0  0  0  0  0  0  0  0  0  0  0
  -36.6817    3.7399  -21.3889 H   0  0  0  0  0  0  0  0  0  0  0  0
  -31.6134    5.2684  -21.9398 H   0  0  0  0  0  0  0  0  0  0  0  0
  -28.0230    5.9527  -19.7773 H   0  0  0  0  0  0  0  0  0  0  0  0
  -27.9039    4.1477  -19.6645 H   0  0  0  0  0  0  0  0  0  0  0  0
  -31.4137    5.1650  -17.4210 H   0  0  0  0  0  0  0  0  0  0  0  0
  -31.5853    3.3816  -17.7129 H   0  0  0  0  0  0  0  0  0  0  0  0
  -31.7965    3.3389  -11.1926 H   0  0  0  0  0  0  0  0  0  0  0  0
  -27.3562    3.3353  -13.4116 H   0  0  0  0  0  0  0  0  0  0  0  0
  -34.3644    3.6770  -24.2519 H   0  0  0  0  0  0  0  0  0  0  0  0
  -27.5323    3.7672  -10.9784 H   0  0  0  0  0  0  0  0  0  0  0  0
  -29.7501    3.7880   -9.8695 H   0  0  0  0  0  0  0  0  0  0  0  0
  -31.6429    2.9405  -13.6348 H   0  0  0  0  0  0  0  0  0  0  0  0
  -29.8327    4.9540  -15.4320 H   0  0  0  0  0  0  0  0  0  0  0  0
  -29.2150    3.0591  -17.7013 H   0  0  0  0  0  0  0  0  0  0  0  0
  -27.6349    4.9596  -17.4434 H   0  0  0  0  0  0  0  0  0  0  0  0
  -29.0278    6.0980  -17.6224 H   0  0  0  0  0  0  0  0  0  0  0  0
  -29.9230    5.1102  -21.1452 H   0  0  0  0  0  0  0  0  0  0  0  0
  -36.5477    1.0573  -19.2608 H   0  0  0  0  0  0  0  0  0  0  0  0
  -35.3843    1.2287  -20.6024 H   0  0  0  0  0  0  0  0  0  0  0  0
  -38.1994    5.3951  -23.3032 H   0  0  0  0  0  0  0  0  0  0  0  0
  -38.6419    6.4637  -25.6467 H   0  0  0  0  0  0  0  0  0  0  0  0
  -37.2410    6.5294  -26.7691 H   0  0  0  0  0  0  0  0  0  0  0  0
  -38.3254    5.0974  -26.7691 H   0  0  0  0  0  0  0  0  0  0  0  0
  1 26  1  0
  1 27  1  0
  2  4  2  0
  2  5  1  0
  3  4  1  0
  3 23  2  0
  4  7  1  0
  5  6  1  0
  5 26  2  0
  6 24  1  0
  6 25  2  0
  7  9  1  0
  7 22  2  0
  8 21  1  0
  8 22  1  0
  9 20  1  0
 10 12  1  0
 10 15  1  0
 10 18  2  0
 11 17  2  0
 11 18  1  0
 12 16  2  0
 13 27  1  0
 13 29  2  0
 14 15  2  0
 15 19  1  0
 16 17  1  0
 20 19  1  0
 20 21  1  0
 23 26  1  0
 27 28  2  0
 28 30  1  0
 29 30  1  0
 30 31  1  0
  1 32  1  0
  3 33  1  0
  8 34  1  0
  8 35  1  0
  9 36  1  0
  9 37  1  0
 11 38  1  0
 12 39  1  0
 13 40  1  0
 16 41  1  0
 17 42  1  0
 18 43  1  0
 19 44  1  0
 20 45  1  1
 21 46  1  0
 21 47  1  0
 22 48  1  0
 24 49  1  0
 24 50  1  0
 28 51  1  0
 31 52  1  0
 31 53  1  0
 31 54  1  0
M  END
>  <filename_input>  (11) 
7SIU_9ID_docked.sdf

>  <pdb_id>  (11) 
7SIU_9ID

>  <pose_rank>  (11) 
10

>  <num_atoms_heavy>  (11) 
31

>  <num_torsions>  (11) 
6

>  <pose>  (11) 
[-33.227121174608214, 3.6558805518827766, -19.48093737125889, 2.7432284420739017, -0.10457437615025886, 2.3317547308716384, -0.005809640751200527, -0.6420281473817454, 0.7886369013478554, -1.9976634886595919, 0.12836517901907404, -2.4189659447268945]

>  <energy>  (11) 
-701.9467845567008

>  <inter_energy>  (11) 
-688.2411260758619

>  <intra_energy>  (11) 
21.294370343159

>  <rmsd>  (11) 
5.12671

>  <sdf_rank>  (11) 
0

$$$$

     RDKit          3D

 54 57  0  0  0  0  0  0  0  0999 V2000
  -36.1835    3.8942  -22.3477 N   0  0  0  0  0  0  0  0  0  0  0  0
  -33.7091    3.5006  -19.6521 N   0  0  0  0  0  0  0  0  0  0  0  0
  -32.8471    4.7887  -21.4448 C   0  0  0  0  0  0  0  0  0  0  0  0
  -32.7182    4.2352  -20.1735 C   0  0  0  0  0  0  0  0  0  0  0  0
  -34.8319    3.3546  -20.3642 C   0  0  0  0  0  0  0  0  0  0  0  0
  -35.9077    2.5159  -19.7088 C   0  0  0  0  0  0  0  0  0  0  0  0
  -31.5347    4.4820  -19.3386 C   0  0  0  0  0  0  0  0  0  0  0  0
  -29.0796    5.0419  -19.1028 C   0  0  0  0  0  0  0  0  0  0  0  0
  -31.6858    4.2732  -17.8480 C   0  0  0  0  0  0  0  0  0  0  0  0
  -30.6758    3.2054  -13.4853 C   0  0  0  0  0  0  0  0  0  0  0  0
  -32.1532    3.1817  -11.5818 C   0  0  0  0  0  0  0  0  0  0  0  0
  -29.6674    3.7092  -12.6694 C   0  0  0  0  0  0  0  0  0  0  0  0
  -35.3707    4.5695  -24.5484 C   0  0  0  0  0  0  0  0  0  0  0  0
  -30.1242    1.9200  -15.4034 O   0  0  0  0  0  0  0  0  0  0  0  0
  -30.4234    3.0189  -14.9443 C   0  0  0  0  0  0  0  0  0  0  0  0
  -29.9125    3.9658  -11.3324 C   0  0  0  0  0  0  0  0  0  0  0  0
  -31.1555    3.7086  -10.7893 C   0  0  0  0  0  0  0  0  0  0  0  0
  -31.9214    2.9312  -12.9237 C   0  0  0  0  0  0  0  0  0  0  0  0
  -30.5195    4.1112  -15.7118 N   0  0  0  0  0  0  0  0  0  0  0  0
  -30.3366    4.0651  -17.1592 C   0  0  2  0  0  0  0  0  0  0  0  0
  -29.3543    5.1387  -17.6045 C   0  0  0  0  0  0  0  0  0  0  0  0
  -30.3484    4.8706  -19.8880 C   0  0  0  0  0  0  0  0  0  0  0  0
  -33.9674    4.6583  -22.1706 N   0  0  0  0  0  0  0  0  0  0  0  0
  -35.9399    1.2242  -20.0554 N   0  0  0  0  0  0  0  0  0  0  0  0
  -36.6927    3.0092  -18.8673 O   0  0  0  0  0  0  0  0  0  0  0  0
  -34.9811    3.9547  -21.6318 C   0  0  0  0  0  0  0  0  0  0  0  0
  -36.4241    4.3275  -23.6592 C   0  0  0  0  0  0  0  0  0  0  0  0
  -37.5646    4.6847  -24.3145 C   0  0  0  0  0  0  0  0  0  0  0  0
  -35.8243    5.0676  -25.6882 N   0  0  0  0  0  0  0  0  0  0  0  0
  -37.1873    5.1263  -25.5192 N   0  0  0  0  0  0  0  0  0  0  0  0
  -38.0421    5.6101  -26.5961 C   0  0  0  0  0  0  0  0  0  0  0  0
  -36.9866    3.4823  -21.8515 H   0  0  0  0  0  0  0  0  0  0  0  0
  -32.0020    5.3517  -21.8678 H   0  0  0  0  0  0  0  0  0  0  0  0
  -28.5767    5.9626  -19.4336 H   0  0  0  0  0  0  0  0  0  0  0  0
  -28.4442    4.1616  -19.2797 H   0  0  0  0  0  0  0  0  0  0  0  0
  -32.1739    5.1580  -17.4131 H   0  0  0  0  0  0  0  0  0  0  0  0
  -32.2906    3.3679  -17.6912 H   0  0  0  0  0  0  0  0  0  0  0  0
  -33.1383    2.9592  -11.1458 H   0  0  0  0  0  0  0  0  0  0  0  0
  -28.6699    3.9046  -13.0900 H   0  0  0  0  0  0  0  0  0  0  0  0
  -34.3107    4.3727  -24.3301 H   0  0  0  0  0  0  0  0  0  0  0  0
  -29.1130    4.3769  -10.6987 H   0  0  0  0  0  0  0  0  0  0  0  0
  -31.3492    3.9232   -9.7280 H   0  0  0  0  0  0  0  0  0  0  0  0
  -32.7241    2.5139  -13.5493 H   0  0  0  0  0  0  0  0  0  0  0  0
  -30.7298    5.0155  -15.2657 H   0  0  0  0  0  0  0  0  0  0  0  0
  -29.9291    3.0825  -17.4389 H   0  0  0  0  0  0  0  0  0  0  0  0
  -28.4091    5.0108  -17.0566 H   0  0  0  0  0  0  0  0  0  0  0  0
  -29.7930    6.1247  -17.3919 H   0  0  0  0  0  0  0  0  0  0  0  0
  -30.3192    5.0703  -20.9694 H   0  0  0  0  0  0  0  0  0  0  0  0
  -36.6480    0.5985  -19.6453 H   0  0  0  0  0  0  0  0  0  0  0  0
  -35.2568    0.8554  -20.7322 H   0  0  0  0  0  0  0  0  0  0  0  0
  -38.5927    4.6221  -23.9285 H   0  0  0  0  0  0  0  0  0  0  0  0
  -38.9240    6.1092  -26.1681 H   0  0  0  0  0  0  0  0  0  0  0  0
  -37.4814    6.3247  -27.2164 H   0  0  0  0  0  0  0  0  0  0  0  0
  -38.3661    4.7614  -27.2164 H   0  0  0  0  0  0  0  0  0  0  0  0
  1 26  1  0
  1 27  1  0
  2  4  2  0
  2  5  1  0
  3  4  1  0
  3 23  2  0
  4  7  1  0
  5  6  1  0
  5 26  2  0
  6 24  1  0
  6 25  2  0
  7  9  1  0
  7 22  2  0
  8 21  1  0
  8 22  1  0
  9 20  1  0
 10 12  1  0
 10 15  1  0
 10 18  2  0
 11 17  2  0
 11 18  1  0
 12 16  2  0
 13 27  1  0
 13 29  2  0
 14 15  2  0
 15 19  1  0
 16 17  1  0
 20 19  1  0
 20 21  1  0
 23 26  1  0
 27 28  2  0
 28 30  1  0
 29 30  1  0
 30 31  1  0
  1 32  1  0
  3 33  1  0
  8 34  1  0
  8 35  1  0
  9 36  1  0
  9 37  1  0
 11 38  1  0
 12 39  1  0
 13 40  1  0
 16 41  1  0
 17 42  1  0
 18 43  1  0
 19 44  1  0
 20 45  1  1
 21 46  1  0
 21 47  1  0
 22 48  1  0
 24 49  1  0
 24 50  1  0
 28 51  1  0
 31 52  1  0
 31 53  1  0
 31 54  1  0
M  END
>  <filename_input>  (12) 
7SIU_9ID_docked.sdf

>  <pdb_id>  (12) 
7SIU_9ID

>  <pose_rank>  (12) 
11

>  <num_atoms_heavy>  (12) 
31

>  <num_torsions>  (12) 
6

>  <pose>  (12) 
[-33.70913860047663, 3.5005724561143863, -19.652056628596544, 2.7097621527880245, -0.05342771572097977, 2.5012831796361783, -0.09446239801103114, -0.7175770208168962, 1.0872193526676404, -1.7407467883907533, 0.11174833676571683, -2.702319416869132]

>  <energy>  (12) 
-703.1864034334277

>  <inter_energy>  (12) 
-734.9260127958892

>  <intra_energy>  (12) 
26.52600267138176

>  <rmsd>  (12) 
5.59128

>  <sdf_rank>  (12) 
0

$$$$

     RDKit          3D

 54 57  0  0  0  0  0  0  0  0999 V2000
  -35.5133    3.4324  -21.7575 N   0  0  0  0  0  0  0  0  0  0  0  0
  -33.4668    2.6682  -18.7957 N   0  0  0  0  0  0  0  0  0  0  0  0
  -32.5810    4.4943  -20.0193 C   0  0  0  0  0  0  0  0  0  0  0  0
  -32.5563    3.6428  -18.9178 C   0  0  0  0  0  0  0  0  0  0  0  0
  -34.4172    2.5682  -19.7316 C   0  0  0  0  0  0  0  0  0  0  0  0
  -35.4123    1.4472  -19.5240 C   0  0  0  0  0  0  0  0  0  0  0  0
  -31.5848    3.8141  -17.8290 C   0  0  0  0  0  0  0  0  0  0  0  0
  -31.0541    4.1506  -15.3792 C   0  0  0  0  0  0  0  0  0  0  0  0
  -30.1271    3.9304  -18.2164 C   0  0  0  0  0  0  0  0  0  0  0  0
  -25.9748    3.9446  -18.8274 C   0  0  0  0  0  0  0  0  0  0  0  0
  -23.7256    4.1284  -17.9828 C   0  0  0  0  0  0  0  0  0  0  0  0
  -25.4563    3.6168  -20.0764 C   0  0  0  0  0  0  0  0  0  0  0  0
  -34.2678    4.2193  -23.7041 C   0  0  0  0  0  0  0  0  0  0  0  0
  -28.2246    3.8730  -19.5817 O   0  0  0  0  0  0  0  0  0  0  0  0
  -27.4506    4.0795  -18.6511 C   0  0  0  0  0  0  0  0  0  0  0  0
  -24.0881    3.5701  -20.2751 C   0  0  0  0  0  0  0  0  0  0  0  0
  -23.2225    3.8315  -19.2317 C   0  0  0  0  0  0  0  0  0  0  0  0
  -25.0933    4.1882  -17.7760 C   0  0  0  0  0  0  0  0  0  0  0  0
  -27.8757    4.4557  -17.4389 N   0  0  0  0  0  0  0  0  0  0  0  0
  -29.2931    4.5883  -17.1167 C   0  0  2  0  0  0  0  0  0  0  0  0
  -29.5955    3.9373  -15.7748 C   0  0  0  0  0  0  0  0  0  0  0  0
  -31.9842    3.8777  -16.5264 C   0  0  0  0  0  0  0  0  0  0  0  0
  -33.5297    4.4132  -20.9640 N   0  0  0  0  0  0  0  0  0  0  0  0
  -35.4232    0.8872  -18.3091 N   0  0  0  0  0  0  0  0  0  0  0  0
  -36.1966    1.0984  -20.4355 O   0  0  0  0  0  0  0  0  0  0  0  0
  -34.4707    3.4605  -20.8226 C   0  0  0  0  0  0  0  0  0  0  0  0
  -35.4616    3.7915  -23.1117 C   0  0  0  0  0  0  0  0  0  0  0  0
  -36.4251    3.9118  -24.0681 C   0  0  0  0  0  0  0  0  0  0  0  0
  -34.4759    4.6034  -24.9539 N   0  0  0  0  0  0  0  0  0  0  0  0
  -35.8203    4.4001  -25.1565 N   0  0  0  0  0  0  0  0  0  0  0  0
  -36.4219    4.6936  -26.4512 C   0  0  0  0  0  0  0  0  0  0  0  0
  -36.4269    3.1093  -21.4085 H   0  0  0  0  0  0  0  0  0  0  0  0
  -31.7964    5.2589  -20.1180 H   0  0  0  0  0  0  0  0  0  0  0  0
  -31.3018    3.4719  -14.5497 H   0  0  0  0  0  0  0  0  0  0  0  0
  -31.1786    5.2012  -15.0780 H   0  0  0  0  0  0  0  0  0  0  0  0
  -29.7294    2.9231  -18.4092 H   0  0  0  0  0  0  0  0  0  0  0  0
  -30.0636    4.5619  -19.1149 H   0  0  0  0  0  0  0  0  0  0  0  0
  -23.0368    4.3188  -17.1466 H   0  0  0  0  0  0  0  0  0  0  0  0
  -26.1380    3.3937  -20.9104 H   0  0  0  0  0  0  0  0  0  0  0  0
  -33.2902    4.2342  -23.2000 H   0  0  0  0  0  0  0  0  0  0  0  0
  -23.6877    3.3234  -21.2695 H   0  0  0  0  0  0  0  0  0  0  0  0
  -22.1353    3.8029  -19.3963 H   0  0  0  0  0  0  0  0  0  0  0  0
  -25.4859    4.4291  -16.7771 H   0  0  0  0  0  0  0  0  0  0  0  0
  -27.1785    4.6586  -16.7083 H   0  0  0  0  0  0  0  0  0  0  0  0
  -29.5484    5.6562  -17.0511 H   0  0  0  0  0  0  0  0  0  0  0  0
  -28.9458    4.3803  -15.0057 H   0  0  0  0  0  0  0  0  0  0  0  0
  -29.4102    2.8564  -15.8603 H   0  0  0  0  0  0  0  0  0  0  0  0
  -33.0497    3.7199  -16.3031 H   0  0  0  0  0  0  0  0  0  0  0  0
  -36.0770    0.1187  -18.1021 H   0  0  0  0  0  0  0  0  0  0  0  0
  -34.7778    1.2246  -17.5807 H   0  0  0  0  0  0  0  0  0  0  0  0
  -37.4903    3.6575  -23.9652 H   0  0  0  0  0  0  0  0  0  0  0  0
  -37.4013    5.1713  -26.3006 H   0  0  0  0  0  0  0  0  0  0  0  0
  -35.7655    5.3727  -27.0151 H   0  0  0  0  0  0  0  0  0  0  0  0
  -36.5531    3.7582  -27.0151 H   0  0  0  0  0  0  0  0  0  0  0  0
  1 26  1  0
  1 27  1  0
  2  4  2  0
  2  5  1  0
  3  4  1  0
  3 23  2  0
  4  7  1  0
  5  6  1  0
  5 26  2  0
  6 24  1  0
  6 25  2  0
  7  9  1  0
  7 22  2  0
  8 21  1  0
  8 22  1  0
  9 20  1  0
 10 12  1  0
 10 15  1  0
 10 18  2  0
 11 17  2  0
 11 18  1  0
 12 16  2  0
 13 27  1  0
 13 29  2  0
 14 15  2  0
 15 19  1  0
 16 17  1  0
 20 19  1  0
 20 21  1  0
 23 26  1  0
 27 28  2  0
 28 30  1  0
 29 30  1  0
 30 31  1  0
  1 32  1  0
  3 33  1  0
  8 34  1  0
  8 35  1  0
  9 36  1  0
  9 37  1  0
 11 38  1  0
 12 39  1  0
 13 40  1  0
 16 41  1  0
 17 42  1  0
 18 43  1  0
 19 44  1  0
 20 45  1  1
 21 46  1  0
 21 47  1  0
 22 48  1  0
 24 49  1  0
 24 50  1  0
 28 51  1  0
 31 52  1  0
 31 53  1  0
 31 54  1  0
M  END
>  <filename_input>  (13) 
7SIU_9ID_docked.sdf

>  <pdb_id>  (13) 
7SIU_9ID

>  <pose_rank>  (13) 
12

>  <num_atoms_heavy>  (13) 
31

>  <num_torsions>  (13) 
6

>  <pose>  (13) 
[-33.46680739452542, 2.6682439689368884, -18.79573791881328, 6.795600130270208, -0.18393513895100566, 7.699383309238092, 2.522900263557756, -2.38215421983932, -0.5987738559558209, 0.1779105433913103, 0.5082280472814155, -2.9779683925245286]

>  <energy>  (13) 
-738.6516148656577

>  <inter_energy>  (13) 
-817.645114018939

>  <intra_energy>  (13) 
85.48121352828498

>  <rmsd>  (13) 
3.27089

>  <sdf_rank>  (13) 
0

$$$$

     RDKit          3D

 54 57  0  0  0  0  0  0  0  0999 V2000
  -27.1089    4.3684  -17.1237 N   0  0  0  0  0  0  0  0  0  0  0  0
  -30.7135    4.1607  -17.8363 N   0  0  0  0  0  0  0  0  0  0  0  0
  -29.4517    4.4903  -19.8151 C   0  0  0  0  0  0  0  0  0  0  0  0
  -30.6661    4.2704  -19.1703 C   0  0  0  0  0  0  0  0  0  0  0  0
  -29.5646    4.2232  -17.1543 C   0  0  0  0  0  0  0  0  0  0  0  0
  -29.6968    4.0869  -15.6529 C   0  0  0  0  0  0  0  0  0  0  0  0
  -31.9177    4.0893  -19.9183 C   0  0  0  0  0  0  0  0  0  0  0  0
  -33.3413    4.4998  -21.9680 C   0  0  0  0  0  0  0  0  0  0  0  0
  -33.0445    3.3665  -19.2139 C   0  0  0  0  0  0  0  0  0  0  0  0
  -37.6232    2.0700  -18.6527 C   0  0  0  0  0  0  0  0  0  0  0  0
  -39.7986    1.4168  -17.8481 C   0  0  0  0  0  0  0  0  0  0  0  0
  -37.1011    0.8876  -18.1374 C   0  0  0  0  0  0  0  0  0  0  0  0
  -25.4233    3.1548  -18.4065 C   0  0  0  0  0  0  0  0  0  0  0  0
  -37.1508    4.0865  -19.8130 O   0  0  0  0  0  0  0  0  0  0  0  0
  -36.7128    3.0633  -19.2944 C   0  0  0  0  0  0  0  0  0  0  0  0
  -37.9188   -0.0038  -17.4664 C   0  0  0  0  0  0  0  0  0  0  0  0
  -39.2652    0.2623  -17.3157 C   0  0  0  0  0  0  0  0  0  0  0  0
  -38.9868    2.3207  -18.5122 C   0  0  0  0  0  0  0  0  0  0  0  0
  -35.4075    2.7668  -19.2912 N   0  0  0  0  0  0  0  0  0  0  0  0
  -34.4027    3.6667  -19.8488 C   0  0  2  0  0  0  0  0  0  0  0  0
  -34.3193    3.4988  -21.3590 C   0  0  0  0  0  0  0  0  0  0  0  0
  -32.0589    4.5646  -21.1889 C   0  0  0  0  0  0  0  0  0  0  0  0
  -28.2893    4.5495  -19.1486 N   0  0  0  0  0  0  0  0  0  0  0  0
  -29.8476    2.8424  -15.1859 N   0  0  0  0  0  0  0  0  0  0  0  0
  -29.6325    5.0869  -14.9022 O   0  0  0  0  0  0  0  0  0  0  0  0
  -28.3289    4.3985  -17.8112 C   0  0  0  0  0  0  0  0  0  0  0  0
  -25.8198    4.2750  -17.6669 C   0  0  0  0  0  0  0  0  0  0  0  0
  -24.7182    5.0706  -17.5616 C   0  0  0  0  0  0  0  0  0  0  0  0
  -24.1418    3.2357  -18.7293 N   0  0  0  0  0  0  0  0  0  0  0  0
  -23.7283    4.4338  -18.1968 N   0  0  0  0  0  0  0  0  0  0  0  0
  -22.3532    4.8828  -18.3751 C   0  0  0  0  0  0  0  0  0  0  0  0
  -27.1656    4.4212  -16.0966 H   0  0  0  0  0  0  0  0  0  0  0  0
  -29.4455    4.6198  -20.9075 H   0  0  0  0  0  0  0  0  0  0  0  0
  -33.1163    4.1958  -23.0009 H   0  0  0  0  0  0  0  0  0  0  0  0
  -33.8087    5.4953  -21.9442 H   0  0  0  0  0  0  0  0  0  0  0  0
  -32.8595    2.2835  -19.2665 H   0  0  0  0  0  0  0  0  0  0  0  0
  -33.0724    3.7152  -18.1710 H   0  0  0  0  0  0  0  0  0  0  0  0
  -40.8745    1.6209  -17.7446 H   0  0  0  0  0  0  0  0  0  0  0  0
  -36.0323    0.6605  -18.2643 H   0  0  0  0  0  0  0  0  0  0  0  0
  -26.0859    2.3211  -18.6820 H   0  0  0  0  0  0  0  0  0  0  0  0
  -37.4941   -0.9294  -17.0506 H   0  0  0  0  0  0  0  0  0  0  0  0
  -39.9100   -0.4445  -16.7729 H   0  0  0  0  0  0  0  0  0  0  0  0
  -39.4203    3.2409  -18.9309 H   0  0  0  0  0  0  0  0  0  0  0  0
  -35.1017    1.8728  -18.8812 H   0  0  0  0  0  0  0  0  0  0  0  0
  -34.6893    4.7058  -19.6292 H   0  0  0  0  0  0  0  0  0  0  0  0
  -35.3165    3.6599  -21.7944 H   0  0  0  0  0  0  0  0  0  0  0  0
  -33.9621    2.4820  -21.5791 H   0  0  0  0  0  0  0  0  0  0  0  0
  -31.1824    5.0220  -21.6712 H   0  0  0  0  0  0  0  0  0  0  0  0
  -29.9432    2.6805  -14.1732 H   0  0  0  0  0  0  0  0  0  0  0  0
  -29.8682    2.0462  -15.8390 H   0  0  0  0  0  0  0  0  0  0  0  0
  -24.6556    6.0445  -17.0542 H   0  0  0  0  0  0  0  0  0  0  0  0
  -21.8867    5.0351  -17.3906 H   0  0  0  0  0  0  0  0  0  0  0  0
  -21.7888    4.1222  -18.9346 H   0  0  0  0  0  0  0  0  0  0  0  0
  -22.3463    5.8298  -18.9346 H   0  0  0  0  0  0  0  0  0  0  0  0
  1 26  1  0
  1 27  1  0
  2  4  2  0
  2  5  1  0
  3  4  1  0
  3 23  2  0
  4  7  1  0
  5  6  1  0
  5 26  2  0
  6 24  1  0
  6 25  2  0
  7  9  1  0
  7 22  2  0
  8 21  1  0
  8 22  1  0
  9 20  1  0
 10 12  1  0
 10 15  1  0
 10 18  2  0
 11 17  2  0
 11 18  1  0
 12 16  2  0
 13 27  1  0
 13 29  2  0
 14 15  2  0
 15 19  1  0
 16 17  1  0
 20 19  1  0
 20 21  1  0
 23 26  1  0
 27 28  2  0
 28 30  1  0
 29 30  1  0
 30 31  1  0
  1 32  1  0
  3 33  1  0
  8 34  1  0
  8 35  1  0
  9 36  1  0
  9 37  1  0
 11 38  1  0
 12 39  1  0
 13 40  1  0
 16 41  1  0
 17 42  1  0
 18 43  1  0
 19 44  1  0
 20 45  1  6
 21 46  1  0
 21 47  1  0
 22 48  1  0
 24 49  1  0
 24 50  1  0
 28 51  1  0
 31 52  1  0
 31 53  1  0
 31 54  1  0
M  END
>  <filename_input>  (14) 
7SIU_9ID_docked.sdf

>  <pdb_id>  (14) 
7SIU_9ID

>  <pose_rank>  (14) 
13

>  <num_atoms_heavy>  (14) 
31

>  <num_torsions>  (14) 
6

>  <pose>  (14) 
[-30.7134837410214, 4.160686019216375, -17.836349428890703, -0.24993478862951735, 3.5589231504870127, 0.21535295855259848, -12.676641971537894, 0.12327841108637323, 2.450582126764451, 1.308557454084692, -0.2369737323403137, 2.1925211188319356]

>  <energy>  (14) 
-610.8254611800545

>  <inter_energy>  (14) 
-634.5558050784236

>  <intra_energy>  (14) 
8.683227745017678

>  <rmsd>  (14) 
10.7009

>  <sdf_rank>  (14) 
0

$$$$

     RDKit          3D

 54 57  0  0  0  0  0  0  0  0999 V2000
  -29.2118    3.8296  -20.0792 N   0  0  0  0  0  0  0  0  0  0  0  0
  -32.5169    4.0305  -21.6854 N   0  0  0  0  0  0  0  0  0  0  0  0
  -32.6408    2.9778  -19.5657 C   0  0  0  0  0  0  0  0  0  0  0  0
  -33.2530    3.4807  -20.7108 C   0  0  0  0  0  0  0  0  0  0  0  0
  -31.1945    4.1211  -21.5062 C   0  0  0  0  0  0  0  0  0  0  0  0
  -30.4305    4.7573  -22.6471 C   0  0  0  0  0  0  0  0  0  0  0  0
  -34.7137    3.4865  -20.8682 C   0  0  0  0  0  0  0  0  0  0  0  0
  -36.7757    3.7391  -22.3108 C   0  0  0  0  0  0  0  0  0  0  0  0
  -35.5440    3.3455  -19.6116 C   0  0  0  0  0  0  0  0  0  0  0  0
  -38.8312    1.9557  -17.1086 C   0  0  0  0  0  0  0  0  0  0  0  0
  -39.4969    0.6367  -15.2051 C   0  0  0  0  0  0  0  0  0  0  0  0
  -39.9353    2.7763  -16.8992 C   0  0  0  0  0  0  0  0  0  0  0  0
  -29.2232    3.9970  -17.6437 C   0  0  0  0  0  0  0  0  0  0  0  0
  -37.3635    1.2756  -18.8462 O   0  0  0  0  0  0  0  0  0  0  0  0
  -37.9384    2.2007  -18.2791 C   0  0  0  0  0  0  0  0  0  0  0  0
  -40.8181    2.5109  -15.8678 C   0  0  0  0  0  0  0  0  0  0  0  0
  -40.6037    1.4389  -15.0247 C   0  0  0  0  0  0  0  0  0  0  0  0
  -38.6130    0.8873  -16.2408 C   0  0  0  0  0  0  0  0  0  0  0  0
  -37.7849    3.4755  -18.6570 N   0  0  0  0  0  0  0  0  0  0  0  0
  -36.9723    3.8544  -19.8089 C   0  0  2  0  0  0  0  0  0  0  0  0
  -37.5596    3.2733  -21.0868 C   0  0  0  0  0  0  0  0  0  0  0  0
  -35.2937    3.6258  -22.0948 C   0  0  0  0  0  0  0  0  0  0  0  0
  -31.3174    3.0655  -19.3658 N   0  0  0  0  0  0  0  0  0  0  0  0
  -30.4897    4.1209  -23.8223 N   0  0  0  0  0  0  0  0  0  0  0  0
  -29.8118    5.8348  -22.4929 O   0  0  0  0  0  0  0  0  0  0  0  0
  -30.5795    3.6548  -20.3257 C   0  0  0  0  0  0  0  0  0  0  0  0
  -28.5467    3.7644  -18.8467 C   0  0  0  0  0  0  0  0  0  0  0  0
  -27.2357    3.5887  -18.5180 C   0  0  0  0  0  0  0  0  0  0  0  0
  -28.3807    3.9865  -16.6224 N   0  0  0  0  0  0  0  0  0  0  0  0
  -27.1557    3.7281  -17.1902 N   0  0  0  0  0  0  0  0  0  0  0  0
  -25.9664    3.6165  -16.3551 C   0  0  0  0  0  0  0  0  0  0  0  0
  -28.6247    4.0300  -20.9014 H   0  0  0  0  0  0  0  0  0  0  0  0
  -33.2632    2.4925  -18.7995 H   0  0  0  0  0  0  0  0  0  0  0  0
  -37.0591    3.1184  -23.1736 H   0  0  0  0  0  0  0  0  0  0  0  0
  -37.0169    4.7970  -22.4915 H   0  0  0  0  0  0  0  0  0  0  0  0
  -35.5814    2.2833  -19.3280 H   0  0  0  0  0  0  0  0  0  0  0  0
  -35.0732    3.9513  -18.8234 H   0  0  0  0  0  0  0  0  0  0  0  0
  -39.3153   -0.2067  -14.5226 H   0  0  0  0  0  0  0  0  0  0  0  0
  -40.1071    3.6407  -17.5575 H   0  0  0  0  0  0  0  0  0  0  0  0
  -30.3068    4.1656  -17.5584 H   0  0  0  0  0  0  0  0  0  0  0  0
  -41.6955    3.1574  -15.7187 H   0  0  0  0  0  0  0  0  0  0  0  0
  -41.3134    1.2255  -14.2118 H   0  0  0  0  0  0  0  0  0  0  0  0
  -37.7343    0.2402  -16.3794 H   0  0  0  0  0  0  0  0  0  0  0  0
  -38.2564    4.2147  -18.1164 H   0  0  0  0  0  0  0  0  0  0  0  0
  -36.9628    4.9508  -19.8970 H   0  0  0  0  0  0  0  0  0  0  0  0
  -38.6053    3.6008  -21.1835 H   0  0  0  0  0  0  0  0  0  0  0  0
  -37.5027    2.1762  -21.0312 H   0  0  0  0  0  0  0  0  0  0  0  0
  -34.6379    3.6569  -22.9773 H   0  0  0  0  0  0  0  0  0  0  0  0
  -29.9916    4.5014  -24.6397 H   0  0  0  0  0  0  0  0  0  0  0  0
  -31.0333    3.2504  -23.9098 H   0  0  0  0  0  0  0  0  0  0  0  0
  -26.4068    3.3744  -19.2086 H   0  0  0  0  0  0  0  0  0  0  0  0
  -26.2588    3.6440  -15.2950 H   0  0  0  0  0  0  0  0  0  0  0  0
  -25.4552    2.6665  -16.5700 H   0  0  0  0  0  0  0  0  0  0  0  0
  -25.2875    4.4549  -16.5700 H   0  0  0  0  0  0  0  0  0  0  0  0
  1 26  1  0
  1 27  1  0
  2  4  2  0
  2  5  1  0
  3  4  1  0
  3 23  2  0
  4  7  1  0
  5  6  1  0
  5 26  2  0
  6 24  1  0
  6 25  2  0
  7  9  1  0
  7 22  2  0
  8 21  1  0
  8 22  1  0
  9 20  1  0
 10 12  1  0
 10 15  1  0
 10 18  2  0
 11 17  2  0
 11 18  1  0
 12 16  2  0
 13 27  1  0
 13 29  2  0
 14 15  2  0
 15 19  1  0
 16 17  1  0
 20 19  1  0
 20 21  1  0
 23 26  1  0
 27 28  2  0
 28 30  1  0
 29 30  1  0
 30 31  1  0
  1 32  1  0
  3 33  1  0
  8 34  1  0
  8 35  1  0
  9 36  1  0
  9 37  1  0
 11 38  1  0
 12 39  1  0
 13 40  1  0
 16 41  1  0
 17 42  1  0
 18 43  1  0
 19 44  1  0
 20 45  1  6
 21 46  1  0
 21 47  1  0
 22 48  1  0
 24 49  1  0
 24 50  1  0
 28 51  1  0
 31 52  1  0
 31 53  1  0
 31 54  1  0
M  END
>  <filename_input>  (15) 
7SIU_9ID_docked.sdf

>  <pdb_id>  (15) 
7SIU_9ID

>  <pose_rank>  (15) 
14

>  <num_atoms_heavy>  (15) 
31

>  <num_torsions>  (15) 
6

>  <pose>  (15) 
[-32.516923399261444, 4.0304662023185935, -21.68535680347576, 1.633649862034985, 0.8085337793410254, -2.702020125369839, -2.5356764641808995, -3.6257136199676148, 3.0724788447692206, -1.1583718281434294, -0.3431177314619363, -3.420849491718126]

>  <energy>  (15) 
-535.4236424397455

>  <inter_energy>  (15) 
-575.8126814529271

>  <intra_energy>  (15) 
50.53907608027632

>  <rmsd>  (15) 
10.2382

>  <sdf_rank>  (15) 
0

$$$$

     RDKit          3D

 54 57  0  0  0  0  0  0  0  0999 V2000
  -27.6244    3.0740  -19.4003 N   0  0  0  0  0  0  0  0  0  0  0  0
  -31.0504    3.4962  -18.1243 N   0  0  0  0  0  0  0  0  0  0  0  0
  -30.8794    4.1521  -20.3952 C   0  0  0  0  0  0  0  0  0  0  0  0
  -31.6366    3.9291  -19.2480 C   0  0  0  0  0  0  0  0  0  0  0  0
  -29.7370    3.2445  -18.1513 C   0  0  0  0  0  0  0  0  0  0  0  0
  -29.1467    2.7546  -16.8468 C   0  0  0  0  0  0  0  0  0  0  0  0
  -33.0963    4.0962  -19.2398 C   0  0  0  0  0  0  0  0  0  0  0  0
  -35.3043    4.1397  -18.0073 C   0  0  0  0  0  0  0  0  0  0  0  0
  -33.7777    4.2791  -20.5778 C   0  0  0  0  0  0  0  0  0  0  0  0
  -37.4249    4.1761  -23.6178 C   0  0  0  0  0  0  0  0  0  0  0  0
  -39.2779    4.7860  -25.0323 C   0  0  0  0  0  0  0  0  0  0  0  0
  -36.5587    4.4434  -24.6735 C   0  0  0  0  0  0  0  0  0  0  0  0
  -26.7317    4.7612  -17.8784 C   0  0  0  0  0  0  0  0  0  0  0  0
  -37.3240    2.6165  -21.8308 O   0  0  0  0  0  0  0  0  0  0  0  0
  -36.8831    3.6474  -22.3317 C   0  0  0  0  0  0  0  0  0  0  0  0
  -37.0545    4.8541  -25.8978 C   0  0  0  0  0  0  0  0  0  0  0  0
  -38.4129    5.0197  -26.0802 C   0  0  0  0  0  0  0  0  0  0  0  0
  -38.7928    4.3643  -23.8059 C   0  0  0  0  0  0  0  0  0  0  0  0
  -35.9146    4.3658  -21.7509 N   0  0  0  0  0  0  0  0  0  0  0  0
  -35.2683    3.9447  -20.5117 C   0  0  2  0  0  0  0  0  0  0  0  0
  -35.9050    4.6410  -19.3178 C   0  0  0  0  0  0  0  0  0  0  0  0
  -33.8054    4.0745  -18.0749 C   0  0  0  0  0  0  0  0  0  0  0  0
  -29.5631    3.8993  -20.4428 N   0  0  0  0  0  0  0  0  0  0  0  0
  -29.6636    1.6230  -16.3550 N   0  0  0  0  0  0  0  0  0  0  0  0
  -28.2062    3.3654  -16.2901 O   0  0  0  0  0  0  0  0  0  0  0  0
  -28.9784    3.4249  -19.3265 C   0  0  0  0  0  0  0  0  0  0  0  0
  -26.5389    3.7060  -18.7775 C   0  0  0  0  0  0  0  0  0  0  0  0
  -25.1904    3.5711  -18.9219 C   0  0  0  0  0  0  0  0  0  0  0  0
  -25.5705    5.2701  -17.4967 N   0  0  0  0  0  0  0  0  0  0  0  0
  -24.6306    4.5129  -18.1549 N   0  0  0  0  0  0  0  0  0  0  0  0
  -23.2095    4.7703  -17.9585 C   0  0  0  0  0  0  0  0  0  0  0  0
  -27.3994    2.2540  -19.9815 H   0  0  0  0  0  0  0  0  0  0  0  0
  -31.3775    4.5487  -21.2923 H   0  0  0  0  0  0  0  0  0  0  0  0
  -35.5956    4.8237  -17.1965 H   0  0  0  0  0  0  0  0  0  0  0  0
  -35.6846    3.1245  -17.8208 H   0  0  0  0  0  0  0  0  0  0  0  0
  -33.6623    5.3260  -20.8951 H   0  0  0  0  0  0  0  0  0  0  0  0
  -33.3068    3.5916  -21.2959 H   0  0  0  0  0  0  0  0  0  0  0  0
  -40.3588    4.9353  -25.1712 H   0  0  0  0  0  0  0  0  0  0  0  0
  -35.4738    4.3274  -24.5337 H   0  0  0  0  0  0  0  0  0  0  0  0
  -27.7138    5.1189  -17.5357 H   0  0  0  0  0  0  0  0  0  0  0  0
  -36.3627    5.0499  -26.7304 H   0  0  0  0  0  0  0  0  0  0  0  0
  -38.8038    5.3370  -27.0582 H   0  0  0  0  0  0  0  0  0  0  0  0
  -39.4904    4.1770  -22.9763 H   0  0  0  0  0  0  0  0  0  0  0  0
  -35.6150    5.2463  -22.1936 H   0  0  0  0  0  0  0  0  0  0  0  0
  -35.3963    2.8589  -20.3907 H   0  0  0  0  0  0  0  0  0  0  0  0
  -36.9863    4.4390  -19.3183 H   0  0  0  0  0  0  0  0  0  0  0  0
  -35.7145    5.7212  -19.3998 H   0  0  0  0  0  0  0  0  0  0  0  0
  -33.2468    4.0053  -17.1297 H   0  0  0  0  0  0  0  0  0  0  0  0
  -29.3061    1.2355  -15.4701 H   0  0  0  0  0  0  0  0  0  0  0  0
  -30.4189    1.1391  -16.8612 H   0  0  0  0  0  0  0  0  0  0  0  0
  -24.6658    2.8329  -19.5463 H   0  0  0  0  0  0  0  0  0  0  0  0
  -22.9896    4.8101  -16.8814 H   0  0  0  0  0  0  0  0  0  0  0  0
  -22.6232    3.9637  -18.4229 H   0  0  0  0  0  0  0  0  0  0  0  0
  -22.9433    5.7313  -18.4229 H   0  0  0  0  0  0  0  0  0  0  0  0
  1 26  1  0
  1 27  1  0
  2  4  2  0
  2  5  1  0
  3  4  1  0
  3 23  2  0
  4  7  1  0
  5  6  1  0
  5 26  2  0
  6 24  1  0
  6 25  2  0
  7  9  1  0
  7 22  2  0
  8 21  1  0
  8 22  1  0
  9 20  1  0
 10 12  1  0
 10 15  1  0
 10 18  2  0
 11 17  2  0
 11 18  1  0
 12 16  2  0
 13 27  1  0
 13 29  2  0
 14 15  2  0
 15 19  1  0
 16 17  1  0
 20 19  1  0
 20 21  1  0
 23 26  1  0
 27 28  2  0
 28 30  1  0
 29 30  1  0
 30 31  1  0
  1 32  1  0
  3 33  1  0
  8 34  1  0
  8 35  1  0
  9 36  1  0
  9 37  1  0
 11 38  1  0
 12 39  1  0
 13 40  1  0
 16 41  1  0
 17 42  1  0
 18 43  1  0
 19 44  1  0
 20 45  1  1
 21 46  1  0
 21 47  1  0
 22 48  1  0
 24 49  1  0
 24 50  1  0
 28 51  1  0
 31 52  1  0
 31 53  1  0
 31 54  1  0
M  END
>  <filename_input>  (16) 
7SIU_9ID_docked.sdf

>  <pdb_id>  (16) 
7SIU_9ID

>  <pose_rank>  (16) 
15

>  <num_atoms_heavy>  (16) 
31

>  <num_torsions>  (16) 
6

>  <pose>  (16) 
[-31.050417180481475, 3.4962282894765377, -18.12434928346777, 0.0882435184303623, 3.976718595685386, 0.8973795286432411, -2.6792797826339667, -0.1395873091204236, 3.4514352774323527, 0.9576252344878446, -4.383450966787788, -2.909030564122821]

>  <energy>  (16) 
-518.6837210134538

>  <inter_energy>  (16) 
-568.2549495259194

>  <intra_energy>  (16) 
62.93174856918791

>  <rmsd>  (16) 
10.6192

>  <sdf_rank>  (16) 
0

$$$$

     RDKit          3D

 54 57  0  0  0  0  0  0  0  0999 V2000
  -31.3386    4.3977  -18.5045 N   0  0  0  0  0  0  0  0  0  0  0  0
  -27.9513    3.8636  -17.1687 N   0  0  0  0  0  0  0  0  0  0  0  0
  -27.9383    4.0382  -19.5321 C   0  0  0  0  0  0  0  0  0  0  0  0
  -27.2669    3.9096  -18.3190 C   0  0  0  0  0  0  0  0  0  0  0  0
  -29.2820    3.9891  -17.2177 C   0  0  0  0  0  0  0  0  0  0  0  0
  -29.9857    3.9321  -15.8792 C   0  0  0  0  0  0  0  0  0  0  0  0
  -25.7997    3.8828  -18.2457 C   0  0  0  0  0  0  0  0  0  0  0  0
  -23.5549    3.2281  -19.2094 C   0  0  0  0  0  0  0  0  0  0  0  0
  -25.1612    4.4292  -16.9879 C   0  0  0  0  0  0  0  0  0  0  0  0
  -22.1486    6.5823  -14.6297 C   0  0  0  0  0  0  0  0  0  0  0  0
  -21.7152    8.4606  -13.1838 C   0  0  0  0  0  0  0  0  0  0  0  0
  -21.1544    5.8696  -13.9664 C   0  0  0  0  0  0  0  0  0  0  0  0
  -33.3594    3.5655  -19.5924 C   0  0  0  0  0  0  0  0  0  0  0  0
  -23.2038    6.6405  -16.7554 O   0  0  0  0  0  0  0  0  0  0  0  0
  -22.8511    5.9649  -15.7926 C   0  0  0  0  0  0  0  0  0  0  0  0
  -20.4374    6.4591  -12.9408 C   0  0  0  0  0  0  0  0  0  0  0  0
  -20.7123    7.7554  -12.5531 C   0  0  0  0  0  0  0  0  0  0  0  0
  -22.4316    7.8834  -14.2186 C   0  0  0  0  0  0  0  0  0  0  0  0
  -23.0914    4.6503  -15.7165 N   0  0  0  0  0  0  0  0  0  0  0  0
  -23.7348    3.9118  -16.7986 C   0  0  2  0  0  0  0  0  0  0  0  0
  -22.9479    4.0713  -18.0913 C   0  0  0  0  0  0  0  0  0  0  0  0
  -25.0485    3.3750  -19.2647 C   0  0  0  0  0  0  0  0  0  0  0  0
  -29.2712    4.1716  -19.6004 N   0  0  0  0  0  0  0  0  0  0  0  0
  -30.9322    2.9953  -15.7512 N   0  0  0  0  0  0  0  0  0  0  0  0
  -29.6658    4.7011  -14.9444 O   0  0  0  0  0  0  0  0  0  0  0  0
  -29.9585    4.1671  -18.4425 C   0  0  0  0  0  0  0  0  0  0  0  0
  -32.1740    4.3088  -19.6270 C   0  0  0  0  0  0  0  0  0  0  0  0
  -32.0449    4.7596  -20.9067 C   0  0  0  0  0  0  0  0  0  0  0  0
  -33.9298    3.5368  -20.7869 N   0  0  0  0  0  0  0  0  0  0  0  0
  -33.0973    4.2869  -21.5833 N   0  0  0  0  0  0  0  0  0  0  0  0
  -33.4208    4.5030  -22.9879 C   0  0  0  0  0  0  0  0  0  0  0  0
  -31.7942    4.6644  -17.6201 H   0  0  0  0  0  0  0  0  0  0  0  0
  -27.3563    4.0301  -20.4654 H   0  0  0  0  0  0  0  0  0  0  0  0
  -23.1287    3.5503  -20.1709 H   0  0  0  0  0  0  0  0  0  0  0  0
  -23.3204    2.1721  -19.0096 H   0  0  0  0  0  0  0  0  0  0  0  0
  -25.1354    5.5271  -17.0508 H   0  0  0  0  0  0  0  0  0  0  0  0
  -25.7611    4.0939  -16.1290 H   0  0  0  0  0  0  0  0  0  0  0  0
  -21.9473    9.4870  -12.8634 H   0  0  0  0  0  0  0  0  0  0  0  0
  -20.9375    4.8317  -14.2592 H   0  0  0  0  0  0  0  0  0  0  0  0
  -33.7622    3.0726  -18.6953 H   0  0  0  0  0  0  0  0  0  0  0  0
  -19.6441    5.8923  -12.4316 H   0  0  0  0  0  0  0  0  0  0  0  0
  -20.1332    8.2239  -11.7437 H   0  0  0  0  0  0  0  0  0  0  0  0
  -23.2278    8.4545  -14.7184 H   0  0  0  0  0  0  0  0  0  0  0  0
  -22.8126    4.1424  -14.8649 H   0  0  0  0  0  0  0  0  0  0  0  0
  -23.7631    2.8436  -16.5376 H   0  0  0  0  0  0  0  0  0  0  0  0
  -21.9095    3.7504  -17.9221 H   0  0  0  0  0  0  0  0  0  0  0  0
  -22.9805    5.1287  -18.3929 H   0  0  0  0  0  0  0  0  0  0  0  0
  -25.5670    3.0543  -20.1803 H   0  0  0  0  0  0  0  0  0  0  0  0
  -31.4492    2.9033  -14.8651 H   0  0  0  0  0  0  0  0  0  0  0  0
  -31.1439    2.3661  -16.5387 H   0  0  0  0  0  0  0  0  0  0  0  0
  -31.2348    5.3883  -21.3047 H   0  0  0  0  0  0  0  0  0  0  0  0
  -34.3331    5.1127  -23.0645 H   0  0  0  0  0  0  0  0  0  0  0  0
  -32.5876    5.0265  -23.4797 H   0  0  0  0  0  0  0  0  0  0  0  0
  -33.5857    3.5330  -23.4797 H   0  0  0  0  0  0  0  0  0  0  0  0
  1 26  1  0
  1 27  1  0
  2  4  2  0
  2  5  1  0
  3  4  1  0
  3 23  2  0
  4  7  1  0
  5  6  1  0
  5 26  2  0
  6 24  1  0
  6 25  2  0
  7  9  1  0
  7 22  2  0
  8 21  1  0
  8 22  1  0
  9 20  1  0
 10 12  1  0
 10 15  1  0
 10 18  2  0
 11 17  2  0
 11 18  1  0
 12 16  2  0
 13 27  1  0
 13 29  2  0
 14 15  2  0
 15 19  1  0
 16 17  1  0
 20 19  1  0
 20 21  1  0
 23 26  1  0
 27 28  2  0
 28 30  1  0
 29 30  1  0
 30 31  1  0
  1 32  1  0
  3 33  1  0
  8 34  1  0
  8 35  1  0
  9 36  1  0
  9 37  1  0
 11 38  1  0
 12 39  1  0
 13 40  1  0
 16 41  1  0
 17 42  1  0
 18 43  1  0
 19 44  1  0
 20 45  1  1
 21 46  1  0
 21 47  1  0
 22 48  1  0
 24 49  1  0
 24 50  1  0
 28 51  1  0
 31 52  1  0
 31 53  1  0
 31 54  1  0
M  END
>  <filename_input>  (17) 
7SIU_9ID_docked.sdf

>  <pdb_id>  (17) 
7SIU_9ID

>  <pose_rank>  (17) 
16

>  <num_atoms_heavy>  (17) 
31

>  <num_torsions>  (17) 
6

>  <pose>  (17) 
[-27.951257383361966, 3.8636282517943847, -17.168678677430357, -2.775593281237916, 0.1917463462247625, -1.5186927112982174, -0.24890622854315417, 2.5507545770485476, 3.131532304728622, -2.2299890861128637, -6.033194737063992, -0.7435150211457089]

>  <energy>  (17) 
-531.5254984550301

>  <inter_energy>  (17) 
-553.7433329997212

>  <intra_energy>  (17) 
43.643320506430264

>  <rmsd>  (17) 
6.36028

>  <sdf_rank>  (17) 
0

$$$$

     RDKit          3D

 54 57  0  0  0  0  0  0  0  0999 V2000
  -32.0962    3.7093  -16.2266 N   0  0  0  0  0  0  0  0  0  0  0  0
  -33.4850    4.0643  -19.6162 N   0  0  0  0  0  0  0  0  0  0  0  0
  -31.1152    4.0668  -19.6409 C   0  0  0  0  0  0  0  0  0  0  0  0
  -32.3378    4.0889  -20.3070 C   0  0  0  0  0  0  0  0  0  0  0  0
  -33.4201    3.9733  -18.2833 C   0  0  0  0  0  0  0  0  0  0  0  0
  -34.7557    3.9461  -17.5723 C   0  0  0  0  0  0  0  0  0  0  0  0
  -32.4201    4.0766  -21.7739 C   0  0  0  0  0  0  0  0  0  0  0  0
  -31.3098    4.1274  -24.0457 C   0  0  0  0  0  0  0  0  0  0  0  0
  -33.8018    4.1184  -22.3882 C   0  0  0  0  0  0  0  0  0  0  0  0
  -37.4805    4.2065  -24.4898 C   0  0  0  0  0  0  0  0  0  0  0  0
  -38.9954    4.6402  -26.3128 C   0  0  0  0  0  0  0  0  0  0  0  0
  -38.4051    3.3100  -23.9628 C   0  0  0  0  0  0  0  0  0  0  0  0
  -31.1482    2.6700  -14.2314 C   0  0  0  0  0  0  0  0  0  0  0  0
  -36.2301    4.8077  -22.5634 O   0  0  0  0  0  0  0  0  0  0  0  0
  -36.2159    4.4865  -23.7486 C   0  0  0  0  0  0  0  0  0  0  0  0
  -39.6177    3.1034  -24.5957 C   0  0  0  0  0  0  0  0  0  0  0  0
  -39.9163    3.7718  -25.7662 C   0  0  0  0  0  0  0  0  0  0  0  0
  -37.7832    4.8621  -25.6817 C   0  0  0  0  0  0  0  0  0  0  0  0
  -35.0790    4.3898  -24.4485 N   0  0  0  0  0  0  0  0  0  0  0  0
  -33.7690    4.5983  -23.8396 C   0  0  2  0  0  0  0  0  0  0  0  0
  -32.6979    3.8429  -24.6129 C   0  0  0  0  0  0  0  0  0  0  0  0
  -31.2965    4.0415  -22.5463 C   0  0  0  0  0  0  0  0  0  0  0  0
  -31.0306    3.9694  -18.3059 N   0  0  0  0  0  0  0  0  0  0  0  0
  -35.2769    5.1361  -17.2530 N   0  0  0  0  0  0  0  0  0  0  0  0
  -35.3424    2.8660  -17.3341 O   0  0  0  0  0  0  0  0  0  0  0  0
  -32.1821    3.9030  -17.6112 C   0  0  0  0  0  0  0  0  0  0  0  0
  -31.6200    2.5798  -15.5460 C   0  0  0  0  0  0  0  0  0  0  0  0
  -31.4113    1.2911  -15.9373 C   0  0  0  0  0  0  0  0  0  0  0  0
  -30.6549    1.5089  -13.8296 N   0  0  0  0  0  0  0  0  0  0  0  0
  -30.8327    0.6699  -14.9039 N   0  0  0  0  0  0  0  0  0  0  0  0
  -30.4237   -0.7267  -14.8223 C   0  0  0  0  0  0  0  0  0  0  0  0
  -32.4216    4.4896  -15.6384 H   0  0  0  0  0  0  0  0  0  0  0  0
  -30.1880    4.1314  -20.2291 H   0  0  0  0  0  0  0  0  0  0  0  0
  -30.6006    3.3910  -24.4516 H   0  0  0  0  0  0  0  0  0  0  0  0
  -31.0233    5.1495  -24.3341 H   0  0  0  0  0  0  0  0  0  0  0  0
  -34.2346    3.1075  -22.3581 H   0  0  0  0  0  0  0  0  0  0  0  0
  -34.4099    4.8289  -21.8090 H   0  0  0  0  0  0  0  0  0  0  0  0
  -39.2249    5.1593  -27.2550 H   0  0  0  0  0  0  0  0  0  0  0  0
  -38.1705    2.7626  -23.0380 H   0  0  0  0  0  0  0  0  0  0  0  0
  -31.1826    3.5812  -13.6161 H   0  0  0  0  0  0  0  0  0  0  0  0
  -40.3477    2.4028  -24.1641 H   0  0  0  0  0  0  0  0  0  0  0  0
  -40.8857    3.6121  -26.2610 H   0  0  0  0  0  0  0  0  0  0  0  0
  -37.0557    5.5592  -26.1231 H   0  0  0  0  0  0  0  0  0  0  0  0
  -35.1304    4.1603  -25.4513 H   0  0  0  0  0  0  0  0  0  0  0  0
  -33.5267    5.6709  -23.8665 H   0  0  0  0  0  0  0  0  0  0  0  0
  -32.7269    4.1565  -25.6669 H   0  0  0  0  0  0  0  0  0  0  0  0
  -32.8977    2.7648  -24.5257 H   0  0  0  0  0  0  0  0  0  0  0  0
  -30.3239    3.9447  -22.0417 H   0  0  0  0  0  0  0  0  0  0  0  0
  -36.1839    5.1876  -16.7677 H   0  0  0  0  0  0  0  0  0  0  0  0
  -34.7712    6.0009  -17.4925 H   0  0  0  0  0  0  0  0  0  0  0  0
  -31.6681    0.8490  -16.9113 H   0  0  0  0  0  0  0  0  0  0  0  0
  -30.3372   -1.0224  -13.7663 H   0  0  0  0  0  0  0  0  0  0  0  0
  -31.1746   -1.3583  -15.3195 H   0  0  0  0  0  0  0  0  0  0  0  0
  -29.4507   -0.8535  -15.3195 H   0  0  0  0  0  0  0  0  0  0  0  0
  1 26  1  0
  1 27  1  0
  2  4  2  0
  2  5  1  0
  3  4  1  0
  3 23  2  0
  4  7  1  0
  5  6  1  0
  5 26  2  0
  6 24  1  0
  6 25  2  0
  7  9  1  0
  7 22  2  0
  8 21  1  0
  8 22  1  0
  9 20  1  0
 10 12  1  0
 10 15  1  0
 10 18  2  0
 11 17  2  0
 11 18  1  0
 12 16  2  0
 13 27  1  0
 13 29  2  0
 14 15  2  0
 15 19  1  0
 16 17  1  0
 20 19  1  0
 20 21  1  0
 23 26  1  0
 27 28  2  0
 28 30  1  0
 29 30  1  0
 30 31  1  0
  1 32  1  0
  3 33  1  0
  8 34  1  0
  8 35  1  0
  9 36  1  0
  9 37  1  0
 11 38  1  0
 12 39  1  0
 13 40  1  0
 16 41  1  0
 17 42  1  0
 18 43  1  0
 19 44  1  0
 20 45  1  1
 21 46  1  0
 21 47  1  0
 22 48  1  0
 24 49  1  0
 24 50  1  0
 28 51  1  0
 31 52  1  0
 31 53  1  0
 31 54  1  0
M  END
>  <filename_input>  (18) 
7SIU_9ID_docked.sdf

>  <pdb_id>  (18) 
7SIU_9ID

>  <pose_rank>  (18) 
17

>  <num_atoms_heavy>  (18) 
31

>  <num_torsions>  (18) 
6

>  <pose>  (18) 
[-33.48495379613392, 4.0643318013582785, -19.616204062179364, 0.023527146392559147, -3.6948458782010425, -0.20105682062573307, 0.28839087557774484, -2.038783231383694, -1.531128259043792, -1.611096338240085, -1.2060427974520125, -0.25914254557721955]

>  <energy>  (18) 
-561.1158875943975

>  <inter_energy>  (18) 
-590.2748111692853

>  <intra_energy>  (18) 
34.65468394912934

>  <rmsd>  (18) 
10.5022

>  <sdf_rank>  (18) 
0

$$$$

     RDKit          3D

 54 57  0  0  0  0  0  0  0  0999 V2000
  -22.2755    6.2731  -13.5549 N   0  0  0  0  0  0  0  0  0  0  0  0
  -23.8724    5.7811  -16.8339 N   0  0  0  0  0  0  0  0  0  0  0  0
  -22.6119    3.8821  -16.1848 C   0  0  0  0  0  0  0  0  0  0  0  0
  -23.4705    4.5260  -17.0722 C   0  0  0  0  0  0  0  0  0  0  0  0
  -23.4639    6.3739  -15.7066 C   0  0  0  0  0  0  0  0  0  0  0  0
  -23.9619    7.7885  -15.5040 C   0  0  0  0  0  0  0  0  0  0  0  0
  -24.0131    3.8450  -18.2556 C   0  0  0  0  0  0  0  0  0  0  0  0
  -23.6902    2.4388  -20.3328 C   0  0  0  0  0  0  0  0  0  0  0  0
  -25.4833    4.0425  -18.5522 C   0  0  0  0  0  0  0  0  0  0  0  0
  -29.5522    4.2899  -19.6788 C   0  0  0  0  0  0  0  0  0  0  0  0
  -31.4500    4.3067  -21.1636 C   0  0  0  0  0  0  0  0  0  0  0  0
  -30.4185    4.0901  -18.6083 C   0  0  0  0  0  0  0  0  0  0  0  0
  -20.1985    7.4035  -12.9481 C   0  0  0  0  0  0  0  0  0  0  0  0
  -27.6708    5.2409  -18.5872 O   0  0  0  0  0  0  0  0  0  0  0  0
  -28.0898    4.4496  -19.4276 C   0  0  0  0  0  0  0  0  0  0  0  0
  -31.7843    4.0238  -18.8172 C   0  0  0  0  0  0  0  0  0  0  0  0
  -32.3013    4.1380  -20.0922 C   0  0  0  0  0  0  0  0  0  0  0  0
  -30.0821    4.3850  -20.9642 C   0  0  0  0  0  0  0  0  0  0  0  0
  -27.2696    3.7046  -20.1784 N   0  0  0  0  0  0  0  0  0  0  0  0
  -25.8198    3.7322  -20.0111 C   0  0  2  0  0  0  0  0  0  0  0  0
  -25.2138    2.3949  -20.4114 C   0  0  0  0  0  0  0  0  0  0  0  0
  -23.2201    3.0780  -19.0576 C   0  0  0  0  0  0  0  0  0  0  0  0
  -22.1972    4.4581  -15.0468 N   0  0  0  0  0  0  0  0  0  0  0  0
  -24.2502    8.4758  -16.6150 N   0  0  0  0  0  0  0  0  0  0  0  0
  -24.1219    8.2622  -14.3562 O   0  0  0  0  0  0  0  0  0  0  0  0
  -22.6327    5.7049  -14.7843 C   0  0  0  0  0  0  0  0  0  0  0  0
  -21.0153    6.2669  -12.9404 C   0  0  0  0  0  0  0  0  0  0  0  0
  -20.2885    5.2803  -12.3439 C   0  0  0  0  0  0  0  0  0  0  0  0
  -19.0207    7.1381  -12.4047 N   0  0  0  0  0  0  0  0  0  0  0  0
  -19.1027    5.8165  -12.0352 N   0  0  0  0  0  0  0  0  0  0  0  0
  -17.9801    5.1674  -11.3697 C   0  0  0  0  0  0  0  0  0  0  0  0
  -23.0283    6.7527  -13.0410 H   0  0  0  0  0  0  0  0  0  0  0  0
  -22.2623    2.8672  -16.4252 H   0  0  0  0  0  0  0  0  0  0  0  0
  -23.3006    1.4112  -20.3816 H   0  0  0  0  0  0  0  0  0  0  0  0
  -23.3195    3.0402  -21.1759 H   0  0  0  0  0  0  0  0  0  0  0  0
  -26.0694    3.3756  -17.9028 H   0  0  0  0  0  0  0  0  0  0  0  0
  -25.7291    5.0980  -18.3639 H   0  0  0  0  0  0  0  0  0  0  0  0
  -31.8596    4.3794  -22.1819 H   0  0  0  0  0  0  0  0  0  0  0  0
  -30.0149    3.9844  -17.5905 H   0  0  0  0  0  0  0  0  0  0  0  0
  -20.4946    8.3834  -13.3506 H   0  0  0  0  0  0  0  0  0  0  0  0
  -32.4620    3.8793  -17.9629 H   0  0  0  0  0  0  0  0  0  0  0  0
  -33.3886    4.0946  -20.2528 H   0  0  0  0  0  0  0  0  0  0  0  0
  -29.4105    4.5230  -21.8244 H   0  0  0  0  0  0  0  0  0  0  0  0
  -27.6754    3.0908  -20.8991 H   0  0  0  0  0  0  0  0  0  0  0  0
  -25.3979    4.5139  -20.6598 H   0  0  0  0  0  0  0  0  0  0  0  0
  -25.5140    2.1585  -21.4429 H   0  0  0  0  0  0  0  0  0  0  0  0
  -25.5783    1.6234  -19.7172 H   0  0  0  0  0  0  0  0  0  0  0  0
  -22.1754    2.9183  -18.7527 H   0  0  0  0  0  0  0  0  0  0  0  0
  -24.5939    9.4444  -16.5468 H   0  0  0  0  0  0  0  0  0  0  0  0
  -24.1286    8.0364  -17.5386 H   0  0  0  0  0  0  0  0  0  0  0  0
  -20.6132    4.2466  -12.1538 H   0  0  0  0  0  0  0  0  0  0  0  0
  -18.1077    5.2412  -10.2796 H   0  0  0  0  0  0  0  0  0  0  0  0
  -17.9423    4.1081  -11.6636 H   0  0  0  0  0  0  0  0  0  0  0  0
  -17.0432    5.6632  -11.6636 H   0  0  0  0  0  0  0  0  0  0  0  0
  1 26  1  0
  1 27  1  0
  2  4  2  0
  2  5  1  0
  3  4  1  0
  3 23  2  0
  4  7  1  0
  5  6  1  0
  5 26  2  0
  6 24  1  0
  6 25  2  0
  7  9  1  0
  7 22  2  0
  8 21  1  0
  8 22  1  0
  9 20  1  0
 10 12  1  0
 10 15  1  0
 10 18  2  0
 11 17  2  0
 11 18  1  0
 12 16  2  0
 13 27  1  0
 13 29  2  0
 14 15  2  0
 15 19  1  0
 16 17  1  0
 20 19  1  0
 20 21  1  0
 23 26  1  0
 27 28  2  0
 28 30  1  0
 29 30  1  0
 30 31  1  0
  1 32  1  0
  3 33  1  0
  8 34  1  0
  8 35  1  0
  9 36  1  0
  9 37  1  0
 11 38  1  0
 12 39  1  0
 13 40  1  0
 16 41  1  0
 17 42  1  0
 18 43  1  0
 19 44  1  0
 20 45  1  6
 21 46  1  0
 21 47  1  0
 22 48  1  0
 24 49  1  0
 24 50  1  0
 28 51  1  0
 31 52  1  0
 31 53  1  0
 31 54  1  0
M  END
>  <filename_input>  (19) 
7SIU_9ID_docked.sdf

>  <pdb_id>  (19) 
7SIU_9ID

>  <pose_rank>  (19) 
18

>  <num_atoms_heavy>  (19) 
31

>  <num_torsions>  (19) 
6

>  <pose>  (19) 
[-23.872405435108647, 5.781084505503763, -16.833861793757467, 1.0175672014484605, 2.215708114307545, -1.0901460946984582, -0.4908534465660486, -2.0900700907215572, -1.5018223143970577, -0.5420228617543202, 0.73520312881836, -1.1972811610327665]

>  <energy>  (19) 
-506.12541857441

>  <inter_energy>  (19) 
-568.5329975214587

>  <intra_energy>  (19) 
52.666765979266444

>  <rmsd>  (19) 
12.4067

>  <sdf_rank>  (19) 
0

$$$$

     RDKit          3D

 54 57  0  0  0  0  0  0  0  0999 V2000
  -33.7243    4.3392  -23.3758 N   0  0  0  0  0  0  0  0  0  0  0  0
  -36.8362    3.5186  -21.5907 N   0  0  0  0  0  0  0  0  0  0  0  0
  -35.0467    3.9107  -20.0872 C   0  0  0  0  0  0  0  0  0  0  0  0
  -36.3897    3.6376  -20.3336 C   0  0  0  0  0  0  0  0  0  0  0  0
  -35.9705    3.7130  -22.5916 C   0  0  0  0  0  0  0  0  0  0  0  0
  -36.5482    3.5666  -23.9826 C   0  0  0  0  0  0  0  0  0  0  0  0
  -37.3703    3.5324  -19.2446 C   0  0  0  0  0  0  0  0  0  0  0  0
  -39.7638    3.4832  -18.4290 C   0  0  0  0  0  0  0  0  0  0  0  0
  -36.8311    3.4871  -17.8320 C   0  0  0  0  0  0  0  0  0  0  0  0
  -36.3570    4.0814  -13.3436 C   0  0  0  0  0  0  0  0  0  0  0  0
  -36.7398    3.3081  -11.0938 C   0  0  0  0  0  0  0  0  0  0  0  0
  -34.9940    4.1383  -13.0695 C   0  0  0  0  0  0  0  0  0  0  0  0
  -31.5466    3.9912  -24.4227 C   0  0  0  0  0  0  0  0  0  0  0  0
  -36.8101    5.7095  -15.0109 O   0  0  0  0  0  0  0  0  0  0  0  0
  -36.8636    4.5299  -14.6738 C   0  0  0  0  0  0  0  0  0  0  0  0
  -34.5189    3.8051  -11.8137 C   0  0  0  0  0  0  0  0  0  0  0  0
  -35.3905    3.3962  -10.8242 C   0  0  0  0  0  0  0  0  0  0  0  0
  -37.2267    3.6494  -12.3442 C   0  0  0  0  0  0  0  0  0  0  0  0
  -37.3938    3.5859  -15.4607 N   0  0  0  0  0  0  0  0  0  0  0  0
  -37.8910    3.8779  -16.8016 C   0  0  2  0  0  0  0  0  0  0  0  0
  -39.1807    3.1152  -17.0673 C   0  0  0  0  0  0  0  0  0  0  0  0
  -38.7097    3.4900  -19.4988 C   0  0  0  0  0  0  0  0  0  0  0  0
  -34.1657    4.1149  -21.0777 N   0  0  0  0  0  0  0  0  0  0  0  0
  -37.8762    3.4224  -24.0562 N   0  0  0  0  0  0  0  0  0  0  0  0
  -35.8167    3.6140  -24.9976 O   0  0  0  0  0  0  0  0  0  0  0  0
  -34.6204    4.0366  -22.3428 C   0  0  0  0  0  0  0  0  0  0  0  0
  -32.3236    4.3596  -23.3185 C   0  0  0  0  0  0  0  0  0  0  0  0
  -31.4488    4.6026  -22.3020 C   0  0  0  0  0  0  0  0  0  0  0  0
  -30.2601    3.9854  -24.1098 N   0  0  0  0  0  0  0  0  0  0  0  0
  -30.2256    4.3711  -22.7908 N   0  0  0  0  0  0  0  0  0  0  0  0
  -28.9512    4.5041  -22.0961 C   0  0  0  0  0  0  0  0  0  0  0  0
  -34.1445    4.5748  -24.2862 H   0  0  0  0  0  0  0  0  0  0  0  0
  -34.6967    3.9607  -19.0456 H   0  0  0  0  0  0  0  0  0  0  0  0
  -40.5383    2.7490  -18.6958 H   0  0  0  0  0  0  0  0  0  0  0  0
  -40.1891    4.4952  -18.3588 H   0  0  0  0  0  0  0  0  0  0  0  0
  -36.4857    2.4652  -17.6163 H   0  0  0  0  0  0  0  0  0  0  0  0
  -36.0048    4.2097  -17.7604 H   0  0  0  0  0  0  0  0  0  0  0  0
  -37.4329    2.9648  -10.3116 H   0  0  0  0  0  0  0  0  0  0  0  0
  -34.2904    4.4498  -13.8555 H   0  0  0  0  0  0  0  0  0  0  0  0
  -31.9497    3.7406  -25.4151 H   0  0  0  0  0  0  0  0  0  0  0  0
  -33.4411    3.8663  -11.6025 H   0  0  0  0  0  0  0  0  0  0  0  0
  -35.0098    3.1416   -9.8240 H   0  0  0  0  0  0  0  0  0  0  0  0
  -38.3051    3.5793  -12.5496 H   0  0  0  0  0  0  0  0  0  0  0  0
  -37.4531    2.6200  -15.1078 H   0  0  0  0  0  0  0  0  0  0  0  0
  -38.1007    4.9549  -16.8806 H   0  0  0  0  0  0  0  0  0  0  0  0
  -39.9125    3.3622  -16.2841 H   0  0  0  0  0  0  0  0  0  0  0  0
  -38.9581    2.0380  -17.0612 H   0  0  0  0  0  0  0  0  0  0  0  0
  -39.0370    3.4591  -20.5485 H   0  0  0  0  0  0  0  0  0  0  0  0
  -38.3328    3.3179  -24.9735 H   0  0  0  0  0  0  0  0  0  0  0  0
  -38.4420    3.4160  -23.1956 H   0  0  0  0  0  0  0  0  0  0  0  0
  -31.6995    4.9255  -21.2808 H   0  0  0  0  0  0  0  0  0  0  0  0
  -29.1222    4.4862  -21.0096 H   0  0  0  0  0  0  0  0  0  0  0  0
  -28.2916    3.6699  -22.3772 H   0  0  0  0  0  0  0  0  0  0  0  0
  -28.4780    5.4565  -22.3772 H   0  0  0  0  0  0  0  0  0  0  0  0
  1 26  1  0
  1 27  1  0
  2  4  2  0
  2  5  1  0
  3  4  1  0
  3 23  2  0
  4  7  1  0
  5  6  1  0
  5 26  2  0
  6 24  1  0
  6 25  2  0
  7  9  1  0
  7 22  2  0
  8 21  1  0
  8 22  1  0
  9 20  1  0
 10 12  1  0
 10 15  1  0
 10 18  2  0
 11 17  2  0
 11 18  1  0
 12 16  2  0
 13 27  1  0
 13 29  2  0
 14 15  2  0
 15 19  1  0
 16 17  1  0
 20 19  1  0
 20 21  1  0
 23 26  1  0
 27 28  2  0
 28 30  1  0
 29 30  1  0
 30 31  1  0
  1 32  1  0
  3 33  1  0
  8 34  1  0
  8 35  1  0
  9 36  1  0
  9 37  1  0
 11 38  1  0
 12 39  1  0
 13 40  1  0
 16 41  1  0
 17 42  1  0
 18 43  1  0
 19 44  1  0
 20 45  1  1
 21 46  1  0
 21 47  1  0
 22 48  1  0
 24 49  1  0
 24 50  1  0
 28 51  1  0
 31 52  1  0
 31 53  1  0
 31 54  1  0
M  END
>  <filename_input>  (20) 
7SIU_9ID_docked.sdf

>  <pdb_id>  (20) 
7SIU_9ID

>  <pose_rank>  (20) 
19

>  <num_atoms_heavy>  (20) 
31

>  <num_torsions>  (20) 
6

>  <pose>  (20) 
[-36.83618228419388, 3.5186373545820806, -21.590672799509957, -0.18872539456338963, -0.10431842339183062, 3.3358477435758065, -9.332781168277764, -0.8867790198658948, -1.8085550543431899, 0.05939378757351675, 6.566877429789725, -0.44660769862149036]

>  <energy>  (20) 
-427.7129343329479

>  <inter_energy>  (20) 
-456.799872085363

>  <intra_energy>  (20) 
30.997102454561237

>  <rmsd>  (20) 
8.9029

>  <sdf_rank>  (20) 
0

$$$$

     RDKit          3D

 54 57  0  0  0  0  0  0  0  0999 V2000
  -31.7680    2.8121  -17.9330 N   0  0  0  0  0  0  0  0  0  0  0  0
  -28.4786    4.0136  -19.0645 N   0  0  0  0  0  0  0  0  0  0  0  0
  -28.3924    3.2049  -16.8386 C   0  0  0  0  0  0  0  0  0  0  0  0
  -27.7654    3.7227  -17.9689 C   0  0  0  0  0  0  0  0  0  0  0  0
  -29.7903    3.7517  -19.0546 C   0  0  0  0  0  0  0  0  0  0  0  0
  -30.5283    4.1024  -20.3284 C   0  0  0  0  0  0  0  0  0  0  0  0
  -26.3093    3.9099  -18.0287 C   0  0  0  0  0  0  0  0  0  0  0  0
  -24.0697    3.4544  -19.1117 C   0  0  0  0  0  0  0  0  0  0  0  0
  -25.6681    4.6981  -16.9081 C   0  0  0  0  0  0  0  0  0  0  0  0
  -22.0839    6.0930  -14.1127 C   0  0  0  0  0  0  0  0  0  0  0  0
  -20.6871    6.8248  -12.2908 C   0  0  0  0  0  0  0  0  0  0  0  0
  -22.6668    7.3561  -14.1452 C   0  0  0  0  0  0  0  0  0  0  0  0
  -33.4047    1.4770  -16.7089 C   0  0  0  0  0  0  0  0  0  0  0  0
  -22.0845    3.9017  -15.0261 O   0  0  0  0  0  0  0  0  0  0  0  0
  -22.5785    5.0259  -15.0315 C   0  0  0  0  0  0  0  0  0  0  0  0
  -22.2763    8.3296  -13.2434 C   0  0  0  0  0  0  0  0  0  0  0  0
  -21.2919    8.0636  -12.3126 C   0  0  0  0  0  0  0  0  0  0  0  0
  -21.0780    5.8400  -13.1820 C   0  0  0  0  0  0  0  0  0  0  0  0
  -23.5660    5.3679  -15.8678 N   0  0  0  0  0  0  0  0  0  0  0  0
  -24.1703    4.4131  -16.7917 C   0  0  2  0  0  0  0  0  0  0  0  0
  -23.5142    4.5115  -18.1612 C   0  0  0  0  0  0  0  0  0  0  0  0
  -25.5684    3.3837  -19.0458 C   0  0  0  0  0  0  0  0  0  0  0  0
  -29.7049    2.9300  -16.8124 N   0  0  0  0  0  0  0  0  0  0  0  0
  -31.8290    3.7913  -20.3598 N   0  0  0  0  0  0  0  0  0  0  0  0
  -29.9492    4.6809  -21.2758 O   0  0  0  0  0  0  0  0  0  0  0  0
  -30.4174    3.1829  -17.9266 C   0  0  0  0  0  0  0  0  0  0  0  0
  -32.6116    2.6239  -16.8291 C   0  0  0  0  0  0  0  0  0  0  0  0
  -32.9347    3.4221  -15.7727 C   0  0  0  0  0  0  0  0  0  0  0  0
  -34.1929    1.5610  -15.6484 N   0  0  0  0  0  0  0  0  0  0  0  0
  -33.8802    2.7745  -15.0832 N   0  0  0  0  0  0  0  0  0  0  0  0
  -34.5430    3.2091  -13.8600 C   0  0  0  0  0  0  0  0  0  0  0  0
  -32.1921    2.6594  -18.8592 H   0  0  0  0  0  0  0  0  0  0  0  0
  -27.7913    3.0150  -15.9371 H   0  0  0  0  0  0  0  0  0  0  0  0
  -23.7690    3.7053  -20.1396 H   0  0  0  0  0  0  0  0  0  0  0  0
  -23.6658    2.4761  -18.8117 H   0  0  0  0  0  0  0  0  0  0  0  0
  -25.8113    5.7714  -17.1016 H   0  0  0  0  0  0  0  0  0  0  0  0
  -26.1457    4.3969  -15.9641 H   0  0  0  0  0  0  0  0  0  0  0  0
  -19.8899    6.6178  -11.5616 H   0  0  0  0  0  0  0  0  0  0  0  0
  -23.4422    7.5817  -14.8920 H   0  0  0  0  0  0  0  0  0  0  0  0
  -33.3769    0.6224  -17.4010 H   0  0  0  0  0  0  0  0  0  0  0  0
  -22.7525    9.3209  -13.2681 H   0  0  0  0  0  0  0  0  0  0  0  0
  -20.9912    8.8374  -11.5909 H   0  0  0  0  0  0  0  0  0  0  0  0
  -20.5924    4.8534  -13.1553 H   0  0  0  0  0  0  0  0  0  0  0  0
  -23.9113    6.3382  -15.8591 H   0  0  0  0  0  0  0  0  0  0  0  0
  -24.0192    3.3943  -16.4055 H   0  0  0  0  0  0  0  0  0  0  0  0
  -22.4298    4.3628  -18.0520 H   0  0  0  0  0  0  0  0  0  0  0  0
  -23.7268    5.5060  -18.5807 H   0  0  0  0  0  0  0  0  0  0  0  0
  -26.0996    2.8782  -19.8657 H   0  0  0  0  0  0  0  0  0  0  0  0
  -32.3892    4.0034  -21.1977 H   0  0  0  0  0  0  0  0  0  0  0  0
  -32.2703    3.3396  -19.5460 H   0  0  0  0  0  0  0  0  0  0  0  0
  -32.5030    4.4053  -15.5342 H   0  0  0  0  0  0  0  0  0  0  0  0
  -33.9819    2.8412  -12.9883 H   0  0  0  0  0  0  0  0  0  0  0  0
  -34.5811    4.3081  -13.8343 H   0  0  0  0  0  0  0  0  0  0  0  0
  -35.5661    2.8060  -13.8343 H   0  0  0  0  0  0  0  0  0  0  0  0
  1 26  1  0
  1 27  1  0
  2  4  2  0
  2  5  1  0
  3  4  1  0
  3 23  2  0
  4  7  1  0
  5  6  1  0
  5 26  2  0
  6 24  1  0
  6 25  2  0
  7  9  1  0
  7 22  2  0
  8 21  1  0
  8 22  1  0
  9 20  1  0
 10 12  1  0
 10 15  1  0
 10 18  2  0
 11 17  2  0
 11 18  1  0
 12 16  2  0
 13 27  1  0
 13 29  2  0
 14 15  2  0
 15 19  1  0
 16 17  1  0
 20 19  1  0
 20 21  1  0
 23 26  1  0
 27 28  2  0
 28 30  1  0
 29 30  1  0
 30 31  1  0
  1 32  1  0
  3 33  1  0
  8 34  1  0
  8 35  1  0
  9 36  1  0
  9 37  1  0
 11 38  1  0
 12 39  1  0
 13 40  1  0
 16 41  1  0
 17 42  1  0
 18 43  1  0
 19 44  1  0
 20 45  1  1
 21 46  1  0
 21 47  1  0
 22 48  1  0
 24 49  1  0
 24 50  1  0
 28 51  1  0
 31 52  1  0
 31 53  1  0
 31 54  1  0
M  END
>  <filename_input>  (21) 
7SIU_9ID_docked.sdf

>  <pdb_id>  (21) 
7SIU_9ID

>  <pose_rank>  (21) 
20

>  <num_atoms_heavy>  (21) 
31

>  <num_torsions>  (21) 
6

>  <pose>  (21) 
[-28.478646426636868, 4.013567861121746, -19.06453377549039, -0.8671982765939972, -4.8493240666571475, -1.7333510141156148, 2.496482172069333, -0.11100330329007747, 2.510095457420251, 3.013681493065661, 0.3554047160963005, 0.9920279700509936]

>  <energy>  (21) 
-487.16174511136535

>  <inter_energy>  (21) 
-511.6578343061775

>  <intra_energy>  (21) 
31.470203300782046

>  <rmsd>  (21) 
6.67588

>  <sdf_rank>  (21) 
0

$$$$

     RDKit          3D

 54 57  0  0  0  0  0  0  0  0999 V2000
  -31.1522    5.2727  -22.2392 N   0  0  0  0  0  0  0  0  0  0  0  0
  -34.4157    4.0884  -23.4603 N   0  0  0  0  0  0  0  0  0  0  0  0
  -34.6353    5.3361  -21.4574 C   0  0  0  0  0  0  0  0  0  0  0  0
  -35.1985    4.6425  -22.5255 C   0  0  0  0  0  0  0  0  0  0  0  0
  -33.0928    4.2589  -23.3612 C   0  0  0  0  0  0  0  0  0  0  0  0
  -32.2743    3.6085  -24.4553 C   0  0  0  0  0  0  0  0  0  0  0  0
  -36.6537    4.5445  -22.7032 C   0  0  0  0  0  0  0  0  0  0  0  0
  -38.7630    5.1119  -23.9781 C   0  0  0  0  0  0  0  0  0  0  0  0
  -37.4339    3.8247  -21.6256 C   0  0  0  0  0  0  0  0  0  0  0  0
  -40.2280    2.2806  -18.6526 C   0  0  0  0  0  0  0  0  0  0  0  0
  -42.1946    1.6778  -17.3975 C   0  0  0  0  0  0  0  0  0  0  0  0
  -39.6761    1.0416  -18.3421 C   0  0  0  0  0  0  0  0  0  0  0  0
  -29.1215    3.9441  -21.9734 C   0  0  0  0  0  0  0  0  0  0  0  0
  -38.6285    4.0200  -18.8809 O   0  0  0  0  0  0  0  0  0  0  0  0
  -39.4303    3.2714  -19.4331 C   0  0  0  0  0  0  0  0  0  0  0  0
  -40.3705    0.1458  -17.5492 C   0  0  0  0  0  0  0  0  0  0  0  0
  -41.6260    0.4648  -17.0716 C   0  0  0  0  0  0  0  0  0  0  0  0
  -41.5035    2.5859  -18.1816 C   0  0  0  0  0  0  0  0  0  0  0  0
  -39.6529    3.3117  -20.7523 N   0  0  0  0  0  0  0  0  0  0  0  0
  -38.9149    4.2047  -21.6402 C   0  0  2  0  0  0  0  0  0  0  0  0
  -39.4611    4.1143  -23.0577 C   0  0  0  0  0  0  0  0  0  0  0  0
  -37.2733    5.0911  -23.7885 C   0  0  0  0  0  0  0  0  0  0  0  0
  -33.3119    5.5225  -21.3449 N   0  0  0  0  0  0  0  0  0  0  0  0
  -32.2639    2.2707  -24.4665 N   0  0  0  0  0  0  0  0  0  0  0  0
  -31.6750    4.2957  -25.3133 O   0  0  0  0  0  0  0  0  0  0  0  0
  -32.5248    5.0017  -22.3053 C   0  0  0  0  0  0  0  0  0  0  0  0
  -30.1939    4.6555  -21.4230 C   0  0  0  0  0  0  0  0  0  0  0  0
  -30.0989    4.5017  -20.0721 C   0  0  0  0  0  0  0  0  0  0  0  0
  -28.4072    3.3625  -21.0223 N   0  0  0  0  0  0  0  0  0  0  0  0
  -29.0317    3.7260  -19.8528 N   0  0  0  0  0  0  0  0  0  0  0  0
  -28.5034    3.2838  -18.5683 C   0  0  0  0  0  0  0  0  0  0  0  0
  -30.8055    6.0138  -22.8649 H   0  0  0  0  0  0  0  0  0  0  0  0
  -35.2978    5.7446  -20.6801 H   0  0  0  0  0  0  0  0  0  0  0  0
  -38.9935    4.8554  -25.0226 H   0  0  0  0  0  0  0  0  0  0  0  0
  -39.1270    6.1202  -23.7314 H   0  0  0  0  0  0  0  0  0  0  0  0
  -37.3439    2.7402  -21.7863 H   0  0  0  0  0  0  0  0  0  0  0  0
  -37.0173    4.1184  -20.6508 H   0  0  0  0  0  0  0  0  0  0  0  0
  -43.2024    1.9254  -17.0326 H   0  0  0  0  0  0  0  0  0  0  0  0
  -38.6821    0.7730  -18.7293 H   0  0  0  0  0  0  0  0  0  0  0  0
  -28.9020    3.8774  -23.0492 H   0  0  0  0  0  0  0  0  0  0  0  0
  -39.9202   -0.8258  -17.2979 H   0  0  0  0  0  0  0  0  0  0  0  0
  -42.1708   -0.2464  -16.4333 H   0  0  0  0  0  0  0  0  0  0  0  0
  -41.9635    3.5527  -18.4340 H   0  0  0  0  0  0  0  0  0  0  0  0
  -40.3696    2.6911  -21.1548 H   0  0  0  0  0  0  0  0  0  0  0  0
  -39.0321    5.2400  -21.2872 H   0  0  0  0  0  0  0  0  0  0  0  0
  -40.5391    4.3325  -23.0423 H   0  0  0  0  0  0  0  0  0  0  0  0
  -39.2786    3.0988  -23.4391 H   0  0  0  0  0  0  0  0  0  0  0  0
  -36.6453    5.5429  -24.5704 H   0  0  0  0  0  0  0  0  0  0  0  0
  -31.7260    1.7659  -25.1853 H   0  0  0  0  0  0  0  0  0  0  0  0
  -32.7938    1.7457  -23.7563 H   0  0  0  0  0  0  0  0  0  0  0  0
  -30.7682    4.9309  -19.3120 H   0  0  0  0  0  0  0  0  0  0  0  0
  -29.0713    3.7592  -17.7550 H   0  0  0  0  0  0  0  0  0  0  0  0
  -28.5966    2.1905  -18.4903 H   0  0  0  0  0  0  0  0  0  0  0  0
  -27.4436    3.5679  -18.4903 H   0  0  0  0  0  0  0  0  0  0  0  0
  1 26  1  0
  1 27  1  0
  2  4  2  0
  2  5  1  0
  3  4  1  0
  3 23  2  0
  4  7  1  0
  5  6  1  0
  5 26  2  0
  6 24  1  0
  6 25  2  0
  7  9  1  0
  7 22  2  0
  8 21  1  0
  8 22  1  0
  9 20  1  0
 10 12  1  0
 10 15  1  0
 10 18  2  0
 11 17  2  0
 11 18  1  0
 12 16  2  0
 13 27  1  0
 13 29  2  0
 14 15  2  0
 15 19  1  0
 16 17  1  0
 20 19  1  0
 20 21  1  0
 23 26  1  0
 27 28  2  0
 28 30  1  0
 29 30  1  0
 30 31  1  0
  1 32  1  0
  3 33  1  0
  8 34  1  0
  8 35  1  0
  9 36  1  0
  9 37  1  0
 11 38  1  0
 12 39  1  0
 13 40  1  0
 16 41  1  0
 17 42  1  0
 18 43  1  0
 19 44  1  0
 20 45  1  1
 21 46  1  0
 21 47  1  0
 22 48  1  0
 24 49  1  0
 24 50  1  0
 28 51  1  0
 31 52  1  0
 31 53  1  0
 31 54  1  0
M  END
>  <filename_input>  (22) 
7SIU_9ID_docked.sdf

>  <pdb_id>  (22) 
7SIU_9ID

>  <pose_rank>  (22) 
21

>  <num_atoms_heavy>  (22) 
31

>  <num_torsions>  (22) 
6

>  <pose>  (22) 
[-34.41571991786203, 4.088429330006029, -23.46027321924528, -1.738866532566207, 0.6978167541990177, 2.9516441931009405, -10.250821356537093, -1.5051336734373475, -2.102999738939027, -1.2581234451687342, 7.614106869894283, -0.942877089965783]

>  <energy>  (22) 
-590.5552813261677

>  <inter_energy>  (22) 
-595.4662278096898

>  <intra_energy>  (22) 
12.707973939088927

>  <rmsd>  (22) 
10.5172

>  <sdf_rank>  (22) 
0

$$$$

     RDKit          3D

 54 57  0  0  0  0  0  0  0  0999 V2000
  -22.0771    7.2454  -11.9819 N   0  0  0  0  0  0  0  0  0  0  0  0
  -21.7126    4.8554  -14.7566 N   0  0  0  0  0  0  0  0  0  0  0  0
  -23.9778    5.4688  -14.4269 C   0  0  0  0  0  0  0  0  0  0  0  0
  -22.9944    4.7864  -15.1384 C   0  0  0  0  0  0  0  0  0  0  0  0
  -21.4042    5.6280  -13.7091 C   0  0  0  0  0  0  0  0  0  0  0  0
  -19.9370    5.6595  -13.3399 C   0  0  0  0  0  0  0  0  0  0  0  0
  -23.3075    4.0253  -16.3555 C   0  0  0  0  0  0  0  0  0  0  0  0
  -22.6063    2.4864  -18.2361 C   0  0  0  0  0  0  0  0  0  0  0  0
  -24.6934    4.1940  -16.9378 C   0  0  0  0  0  0  0  0  0  0  0  0
  -28.3725    4.5848  -19.1767 C   0  0  0  0  0  0  0  0  0  0  0  0
  -30.6470    3.9166  -18.7452 C   0  0  0  0  0  0  0  0  0  0  0  0
  -28.7020    4.7649  -20.5166 C   0  0  0  0  0  0  0  0  0  0  0  0
  -21.2198    9.0922  -13.3287 C   0  0  0  0  0  0  0  0  0  0  0  0
  -26.5845    5.8709  -18.2907 O   0  0  0  0  0  0  0  0  0  0  0  0
  -26.9639    4.7877  -18.7274 C   0  0  0  0  0  0  0  0  0  0  0  0
  -29.9843    4.4999  -20.9629 C   0  0  0  0  0  0  0  0  0  0  0  0
  -30.9551    4.0701  -20.0803 C   0  0  0  0  0  0  0  0  0  0  0  0
  -29.3640    4.1689  -18.2901 C   0  0  0  0  0  0  0  0  0  0  0  0
  -26.1414    3.7385  -18.8472 N   0  0  0  0  0  0  0  0  0  0  0  0
  -24.7495    3.7857  -18.4103 C   0  0  2  0  0  0  0  0  0  0  0  0
  -24.0876    2.4284  -18.5991 C   0  0  0  0  0  0  0  0  0  0  0  0
  -22.3821    3.2115  -16.9401 C   0  0  0  0  0  0  0  0  0  0  0  0
  -23.6868    6.2529  -13.3784 N   0  0  0  0  0  0  0  0  0  0  0  0
  -19.5686    6.6087  -12.4722 N   0  0  0  0  0  0  0  0  0  0  0  0
  -19.1332    4.8180  -13.8018 O   0  0  0  0  0  0  0  0  0  0  0  0
  -22.3938    6.3569  -13.0173 C   0  0  0  0  0  0  0  0  0  0  0  0
  -21.6143    8.5641  -12.0940 C   0  0  0  0  0  0  0  0  0  0  0  0
  -21.3543    9.5289  -11.1672 C   0  0  0  0  0  0  0  0  0  0  0  0
  -20.7234   10.3107  -13.1804 N   0  0  0  0  0  0  0  0  0  0  0  0
  -20.8209   10.5596  -11.8319 N   0  0  0  0  0  0  0  0  0  0  0  0
  -20.3853   11.8390  -11.2864 C   0  0  0  0  0  0  0  0  0  0  0  0
  -22.1988    6.8873  -11.0238 H   0  0  0  0  0  0  0  0  0  0  0  0
  -25.0283    5.3611  -14.7350 H   0  0  0  0  0  0  0  0  0  0  0  0
  -22.2214    1.4603  -18.1421 H   0  0  0  0  0  0  0  0  0  0  0  0
  -22.0785    3.0329  -19.0316 H   0  0  0  0  0  0  0  0  0  0  0  0
  -25.3965    3.5681  -16.3687 H   0  0  0  0  0  0  0  0  0  0  0  0
  -24.9634    5.2582  -16.8698 H   0  0  0  0  0  0  0  0  0  0  0  0
  -31.4245    3.5919  -18.0380 H   0  0  0  0  0  0  0  0  0  0  0  0
  -27.9388    5.1200  -21.2247 H   0  0  0  0  0  0  0  0  0  0  0  0
  -21.3097    8.5668  -14.2909 H   0  0  0  0  0  0  0  0  0  0  0  0
  -30.2317    4.6322  -22.0265 H   0  0  0  0  0  0  0  0  0  0  0  0
  -31.9709    3.8510  -20.4410 H   0  0  0  0  0  0  0  0  0  0  0  0
  -29.1261    4.0406  -17.2238 H   0  0  0  0  0  0  0  0  0  0  0  0
  -26.5031    2.8679  -19.2619 H   0  0  0  0  0  0  0  0  0  0  0  0
  -24.2070    4.5252  -19.0175 H   0  0  0  0  0  0  0  0  0  0  0  0
  -24.1885    2.1224  -19.6508 H   0  0  0  0  0  0  0  0  0  0  0  0
  -24.5823    1.7025  -17.9371 H   0  0  0  0  0  0  0  0  0  0  0  0
  -21.4151    3.0786  -16.4328 H   0  0  0  0  0  0  0  0  0  0  0  0
  -18.5841    6.6847  -12.1793 H   0  0  0  0  0  0  0  0  0  0  0  0
  -20.2696    7.2636  -12.0969 H   0  0  0  0  0  0  0  0  0  0  0  0
  -21.5455    9.4711  -10.0854 H   0  0  0  0  0  0  0  0  0  0  0  0
  -20.4008   11.7935  -10.1874 H   0  0  0  0  0  0  0  0  0  0  0  0
  -19.3629   12.0551  -11.6300 H   0  0  0  0  0  0  0  0  0  0  0  0
  -21.0633   12.6341  -11.6300 H   0  0  0  0  0  0  0  0  0  0  0  0
  1 26  1  0
  1 27  1  0
  2  4  2  0
  2  5  1  0
  3  4  1  0
  3 23  2  0
  4  7  1  0
  5  6  1  0
  5 26  2  0
  6 24  1  0
  6 25  2  0
  7  9  1  0
  7 22  2  0
  8 21  1  0
  8 22  1  0
  9 20  1  0
 10 12  1  0
 10 15  1  0
 10 18  2  0
 11 17  2  0
 11 18  1  0
 12 16  2  0
 13 27  1  0
 13 29  2  0
 14 15  2  0
 15 19  1  0
 16 17  1  0
 20 19  1  0
 20 21  1  0
 23 26  1  0
 27 28  2  0
 28 30  1  0
 29 30  1  0
 30 31  1  0
  1 32  1  0
  3 33  1  0
  8 34  1  0
  8 35  1  0
  9 36  1  0
  9 37  1  0
 11 38  1  0
 12 39  1  0
 13 40  1  0
 16 41  1  0
 17 42  1  0
 18 43  1  0
 19 44  1  0
 20 45  1  6
 21 46  1  0
 21 47  1  0
 22 48  1  0
 24 49  1  0
 24 50  1  0
 28 51  1  0
 31 52  1  0
 31 53  1  0
 31 54  1  0
M  END
>  <filename_input>  (23) 
7SIU_9ID_docked.sdf

>  <pdb_id>  (23) 
7SIU_9ID

>  <pose_rank>  (23) 
22

>  <num_atoms_heavy>  (23) 
31

>  <num_torsions>  (23) 
6

>  <pose>  (23) 
[-21.712571459116763, 4.855405930931529, -14.756575159121075, 2.3067066222012236, -0.45149410543451896, -0.9969024658035557, -2.6931753015607325, -1.6433508875525982, 0.998852083951854, 2.8505128582779418, -1.7445765037581076, -3.1707306268849362]

>  <energy>  (23) 
-382.9289172883586

>  <inter_energy>  (23) 
-474.30048291129737

>  <intra_energy>  (23) 
81.1852608567328

>  <rmsd>  (23) 
12.9544

>  <sdf_rank>  (23) 
0

$$$$

     RDKit          3D

 54 57  0  0  0  0  0  0  0  0999 V2000
  -34.2354    4.9264  -22.5248 N   0  0  0  0  0  0  0  0  0  0  0  0
  -37.0646    3.2364  -20.8866 N   0  0  0  0  0  0  0  0  0  0  0  0
  -35.1111    3.1620  -19.5470 C   0  0  0  0  0  0  0  0  0  0  0  0
  -36.4650    2.8981  -19.7379 C   0  0  0  0  0  0  0  0  0  0  0  0
  -36.3410    3.8693  -21.8166 C   0  0  0  0  0  0  0  0  0  0  0  0
  -37.0871    4.2234  -23.0848 C   0  0  0  0  0  0  0  0  0  0  0  0
  -37.2942    2.3042  -18.6803 C   0  0  0  0  0  0  0  0  0  0  0  0
  -38.4807    0.3157  -17.6631 C   0  0  0  0  0  0  0  0  0  0  0  0
  -37.8478    3.2407  -17.6293 C   0  0  0  0  0  0  0  0  0  0  0  0
  -40.5216    5.2466  -14.5801 C   0  0  0  0  0  0  0  0  0  0  0  0
  -40.8691    7.3525  -13.4618 C   0  0  0  0  0  0  0  0  0  0  0  0
  -40.4481    4.6235  -13.3380 C   0  0  0  0  0  0  0  0  0  0  0  0
  -32.6374    4.1399  -24.1943 C   0  0  0  0  0  0  0  0  0  0  0  0
  -40.9568    4.6689  -16.8412 O   0  0  0  0  0  0  0  0  0  0  0  0
  -40.3077    4.4480  -15.8225 C   0  0  0  0  0  0  0  0  0  0  0  0
  -40.5613    5.3652  -12.1759 C   0  0  0  0  0  0  0  0  0  0  0  0
  -40.7654    6.7293  -12.2363 C   0  0  0  0  0  0  0  0  0  0  0  0
  -40.7467    6.6209  -14.6309 C   0  0  0  0  0  0  0  0  0  0  0  0
  -39.3928    3.4731  -15.7562 N   0  0  0  0  0  0  0  0  0  0  0  0
  -39.0553    2.6417  -16.9074 C   0  0  2  0  0  0  0  0  0  0  0  0
  -38.7425    1.2205  -16.4622 C   0  0  0  0  0  0  0  0  0  0  0  0
  -37.5617    0.9669  -18.6567 C   0  0  0  0  0  0  0  0  0  0  0  0
  -34.3714    3.8012  -20.4652 N   0  0  0  0  0  0  0  0  0  0  0  0
  -38.3638    3.8285  -23.1463 N   0  0  0  0  0  0  0  0  0  0  0  0
  -36.5377    4.8779  -23.9998 O   0  0  0  0  0  0  0  0  0  0  0  0
  -34.9815    4.1792  -21.6045 C   0  0  0  0  0  0  0  0  0  0  0  0
  -32.9163    4.7024  -22.9434 C   0  0  0  0  0  0  0  0  0  0  0  0
  -31.7156    4.8450  -22.3143 C   0  0  0  0  0  0  0  0  0  0  0  0
  -31.3383    3.9250  -24.3326 N   0  0  0  0  0  0  0  0  0  0  0  0
  -30.7886    4.3735  -23.1551 N   0  0  0  0  0  0  0  0  0  0  0  0
  -29.3468    4.3190  -22.9485 C   0  0  0  0  0  0  0  0  0  0  0  0
  -34.7129    5.7371  -22.9439 H   0  0  0  0  0  0  0  0  0  0  0  0
  -34.6324    2.8354  -18.6120 H   0  0  0  0  0  0  0  0  0  0  0  0
  -38.0209   -0.6198  -17.3116 H   0  0  0  0  0  0  0  0  0  0  0  0
  -39.4414    0.1186  -18.1612 H   0  0  0  0  0  0  0  0  0  0  0  0
  -37.0605    3.4508  -16.8905 H   0  0  0  0  0  0  0  0  0  0  0  0
  -38.1759    4.1616  -18.1337 H   0  0  0  0  0  0  0  0  0  0  0  0
  -41.0500    8.4364  -13.5109 H   0  0  0  0  0  0  0  0  0  0  0  0
  -40.2993    3.5351  -13.2800 H   0  0  0  0  0  0  0  0  0  0  0  0
  -33.3942    3.9080  -24.9581 H   0  0  0  0  0  0  0  0  0  0  0  0
  -40.4883    4.8656  -11.1987 H   0  0  0  0  0  0  0  0  0  0  0  0
  -40.8450    7.3170  -11.3098 H   0  0  0  0  0  0  0  0  0  0  0  0
  -40.8275    7.1268  -15.6043 H   0  0  0  0  0  0  0  0  0  0  0  0
  -38.9104    3.3039  -14.8620 H   0  0  0  0  0  0  0  0  0  0  0  0
  -39.9150    2.6107  -17.5928 H   0  0  0  0  0  0  0  0  0  0  0  0
  -39.5974    0.8254  -15.8938 H   0  0  0  0  0  0  0  0  0  0  0  0
  -37.8389    1.2408  -15.8353 H   0  0  0  0  0  0  0  0  0  0  0  0
  -37.0762    0.3282  -19.4092 H   0  0  0  0  0  0  0  0  0  0  0  0
  -38.9279    4.0379  -23.9823 H   0  0  0  0  0  0  0  0  0  0  0  0
  -38.7827    3.3152  -22.3577 H   0  0  0  0  0  0  0  0  0  0  0  0
  -31.5431    5.2652  -21.3125 H   0  0  0  0  0  0  0  0  0  0  0  0
  -29.1311    4.3109  -21.8699 H   0  0  0  0  0  0  0  0  0  0  0  0
  -28.9445    3.4050  -23.4098 H   0  0  0  0  0  0  0  0  0  0  0  0
  -28.8767    5.2000  -23.4098 H   0  0  0  0  0  0  0  0  0  0  0  0
  1 26  1  0
  1 27  1  0
  2  4  2  0
  2  5  1  0
  3  4  1  0
  3 23  2  0
  4  7  1  0
  5  6  1  0
  5 26  2  0
  6 24  1  0
  6 25  2  0
  7  9  1  0
  7 22  2  0
  8 21  1  0
  8 22  1  0
  9 20  1  0
 10 12  1  0
 10 15  1  0
 10 18  2  0
 11 17  2  0
 11 18  1  0
 12 16  2  0
 13 27  1  0
 13 29  2  0
 14 15  2  0
 15 19  1  0
 16 17  1  0
 20 19  1  0
 20 21  1  0
 23 26  1  0
 27 28  2  0
 28 30  1  0
 29 30  1  0
 30 31  1  0
  1 32  1  0
  3 33  1  0
  8 34  1  0
  8 35  1  0
  9 36  1  0
  9 37  1  0
 11 38  1  0
 12 39  1  0
 13 40  1  0
 16 41  1  0
 17 42  1  0
 18 43  1  0
 19 44  1  0
 20 45  1  6
 21 46  1  0
 21 47  1  0
 22 48  1  0
 24 49  1  0
 24 50  1  0
 28 51  1  0
 31 52  1  0
 31 53  1  0
 31 54  1  0
M  END
>  <filename_input>  (24) 
7SIU_9ID_docked.sdf

>  <pdb_id>  (24) 
7SIU_9ID

>  <pose_rank>  (24) 
23

>  <num_atoms_heavy>  (24) 
31

>  <num_torsions>  (24) 
6

>  <pose>  (24) 
[-37.064644340833226, 3.2364345218364576, -20.886616953534222, -0.0500495377402591, -0.7968256869107834, 3.273778389832669, 36.276602228584125, -13.542534108091662, -4.4216684650231395, -0.11131127209814784, 6.999515075703676, -1.1889123118835627]

>  <energy>  (24) 
-365.4899415842866

>  <inter_energy>  (24) 
-388.20761250441006

>  <intra_energy>  (24) 
20.505325146513282

>  <rmsd>  (24) 
10.6447

>  <sdf_rank>  (24) 
0

$$$$

     RDKit          3D

 54 57  0  0  0  0  0  0  0  0999 V2000
  -26.5134    3.3015  -18.9950 N   0  0  0  0  0  0  0  0  0  0  0  0
  -23.3116    4.2609  -17.4548 N   0  0  0  0  0  0  0  0  0  0  0  0
  -25.1561    5.0123  -16.1705 C   0  0  0  0  0  0  0  0  0  0  0  0
  -23.7842    4.8610  -16.3547 C   0  0  0  0  0  0  0  0  0  0  0  0
  -24.1903    3.7766  -18.3394 C   0  0  0  0  0  0  0  0  0  0  0  0
  -23.5825    3.1086  -19.5537 C   0  0  0  0  0  0  0  0  0  0  0  0
  -22.8149    5.2900  -15.3373 C   0  0  0  0  0  0  0  0  0  0  0  0
  -20.9980    4.7599  -13.6597 C   0  0  0  0  0  0  0  0  0  0  0  0
  -22.8363    6.7480  -14.9347 C   0  0  0  0  0  0  0  0  0  0  0  0
  -21.1136   10.3799  -12.2965 C   0  0  0  0  0  0  0  0  0  0  0  0
  -21.3790   12.3677  -10.9606 C   0  0  0  0  0  0  0  0  0  0  0  0
  -20.8949   11.1839  -13.4110 C   0  0  0  0  0  0  0  0  0  0  0  0
  -28.5910    4.0586  -17.9605 C   0  0  0  0  0  0  0  0  0  0  0  0
  -20.4065    8.1700  -11.7946 O   0  0  0  0  0  0  0  0  0  0  0  0
  -21.1491    8.8959  -12.4500 C   0  0  0  0  0  0  0  0  0  0  0  0
  -20.9422   12.5618  -13.2992 C   0  0  0  0  0  0  0  0  0  0  0  0
  -21.1900   13.1543  -12.0770 C   0  0  0  0  0  0  0  0  0  0  0  0
  -21.3442   10.9874  -11.0637 C   0  0  0  0  0  0  0  0  0  0  0  0
  -22.0122    8.4086  -13.3495 N   0  0  0  0  0  0  0  0  0  0  0  0
  -22.1785    6.9759  -13.5734 C   0  0  2  0  0  0  0  0  0  0  0  0
  -20.8309    6.2708  -13.5224 C   0  0  0  0  0  0  0  0  0  0  0  0
  -21.9426    4.4065  -14.7726 C   0  0  0  0  0  0  0  0  0  0  0  0
  -26.0520    4.5278  -17.0432 N   0  0  0  0  0  0  0  0  0  0  0  0
  -22.6794    3.8271  -20.2304 N   0  0  0  0  0  0  0  0  0  0  0  0
  -23.8918    1.9384  -19.8737 O   0  0  0  0  0  0  0  0  0  0  0  0
  -25.5806    3.8875  -18.1299 C   0  0  0  0  0  0  0  0  0  0  0  0
  -27.8937    3.5392  -19.0573 C   0  0  0  0  0  0  0  0  0  0  0  0
  -28.8292    3.2774  -20.0133 C   0  0  0  0  0  0  0  0  0  0  0  0
  -29.8908    4.1015  -18.2087 N   0  0  0  0  0  0  0  0  0  0  0  0
  -30.0123    3.6150  -19.4887 N   0  0  0  0  0  0  0  0  0  0  0  0
  -31.3216    3.5342  -20.1240 C   0  0  0  0  0  0  0  0  0  0  0  0
  -26.1409    2.6138  -19.6653 H   0  0  0  0  0  0  0  0  0  0  0  0
  -25.5172    5.5470  -15.2795 H   0  0  0  0  0  0  0  0  0  0  0  0
  -20.0162    4.3097  -13.8684 H   0  0  0  0  0  0  0  0  0  0  0  0
  -21.4156    4.3731  -12.7184 H   0  0  0  0  0  0  0  0  0  0  0  0
  -22.2958    7.3337  -15.6929 H   0  0  0  0  0  0  0  0  0  0  0  0
  -23.8871    7.0650  -14.8618 H   0  0  0  0  0  0  0  0  0  0  0  0
  -21.5584   12.8391   -9.9830 H   0  0  0  0  0  0  0  0  0  0  0  0
  -20.6832   10.7211  -14.3862 H   0  0  0  0  0  0  0  0  0  0  0  0
  -28.1229    4.3864  -17.0205 H   0  0  0  0  0  0  0  0  0  0  0  0
  -20.7814   13.1888  -14.1886 H   0  0  0  0  0  0  0  0  0  0  0  0
  -21.2366   14.2502  -11.9943 H   0  0  0  0  0  0  0  0  0  0  0  0
  -21.4994   10.3675  -10.1684 H   0  0  0  0  0  0  0  0  0  0  0  0
  -22.5786    9.0673  -13.9028 H   0  0  0  0  0  0  0  0  0  0  0  0
  -22.8192    6.5604  -12.7816 H   0  0  0  0  0  0  0  0  0  0  0  0
  -20.3450    6.4929  -12.5609 H   0  0  0  0  0  0  0  0  0  0  0  0
  -20.2146    6.6324  -14.3586 H   0  0  0  0  0  0  0  0  0  0  0  0
  -21.9301    3.3750  -15.1546 H   0  0  0  0  0  0  0  0  0  0  0  0
  -22.2279    3.4305  -21.0669 H   0  0  0  0  0  0  0  0  0  0  0  0
  -22.4357    4.7768  -19.9150 H   0  0  0  0  0  0  0  0  0  0  0  0
  -28.6471    2.8690  -21.0182 H   0  0  0  0  0  0  0  0  0  0  0  0
  -32.1021    3.4861  -19.3504 H   0  0  0  0  0  0  0  0  0  0  0  0
  -31.4807    4.4242  -20.7505 H   0  0  0  0  0  0  0  0  0  0  0  0
  -31.3701    2.6314  -20.7505 H   0  0  0  0  0  0  0  0  0  0  0  0
  1 26  1  0
  1 27  1  0
  2  4  2  0
  2  5  1  0
  3  4  1  0
  3 23  2  0
  4  7  1  0
  5  6  1  0
  5 26  2  0
  6 24  1  0
  6 25  2  0
  7  9  1  0
  7 22  2  0
  8 21  1  0
  8 22  1  0
  9 20  1  0
 10 12  1  0
 10 15  1  0
 10 18  2  0
 11 17  2  0
 11 18  1  0
 12 16  2  0
 13 27  1  0
 13 29  2  0
 14 15  2  0
 15 19  1  0
 16 17  1  0
 20 19  1  0
 20 21  1  0
 23 26  1  0
 27 28  2  0
 28 30  1  0
 29 30  1  0
 30 31  1  0
  1 32  1  0
  3 33  1  0
  8 34  1  0
  8 35  1  0
  9 36  1  0
  9 37  1  0
 11 38  1  0
 12 39  1  0
 13 40  1  0
 16 41  1  0
 17 42  1  0
 18 43  1  0
 19 44  1  0
 20 45  1  1
 21 46  1  0
 21 47  1  0
 22 48  1  0
 24 49  1  0
 24 50  1  0
 28 51  1  0
 31 52  1  0
 31 53  1  0
 31 54  1  0
M  END
>  <filename_input>  (25) 
7SIU_9ID_docked.sdf

>  <pdb_id>  (25) 
7SIU_9ID

>  <pose_rank>  (25) 
24

>  <num_atoms_heavy>  (25) 
31

>  <num_torsions>  (25) 
6

>  <pose>  (25) 
[-23.311645251201707, 4.260867036965273, -17.45479947860807, 5.594066013651718, -1.007168669810513, 0.5760381590872048, -3.8873218121385835, 0.8637987389197087, 1.5352338300159545, -0.9979168605895836, 0.22372655155375598, -3.392594144361794]

>  <energy>  (25) 
-304.8664434828188

>  <inter_energy>  (25) 
-380.35228946813925

>  <intra_energy>  (25) 
62.72499555200647

>  <rmsd>  (25) 
9.63946

>  <sdf_rank>  (25) 
0

$$$$

     RDKit          3D

 54 57  0  0  0  0  0  0  0  0999 V2000
  -34.0600    4.2300  -24.0150 N   0  0  0  0  0  0  0  0  0  0  0  0
  -31.0800    4.3110  -21.8570 N   0  0  0  0  0  0  0  0  0  0  0  0
  -33.0760    4.2150  -20.5830 C   0  0  0  0  0  0  0  0  0  0  0  0
  -31.6860    4.2220  -20.6660 C   0  0  0  0  0  0  0  0  0  0  0  0
  -31.8430    4.3470  -22.9550 C   0  0  0  0  0  0  0  0  0  0  0  0
  -31.0880    4.4430  -24.2630 C   0  0  0  0  0  0  0  0  0  0  0  0
  -30.8390    4.0710  -19.4750 C   0  0  0  0  0  0  0  0  0  0  0  0
  -30.5100    4.2060  -16.9710 C   0  0  0  0  0  0  0  0  0  0  0  0
  -29.3840    3.7250  -19.7020 C   0  0  0  0  0  0  0  0  0  0  0  0
  -24.7870    3.4120  -18.4530 C   0  0  0  0  0  0  0  0  0  0  0  0
  -23.3700    2.1020  -19.8960 C   0  0  0  0  0  0  0  0  0  0  0  0
  -23.7950    3.3720  -17.4780 C   0  0  0  0  0  0  0  0  0  0  0  0
  -36.1410    4.2890  -25.2900 C   0  0  0  0  0  0  0  0  0  0  0  0
  -26.1410    5.0920  -17.4630 O   0  0  0  0  0  0  0  0  0  0  0  0
  -26.0880    4.0810  -18.1580 C   0  0  0  0  0  0  0  0  0  0  0  0
  -22.6170    2.6840  -17.7070 C   0  0  0  0  0  0  0  0  0  0  0  0
  -22.4060    2.0440  -18.9120 C   0  0  0  0  0  0  0  0  0  0  0  0
  -24.5570    2.7790  -19.6730 C   0  0  0  0  0  0  0  0  0  0  0  0
  -27.1840    3.5090  -18.6710 N   0  0  0  0  0  0  0  0  0  0  0  0
  -28.5160    4.0790  -18.4940 C   0  0  2  0  0  0  0  0  0  0  0  0
  -29.1560    3.5470  -17.2200 C   0  0  0  0  0  0  0  0  0  0  0  0
  -31.3430    4.2480  -18.2200 C   0  0  0  0  0  0  0  0  0  0  0  0
  -33.8570    4.2440  -21.6730 N   0  0  0  0  0  0  0  0  0  0  0  0
  -29.7540    4.3890  -24.1780 N   0  0  0  0  0  0  0  0  0  0  0  0
  -31.6920    4.5330  -25.3560 O   0  0  0  0  0  0  0  0  0  0  0  0
  -33.2500    4.2920  -22.8740 C   0  0  0  0  0  0  0  0  0  0  0  0
  -35.4600    4.1810  -24.0720 C   0  0  0  0  0  0  0  0  0  0  0  0
  -36.4180    4.1290  -23.1040 C   0  0  0  0  0  0  0  0  0  0  0  0
  -37.4500    4.3220  -25.0940 N   0  0  0  0  0  0  0  0  0  0  0  0
  -37.5960    4.2180  -23.7310 N   0  0  0  0  0  0  0  0  0  0  0  0
  -38.9250    4.1950  -23.1330 C   0  0  0  0  0  0  0  0  0  0  0  0
  -33.5685    4.2191  -24.9201 H   0  0  0  0  0  0  0  0  0  0  0  0
  -33.5492    4.1847  -19.5905 H   0  0  0  0  0  0  0  0  0  0  0  0
  -31.0492    3.6340  -16.2015 H   0  0  0  0  0  0  0  0  0  0  0  0
  -30.3335    5.2402  -16.6405 H   0  0  0  0  0  0  0  0  0  0  0  0
  -29.3016    2.6451  -19.8943 H   0  0  0  0  0  0  0  0  0  0  0  0
  -29.0255    4.3106  -20.5614 H   0  0  0  0  0  0  0  0  0  0  0  0
  -23.1952    1.6079  -20.8631 H   0  0  0  0  0  0  0  0  0  0  0  0
  -23.9484    3.8903  -16.5200 H   0  0  0  0  0  0  0  0  0  0  0  0
  -35.6550    4.3396  -26.2755 H   0  0  0  0  0  0  0  0  0  0  0  0
  -21.8443    2.6466  -16.9250 H   0  0  0  0  0  0  0  0  0  0  0  0
  -21.4720    1.4897  -19.0864 H   0  0  0  0  0  0  0  0  0  0  0  0
  -25.3220    2.8174  -20.4625 H   0  0  0  0  0  0  0  0  0  0  0  0
  -27.0840    2.6365  -19.2092 H   0  0  0  0  0  0  0  0  0  0  0  0
  -28.4308    5.1725  -18.4106 H   0  0  0  0  0  0  0  0  0  0  0  0
  -28.4917    3.7574  -16.3689 H   0  0  0  0  0  0  0  0  0  0  0  0
  -29.3090    2.4634  -17.3311 H   0  0  0  0  0  0  0  0  0  0  0  0
  -32.4225    4.4322  -18.1166 H   0  0  0  0  0  0  0  0  0  0  0  0
  -29.1807    4.4489  -25.0316 H   0  0  0  0  0  0  0  0  0  0  0  0
  -29.3002    4.2876  -23.2589 H   0  0  0  0  0  0  0  0  0  0  0  0
  -36.2545    4.0328  -22.0205 H   0  0  0  0  0  0  0  0  0  0  0  0
  -38.8339    4.1966  -22.0368 H   0  0  0  0  0  0  0  0  0  0  0  0
  -39.4876    5.0835  -23.4554 H   0  0  0  0  0  0  0  0  0  0  0  0
  -39.4565    3.2875  -23.4554 H   0  0  0  0  0  0  0  0  0  0  0  0
  1 26  1  0
  1 27  1  0
  2  4  2  0
  2  5  1  0
  3  4  1  0
  3 23  2  0
  4  7  1  0
  5  6  1  0
  5 26  2  0
  6 24  1  0
  6 25  2  0
  7  9  1  0
  7 22  2  0
  8 21  1  0
  8 22  1  0
  9 20  1  0
 10 12  1  0
 10 15  1  0
 10 18  2  0
 11 17  2  0
 11 18  1  0
 12 16  2  0
 13 27  1  0
 13 29  2  0
 14 15  2  0
 15 19  1  0
 16 17  1  0
 20 19  1  0
 20 21  1  0
 23 26  1  0
 27 28  2  0
 28 30  1  0
 29 30  1  0
 30 31  1  0
  1 32  1  0
  3 33  1  0
  8 34  1  0
  8 35  1  0
  9 36  1  0
  9 37  1  0
 11 38  1  0
 12 39  1  0
 13 40  1  0
 16 41  1  0
 17 42  1  0
 18 43  1  0
 19 44  1  0
 20 45  1  1
 21 46  1  0
 21 47  1  0
 22 48  1  0
 24 49  1  0
 24 50  1  0
 28 51  1  0
 31 52  1  0
 31 53  1  0
 31 54  1  0
M  END
>  <filename_input>  (26) 
7SIU_9ID_docked.sdf

>  <pdb_id>  (26) 
7SIU_9ID

>  <pose_rank>  (26) 
25

>  <num_atoms_heavy>  (26) 
31

>  <num_torsions>  (26) 
6

>  <pose>  (26) 
[-31.08, 4.311, -21.857, 1e-06, 1e-06, 1e-06, 0.0, 0.0, 0.0, 0.0, 0.0, 0.0]

>  <energy>  (26) 
-1762.168812513437

>  <inter_energy>  (26) 
-1785.4247643780539

>  <intra_energy>  (26) 
36.16818633579367

>  <rmsd>  (26) 
0.0

>  <sdf_rank>  (26) 
0

$$$$
