
     RDKit          3D

 12 11  0  0  0  0  0  0  0  0999 V2000
   26.8561   32.2620   -7.7958 C   0  0  0  0  0  0  0  0  0  0  0  0
   27.2750   33.5844   -7.1447 C   0  0  0  0  0  0  0  0  0  0  0  0
   27.9210   31.8471   -9.1878 S   0  0  0  0  0  0  0  0  0  0  0  0
   26.1792   34.0139   -5.7806 S   0  0  2  0  0  0  0  0  0  0  0  0
   25.8056   35.4556   -5.8843 O   0  0  0  0  0  0  0  0  0  0  0  0
   26.9136   33.7448   -4.4748 O   0  0  0  0  0  0  0  0  0  0  0  0
   24.9555   33.1446   -5.8127 O   0  0  0  0  0  0  0  0  0  0  0  0
   26.9178   31.4591   -7.0464 H   0  0  0  0  0  0  0  0  0  0  0  0
   25.8269   32.3709   -8.1683 H   0  0  0  0  0  0  0  0  0  0  0  0
   28.3020   33.4871   -6.7631 H   0  0  0  0  0  0  0  0  0  0  0  0
   27.2167   34.3798   -7.9023 H   0  0  0  0  0  0  0  0  0  0  0  0
   29.1212   31.3794   -8.7211 H   0  0  0  0  0  0  0  0  0  0  0  0
  1  2  1  0
  1  3  1  0
  2  4  1  0
  4  5  2  0
  4  6  2  0
  4  7  1  1
  1  8  1  0
  1  9  1  0
  2 10  1  0
  2 11  1  0
  3 12  1  0
M  CHG  1   7  -1
M  END
>  <filename_input>  (1) 
7SUC_COM_docked.sdf

>  <pdb_id>  (1) 
7SUC_COM

>  <pose_rank>  (1) 
0

>  <num_atoms_heavy>  (1) 
7

>  <num_torsions>  (1) 
2

>  <pose>  (1) 
[26.179237504256815, 34.01389898896305, -5.780622010718808, -2.3495151409535726, 1.128966603175281, 3.101187438332053, 4.891534976408649, -0.23825579963870558]

>  <energy>  (1) 
-403.92160177221206

>  <inter_energy>  (1) 
-396.0441366776442

>  <intra_energy>  (1) 
0.0

>  <rmsd>  (1) 
0.743784

>  <sdf_rank>  (1) 
0

$$$$

     RDKit          3D

 12 11  0  0  0  0  0  0  0  0999 V2000
   26.4452   33.3276   -5.7057 C   0  0  0  0  0  0  0  0  0  0  0  0
   27.1539   33.5046   -7.0526 C   0  0  0  0  0  0  0  0  0  0  0  0
   25.7077   34.8710   -5.1418 S   0  0  0  0  0  0  0  0  0  0  0  0
   27.2888   31.9357   -7.9281 S   0  0  2  0  0  0  0  0  0  0  0  0
   26.9867   30.8182   -6.9853 O   0  0  0  0  0  0  0  0  0  0  0  0
   28.7062   31.8104   -8.4687 O   0  0  0  0  0  0  0  0  0  0  0  0
   26.3437   31.9165   -9.0945 O   0  0  0  0  0  0  0  0  0  0  0  0
   25.6535   32.5717   -5.8146 H   0  0  0  0  0  0  0  0  0  0  0  0
   27.1905   33.0087   -4.9621 H   0  0  0  0  0  0  0  0  0  0  0  0
   26.5804   34.2118   -7.6698 H   0  0  0  0  0  0  0  0  0  0  0  0
   28.1680   33.8875   -6.8653 H   0  0  0  0  0  0  0  0  0  0  0  0
   25.6951   34.8975   -3.7722 H   0  0  0  0  0  0  0  0  0  0  0  0
  1  2  1  0
  1  3  1  0
  2  4  1  0
  4  5  2  0
  4  6  2  0
  4  7  1  6
  1  8  1  0
  1  9  1  0
  2 10  1  0
  2 11  1  0
  3 12  1  0
M  CHG  1   7  -1
M  END
>  <filename_input>  (2) 
7SUC_COM_docked.sdf

>  <pdb_id>  (2) 
7SUC_COM

>  <pose_rank>  (2) 
1

>  <num_atoms_heavy>  (2) 
7

>  <num_torsions>  (2) 
2

>  <pose>  (2) 
[27.28881385143918, 31.93571915345056, -7.928050062654372, 1.7187355345641615, 2.344007645760425, -1.2871316972121627, 13.277241600203348, -12.371575346997293]

>  <energy>  (2) 
-321.8169107427525

>  <inter_energy>  (2) 
-326.1051078345017

>  <intra_energy>  (2) 
0.0

>  <rmsd>  (2) 
3.82935

>  <sdf_rank>  (2) 
0

$$$$

     RDKit          3D

 12 11  0  0  0  0  0  0  0  0999 V2000
   27.0274   32.1789   -7.6403 C   0  0  0  0  0  0  0  0  0  0  0  0
   26.5526   33.6304   -7.5151 C   0  0  0  0  0  0  0  0  0  0  0  0
   26.8083   31.5567   -9.3162 S   0  0  0  0  0  0  0  0  0  0  0  0
   26.1958   34.0527   -5.8004 S   0  0  2  0  0  0  0  0  0  0  0  0
   27.4136   33.8132   -4.9707 O   0  0  0  0  0  0  0  0  0  0  0  0
   25.0438   33.1799   -5.3229 O   0  0  0  0  0  0  0  0  0  0  0  0
   25.7621   35.4869   -5.7052 O   0  0  0  0  0  0  0  0  0  0  0  0
   28.0939   32.1274   -7.3763 H   0  0  0  0  0  0  0  0  0  0  0  0
   26.4257   31.5584   -6.9598 H   0  0  0  0  0  0  0  0  0  0  0  0
   27.3397   34.2993   -7.8932 H   0  0  0  0  0  0  0  0  0  0  0  0
   25.6297   33.7471   -8.1021 H   0  0  0  0  0  0  0  0  0  0  0  0
   26.3535   30.2652   -9.2681 H   0  0  0  0  0  0  0  0  0  0  0  0
  1  2  1  0
  1  3  1  0
  2  4  1  0
  4  5  2  0
  4  6  2  0
  4  7  1  6
  1  8  1  0
  1  9  1  0
  2 10  1  0
  2 11  1  0
  3 12  1  0
M  CHG  1   7  -1
M  END
>  <filename_input>  (3) 
7SUC_COM_docked.sdf

>  <pdb_id>  (3) 
7SUC_COM

>  <pose_rank>  (3) 
2

>  <num_atoms_heavy>  (3) 
7

>  <num_torsions>  (3) 
2

>  <pose>  (3) 
[26.195847509474536, 34.05272212412401, -5.800409946344038, -0.7352173080418384, 0.7720307845356851, 1.8186018329292675, 8.234146478252056, -6.861623057634827]

>  <energy>  (3) 
-368.48704598405465

>  <inter_energy>  (3) 
-376.293561603651

>  <intra_energy>  (3) 
0.0

>  <rmsd>  (3) 
1.00254

>  <sdf_rank>  (3) 
0

$$$$

     RDKit          3D

 12 11  0  0  0  0  0  0  0  0999 V2000
   35.3628   23.9595   -1.1632 C   0  0  0  0  0  0  0  0  0  0  0  0
   35.2189   25.3362   -1.8204 C   0  0  0  0  0  0  0  0  0  0  0  0
   33.9562   23.5861   -0.1021 S   0  0  0  0  0  0  0  0  0  0  0  0
   35.0660   26.6357   -0.5819 S   0  0  2  0  0  0  0  0  0  0  0  0
   33.7451   26.5107    0.1025 O   0  0  0  0  0  0  0  0  0  0  0  0
   35.1787   27.9812   -1.2845 O   0  0  0  0  0  0  0  0  0  0  0  0
   36.1892   26.5340    0.4092 O   0  0  0  0  0  0  0  0  0  0  0  0
   35.4310   23.1932   -1.9495 H   0  0  0  0  0  0  0  0  0  0  0  0
   36.2714   23.9655   -0.5434 H   0  0  0  0  0  0  0  0  0  0  0  0
   36.1066   25.5330   -2.4394 H   0  0  0  0  0  0  0  0  0  0  0  0
   34.3085   25.3343   -2.4378 H   0  0  0  0  0  0  0  0  0  0  0  0
   34.3351   23.6867    1.2106 H   0  0  0  0  0  0  0  0  0  0  0  0
  1  2  1  0
  1  3  1  0
  2  4  1  0
  4  5  2  0
  4  6  2  0
  4  7  1  1
  1  8  1  0
  1  9  1  0
  2 10  1  0
  2 11  1  0
  3 12  1  0
M  CHG  1   7  -1
M  END
>  <filename_input>  (4) 
7SUC_COM_docked.sdf

>  <pdb_id>  (4) 
7SUC_COM

>  <pose_rank>  (4) 
3

>  <num_atoms_heavy>  (4) 
7

>  <num_torsions>  (4) 
2

>  <pose>  (4) 
[35.06602609516686, 26.63566098923843, -0.581882626784614, 3.094443977729485, -2.1955788253481585, 4.145748899084811, -0.25884152984002645, -2.333489809764748]

>  <energy>  (4) 
-28.411456498324807

>  <inter_energy>  (4) 
-38.42694347684587

>  <intra_energy>  (4) 
17.354956458129973

>  <rmsd>  (4) 
12.6277

>  <sdf_rank>  (4) 
0

$$$$

     RDKit          3D

 12 11  0  0  0  0  0  0  0  0999 V2000
   27.2880   32.4681   -8.3112 C   0  0  0  0  0  0  0  0  0  0  0  0
   26.5819   32.0663   -7.0120 C   0  0  0  0  0  0  0  0  0  0  0  0
   26.6188   31.5782   -9.7268 S   0  0  0  0  0  0  0  0  0  0  0  0
   26.0106   33.5154   -6.1068 S   0  0  2  0  0  0  0  0  0  0  0  0
   24.7566   33.1742   -5.3721 O   0  0  0  0  0  0  0  0  0  0  0  0
   25.7562   34.6342   -7.1072 O   0  0  0  0  0  0  0  0  0  0  0  0
   27.0751   33.9776   -5.1543 O   0  0  0  0  0  0  0  0  0  0  0  0
   27.1542   33.5481   -8.4718 H   0  0  0  0  0  0  0  0  0  0  0  0
   28.3546   32.2161   -8.2172 H   0  0  0  0  0  0  0  0  0  0  0  0
   25.7174   31.4310   -7.2551 H   0  0  0  0  0  0  0  0  0  0  0  0
   27.2983   31.5207   -6.3803 H   0  0  0  0  0  0  0  0  0  0  0  0
   25.8390   30.5411   -9.2872 H   0  0  0  0  0  0  0  0  0  0  0  0
  1  2  1  0
  1  3  1  0
  2  4  1  0
  4  5  2  0
  4  6  2  0
  4  7  1  1
  1  8  1  0
  1  9  1  0
  2 10  1  0
  2 11  1  0
  3 12  1  0
M  CHG  1   7  -1
M  END
>  <filename_input>  (5) 
7SUC_COM_docked.sdf

>  <pdb_id>  (5) 
7SUC_COM

>  <pose_rank>  (5) 
4

>  <num_atoms_heavy>  (5) 
7

>  <num_torsions>  (5) 
2

>  <pose>  (5) 
[26.010575539338593, 33.515426124539, -6.1068348240230375, 5.155239183959674, -1.1420009780719158, 1.8779328758704408, 3.5348686291389644, 0.6831472079571165]

>  <energy>  (5) 
-337.24091515013544

>  <inter_energy>  (5) 
-334.93087910058796

>  <intra_energy>  (5) 
0.0

>  <rmsd>  (5) 
1.37205

>  <sdf_rank>  (5) 
0

$$$$

     RDKit          3D

 12 11  0  0  0  0  0  0  0  0999 V2000
   27.0152   32.7311   -8.1901 C   0  0  0  0  0  0  0  0  0  0  0  0
   27.0781   32.3243   -6.7141 C   0  0  0  0  0  0  0  0  0  0  0  0
   26.7687   31.3013   -9.2571 S   0  0  0  0  0  0  0  0  0  0  0  0
   26.0379   33.3903   -5.7004 S   0  0  2  0  0  0  0  0  0  0  0  0
   24.6349   33.3358   -6.2077 O   0  0  0  0  0  0  0  0  0  0  0  0
   26.5819   34.8094   -5.7850 O   0  0  0  0  0  0  0  0  0  0  0  0
   26.1010   32.9537   -4.2653 O   0  0  0  0  0  0  0  0  0  0  0  0
   26.1796   33.4321   -8.3326 H   0  0  0  0  0  0  0  0  0  0  0  0
   27.9716   33.2029   -8.4597 H   0  0  0  0  0  0  0  0  0  0  0  0
   26.7328   31.2848   -6.6132 H   0  0  0  0  0  0  0  0  0  0  0  0
   28.1181   32.4224   -6.3695 H   0  0  0  0  0  0  0  0  0  0  0  0
   26.5761   30.1846   -8.4872 H   0  0  0  0  0  0  0  0  0  0  0  0
  1  2  1  0
  1  3  1  0
  2  4  1  0
  4  5  2  0
  4  6  2  0
  4  7  1  1
  1  8  1  0
  1  9  1  0
  2 10  1  0
  2 11  1  0
  3 12  1  0
M  CHG  1   7  -1
M  END
>  <filename_input>  (6) 
7SUC_COM_docked.sdf

>  <pdb_id>  (6) 
7SUC_COM

>  <pose_rank>  (6) 
5

>  <num_atoms_heavy>  (6) 
7

>  <num_torsions>  (6) 
2

>  <pose>  (6) 
[26.037892030845317, 33.39030193612903, -5.700414086184865, 0.08067843571309308, -0.4560893153346106, -0.6246242600719051, -4.32804708898234, 0.6077553420660798]

>  <energy>  (6) 
-353.20127193421433

>  <inter_energy>  (6) 
-346.0118205005448

>  <intra_energy>  (6) 
0.0

>  <rmsd>  (6) 
1.26975

>  <sdf_rank>  (6) 
0

$$$$

     RDKit          3D

 12 11  0  0  0  0  0  0  0  0999 V2000
   26.3715   33.3888   -7.8654 C   0  0  0  0  0  0  0  0  0  0  0  0
   25.3358   33.3748   -6.7362 C   0  0  0  0  0  0  0  0  0  0  0  0
   27.7291   32.2545   -7.5278 S   0  0  0  0  0  0  0  0  0  0  0  0
   25.7604   34.5618   -5.4491 S   0  0  2  0  0  0  0  0  0  0  0  0
   24.5319   34.9096   -4.6753 O   0  0  0  0  0  0  0  0  0  0  0  0
   26.3414   35.8013   -6.1147 O   0  0  0  0  0  0  0  0  0  0  0  0
   26.8113   33.9843   -4.5455 O   0  0  0  0  0  0  0  0  0  0  0  0
   25.8813   33.0907   -8.8040 H   0  0  0  0  0  0  0  0  0  0  0  0
   26.7825   34.4060   -7.9449 H   0  0  0  0  0  0  0  0  0  0  0  0
   24.3497   33.6319   -7.1503 H   0  0  0  0  0  0  0  0  0  0  0  0
   25.3190   32.3691   -6.2910 H   0  0  0  0  0  0  0  0  0  0  0  0
   27.8876   32.1222   -6.1735 H   0  0  0  0  0  0  0  0  0  0  0  0
  1  2  1  0
  1  3  1  0
  2  4  1  0
  4  5  2  0
  4  6  2  0
  4  7  1  1
  1  8  1  0
  1  9  1  0
  2 10  1  0
  2 11  1  0
  3 12  1  0
M  CHG  1   7  -1
M  END
>  <filename_input>  (7) 
7SUC_COM_docked.sdf

>  <pdb_id>  (7) 
7SUC_COM

>  <pose_rank>  (7) 
6

>  <num_atoms_heavy>  (7) 
7

>  <num_torsions>  (7) 
2

>  <pose>  (7) 
[25.760393349738656, 34.56179396749321, -5.449053617801815, -9.358177394549928, 13.340887499191524, -28.011119214552608, 9.997502479040635, 4.466825075832461]

>  <energy>  (7) 
-305.88097387619365

>  <inter_energy>  (7) 
-305.54409586175683

>  <intra_energy>  (7) 
0.5247817263848933

>  <rmsd>  (7) 
1.50484

>  <sdf_rank>  (7) 
0

$$$$

     RDKit          3D

 12 11  0  0  0  0  0  0  0  0999 V2000
   27.1662   32.0491   -7.2010 C   0  0  0  0  0  0  0  0  0  0  0  0
   26.7288   33.5099   -7.3516 C   0  0  0  0  0  0  0  0  0  0  0  0
   27.6567   31.3421   -8.7831 S   0  0  0  0  0  0  0  0  0  0  0  0
   25.8538   34.0818   -5.8843 S   0  0  2  0  0  0  0  0  0  0  0  0
   24.6389   33.2396   -5.6759 O   0  0  0  0  0  0  0  0  0  0  0  0
   25.4645   35.5379   -6.0972 O   0  0  0  0  0  0  0  0  0  0  0  0
   26.7589   34.0133   -4.6883 O   0  0  0  0  0  0  0  0  0  0  0  0
   28.0190   32.0007   -6.5078 H   0  0  0  0  0  0  0  0  0  0  0  0
   26.3142   31.4713   -6.8134 H   0  0  0  0  0  0  0  0  0  0  0  0
   27.6192   34.1371   -7.5058 H   0  0  0  0  0  0  0  0  0  0  0  0
   26.0492   33.5831   -8.2135 H   0  0  0  0  0  0  0  0  0  0  0  0
   28.4278   30.2304   -8.5672 H   0  0  0  0  0  0  0  0  0  0  0  0
  1  2  1  0
  1  3  1  0
  2  4  1  0
  4  5  2  0
  4  6  2  0
  4  7  1  1
  1  8  1  0
  1  9  1  0
  2 10  1  0
  2 11  1  0
  3 12  1  0
M  CHG  1   7  -1
M  END
>  <filename_input>  (8) 
7SUC_COM_docked.sdf

>  <pdb_id>  (8) 
7SUC_COM

>  <pose_rank>  (8) 
7

>  <num_atoms_heavy>  (8) 
7

>  <num_torsions>  (8) 
2

>  <pose>  (8) 
[25.85377543168808, 34.08179675323643, -5.884292838180455, -0.8743048572348698, 7.311431771712971, -10.27550849225869, -0.09478402933361212, -0.4654762143990444]

>  <energy>  (8) 
-360.78705596422384

>  <inter_energy>  (8) 
-362.4907636243212

>  <intra_energy>  (8) 
0.0

>  <rmsd>  (8) 
0.574516

>  <sdf_rank>  (8) 
0

$$$$

     RDKit          3D

 12 11  0  0  0  0  0  0  0  0999 V2000
   23.5022   39.2712    2.4863 C   0  0  0  0  0  0  0  0  0  0  0  0
   22.8138   38.4845    1.3660 C   0  0  0  0  0  0  0  0  0  0  0  0
   25.2944   39.1205    2.3915 S   0  0  0  0  0  0  0  0  0  0  0  0
   22.6713   36.7391    1.7891 S   0  0  2  0  0  0  0  0  0  0  0  0
   21.4277   36.1841    1.1774 O   0  0  0  0  0  0  0  0  0  0  0  0
   22.6211   36.6175    3.3056 O   0  0  0  0  0  0  0  0  0  0  0  0
   23.8805   35.9933    1.3034 O   0  0  0  0  0  0  0  0  0  0  0  0
   23.2274   40.3327    2.3989 H   0  0  0  0  0  0  0  0  0  0  0  0
   23.1713   38.8598    3.4513 H   0  0  0  0  0  0  0  0  0  0  0  0
   21.8075   38.8977    1.2033 H   0  0  0  0  0  0  0  0  0  0  0  0
   23.4215   38.5734    0.4534 H   0  0  0  0  0  0  0  0  0  0  0  0
   25.8166   39.0766    3.6573 H   0  0  0  0  0  0  0  0  0  0  0  0
  1  2  1  0
  1  3  1  0
  2  4  1  0
  4  5  2  0
  4  6  2  0
  4  7  1  6
  1  8  1  0
  1  9  1  0
  2 10  1  0
  2 11  1  0
  3 12  1  0
M  CHG  1   7  -1
M  END
>  <filename_input>  (9) 
7SUC_COM_docked.sdf

>  <pdb_id>  (9) 
7SUC_COM

>  <pose_rank>  (9) 
8

>  <num_atoms_heavy>  (9) 
7

>  <num_torsions>  (9) 
2

>  <pose>  (9) 
[22.671290787618837, 36.73908658810494, 1.7891231414475908, 1.6862519267082559, 0.5725913385218728, 0.10599354447951562, -9.030675078636884, 4.35883159973617]

>  <energy>  (9) 
-118.50643021136143

>  <inter_energy>  (9) 
-103.6416592618128

>  <intra_energy>  (9) 
0.2979810600894399

>  <rmsd>  (9) 
10.2533

>  <sdf_rank>  (9) 
0

$$$$

     RDKit          3D

 12 11  0  0  0  0  0  0  0  0999 V2000
   22.0414   36.3267    3.0266 C   0  0  0  0  0  0  0  0  0  0  0  0
   22.9665   37.4917    3.3940 C   0  0  0  0  0  0  0  0  0  0  0  0
   22.7953   34.7386    3.4180 S   0  0  0  0  0  0  0  0  0  0  0  0
   22.9906   38.7385    2.0937 S   0  0  2  0  0  0  0  0  0  0  0  0
   22.5505   40.0482    2.6592 O   0  0  0  0  0  0  0  0  0  0  0  0
   22.0481   38.2914    0.9852 O   0  0  0  0  0  0  0  0  0  0  0  0
   24.3710   38.8477    1.5135 O   0  0  0  0  0  0  0  0  0  0  0  0
   21.1016   36.4250    3.5897 H   0  0  0  0  0  0  0  0  0  0  0  0
   21.8537   36.3627    1.9433 H   0  0  0  0  0  0  0  0  0  0  0  0
   22.6099   37.9528    4.3268 H   0  0  0  0  0  0  0  0  0  0  0  0
   23.9867   37.1002    3.5204 H   0  0  0  0  0  0  0  0  0  0  0  0
   22.8661   34.5894    4.7780 H   0  0  0  0  0  0  0  0  0  0  0  0
  1  2  1  0
  1  3  1  0
  2  4  1  0
  4  5  2  0
  4  6  2  0
  4  7  1  6
  1  8  1  0
  1  9  1  0
  2 10  1  0
  2 11  1  0
  3 12  1  0
M  CHG  1   7  -1
M  END
>  <filename_input>  (10) 
7SUC_COM_docked.sdf

>  <pdb_id>  (10) 
7SUC_COM

>  <pose_rank>  (10) 
9

>  <num_atoms_heavy>  (10) 
7

>  <num_torsions>  (10) 
2

>  <pose>  (10) 
[22.990591723252216, 38.738542579429534, 2.0937293757101454, 3.6473228700885896, -1.3725140808243745, 0.9578901944317122, 3.0762716968266166, -0.9719224139921735]

>  <energy>  (10) 
-118.36030267182753

>  <inter_energy>  (10) 
-112.5951404709462

>  <intra_energy>  (10) 
0.0

>  <rmsd>  (10) 
10.7636

>  <sdf_rank>  (10) 
0

$$$$

     RDKit          3D

 12 11  0  0  0  0  0  0  0  0999 V2000
   31.5075   24.4403   -2.7563 C   0  0  0  0  0  0  0  0  0  0  0  0
   32.3730   24.1798   -1.5190 C   0  0  0  0  0  0  0  0  0  0  0  0
   30.2221   23.1916   -2.9356 S   0  0  0  0  0  0  0  0  0  0  0  0
   33.3402   25.6358   -1.0829 S   0  0  2  0  0  0  0  0  0  0  0  0
   32.5579   26.8637   -1.4133 O   0  0  0  0  0  0  0  0  0  0  0  0
   34.6398   25.6011   -1.8747 O   0  0  0  0  0  0  0  0  0  0  0  0
   33.6856   25.6034    0.3778 O   0  0  0  0  0  0  0  0  0  0  0  0
   31.0349   25.4290   -2.6604 H   0  0  0  0  0  0  0  0  0  0  0  0
   32.1543   24.4008   -3.6451 H   0  0  0  0  0  0  0  0  0  0  0  0
   31.7205   23.9160   -0.6736 H   0  0  0  0  0  0  0  0  0  0  0  0
   33.0659   23.3560   -1.7454 H   0  0  0  0  0  0  0  0  0  0  0  0
   29.8039   22.7854   -1.6958 H   0  0  0  0  0  0  0  0  0  0  0  0
  1  2  1  0
  1  3  1  0
  2  4  1  0
  4  5  2  0
  4  6  2  0
  4  7  1  1
  1  8  1  0
  1  9  1  0
  2 10  1  0
  2 11  1  0
  3 12  1  0
M  CHG  1   7  -1
M  END
>  <filename_input>  (11) 
7SUC_COM_docked.sdf

>  <pdb_id>  (11) 
7SUC_COM

>  <pose_rank>  (11) 
10

>  <num_atoms_heavy>  (11) 
7

>  <num_torsions>  (11) 
2

>  <pose>  (11) 
[33.34021405280864, 25.63583915826323, -1.0829292590216455, -0.7217656976943759, -0.2374391793370342, -1.6338897743591088, 1.540191641228692, 0.061492891452215606]

>  <energy>  (11) 
-115.11780095961741

>  <inter_energy>  (11) 
-99.60089573780377

>  <intra_energy>  (11) 
0.0

>  <rmsd>  (11) 
11.3937

>  <sdf_rank>  (11) 
0

$$$$

     RDKit          3D

 12 11  0  0  0  0  0  0  0  0999 V2000
   22.1471   40.1577    3.3958 C   0  0  0  0  0  0  0  0  0  0  0  0
   22.0939   39.8823    1.8894 C   0  0  0  0  0  0  0  0  0  0  0  0
   20.5374   40.6563    4.0314 S   0  0  0  0  0  0  0  0  0  0  0  0
   23.1804   38.5178    1.4385 S   0  0  2  0  0  0  0  0  0  0  0  0
   24.5306   38.7464    2.0328 O   0  0  0  0  0  0  0  0  0  0  0  0
   23.2681   38.4584   -0.0800 O   0  0  0  0  0  0  0  0  0  0  0  0
   22.6006   37.2197    1.9211 O   0  0  0  0  0  0  0  0  0  0  0  0
   22.4692   39.2432    3.9154 H   0  0  0  0  0  0  0  0  0  0  0  0
   22.8578   40.9785    3.5723 H   0  0  0  0  0  0  0  0  0  0  0  0
   21.0616   39.6275    1.6074 H   0  0  0  0  0  0  0  0  0  0  0  0
   22.4291   40.7852    1.3580 H   0  0  0  0  0  0  0  0  0  0  0  0
   20.5647   40.6478    5.4011 H   0  0  0  0  0  0  0  0  0  0  0  0
  1  2  1  0
  1  3  1  0
  2  4  1  0
  4  5  2  0
  4  6  2  0
  4  7  1  1
  1  8  1  0
  1  9  1  0
  2 10  1  0
  2 11  1  0
  3 12  1  0
M  CHG  1   7  -1
M  END
>  <filename_input>  (12) 
7SUC_COM_docked.sdf

>  <pdb_id>  (12) 
7SUC_COM

>  <pose_rank>  (12) 
11

>  <num_atoms_heavy>  (12) 
7

>  <num_torsions>  (12) 
2

>  <pose>  (12) 
[23.180393479287694, 38.51780422090578, 1.4384548000875768, 0.44678033039765297, -1.9053816785836362, 2.385542075412714, 6.37069721222225, 0.4103245091437897]

>  <energy>  (12) 
-80.94438778707817

>  <inter_energy>  (12) 
-78.8068880850441

>  <intra_energy>  (12) 
0.0

>  <rmsd>  (12) 
11.516

>  <sdf_rank>  (12) 
0

$$$$

     RDKit          3D

 12 11  0  0  0  0  0  0  0  0999 V2000
   23.6526   41.3745    1.5931 C   0  0  0  0  0  0  0  0  0  0  0  0
   23.2096   40.4001    0.4967 C   0  0  0  0  0  0  0  0  0  0  0  0
   25.3529   41.0662    2.1004 S   0  0  0  0  0  0  0  0  0  0  0  0
   22.0006   39.2207    1.1238 S   0  0  2  0  0  0  0  0  0  0  0  0
   22.2257   37.8940    0.4773 O   0  0  0  0  0  0  0  0  0  0  0  0
   20.6089   39.7444    0.7987 O   0  0  0  0  0  0  0  0  0  0  0  0
   22.1182   39.1106    2.6166 O   0  0  0  0  0  0  0  0  0  0  0  0
   23.5743   42.4029    1.2107 H   0  0  0  0  0  0  0  0  0  0  0  0
   22.9998   41.2317    2.4669 H   0  0  0  0  0  0  0  0  0  0  0  0
   22.7598   40.9700   -0.3297 H   0  0  0  0  0  0  0  0  0  0  0  0
   24.0918   39.8430    0.1482 H   0  0  0  0  0  0  0  0  0  0  0  0
   25.4261   41.0529    3.4684 H   0  0  0  0  0  0  0  0  0  0  0  0
  1  2  1  0
  1  3  1  0
  2  4  1  0
  4  5  2  0
  4  6  2  0
  4  7  1  1
  1  8  1  0
  1  9  1  0
  2 10  1  0
  2 11  1  0
  3 12  1  0
M  CHG  1   7  -1
M  END
>  <filename_input>  (13) 
7SUC_COM_docked.sdf

>  <pdb_id>  (13) 
7SUC_COM

>  <pose_rank>  (13) 
12

>  <num_atoms_heavy>  (13) 
7

>  <num_torsions>  (13) 
2

>  <pose>  (13) 
[22.000637592641187, 39.22068375547396, 1.1238396627805571, -1.7546966496441003, 2.257196845947602, -4.2239407160698335, 4.724371484996668, -1.44096128112728]

>  <energy>  (13) 
-108.03058404141598

>  <inter_energy>  (13) 
-99.88860310249744

>  <intra_energy>  (13) 
0.0

>  <rmsd>  (13) 
11.0576

>  <sdf_rank>  (13) 
0

$$$$

     RDKit          3D

 12 11  0  0  0  0  0  0  0  0999 V2000
   21.3717   37.8806  -12.9116 C   0  0  0  0  0  0  0  0  0  0  0  0
   21.2403   39.2437  -13.5990 C   0  0  0  0  0  0  0  0  0  0  0  0
   19.9149   36.8591  -13.1908 S   0  0  0  0  0  0  0  0  0  0  0  0
   22.5493   40.3654  -13.0754 S   0  0  2  0  0  0  0  0  0  0  0  0
   23.3209   39.7366  -11.9628 O   0  0  0  0  0  0  0  0  0  0  0  0
   21.9075   41.6658  -12.6124 O   0  0  0  0  0  0  0  0  0  0  0  0
   23.4498   40.6793  -14.2350 O   0  0  0  0  0  0  0  0  0  0  0  0
   22.2547   37.3614  -13.3125 H   0  0  0  0  0  0  0  0  0  0  0  0
   21.4745   38.0477  -11.8292 H   0  0  0  0  0  0  0  0  0  0  0  0
   21.3019   39.1038  -14.6883 H   0  0  0  0  0  0  0  0  0  0  0  0
   20.2717   39.6834  -13.3189 H   0  0  0  0  0  0  0  0  0  0  0  0
   19.3815   36.4851  -11.9856 H   0  0  0  0  0  0  0  0  0  0  0  0
  1  2  1  0
  1  3  1  0
  2  4  1  0
  4  5  2  0
  4  6  2  0
  4  7  1  6
  1  8  1  0
  1  9  1  0
  2 10  1  0
  2 11  1  0
  3 12  1  0
M  CHG  1   7  -1
M  END
>  <filename_input>  (14) 
7SUC_COM_docked.sdf

>  <pdb_id>  (14) 
7SUC_COM

>  <pose_rank>  (14) 
13

>  <num_atoms_heavy>  (14) 
7

>  <num_torsions>  (14) 
2

>  <pose>  (14) 
[22.549250247407038, 40.36543969921946, -13.0754120474833, -0.39045924857104364, 1.8144232584292261, 0.24641749439609956, 13.388116871019667, -0.3930315171396947]

>  <energy>  (14) 
-107.86612462930994

>  <inter_energy>  (14) 
-95.65011747562146

>  <intra_energy>  (14) 
0.0

>  <rmsd>  (14) 
10.7313

>  <sdf_rank>  (14) 
0

$$$$

     RDKit          3D

 12 11  0  0  0  0  0  0  0  0999 V2000
   19.1626   36.7270  -14.1567 C   0  0  0  0  0  0  0  0  0  0  0  0
   20.6453   36.6938  -13.7713 C   0  0  0  0  0  0  0  0  0  0  0  0
   18.9372   36.4891  -15.9277 S   0  0  0  0  0  0  0  0  0  0  0  0
   21.3671   38.3438  -13.8186 S   0  0  2  0  0  0  0  0  0  0  0  0
   20.3249   39.3479  -13.4517 O   0  0  0  0  0  0  0  0  0  0  0  0
   21.8829   38.5996  -15.2276 O   0  0  0  0  0  0  0  0  0  0  0  0
   22.5334   38.4205  -12.8762 O   0  0  0  0  0  0  0  0  0  0  0  0
   18.6350   35.9260  -13.6182 H   0  0  0  0  0  0  0  0  0  0  0  0
   18.7570   37.7130  -13.8860 H   0  0  0  0  0  0  0  0  0  0  0  0
   20.7425   36.2886  -12.7533 H   0  0  0  0  0  0  0  0  0  0  0  0
   21.1791   36.0590  -14.4937 H   0  0  0  0  0  0  0  0  0  0  0  0
   18.0065   35.5067  -16.1416 H   0  0  0  0  0  0  0  0  0  0  0  0
  1  2  1  0
  1  3  1  0
  2  4  1  0
  4  5  2  0
  4  6  2  0
  4  7  1  1
  1  8  1  0
  1  9  1  0
  2 10  1  0
  2 11  1  0
  3 12  1  0
M  CHG  1   7  -1
M  END
>  <filename_input>  (15) 
7SUC_COM_docked.sdf

>  <pdb_id>  (15) 
7SUC_COM

>  <pose_rank>  (15) 
14

>  <num_atoms_heavy>  (15) 
7

>  <num_torsions>  (15) 
2

>  <pose>  (15) 
[21.367061609967557, 38.34383681492458, -13.818565934102802, 3.293353062513577, -0.5890710815399257, 3.3184485204099943, 1.511526855690797, -1.767970045629172]

>  <energy>  (15) 
-106.79534634768167

>  <inter_energy>  (15) 
-91.8302726663052

>  <intra_energy>  (15) 
0.0025204531106549927

>  <rmsd>  (15) 
11.1933

>  <sdf_rank>  (15) 
0

$$$$

     RDKit          3D

 12 11  0  0  0  0  0  0  0  0999 V2000
   20.5495   39.1991    3.4935 C   0  0  0  0  0  0  0  0  0  0  0  0
   20.6829   38.0357    2.5052 C   0  0  0  0  0  0  0  0  0  0  0  0
   18.9226   39.9650    3.3933 S   0  0  0  0  0  0  0  0  0  0  0  0
   22.3972   37.5022    2.3557 S   0  0  2  0  0  0  0  0  0  0  0  0
   22.4967   36.4566    1.2948 O   0  0  0  0  0  0  0  0  0  0  0  0
   22.8430   36.9439    3.6997 O   0  0  0  0  0  0  0  0  0  0  0  0
   23.2730   38.6767    2.0274 O   0  0  0  0  0  0  0  0  0  0  0  0
   20.7044   38.8205    4.5146 H   0  0  0  0  0  0  0  0  0  0  0  0
   21.3048   39.9572    3.2390 H   0  0  0  0  0  0  0  0  0  0  0  0
   20.0739   37.1914    2.8605 H   0  0  0  0  0  0  0  0  0  0  0  0
   20.3362   38.3754    1.5181 H   0  0  0  0  0  0  0  0  0  0  0  0
   18.4450   40.1899    4.6575 H   0  0  0  0  0  0  0  0  0  0  0  0
  1  2  1  0
  1  3  1  0
  2  4  1  0
  4  5  2  0
  4  6  2  0
  4  7  1  6
  1  8  1  0
  1  9  1  0
  2 10  1  0
  2 11  1  0
  3 12  1  0
M  CHG  1   7  -1
M  END
>  <filename_input>  (16) 
7SUC_COM_docked.sdf

>  <pdb_id>  (16) 
7SUC_COM

>  <pose_rank>  (16) 
15

>  <num_atoms_heavy>  (16) 
7

>  <num_torsions>  (16) 
2

>  <pose>  (16) 
[22.397206721053024, 37.50219194785353, 2.355667522696564, -2.08535382842363, -2.4690227199507144, -1.9171026551002854, -2.097218501674781, -0.42267639831964354]

>  <energy>  (16) 
-76.13153388148966

>  <inter_energy>  (16) 
-68.41983960960204

>  <intra_energy>  (16) 
0.0

>  <rmsd>  (16) 
11.8672

>  <sdf_rank>  (16) 
0

$$$$

     RDKit          3D

 12 11  0  0  0  0  0  0  0  0999 V2000
   18.3916   38.9138  -14.0270 C   0  0  0  0  0  0  0  0  0  0  0  0
   17.6540   37.6211  -14.3915 C   0  0  0  0  0  0  0  0  0  0  0  0
   17.8981   39.5181  -12.4037 S   0  0  0  0  0  0  0  0  0  0  0  0
   18.7791   36.2142  -14.4143 S   0  0  2  0  0  0  0  0  0  0  0  0
   18.5159   35.3929  -15.6329 O   0  0  0  0  0  0  0  0  0  0  0  0
   18.5426   35.3926  -13.1549 O   0  0  0  0  0  0  0  0  0  0  0  0
   20.2014   36.6947  -14.3949 O   0  0  0  0  0  0  0  0  0  0  0  0
   19.4741   38.7187  -14.0221 H   0  0  0  0  0  0  0  0  0  0  0  0
   18.1358   39.6800  -14.7736 H   0  0  0  0  0  0  0  0  0  0  0  0
   16.8640   37.4369  -13.6486 H   0  0  0  0  0  0  0  0  0  0  0  0
   17.2216   37.7380  -15.3962 H   0  0  0  0  0  0  0  0  0  0  0  0
   18.5093   38.7696  -11.4326 H   0  0  0  0  0  0  0  0  0  0  0  0
  1  2  1  0
  1  3  1  0
  2  4  1  0
  4  5  2  0
  4  6  2  0
  4  7  1  6
  1  8  1  0
  1  9  1  0
  2 10  1  0
  2 11  1  0
  3 12  1  0
M  CHG  1   7  -1
M  END
>  <filename_input>  (17) 
7SUC_COM_docked.sdf

>  <pdb_id>  (17) 
7SUC_COM

>  <pose_rank>  (17) 
16

>  <num_atoms_heavy>  (17) 
7

>  <num_torsions>  (17) 
2

>  <pose>  (17) 
[18.779097997817445, 36.21417172632909, -14.414328198462425, -3.0320697566775405, -1.709072950246672, -2.121964866391149, -1.4039980690833898, 0.9899990927083853]

>  <energy>  (17) 
-64.93794923594633

>  <inter_energy>  (17) 
-60.66534842190127

>  <intra_energy>  (17) 
0.0

>  <rmsd>  (17) 
12.3614

>  <sdf_rank>  (17) 
0

$$$$

     RDKit          3D

 12 11  0  0  0  0  0  0  0  0999 V2000
   32.1304   25.7406   -1.9085 C   0  0  0  0  0  0  0  0  0  0  0  0
   32.6386   25.6940   -0.4637 C   0  0  0  0  0  0  0  0  0  0  0  0
   33.3974   25.2026   -3.0699 S   0  0  0  0  0  0  0  0  0  0  0  0
   32.5299   27.3140    0.3170 S   0  0  2  0  0  0  0  0  0  0  0  0
   32.1604   28.3320   -0.7105 O   0  0  0  0  0  0  0  0  0  0  0  0
   33.8843   27.6409    0.9302 O   0  0  0  0  0  0  0  0  0  0  0  0
   31.5149   27.2832    1.4229 O   0  0  0  0  0  0  0  0  0  0  0  0
   31.2560   25.0797   -2.0015 H   0  0  0  0  0  0  0  0  0  0  0  0
   31.8617   26.7803   -2.1470 H   0  0  0  0  0  0  0  0  0  0  0  0
   32.0295   24.9784    0.1082 H   0  0  0  0  0  0  0  0  0  0  0  0
   33.6936   25.3826   -0.4751 H   0  0  0  0  0  0  0  0  0  0  0  0
   34.4854   24.7407   -2.3772 H   0  0  0  0  0  0  0  0  0  0  0  0
  1  2  1  0
  1  3  1  0
  2  4  1  0
  4  5  2  0
  4  6  2  0
  4  7  1  1
  1  8  1  0
  1  9  1  0
  2 10  1  0
  2 11  1  0
  3 12  1  0
M  CHG  1   7  -1
M  END
>  <filename_input>  (18) 
7SUC_COM_docked.sdf

>  <pdb_id>  (18) 
7SUC_COM

>  <pose_rank>  (18) 
17

>  <num_atoms_heavy>  (18) 
7

>  <num_torsions>  (18) 
2

>  <pose>  (18) 
[32.529948594159414, 27.314005213003767, 0.3170121783489191, 0.11631539043734047, -1.035406135753102, -1.6187932706641843, 0.8091505166578518, -1.226853959277268]

>  <energy>  (18) 
-104.1079985329916

>  <inter_energy>  (18) 
-88.6625575174184

>  <intra_energy>  (18) 
0.0

>  <rmsd>  (18) 
10.5861

>  <sdf_rank>  (18) 
0

$$$$

     RDKit          3D

 12 11  0  0  0  0  0  0  0  0999 V2000
   21.1749   38.5068  -13.2970 C   0  0  0  0  0  0  0  0  0  0  0  0
   19.9949   37.5293  -13.3091 C   0  0  0  0  0  0  0  0  0  0  0  0
   20.6332   40.1967  -13.6044 S   0  0  0  0  0  0  0  0  0  0  0  0
   20.2181   36.2553  -14.5633 S   0  0  2  0  0  0  0  0  0  0  0  0
   21.6627   35.8863  -14.6387 O   0  0  0  0  0  0  0  0  0  0  0  0
   19.7376   36.8086  -15.8974 O   0  0  0  0  0  0  0  0  0  0  0  0
   19.3801   35.0550  -14.2296 O   0  0  0  0  0  0  0  0  0  0  0  0
   21.6664   38.4620  -12.3140 H   0  0  0  0  0  0  0  0  0  0  0  0
   21.8724   38.2166  -14.0965 H   0  0  0  0  0  0  0  0  0  0  0  0
   19.9150   37.0510  -12.3218 H   0  0  0  0  0  0  0  0  0  0  0  0
   19.0788   38.0916  -13.5426 H   0  0  0  0  0  0  0  0  0  0  0  0
   20.4286   40.8351  -12.4096 H   0  0  0  0  0  0  0  0  0  0  0  0
  1  2  1  0
  1  3  1  0
  2  4  1  0
  4  5  2  0
  4  6  2  0
  4  7  1  1
  1  8  1  0
  1  9  1  0
  2 10  1  0
  2 11  1  0
  3 12  1  0
M  CHG  1   7  -1
M  END
>  <filename_input>  (19) 
7SUC_COM_docked.sdf

>  <pdb_id>  (19) 
7SUC_COM

>  <pose_rank>  (19) 
18

>  <num_atoms_heavy>  (19) 
7

>  <num_torsions>  (19) 
2

>  <pose>  (19) 
[20.218098465667754, 36.255310593878434, -14.563256279532862, -0.7841898119517791, 2.8229580116118167, -2.223053895567923, -4.68866678298066, -1.238332488076698]

>  <energy>  (19) 
-101.01364150586423

>  <inter_energy>  (19) 
-86.40640675709383

>  <intra_energy>  (19) 
0.0

>  <rmsd>  (19) 
11.3396

>  <sdf_rank>  (19) 
0

$$$$

     RDKit          3D

 12 11  0  0  0  0  0  0  0  0999 V2000
   33.6907   35.4380  -15.0141 C   0  0  0  0  0  0  0  0  0  0  0  0
   32.5336   35.6111  -16.0035 C   0  0  0  0  0  0  0  0  0  0  0  0
   34.4385   37.0212  -14.5920 S   0  0  0  0  0  0  0  0  0  0  0  0
   30.9449   35.6081  -15.1540 S   0  0  2  0  0  0  0  0  0  0  0  0
   31.1716   35.7505  -13.6853 O   0  0  0  0  0  0  0  0  0  0  0  0
   30.2411   34.2938  -15.4611 O   0  0  0  0  0  0  0  0  0  0  0  0
   30.0857   36.7263  -15.6695 O   0  0  0  0  0  0  0  0  0  0  0  0
   33.3091   34.9668  -14.0963 H   0  0  0  0  0  0  0  0  0  0  0  0
   34.4585   34.8081  -15.4868 H   0  0  0  0  0  0  0  0  0  0  0  0
   32.6550   36.5669  -16.5342 H   0  0  0  0  0  0  0  0  0  0  0  0
   32.5517   34.7696  -16.7118 H   0  0  0  0  0  0  0  0  0  0  0  0
   34.4989   37.1489  -13.2293 H   0  0  0  0  0  0  0  0  0  0  0  0
  1  2  1  0
  1  3  1  0
  2  4  1  0
  4  5  2  0
  4  6  2  0
  4  7  1  6
  1  8  1  0
  1  9  1  0
  2 10  1  0
  2 11  1  0
  3 12  1  0
M  CHG  1   7  -1
M  END
>  <filename_input>  (20) 
7SUC_COM_docked.sdf

>  <pdb_id>  (20) 
7SUC_COM

>  <pose_rank>  (20) 
19

>  <num_atoms_heavy>  (20) 
7

>  <num_torsions>  (20) 
2

>  <pose>  (20) 
[30.94485947388393, 35.60813533396284, -15.15396685382758, -1.6217446253806798, 0.08940675393979512, 1.647242042994706, 1.178541736726762, 1.2137229828327925]

>  <energy>  (20) 
-99.14594014409995

>  <inter_energy>  (20) 
-87.63680133639544

>  <intra_energy>  (20) 
0.1884428986589543

>  <rmsd>  (20) 
10.8918

>  <sdf_rank>  (20) 
0

$$$$

     RDKit          3D

 12 11  0  0  0  0  0  0  0  0999 V2000
   35.2912   25.8137   -3.3446 C   0  0  0  0  0  0  0  0  0  0  0  0
   34.5176   25.4090   -2.0854 C   0  0  0  0  0  0  0  0  0  0  0  0
   35.7458   27.5560   -3.3067 S   0  0  0  0  0  0  0  0  0  0  0  0
   32.7538   25.7230   -2.2762 S   0  0  2  0  0  0  0  0  0  0  0  0
   31.9845   24.6036   -1.6565 O   0  0  0  0  0  0  0  0  0  0  0  0
   32.4446   25.8250   -3.7631 O   0  0  0  0  0  0  0  0  0  0  0  0
   32.3940   27.0327   -1.6363 O   0  0  0  0  0  0  0  0  0  0  0  0
   36.2060   25.2067   -3.4129 H   0  0  0  0  0  0  0  0  0  0  0  0
   34.6437   25.6443   -4.2176 H   0  0  0  0  0  0  0  0  0  0  0  0
   34.6729   24.3363   -1.8979 H   0  0  0  0  0  0  0  0  0  0  0  0
   34.8889   26.0078   -1.2407 H   0  0  0  0  0  0  0  0  0  0  0  0
   35.8542   27.9715   -2.0057 H   0  0  0  0  0  0  0  0  0  0  0  0
  1  2  1  0
  1  3  1  0
  2  4  1  0
  4  5  2  0
  4  6  2  0
  4  7  1  1
  1  8  1  0
  1  9  1  0
  2 10  1  0
  2 11  1  0
  3 12  1  0
M  CHG  1   7  -1
M  END
>  <filename_input>  (21) 
7SUC_COM_docked.sdf

>  <pdb_id>  (21) 
7SUC_COM

>  <pose_rank>  (21) 
20

>  <num_atoms_heavy>  (21) 
7

>  <num_torsions>  (21) 
2

>  <pose>  (21) 
[32.75381602308945, 25.722981996657584, -2.276208195788812, -1.0348675257071243, -0.6822803027629966, 0.58783795215154, -2.8746711426352416, -1.8424676986070825]

>  <energy>  (21) 
-98.17108769551824

>  <inter_energy>  (21) 
-83.10982091598342

>  <intra_energy>  (21) 
0.0

>  <rmsd>  (21) 
10.8797

>  <sdf_rank>  (21) 
0

$$$$

     RDKit          3D

 12 11  0  0  0  0  0  0  0  0999 V2000
   21.6102   37.3648  -13.0388 C   0  0  0  0  0  0  0  0  0  0  0  0
   20.8587   38.6103  -13.5203 C   0  0  0  0  0  0  0  0  0  0  0  0
   21.1245   35.9016  -13.9700 S   0  0  0  0  0  0  0  0  0  0  0  0
   22.0036   39.9119  -14.0110 S   0  0  2  0  0  0  0  0  0  0  0  0
   21.2777   41.2157  -14.0542 O   0  0  0  0  0  0  0  0  0  0  0  0
   22.5614   39.5652  -15.3842 O   0  0  0  0  0  0  0  0  0  0  0  0
   23.1520   39.9753  -13.0460 O   0  0  0  0  0  0  0  0  0  0  0  0
   22.6906   37.5274  -13.1661 H   0  0  0  0  0  0  0  0  0  0  0  0
   21.3619   37.1989  -11.9801 H   0  0  0  0  0  0  0  0  0  0  0  0
   20.2315   38.3401  -14.3827 H   0  0  0  0  0  0  0  0  0  0  0  0
   20.2388   38.9851  -12.6926 H   0  0  0  0  0  0  0  0  0  0  0  0
   20.7910   34.8968  -13.1006 H   0  0  0  0  0  0  0  0  0  0  0  0
  1  2  1  0
  1  3  1  0
  2  4  1  0
  4  5  2  0
  4  6  2  0
  4  7  1  1
  1  8  1  0
  1  9  1  0
  2 10  1  0
  2 11  1  0
  3 12  1  0
M  CHG  1   7  -1
M  END
>  <filename_input>  (22) 
7SUC_COM_docked.sdf

>  <pdb_id>  (22) 
7SUC_COM

>  <pose_rank>  (22) 
21

>  <num_atoms_heavy>  (22) 
7

>  <num_torsions>  (22) 
2

>  <pose>  (22) 
[22.00360515922407, 39.911923047174895, -14.011048221590334, -1.3606709544365607, 0.1450693133324265, -1.4389917321186612, -1.8767870136208842, 0.7648161157180711]

>  <energy>  (22) 
-97.78239761153276

>  <inter_energy>  (22) 
-89.21825305170792

>  <intra_energy>  (22) 
0.0

>  <rmsd>  (22) 
10.943

>  <sdf_rank>  (22) 
0

$$$$

     RDKit          3D

 12 11  0  0  0  0  0  0  0  0999 V2000
   21.6549   37.6202  -13.4260 C   0  0  0  0  0  0  0  0  0  0  0  0
   20.1528   37.7098  -13.7152 C   0  0  0  0  0  0  0  0  0  0  0  0
   22.4718   39.2037  -13.6891 S   0  0  0  0  0  0  0  0  0  0  0  0
   19.2486   36.3989  -12.8728 S   0  0  2  0  0  0  0  0  0  0  0  0
   20.0327   35.1310  -12.9511 O   0  0  0  0  0  0  0  0  0  0  0  0
   17.8980   36.2350  -13.5556 O   0  0  0  0  0  0  0  0  0  0  0  0
   19.0021   36.7833  -11.4426 O   0  0  0  0  0  0  0  0  0  0  0  0
   21.8000   37.3124  -12.3799 H   0  0  0  0  0  0  0  0  0  0  0  0
   22.0963   36.8848  -14.1147 H   0  0  0  0  0  0  0  0  0  0  0  0
   19.7781   38.6843  -13.3687 H   0  0  0  0  0  0  0  0  0  0  0  0
   19.9992   37.5986  -14.7987 H   0  0  0  0  0  0  0  0  0  0  0  0
   22.7654   39.7729  -12.4781 H   0  0  0  0  0  0  0  0  0  0  0  0
  1  2  1  0
  1  3  1  0
  2  4  1  0
  4  5  2  0
  4  6  2  0
  4  7  1  1
  1  8  1  0
  1  9  1  0
  2 10  1  0
  2 11  1  0
  3 12  1  0
M  CHG  1   7  -1
M  END
>  <filename_input>  (23) 
7SUC_COM_docked.sdf

>  <pdb_id>  (23) 
7SUC_COM

>  <pose_rank>  (23) 
22

>  <num_atoms_heavy>  (23) 
7

>  <num_torsions>  (23) 
2

>  <pose>  (23) 
[19.248560074051493, 36.39890758442951, -12.872847291027188, -0.2720662200387926, 1.4526667444480292, -4.5274029032564815, 0.25564940582914997, 0.1748526262949701]

>  <energy>  (23) 
-94.58939682486398

>  <inter_energy>  (23) 
-74.31363957113443

>  <intra_energy>  (23) 
0.0

>  <rmsd>  (23) 
10.4931

>  <sdf_rank>  (23) 
0

$$$$

     RDKit          3D

 12 11  0  0  0  0  0  0  0  0999 V2000
   33.1038   26.2043    0.8507 C   0  0  0  0  0  0  0  0  0  0  0  0
   32.0992   27.2645    1.3139 C   0  0  0  0  0  0  0  0  0  0  0  0
   32.2772   24.8204    0.0473 S   0  0  0  0  0  0  0  0  0  0  0  0
   32.7814   28.2704    2.6438 S   0  0  2  0  0  0  0  0  0  0  0  0
   34.1380   27.7598    3.0011 O   0  0  0  0  0  0  0  0  0  0  0  0
   31.8444   28.1804    3.8400 O   0  0  0  0  0  0  0  0  0  0  0  0
   32.8509   29.7078    2.2156 O   0  0  0  0  0  0  0  0  0  0  0  0
   33.8059   26.6634    0.1391 H   0  0  0  0  0  0  0  0  0  0  0  0
   33.6363   25.8231    1.7345 H   0  0  0  0  0  0  0  0  0  0  0  0
   31.8474   27.9160    0.4641 H   0  0  0  0  0  0  0  0  0  0  0  0
   31.2008   26.7529    1.6895 H   0  0  0  0  0  0  0  0  0  0  0  0
   31.7722   23.9749    0.9997 H   0  0  0  0  0  0  0  0  0  0  0  0
  1  2  1  0
  1  3  1  0
  2  4  1  0
  4  5  2  0
  4  6  2  0
  4  7  1  6
  1  8  1  0
  1  9  1  0
  2 10  1  0
  2 11  1  0
  3 12  1  0
M  CHG  1   7  -1
M  END
>  <filename_input>  (24) 
7SUC_COM_docked.sdf

>  <pdb_id>  (24) 
7SUC_COM

>  <pose_rank>  (24) 
23

>  <num_atoms_heavy>  (24) 
7

>  <num_torsions>  (24) 
2

>  <pose>  (24) 
[32.781430130501874, 28.27039994955982, 2.643768753051621, -0.36490376436198463, 1.5133891390223477, 1.5002442832285565, 0.9044102308176168, -0.6107948166919962]

>  <energy>  (24) 
-94.45367441008582

>  <inter_energy>  (24) 
-83.23219987157144

>  <intra_energy>  (24) 
0.0

>  <rmsd>  (24) 
11.835

>  <sdf_rank>  (24) 
0

$$$$

     RDKit          3D

 12 11  0  0  0  0  0  0  0  0999 V2000
   16.7239   26.1166   -2.9539 C   0  0  0  0  0  0  0  0  0  0  0  0
   17.2011   26.2141   -4.4067 C   0  0  0  0  0  0  0  0  0  0  0  0
   17.2060   24.5507   -2.2061 S   0  0  0  0  0  0  0  0  0  0  0  0
   17.6649   27.9034   -4.8274 S   0  0  2  0  0  0  0  0  0  0  0  0
   17.2080   28.8237   -3.7443 O   0  0  0  0  0  0  0  0  0  0  0  0
   17.0043   28.2651   -6.1501 O   0  0  0  0  0  0  0  0  0  0  0  0
   19.1522   27.9962   -5.0107 O   0  0  0  0  0  0  0  0  0  0  0  0
   17.1674   26.9406   -2.3757 H   0  0  0  0  0  0  0  0  0  0  0  0
   15.6258   26.1800   -2.9457 H   0  0  0  0  0  0  0  0  0  0  0  0
   18.0734   25.5579   -4.5428 H   0  0  0  0  0  0  0  0  0  0  0  0
   16.3767   25.9045   -5.0659 H   0  0  0  0  0  0  0  0  0  0  0  0
   17.1705   24.6661   -0.8415 H   0  0  0  0  0  0  0  0  0  0  0  0
  1  2  1  0
  1  3  1  0
  2  4  1  0
  4  5  2  0
  4  6  2  0
  4  7  1  6
  1  8  1  0
  1  9  1  0
  2 10  1  0
  2 11  1  0
  3 12  1  0
M  CHG  1   7  -1
M  END
>  <filename_input>  (25) 
7SUC_COM_docked.sdf

>  <pdb_id>  (25) 
7SUC_COM

>  <pose_rank>  (25) 
24

>  <num_atoms_heavy>  (25) 
7

>  <num_torsions>  (25) 
2

>  <pose>  (25) 
[17.664945747942397, 27.90337823990762, -4.827388005767192, 3.692997300610472, -2.178689096319496, 1.4725803917257325, -5.526594915918832, 0.3978513143805547]

>  <energy>  (25) 
-94.41480215248025

>  <inter_energy>  (25) 
-67.8186798561973

>  <intra_energy>  (25) 
0.0

>  <rmsd>  (25) 
11.3675

>  <sdf_rank>  (25) 
0

$$$$

     RDKit          3D

 12 11  0  0  0  0  0  0  0  0999 V2000
   27.2740   31.7550   -6.9400 C   0  0  0  0  0  0  0  0  0  0  0  0
   26.8680   33.2290   -7.0420 C   0  0  0  0  0  0  0  0  0  0  0  0
   28.5240   31.3300   -8.1650 S   0  0  0  0  0  0  0  0  0  0  0  0
   25.8970   33.7370   -5.6120 S   0  0  2  0  0  0  0  0  0  0  0  0
   24.7280   32.8210   -5.4600 O   0  0  0  0  0  0  0  0  0  0  0  0
   25.4290   35.1680   -5.8360 O   0  0  0  0  0  0  0  0  0  0  0  0
   26.7520   33.7160   -4.3780 O   0  0  0  0  0  0  0  0  0  0  0  0
   27.6786   31.5642   -5.9351 H   0  0  0  0  0  0  0  0  0  0  0  0
   26.3831   31.1373   -7.1265 H   0  0  0  0  0  0  0  0  0  0  0  0
   27.7755   33.8482   -7.0980 H   0  0  0  0  0  0  0  0  0  0  0  0
   26.2534   33.3596   -7.9449 H   0  0  0  0  0  0  0  0  0  0  0  0
   29.6727   30.9394   -7.5288 H   0  0  0  0  0  0  0  0  0  0  0  0
  1  2  1  0
  1  3  1  0
  2  4  1  0
  4  5  2  0
  4  6  2  0
  4  7  1  1
  1  8  1  0
  1  9  1  0
  2 10  1  0
  2 11  1  0
  3 12  1  0
M  CHG  1   7  -1
M  END
>  <filename_input>  (26) 
7SUC_COM_docked.sdf

>  <pdb_id>  (26) 
7SUC_COM

>  <pose_rank>  (26) 
25

>  <num_atoms_heavy>  (26) 
7

>  <num_torsions>  (26) 
2

>  <pose>  (26) 
[25.897, 33.737, -5.612, 1e-06, 1e-06, 1e-06, 0.0, 0.0]

>  <energy>  (26) 
-350.8375328894977

>  <inter_energy>  (26) 
-355.4459623423126

>  <intra_energy>  (26) 
0.0

>  <rmsd>  (26) 
0.0

>  <sdf_rank>  (26) 
0

$$$$
