
     RDKit          3D

 31 33  0  0  0  0  0  0  0  0999 V2000
  -57.3442  -21.0379   24.7338 C   0  0  0  0  0  0  0  0  0  0  0  0
  -58.3667  -20.4176   24.0121 C   0  0  0  0  0  0  0  0  0  0  0  0
  -58.3745  -19.0176   23.8329 C   0  0  0  0  0  0  0  0  0  0  0  0
  -57.3304  -18.2996   24.3990 C   0  0  0  0  0  0  0  0  0  0  0  0
  -57.0079  -16.9465   24.4201 C   0  0  0  0  0  0  0  0  0  0  0  0
  -55.2254  -15.3792   25.3222 C   0  0  2  0  0  0  0  0  0  0  0  0
  -56.0618  -11.4298   25.7766 O   0  0  0  0  0  0  0  0  0  0  0  0
  -55.5706  -14.8916   23.0304 O   0  0  0  0  0  0  0  0  0  0  0  0
  -55.8929  -16.6710   25.0847 N   0  0  0  0  0  0  0  0  0  0  0  0
  -55.6916  -14.8238   26.6547 C   0  0  0  0  0  0  0  0  0  0  0  0
  -55.1597  -13.4044   26.7560 C   0  0  0  0  0  0  0  0  0  0  0  0
  -55.9217  -13.2046   24.4353 N   0  0  0  0  0  0  0  0  0  0  0  0
  -55.2764  -20.8812   25.9874 N   0  0  0  0  0  0  0  0  0  0  0  0
  -56.3085  -20.2917   25.2948 C   0  0  0  0  0  0  0  0  0  0  0  0
  -57.7269  -16.0390   23.8632 O   0  0  0  0  0  0  0  0  0  0  0  0
  -55.5832  -14.4669   24.1800 C   0  0  0  0  0  0  0  0  0  0  0  0
  -55.4776  -17.8753   25.4789 C   0  0  0  0  0  0  0  0  0  0  0  0
  -56.3102  -18.9253   25.1100 C   0  0  0  0  0  0  0  0  0  0  0  0
  -55.7479  -12.6014   25.6140 C   0  0  0  0  0  0  0  0  0  0  0  0
  -54.3988  -18.0160   26.1373 O   0  0  0  0  0  0  0  0  0  0  0  0
  -57.3562  -22.1304   24.8613 H   0  0  0  0  0  0  0  0  0  0  0  0
  -59.1741  -21.0264   23.5791 H   0  0  0  0  0  0  0  0  0  0  0  0
  -59.1745  -18.5166   23.2682 H   0  0  0  0  0  0  0  0  0  0  0  0
  -54.1314  -15.4839   25.3679 H   0  0  0  0  0  0  0  0  0  0  0  0
  -56.7907  -14.8192   26.6981 H   0  0  0  0  0  0  0  0  0  0  0  0
  -55.3230  -15.4410   27.4873 H   0  0  0  0  0  0  0  0  0  0  0  0
  -55.4593  -12.9612   27.7172 H   0  0  0  0  0  0  0  0  0  0  0  0
  -54.0612  -13.4028   26.6982 H   0  0  0  0  0  0  0  0  0  0  0  0
  -56.3457  -12.6570   23.6729 H   0  0  0  0  0  0  0  0  0  0  0  0
  -54.5272  -20.2995   26.3890 H   0  0  0  0  0  0  0  0  0  0  0  0
  -55.2527  -21.9042   26.1043 H   0  0  0  0  0  0  0  0  0  0  0  0
  1  2  2  0
  1 14  1  0
  2  3  1  0
  3  4  2  0
  4  5  1  0
  4 18  1  0
  5  9  1  0
  5 15  2  0
  6  9  1  0
  6 10  1  0
  6 16  1  0
  7 19  2  0
  8 16  2  0
  9 17  1  0
 10 11  1  0
 11 19  1  0
 12 16  1  0
 12 19  1  0
 13 14  1  0
 14 18  2  0
 17 18  1  0
 17 20  2  0
  1 21  1  0
  2 22  1  0
  3 23  1  0
  6 24  1  1
 10 25  1  0
 10 26  1  0
 11 27  1  0
 11 28  1  0
 12 29  1  0
 13 30  1  0
 13 31  1  0
M  END
>  <filename_input>  (1) 
7SZA_DUI_docked.sdf

>  <pdb_id>  (1) 
7SZA_DUI

>  <pose_rank>  (1) 
0

>  <num_atoms_heavy>  (1) 
20

>  <num_torsions>  (1) 
1

>  <pose>  (1) 
[-57.344238062072534, -21.037921439405075, 24.7337654902751, 1.2900927698096052, -1.153361606889135, 2.230277198402769, 0.3795628348953417]

>  <energy>  (1) 
-573.0458128573243

>  <inter_energy>  (1) 
-629.2119570368391

>  <intra_energy>  (1) 
62.4665678883965

>  <rmsd>  (1) 
6.00811

>  <sdf_rank>  (1) 
0

$$$$

     RDKit          3D

 31 33  0  0  0  0  0  0  0  0999 V2000
  -58.5082  -18.7665   24.1464 C   0  0  0  0  0  0  0  0  0  0  0  0
  -57.5573  -19.2983   25.0205 C   0  0  0  0  0  0  0  0  0  0  0  0
  -56.5596  -18.4757   25.5863 C   0  0  0  0  0  0  0  0  0  0  0  0
  -56.5719  -17.1323   25.2377 C   0  0  0  0  0  0  0  0  0  0  0  0
  -55.7754  -16.0494   25.5958 C   0  0  0  0  0  0  0  0  0  0  0  0
  -55.5588  -13.5575   25.1586 C   0  0  2  0  0  0  0  0  0  0  0  0
  -56.4930   -9.6495   24.5594 O   0  0  0  0  0  0  0  0  0  0  0  0
  -55.2874  -13.5532   22.8058 O   0  0  0  0  0  0  0  0  0  0  0  0
  -56.1375  -14.9061   25.0278 N   0  0  0  0  0  0  0  0  0  0  0  0
  -56.3614  -12.7765   26.1819 C   0  0  0  0  0  0  0  0  0  0  0  0
  -55.8779  -11.3375   26.1229 C   0  0  0  0  0  0  0  0  0  0  0  0
  -56.0002  -11.6440   23.6944 N   0  0  0  0  0  0  0  0  0  0  0  0
  -59.4362  -16.8601   22.9732 N   0  0  0  0  0  0  0  0  0  0  0  0
  -58.4954  -17.4132   23.8107 C   0  0  0  0  0  0  0  0  0  0  0  0
  -54.7702  -16.1425   26.3904 O   0  0  0  0  0  0  0  0  0  0  0  0
  -55.6040  -12.9108   23.8005 C   0  0  0  0  0  0  0  0  0  0  0  0
  -57.2036  -15.2574   24.3078 C   0  0  0  0  0  0  0  0  0  0  0  0
  -57.5276  -16.6075   24.3724 C   0  0  0  0  0  0  0  0  0  0  0  0
  -56.1451  -10.8107   24.7279 C   0  0  0  0  0  0  0  0  0  0  0  0
  -57.8508  -14.3987   23.6290 O   0  0  0  0  0  0  0  0  0  0  0  0
  -59.2779  -19.4245   23.7169 H   0  0  0  0  0  0  0  0  0  0  0  0
  -57.5862  -20.3692   25.2704 H   0  0  0  0  0  0  0  0  0  0  0  0
  -55.8040  -18.8822   26.2747 H   0  0  0  0  0  0  0  0  0  0  0  0
  -54.5155  -13.5896   25.5056 H   0  0  0  0  0  0  0  0  0  0  0  0
  -57.4330  -12.8250   25.9382 H   0  0  0  0  0  0  0  0  0  0  0  0
  -56.2247  -13.1951   27.1899 H   0  0  0  0  0  0  0  0  0  0  0  0
  -56.4216  -10.7304   26.8617 H   0  0  0  0  0  0  0  0  0  0  0  0
  -54.8031  -11.2858   26.3515 H   0  0  0  0  0  0  0  0  0  0  0  0
  -56.2089  -11.2828   22.7527 H   0  0  0  0  0  0  0  0  0  0  0  0
  -59.3969  -15.8562   22.7462 H   0  0  0  0  0  0  0  0  0  0  0  0
  -60.1798  -17.4499   22.5730 H   0  0  0  0  0  0  0  0  0  0  0  0
  1  2  2  0
  1 14  1  0
  2  3  1  0
  3  4  2  0
  4  5  1  0
  4 18  1  0
  5  9  1  0
  5 15  2  0
  6  9  1  0
  6 10  1  0
  6 16  1  0
  7 19  2  0
  8 16  2  0
  9 17  1  0
 10 11  1  0
 11 19  1  0
 12 16  1  0
 12 19  1  0
 13 14  1  0
 14 18  2  0
 17 18  1  0
 17 20  2  0
  1 21  1  0
  2 22  1  0
  3 23  1  0
  6 24  1  1
 10 25  1  0
 10 26  1  0
 11 27  1  0
 11 28  1  0
 12 29  1  0
 13 30  1  0
 13 31  1  0
M  END
>  <filename_input>  (2) 
7SZA_DUI_docked.sdf

>  <pdb_id>  (2) 
7SZA_DUI

>  <pose_rank>  (2) 
1

>  <num_atoms_heavy>  (2) 
20

>  <num_torsions>  (2) 
1

>  <pose>  (2) 
[-58.50817279644302, -18.766529198703473, 24.14640987744213, 2.5253972652121344, -0.45986380031225493, -1.5057201073108126, 3.3264073618114054]

>  <energy>  (2) 
-804.6531816306626

>  <inter_energy>  (2) 
-816.0698668432179

>  <intra_energy>  (2) 
48.691786353334635

>  <rmsd>  (2) 
5.93268

>  <sdf_rank>  (2) 
0

$$$$

     RDKit          3D

 31 33  0  0  0  0  0  0  0  0999 V2000
  -57.1175  -19.5081   24.6671 C   0  0  0  0  0  0  0  0  0  0  0  0
  -56.0369  -19.6360   25.5428 C   0  0  0  0  0  0  0  0  0  0  0  0
  -55.4266  -18.4941   26.1049 C   0  0  0  0  0  0  0  0  0  0  0  0
  -55.9473  -17.2572   25.7510 C   0  0  0  0  0  0  0  0  0  0  0  0
  -55.6217  -15.9517   26.1045 C   0  0  0  0  0  0  0  0  0  0  0  0
  -56.3663  -13.5657   25.6573 C   0  0  2  0  0  0  0  0  0  0  0  0
  -54.0754  -10.5608   27.1495 O   0  0  0  0  0  0  0  0  0  0  0  0
  -56.9643  -13.8487   27.9314 O   0  0  0  0  0  0  0  0  0  0  0  0
  -56.3898  -15.0335   25.5321 N   0  0  0  0  0  0  0  0  0  0  0  0
  -55.1778  -13.0264   24.8839 C   0  0  0  0  0  0  0  0  0  0  0  0
  -55.0610  -11.5494   25.2199 C   0  0  0  0  0  0  0  0  0  0  0  0
  -55.4350  -12.2865   27.5271 N   0  0  0  0  0  0  0  0  0  0  0  0
  -58.6982  -18.1008   23.4867 N   0  0  0  0  0  0  0  0  0  0  0  0
  -57.6188  -18.2524   24.3260 C   0  0  0  0  0  0  0  0  0  0  0  0
  -54.6572  -15.6534   26.8989 O   0  0  0  0  0  0  0  0  0  0  0  0
  -56.2756  -13.2368   27.1230 C   0  0  0  0  0  0  0  0  0  0  0  0
  -57.2422  -15.7657   24.8140 C   0  0  0  0  0  0  0  0  0  0  0  0
  -57.0298  -17.1376   24.8841 C   0  0  0  0  0  0  0  0  0  0  0  0
  -54.8213  -11.4261   26.7106 C   0  0  0  0  0  0  0  0  0  0  0  0
  -58.1660  -15.2195   24.1321 O   0  0  0  0  0  0  0  0  0  0  0  0
  -57.5795  -20.4106   24.2405 H   0  0  0  0  0  0  0  0  0  0  0  0
  -55.6576  -20.6367   25.7970 H   0  0  0  0  0  0  0  0  0  0  0  0
  -54.5740  -18.5809   26.7945 H   0  0  0  0  0  0  0  0  0  0  0  0
  -57.2735  -13.1029   25.2417 H   0  0  0  0  0  0  0  0  0  0  0  0
  -54.2610  -13.5554   25.1832 H   0  0  0  0  0  0  0  0  0  0  0  0
  -55.3147  -13.1728   23.8023 H   0  0  0  0  0  0  0  0  0  0  0  0
  -54.2185  -11.1066   24.6684 H   0  0  0  0  0  0  0  0  0  0  0  0
  -55.9817  -11.0189   24.9356 H   0  0  0  0  0  0  0  0  0  0  0  0
  -55.2454  -12.2098   28.5366 H   0  0  0  0  0  0  0  0  0  0  0  0
  -59.0426  -17.1580   23.2558 H   0  0  0  0  0  0  0  0  0  0  0  0
  -59.1620  -18.9302   23.0893 H   0  0  0  0  0  0  0  0  0  0  0  0
  1  2  2  0
  1 14  1  0
  2  3  1  0
  3  4  2  0
  4  5  1  0
  4 18  1  0
  5  9  1  0
  5 15  2  0
  6  9  1  0
  6 10  1  0
  6 16  1  0
  7 19  2  0
  8 16  2  0
  9 17  1  0
 10 11  1  0
 11 19  1  0
 12 16  1  0
 12 19  1  0
 13 14  1  0
 14 18  2  0
 17 18  1  0
 17 20  2  0
  1 21  1  0
  2 22  1  0
  3 23  1  0
  6 24  1  6
 10 25  1  0
 10 26  1  0
 11 27  1  0
 11 28  1  0
 12 29  1  0
 13 30  1  0
 13 31  1  0
M  END
>  <filename_input>  (3) 
7SZA_DUI_docked.sdf

>  <pdb_id>  (3) 
7SZA_DUI

>  <pose_rank>  (3) 
2

>  <num_atoms_heavy>  (3) 
20

>  <num_torsions>  (3) 
1

>  <pose>  (3) 
[-57.11751808849824, -19.508068372159197, 24.6670909784701, -3.0617926387625034, -0.04070217068171676, 1.7039007632515037, 0.037363458313221715]

>  <energy>  (3) 
-732.8419696061464

>  <inter_energy>  (3) 
-733.3331923885119

>  <intra_energy>  (3) 
26.170328897806648

>  <rmsd>  (3) 
6.22607

>  <sdf_rank>  (3) 
0

$$$$

     RDKit          3D

 31 33  0  0  0  0  0  0  0  0999 V2000
  -56.2292  -19.3324   24.8866 C   0  0  0  0  0  0  0  0  0  0  0  0
  -57.3128  -19.1301   24.0289 C   0  0  0  0  0  0  0  0  0  0  0  0
  -57.8447  -17.8373   23.8333 C   0  0  0  0  0  0  0  0  0  0  0  0
  -57.2450  -16.7933   24.5237 C   0  0  0  0  0  0  0  0  0  0  0  0
  -57.4828  -15.4234   24.5708 C   0  0  0  0  0  0  0  0  0  0  0  0
  -56.5843  -13.3242   25.6814 C   0  0  2  0  0  0  0  0  0  0  0  0
  -54.0596  -10.5572   27.2543 O   0  0  0  0  0  0  0  0  0  0  0  0
  -56.9115  -13.8950   27.9566 O   0  0  0  0  0  0  0  0  0  0  0  0
  -56.6578  -14.7631   25.3735 N   0  0  0  0  0  0  0  0  0  0  0  0
  -55.4847  -12.6989   24.8439 C   0  0  0  0  0  0  0  0  0  0  0  0
  -55.2931  -11.2790   25.3491 C   0  0  0  0  0  0  0  0  0  0  0  0
  -55.4048  -12.3062   27.5715 N   0  0  0  0  0  0  0  0  0  0  0  0
  -54.5634  -18.4346   26.4003 N   0  0  0  0  0  0  0  0  0  0  0  0
  -55.6475  -18.2655   25.5705 C   0  0  0  0  0  0  0  0  0  0  0  0
  -58.4228  -14.8454   23.9130 O   0  0  0  0  0  0  0  0  0  0  0  0
  -56.3104  -13.1891   27.1550 C   0  0  0  0  0  0  0  0  0  0  0  0
  -55.8580  -15.7258   25.8336 C   0  0  0  0  0  0  0  0  0  0  0  0
  -56.1600  -17.0011   25.3706 C   0  0  0  0  0  0  0  0  0  0  0  0
  -54.8733  -11.3521   26.8029 C   0  0  0  0  0  0  0  0  0  0  0  0
  -54.9026  -15.4624   26.6303 O   0  0  0  0  0  0  0  0  0  0  0  0
  -55.8290  -20.3477   25.0246 H   0  0  0  0  0  0  0  0  0  0  0  0
  -57.7563  -19.9869   23.5004 H   0  0  0  0  0  0  0  0  0  0  0  0
  -58.6988  -17.6646   23.1619 H   0  0  0  0  0  0  0  0  0  0  0  0
  -57.5235  -12.8039   25.4424 H   0  0  0  0  0  0  0  0  0  0  0  0
  -54.5515  -13.2697   24.9589 H   0  0  0  0  0  0  0  0  0  0  0  0
  -55.7540  -12.7026   23.7774 H   0  0  0  0  0  0  0  0  0  0  0  0
  -54.5125  -10.7753   24.7600 H   0  0  0  0  0  0  0  0  0  0  0  0
  -56.2283  -10.7085   25.2497 H   0  0  0  0  0  0  0  0  0  0  0  0
  -55.0935  -12.3628   28.5517 H   0  0  0  0  0  0  0  0  0  0  0  0
  -54.1585  -17.6241   26.8903 H   0  0  0  0  0  0  0  0  0  0  0  0
  -54.1566  -19.3717   26.5317 H   0  0  0  0  0  0  0  0  0  0  0  0
  1  2  2  0
  1 14  1  0
  2  3  1  0
  3  4  2  0
  4  5  1  0
  4 18  1  0
  5  9  1  0
  5 15  2  0
  6  9  1  0
  6 10  1  0
  6 16  1  0
  7 19  2  0
  8 16  2  0
  9 17  1  0
 10 11  1  0
 11 19  1  0
 12 16  1  0
 12 19  1  0
 13 14  1  0
 14 18  2  0
 17 18  1  0
 17 20  2  0
  1 21  1  0
  2 22  1  0
  3 23  1  0
  6 24  1  1
 10 25  1  0
 10 26  1  0
 11 27  1  0
 11 28  1  0
 12 29  1  0
 13 30  1  0
 13 31  1  0
M  END
>  <filename_input>  (4) 
7SZA_DUI_docked.sdf

>  <pdb_id>  (4) 
7SZA_DUI

>  <pose_rank>  (4) 
3

>  <num_atoms_heavy>  (4) 
20

>  <num_torsions>  (4) 
1

>  <pose>  (4) 
[-56.22919609317015, -19.332429493475093, 24.886604742858463, 1.5098435445555352, -1.0270371753338197, 2.630800502805729, 3.2948789745240523]

>  <energy>  (4) 
-717.3161733588493

>  <inter_energy>  (4) 
-746.6188212722186

>  <intra_energy>  (4) 
45.16395418488217

>  <rmsd>  (4) 
5.89968

>  <sdf_rank>  (4) 
0

$$$$

     RDKit          3D

 31 33  0  0  0  0  0  0  0  0999 V2000
  -55.3404  -10.8808   27.8634 C   0  0  0  0  0  0  0  0  0  0  0  0
  -55.0559  -10.3100   26.6207 C   0  0  0  0  0  0  0  0  0  0  0  0
  -55.1345  -11.0793   25.4400 C   0  0  0  0  0  0  0  0  0  0  0  0
  -55.5049  -12.4102   25.5732 C   0  0  0  0  0  0  0  0  0  0  0  0
  -55.6935  -13.4412   24.6585 C   0  0  0  0  0  0  0  0  0  0  0  0
  -56.3605  -15.8903   24.5890 C   0  0  2  0  0  0  0  0  0  0  0  0
  -56.4935  -17.6903   20.9495 O   0  0  0  0  0  0  0  0  0  0  0  0
  -58.4250  -14.9672   23.8857 O   0  0  0  0  0  0  0  0  0  0  0  0
  -56.0614  -14.5894   25.2127 N   0  0  0  0  0  0  0  0  0  0  0  0
  -55.1013  -16.4184   23.9280 C   0  0  0  0  0  0  0  0  0  0  0  0
  -55.5029  -17.6371   23.1147 C   0  0  0  0  0  0  0  0  0  0  0  0
  -57.3832  -16.2416   22.3911 N   0  0  0  0  0  0  0  0  0  0  0  0
  -56.0178  -12.8008   29.1775 N   0  0  0  0  0  0  0  0  0  0  0  0
  -55.7074  -12.2219   27.9688 C   0  0  0  0  0  0  0  0  0  0  0  0
  -55.5145  -13.3064   23.3935 O   0  0  0  0  0  0  0  0  0  0  0  0
  -57.4661  -15.6718   23.5918 C   0  0  0  0  0  0  0  0  0  0  0  0
  -56.1336  -14.2834   26.5086 C   0  0  0  0  0  0  0  0  0  0  0  0
  -55.7951  -12.9704   26.8141 C   0  0  0  0  0  0  0  0  0  0  0  0
  -56.5028  -17.1920   22.0672 C   0  0  0  0  0  0  0  0  0  0  0  0
  -56.4898  -15.1485   27.3699 O   0  0  0  0  0  0  0  0  0  0  0  0
  -55.2740  -10.2638   28.7716 H   0  0  0  0  0  0  0  0  0  0  0  0
  -54.7676   -9.2500   26.5617 H   0  0  0  0  0  0  0  0  0  0  0  0
  -54.9115  -10.6424   24.4554 H   0  0  0  0  0  0  0  0  0  0  0  0
  -56.6874  -16.6357   25.3290 H   0  0  0  0  0  0  0  0  0  0  0  0
  -54.6700  -15.6502   23.2692 H   0  0  0  0  0  0  0  0  0  0  0  0
  -54.3440  -16.6817   24.6810 H   0  0  0  0  0  0  0  0  0  0  0  0
  -54.6169  -18.0681   22.6256 H   0  0  0  0  0  0  0  0  0  0  0  0
  -55.9483  -18.4023   23.7674 H   0  0  0  0  0  0  0  0  0  0  0  0
  -58.0420  -15.9285   21.6639 H   0  0  0  0  0  0  0  0  0  0  0  0
  -56.2849  -13.7947   29.2191 H   0  0  0  0  0  0  0  0  0  0  0  0
  -55.9830  -12.2403   30.0410 H   0  0  0  0  0  0  0  0  0  0  0  0
  1  2  2  0
  1 14  1  0
  2  3  1  0
  3  4  2  0
  4  5  1  0
  4 18  1  0
  5  9  1  0
  5 15  2  0
  6  9  1  0
  6 10  1  0
  6 16  1  0
  7 19  2  0
  8 16  2  0
  9 17  1  0
 10 11  1  0
 11 19  1  0
 12 16  1  0
 12 19  1  0
 13 14  1  0
 14 18  2  0
 17 18  1  0
 17 20  2  0
  1 21  1  0
  2 22  1  0
  3 23  1  0
  6 24  1  1
 10 25  1  0
 10 26  1  0
 11 27  1  0
 11 28  1  0
 12 29  1  0
 13 30  1  0
 13 31  1  0
M  END
>  <filename_input>  (5) 
7SZA_DUI_docked.sdf

>  <pdb_id>  (5) 
7SZA_DUI

>  <pose_rank>  (5) 
4

>  <num_atoms_heavy>  (5) 
20

>  <num_torsions>  (5) 
1

>  <pose>  (5) 
[-55.34039795632958, -10.880814633829875, 27.863374353314065, -0.0072073661074877615, -0.269222908955045, -0.10805597502016914, 6.1381009847127626]

>  <energy>  (5) 
-612.0747656088969

>  <inter_energy>  (5) 
-598.0104006999135

>  <intra_energy>  (5) 
17.861801755037785

>  <rmsd>  (5) 
1.14408

>  <sdf_rank>  (5) 
0

$$$$

     RDKit          3D

 31 33  0  0  0  0  0  0  0  0999 V2000
  -55.2480  -11.5228   27.2544 C   0  0  0  0  0  0  0  0  0  0  0  0
  -55.2014  -10.8322   26.0412 C   0  0  0  0  0  0  0  0  0  0  0  0
  -55.5850  -11.4632   24.8383 C   0  0  0  0  0  0  0  0  0  0  0  0
  -56.0062  -12.7831   24.9204 C   0  0  0  0  0  0  0  0  0  0  0  0
  -56.4569  -13.6982   23.9746 C   0  0  0  0  0  0  0  0  0  0  0  0
  -57.2859  -16.0931   23.8170 C   0  0  2  0  0  0  0  0  0  0  0  0
  -56.8483  -20.1320   23.8345 O   0  0  0  0  0  0  0  0  0  0  0  0
  -55.2535  -16.1686   22.6033 O   0  0  0  0  0  0  0  0  0  0  0  0
  -56.7724  -14.8830   24.4822 N   0  0  0  0  0  0  0  0  0  0  0  0
  -57.9941  -16.9550   24.8451 C   0  0  0  0  0  0  0  0  0  0  0  0
  -58.3083  -18.2812   24.1739 C   0  0  0  0  0  0  0  0  0  0  0  0
  -56.0128  -18.1282   23.3290 N   0  0  0  0  0  0  0  0  0  0  0  0
  -55.7523  -13.5437   28.4930 N   0  0  0  0  0  0  0  0  0  0  0  0
  -55.6726  -12.8500   27.3077 C   0  0  0  0  0  0  0  0  0  0  0  0
  -56.5471  -13.4335   22.7207 O   0  0  0  0  0  0  0  0  0  0  0  0
  -56.1114  -16.8062   23.2030 C   0  0  0  0  0  0  0  0  0  0  0  0
  -56.5419  -14.7181   25.7853 C   0  0  0  0  0  0  0  0  0  0  0  0
  -56.0580  -13.4627   26.1341 C   0  0  0  0  0  0  0  0  0  0  0  0
  -56.9975  -18.9195   23.7621 C   0  0  0  0  0  0  0  0  0  0  0  0
  -56.7606  -15.6558   26.6157 O   0  0  0  0  0  0  0  0  0  0  0  0
  -54.9455  -11.0126   28.1808 H   0  0  0  0  0  0  0  0  0  0  0  0
  -54.8623   -9.7859   26.0231 H   0  0  0  0  0  0  0  0  0  0  0  0
  -55.5515  -10.9311   23.8761 H   0  0  0  0  0  0  0  0  0  0  0  0
  -58.0115  -15.8514   23.0264 H   0  0  0  0  0  0  0  0  0  0  0  0
  -57.3415  -17.1175   25.7155 H   0  0  0  0  0  0  0  0  0  0  0  0
  -58.9143  -16.4669   25.1989 H   0  0  0  0  0  0  0  0  0  0  0  0
  -58.8391  -18.9392   24.8776 H   0  0  0  0  0  0  0  0  0  0  0  0
  -58.9488  -18.1219   23.2939 H   0  0  0  0  0  0  0  0  0  0  0  0
  -55.1174  -18.5698   23.0756 H   0  0  0  0  0  0  0  0  0  0  0  0
  -56.0702  -14.5234   28.4959 H   0  0  0  0  0  0  0  0  0  0  0  0
  -55.4941  -13.0834   29.3775 H   0  0  0  0  0  0  0  0  0  0  0  0
  1  2  2  0
  1 14  1  0
  2  3  1  0
  3  4  2  0
  4  5  1  0
  4 18  1  0
  5  9  1  0
  5 15  2  0
  6  9  1  0
  6 10  1  0
  6 16  1  0
  7 19  2  0
  8 16  2  0
  9 17  1  0
 10 11  1  0
 11 19  1  0
 12 16  1  0
 12 19  1  0
 13 14  1  0
 14 18  2  0
 17 18  1  0
 17 20  2  0
  1 21  1  0
  2 22  1  0
  3 23  1  0
  6 24  1  6
 10 25  1  0
 10 26  1  0
 11 27  1  0
 11 28  1  0
 12 29  1  0
 13 30  1  0
 13 31  1  0
M  END
>  <filename_input>  (6) 
7SZA_DUI_docked.sdf

>  <pdb_id>  (6) 
7SZA_DUI

>  <pose_rank>  (6) 
5

>  <num_atoms_heavy>  (6) 
20

>  <num_torsions>  (6) 
1

>  <pose>  (6) 
[-55.247989547368675, -11.522832908947201, 27.25443522876684, -2.38245896132812, 1.2949816730299761, 5.449544467563216, 2.273697209668865]

>  <energy>  (6) 
-667.95597898047

>  <inter_energy>  (6) 
-682.5330706051848

>  <intra_energy>  (6) 
48.42927091450382

>  <rmsd>  (6) 
1.81936

>  <sdf_rank>  (6) 
0

$$$$

     RDKit          3D

 31 33  0  0  0  0  0  0  0  0999 V2000
  -56.0097  -11.5352   27.1217 C   0  0  0  0  0  0  0  0  0  0  0  0
  -55.9288  -12.3773   28.2331 C   0  0  0  0  0  0  0  0  0  0  0  0
  -56.0677  -13.7746   28.0894 C   0  0  0  0  0  0  0  0  0  0  0  0
  -56.2835  -14.2623   26.8081 C   0  0  0  0  0  0  0  0  0  0  0  0
  -56.4518  -15.5440   26.2941 C   0  0  0  0  0  0  0  0  0  0  0  0
  -56.8349  -16.7228   24.0779 C   0  0  2  0  0  0  0  0  0  0  0  0
  -56.9588  -20.7832   24.1135 O   0  0  0  0  0  0  0  0  0  0  0  0
  -54.4957  -17.0822   24.1696 O   0  0  0  0  0  0  0  0  0  0  0  0
  -56.6320  -15.5755   24.9798 N   0  0  0  0  0  0  0  0  0  0  0  0
  -58.0868  -17.4662   24.5038 C   0  0  0  0  0  0  0  0  0  0  0  0
  -58.1351  -18.7542   23.6996 C   0  0  0  0  0  0  0  0  0  0  0  0
  -55.7535  -18.9135   24.2556 N   0  0  0  0  0  0  0  0  0  0  0  0
  -56.2881  -11.2464   24.7319 N   0  0  0  0  0  0  0  0  0  0  0  0
  -56.2304  -12.0520   25.8456 C   0  0  0  0  0  0  0  0  0  0  0  0
  -56.4502  -16.6036   27.0206 O   0  0  0  0  0  0  0  0  0  0  0  0
  -55.6101  -17.5925   24.1678 C   0  0  0  0  0  0  0  0  0  0  0  0
  -56.5542  -14.2886   24.6390 C   0  0  0  0  0  0  0  0  0  0  0  0
  -56.3548  -13.4178   25.7038 C   0  0  0  0  0  0  0  0  0  0  0  0
  -56.8996  -19.5632   24.0370 C   0  0  0  0  0  0  0  0  0  0  0  0
  -56.6566  -13.9222   23.4256 O   0  0  0  0  0  0  0  0  0  0  0  0
  -55.8979  -10.4490   27.2551 H   0  0  0  0  0  0  0  0  0  0  0  0
  -55.7549  -11.9472   29.2306 H   0  0  0  0  0  0  0  0  0  0  0  0
  -56.0076  -14.4486   28.9566 H   0  0  0  0  0  0  0  0  0  0  0  0
  -56.9733  -16.4056   23.0338 H   0  0  0  0  0  0  0  0  0  0  0  0
  -58.0433  -17.6939   25.5791 H   0  0  0  0  0  0  0  0  0  0  0  0
  -58.9849  -16.8573   24.3233 H   0  0  0  0  0  0  0  0  0  0  0  0
  -59.0381  -19.3247   23.9623 H   0  0  0  0  0  0  0  0  0  0  0  0
  -58.1638  -18.5315   22.6228 H   0  0  0  0  0  0  0  0  0  0  0  0
  -54.9255  -19.4712   24.5090 H   0  0  0  0  0  0  0  0  0  0  0  0
  -56.4527  -11.6618   23.8038 H   0  0  0  0  0  0  0  0  0  0  0  0
  -56.1666  -10.2280   24.8261 H   0  0  0  0  0  0  0  0  0  0  0  0
  1  2  2  0
  1 14  1  0
  2  3  1  0
  3  4  2  0
  4  5  1  0
  4 18  1  0
  5  9  1  0
  5 15  2  0
  6  9  1  0
  6 10  1  0
  6 16  1  0
  7 19  2  0
  8 16  2  0
  9 17  1  0
 10 11  1  0
 11 19  1  0
 12 16  1  0
 12 19  1  0
 13 14  1  0
 14 18  2  0
 17 18  1  0
 17 20  2  0
  1 21  1  0
  2 22  1  0
  3 23  1  0
  6 24  1  6
 10 25  1  0
 10 26  1  0
 11 27  1  0
 11 28  1  0
 12 29  1  0
 13 30  1  0
 13 31  1  0
M  END
>  <filename_input>  (7) 
7SZA_DUI_docked.sdf

>  <pdb_id>  (7) 
7SZA_DUI

>  <pose_rank>  (7) 
6

>  <num_atoms_heavy>  (7) 
20

>  <num_torsions>  (7) 
1

>  <pose>  (7) 
[-56.00974643981391, -11.535156592857787, 27.12174695012042, -0.5532489325744876, -2.6585490925231134, -1.5573499433557412, 6.070093835246549]

>  <energy>  (7) 
-648.7961263919315

>  <inter_energy>  (7) 
-659.5162948352834

>  <intra_energy>  (7) 
16.84305405729412

>  <rmsd>  (7) 
3.09595

>  <sdf_rank>  (7) 
0

$$$$

     RDKit          3D

 31 33  0  0  0  0  0  0  0  0999 V2000
  -56.0302  -19.6517   23.2094 C   0  0  0  0  0  0  0  0  0  0  0  0
  -55.8279  -19.7526   24.5877 C   0  0  0  0  0  0  0  0  0  0  0  0
  -55.8378  -18.6005   25.4032 C   0  0  0  0  0  0  0  0  0  0  0  0
  -56.0574  -17.3816   24.7768 C   0  0  0  0  0  0  0  0  0  0  0  0
  -56.1441  -16.0741   25.2439 C   0  0  0  0  0  0  0  0  0  0  0  0
  -56.5380  -13.7173   24.3850 C   0  0  2  0  0  0  0  0  0  0  0  0
  -55.5047  -10.5684   26.7346 O   0  0  0  0  0  0  0  0  0  0  0  0
  -58.1272  -14.1018   26.0984 O   0  0  0  0  0  0  0  0  0  0  0  0
  -56.3754  -15.1787   24.2923 N   0  0  0  0  0  0  0  0  0  0  0  0
  -55.1742  -13.0635   24.2663 C   0  0  0  0  0  0  0  0  0  0  0  0
  -55.3572  -11.5901   24.5884 C   0  0  0  0  0  0  0  0  0  0  0  0
  -56.7285  -12.4092   26.4472 N   0  0  0  0  0  0  0  0  0  0  0  0
  -56.4733  -18.2902   21.2543 N   0  0  0  0  0  0  0  0  0  0  0  0
  -56.2456  -18.4134   22.6054 C   0  0  0  0  0  0  0  0  0  0  0  0
  -55.9988  -15.7530   26.4794 O   0  0  0  0  0  0  0  0  0  0  0  0
  -57.1892  -13.4163   25.7078 C   0  0  0  0  0  0  0  0  0  0  0  0
  -56.4626  -15.9295   23.1937 C   0  0  0  0  0  0  0  0  0  0  0  0
  -56.2665  -17.2894   23.4037 C   0  0  0  0  0  0  0  0  0  0  0  0
  -55.8731  -11.4821   26.0086 C   0  0  0  0  0  0  0  0  0  0  0  0
  -56.7091  -15.4096   22.0597 O   0  0  0  0  0  0  0  0  0  0  0  0
  -56.0195  -20.5618   22.5917 H   0  0  0  0  0  0  0  0  0  0  0  0
  -55.6590  -20.7399   25.0424 H   0  0  0  0  0  0  0  0  0  0  0  0
  -55.6783  -18.6660   26.4896 H   0  0  0  0  0  0  0  0  0  0  0  0
  -57.1699  -13.3217   23.5762 H   0  0  0  0  0  0  0  0  0  0  0  0
  -54.4726  -13.5215   24.9790 H   0  0  0  0  0  0  0  0  0  0  0  0
  -54.7628  -13.1955   23.2547 H   0  0  0  0  0  0  0  0  0  0  0  0
  -54.3940  -11.0663   24.5003 H   0  0  0  0  0  0  0  0  0  0  0  0
  -56.0696  -11.1312   23.8871 H   0  0  0  0  0  0  0  0  0  0  0  0
  -57.0535  -12.3407   27.4222 H   0  0  0  0  0  0  0  0  0  0  0  0
  -56.6286  -17.3596   20.8410 H   0  0  0  0  0  0  0  0  0  0  0  0
  -56.4883  -19.1285   20.6560 H   0  0  0  0  0  0  0  0  0  0  0  0
  1  2  2  0
  1 14  1  0
  2  3  1  0
  3  4  2  0
  4  5  1  0
  4 18  1  0
  5  9  1  0
  5 15  2  0
  6  9  1  0
  6 10  1  0
  6 16  1  0
  7 19  2  0
  8 16  2  0
  9 17  1  0
 10 11  1  0
 11 19  1  0
 12 16  1  0
 12 19  1  0
 13 14  1  0
 14 18  2  0
 17 18  1  0
 17 20  2  0
  1 21  1  0
  2 22  1  0
  3 23  1  0
  6 24  1  6
 10 25  1  0
 10 26  1  0
 11 27  1  0
 11 28  1  0
 12 29  1  0
 13 30  1  0
 13 31  1  0
M  END
>  <filename_input>  (8) 
7SZA_DUI_docked.sdf

>  <pdb_id>  (8) 
7SZA_DUI

>  <pose_rank>  (8) 
7

>  <num_atoms_heavy>  (8) 
20

>  <num_torsions>  (8) 
1

>  <pose>  (8) 
[-56.03018741883773, -19.651674977783202, 23.209393680990857, 2.7540032985242755, -0.06924155960588171, -0.3523397472395907, 0.2863443252155041]

>  <energy>  (8) 
-519.3041382923661

>  <inter_energy>  (8) 
-558.6144299318979

>  <intra_energy>  (8) 
50.277990066547

>  <rmsd>  (8) 
6.11079

>  <sdf_rank>  (8) 
0

$$$$

     RDKit          3D

 31 33  0  0  0  0  0  0  0  0999 V2000
  -55.3401  -15.1106   26.8045 C   0  0  0  0  0  0  0  0  0  0  0  0
  -56.4793  -14.6724   26.1253 C   0  0  0  0  0  0  0  0  0  0  0  0
  -57.3165  -15.5909   25.4562 C   0  0  0  0  0  0  0  0  0  0  0  0
  -56.9578  -16.9307   25.5079 C   0  0  0  0  0  0  0  0  0  0  0  0
  -57.5297  -18.0890   24.9918 C   0  0  0  0  0  0  0  0  0  0  0  0
  -57.1386  -20.5971   24.9283 C   0  0  2  0  0  0  0  0  0  0  0  0
  -55.2369  -24.1016   24.1496 O   0  0  0  0  0  0  0  0  0  0  0  0
  -56.4624  -20.0741   22.7196 O   0  0  0  0  0  0  0  0  0  0  0  0
  -56.8559  -19.1949   25.2813 N   0  0  0  0  0  0  0  0  0  0  0  0
  -56.6530  -21.4933   26.0519 C   0  0  0  0  0  0  0  0  0  0  0  0
  -56.7572  -22.9254   25.5558 C   0  0  0  0  0  0  0  0  0  0  0  0
  -55.7648  -22.0359   23.4991 N   0  0  0  0  0  0  0  0  0  0  0  0
  -53.8996  -16.9226   27.5213 N   0  0  0  0  0  0  0  0  0  0  0  0
  -55.0014  -16.4628   26.8378 C   0  0  0  0  0  0  0  0  0  0  0  0
  -58.6028  -18.0943   24.2854 O   0  0  0  0  0  0  0  0  0  0  0  0
  -56.4305  -20.8905   23.6332 C   0  0  0  0  0  0  0  0  0  0  0  0
  -55.8424  -18.7400   26.0189 C   0  0  0  0  0  0  0  0  0  0  0  0
  -55.8255  -17.3612   26.1936 C   0  0  0  0  0  0  0  0  0  0  0  0
  -55.8612  -23.0668   24.3425 C   0  0  0  0  0  0  0  0  0  0  0  0
  -54.9784  -19.5332   26.5102 O   0  0  0  0  0  0  0  0  0  0  0  0
  -54.7012  -14.3786   27.3203 H   0  0  0  0  0  0  0  0  0  0  0  0
  -56.7265  -13.6006   26.1118 H   0  0  0  0  0  0  0  0  0  0  0  0
  -58.2156  -15.2588   24.9164 H   0  0  0  0  0  0  0  0  0  0  0  0
  -58.2154  -20.7791   24.7971 H   0  0  0  0  0  0  0  0  0  0  0  0
  -55.6083  -21.2548   26.3004 H   0  0  0  0  0  0  0  0  0  0  0  0
  -57.2579  -21.3475   26.9590 H   0  0  0  0  0  0  0  0  0  0  0  0
  -56.4294  -23.6185   26.3447 H   0  0  0  0  0  0  0  0  0  0  0  0
  -57.7981  -23.1638   25.2921 H   0  0  0  0  0  0  0  0  0  0  0  0
  -55.1335  -22.1332   22.6910 H   0  0  0  0  0  0  0  0  0  0  0  0
  -53.6786  -17.9286   27.5249 H   0  0  0  0  0  0  0  0  0  0  0  0
  -53.2957  -16.2608   28.0294 H   0  0  0  0  0  0  0  0  0  0  0  0
  1  2  2  0
  1 14  1  0
  2  3  1  0
  3  4  2  0
  4  5  1  0
  4 18  1  0
  5  9  1  0
  5 15  2  0
  6  9  1  0
  6 10  1  0
  6 16  1  0
  7 19  2  0
  8 16  2  0
  9 17  1  0
 10 11  1  0
 11 19  1  0
 12 16  1  0
 12 19  1  0
 13 14  1  0
 14 18  2  0
 17 18  1  0
 17 20  2  0
  1 21  1  0
  2 22  1  0
  3 23  1  0
  6 24  1  6
 10 25  1  0
 10 26  1  0
 11 27  1  0
 11 28  1  0
 12 29  1  0
 13 30  1  0
 13 31  1  0
M  END
>  <filename_input>  (9) 
7SZA_DUI_docked.sdf

>  <pdb_id>  (9) 
7SZA_DUI

>  <pose_rank>  (9) 
8

>  <num_atoms_heavy>  (9) 
20

>  <num_torsions>  (9) 
1

>  <pose>  (9) 
[-55.340133463696404, -15.110554602330476, 26.80447677702538, 0.04620696216503903, 0.8273992658210741, 0.2955851028691648, 2.455445639238722]

>  <energy>  (9) 
-371.7308257587167

>  <inter_energy>  (9) 
-410.628756413218

>  <intra_energy>  (9) 
34.26345607728418

>  <rmsd>  (9) 
4.68931

>  <sdf_rank>  (9) 
0

$$$$

     RDKit          3D

 31 33  0  0  0  0  0  0  0  0999 V2000
  -56.7065  -20.4592   24.8741 C   0  0  0  0  0  0  0  0  0  0  0  0
  -57.1289  -20.2423   23.5606 C   0  0  0  0  0  0  0  0  0  0  0  0
  -57.1175  -18.9445   23.0056 C   0  0  0  0  0  0  0  0  0  0  0  0
  -56.6704  -17.9112   23.8171 C   0  0  0  0  0  0  0  0  0  0  0  0
  -56.5128  -16.5437   23.6159 C   0  0  0  0  0  0  0  0  0  0  0  0
  -55.7328  -14.4668   24.8510 C   0  0  2  0  0  0  0  0  0  0  0  0
  -56.3805  -11.3952   27.4297 O   0  0  0  0  0  0  0  0  0  0  0  0
  -57.9632  -14.0084   24.1996 O   0  0  0  0  0  0  0  0  0  0  0  0
  -56.0398  -15.8968   24.6735 N   0  0  0  0  0  0  0  0  0  0  0  0
  -54.8870  -14.2980   26.0990 C   0  0  0  0  0  0  0  0  0  0  0  0
  -54.7827  -12.8063   26.3677 C   0  0  0  0  0  0  0  0  0  0  0  0
  -57.1866  -12.7917   25.8906 N   0  0  0  0  0  0  0  0  0  0  0  0
  -55.8192  -19.5930   26.9561 N   0  0  0  0  0  0  0  0  0  0  0  0
  -56.2648  -19.4019   25.6687 C   0  0  0  0  0  0  0  0  0  0  0  0
  -56.8105  -15.9516   22.5153 O   0  0  0  0  0  0  0  0  0  0  0  0
  -57.0416  -13.7319   24.9588 C   0  0  0  0  0  0  0  0  0  0  0  0
  -55.8677  -16.8730   25.5656 C   0  0  0  0  0  0  0  0  0  0  0  0
  -56.2431  -18.1359   25.1227 C   0  0  0  0  0  0  0  0  0  0  0  0
  -56.1816  -12.2740   26.6015 C   0  0  0  0  0  0  0  0  0  0  0  0
  -55.3933  -16.6325   26.7205 O   0  0  0  0  0  0  0  0  0  0  0  0
  -56.7224  -21.4784   25.2875 H   0  0  0  0  0  0  0  0  0  0  0  0
  -57.4740  -21.0914   22.9524 H   0  0  0  0  0  0  0  0  0  0  0  0
  -57.4490  -18.7599   21.9731 H   0  0  0  0  0  0  0  0  0  0  0  0
  -55.1623  -14.0603   24.0029 H   0  0  0  0  0  0  0  0  0  0  0  0
  -55.3661  -14.8025   26.9510 H   0  0  0  0  0  0  0  0  0  0  0  0
  -53.8902  -14.7420   25.9601 H   0  0  0  0  0  0  0  0  0  0  0  0
  -54.1624  -12.6300   27.2589 H   0  0  0  0  0  0  0  0  0  0  0  0
  -54.3175  -12.2954   25.5119 H   0  0  0  0  0  0  0  0  0  0  0  0
  -58.1371  -12.4404   26.0753 H   0  0  0  0  0  0  0  0  0  0  0  0
  -55.5000  -18.7891   27.5153 H   0  0  0  0  0  0  0  0  0  0  0  0
  -55.8048  -20.5401   27.3608 H   0  0  0  0  0  0  0  0  0  0  0  0
  1  2  2  0
  1 14  1  0
  2  3  1  0
  3  4  2  0
  4  5  1  0
  4 18  1  0
  5  9  1  0
  5 15  2  0
  6  9  1  0
  6 10  1  0
  6 16  1  0
  7 19  2  0
  8 16  2  0
  9 17  1  0
 10 11  1  0
 11 19  1  0
 12 16  1  0
 12 19  1  0
 13 14  1  0
 14 18  2  0
 17 18  1  0
 17 20  2  0
  1 21  1  0
  2 22  1  0
  3 23  1  0
  6 24  1  6
 10 25  1  0
 10 26  1  0
 11 27  1  0
 11 28  1  0
 12 29  1  0
 13 30  1  0
 13 31  1  0
M  END
>  <filename_input>  (10) 
7SZA_DUI_docked.sdf

>  <pdb_id>  (10) 
7SZA_DUI

>  <pose_rank>  (10) 
9

>  <num_atoms_heavy>  (10) 
20

>  <num_torsions>  (10) 
1

>  <pose>  (10) 
[-56.706452012459735, -20.459201886020313, 24.87411027963676, -0.616437289473468, 0.9264870096091172, -2.9878343870687742, -4.144771165509675]

>  <energy>  (10) 
-526.7359708165886

>  <inter_energy>  (10) 
-592.2737393931297

>  <intra_energy>  (10) 
62.69709174368701

>  <rmsd>  (10) 
5.77901

>  <sdf_rank>  (10) 
0

$$$$

     RDKit          3D

 31 33  0  0  0  0  0  0  0  0999 V2000
  -56.7868  -19.3138   23.9904 C   0  0  0  0  0  0  0  0  0  0  0  0
  -56.2695  -18.9823   22.7360 C   0  0  0  0  0  0  0  0  0  0  0  0
  -55.7913  -17.6801   22.4755 C   0  0  0  0  0  0  0  0  0  0  0  0
  -55.8579  -16.7604   23.5128 C   0  0  0  0  0  0  0  0  0  0  0  0
  -55.4820  -15.4258   23.6264 C   0  0  0  0  0  0  0  0  0  0  0  0
  -55.4592  -13.5432   25.3301 C   0  0  2  0  0  0  0  0  0  0  0  0
  -56.1414  -11.2043   28.5810 O   0  0  0  0  0  0  0  0  0  0  0  0
  -57.7232  -13.0381   24.8524 O   0  0  0  0  0  0  0  0  0  0  0  0
  -55.7190  -14.9016   24.8221 N   0  0  0  0  0  0  0  0  0  0  0  0
  -54.5833  -13.6405   26.5649 C   0  0  0  0  0  0  0  0  0  0  0  0
  -54.5255  -12.2528   27.1804 C   0  0  0  0  0  0  0  0  0  0  0  0
  -56.9415  -12.2272   26.7692 N   0  0  0  0  0  0  0  0  0  0  0  0
  -57.3254  -18.6773   26.2657 N   0  0  0  0  0  0  0  0  0  0  0  0
  -56.8448  -18.3689   25.0142 C   0  0  0  0  0  0  0  0  0  0  0  0
  -54.9666  -14.7514   22.6620 O   0  0  0  0  0  0  0  0  0  0  0  0
  -56.7901  -12.9114   25.6369 C   0  0  0  0  0  0  0  0  0  0  0  0
  -56.2366  -15.9277   25.4984 C   0  0  0  0  0  0  0  0  0  0  0  0
  -56.3672  -17.1000   24.7630 C   0  0  0  0  0  0  0  0  0  0  0  0
  -55.9353  -11.8514   27.5629 C   0  0  0  0  0  0  0  0  0  0  0  0
  -56.5714  -15.8089   26.7193 O   0  0  0  0  0  0  0  0  0  0  0  0
  -57.1537  -20.3346   24.1732 H   0  0  0  0  0  0  0  0  0  0  0  0
  -56.2344  -19.7439   21.9430 H   0  0  0  0  0  0  0  0  0  0  0  0
  -55.3830  -17.4057   21.4917 H   0  0  0  0  0  0  0  0  0  0  0  0
  -54.9294  -12.9226   24.5925 H   0  0  0  0  0  0  0  0  0  0  0  0
  -55.0180  -14.3534   27.2810 H   0  0  0  0  0  0  0  0  0  0  0  0
  -53.5755  -13.9959   26.3038 H   0  0  0  0  0  0  0  0  0  0  0  0
  -53.8858  -12.2675   28.0751 H   0  0  0  0  0  0  0  0  0  0  0  0
  -54.1049  -11.5335   26.4623 H   0  0  0  0  0  0  0  0  0  0  0  0
  -57.8982  -11.9708   27.0518 H   0  0  0  0  0  0  0  0  0  0  0  0
  -57.3540  -17.9545   26.9989 H   0  0  0  0  0  0  0  0  0  0  0  0
  -57.6566  -19.6311   26.4695 H   0  0  0  0  0  0  0  0  0  0  0  0
  1  2  2  0
  1 14  1  0
  2  3  1  0
  3  4  2  0
  4  5  1  0
  4 18  1  0
  5  9  1  0
  5 15  2  0
  6  9  1  0
  6 10  1  0
  6 16  1  0
  7 19  2  0
  8 16  2  0
  9 17  1  0
 10 11  1  0
 11 19  1  0
 12 16  1  0
 12 19  1  0
 13 14  1  0
 14 18  2  0
 17 18  1  0
 17 20  2  0
  1 21  1  0
  2 22  1  0
  3 23  1  0
  6 24  1  6
 10 25  1  0
 10 26  1  0
 11 27  1  0
 11 28  1  0
 12 29  1  0
 13 30  1  0
 13 31  1  0
M  END
>  <filename_input>  (11) 
7SZA_DUI_docked.sdf

>  <pdb_id>  (11) 
7SZA_DUI

>  <pose_rank>  (11) 
10

>  <num_atoms_heavy>  (11) 
20

>  <num_torsions>  (11) 
1

>  <pose>  (11) 
[-56.786839448164685, -19.31378529402393, 23.990370122489953, 0.45112071409033516, 1.038779713087414, -2.8844686560494677, -3.410556058567247]

>  <energy>  (11) 
-544.8505067947332

>  <inter_energy>  (11) 
-577.2964949243393

>  <intra_energy>  (11) 
23.096033862178178

>  <rmsd>  (11) 
5.79395

>  <sdf_rank>  (11) 
0

$$$$

     RDKit          3D

 31 33  0  0  0  0  0  0  0  0999 V2000
  -55.7145  -12.0034   25.8991 C   0  0  0  0  0  0  0  0  0  0  0  0
  -55.9246  -12.0446   24.5189 C   0  0  0  0  0  0  0  0  0  0  0  0
  -55.8830  -13.2706   23.8205 C   0  0  0  0  0  0  0  0  0  0  0  0
  -55.6288  -14.4154   24.5629 C   0  0  0  0  0  0  0  0  0  0  0  0
  -55.5272  -15.7622   24.2294 C   0  0  0  0  0  0  0  0  0  0  0  0
  -55.1030  -18.0157   25.3199 C   0  0  2  0  0  0  0  0  0  0  0  0
  -55.4963  -21.3304   23.0044 O   0  0  0  0  0  0  0  0  0  0  0  0
  -57.4615  -18.1842   25.4553 O   0  0  0  0  0  0  0  0  0  0  0  0
  -55.2721  -16.5532   25.2638 N   0  0  0  0  0  0  0  0  0  0  0  0
  -54.0183  -18.4220   24.3402 C   0  0  0  0  0  0  0  0  0  0  0  0
  -54.0313  -19.9393   24.2656 C   0  0  0  0  0  0  0  0  0  0  0  0
  -56.4650  -19.6772   24.1434 N   0  0  0  0  0  0  0  0  0  0  0  0
  -55.2736  -13.1583   27.9834 N   0  0  0  0  0  0  0  0  0  0  0  0
  -55.4580  -13.1690   26.6202 C   0  0  0  0  0  0  0  0  0  0  0  0
  -55.6518  -16.2055   23.0301 O   0  0  0  0  0  0  0  0  0  0  0  0
  -56.4289  -18.6391   24.9767 C   0  0  0  0  0  0  0  0  0  0  0  0
  -55.2323  -15.6992   26.2873 C   0  0  0  0  0  0  0  0  0  0  0  0
  -55.4285  -14.3679   25.9396 C   0  0  0  0  0  0  0  0  0  0  0  0
  -55.3914  -20.3713   23.7573 C   0  0  0  0  0  0  0  0  0  0  0  0
  -55.0307  -16.1053   27.4753 O   0  0  0  0  0  0  0  0  0  0  0  0
  -55.7519  -11.0378   26.4248 H   0  0  0  0  0  0  0  0  0  0  0  0
  -56.1246  -11.1123   23.9705 H   0  0  0  0  0  0  0  0  0  0  0  0
  -56.0452  -13.3167   22.7335 H   0  0  0  0  0  0  0  0  0  0  0  0
  -54.7950  -18.3560   26.3196 H   0  0  0  0  0  0  0  0  0  0  0  0
  -54.2255  -17.9935   23.3485 H   0  0  0  0  0  0  0  0  0  0  0  0
  -53.0352  -18.0539   24.6688 H   0  0  0  0  0  0  0  0  0  0  0  0
  -53.2477  -20.2859   23.5759 H   0  0  0  0  0  0  0  0  0  0  0  0
  -53.8391  -20.3723   25.2584 H   0  0  0  0  0  0  0  0  0  0  0  0
  -57.3820  -19.9638   23.7720 H   0  0  0  0  0  0  0  0  0  0  0  0
  -55.0858  -14.0383   28.4846 H   0  0  0  0  0  0  0  0  0  0  0  0
  -55.3234  -12.2703   28.5028 H   0  0  0  0  0  0  0  0  0  0  0  0
  1  2  2  0
  1 14  1  0
  2  3  1  0
  3  4  2  0
  4  5  1  0
  4 18  1  0
  5  9  1  0
  5 15  2  0
  6  9  1  0
  6 10  1  0
  6 16  1  0
  7 19  2  0
  8 16  2  0
  9 17  1  0
 10 11  1  0
 11 19  1  0
 12 16  1  0
 12 19  1  0
 13 14  1  0
 14 18  2  0
 17 18  1  0
 17 20  2  0
  1 21  1  0
  2 22  1  0
  3 23  1  0
  6 24  1  1
 10 25  1  0
 10 26  1  0
 11 27  1  0
 11 28  1  0
 12 29  1  0
 13 30  1  0
 13 31  1  0
M  END
>  <filename_input>  (12) 
7SZA_DUI_docked.sdf

>  <pdb_id>  (12) 
7SZA_DUI

>  <pose_rank>  (12) 
11

>  <num_atoms_heavy>  (12) 
20

>  <num_torsions>  (12) 
1

>  <pose>  (12) 
[-55.71449829147711, -12.003393397946148, 25.899144750868306, -0.42353064509531035, -0.0020232840259336166, 0.33784512864249944, -0.298161473040564]

>  <energy>  (12) 
-487.5159860516354

>  <inter_energy>  (12) 
-485.8497504710897

>  <intra_energy>  (12) 
16.524410110221872

>  <rmsd>  (12) 
2.45311

>  <sdf_rank>  (12) 
0

$$$$

     RDKit          3D

 31 33  0  0  0  0  0  0  0  0999 V2000
  -55.5260  -12.1633   27.4142 C   0  0  0  0  0  0  0  0  0  0  0  0
  -55.5243  -11.4866   26.1923 C   0  0  0  0  0  0  0  0  0  0  0  0
  -55.7618  -12.1789   24.9855 C   0  0  0  0  0  0  0  0  0  0  0  0
  -55.9957  -13.5442   25.0726 C   0  0  0  0  0  0  0  0  0  0  0  0
  -56.2708  -14.5245   24.1247 C   0  0  0  0  0  0  0  0  0  0  0  0
  -56.7456  -17.0144   23.9739 C   0  0  2  0  0  0  0  0  0  0  0  0
  -58.3874  -20.6524   24.7311 O   0  0  0  0  0  0  0  0  0  0  0  0
  -54.8848  -17.9402   25.1094 O   0  0  0  0  0  0  0  0  0  0  0  0
  -56.4378  -15.7363   24.6390 N   0  0  0  0  0  0  0  0  0  0  0  0
  -58.2495  -17.2138   23.9665 C   0  0  0  0  0  0  0  0  0  0  0  0
  -58.5085  -18.6295   23.4800 C   0  0  0  0  0  0  0  0  0  0  0  0
  -56.6893  -19.2348   25.0066 N   0  0  0  0  0  0  0  0  0  0  0  0
  -55.7937  -14.2213   28.6653 N   0  0  0  0  0  0  0  0  0  0  0  0
  -55.7609  -13.5365   27.4726 C   0  0  0  0  0  0  0  0  0  0  0  0
  -56.3425  -14.2892   22.8638 O   0  0  0  0  0  0  0  0  0  0  0  0
  -56.0407  -18.1038   24.7361 C   0  0  0  0  0  0  0  0  0  0  0  0
  -56.2902  -15.5258   25.9476 C   0  0  0  0  0  0  0  0  0  0  0  0
  -56.0041  -14.2107   26.2947 C   0  0  0  0  0  0  0  0  0  0  0  0
  -57.8534  -19.5866   24.4545 C   0  0  0  0  0  0  0  0  0  0  0  0
  -56.4104  -16.4758   26.7842 O   0  0  0  0  0  0  0  0  0  0  0  0
  -55.3395  -11.6050   28.3435 H   0  0  0  0  0  0  0  0  0  0  0  0
  -55.3358  -10.4031   26.1703 H   0  0  0  0  0  0  0  0  0  0  0  0
  -55.7617  -11.6583   24.0165 H   0  0  0  0  0  0  0  0  0  0  0  0
  -56.4015  -17.0277   22.9292 H   0  0  0  0  0  0  0  0  0  0  0  0
  -58.6526  -17.0837   24.9816 H   0  0  0  0  0  0  0  0  0  0  0  0
  -58.7393  -16.4783   23.3114 H   0  0  0  0  0  0  0  0  0  0  0  0
  -59.5914  -18.8188   23.4417 H   0  0  0  0  0  0  0  0  0  0  0  0
  -58.0939  -18.7686   22.4706 H   0  0  0  0  0  0  0  0  0  0  0  0
  -56.2651  -19.8814   25.6870 H   0  0  0  0  0  0  0  0  0  0  0  0
  -55.9699  -15.2361   28.6718 H   0  0  0  0  0  0  0  0  0  0  0  0
  -55.6420  -13.7192   29.5517 H   0  0  0  0  0  0  0  0  0  0  0  0
  1  2  2  0
  1 14  1  0
  2  3  1  0
  3  4  2  0
  4  5  1  0
  4 18  1  0
  5  9  1  0
  5 15  2  0
  6  9  1  0
  6 10  1  0
  6 16  1  0
  7 19  2  0
  8 16  2  0
  9 17  1  0
 10 11  1  0
 11 19  1  0
 12 16  1  0
 12 19  1  0
 13 14  1  0
 14 18  2  0
 17 18  1  0
 17 20  2  0
  1 21  1  0
  2 22  1  0
  3 23  1  0
  6 24  1  6
 10 25  1  0
 10 26  1  0
 11 27  1  0
 11 28  1  0
 12 29  1  0
 13 30  1  0
 13 31  1  0
M  END
>  <filename_input>  (13) 
7SZA_DUI_docked.sdf

>  <pdb_id>  (13) 
7SZA_DUI

>  <pose_rank>  (13) 
12

>  <num_atoms_heavy>  (13) 
20

>  <num_torsions>  (13) 
1

>  <pose>  (13) 
[-55.52598794336677, -12.163261184000858, 27.414233047566313, -3.8595628493893024, 4.477228895970844, 1.777793623455411, 9.687586635563658]

>  <energy>  (13) 
-528.4395937922518

>  <inter_energy>  (13) 
-588.3471463593767

>  <intra_energy>  (13) 
58.329970184243024

>  <rmsd>  (13) 
2.30682

>  <sdf_rank>  (13) 
0

$$$$

     RDKit          3D

 31 33  0  0  0  0  0  0  0  0999 V2000
  -58.1436  -14.9642   23.8732 C   0  0  0  0  0  0  0  0  0  0  0  0
  -56.9766  -14.3796   24.3706 C   0  0  0  0  0  0  0  0  0  0  0  0
  -55.8618  -15.1753   24.7121 C   0  0  0  0  0  0  0  0  0  0  0  0
  -55.9808  -16.5460   24.5297 C   0  0  0  0  0  0  0  0  0  0  0  0
  -55.1123  -17.6123   24.7393 C   0  0  0  0  0  0  0  0  0  0  0  0
  -55.0303  -20.1386   24.4972 C   0  0  2  0  0  0  0  0  0  0  0  0
  -55.9854  -23.9710   25.4486 O   0  0  0  0  0  0  0  0  0  0  0  0
  -54.9669  -19.8764   26.8502 O   0  0  0  0  0  0  0  0  0  0  0  0
  -55.6280  -18.7939   24.4250 N   0  0  0  0  0  0  0  0  0  0  0  0
  -55.7341  -21.0423   23.5025 C   0  0  0  0  0  0  0  0  0  0  0  0
  -55.2473  -22.4573   23.7645 C   0  0  0  0  0  0  0  0  0  0  0  0
  -55.5851  -21.8845   26.1234 N   0  0  0  0  0  0  0  0  0  0  0  0
  -59.3654  -16.9424   23.1904 N   0  0  0  0  0  0  0  0  0  0  0  0
  -58.2371  -16.3450   23.7028 C   0  0  0  0  0  0  0  0  0  0  0  0
  -53.9243  -17.4756   25.2088 O   0  0  0  0  0  0  0  0  0  0  0  0
  -55.1902  -20.6308   25.9104 C   0  0  0  0  0  0  0  0  0  0  0  0
  -56.8453  -18.4777   23.9818 C   0  0  0  0  0  0  0  0  0  0  0  0
  -57.1440  -17.1210   24.0257 C   0  0  0  0  0  0  0  0  0  0  0  0
  -55.6324  -22.8300   25.1814 C   0  0  0  0  0  0  0  0  0  0  0  0
  -57.6436  -19.3719   23.5575 O   0  0  0  0  0  0  0  0  0  0  0  0
  -59.0009  -14.3263   23.6123 H   0  0  0  0  0  0  0  0  0  0  0  0
  -56.9258  -13.2882   24.4974 H   0  0  0  0  0  0  0  0  0  0  0  0
  -54.9375  -14.7277   25.1062 H   0  0  0  0  0  0  0  0  0  0  0  0
  -53.9608  -20.1277   24.2404 H   0  0  0  0  0  0  0  0  0  0  0  0
  -56.8233  -20.9852   23.6454 H   0  0  0  0  0  0  0  0  0  0  0  0
  -55.5122  -20.7363   22.4695 H   0  0  0  0  0  0  0  0  0  0  0  0
  -55.7194  -23.1521   23.0543 H   0  0  0  0  0  0  0  0  0  0  0  0
  -54.1562  -22.5158   23.6371 H   0  0  0  0  0  0  0  0  0  0  0  0
  -55.8731  -22.1422   27.0781 H   0  0  0  0  0  0  0  0  0  0  0  0
  -59.4004  -17.9656   23.0779 H   0  0  0  0  0  0  0  0  0  0  0  0
  -60.1751  -16.3664   22.9193 H   0  0  0  0  0  0  0  0  0  0  0  0
  1  2  2  0
  1 14  1  0
  2  3  1  0
  3  4  2  0
  4  5  1  0
  4 18  1  0
  5  9  1  0
  5 15  2  0
  6  9  1  0
  6 10  1  0
  6 16  1  0
  7 19  2  0
  8 16  2  0
  9 17  1  0
 10 11  1  0
 11 19  1  0
 12 16  1  0
 12 19  1  0
 13 14  1  0
 14 18  2  0
 17 18  1  0
 17 20  2  0
  1 21  1  0
  2 22  1  0
  3 23  1  0
  6 24  1  6
 10 25  1  0
 10 26  1  0
 11 27  1  0
 11 28  1  0
 12 29  1  0
 13 30  1  0
 13 31  1  0
M  END
>  <filename_input>  (14) 
7SZA_DUI_docked.sdf

>  <pdb_id>  (14) 
7SZA_DUI

>  <pose_rank>  (14) 
13

>  <num_atoms_heavy>  (14) 
20

>  <num_torsions>  (14) 
1

>  <pose>  (14) 
[-58.14359318281877, -14.964177833331819, 23.87318201522348, 0.11999419662647998, 4.185990289675769, -0.07706455236847363, -3.969944403726228]

>  <energy>  (14) 
-351.62677662007997

>  <inter_energy>  (14) 
-404.5512695616926

>  <intra_energy>  (14) 
44.78403698793022

>  <rmsd>  (14) 
5.18749

>  <sdf_rank>  (14) 
0

$$$$

     RDKit          3D

 31 33  0  0  0  0  0  0  0  0999 V2000
  -47.6850   -5.3716   17.4662 C   0  0  0  0  0  0  0  0  0  0  0  0
  -48.6208   -5.1938   16.4446 C   0  0  0  0  0  0  0  0  0  0  0  0
  -49.4163   -6.2721   16.0011 C   0  0  0  0  0  0  0  0  0  0  0  0
  -49.2265   -7.4984   16.6227 C   0  0  0  0  0  0  0  0  0  0  0  0
  -49.8186   -8.7472   16.4637 C   0  0  0  0  0  0  0  0  0  0  0  0
  -49.7070  -11.0958   17.4222 C   0  0  2  0  0  0  0  0  0  0  0  0
  -52.0312  -13.9424   15.6904 O   0  0  0  0  0  0  0  0  0  0  0  0
  -51.7731  -10.3692   18.3235 O   0  0  0  0  0  0  0  0  0  0  0  0
  -49.3393   -9.6761   17.2811 N   0  0  0  0  0  0  0  0  0  0  0  0
  -49.2397  -11.8483   16.1906 C   0  0  0  0  0  0  0  0  0  0  0  0
  -49.8293  -13.2461   16.2725 C   0  0  0  0  0  0  0  0  0  0  0  0
  -51.8898  -12.0840   16.9133 N   0  0  0  0  0  0  0  0  0  0  0  0
  -46.6166   -6.8108   19.0970 N   0  0  0  0  0  0  0  0  0  0  0  0
  -47.5126   -6.6159   18.0715 C   0  0  0  0  0  0  0  0  0  0  0  0
  -50.7346   -8.9906   15.5965 O   0  0  0  0  0  0  0  0  0  0  0  0
  -51.2014  -11.1634   17.5854 C   0  0  0  0  0  0  0  0  0  0  0  0
  -48.4367   -9.0042   17.9967 C   0  0  0  0  0  0  0  0  0  0  0  0
  -48.2977   -7.6665   17.6459 C   0  0  0  0  0  0  0  0  0  0  0  0
  -51.3388  -13.1181   16.2725 C   0  0  0  0  0  0  0  0  0  0  0  0
  -47.7743   -9.5732   18.9211 O   0  0  0  0  0  0  0  0  0  0  0  0
  -47.0754   -4.5182   17.7979 H   0  0  0  0  0  0  0  0  0  0  0  0
  -48.7390   -4.2033   15.9811 H   0  0  0  0  0  0  0  0  0  0  0  0
  -50.1557   -6.1458   15.1965 H   0  0  0  0  0  0  0  0  0  0  0  0
  -49.2296  -11.5592   18.2982 H   0  0  0  0  0  0  0  0  0  0  0  0
  -49.5947  -11.3415   15.2812 H   0  0  0  0  0  0  0  0  0  0  0  0
  -48.1412  -11.8879   16.1486 H   0  0  0  0  0  0  0  0  0  0  0  0
  -49.5049  -13.8394   15.4049 H   0  0  0  0  0  0  0  0  0  0  0  0
  -49.4886  -13.7515   17.1882 H   0  0  0  0  0  0  0  0  0  0  0  0
  -52.9153  -11.9926   16.8857 H   0  0  0  0  0  0  0  0  0  0  0  0
  -46.5147   -7.7437   19.5216 H   0  0  0  0  0  0  0  0  0  0  0  0
  -46.0476   -6.0239   19.4403 H   0  0  0  0  0  0  0  0  0  0  0  0
  1  2  2  0
  1 14  1  0
  2  3  1  0
  3  4  2  0
  4  5  1  0
  4 18  1  0
  5  9  1  0
  5 15  2  0
  6  9  1  0
  6 10  1  0
  6 16  1  0
  7 19  2  0
  8 16  2  0
  9 17  1  0
 10 11  1  0
 11 19  1  0
 12 16  1  0
 12 19  1  0
 13 14  1  0
 14 18  2  0
 17 18  1  0
 17 20  2  0
  1 21  1  0
  2 22  1  0
  3 23  1  0
  6 24  1  1
 10 25  1  0
 10 26  1  0
 11 27  1  0
 11 28  1  0
 12 29  1  0
 13 30  1  0
 13 31  1  0
M  END
>  <filename_input>  (15) 
7SZA_DUI_docked.sdf

>  <pdb_id>  (15) 
7SZA_DUI

>  <pose_rank>  (15) 
14

>  <num_atoms_heavy>  (15) 
20

>  <num_torsions>  (15) 
1

>  <pose>  (15) 
[-47.684971160077644, -5.371645263801752, 17.466212401776453, 2.3726045837181102, -4.991583210497169, -0.46708455583951036, -0.040992009073651935]

>  <energy>  (15) 
-214.72257270379566

>  <inter_energy>  (15) 
-205.80253204382757

>  <intra_energy>  (15) 
21.551873445374333

>  <rmsd>  (15) 
11.6083

>  <sdf_rank>  (15) 
0

$$$$

     RDKit          3D

 31 33  0  0  0  0  0  0  0  0999 V2000
  -48.1210   -9.0664   19.0757 C   0  0  0  0  0  0  0  0  0  0  0  0
  -47.1194   -9.2748   18.1247 C   0  0  0  0  0  0  0  0  0  0  0  0
  -47.3652  -10.0654   16.9815 C   0  0  0  0  0  0  0  0  0  0  0  0
  -48.6329  -10.6150   16.8507 C   0  0  0  0  0  0  0  0  0  0  0  0
  -49.2270  -11.4155   15.8804 C   0  0  0  0  0  0  0  0  0  0  0  0
  -51.4485  -12.5318   15.3640 C   0  0  2  0  0  0  0  0  0  0  0  0
  -55.1735  -14.1312   15.6298 O   0  0  0  0  0  0  0  0  0  0  0  0
  -50.8780  -14.3629   16.7535 O   0  0  0  0  0  0  0  0  0  0  0  0
  -50.4913  -11.7240   16.1398 N   0  0  0  0  0  0  0  0  0  0  0  0
  -52.6834  -11.6958   15.0857 C   0  0  0  0  0  0  0  0  0  0  0  0
  -53.7248  -12.6256   14.4866 C   0  0  0  0  0  0  0  0  0  0  0  0
  -53.0386  -14.1595   16.2707 N   0  0  0  0  0  0  0  0  0  0  0  0
  -50.3964   -9.4221   19.8294 N   0  0  0  0  0  0  0  0  0  0  0  0
  -49.3855   -9.6335   18.9207 C   0  0  0  0  0  0  0  0  0  0  0  0
  -48.6103  -11.8350   14.8343 O   0  0  0  0  0  0  0  0  0  0  0  0
  -51.7732  -13.7555   16.1775 C   0  0  0  0  0  0  0  0  0  0  0  0
  -50.7215  -11.0887   17.2895 C   0  0  0  0  0  0  0  0  0  0  0  0
  -49.6288  -10.3964   17.7983 C   0  0  0  0  0  0  0  0  0  0  0  0
  -54.0341  -13.7015   15.5073 C   0  0  0  0  0  0  0  0  0  0  0  0
  -51.8631  -11.1322   17.8479 O   0  0  0  0  0  0  0  0  0  0  0  0
  -47.9093   -8.4463   19.9592 H   0  0  0  0  0  0  0  0  0  0  0  0
  -46.1290   -8.8181   18.2681 H   0  0  0  0  0  0  0  0  0  0  0  0
  -46.5847  -10.2385   16.2259 H   0  0  0  0  0  0  0  0  0  0  0  0
  -51.0318  -12.8455   14.3955 H   0  0  0  0  0  0  0  0  0  0  0  0
  -53.0617  -11.2579   16.0212 H   0  0  0  0  0  0  0  0  0  0  0  0
  -52.4512  -10.8709   14.3960 H   0  0  0  0  0  0  0  0  0  0  0  0
  -54.6387  -12.0605   14.2514 H   0  0  0  0  0  0  0  0  0  0  0  0
  -53.3450  -13.0774   13.5584 H   0  0  0  0  0  0  0  0  0  0  0  0
  -53.2647  -14.8727   16.9786 H   0  0  0  0  0  0  0  0  0  0  0  0
  -51.3189   -9.8567   19.6839 H   0  0  0  0  0  0  0  0  0  0  0  0
  -50.2309   -8.8292   20.6553 H   0  0  0  0  0  0  0  0  0  0  0  0
  1  2  2  0
  1 14  1  0
  2  3  1  0
  3  4  2  0
  4  5  1  0
  4 18  1  0
  5  9  1  0
  5 15  2  0
  6  9  1  0
  6 10  1  0
  6 16  1  0
  7 19  2  0
  8 16  2  0
  9 17  1  0
 10 11  1  0
 11 19  1  0
 12 16  1  0
 12 19  1  0
 13 14  1  0
 14 18  2  0
 17 18  1  0
 17 20  2  0
  1 21  1  0
  2 22  1  0
  3 23  1  0
  6 24  1  6
 10 25  1  0
 10 26  1  0
 11 27  1  0
 11 28  1  0
 12 29  1  0
 13 30  1  0
 13 31  1  0
M  END
>  <filename_input>  (16) 
7SZA_DUI_docked.sdf

>  <pdb_id>  (16) 
7SZA_DUI

>  <pose_rank>  (16) 
15

>  <num_atoms_heavy>  (16) 
20

>  <num_torsions>  (16) 
1

>  <pose>  (16) 
[-48.12101681747825, -9.066430232933287, 19.075660872527045, 0.9961311418693152, 2.948095147339967, 3.984991823057873, 9.144800775063148]

>  <energy>  (16) 
-158.73319668515373

>  <inter_energy>  (16) 
-160.16356877752588

>  <intra_energy>  (16) 
23.081932019035

>  <rmsd>  (16) 
10.4136

>  <sdf_rank>  (16) 
0

$$$$

     RDKit          3D

 31 33  0  0  0  0  0  0  0  0999 V2000
  -47.9956   -7.2552   19.1521 C   0  0  0  0  0  0  0  0  0  0  0  0
  -46.7328   -7.7966   19.4037 C   0  0  0  0  0  0  0  0  0  0  0  0
  -46.4054   -9.0963   18.9611 C   0  0  0  0  0  0  0  0  0  0  0  0
  -47.3851   -9.7977   18.2723 C   0  0  0  0  0  0  0  0  0  0  0  0
  -47.4198  -11.0615   17.6919 C   0  0  0  0  0  0  0  0  0  0  0  0
  -48.9973  -12.5704   16.3949 C   0  0  2  0  0  0  0  0  0  0  0  0
  -52.3365  -14.4241   15.0102 O   0  0  0  0  0  0  0  0  0  0  0  0
  -49.7386  -13.4228   18.4766 O   0  0  0  0  0  0  0  0  0  0  0  0
  -48.5770  -11.3541   17.1122 N   0  0  0  0  0  0  0  0  0  0  0  0
  -49.6282  -12.1684   15.0752 C   0  0  0  0  0  0  0  0  0  0  0  0
  -50.2434  -13.4214   14.4758 C   0  0  0  0  0  0  0  0  0  0  0  0
  -51.0792  -13.8124   16.7463 N   0  0  0  0  0  0  0  0  0  0  0  0
  -50.2042   -7.4631   18.1769 N   0  0  0  0  0  0  0  0  0  0  0  0
  -48.9626   -7.9834   18.4600 C   0  0  0  0  0  0  0  0  0  0  0  0
  -46.4318  -11.8821   17.7238 O   0  0  0  0  0  0  0  0  0  0  0  0
  -49.9689  -13.3052   17.2785 C   0  0  0  0  0  0  0  0  0  0  0  0
  -49.2931  -10.2455   17.3036 C   0  0  0  0  0  0  0  0  0  0  0  0
  -48.6388   -9.2487   18.0179 C   0  0  0  0  0  0  0  0  0  0  0  0
  -51.3012  -13.9282   15.4345 C   0  0  0  0  0  0  0  0  0  0  0  0
  -50.4775  -10.1415   16.8528 O   0  0  0  0  0  0  0  0  0  0  0  0
  -48.2305   -6.2401   19.5049 H   0  0  0  0  0  0  0  0  0  0  0  0
  -45.9859   -7.2040   19.9523 H   0  0  0  0  0  0  0  0  0  0  0  0
  -45.4152   -9.5349   19.1540 H   0  0  0  0  0  0  0  0  0  0  0  0
  -48.1464  -13.2307   16.1713 H   0  0  0  0  0  0  0  0  0  0  0  0
  -50.4063  -11.4095   15.2444 H   0  0  0  0  0  0  0  0  0  0  0  0
  -48.8773  -11.7372   14.3969 H   0  0  0  0  0  0  0  0  0  0  0  0
  -50.7026  -13.1841   13.5048 H   0  0  0  0  0  0  0  0  0  0  0  0
  -49.4711  -14.1887   14.3185 H   0  0  0  0  0  0  0  0  0  0  0  0
  -51.8157  -14.1370   17.3890 H   0  0  0  0  0  0  0  0  0  0  0  0
  -50.8949   -8.0290   17.6636 H   0  0  0  0  0  0  0  0  0  0  0  0
  -50.4431   -6.5076   18.4783 H   0  0  0  0  0  0  0  0  0  0  0  0
  1  2  2  0
  1 14  1  0
  2  3  1  0
  3  4  2  0
  4  5  1  0
  4 18  1  0
  5  9  1  0
  5 15  2  0
  6  9  1  0
  6 10  1  0
  6 16  1  0
  7 19  2  0
  8 16  2  0
  9 17  1  0
 10 11  1  0
 11 19  1  0
 12 16  1  0
 12 19  1  0
 13 14  1  0
 14 18  2  0
 17 18  1  0
 17 20  2  0
  1 21  1  0
  2 22  1  0
  3 23  1  0
  6 24  1  6
 10 25  1  0
 10 26  1  0
 11 27  1  0
 11 28  1  0
 12 29  1  0
 13 30  1  0
 13 31  1  0
M  END
>  <filename_input>  (17) 
7SZA_DUI_docked.sdf

>  <pdb_id>  (17) 
7SZA_DUI

>  <pose_rank>  (17) 
16

>  <num_atoms_heavy>  (17) 
20

>  <num_torsions>  (17) 
1

>  <pose>  (17) 
[-47.99558663903041, -7.255215012841089, 19.152099107832257, 0.8890969801966452, 3.7117503926388693, 1.9622167521968676, 2.735043422601961]

>  <energy>  (17) 
-124.60481542536925

>  <inter_energy>  (17) 
-151.66915032153383

>  <intra_energy>  (17) 
24.202388045614107

>  <rmsd>  (17) 
11.197

>  <sdf_rank>  (17) 
0

$$$$

     RDKit          3D

 31 33  0  0  0  0  0  0  0  0999 V2000
  -49.0845  -14.0847   16.3787 C   0  0  0  0  0  0  0  0  0  0  0  0
  -50.2773  -14.1758   15.6577 C   0  0  0  0  0  0  0  0  0  0  0  0
  -51.0395  -13.0212   15.3779 C   0  0  0  0  0  0  0  0  0  0  0  0
  -50.5510  -11.8094   15.8461 C   0  0  0  0  0  0  0  0  0  0  0  0
  -51.0107  -10.4996   15.7554 C   0  0  0  0  0  0  0  0  0  0  0  0
  -50.3608   -8.1500   16.4657 C   0  0  2  0  0  0  0  0  0  0  0  0
  -49.2742   -5.0560   18.8637 O   0  0  0  0  0  0  0  0  0  0  0  0
  -51.9578   -8.5328   18.1723 O   0  0  0  0  0  0  0  0  0  0  0  0
  -50.2238   -9.6124   16.3508 N   0  0  0  0  0  0  0  0  0  0  0  0
  -48.9858   -7.5185   16.3576 C   0  0  0  0  0  0  0  0  0  0  0  0
  -49.1432   -6.0472   16.7021 C   0  0  0  0  0  0  0  0  0  0  0  0
  -50.5299   -6.8705   18.5476 N   0  0  0  0  0  0  0  0  0  0  0  0
  -47.4337  -12.7344   17.5295 N   0  0  0  0  0  0  0  0  0  0  0  0
  -48.6182  -12.8542   16.8401 C   0  0  0  0  0  0  0  0  0  0  0  0
  -52.1039  -10.1727   15.1650 O   0  0  0  0  0  0  0  0  0  0  0  0
  -51.0077   -7.8579   17.7927 C   0  0  0  0  0  0  0  0  0  0  0  0
  -49.2251  -10.3653   16.8134 C   0  0  0  0  0  0  0  0  0  0  0  0
  -49.3571  -11.7250   16.5569 C   0  0  0  0  0  0  0  0  0  0  0  0
  -49.6581   -5.9519   18.1236 C   0  0  0  0  0  0  0  0  0  0  0  0
  -48.2438   -9.8471   17.4343 O   0  0  0  0  0  0  0  0  0  0  0  0
  -48.5048  -14.9964   16.5855 H   0  0  0  0  0  0  0  0  0  0  0  0
  -50.6262  -15.1573   15.3043 H   0  0  0  0  0  0  0  0  0  0  0  0
  -51.9813  -13.0794   14.8126 H   0  0  0  0  0  0  0  0  0  0  0  0
  -50.9852   -7.7311   15.6628 H   0  0  0  0  0  0  0  0  0  0  0  0
  -48.2927   -7.9995   17.0635 H   0  0  0  0  0  0  0  0  0  0  0  0
  -48.5760   -7.6422   15.3442 H   0  0  0  0  0  0  0  0  0  0  0  0
  -48.1708   -5.5391   16.6225 H   0  0  0  0  0  0  0  0  0  0  0  0
  -49.8469   -5.5652   16.0076 H   0  0  0  0  0  0  0  0  0  0  0  0
  -50.8543   -6.8112   19.5234 H   0  0  0  0  0  0  0  0  0  0  0  0
  -47.1191  -11.8096   17.8559 H   0  0  0  0  0  0  0  0  0  0  0  0
  -46.8616  -13.5696   17.7192 H   0  0  0  0  0  0  0  0  0  0  0  0
  1  2  2  0
  1 14  1  0
  2  3  1  0
  3  4  2  0
  4  5  1  0
  4 18  1  0
  5  9  1  0
  5 15  2  0
  6  9  1  0
  6 10  1  0
  6 16  1  0
  7 19  2  0
  8 16  2  0
  9 17  1  0
 10 11  1  0
 11 19  1  0
 12 16  1  0
 12 19  1  0
 13 14  1  0
 14 18  2  0
 17 18  1  0
 17 20  2  0
  1 21  1  0
  2 22  1  0
  3 23  1  0
  6 24  1  6
 10 25  1  0
 10 26  1  0
 11 27  1  0
 11 28  1  0
 12 29  1  0
 13 30  1  0
 13 31  1  0
M  END
>  <filename_input>  (18) 
7SZA_DUI_docked.sdf

>  <pdb_id>  (18) 
7SZA_DUI

>  <pose_rank>  (18) 
17

>  <num_atoms_heavy>  (18) 
20

>  <num_torsions>  (18) 
1

>  <pose>  (18) 
[-49.08446648125558, -14.084657021050543, 16.37869051470845, 1.7707415652995009, -0.7324212112138665, 2.6020137134162318, 2.533563543847125]

>  <energy>  (18) 
-129.95088247293262

>  <inter_energy>  (18) 
-142.21226653269463

>  <intra_energy>  (18) 
30.418733126355455

>  <rmsd>  (18) 
12.5663

>  <sdf_rank>  (18) 
0

$$$$

     RDKit          3D

 31 33  0  0  0  0  0  0  0  0999 V2000
  -52.1375   -7.6648   16.7576 C   0  0  0  0  0  0  0  0  0  0  0  0
  -51.6619   -7.5645   15.4481 C   0  0  0  0  0  0  0  0  0  0  0  0
  -50.8909   -8.6018   14.8807 C   0  0  0  0  0  0  0  0  0  0  0  0
  -50.6348   -9.7100   15.6760 C   0  0  0  0  0  0  0  0  0  0  0  0
  -49.9412  -10.8963   15.4595 C   0  0  0  0  0  0  0  0  0  0  0  0
  -49.3293  -13.0464   16.6637 C   0  0  2  0  0  0  0  0  0  0  0  0
  -48.0110  -16.1988   14.4663 O   0  0  0  0  0  0  0  0  0  0  0  0
  -51.4558  -13.9688   16.1774 O   0  0  0  0  0  0  0  0  0  0  0  0
  -49.9386  -11.7145   16.5042 N   0  0  0  0  0  0  0  0  0  0  0  0
  -47.9541  -13.0366   16.0234 C   0  0  0  0  0  0  0  0  0  0  0  0
  -47.4583  -14.4726   16.0112 C   0  0  0  0  0  0  0  0  0  0  0  0
  -49.7238  -14.9995   15.2389 N   0  0  0  0  0  0  0  0  0  0  0  0
  -52.3412   -8.9231   18.8185 N   0  0  0  0  0  0  0  0  0  0  0  0
  -51.8626   -8.7887   17.5358 C   0  0  0  0  0  0  0  0  0  0  0  0
  -49.3421  -11.1747   14.3577 O   0  0  0  0  0  0  0  0  0  0  0  0
  -50.2443  -14.0453   16.0082 C   0  0  0  0  0  0  0  0  0  0  0  0
  -50.6660  -11.0501   17.4030 C   0  0  0  0  0  0  0  0  0  0  0  0
  -51.1190   -9.8068   16.9775 C   0  0  0  0  0  0  0  0  0  0  0  0
  -48.4225  -15.2935   15.1797 C   0  0  0  0  0  0  0  0  0  0  0  0
  -50.9084  -11.5453   18.5488 O   0  0  0  0  0  0  0  0  0  0  0  0
  -52.7374   -6.8456   17.1809 H   0  0  0  0  0  0  0  0  0  0  0  0
  -51.8905   -6.6681   14.8530 H   0  0  0  0  0  0  0  0  0  0  0  0
  -50.5090   -8.5346   13.8513 H   0  0  0  0  0  0  0  0  0  0  0  0
  -49.2032  -13.3168   17.7225 H   0  0  0  0  0  0  0  0  0  0  0  0
  -48.0190  -12.6508   14.9953 H   0  0  0  0  0  0  0  0  0  0  0  0
  -47.2648  -12.3886   16.5847 H   0  0  0  0  0  0  0  0  0  0  0  0
  -46.4524  -14.5165   15.5682 H   0  0  0  0  0  0  0  0  0  0  0  0
  -47.4058  -14.8675   17.0365 H   0  0  0  0  0  0  0  0  0  0  0  0
  -50.3677  -15.5472   14.6505 H   0  0  0  0  0  0  0  0  0  0  0  0
  -52.1187   -9.7670   19.3655 H   0  0  0  0  0  0  0  0  0  0  0  0
  -52.9220   -8.1797   19.2320 H   0  0  0  0  0  0  0  0  0  0  0  0
  1  2  2  0
  1 14  1  0
  2  3  1  0
  3  4  2  0
  4  5  1  0
  4 18  1  0
  5  9  1  0
  5 15  2  0
  6  9  1  0
  6 10  1  0
  6 16  1  0
  7 19  2  0
  8 16  2  0
  9 17  1  0
 10 11  1  0
 11 19  1  0
 12 16  1  0
 12 19  1  0
 13 14  1  0
 14 18  2  0
 17 18  1  0
 17 20  2  0
  1 21  1  0
  2 22  1  0
  3 23  1  0
  6 24  1  1
 10 25  1  0
 10 26  1  0
 11 27  1  0
 11 28  1  0
 12 29  1  0
 13 30  1  0
 13 31  1  0
M  END
>  <filename_input>  (19) 
7SZA_DUI_docked.sdf

>  <pdb_id>  (19) 
7SZA_DUI

>  <pose_rank>  (19) 
18

>  <num_atoms_heavy>  (19) 
20

>  <num_torsions>  (19) 
1

>  <pose>  (19) 
[-52.13751749291289, -7.664774978286569, 16.757594190780818, 2.532981710426074, 3.402957714221732, -3.2907037778226833, -0.5357073212929626]

>  <energy>  (19) 
-114.48678322096598

>  <inter_energy>  (19) 
-137.8252543449804

>  <intra_energy>  (19) 
21.081661706022196

>  <rmsd>  (19) 
11.0673

>  <sdf_rank>  (19) 
0

$$$$

     RDKit          3D

 31 33  0  0  0  0  0  0  0  0999 V2000
  -65.6402  -14.0133   31.6203 C   0  0  0  0  0  0  0  0  0  0  0  0
  -66.1383  -14.6895   30.5042 C   0  0  0  0  0  0  0  0  0  0  0  0
  -65.9940  -16.0886   30.3863 C   0  0  0  0  0  0  0  0  0  0  0  0
  -65.3442  -16.7489   31.4198 C   0  0  0  0  0  0  0  0  0  0  0  0
  -65.0360  -18.0859   31.6492 C   0  0  0  0  0  0  0  0  0  0  0  0
  -63.9119  -19.5590   33.3852 C   0  0  2  0  0  0  0  0  0  0  0  0
  -63.7681  -23.5503   32.6414 O   0  0  0  0  0  0  0  0  0  0  0  0
  -66.1603  -20.0398   33.9534 O   0  0  0  0  0  0  0  0  0  0  0  0
  -64.3955  -18.3004   32.7914 N   0  0  0  0  0  0  0  0  0  0  0  0
  -62.8476  -20.1511   32.4807 C   0  0  0  0  0  0  0  0  0  0  0  0
  -62.5400  -21.5427   33.0068 C   0  0  0  0  0  0  0  0  0  0  0  0
  -64.9749  -21.7568   33.1856 N   0  0  0  0  0  0  0  0  0  0  0  0
  -64.5122  -14.0624   33.7644 N   0  0  0  0  0  0  0  0  0  0  0  0
  -64.9885  -14.7014   32.6431 C   0  0  0  0  0  0  0  0  0  0  0  0
  -65.3273  -19.0301   30.8282 O   0  0  0  0  0  0  0  0  0  0  0  0
  -65.0959  -20.4764   33.5306 C   0  0  0  0  0  0  0  0  0  0  0  0
  -64.3112  -17.0782   33.3181 C   0  0  0  0  0  0  0  0  0  0  0  0
  -64.8576  -16.0696   32.5331 C   0  0  0  0  0  0  0  0  0  0  0  0
  -63.8117  -22.3626   32.9333 C   0  0  0  0  0  0  0  0  0  0  0  0
  -63.7690  -16.8867   34.4522 O   0  0  0  0  0  0  0  0  0  0  0  0
  -65.7637  -12.9227   31.6934 H   0  0  0  0  0  0  0  0  0  0  0  0
  -66.6483  -14.1258   29.7090 H   0  0  0  0  0  0  0  0  0  0  0  0
  -66.3802  -16.6329   29.5119 H   0  0  0  0  0  0  0  0  0  0  0  0
  -63.4587  -19.3994   34.3747 H   0  0  0  0  0  0  0  0  0  0  0  0
  -63.2211  -20.2119   31.4478 H   0  0  0  0  0  0  0  0  0  0  0  0
  -61.9435  -19.5246   32.4768 H   0  0  0  0  0  0  0  0  0  0  0  0
  -61.7582  -22.0105   32.3904 H   0  0  0  0  0  0  0  0  0  0  0  0
  -62.1800  -21.4879   34.0448 H   0  0  0  0  0  0  0  0  0  0  0  0
  -65.8356  -22.3173   33.1082 H   0  0  0  0  0  0  0  0  0  0  0  0
  -64.0354  -14.6018   34.5011 H   0  0  0  0  0  0  0  0  0  0  0  0
  -64.6324  -13.0447   33.8674 H   0  0  0  0  0  0  0  0  0  0  0  0
  1  2  2  0
  1 14  1  0
  2  3  1  0
  3  4  2  0
  4  5  1  0
  4 18  1  0
  5  9  1  0
  5 15  2  0
  6  9  1  0
  6 10  1  0
  6 16  1  0
  7 19  2  0
  8 16  2  0
  9 17  1  0
 10 11  1  0
 11 19  1  0
 12 16  1  0
 12 19  1  0
 13 14  1  0
 14 18  2  0
 17 18  1  0
 17 20  2  0
  1 21  1  0
  2 22  1  0
  3 23  1  0
  6 24  1  1
 10 25  1  0
 10 26  1  0
 11 27  1  0
 11 28  1  0
 12 29  1  0
 13 30  1  0
 13 31  1  0
M  END
>  <filename_input>  (20) 
7SZA_DUI_docked.sdf

>  <pdb_id>  (20) 
7SZA_DUI

>  <pose_rank>  (20) 
19

>  <num_atoms_heavy>  (20) 
20

>  <num_torsions>  (20) 
1

>  <pose>  (20) 
[-65.64016071711045, -14.013323930756167, 31.62027216212631, -0.8228382452203803, 0.31081335238456986, 0.5550767616382907, -0.14591677532579003]

>  <energy>  (20) 
-111.4595964536641

>  <inter_energy>  (20) 
-128.04138067015245

>  <intra_energy>  (20) 
17.844432674996895

>  <rmsd>  (20) 
12.3934

>  <sdf_rank>  (20) 
0

$$$$

     RDKit          3D

 31 33  0  0  0  0  0  0  0  0999 V2000
  -65.4504   -8.8515   26.3840 C   0  0  0  0  0  0  0  0  0  0  0  0
  -65.8151   -7.5830   26.8412 C   0  0  0  0  0  0  0  0  0  0  0  0
  -65.9241   -6.4984   25.9445 C   0  0  0  0  0  0  0  0  0  0  0  0
  -65.6570   -6.7519   24.6064 C   0  0  0  0  0  0  0  0  0  0  0  0
  -65.6729   -5.9557   23.4658 C   0  0  0  0  0  0  0  0  0  0  0  0
  -65.2639   -6.1205   20.9652 C   0  0  2  0  0  0  0  0  0  0  0  0
  -63.7335   -7.1624   17.3491 O   0  0  0  0  0  0  0  0  0  0  0  0
  -63.0176   -5.5229   21.4193 O   0  0  0  0  0  0  0  0  0  0  0  0
  -65.3514   -6.6046   22.3539 N   0  0  0  0  0  0  0  0  0  0  0  0
  -65.9879   -7.0977   20.0585 C   0  0  0  0  0  0  0  0  0  0  0  0
  -65.6853   -6.6857   18.6279 C   0  0  0  0  0  0  0  0  0  0  0  0
  -63.3822   -6.4510   19.4322 N   0  0  0  0  0  0  0  0  0  0  0  0
  -64.8491  -10.3228   24.5548 N   0  0  0  0  0  0  0  0  0  0  0  0
  -65.1845   -9.0777   25.0340 C   0  0  0  0  0  0  0  0  0  0  0  0
  -65.9564   -4.7027   23.4815 O   0  0  0  0  0  0  0  0  0  0  0  0
  -63.8046   -6.0085   20.6149 C   0  0  0  0  0  0  0  0  0  0  0  0
  -65.1474   -7.8497   22.7859 C   0  0  0  0  0  0  0  0  0  0  0  0
  -65.3021   -8.0205   24.1566 C   0  0  0  0  0  0  0  0  0  0  0  0
  -64.1879   -6.7820   18.4199 C   0  0  0  0  0  0  0  0  0  0  0  0
  -64.8390   -8.7834   21.9796 O   0  0  0  0  0  0  0  0  0  0  0  0
  -65.3718   -9.6837   27.0990 H   0  0  0  0  0  0  0  0  0  0  0  0
  -66.0194   -7.4278   27.9108 H   0  0  0  0  0  0  0  0  0  0  0  0
  -66.2088   -5.4942   26.2918 H   0  0  0  0  0  0  0  0  0  0  0  0
  -65.7385   -5.1358   20.8423 H   0  0  0  0  0  0  0  0  0  0  0  0
  -65.6271   -8.1207   20.2412 H   0  0  0  0  0  0  0  0  0  0  0  0
  -67.0710   -7.0820   20.2503 H   0  0  0  0  0  0  0  0  0  0  0  0
  -66.2034   -7.3582   17.9282 H   0  0  0  0  0  0  0  0  0  0  0  0
  -66.0313   -5.6577   18.4449 H   0  0  0  0  0  0  0  0  0  0  0  0
  -62.3665   -6.5441   19.2885 H   0  0  0  0  0  0  0  0  0  0  0  0
  -64.6590  -10.4543   23.5511 H   0  0  0  0  0  0  0  0  0  0  0  0
  -64.7881  -11.1235   25.1998 H   0  0  0  0  0  0  0  0  0  0  0  0
  1  2  2  0
  1 14  1  0
  2  3  1  0
  3  4  2  0
  4  5  1  0
  4 18  1  0
  5  9  1  0
  5 15  2  0
  6  9  1  0
  6 10  1  0
  6 16  1  0
  7 19  2  0
  8 16  2  0
  9 17  1  0
 10 11  1  0
 11 19  1  0
 12 16  1  0
 12 19  1  0
 13 14  1  0
 14 18  2  0
 17 18  1  0
 17 20  2  0
  1 21  1  0
  2 22  1  0
  3 23  1  0
  6 24  1  1
 10 25  1  0
 10 26  1  0
 11 27  1  0
 11 28  1  0
 12 29  1  0
 13 30  1  0
 13 31  1  0
M  END
>  <filename_input>  (21) 
7SZA_DUI_docked.sdf

>  <pdb_id>  (21) 
7SZA_DUI

>  <pose_rank>  (21) 
20

>  <num_atoms_heavy>  (21) 
20

>  <num_torsions>  (21) 
1

>  <pose>  (21) 
[-65.45038345878707, -8.851504256148473, 26.38402757333493, -4.602519320340599, 0.6050488195234148, -0.9000586195763185, 2.705553953623191]

>  <energy>  (21) 
-112.52559896421712

>  <inter_energy>  (21) 
-140.36949542475648

>  <intra_energy>  (21) 
24.79122858137807

>  <rmsd>  (21) 
12.3119

>  <sdf_rank>  (21) 
0

$$$$

     RDKit          3D

 31 33  0  0  0  0  0  0  0  0999 V2000
  -63.9986  -15.8970   17.2101 C   0  0  0  0  0  0  0  0  0  0  0  0
  -62.6355  -15.9379   16.9078 C   0  0  0  0  0  0  0  0  0  0  0  0
  -61.9429  -17.1673   16.8704 C   0  0  0  0  0  0  0  0  0  0  0  0
  -62.6733  -18.3156   17.1426 C   0  0  0  0  0  0  0  0  0  0  0  0
  -62.3415  -19.6659   17.1860 C   0  0  0  0  0  0  0  0  0  0  0  0
  -63.4143  -21.9258   17.6214 C   0  0  2  0  0  0  0  0  0  0  0  0
  -65.9559  -24.9085   18.6927 O   0  0  0  0  0  0  0  0  0  0  0  0
  -63.2473  -21.6199   19.9640 O   0  0  0  0  0  0  0  0  0  0  0  0
  -63.3612  -20.4595   17.4880 N   0  0  0  0  0  0  0  0  0  0  0  0
  -64.4411  -22.4702   16.6463 C   0  0  0  0  0  0  0  0  0  0  0  0
  -64.6250  -23.9432   16.9697 C   0  0  0  0  0  0  0  0  0  0  0  0
  -64.6822  -23.1824   19.2987 N   0  0  0  0  0  0  0  0  0  0  0  0
  -66.0556  -17.0553   17.7573 N   0  0  0  0  0  0  0  0  0  0  0  0
  -64.7076  -17.0663   17.4827 C   0  0  0  0  0  0  0  0  0  0  0  0
  -61.1555  -20.1104   16.9703 O   0  0  0  0  0  0  0  0  0  0  0  0
  -63.7769  -22.2386   19.0480 C   0  0  0  0  0  0  0  0  0  0  0  0
  -64.3749  -19.6029   17.6182 C   0  0  0  0  0  0  0  0  0  0  0  0
  -64.0334  -18.2681   17.4350 C   0  0  0  0  0  0  0  0  0  0  0  0
  -65.1376  -24.0499   18.3912 C   0  0  0  0  0  0  0  0  0  0  0  0
  -65.5493  -20.0097   17.8873 O   0  0  0  0  0  0  0  0  0  0  0  0
  -64.5200  -14.9287   17.2333 H   0  0  0  0  0  0  0  0  0  0  0  0
  -62.0963  -15.0026   16.6969 H   0  0  0  0  0  0  0  0  0  0  0  0
  -60.8693  -17.2132   16.6353 H   0  0  0  0  0  0  0  0  0  0  0  0
  -62.4478  -22.3954   17.3860 H   0  0  0  0  0  0  0  0  0  0  0  0
  -65.3951  -21.9356   16.7650 H   0  0  0  0  0  0  0  0  0  0  0  0
  -64.1052  -22.3358   15.6075 H   0  0  0  0  0  0  0  0  0  0  0  0
  -65.3526  -24.3896   16.2760 H   0  0  0  0  0  0  0  0  0  0  0  0
  -63.6700  -24.4792   16.8666 H   0  0  0  0  0  0  0  0  0  0  0  0
  -65.0562  -23.2476   20.2562 H   0  0  0  0  0  0  0  0  0  0  0  0
  -66.5482  -17.9381   17.9544 H   0  0  0  0  0  0  0  0  0  0  0  0
  -66.5721  -16.1642   17.7658 H   0  0  0  0  0  0  0  0  0  0  0  0
  1  2  2  0
  1 14  1  0
  2  3  1  0
  3  4  2  0
  4  5  1  0
  4 18  1  0
  5  9  1  0
  5 15  2  0
  6  9  1  0
  6 10  1  0
  6 16  1  0
  7 19  2  0
  8 16  2  0
  9 17  1  0
 10 11  1  0
 11 19  1  0
 12 16  1  0
 12 19  1  0
 13 14  1  0
 14 18  2  0
 17 18  1  0
 17 20  2  0
  1 21  1  0
  2 22  1  0
  3 23  1  0
  6 24  1  6
 10 25  1  0
 10 26  1  0
 11 27  1  0
 11 28  1  0
 12 29  1  0
 13 30  1  0
 13 31  1  0
M  END
>  <filename_input>  (22) 
7SZA_DUI_docked.sdf

>  <pdb_id>  (22) 
7SZA_DUI

>  <pose_rank>  (22) 
21

>  <num_atoms_heavy>  (22) 
20

>  <num_torsions>  (22) 
1

>  <pose>  (22) 
[-63.99858031780609, -15.896992801711592, 17.21007251734039, 1.7247326437377737, 4.377782983378821, 0.21203607729181925, 2.899603860303324]

>  <energy>  (22) 
-146.17872061094104

>  <inter_energy>  (22) 
-140.6235805692457

>  <intra_energy>  (22) 
23.207488979635116

>  <rmsd>  (22) 
11.6373

>  <sdf_rank>  (22) 
0

$$$$

     RDKit          3D

 31 33  0  0  0  0  0  0  0  0999 V2000
  -48.2614   -6.5207   19.5455 C   0  0  0  0  0  0  0  0  0  0  0  0
  -48.5297   -5.5779   18.5505 C   0  0  0  0  0  0  0  0  0  0  0  0
  -48.7340   -5.9807   17.2132 C   0  0  0  0  0  0  0  0  0  0  0  0
  -48.6582   -7.3395   16.9411 C   0  0  0  0  0  0  0  0  0  0  0  0
  -48.8106   -8.0865   15.7775 C   0  0  0  0  0  0  0  0  0  0  0  0
  -48.7508  -10.4982   14.9851 C   0  0  2  0  0  0  0  0  0  0  0  0
  -48.2470  -14.5211   14.7266 O   0  0  0  0  0  0  0  0  0  0  0  0
  -46.3840  -10.4879   14.8999 O   0  0  0  0  0  0  0  0  0  0  0  0
  -48.6595   -9.3929   15.9550 N   0  0  0  0  0  0  0  0  0  0  0  0
  -49.8384  -11.4560   15.4339 C   0  0  0  0  0  0  0  0  0  0  0  0
  -49.7485  -12.6817   14.5409 C   0  0  0  0  0  0  0  0  0  0  0  0
  -47.3358  -12.4969   14.9299 N   0  0  0  0  0  0  0  0  0  0  0  0
  -47.9510   -8.8304   20.2097 N   0  0  0  0  0  0  0  0  0  0  0  0
  -48.1879   -7.8801   19.2436 C   0  0  0  0  0  0  0  0  0  0  0  0
  -49.0591   -7.5657   14.6297 O   0  0  0  0  0  0  0  0  0  0  0  0
  -47.4038  -11.1670   14.9315 C   0  0  0  0  0  0  0  0  0  0  0  0
  -48.4285   -9.4893   17.2648 C   0  0  0  0  0  0  0  0  0  0  0  0
  -48.3986   -8.2744   17.9393 C   0  0  0  0  0  0  0  0  0  0  0  0
  -48.3816  -13.3047   14.7374 C   0  0  0  0  0  0  0  0  0  0  0  0
  -48.2556  -10.6198   17.8207 O   0  0  0  0  0  0  0  0  0  0  0  0
  -48.1060   -6.1862   20.5818 H   0  0  0  0  0  0  0  0  0  0  0  0
  -48.5823   -4.5106   18.8117 H   0  0  0  0  0  0  0  0  0  0  0  0
  -48.9444   -5.2483   16.4199 H   0  0  0  0  0  0  0  0  0  0  0  0
  -49.0141  -10.1414   13.9785 H   0  0  0  0  0  0  0  0  0  0  0  0
  -49.6801  -11.7416   16.4843 H   0  0  0  0  0  0  0  0  0  0  0  0
  -50.8303  -10.9867   15.3570 H   0  0  0  0  0  0  0  0  0  0  0  0
  -50.5310  -13.4035   14.8178 H   0  0  0  0  0  0  0  0  0  0  0  0
  -49.8915  -12.3985   13.4877 H   0  0  0  0  0  0  0  0  0  0  0  0
  -46.4153  -12.9314   15.0876 H   0  0  0  0  0  0  0  0  0  0  0  0
  -47.9030   -9.8264   19.9515 H   0  0  0  0  0  0  0  0  0  0  0  0
  -47.8218   -8.5460   21.1911 H   0  0  0  0  0  0  0  0  0  0  0  0
  1  2  2  0
  1 14  1  0
  2  3  1  0
  3  4  2  0
  4  5  1  0
  4 18  1  0
  5  9  1  0
  5 15  2  0
  6  9  1  0
  6 10  1  0
  6 16  1  0
  7 19  2  0
  8 16  2  0
  9 17  1  0
 10 11  1  0
 11 19  1  0
 12 16  1  0
 12 19  1  0
 13 14  1  0
 14 18  2  0
 17 18  1  0
 17 20  2  0
  1 21  1  0
  2 22  1  0
  3 23  1  0
  6 24  1  6
 10 25  1  0
 10 26  1  0
 11 27  1  0
 11 28  1  0
 12 29  1  0
 13 30  1  0
 13 31  1  0
M  END
>  <filename_input>  (23) 
7SZA_DUI_docked.sdf

>  <pdb_id>  (23) 
7SZA_DUI

>  <pose_rank>  (23) 
22

>  <num_atoms_heavy>  (23) 
20

>  <num_torsions>  (23) 
1

>  <pose>  (23) 
[-48.261435168975574, -6.5207095679295, 19.545492927434662, -5.181752267852778, -0.08885983719343694, -2.8089707587437864, -9.652223434991162]

>  <energy>  (23) 
-88.54875087199355

>  <inter_energy>  (23) 
-123.05800563007234

>  <intra_energy>  (23) 
23.31299826828522

>  <rmsd>  (23) 
12.5937

>  <sdf_rank>  (23) 
0

$$$$

     RDKit          3D

 31 33  0  0  0  0  0  0  0  0999 V2000
  -64.1531   -7.6003   21.9863 C   0  0  0  0  0  0  0  0  0  0  0  0
  -63.4186   -6.4257   22.1646 C   0  0  0  0  0  0  0  0  0  0  0  0
  -63.4119   -5.7629   23.4107 C   0  0  0  0  0  0  0  0  0  0  0  0
  -64.1584   -6.3291   24.4347 C   0  0  0  0  0  0  0  0  0  0  0  0
  -64.3753   -5.9741   25.7621 C   0  0  0  0  0  0  0  0  0  0  0  0
  -65.6278   -6.7812   27.8181 C   0  0  2  0  0  0  0  0  0  0  0  0
  -64.7348   -5.0767   31.3960 O   0  0  0  0  0  0  0  0  0  0  0  0
  -63.7794   -8.1654   28.3440 O   0  0  0  0  0  0  0  0  0  0  0  0
  -65.1718   -6.8090   26.4175 N   0  0  0  0  0  0  0  0  0  0  0  0
  -66.0905   -5.3765   28.1557 C   0  0  0  0  0  0  0  0  0  0  0  0
  -66.3379   -5.3371   29.6541 C   0  0  0  0  0  0  0  0  0  0  0  0
  -64.2074   -6.5399   29.7992 N   0  0  0  0  0  0  0  0  0  0  0  0
  -65.6076   -9.3153   22.8892 N   0  0  0  0  0  0  0  0  0  0  0  0
  -64.8972   -8.1460   23.0317 C   0  0  0  0  0  0  0  0  0  0  0  0
  -63.8677   -4.9270   26.3066 O   0  0  0  0  0  0  0  0  0  0  0  0
  -64.4718   -7.2116   28.6802 C   0  0  0  0  0  0  0  0  0  0  0  0
  -65.4536   -7.7329   25.4981 C   0  0  0  0  0  0  0  0  0  0  0  0
  -64.8815   -7.5045   24.2522 C   0  0  0  0  0  0  0  0  0  0  0  0
  -65.0294   -5.6447   30.3528 C   0  0  0  0  0  0  0  0  0  0  0  0
  -66.1896   -8.7324   25.7742 O   0  0  0  0  0  0  0  0  0  0  0  0
  -64.1444   -8.1020   21.0073 H   0  0  0  0  0  0  0  0  0  0  0  0
  -62.8395   -6.0130   21.3253 H   0  0  0  0  0  0  0  0  0  0  0  0
  -62.8391   -4.8364   23.5639 H   0  0  0  0  0  0  0  0  0  0  0  0
  -66.4748   -7.4622   27.9884 H   0  0  0  0  0  0  0  0  0  0  0  0
  -65.3139   -4.6471   27.8820 H   0  0  0  0  0  0  0  0  0  0  0  0
  -67.0050   -5.1208   27.6004 H   0  0  0  0  0  0  0  0  0  0  0  0
  -66.6921   -4.3380   29.9479 H   0  0  0  0  0  0  0  0  0  0  0  0
  -67.1036   -6.0754   29.9345 H   0  0  0  0  0  0  0  0  0  0  0  0
  -63.3093   -6.7229   30.2689 H   0  0  0  0  0  0  0  0  0  0  0  0
  -66.1468   -9.6903   23.6826 H   0  0  0  0  0  0  0  0  0  0  0  0
  -65.6004   -9.8159   21.9890 H   0  0  0  0  0  0  0  0  0  0  0  0
  1  2  2  0
  1 14  1  0
  2  3  1  0
  3  4  2  0
  4  5  1  0
  4 18  1  0
  5  9  1  0
  5 15  2  0
  6  9  1  0
  6 10  1  0
  6 16  1  0
  7 19  2  0
  8 16  2  0
  9 17  1  0
 10 11  1  0
 11 19  1  0
 12 16  1  0
 12 19  1  0
 13 14  1  0
 14 18  2  0
 17 18  1  0
 17 20  2  0
  1 21  1  0
  2 22  1  0
  3 23  1  0
  6 24  1  6
 10 25  1  0
 10 26  1  0
 11 27  1  0
 11 28  1  0
 12 29  1  0
 13 30  1  0
 13 31  1  0
M  END
>  <filename_input>  (24) 
7SZA_DUI_docked.sdf

>  <pdb_id>  (24) 
7SZA_DUI

>  <pose_rank>  (24) 
23

>  <num_atoms_heavy>  (24) 
20

>  <num_torsions>  (24) 
1

>  <pose>  (24) 
[-64.15307447962982, -7.600342377811155, 21.986254055474046, 1.014503031887182, 2.3317293875678597, -1.5495736478210456, -0.4466704614797645]

>  <energy>  (24) 
-141.12341389193637

>  <inter_energy>  (24) 
-135.98621092661026

>  <intra_energy>  (24) 
18.4748735397049

>  <rmsd>  (24) 
13.1023

>  <sdf_rank>  (24) 
0

$$$$

     RDKit          3D

 31 33  0  0  0  0  0  0  0  0999 V2000
  -65.2933   -8.0067   29.4651 C   0  0  0  0  0  0  0  0  0  0  0  0
  -65.4035   -6.6204   29.5959 C   0  0  0  0  0  0  0  0  0  0  0  0
  -65.4575   -5.7915   28.4547 C   0  0  0  0  0  0  0  0  0  0  0  0
  -65.3986   -6.4135   27.2153 C   0  0  0  0  0  0  0  0  0  0  0  0
  -65.4348   -5.9364   25.9091 C   0  0  0  0  0  0  0  0  0  0  0  0
  -65.3666   -6.7884   23.5181 C   0  0  2  0  0  0  0  0  0  0  0  0
  -64.6462   -9.0138   20.1965 O   0  0  0  0  0  0  0  0  0  0  0  0
  -63.0024   -6.6786   23.6042 O   0  0  0  0  0  0  0  0  0  0  0  0
  -65.3543   -6.8882   24.9879 N   0  0  0  0  0  0  0  0  0  0  0  0
  -66.4115   -7.7423   22.9704 C   0  0  0  0  0  0  0  0  0  0  0  0
  -66.2382   -7.7738   21.4615 C   0  0  0  0  0  0  0  0  0  0  0  0
  -63.8474   -7.9346   21.9759 N   0  0  0  0  0  0  0  0  0  0  0  0
  -65.1507   -9.9696   28.0513 N   0  0  0  0  0  0  0  0  0  0  0  0
  -65.2330   -8.6053   28.2071 C   0  0  0  0  0  0  0  0  0  0  0  0
  -65.5221   -4.6892   25.6134 O   0  0  0  0  0  0  0  0  0  0  0  0
  -63.9854   -7.1308   23.0285 C   0  0  0  0  0  0  0  0  0  0  0  0
  -65.2886   -8.0023   25.7178 C   0  0  0  0  0  0  0  0  0  0  0  0
  -65.2971   -7.7963   27.0924 C   0  0  0  0  0  0  0  0  0  0  0  0
  -64.8449   -8.2871   21.1609 C   0  0  0  0  0  0  0  0  0  0  0  0
  -65.2262   -9.1467   25.1670 O   0  0  0  0  0  0  0  0  0  0  0  0
  -65.2536   -8.6351   30.3671 H   0  0  0  0  0  0  0  0  0  0  0  0
  -65.4487   -6.1701   30.5985 H   0  0  0  0  0  0  0  0  0  0  0  0
  -65.5426   -4.6985   28.5439 H   0  0  0  0  0  0  0  0  0  0  0  0
  -65.6269   -5.7756   23.1768 H   0  0  0  0  0  0  0  0  0  0  0  0
  -66.2606   -8.7483   23.3890 H   0  0  0  0  0  0  0  0  0  0  0  0
  -67.4249   -7.4117   23.2419 H   0  0  0  0  0  0  0  0  0  0  0  0
  -66.9873   -8.4434   21.0136 H   0  0  0  0  0  0  0  0  0  0  0  0
  -66.3737   -6.7668   21.0401 H   0  0  0  0  0  0  0  0  0  0  0  0
  -62.9089   -8.3095   21.7771 H   0  0  0  0  0  0  0  0  0  0  0  0
  -65.1078  -10.3784   27.1068 H   0  0  0  0  0  0  0  0  0  0  0  0
  -65.1320  -10.5823   28.8790 H   0  0  0  0  0  0  0  0  0  0  0  0
  1  2  2  0
  1 14  1  0
  2  3  1  0
  3  4  2  0
  4  5  1  0
  4 18  1  0
  5  9  1  0
  5 15  2  0
  6  9  1  0
  6 10  1  0
  6 16  1  0
  7 19  2  0
  8 16  2  0
  9 17  1  0
 10 11  1  0
 11 19  1  0
 12 16  1  0
 12 19  1  0
 13 14  1  0
 14 18  2  0
 17 18  1  0
 17 20  2  0
  1 21  1  0
  2 22  1  0
  3 23  1  0
  6 24  1  1
 10 25  1  0
 10 26  1  0
 11 27  1  0
 11 28  1  0
 12 29  1  0
 13 30  1  0
 13 31  1  0
M  END
>  <filename_input>  (25) 
7SZA_DUI_docked.sdf

>  <pdb_id>  (25) 
7SZA_DUI

>  <pose_rank>  (25) 
24

>  <num_atoms_heavy>  (25) 
20

>  <num_torsions>  (25) 
1

>  <pose>  (25) 
[-65.2933156645706, -8.00669868991343, 29.465097395964975, -4.9450788510139265, 0.7779226315232488, -0.41784202239720925, 2.7792267785845493]

>  <energy>  (25) 
-133.47211098245958

>  <inter_energy>  (25) 
-121.3559188429274

>  <intra_energy>  (25) 
23.54735156075327

>  <rmsd>  (25) 
11.8752

>  <sdf_rank>  (25) 
0

$$$$

     RDKit          3D

 31 33  0  0  0  0  0  0  0  0999 V2000
  -55.4580  -11.4740   26.9450 C   0  0  0  0  0  0  0  0  0  0  0  0
  -55.5760  -10.8850   25.6840 C   0  0  0  0  0  0  0  0  0  0  0  0
  -55.8840  -11.6670   24.5500 C   0  0  0  0  0  0  0  0  0  0  0  0
  -56.0630  -13.0290   24.7480 C   0  0  0  0  0  0  0  0  0  0  0  0
  -56.3780  -14.0810   23.8940 C   0  0  0  0  0  0  0  0  0  0  0  0
  -56.7770  -16.5880   23.9510 C   0  0  2  0  0  0  0  0  0  0  0  0
  -57.3200  -18.4890   20.4020 O   0  0  0  0  0  0  0  0  0  0  0  0
  -58.9640  -15.7850   23.5250 O   0  0  0  0  0  0  0  0  0  0  0  0
  -56.4620  -15.2580   24.5010 N   0  0  0  0  0  0  0  0  0  0  0  0
  -55.5960  -17.0720   23.1310 C   0  0  0  0  0  0  0  0  0  0  0  0
  -56.0430  -18.3300   22.4060 C   0  0  0  0  0  0  0  0  0  0  0  0
  -58.0750  -17.0470   21.9250 N   0  0  0  0  0  0  0  0  0  0  0  0
  -55.5550  -13.4460   28.3500 N   0  0  0  0  0  0  0  0  0  0  0  0
  -55.6400  -12.8460   27.1150 C   0  0  0  0  0  0  0  0  0  0  0  0
  -56.5570  -13.9370   22.6300 O   0  0  0  0  0  0  0  0  0  0  0  0
  -58.0200  -16.4500   23.1140 C   0  0  0  0  0  0  0  0  0  0  0  0
  -56.2190  -14.9520   25.7760 C   0  0  0  0  0  0  0  0  0  0  0  0
  -55.9520  -13.6080   26.0090 C   0  0  0  0  0  0  0  0  0  0  0  0
  -57.2000  -17.9620   21.5000 C   0  0  0  0  0  0  0  0  0  0  0  0
  -56.2400  -15.8440   26.6820 O   0  0  0  0  0  0  0  0  0  0  0  0
  -55.2181  -10.8467   27.8162 H   0  0  0  0  0  0  0  0  0  0  0  0
  -55.4274   -9.8007   25.5735 H   0  0  0  0  0  0  0  0  0  0  0  0
  -55.9782  -11.2159   23.5512 H   0  0  0  0  0  0  0  0  0  0  0  0
  -56.9593  -17.3283   24.7439 H   0  0  0  0  0  0  0  0  0  0  0  0
  -55.3005  -16.3017   22.4034 H   0  0  0  0  0  0  0  0  0  0  0  0
  -54.7290  -17.2782   23.7759 H   0  0  0  0  0  0  0  0  0  0  0  0
  -55.2122  -18.7305   21.8065 H   0  0  0  0  0  0  0  0  0  0  0  0
  -56.3535  -19.0981   23.1295 H   0  0  0  0  0  0  0  0  0  0  0  0
  -58.8435  -16.7857   21.2909 H   0  0  0  0  0  0  0  0  0  0  0  0
  -55.6950  -14.4625   28.4394 H   0  0  0  0  0  0  0  0  0  0  0  0
  -55.3513  -12.8787   29.1852 H   0  0  0  0  0  0  0  0  0  0  0  0
  1  2  2  0
  1 14  1  0
  2  3  1  0
  3  4  2  0
  4  5  1  0
  4 18  1  0
  5  9  1  0
  5 15  2  0
  6  9  1  0
  6 10  1  0
  6 16  1  0
  7 19  2  0
  8 16  2  0
  9 17  1  0
 10 11  1  0
 11 19  1  0
 12 16  1  0
 12 19  1  0
 13 14  1  0
 14 18  2  0
 17 18  1  0
 17 20  2  0
  1 21  1  0
  2 22  1  0
  3 23  1  0
  6 24  1  1
 10 25  1  0
 10 26  1  0
 11 27  1  0
 11 28  1  0
 12 29  1  0
 13 30  1  0
 13 31  1  0
M  END
>  <filename_input>  (26) 
7SZA_DUI_docked.sdf

>  <pdb_id>  (26) 
7SZA_DUI

>  <pose_rank>  (26) 
25

>  <num_atoms_heavy>  (26) 
20

>  <num_torsions>  (26) 
1

>  <pose>  (26) 
[-55.458, -11.474, 26.945, 1e-06, 1e-06, 1e-06, 0.0]

>  <energy>  (26) 
-563.7386357470301

>  <inter_energy>  (26) 
-597.1105362339658

>  <intra_energy>  (26) 
23.77995351997173

>  <rmsd>  (26) 
0.0

>  <sdf_rank>  (26) 
0

$$$$
