
     RDKit          3D

 49 48  0  0  0  0  0  0  0  0999 V2000
   35.7430  -30.6062    0.4183 C   0  0  0  0  0  0  0  0  0  0  0  0
   36.1362  -29.4315   -0.2305 O   0  0  0  0  0  0  0  0  0  0  0  0
   34.4934  -31.1685   -0.2563 C   0  0  0  0  0  0  0  0  0  0  0  0
   33.6859  -31.9336    0.4439 C   0  0  0  0  0  0  0  0  0  0  0  0
   34.0524  -32.2293    1.8831 C   0  0  0  0  0  0  0  0  0  0  0  0
   32.3978  -32.5544   -0.1005 C   0  0  0  0  0  0  0  0  0  0  0  0
   31.8893  -31.9013   -1.3783 C   0  0  0  0  0  0  0  0  0  0  0  0
   30.5101  -32.4894   -1.6968 C   0  0  0  0  0  0  0  0  0  0  0  0
   30.0874  -32.6072   -2.9422 C   0  0  0  0  0  0  0  0  0  0  0  0
   30.9603  -32.1412   -4.1062 C   0  0  0  0  0  0  0  0  0  0  0  0
   28.6955  -33.1735   -3.2485 C   0  0  0  0  0  0  0  0  0  0  0  0
   28.7039  -34.4806   -4.0393 C   0  0  0  0  0  0  0  0  0  0  0  0
   27.2634  -34.7406   -4.4861 C   0  0  0  0  0  0  0  0  0  0  0  0
   26.7631  -35.9520   -4.5892 C   0  0  0  0  0  0  0  0  0  0  0  0
   27.6055  -37.1792   -4.2455 C   0  0  0  0  0  0  0  0  0  0  0  0
   25.3183  -36.1255   -5.0560 C   0  0  0  0  0  0  0  0  0  0  0  0
   37.7315  -29.2340   -0.5930 P   0  0  2  0  0  0  0  0  0  0  0  0
   38.3990  -30.5673   -0.8131 O   0  0  0  0  0  0  0  0  0  0  0  0
   38.4012  -28.4579    0.5182 O   0  0  0  0  0  0  0  0  0  0  0  0
   37.8507  -28.4012   -2.0065 O   0  0  0  0  0  0  0  0  0  0  0  0
   37.6452  -26.7826   -2.1873 P   0  0  2  0  0  0  0  0  0  0  0  0
   38.8412  -26.0575   -1.6208 O   0  0  0  0  0  0  0  0  0  0  0  0
   36.3777  -26.3283   -1.5035 O   0  0  0  0  0  0  0  0  0  0  0  0
   37.5492  -26.5244   -3.6795 O   0  0  0  0  0  0  0  0  0  0  0  0
   36.5550  -31.3460    0.3606 H   0  0  0  0  0  0  0  0  0  0  0  0
   35.5216  -30.3853    1.4730 H   0  0  0  0  0  0  0  0  0  0  0  0
   34.2732  -30.9373   -1.3090 H   0  0  0  0  0  0  0  0  0  0  0  0
   33.3740  -31.6819    2.5541 H   0  0  0  0  0  0  0  0  0  0  0  0
   33.9607  -33.3093    2.0704 H   0  0  0  0  0  0  0  0  0  0  0  0
   35.0887  -31.9114    2.0704 H   0  0  0  0  0  0  0  0  0  0  0  0
   32.5866  -33.6182   -0.3069 H   0  0  0  0  0  0  0  0  0  0  0  0
   31.6226  -32.4033    0.6652 H   0  0  0  0  0  0  0  0  0  0  0  0
   31.8068  -30.8139   -1.2340 H   0  0  0  0  0  0  0  0  0  0  0  0
   32.5861  -32.0926   -2.2076 H   0  0  0  0  0  0  0  0  0  0  0  0
   29.8604  -32.8193   -0.8728 H   0  0  0  0  0  0  0  0  0  0  0  0
   31.8668  -31.6573   -3.7138 H   0  0  0  0  0  0  0  0  0  0  0  0
   31.2442  -33.0078   -4.7214 H   0  0  0  0  0  0  0  0  0  0  0  0
   30.3983  -31.4231   -4.7214 H   0  0  0  0  0  0  0  0  0  0  0  0
   28.1797  -33.3529   -2.2936 H   0  0  0  0  0  0  0  0  0  0  0  0
   28.1865  -32.4295   -3.8788 H   0  0  0  0  0  0  0  0  0  0  0  0
   29.3608  -34.3875   -4.9167 H   0  0  0  0  0  0  0  0  0  0  0  0
   29.0804  -35.3105   -3.4233 H   0  0  0  0  0  0  0  0  0  0  0  0
   26.6220  -33.8810   -4.7302 H   0  0  0  0  0  0  0  0  0  0  0  0
   27.6756  -37.2813   -3.1525 H   0  0  0  0  0  0  0  0  0  0  0  0
   27.1333  -38.0782   -4.6683 H   0  0  0  0  0  0  0  0  0  0  0  0
   28.6142  -37.0616   -4.6683 H   0  0  0  0  0  0  0  0  0  0  0  0
   24.6571  -36.2049   -4.1805 H   0  0  0  0  0  0  0  0  0  0  0  0
   25.0218  -35.2565   -5.6618 H   0  0  0  0  0  0  0  0  0  0  0  0
   25.2360  -37.0400   -5.6618 H   0  0  0  0  0  0  0  0  0  0  0  0
  1  2  1  0
  1  3  1  0
  2 17  1  0
  3  4  2  3
  4  5  1  0
  4  6  1  0
  6  7  1  0
  7  8  1  0
  8  9  2  3
  9 10  1  0
  9 11  1  0
 11 12  1  0
 12 13  1  0
 13 14  2  3
 14 15  1  0
 14 16  1  0
 17 18  2  0
 17 19  1  1
 17 20  1  0
 20 21  1  0
 21 22  2  0
 21 23  1  1
 21 24  1  0
  1 25  1  0
  1 26  1  0
  3 27  1  0
  5 28  1  0
  5 29  1  0
  5 30  1  0
  6 31  1  0
  6 32  1  0
  7 33  1  0
  7 34  1  0
  8 35  1  0
 10 36  1  0
 10 37  1  0
 10 38  1  0
 11 39  1  0
 11 40  1  0
 12 41  1  0
 12 42  1  0
 13 43  1  0
 15 44  1  0
 15 45  1  0
 15 46  1  0
 16 47  1  0
 16 48  1  0
 16 49  1  0
M  CHG  3  19  -1  23  -1  24  -1
M  END
>  <filename_input>  (1) 
7T0D_FPP_docked.sdf

>  <pdb_id>  (1) 
7T0D_FPP

>  <pose_rank>  (1) 
0

>  <num_atoms_heavy>  (1) 
24

>  <num_torsions>  (1) 
11

>  <pose>  (1) 
[34.49342751094162, -31.168468968486682, -0.25630215511968873, 1.0185612265950441, 6.158630557509522, -0.39485180545484516, -4.401147097147881, 1.5961210549603022, 9.700357774092161, -0.3765768764758416, 0.15011907081999493, 5.780129491282642, 6.230823991381824, 0.7246769316992885, -6.916047055082498, -0.14362530533600618, 0.42719849412332095]

>  <energy>  (1) 
-740.0397301469095

>  <inter_energy>  (1) 
-740.3870698451093

>  <intra_energy>  (1) 
0.7612031552632623

>  <rmsd>  (1) 
0.911548

>  <sdf_rank>  (1) 
0

$$$$

     RDKit          3D

 49 48  0  0  0  0  0  0  0  0999 V2000
   36.1211  -30.1612   -0.0662 C   0  0  0  0  0  0  0  0  0  0  0  0
   36.2073  -28.7656   -0.0500 O   0  0  0  0  0  0  0  0  0  0  0  0
   34.7345  -30.5816   -0.5492 C   0  0  0  0  0  0  0  0  0  0  0  0
   34.0448  -31.4364    0.1729 C   0  0  0  0  0  0  0  0  0  0  0  0
   34.6758  -31.9716    1.4411 C   0  0  0  0  0  0  0  0  0  0  0  0
   32.6435  -31.9351   -0.1856 C   0  0  0  0  0  0  0  0  0  0  0  0
   32.3405  -31.9071   -1.6773 C   0  0  0  0  0  0  0  0  0  0  0  0
   30.8986  -32.3864   -1.8790 C   0  0  0  0  0  0  0  0  0  0  0  0
   30.3492  -32.4169   -3.0794 C   0  0  0  0  0  0  0  0  0  0  0  0
   31.1352  -31.9556   -4.3054 C   0  0  0  0  0  0  0  0  0  0  0  0
   28.8974  -32.8742   -3.2667 C   0  0  0  0  0  0  0  0  0  0  0  0
   28.7430  -34.3358   -3.6840 C   0  0  0  0  0  0  0  0  0  0  0  0
   27.3848  -34.4601   -4.3782 C   0  0  0  0  0  0  0  0  0  0  0  0
   26.7835  -35.6161   -4.5528 C   0  0  0  0  0  0  0  0  0  0  0  0
   27.4150  -36.9118   -4.0469 C   0  0  0  0  0  0  0  0  0  0  0  0
   25.4338  -35.6546   -5.2687 C   0  0  0  0  0  0  0  0  0  0  0  0
   37.1620  -28.0274   -1.1721 P   0  0  2  0  0  0  0  0  0  0  0  0
   37.2425  -26.5447   -0.9135 O   0  0  0  0  0  0  0  0  0  0  0  0
   36.6212  -28.3184   -2.5536 O   0  0  0  0  0  0  0  0  0  0  0  0
   38.6903  -28.6197   -1.0343 O   0  0  0  0  0  0  0  0  0  0  0  0
   39.6369  -29.1317   -2.2740 P   0  0  2  0  0  0  0  0  0  0  0  0
   41.0891  -28.9600   -1.9019 O   0  0  0  0  0  0  0  0  0  0  0  0
   39.3194  -28.3658   -3.5362 O   0  0  0  0  0  0  0  0  0  0  0  0
   39.3293  -30.6045   -2.4712 O   0  0  0  0  0  0  0  0  0  0  0  0
   36.8846  -30.5676   -0.7459 H   0  0  0  0  0  0  0  0  0  0  0  0
   36.2885  -30.5501    0.9490 H   0  0  0  0  0  0  0  0  0  0  0  0
   34.3205  -30.1764   -1.4843 H   0  0  0  0  0  0  0  0  0  0  0  0
   34.1662  -31.5394    2.3149 H   0  0  0  0  0  0  0  0  0  0  0  0
   34.5789  -33.0671    1.4648 H   0  0  0  0  0  0  0  0  0  0  0  0
   35.7408  -31.6971    1.4648 H   0  0  0  0  0  0  0  0  0  0  0  0
   32.5439  -32.9719    0.1684 H   0  0  0  0  0  0  0  0  0  0  0  0
   31.9288  -31.2528    0.2979 H   0  0  0  0  0  0  0  0  0  0  0  0
   32.4498  -30.8819   -2.0608 H   0  0  0  0  0  0  0  0  0  0  0  0
   33.0390  -32.5605   -2.2206 H   0  0  0  0  0  0  0  0  0  0  0  0
   30.3106  -32.7109   -1.0078 H   0  0  0  0  0  0  0  0  0  0  0  0
   32.0417  -31.4236   -3.9809 H   0  0  0  0  0  0  0  0  0  0  0  0
   31.4195  -32.8301   -4.9090 H   0  0  0  0  0  0  0  0  0  0  0  0
   30.5104  -31.2809   -4.9090 H   0  0  0  0  0  0  0  0  0  0  0  0
   28.3663  -32.7308   -2.3142 H   0  0  0  0  0  0  0  0  0  0  0  0
   28.4818  -32.2691   -4.0859 H   0  0  0  0  0  0  0  0  0  0  0  0
   29.5491  -34.6182   -4.3772 H   0  0  0  0  0  0  0  0  0  0  0  0
   28.8008  -35.0022   -2.8108 H   0  0  0  0  0  0  0  0  0  0  0  0
   26.8927  -33.5472   -4.7451 H   0  0  0  0  0  0  0  0  0  0  0  0
   27.4161  -36.9140   -2.9469 H   0  0  0  0  0  0  0  0  0  0  0  0
   26.8345  -37.7706   -4.4148 H   0  0  0  0  0  0  0  0  0  0  0  0
   28.4492  -36.9836   -4.4148 H   0  0  0  0  0  0  0  0  0  0  0  0
   24.6244  -35.6777   -4.5242 H   0  0  0  0  0  0  0  0  0  0  0  0
   25.3272  -34.7591   -5.8986 H   0  0  0  0  0  0  0  0  0  0  0  0
   25.3784  -36.5547   -5.8986 H   0  0  0  0  0  0  0  0  0  0  0  0
  1  2  1  0
  1  3  1  0
  2 17  1  0
  3  4  2  3
  4  5  1  0
  4  6  1  0
  6  7  1  0
  7  8  1  0
  8  9  2  3
  9 10  1  0
  9 11  1  0
 11 12  1  0
 12 13  1  0
 13 14  2  3
 14 15  1  0
 14 16  1  0
 17 18  2  0
 17 19  1  6
 17 20  1  0
 20 21  1  0
 21 22  2  0
 21 23  1  6
 21 24  1  0
  1 25  1  0
  1 26  1  0
  3 27  1  0
  5 28  1  0
  5 29  1  0
  5 30  1  0
  6 31  1  0
  6 32  1  0
  7 33  1  0
  7 34  1  0
  8 35  1  0
 10 36  1  0
 10 37  1  0
 10 38  1  0
 11 39  1  0
 11 40  1  0
 12 41  1  0
 12 42  1  0
 13 43  1  0
 15 44  1  0
 15 45  1  0
 15 46  1  0
 16 47  1  0
 16 48  1  0
 16 49  1  0
M  CHG  3  19  -1  23  -1  24  -1
M  END
>  <filename_input>  (2) 
7T0D_FPP_docked.sdf

>  <pdb_id>  (2) 
7T0D_FPP

>  <pose_rank>  (2) 
1

>  <num_atoms_heavy>  (2) 
24

>  <num_torsions>  (2) 
11

>  <pose>  (2) 
[34.73445119352727, -30.581588653200317, -0.5492159553923381, 0.1577835203997177, 0.17725115997802907, -0.03556905474371201, 2.3427650983610517, 2.0327499747287967, -0.12993745339550503, -5.696581302351965, -4.7531687040431185, -24.86750787341508, -19.002803718748183, -6.137132475865506, -6.579591748227934, -6.210812041130845, 0.15172896623189389]

>  <energy>  (2) 
-750.8887803093058

>  <inter_energy>  (2) 
-751.8911312065239

>  <intra_energy>  (2) 
8.405685140006252

>  <rmsd>  (2) 
2.02643

>  <sdf_rank>  (2) 
0

$$$$

     RDKit          3D

 49 48  0  0  0  0  0  0  0  0999 V2000
   35.6439  -31.2539    0.2916 C   0  0  0  0  0  0  0  0  0  0  0  0
   36.6833  -31.4970   -0.6117 O   0  0  0  0  0  0  0  0  0  0  0  0
   34.3075  -31.5968   -0.3634 C   0  0  0  0  0  0  0  0  0  0  0  0
   33.4590  -32.3586    0.2905 C   0  0  0  0  0  0  0  0  0  0  0  0
   33.8652  -32.8695    1.6569 C   0  0  0  0  0  0  0  0  0  0  0  0
   32.0847  -32.7718   -0.2400 C   0  0  0  0  0  0  0  0  0  0  0  0
   31.6343  -31.9884   -1.4653 C   0  0  0  0  0  0  0  0  0  0  0  0
   30.1304  -32.2193   -1.6513 C   0  0  0  0  0  0  0  0  0  0  0  0
   29.6568  -32.8018   -2.7375 C   0  0  0  0  0  0  0  0  0  0  0  0
   30.5996  -33.2485   -3.8535 C   0  0  0  0  0  0  0  0  0  0  0  0
   28.1483  -33.0051   -2.9249 C   0  0  0  0  0  0  0  0  0  0  0  0
   27.7485  -33.5513   -4.2946 C   0  0  0  0  0  0  0  0  0  0  0  0
   27.8707  -35.0750   -4.2199 C   0  0  0  0  0  0  0  0  0  0  0  0
   26.9705  -35.8823   -4.7359 C   0  0  0  0  0  0  0  0  0  0  0  0
   25.7463  -35.3284   -5.4625 C   0  0  0  0  0  0  0  0  0  0  0  0
   27.1610  -37.3931   -4.6059 C   0  0  0  0  0  0  0  0  0  0  0  0
   37.9267  -30.4180   -0.6831 P   0  0  2  0  0  0  0  0  0  0  0  0
   39.2533  -31.1210   -0.5504 O   0  0  0  0  0  0  0  0  0  0  0  0
   37.7434  -29.3763    0.3972 O   0  0  0  0  0  0  0  0  0  0  0  0
   37.9139  -29.6975   -2.1617 O   0  0  0  0  0  0  0  0  0  0  0  0
   39.0601  -28.6752   -2.7414 P   0  0  2  0  0  0  0  0  0  0  0  0
   38.5195  -27.9449   -3.9462 O   0  0  0  0  0  0  0  0  0  0  0  0
   40.3155  -29.4335   -3.1009 O   0  0  0  0  0  0  0  0  0  0  0  0
   39.3544  -27.6837   -1.6310 O   0  0  0  0  0  0  0  0  0  0  0  0
   35.7836  -31.8771    1.1872 H   0  0  0  0  0  0  0  0  0  0  0  0
   35.6492  -30.1920    0.5784 H   0  0  0  0  0  0  0  0  0  0  0  0
   34.0595  -31.2134   -1.3641 H   0  0  0  0  0  0  0  0  0  0  0  0
   33.3811  -32.2607    2.4348 H   0  0  0  0  0  0  0  0  0  0  0  0
   33.5516  -33.9184    1.7643 H   0  0  0  0  0  0  0  0  0  0  0  0
   34.9577  -32.8006    1.7643 H   0  0  0  0  0  0  0  0  0  0  0  0
   32.1226  -33.8385   -0.5058 H   0  0  0  0  0  0  0  0  0  0  0  0
   31.3580  -32.5606    0.5584 H   0  0  0  0  0  0  0  0  0  0  0  0
   31.8313  -30.9166   -1.3158 H   0  0  0  0  0  0  0  0  0  0  0  0
   32.1848  -32.3247   -2.3563 H   0  0  0  0  0  0  0  0  0  0  0  0
   29.4330  -31.8938   -0.8655 H   0  0  0  0  0  0  0  0  0  0  0  0
   31.5106  -33.6800   -3.4130 H   0  0  0  0  0  0  0  0  0  0  0  0
   30.0991  -34.0052   -4.4754 H   0  0  0  0  0  0  0  0  0  0  0  0
   30.8681  -32.3819   -4.4754 H   0  0  0  0  0  0  0  0  0  0  0  0
   27.7989  -33.7118   -2.1577 H   0  0  0  0  0  0  0  0  0  0  0  0
   27.6851  -32.0113   -2.8367 H   0  0  0  0  0  0  0  0  0  0  0  0
   26.7119  -33.2661   -4.5274 H   0  0  0  0  0  0  0  0  0  0  0  0
   28.3957  -33.1431   -5.0848 H   0  0  0  0  0  0  0  0  0  0  0  0
   28.7453  -35.5114   -3.7153 H   0  0  0  0  0  0  0  0  0  0  0  0
   25.0030  -34.9920   -4.7247 H   0  0  0  0  0  0  0  0  0  0  0  0
   26.0474  -34.4788   -6.0930 H   0  0  0  0  0  0  0  0  0  0  0  0
   25.3069  -36.1154   -6.0930 H   0  0  0  0  0  0  0  0  0  0  0  0
   27.1957  -37.6680   -3.5413 H   0  0  0  0  0  0  0  0  0  0  0  0
   26.3212  -37.9117   -5.0913 H   0  0  0  0  0  0  0  0  0  0  0  0
   28.1034  -37.6869   -5.0913 H   0  0  0  0  0  0  0  0  0  0  0  0
  1  2  1  0
  1  3  1  0
  2 17  1  0
  3  4  2  3
  4  5  1  0
  4  6  1  0
  6  7  1  0
  7  8  1  0
  8  9  2  3
  9 10  1  0
  9 11  1  0
 11 12  1  0
 12 13  1  0
 13 14  2  3
 14 15  1  0
 14 16  1  0
 17 18  2  0
 17 19  1  1
 17 20  1  0
 20 21  1  0
 21 22  2  0
 21 23  1  6
 21 24  1  0
  1 25  1  0
  1 26  1  0
  3 27  1  0
  5 28  1  0
  5 29  1  0
  5 30  1  0
  6 31  1  0
  6 32  1  0
  7 33  1  0
  7 34  1  0
  8 35  1  0
 10 36  1  0
 10 37  1  0
 10 38  1  0
 11 39  1  0
 11 40  1  0
 12 41  1  0
 12 42  1  0
 13 43  1  0
 15 44  1  0
 15 45  1  0
 15 46  1  0
 16 47  1  0
 16 48  1  0
 16 49  1  0
M  CHG  3  19  -1  23  -1  24  -1
M  END
>  <filename_input>  (3) 
7T0D_FPP_docked.sdf

>  <pdb_id>  (3) 
7T0D_FPP

>  <pose_rank>  (3) 
2

>  <num_atoms_heavy>  (3) 
24

>  <num_torsions>  (3) 
11

>  <pose>  (3) 
[34.30746250259579, -31.596847591042597, -0.36338201364772826, 4.718813714176758, 1.2317094085072589, -4.212323213429541, 0.5844543922323239, 6.375050299819604, -1.133437138295245, 1.5338187012298934, 2.2757297925007434, -6.704234153550162, 0.08159373171120184, -5.009504947357856, -1.8502786940113292, -1.990867088930407, -0.9058825614601507]

>  <energy>  (3) 
-664.3156982466577

>  <inter_energy>  (3) 
-672.3229362127603

>  <intra_energy>  (3) 
10.97325393404722

>  <rmsd>  (3) 
1.34473

>  <sdf_rank>  (3) 
0

$$$$

     RDKit          3D

 49 48  0  0  0  0  0  0  0  0999 V2000
   30.3363  -31.8909   -1.9502 C   0  0  0  0  0  0  0  0  0  0  0  0
   29.8795  -33.1620   -2.3123 O   0  0  0  0  0  0  0  0  0  0  0  0
   31.8633  -31.8706   -1.9758 C   0  0  0  0  0  0  0  0  0  0  0  0
   32.5140  -31.7555   -0.8395 C   0  0  0  0  0  0  0  0  0  0  0  0
   31.7069  -31.6318    0.4357 C   0  0  0  0  0  0  0  0  0  0  0  0
   34.0389  -31.7315   -0.7173 C   0  0  0  0  0  0  0  0  0  0  0  0
   34.5542  -30.8541    0.4152 C   0  0  0  0  0  0  0  0  0  0  0  0
   36.0861  -30.8601    0.3624 C   0  0  0  0  0  0  0  0  0  0  0  0
   36.7635  -29.7781    0.0249 C   0  0  0  0  0  0  0  0  0  0  0  0
   36.0332  -28.4873   -0.3416 C   0  0  0  0  0  0  0  0  0  0  0  0
   38.2951  -29.8021   -0.0492 C   0  0  0  0  0  0  0  0  0  0  0  0
   38.8566  -30.1974   -1.4140 C   0  0  0  0  0  0  0  0  0  0  0  0
   39.3172  -28.9075   -2.0971 C   0  0  0  0  0  0  0  0  0  0  0  0
   40.5138  -28.7760   -2.6255 C   0  0  0  0  0  0  0  0  0  0  0  0
   41.5135  -29.9308   -2.5977 C   0  0  0  0  0  0  0  0  0  0  0  0
   40.8999  -27.4488   -3.2773 C   0  0  0  0  0  0  0  0  0  0  0  0
   29.0058  -33.3134   -3.7013 P   0  0  2  0  0  0  0  0  0  0  0  0
   29.8023  -34.0347   -4.7582 O   0  0  0  0  0  0  0  0  0  0  0  0
   28.5789  -31.9415   -4.1719 O   0  0  0  0  0  0  0  0  0  0  0  0
   27.6794  -34.2352   -3.3907 O   0  0  0  0  0  0  0  0  0  0  0  0
   27.0357  -35.3609   -4.3974 P   0  0  2  0  0  0  0  0  0  0  0  0
   27.6549  -36.7064   -4.1087 O   0  0  0  0  0  0  0  0  0  0  0  0
   27.2590  -34.9736   -5.8398 O   0  0  0  0  0  0  0  0  0  0  0  0
   25.5488  -35.4066   -4.0981 O   0  0  0  0  0  0  0  0  0  0  0  0
   29.9479  -31.1460   -2.6603 H   0  0  0  0  0  0  0  0  0  0  0  0
   29.9840  -31.6505   -0.9362 H   0  0  0  0  0  0  0  0  0  0  0  0
   32.4085  -31.9507   -2.9278 H   0  0  0  0  0  0  0  0  0  0  0  0
   32.3748  -31.7342    1.3037 H   0  0  0  0  0  0  0  0  0  0  0  0
   31.2158  -30.6480    0.4649 H   0  0  0  0  0  0  0  0  0  0  0  0
   30.9437  -32.4235    0.4649 H   0  0  0  0  0  0  0  0  0  0  0  0
   34.3887  -32.7600   -0.5450 H   0  0  0  0  0  0  0  0  0  0  0  0
   34.4272  -31.3042   -1.6537 H   0  0  0  0  0  0  0  0  0  0  0  0
   34.1808  -29.8270    0.2907 H   0  0  0  0  0  0  0  0  0  0  0  0
   34.2046  -31.2387    1.3847 H   0  0  0  0  0  0  0  0  0  0  0  0
   36.6312  -31.7828    0.6103 H   0  0  0  0  0  0  0  0  0  0  0  0
   35.7354  -27.9609    0.5772 H   0  0  0  0  0  0  0  0  0  0  0  0
   36.7009  -27.8435   -0.9330 H   0  0  0  0  0  0  0  0  0  0  0  0
   35.1375  -28.7281   -0.9330 H   0  0  0  0  0  0  0  0  0  0  0  0
   38.6669  -28.7967    0.1973 H   0  0  0  0  0  0  0  0  0  0  0  0
   38.6309  -30.5711    0.6621 H   0  0  0  0  0  0  0  0  0  0  0  0
   39.7073  -30.8833   -1.2886 H   0  0  0  0  0  0  0  0  0  0  0  0
   38.0952  -30.7121   -2.0184 H   0  0  0  0  0  0  0  0  0  0  0  0
   38.6203  -28.0580   -2.1478 H   0  0  0  0  0  0  0  0  0  0  0  0
   41.7411  -30.1937   -1.5541 H   0  0  0  0  0  0  0  0  0  0  0  0
   41.0806  -30.8029   -3.1095 H   0  0  0  0  0  0  0  0  0  0  0  0
   42.4386  -29.6272   -3.1095 H   0  0  0  0  0  0  0  0  0  0  0  0
   41.1162  -26.7057   -2.4957 H   0  0  0  0  0  0  0  0  0  0  0  0
   41.7932  -27.5937   -3.9027 H   0  0  0  0  0  0  0  0  0  0  0  0
   40.0684  -27.0918   -3.9027 H   0  0  0  0  0  0  0  0  0  0  0  0
  1  2  1  0
  1  3  1  0
  2 17  1  0
  3  4  2  3
  4  5  1  0
  4  6  1  0
  6  7  1  0
  7  8  1  0
  8  9  2  3
  9 10  1  0
  9 11  1  0
 11 12  1  0
 12 13  1  0
 13 14  2  3
 14 15  1  0
 14 16  1  0
 17 18  2  0
 17 19  1  6
 17 20  1  0
 20 21  1  0
 21 22  2  0
 21 23  1  6
 21 24  1  0
  1 25  1  0
  1 26  1  0
  3 27  1  0
  5 28  1  0
  5 29  1  0
  5 30  1  0
  6 31  1  0
  6 32  1  0
  7 33  1  0
  7 34  1  0
  8 35  1  0
 10 36  1  0
 10 37  1  0
 10 38  1  0
 11 39  1  0
 11 40  1  0
 12 41  1  0
 12 42  1  0
 13 43  1  0
 15 44  1  0
 15 45  1  0
 15 46  1  0
 16 47  1  0
 16 48  1  0
 16 49  1  0
M  CHG  3  19  -1  23  -1  24  -1
M  END
>  <filename_input>  (4) 
7T0D_FPP_docked.sdf

>  <pdb_id>  (4) 
7T0D_FPP

>  <pose_rank>  (4) 
3

>  <num_atoms_heavy>  (4) 
24

>  <num_torsions>  (4) 
11

>  <pose>  (4) 
[31.863267287412754, -31.870555303520277, -1.9758058219798138, 0.6438293128610934, 0.5939405093818249, -3.476845520154128, -3.645752065425982, 1.924105352744387, -1.4604525688541847, 2.0853007857364605, 0.45061619963894073, 2.363761608119972, -0.12631881366824976, -1.0099963188150847, 2.964788303504517, -1.6887961117599195, -1.0472572848023702]

>  <energy>  (4) 
-556.8806789363628

>  <inter_energy>  (4) 
-571.2765083553928

>  <intra_energy>  (4) 
7.02871168907873

>  <rmsd>  (4) 
10.722

>  <sdf_rank>  (4) 
0

$$$$

     RDKit          3D

 49 48  0  0  0  0  0  0  0  0999 V2000
   34.9471  -30.7862   -2.0242 C   0  0  0  0  0  0  0  0  0  0  0  0
   34.9285  -29.9475   -0.9055 O   0  0  0  0  0  0  0  0  0  0  0  0
   33.7018  -30.5345   -2.8719 C   0  0  0  0  0  0  0  0  0  0  0  0
   32.6468  -31.2970   -2.6890 C   0  0  0  0  0  0  0  0  0  0  0  0
   32.7334  -32.3988   -1.6539 C   0  0  0  0  0  0  0  0  0  0  0  0
   31.3327  -31.1506   -3.4589 C   0  0  0  0  0  0  0  0  0  0  0  0
   30.9011  -32.4143   -4.1901 C   0  0  0  0  0  0  0  0  0  0  0  0
   29.3757  -32.3813   -4.3372 C   0  0  0  0  0  0  0  0  0  0  0  0
   28.5894  -32.9503   -3.4419 C   0  0  0  0  0  0  0  0  0  0  0  0
   29.1833  -33.6768   -2.2364 C   0  0  0  0  0  0  0  0  0  0  0  0
   27.0654  -32.9333   -3.6120 C   0  0  0  0  0  0  0  0  0  0  0  0
   26.5470  -33.7963   -4.7612 C   0  0  0  0  0  0  0  0  0  0  0  0
   26.5533  -35.2453   -4.2686 C   0  0  0  0  0  0  0  0  0  0  0  0
   25.9955  -36.2244   -4.9457 C   0  0  0  0  0  0  0  0  0  0  0  0
   25.3172  -35.9608   -6.2888 C   0  0  0  0  0  0  0  0  0  0  0  0
   26.0341  -37.6422   -4.3763 C   0  0  0  0  0  0  0  0  0  0  0  0
   35.7895  -30.3986    0.4252 P   0  0  2  0  0  0  0  0  0  0  0  0
   35.3215  -29.6470    1.6450 O   0  0  0  0  0  0  0  0  0  0  0  0
   37.2612  -30.1693    0.1662 O   0  0  0  0  0  0  0  0  0  0  0  0
   35.5150  -31.9946    0.7134 O   0  0  0  0  0  0  0  0  0  0  0  0
   34.4697  -32.6038    1.8229 P   0  0  2  0  0  0  0  0  0  0  0  0
   33.1820  -31.8182    1.7851 O   0  0  0  0  0  0  0  0  0  0  0  0
   35.0766  -32.5597    3.2050 O   0  0  0  0  0  0  0  0  0  0  0  0
   34.2040  -34.0425    1.4201 O   0  0  0  0  0  0  0  0  0  0  0  0
   35.8461  -30.5784   -2.6231 H   0  0  0  0  0  0  0  0  0  0  0  0
   34.9597  -31.8357   -1.6948 H   0  0  0  0  0  0  0  0  0  0  0  0
   33.6880  -29.7299   -3.6218 H   0  0  0  0  0  0  0  0  0  0  0  0
   32.6988  -31.9589   -0.6463 H   0  0  0  0  0  0  0  0  0  0  0  0
   31.8867  -33.0894   -1.7818 H   0  0  0  0  0  0  0  0  0  0  0  0
   33.6775  -32.9486   -1.7818 H   0  0  0  0  0  0  0  0  0  0  0  0
   30.5419  -30.8765   -2.7451 H   0  0  0  0  0  0  0  0  0  0  0  0
   31.4965  -30.3788   -4.2254 H   0  0  0  0  0  0  0  0  0  0  0  0
   31.3709  -32.4489   -5.1842 H   0  0  0  0  0  0  0  0  0  0  0  0
   31.2105  -33.3061   -3.6254 H   0  0  0  0  0  0  0  0  0  0  0  0
   28.9278  -31.8744   -5.2047 H   0  0  0  0  0  0  0  0  0  0  0  0
   28.8078  -33.2175   -1.3100 H   0  0  0  0  0  0  0  0  0  0  0  0
   28.8894  -34.7364   -2.2656 H   0  0  0  0  0  0  0  0  0  0  0  0
   30.2801  -33.5995   -2.2656 H   0  0  0  0  0  0  0  0  0  0  0  0
   26.6113  -33.2959   -2.6780 H   0  0  0  0  0  0  0  0  0  0  0  0
   26.7884  -31.8957   -3.8500 H   0  0  0  0  0  0  0  0  0  0  0  0
   25.5245  -33.4930   -5.0304 H   0  0  0  0  0  0  0  0  0  0  0  0
   27.1785  -33.6820   -5.6546 H   0  0  0  0  0  0  0  0  0  0  0  0
   27.0434  -35.4764   -3.3113 H   0  0  0  0  0  0  0  0  0  0  0  0
   24.3045  -35.5672   -6.1172 H   0  0  0  0  0  0  0  0  0  0  0  0
   25.9047  -35.2256   -6.8582 H   0  0  0  0  0  0  0  0  0  0  0  0
   25.2540  -36.8999   -6.8582 H   0  0  0  0  0  0  0  0  0  0  0  0
   26.0329  -37.5961   -3.2773 H   0  0  0  0  0  0  0  0  0  0  0  0
   25.1508  -38.1999   -4.7209 H   0  0  0  0  0  0  0  0  0  0  0  0
   26.9465  -38.1510   -4.7209 H   0  0  0  0  0  0  0  0  0  0  0  0
  1  2  1  0
  1  3  1  0
  2 17  1  0
  3  4  2  3
  4  5  1  0
  4  6  1  0
  6  7  1  0
  7  8  1  0
  8  9  2  3
  9 10  1  0
  9 11  1  0
 11 12  1  0
 12 13  1  0
 13 14  2  3
 14 15  1  0
 14 16  1  0
 17 18  2  0
 17 19  1  6
 17 20  1  0
 20 21  1  0
 21 22  2  0
 21 23  1  1
 21 24  1  0
  1 25  1  0
  1 26  1  0
  3 27  1  0
  5 28  1  0
  5 29  1  0
  5 30  1  0
  6 31  1  0
  6 32  1  0
  7 33  1  0
  7 34  1  0
  8 35  1  0
 10 36  1  0
 10 37  1  0
 10 38  1  0
 11 39  1  0
 11 40  1  0
 12 41  1  0
 12 42  1  0
 13 43  1  0
 15 44  1  0
 15 45  1  0
 15 46  1  0
 16 47  1  0
 16 48  1  0
 16 49  1  0
M  CHG  3  19  -1  23  -1  24  -1
M  END
>  <filename_input>  (5) 
7T0D_FPP_docked.sdf

>  <pdb_id>  (5) 
7T0D_FPP

>  <pose_rank>  (5) 
4

>  <num_atoms_heavy>  (5) 
24

>  <num_torsions>  (5) 
11

>  <pose>  (5) 
[33.701775246617935, -30.534520286380708, -2.871907362042108, -5.001833373194063, 0.7791234999366979, 2.4883309484982052, 2.935822978286511, 0.3896910990506122, -6.19888815153635, 9.098789208485437, -0.3880226042012344, -10.615883102282831, 5.639506921668142, -4.571847104325341, -3.670944487328179, -2.1043201683996715, -0.32920441272978473]

>  <energy>  (5) 
-565.8300028478563

>  <inter_energy>  (5) 
-570.288395819726

>  <intra_energy>  (5) 
8.529784953957666

>  <rmsd>  (5) 
3.82882

>  <sdf_rank>  (5) 
0

$$$$

     RDKit          3D

 49 48  0  0  0  0  0  0  0  0999 V2000
   33.4960  -30.6227   -1.8022 C   0  0  0  0  0  0  0  0  0  0  0  0
   33.9330  -31.2643   -0.6392 O   0  0  0  0  0  0  0  0  0  0  0  0
   32.3125  -31.3864   -2.3929 C   0  0  0  0  0  0  0  0  0  0  0  0
   31.5895  -32.1453   -1.5998 C   0  0  0  0  0  0  0  0  0  0  0  0
   31.9845  -32.2328   -0.1406 C   0  0  0  0  0  0  0  0  0  0  0  0
   30.3737  -32.9557   -2.0539 C   0  0  0  0  0  0  0  0  0  0  0  0
   29.8006  -32.5121   -3.3927 C   0  0  0  0  0  0  0  0  0  0  0  0
   28.3768  -33.0679   -3.5084 C   0  0  0  0  0  0  0  0  0  0  0  0
   28.1584  -34.3565   -3.6966 C   0  0  0  0  0  0  0  0  0  0  0  0
   29.3271  -35.3322   -3.8225 C   0  0  0  0  0  0  0  0  0  0  0  0
   26.7306  -34.8985   -3.8363 C   0  0  0  0  0  0  0  0  0  0  0  0
   26.1810  -34.8743   -5.2616 C   0  0  0  0  0  0  0  0  0  0  0  0
   25.4478  -36.2000   -5.4791 C   0  0  0  0  0  0  0  0  0  0  0  0
   25.0338  -36.5926   -6.6636 C   0  0  0  0  0  0  0  0  0  0  0  0
   25.2845  -35.7372   -7.9041 C   0  0  0  0  0  0  0  0  0  0  0  0
   24.2967  -37.9251   -6.7926 C   0  0  0  0  0  0  0  0  0  0  0  0
   35.3689  -30.7968    0.0203 P   0  0  2  0  0  0  0  0  0  0  0  0
   36.1344  -31.9887    0.5350 O   0  0  0  0  0  0  0  0  0  0  0  0
   35.1073  -29.7920    1.1193 O   0  0  0  0  0  0  0  0  0  0  0  0
   36.2897  -30.1099   -1.1569 O   0  0  0  0  0  0  0  0  0  0  0  0
   37.4512  -28.9729   -0.9263 P   0  0  2  0  0  0  0  0  0  0  0  0
   38.2623  -28.8192   -2.1894 O   0  0  0  0  0  0  0  0  0  0  0  0
   38.3424  -29.3512    0.2326 O   0  0  0  0  0  0  0  0  0  0  0  0
   36.7282  -27.6743   -0.6206 O   0  0  0  0  0  0  0  0  0  0  0  0
   33.1851  -29.5958   -1.5594 H   0  0  0  0  0  0  0  0  0  0  0  0
   34.3160  -30.5947   -2.5349 H   0  0  0  0  0  0  0  0  0  0  0  0
   32.0696  -31.3027   -3.4625 H   0  0  0  0  0  0  0  0  0  0  0  0
   31.1044  -32.0379    0.4898 H   0  0  0  0  0  0  0  0  0  0  0  0
   32.3739  -33.2389    0.0742 H   0  0  0  0  0  0  0  0  0  0  0  0
   32.7622  -31.4851    0.0742 H   0  0  0  0  0  0  0  0  0  0  0  0
   30.6729  -34.0109   -2.1380 H   0  0  0  0  0  0  0  0  0  0  0  0
   29.5865  -32.7980   -1.3020 H   0  0  0  0  0  0  0  0  0  0  0  0
   29.7772  -31.4135   -3.4428 H   0  0  0  0  0  0  0  0  0  0  0  0
   30.4244  -32.8870   -4.2175 H   0  0  0  0  0  0  0  0  0  0  0  0
   27.5212  -32.3807   -3.4333 H   0  0  0  0  0  0  0  0  0  0  0  0
   29.6733  -35.6212   -2.8191 H   0  0  0  0  0  0  0  0  0  0  0  0
   28.9993  -36.2285   -4.3695 H   0  0  0  0  0  0  0  0  0  0  0  0
   30.1504  -34.8495   -4.3695 H   0  0  0  0  0  0  0  0  0  0  0  0
   26.7221  -35.9399   -3.4822 H   0  0  0  0  0  0  0  0  0  0  0  0
   26.0848  -34.2367   -3.2404 H   0  0  0  0  0  0  0  0  0  0  0  0
   25.4838  -34.0323   -5.3837 H   0  0  0  0  0  0  0  0  0  0  0  0
   26.9922  -34.7489   -5.9938 H   0  0  0  0  0  0  0  0  0  0  0  0
   25.2599  -36.8492   -4.6112 H   0  0  0  0  0  0  0  0  0  0  0  0
   25.5815  -34.7236   -7.5967 H   0  0  0  0  0  0  0  0  0  0  0  0
   26.0882  -36.1885   -8.5045 H   0  0  0  0  0  0  0  0  0  0  0  0
   24.3644  -35.6834   -8.5045 H   0  0  0  0  0  0  0  0  0  0  0  0
   24.0775  -38.3214   -5.7901 H   0  0  0  0  0  0  0  0  0  0  0  0
   23.3551  -37.7717   -7.3402 H   0  0  0  0  0  0  0  0  0  0  0  0
   24.9269  -38.6413   -7.3402 H   0  0  0  0  0  0  0  0  0  0  0  0
  1  2  1  0
  1  3  1  0
  2 17  1  0
  3  4  2  3
  4  5  1  0
  4  6  1  0
  6  7  1  0
  7  8  1  0
  8  9  2  3
  9 10  1  0
  9 11  1  0
 11 12  1  0
 12 13  1  0
 13 14  2  3
 14 15  1  0
 14 16  1  0
 17 18  2  0
 17 19  1  1
 17 20  1  0
 20 21  1  0
 21 22  2  0
 21 23  1  1
 21 24  1  0
  1 25  1  0
  1 26  1  0
  3 27  1  0
  5 28  1  0
  5 29  1  0
  5 30  1  0
  6 31  1  0
  6 32  1  0
  7 33  1  0
  7 34  1  0
  8 35  1  0
 10 36  1  0
 10 37  1  0
 10 38  1  0
 11 39  1  0
 11 40  1  0
 12 41  1  0
 12 42  1  0
 13 43  1  0
 15 44  1  0
 15 45  1  0
 15 46  1  0
 16 47  1  0
 16 48  1  0
 16 49  1  0
M  CHG  3  19  -1  23  -1  24  -1
M  END
>  <filename_input>  (6) 
7T0D_FPP_docked.sdf

>  <pdb_id>  (6) 
7T0D_FPP

>  <pose_rank>  (6) 
5

>  <num_atoms_heavy>  (6) 
24

>  <num_torsions>  (6) 
11

>  <pose>  (6) 
[32.3124936033564, -31.38635376669295, -2.392880271740183, 4.48160950596051, 0.8391396950158467, -4.083406287273503, -1.283213066415057, 6.884756346739621, 0.4540198829380725, 0.9330185463292447, 1.7959668580281503, -6.785448152810125, 0.127915662049088, -4.200212320945373, -3.3540783721373892, -1.0734690726160543, 0.025108204440929212]

>  <energy>  (6) 
-534.5298724059164

>  <inter_energy>  (6) 
-600.0460202621056

>  <intra_energy>  (6) 
73.5944481653242

>  <rmsd>  (6) 
2.81711

>  <sdf_rank>  (6) 
0

$$$$

     RDKit          3D

 49 48  0  0  0  0  0  0  0  0999 V2000
   36.0702  -29.8930    0.5592 C   0  0  0  0  0  0  0  0  0  0  0  0
   37.3453  -30.0789    0.0162 O   0  0  0  0  0  0  0  0  0  0  0  0
   35.0618  -30.7540   -0.1987 C   0  0  0  0  0  0  0  0  0  0  0  0
   34.4955  -31.7629    0.4252 C   0  0  0  0  0  0  0  0  0  0  0  0
   34.8908  -32.0253    1.8632 C   0  0  0  0  0  0  0  0  0  0  0  0
   33.4638  -32.6990   -0.2074 C   0  0  0  0  0  0  0  0  0  0  0  0
   32.0243  -32.2295   -0.0485 C   0  0  0  0  0  0  0  0  0  0  0  0
   31.1453  -33.0639   -0.9870 C   0  0  0  0  0  0  0  0  0  0  0  0
   29.9924  -32.6022   -1.4355 C   0  0  0  0  0  0  0  0  0  0  0  0
   29.4918  -31.2217   -1.0142 C   0  0  0  0  0  0  0  0  0  0  0  0
   29.1090  -33.4554   -2.3538 C   0  0  0  0  0  0  0  0  0  0  0  0
   29.2285  -33.1182   -3.8392 C   0  0  0  0  0  0  0  0  0  0  0  0
   30.7016  -32.8012   -4.1072 C   0  0  0  0  0  0  0  0  0  0  0  0
   31.1344  -31.5775   -4.3163 C   0  0  0  0  0  0  0  0  0  0  0  0
   30.1734  -30.3906   -4.2842 C   0  0  0  0  0  0  0  0  0  0  0  0
   32.6203  -31.3482   -4.5904 C   0  0  0  0  0  0  0  0  0  0  0  0
   37.8992  -28.9763   -1.0760 P   0  0  2  0  0  0  0  0  0  0  0  0
   37.3597  -27.6026   -0.7698 O   0  0  0  0  0  0  0  0  0  0  0  0
   37.5170  -29.4216   -2.4693 O   0  0  0  0  0  0  0  0  0  0  0  0
   39.5366  -28.8856   -0.9480 O   0  0  0  0  0  0  0  0  0  0  0  0
   40.5682  -28.4203   -2.1373 P   0  0  2  0  0  0  0  0  0  0  0  0
   40.5430  -29.4379   -3.2513 O   0  0  0  0  0  0  0  0  0  0  0  0
   41.9686  -28.2637   -1.5946 O   0  0  0  0  0  0  0  0  0  0  0  0
   40.0599  -27.0860   -2.6508 O   0  0  0  0  0  0  0  0  0  0  0  0
   36.0775  -30.1851    1.6197 H   0  0  0  0  0  0  0  0  0  0  0  0
   35.7860  -28.8339    0.4718 H   0  0  0  0  0  0  0  0  0  0  0  0
   34.8140  -30.5339   -1.2476 H   0  0  0  0  0  0  0  0  0  0  0  0
   34.1660  -31.5442    2.5364 H   0  0  0  0  0  0  0  0  0  0  0  0
   34.9001  -33.1095    2.0489 H   0  0  0  0  0  0  0  0  0  0  0  0
   35.8936  -31.6129    2.0489 H   0  0  0  0  0  0  0  0  0  0  0  0
   33.6843  -32.7816   -1.2819 H   0  0  0  0  0  0  0  0  0  0  0  0
   33.5445  -33.6630    0.3161 H   0  0  0  0  0  0  0  0  0  0  0  0
   31.6984  -32.3720    0.9925 H   0  0  0  0  0  0  0  0  0  0  0  0
   31.9418  -31.1614   -0.2981 H   0  0  0  0  0  0  0  0  0  0  0  0
   31.4812  -34.0658   -1.2926 H   0  0  0  0  0  0  0  0  0  0  0  0
   29.4691  -31.1592    0.0838 H   0  0  0  0  0  0  0  0  0  0  0  0
   30.1672  -30.4497   -1.4116 H   0  0  0  0  0  0  0  0  0  0  0  0
   28.4785  -31.0622   -1.4116 H   0  0  0  0  0  0  0  0  0  0  0  0
   29.3892  -34.5103   -2.2172 H   0  0  0  0  0  0  0  0  0  0  0  0
   28.0673  -33.2469   -2.0683 H   0  0  0  0  0  0  0  0  0  0  0  0
   28.9096  -33.9767   -4.4485 H   0  0  0  0  0  0  0  0  0  0  0  0
   28.5882  -32.2630   -4.1010 H   0  0  0  0  0  0  0  0  0  0  0  0
   31.4259  -33.6288   -4.1255 H   0  0  0  0  0  0  0  0  0  0  0  0
   29.9564  -30.1226   -3.2397 H   0  0  0  0  0  0  0  0  0  0  0  0
   30.6339  -29.5320   -4.7950 H   0  0  0  0  0  0  0  0  0  0  0  0
   29.2378  -30.6624   -4.7950 H   0  0  0  0  0  0  0  0  0  0  0  0
   33.1607  -31.2649   -3.6359 H   0  0  0  0  0  0  0  0  0  0  0  0
   33.0219  -32.1951   -5.1663 H   0  0  0  0  0  0  0  0  0  0  0  0
   32.7479  -30.4198   -5.1663 H   0  0  0  0  0  0  0  0  0  0  0  0
  1  2  1  0
  1  3  1  0
  2 17  1  0
  3  4  2  3
  4  5  1  0
  4  6  1  0
  6  7  1  0
  7  8  1  0
  8  9  2  3
  9 10  1  0
  9 11  1  0
 11 12  1  0
 12 13  1  0
 13 14  2  3
 14 15  1  0
 14 16  1  0
 17 18  2  0
 17 19  1  6
 17 20  1  0
 20 21  1  0
 21 22  2  0
 21 23  1  1
 21 24  1  0
  1 25  1  0
  1 26  1  0
  3 27  1  0
  5 28  1  0
  5 29  1  0
  5 30  1  0
  6 31  1  0
  6 32  1  0
  7 33  1  0
  7 34  1  0
  8 35  1  0
 10 36  1  0
 10 37  1  0
 10 38  1  0
 11 39  1  0
 11 40  1  0
 12 41  1  0
 12 42  1  0
 13 43  1  0
 15 44  1  0
 15 45  1  0
 15 46  1  0
 16 47  1  0
 16 48  1  0
 16 49  1  0
M  CHG  3  19  -1  23  -1  24  -1
M  END
>  <filename_input>  (7) 
7T0D_FPP_docked.sdf

>  <pdb_id>  (7) 
7T0D_FPP

>  <pose_rank>  (7) 
6

>  <num_atoms_heavy>  (7) 
24

>  <num_torsions>  (7) 
11

>  <pose>  (7) 
[35.06183564145977, -30.754039720438545, -0.1987028681363943, -1.065201021661794, 1.2742397831683776, -5.73629272271251, 0.2630258153488444, -0.635888994348959, -2.807993793331539, 0.9673642897686596, -2.2924674969045182, -1.7593362975640785, -0.41021504075495446, 0.6252905668147045, -0.3308112817318145, -2.81328209825861, 1.1199242918509684]

>  <energy>  (7) 
-536.3645132359115

>  <inter_energy>  (7) 
-561.8065606939463

>  <intra_energy>  (7) 
29.58056498330792

>  <rmsd>  (7) 
3.39463

>  <sdf_rank>  (7) 
0

$$$$

     RDKit          3D

 49 48  0  0  0  0  0  0  0  0999 V2000
   30.4851  -33.3910   -2.6887 C   0  0  0  0  0  0  0  0  0  0  0  0
   29.3888  -32.5931   -3.0304 O   0  0  0  0  0  0  0  0  0  0  0  0
   30.8512  -33.1559   -1.2246 C   0  0  0  0  0  0  0  0  0  0  0  0
   31.7844  -32.2754   -0.9390 C   0  0  0  0  0  0  0  0  0  0  0  0
   32.4589  -31.5528   -2.0861 C   0  0  0  0  0  0  0  0  0  0  0  0
   32.2426  -31.9336    0.4802 C   0  0  0  0  0  0  0  0  0  0  0  0
   33.7161  -32.2162    0.7386 C   0  0  0  0  0  0  0  0  0  0  0  0
   34.5015  -30.9268    0.4737 C   0  0  0  0  0  0  0  0  0  0  0  0
   35.7820  -30.9591    0.1531 C   0  0  0  0  0  0  0  0  0  0  0  0
   36.5246  -32.2904    0.0540 C   0  0  0  0  0  0  0  0  0  0  0  0
   36.5645  -29.6619   -0.0851 C   0  0  0  0  0  0  0  0  0  0  0  0
   38.0467  -29.8645   -0.3952 C   0  0  0  0  0  0  0  0  0  0  0  0
   38.2974  -29.2687   -1.7824 C   0  0  0  0  0  0  0  0  0  0  0  0
   39.5067  -29.0683   -2.2575 C   0  0  0  0  0  0  0  0  0  0  0  0
   40.7415  -29.4432   -1.4400 C   0  0  0  0  0  0  0  0  0  0  0  0
   39.6702  -28.4557   -3.6480 C   0  0  0  0  0  0  0  0  0  0  0  0
   27.9386  -33.3285   -3.2979 P   0  0  2  0  0  0  0  0  0  0  0  0
   27.3002  -32.8089   -4.5605 O   0  0  0  0  0  0  0  0  0  0  0  0
   27.0439  -33.1143   -2.0982 O   0  0  0  0  0  0  0  0  0  0  0  0
   28.1978  -34.9374   -3.5211 O   0  0  0  0  0  0  0  0  0  0  0  0
   27.1798  -35.9775   -4.2808 P   0  0  2  0  0  0  0  0  0  0  0  0
   27.1543  -35.6676   -5.7574 O   0  0  0  0  0  0  0  0  0  0  0  0
   25.7908  -35.8837   -3.6959 O   0  0  0  0  0  0  0  0  0  0  0  0
   27.7418  -37.3694   -4.0592 O   0  0  0  0  0  0  0  0  0  0  0  0
   30.2275  -34.4502   -2.8364 H   0  0  0  0  0  0  0  0  0  0  0  0
   31.3418  -33.1288   -3.3269 H   0  0  0  0  0  0  0  0  0  0  0  0
   30.3432  -33.7133   -0.4238 H   0  0  0  0  0  0  0  0  0  0  0  0
   33.1584  -30.8035   -1.6869 H   0  0  0  0  0  0  0  0  0  0  0  0
   33.0108  -32.2779   -2.7024 H   0  0  0  0  0  0  0  0  0  0  0  0
   31.6977  -31.0521   -2.7024 H   0  0  0  0  0  0  0  0  0  0  0  0
   32.0597  -30.8630    0.6546 H   0  0  0  0  0  0  0  0  0  0  0  0
   31.6698  -32.5773    1.1640 H   0  0  0  0  0  0  0  0  0  0  0  0
   33.8579  -32.5314    1.7829 H   0  0  0  0  0  0  0  0  0  0  0  0
   34.0713  -33.0214    0.0787 H   0  0  0  0  0  0  0  0  0  0  0  0
   33.9889  -29.9567    0.5521 H   0  0  0  0  0  0  0  0  0  0  0  0
   36.7356  -32.6687    1.0652 H   0  0  0  0  0  0  0  0  0  0  0  0
   35.9021  -33.0181   -0.4872 H   0  0  0  0  0  0  0  0  0  0  0  0
   37.4709  -32.1431   -0.4872 H   0  0  0  0  0  0  0  0  0  0  0  0
   36.1048  -29.1341   -0.9337 H   0  0  0  0  0  0  0  0  0  0  0  0
   36.5162  -29.0903    0.8536 H   0  0  0  0  0  0  0  0  0  0  0  0
   38.6638  -29.3485    0.3550 H   0  0  0  0  0  0  0  0  0  0  0  0
   38.3109  -30.9320   -0.3721 H   0  0  0  0  0  0  0  0  0  0  0  0
   37.4326  -28.9978   -2.4059 H   0  0  0  0  0  0  0  0  0  0  0  0
   40.5067  -29.3719   -0.3677 H   0  0  0  0  0  0  0  0  0  0  0  0
   41.0425  -30.4732   -1.6818 H   0  0  0  0  0  0  0  0  0  0  0  0
   41.5643  -28.7544   -1.6818 H   0  0  0  0  0  0  0  0  0  0  0  0
   39.9527  -27.3970   -3.5514 H   0  0  0  0  0  0  0  0  0  0  0  0
   40.4555  -28.9961   -4.1968 H   0  0  0  0  0  0  0  0  0  0  0  0
   38.7200  -28.5330   -4.1968 H   0  0  0  0  0  0  0  0  0  0  0  0
  1  2  1  0
  1  3  1  0
  2 17  1  0
  3  4  2  3
  4  5  1  0
  4  6  1  0
  6  7  1  0
  7  8  1  0
  8  9  2  3
  9 10  1  0
  9 11  1  0
 11 12  1  0
 12 13  1  0
 13 14  2  3
 14 15  1  0
 14 16  1  0
 17 18  2  0
 17 19  1  1
 17 20  1  0
 20 21  1  0
 21 22  2  0
 21 23  1  1
 21 24  1  0
  1 25  1  0
  1 26  1  0
  3 27  1  0
  5 28  1  0
  5 29  1  0
  5 30  1  0
  6 31  1  0
  6 32  1  0
  7 33  1  0
  7 34  1  0
  8 35  1  0
 10 36  1  0
 10 37  1  0
 10 38  1  0
 11 39  1  0
 11 40  1  0
 12 41  1  0
 12 42  1  0
 13 43  1  0
 15 44  1  0
 15 45  1  0
 15 46  1  0
 16 47  1  0
 16 48  1  0
 16 49  1  0
M  CHG  3  19  -1  23  -1  24  -1
M  END
>  <filename_input>  (8) 
7T0D_FPP_docked.sdf

>  <pdb_id>  (8) 
7T0D_FPP

>  <pose_rank>  (8) 
7

>  <num_atoms_heavy>  (8) 
24

>  <num_torsions>  (8) 
11

>  <pose>  (8) 
[30.851201553209037, -33.155920538285216, -1.2246157305892078, -1.518692361285643, 1.726862119964226, 0.5296016920535759, 2.933932400473678, -4.252116795828895, 0.5827642041939316, 1.781913009852002, 0.08282375132696781, 8.167725664336103, -1.6924846727307736, 0.6135017125611198, -1.7773069468411111, -1.3862482247429955, -0.37240004608552163]

>  <energy>  (8) 
-586.0480749596067

>  <inter_energy>  (8) 
-587.8360866414936

>  <intra_energy>  (8) 
10.664754550334372

>  <rmsd>  (8) 
10.6391

>  <sdf_rank>  (8) 
0

$$$$

     RDKit          3D

 49 48  0  0  0  0  0  0  0  0999 V2000
   35.6470  -30.9722   -0.2094 C   0  0  0  0  0  0  0  0  0  0  0  0
   35.9801  -29.6581   -0.5521 O   0  0  0  0  0  0  0  0  0  0  0  0
   34.2523  -31.3001   -0.7387 C   0  0  0  0  0  0  0  0  0  0  0  0
   33.4270  -31.9768    0.0285 C   0  0  0  0  0  0  0  0  0  0  0  0
   33.9155  -32.4099    1.3948 C   0  0  0  0  0  0  0  0  0  0  0  0
   32.0013  -32.3645   -0.3691 C   0  0  0  0  0  0  0  0  0  0  0  0
   31.4336  -31.5391   -1.5155 C   0  0  0  0  0  0  0  0  0  0  0  0
   31.0038  -32.5021   -2.6279 C   0  0  0  0  0  0  0  0  0  0  0  0
   29.7848  -33.0086   -2.6615 C   0  0  0  0  0  0  0  0  0  0  0  0
   28.7686  -32.6598   -1.5756 C   0  0  0  0  0  0  0  0  0  0  0  0
   29.3732  -33.9910   -3.7648 C   0  0  0  0  0  0  0  0  0  0  0  0
   27.8851  -34.3367   -3.7816 C   0  0  0  0  0  0  0  0  0  0  0  0
   27.7782  -35.8312   -4.0935 C   0  0  0  0  0  0  0  0  0  0  0  0
   26.6263  -36.4633   -4.1378 C   0  0  0  0  0  0  0  0  0  0  0  0
   25.3147  -35.7195   -3.8927 C   0  0  0  0  0  0  0  0  0  0  0  0
   26.6080  -37.9607   -4.4431 C   0  0  0  0  0  0  0  0  0  0  0  0
   37.5036  -29.3550   -1.1020 P   0  0  2  0  0  0  0  0  0  0  0  0
   38.1699  -30.6270   -1.5601 O   0  0  0  0  0  0  0  0  0  0  0  0
   38.3001  -28.6765   -0.0107 O   0  0  0  0  0  0  0  0  0  0  0  0
   37.4027  -28.3693   -2.4150 O   0  0  0  0  0  0  0  0  0  0  0  0
   38.2977  -27.0171   -2.6713 P   0  0  2  0  0  0  0  0  0  0  0  0
   38.0619  -26.0377   -1.5478 O   0  0  0  0  0  0  0  0  0  0  0  0
   37.9476  -26.3924   -4.0008 O   0  0  0  0  0  0  0  0  0  0  0  0
   39.7503  -27.4556   -2.6720 O   0  0  0  0  0  0  0  0  0  0  0  0
   36.3789  -31.6633   -0.6527 H   0  0  0  0  0  0  0  0  0  0  0  0
   35.6574  -31.0788    0.8854 H   0  0  0  0  0  0  0  0  0  0  0  0
   33.9441  -30.9758   -1.7436 H   0  0  0  0  0  0  0  0  0  0  0  0
   33.3336  -31.8941    2.1728 H   0  0  0  0  0  0  0  0  0  0  0  0
   33.7882  -33.4972    1.5021 H   0  0  0  0  0  0  0  0  0  0  0  0
   34.9797  -32.1530    1.5021 H   0  0  0  0  0  0  0  0  0  0  0  0
   32.0016  -33.4222   -0.6711 H   0  0  0  0  0  0  0  0  0  0  0  0
   31.3632  -32.1750    0.5067 H   0  0  0  0  0  0  0  0  0  0  0  0
   30.5648  -30.9623   -1.1653 H   0  0  0  0  0  0  0  0  0  0  0  0
   32.1919  -30.8364   -1.8914 H   0  0  0  0  0  0  0  0  0  0  0  0
   31.7242  -32.7764   -3.4127 H   0  0  0  0  0  0  0  0  0  0  0  0
   29.2219  -32.8154   -0.5855 H   0  0  0  0  0  0  0  0  0  0  0  0
   28.4675  -31.6069   -1.6796 H   0  0  0  0  0  0  0  0  0  0  0  0
   27.8844  -33.3059   -1.6796 H   0  0  0  0  0  0  0  0  0  0  0  0
   29.6334  -33.5455   -4.7363 H   0  0  0  0  0  0  0  0  0  0  0  0
   29.9105  -34.9297   -3.5646 H   0  0  0  0  0  0  0  0  0  0  0  0
   27.4361  -34.1222   -2.8006 H   0  0  0  0  0  0  0  0  0  0  0  0
   27.3509  -33.7387   -4.5345 H   0  0  0  0  0  0  0  0  0  0  0  0
   28.7005  -36.3983   -4.2881 H   0  0  0  0  0  0  0  0  0  0  0  0
   25.1447  -35.6230   -2.8102 H   0  0  0  0  0  0  0  0  0  0  0  0
   25.3706  -34.7186   -4.3456 H   0  0  0  0  0  0  0  0  0  0  0  0
   24.4844  -36.2811   -4.3456 H   0  0  0  0  0  0  0  0  0  0  0  0
   26.6010  -38.5271   -3.5001 H   0  0  0  0  0  0  0  0  0  0  0  0
   25.7068  -38.2054   -5.0244 H   0  0  0  0  0  0  0  0  0  0  0  0
   27.5029  -38.2273   -5.0244 H   0  0  0  0  0  0  0  0  0  0  0  0
  1  2  1  0
  1  3  1  0
  2 17  1  0
  3  4  2  3
  4  5  1  0
  4  6  1  0
  6  7  1  0
  7  8  1  0
  8  9  2  3
  9 10  1  0
  9 11  1  0
 11 12  1  0
 12 13  1  0
 13 14  2  3
 14 15  1  0
 14 16  1  0
 17 18  2  0
 17 19  1  1
 17 20  1  0
 20 21  1  0
 21 22  2  0
 21 23  1  6
 21 24  1  0
  1 25  1  0
  1 26  1  0
  3 27  1  0
  5 28  1  0
  5 29  1  0
  5 30  1  0
  6 31  1  0
  6 32  1  0
  7 33  1  0
  7 34  1  0
  8 35  1  0
 10 36  1  0
 10 37  1  0
 10 38  1  0
 11 39  1  0
 11 40  1  0
 12 41  1  0
 12 42  1  0
 13 43  1  0
 15 44  1  0
 15 45  1  0
 15 46  1  0
 16 47  1  0
 16 48  1  0
 16 49  1  0
M  CHG  3  19  -1  23  -1  24  -1
M  END
>  <filename_input>  (9) 
7T0D_FPP_docked.sdf

>  <pdb_id>  (9) 
7T0D_FPP

>  <pose_rank>  (9) 
8

>  <num_atoms_heavy>  (9) 
24

>  <num_torsions>  (9) 
11

>  <pose>  (9) 
[34.252288284088294, -31.300093784180483, -0.7386661301183041, -1.440384362461045, -3.231721423871036, 4.964572562335151, 2.173671498223007, 1.5457754469724592, 3.2271561065665058, 0.5850431985972745, 4.114955335037697, -0.533084346776025, -1.1663536524200482, -1.3877779852680319, -1.5979791616121286, 0.3563300631384652, -0.20303124736291536]

>  <energy>  (9) 
-670.8833393421626

>  <inter_energy>  (9) 
-672.4557465920577

>  <intra_energy>  (9) 
7.3348861989357745

>  <rmsd>  (9) 
1.48732

>  <sdf_rank>  (9) 
0

$$$$

     RDKit          3D

 49 48  0  0  0  0  0  0  0  0999 V2000
   35.5345  -30.8654   -0.2124 C   0  0  0  0  0  0  0  0  0  0  0  0
   35.8711  -29.5246   -0.0019 O   0  0  0  0  0  0  0  0  0  0  0  0
   34.1824  -30.9478   -0.9179 C   0  0  0  0  0  0  0  0  0  0  0  0
   33.2024  -31.6007   -0.3339 C   0  0  0  0  0  0  0  0  0  0  0  0
   33.4772  -32.2522    1.0052 C   0  0  0  0  0  0  0  0  0  0  0  0
   31.7976  -31.7537   -0.9205 C   0  0  0  0  0  0  0  0  0  0  0  0
   31.3999  -33.1958   -1.2032 C   0  0  0  0  0  0  0  0  0  0  0  0
   29.9465  -33.2018   -1.6903 C   0  0  0  0  0  0  0  0  0  0  0  0
   29.6445  -32.9276   -2.9461 C   0  0  0  0  0  0  0  0  0  0  0  0
   30.7413  -32.5775   -3.9502 C   0  0  0  0  0  0  0  0  0  0  0  0
   28.1850  -32.9116   -3.4169 C   0  0  0  0  0  0  0  0  0  0  0  0
   27.4671  -34.2550   -3.2991 C   0  0  0  0  0  0  0  0  0  0  0  0
   26.7796  -34.5123   -4.6420 C   0  0  0  0  0  0  0  0  0  0  0  0
   26.2812  -35.6845   -4.9678 C   0  0  0  0  0  0  0  0  0  0  0  0
   26.3506  -36.8621   -3.9973 C   0  0  0  0  0  0  0  0  0  0  0  0
   25.6224  -35.8613   -6.3353 C   0  0  0  0  0  0  0  0  0  0  0  0
   37.0332  -28.8503   -0.9560 P   0  0  2  0  0  0  0  0  0  0  0  0
   37.1196  -27.3635   -0.7238 O   0  0  0  0  0  0  0  0  0  0  0  0
   36.7330  -29.1665   -2.4036 O   0  0  0  0  0  0  0  0  0  0  0  0
   38.4917  -29.4846   -0.5365 O   0  0  0  0  0  0  0  0  0  0  0  0
   39.8396  -29.4944   -1.4736 P   0  0  2  0  0  0  0  0  0  0  0  0
   41.0607  -29.6255   -0.5968 O   0  0  0  0  0  0  0  0  0  0  0  0
   39.9175  -28.2366   -2.3055 O   0  0  0  0  0  0  0  0  0  0  0  0
   39.7263  -30.7072   -2.3786 O   0  0  0  0  0  0  0  0  0  0  0  0
   36.3037  -31.3424   -0.8376 H   0  0  0  0  0  0  0  0  0  0  0  0
   35.4744  -31.3840    0.7558 H   0  0  0  0  0  0  0  0  0  0  0  0
   34.0314  -30.4695   -1.8969 H   0  0  0  0  0  0  0  0  0  0  0  0
   33.1873  -31.5649    1.8137 H   0  0  0  0  0  0  0  0  0  0  0  0
   32.8945  -33.1815    1.0873 H   0  0  0  0  0  0  0  0  0  0  0  0
   34.5495  -32.4833    1.0873 H   0  0  0  0  0  0  0  0  0  0  0  0
   31.0763  -31.3292   -0.2068 H   0  0  0  0  0  0  0  0  0  0  0  0
   31.7964  -31.2274   -1.8864 H   0  0  0  0  0  0  0  0  0  0  0  0
   32.0550  -33.6181   -1.9794 H   0  0  0  0  0  0  0  0  0  0  0  0
   31.4992  -33.8043   -0.2922 H   0  0  0  0  0  0  0  0  0  0  0  0
   29.1402  -33.4388   -0.9805 H   0  0  0  0  0  0  0  0  0  0  0  0
   31.6539  -32.2862   -3.4096 H   0  0  0  0  0  0  0  0  0  0  0  0
   30.9530  -33.4527   -4.5820 H   0  0  0  0  0  0  0  0  0  0  0  0
   30.4068  -31.7415   -4.5820 H   0  0  0  0  0  0  0  0  0  0  0  0
   27.6368  -32.1747   -2.8117 H   0  0  0  0  0  0  0  0  0  0  0  0
   28.2042  -32.6596   -4.4875 H   0  0  0  0  0  0  0  0  0  0  0  0
   28.1927  -35.0540   -3.0866 H   0  0  0  0  0  0  0  0  0  0  0  0
   26.7343  -34.2387   -2.4789 H   0  0  0  0  0  0  0  0  0  0  0  0
   26.6993  -33.6848   -5.3623 H   0  0  0  0  0  0  0  0  0  0  0  0
   26.3285  -36.4871   -2.9634 H   0  0  0  0  0  0  0  0  0  0  0  0
   25.4900  -37.5264   -4.1648 H   0  0  0  0  0  0  0  0  0  0  0  0
   27.2832  -37.4209   -4.1648 H   0  0  0  0  0  0  0  0  0  0  0  0
   24.5680  -36.1443   -6.2005 H   0  0  0  0  0  0  0  0  0  0  0  0
   25.6797  -34.9160   -6.8949 H   0  0  0  0  0  0  0  0  0  0  0  0
   26.1454  -36.6509   -6.8949 H   0  0  0  0  0  0  0  0  0  0  0  0
  1  2  1  0
  1  3  1  0
  2 17  1  0
  3  4  2  3
  4  5  1  0
  4  6  1  0
  6  7  1  0
  7  8  1  0
  8  9  2  3
  9 10  1  0
  9 11  1  0
 11 12  1  0
 12 13  1  0
 13 14  2  3
 14 15  1  0
 14 16  1  0
 17 18  2  0
 17 19  1  6
 17 20  1  0
 20 21  1  0
 21 22  2  0
 21 23  1  6
 21 24  1  0
  1 25  1  0
  1 26  1  0
  3 27  1  0
  5 28  1  0
  5 29  1  0
  5 30  1  0
  6 31  1  0
  6 32  1  0
  7 33  1  0
  7 34  1  0
  8 35  1  0
 10 36  1  0
 10 37  1  0
 10 38  1  0
 11 39  1  0
 11 40  1  0
 12 41  1  0
 12 42  1  0
 13 43  1  0
 15 44  1  0
 15 45  1  0
 15 46  1  0
 16 47  1  0
 16 48  1  0
 16 49  1  0
M  CHG  3  19  -1  23  -1  24  -1
M  END
>  <filename_input>  (10) 
7T0D_FPP_docked.sdf

>  <pdb_id>  (10) 
7T0D_FPP

>  <pose_rank>  (10) 
9

>  <num_atoms_heavy>  (10) 
24

>  <num_torsions>  (10) 
11

>  <pose>  (10) 
[34.18238087201786, -30.947797943952292, -0.9179031460341807, 0.18479199135204716, -0.002929065281988075, -0.26399306174569204, 2.469998761491394, 2.1021940028623205, -0.374809887209507, -5.228983233965176, -4.6752712174328455, -23.27368085795878, -19.102682787389025, -7.813929121161179, -5.971654698513298, -5.768803995351199, -0.3870279394479854]

>  <energy>  (10) 
-695.7052955760068

>  <inter_energy>  (10) 
-697.2526459648872

>  <intra_energy>  (10) 
8.198537213567139

>  <rmsd>  (10) 
2.0115

>  <sdf_rank>  (10) 
0

$$$$

     RDKit          3D

 49 48  0  0  0  0  0  0  0  0999 V2000
   32.1418  -32.7271   -0.2757 C   0  0  0  0  0  0  0  0  0  0  0  0
   30.8918  -32.1317   -0.4716 O   0  0  0  0  0  0  0  0  0  0  0  0
   33.2151  -31.6440   -0.1877 C   0  0  0  0  0  0  0  0  0  0  0  0
   34.1556  -31.7573    0.7235 C   0  0  0  0  0  0  0  0  0  0  0  0
   34.1107  -32.9538    1.6506 C   0  0  0  0  0  0  0  0  0  0  0  0
   35.2949  -30.7545    0.9168 C   0  0  0  0  0  0  0  0  0  0  0  0
   35.7871  -30.1217   -0.3774 C   0  0  0  0  0  0  0  0  0  0  0  0
   37.1016  -29.3913   -0.0800 C   0  0  0  0  0  0  0  0  0  0  0  0
   37.9221  -29.0361   -1.0517 C   0  0  0  0  0  0  0  0  0  0  0  0
   37.5898  -29.3614   -2.5068 C   0  0  0  0  0  0  0  0  0  0  0  0
   39.2466  -28.3283   -0.7411 C   0  0  0  0  0  0  0  0  0  0  0  0
   40.4473  -28.8612   -1.5213 C   0  0  0  0  0  0  0  0  0  0  0  0
   41.6690  -28.7205   -0.6102 C   0  0  0  0  0  0  0  0  0  0  0  0
   42.0841  -29.6932    0.1706 C   0  0  0  0  0  0  0  0  0  0  0  0
   41.3644  -31.0405    0.1936 C   0  0  0  0  0  0  0  0  0  0  0  0
   43.3056  -29.4661    1.0605 C   0  0  0  0  0  0  0  0  0  0  0  0
   29.9116  -32.7388   -1.6489 P   0  0  2  0  0  0  0  0  0  0  0  0
   28.5527  -33.0771   -1.0916 O   0  0  0  0  0  0  0  0  0  0  0  0
   30.5711  -33.9496   -2.2692 O   0  0  0  0  0  0  0  0  0  0  0  0
   29.6833  -31.5795   -2.7932 O   0  0  0  0  0  0  0  0  0  0  0  0
   30.8618  -30.8687   -3.6881 P   0  0  2  0  0  0  0  0  0  0  0  0
   32.1583  -30.8852   -2.9162 O   0  0  0  0  0  0  0  0  0  0  0  0
   30.4764  -29.4531   -4.0459 O   0  0  0  0  0  0  0  0  0  0  0  0
   31.0060  -31.7003   -4.9491 O   0  0  0  0  0  0  0  0  0  0  0  0
   32.1290  -33.3070    0.6589 H   0  0  0  0  0  0  0  0  0  0  0  0
   32.3651  -33.3959   -1.1201 H   0  0  0  0  0  0  0  0  0  0  0  0
   33.2014  -30.7848   -0.8744 H   0  0  0  0  0  0  0  0  0  0  0  0
   34.1236  -32.6091    2.6951 H   0  0  0  0  0  0  0  0  0  0  0  0
   33.1903  -33.5270    1.4650 H   0  0  0  0  0  0  0  0  0  0  0  0
   34.9854  -33.5945    1.4650 H   0  0  0  0  0  0  0  0  0  0  0  0
   34.9411  -29.9526    1.5815 H   0  0  0  0  0  0  0  0  0  0  0  0
   36.1424  -31.3125    1.3414 H   0  0  0  0  0  0  0  0  0  0  0  0
   35.9572  -30.9026   -1.1332 H   0  0  0  0  0  0  0  0  0  0  0  0
   35.0381  -29.4158   -0.7657 H   0  0  0  0  0  0  0  0  0  0  0  0
   37.3661  -29.1587    0.9621 H   0  0  0  0  0  0  0  0  0  0  0  0
   36.8039  -30.1304   -2.5404 H   0  0  0  0  0  0  0  0  0  0  0  0
   37.2348  -28.4521   -3.0140 H   0  0  0  0  0  0  0  0  0  0  0  0
   38.4912  -29.7359   -3.0140 H   0  0  0  0  0  0  0  0  0  0  0  0
   39.1294  -27.2605   -0.9778 H   0  0  0  0  0  0  0  0  0  0  0  0
   39.4579  -28.5121    0.3227 H   0  0  0  0  0  0  0  0  0  0  0  0
   40.2898  -29.9182   -1.7819 H   0  0  0  0  0  0  0  0  0  0  0  0
   40.5881  -28.3008   -2.4573 H   0  0  0  0  0  0  0  0  0  0  0  0
   42.2208  -27.7689   -0.6087 H   0  0  0  0  0  0  0  0  0  0  0  0
   41.1990  -31.3500    1.2361 H   0  0  0  0  0  0  0  0  0  0  0  0
   40.3957  -30.9475   -0.3193 H   0  0  0  0  0  0  0  0  0  0  0  0
   41.9801  -31.7939   -0.3193 H   0  0  0  0  0  0  0  0  0  0  0  0
   43.0049  -29.5220    2.1171 H   0  0  0  0  0  0  0  0  0  0  0  0
   44.0597  -30.2394    0.8525 H   0  0  0  0  0  0  0  0  0  0  0  0
   43.7314  -28.4734    0.8525 H   0  0  0  0  0  0  0  0  0  0  0  0
  1  2  1  0
  1  3  1  0
  2 17  1  0
  3  4  2  3
  4  5  1  0
  4  6  1  0
  6  7  1  0
  7  8  1  0
  8  9  2  3
  9 10  1  0
  9 11  1  0
 11 12  1  0
 12 13  1  0
 13 14  2  3
 14 15  1  0
 14 16  1  0
 17 18  2  0
 17 19  1  6
 17 20  1  0
 20 21  1  0
 21 22  2  0
 21 23  1  6
 21 24  1  0
  1 25  1  0
  1 26  1  0
  3 27  1  0
  5 28  1  0
  5 29  1  0
  5 30  1  0
  6 31  1  0
  6 32  1  0
  7 33  1  0
  7 34  1  0
  8 35  1  0
 10 36  1  0
 10 37  1  0
 10 38  1  0
 11 39  1  0
 11 40  1  0
 12 41  1  0
 12 42  1  0
 13 43  1  0
 15 44  1  0
 15 45  1  0
 15 46  1  0
 16 47  1  0
 16 48  1  0
 16 49  1  0
M  CHG  3  19  -1  23  -1  24  -1
M  END
>  <filename_input>  (11) 
7T0D_FPP_docked.sdf

>  <pdb_id>  (11) 
7T0D_FPP

>  <pose_rank>  (11) 
10

>  <num_atoms_heavy>  (11) 
24

>  <num_torsions>  (11) 
11

>  <pose>  (11) 
[33.215148805000446, -31.64400926980255, -0.18772711356388114, 0.34254196739960685, -1.719070020139409, 2.7631049726696557, -5.575065751226865, -6.30992231775799, -7.4470066387992295, -0.68247399724364, -1.6155207707219479, -0.8006766894383407, 0.026878746144846297, -6.390336104299169, -2.5140734520097032, 0.2367744306517299, 4.607173707044585]

>  <energy>  (11) 
-484.31080636331063

>  <inter_energy>  (11) 
-503.42795314112846

>  <intra_energy>  (11) 
20.267399179119938

>  <rmsd>  (11) 
9.96976

>  <sdf_rank>  (11) 
0

$$$$

     RDKit          3D

 49 48  0  0  0  0  0  0  0  0999 V2000
   38.7090  -28.7351   -0.7334 C   0  0  0  0  0  0  0  0  0  0  0  0
   39.7020  -29.6204   -1.1643 O   0  0  0  0  0  0  0  0  0  0  0  0
   37.3442  -29.2271   -1.2107 C   0  0  0  0  0  0  0  0  0  0  0  0
   36.5760  -29.8798   -0.3670 C   0  0  0  0  0  0  0  0  0  0  0  0
   37.0990  -30.1227    1.0331 C   0  0  0  0  0  0  0  0  0  0  0  0
   35.1851  -30.4192   -0.7067 C   0  0  0  0  0  0  0  0  0  0  0  0
   34.7356  -31.5716    0.1809 C   0  0  0  0  0  0  0  0  0  0  0  0
   33.3832  -32.0725   -0.3383 C   0  0  0  0  0  0  0  0  0  0  0  0
   32.2887  -31.9699    0.3933 C   0  0  0  0  0  0  0  0  0  0  0  0
   32.3444  -31.3610    1.7932 C   0  0  0  0  0  0  0  0  0  0  0  0
   30.9455  -32.4973   -0.1256 C   0  0  0  0  0  0  0  0  0  0  0  0
   30.7126  -32.2754   -1.6192 C   0  0  0  0  0  0  0  0  0  0  0  0
   29.5395  -33.1705   -2.0253 C   0  0  0  0  0  0  0  0  0  0  0  0
   29.2042  -33.3698   -3.2807 C   0  0  0  0  0  0  0  0  0  0  0  0
   29.9941  -32.7196   -4.4151 C   0  0  0  0  0  0  0  0  0  0  0  0
   28.0099  -34.2681   -3.6006 C   0  0  0  0  0  0  0  0  0  0  0  0
   40.8027  -29.0850   -2.2676 P   0  0  2  0  0  0  0  0  0  0  0  0
   41.9146  -28.3267   -1.5891 O   0  0  0  0  0  0  0  0  0  0  0  0
   40.0991  -28.2299   -3.2969 O   0  0  0  0  0  0  0  0  0  0  0  0
   41.4905  -30.3877   -2.9994 O   0  0  0  0  0  0  0  0  0  0  0  0
   42.4909  -31.4742   -2.2828 P   0  0  2  0  0  0  0  0  0  0  0  0
   41.7948  -32.0910   -1.0945 O   0  0  0  0  0  0  0  0  0  0  0  0
   43.7785  -30.8103   -1.8565 O   0  0  0  0  0  0  0  0  0  0  0  0
   42.7789  -32.5440   -3.3197 O   0  0  0  0  0  0  0  0  0  0  0  0
   38.7161  -28.6833    0.3654 H   0  0  0  0  0  0  0  0  0  0  0  0
   38.9040  -27.7357   -1.1496 H   0  0  0  0  0  0  0  0  0  0  0  0
   37.0101  -29.0386   -2.2416 H   0  0  0  0  0  0  0  0  0  0  0  0
   36.3559  -29.7775    1.7671 H   0  0  0  0  0  0  0  0  0  0  0  0
   37.2820  -31.1981    1.1747 H   0  0  0  0  0  0  0  0  0  0  0  0
   38.0389  -29.5691    1.1747 H   0  0  0  0  0  0  0  0  0  0  0  0
   34.4603  -29.5984   -0.6018 H   0  0  0  0  0  0  0  0  0  0  0  0
   35.2364  -30.8091   -1.7340 H   0  0  0  0  0  0  0  0  0  0  0  0
   35.4754  -32.3846    0.1394 H   0  0  0  0  0  0  0  0  0  0  0  0
   34.6428  -31.2355    1.2242 H   0  0  0  0  0  0  0  0  0  0  0  0
   33.3233  -32.5259   -1.3387 H   0  0  0  0  0  0  0  0  0  0  0  0
   32.2712  -32.1613    2.5444 H   0  0  0  0  0  0  0  0  0  0  0  0
   33.2955  -30.8234    1.9217 H   0  0  0  0  0  0  0  0  0  0  0  0
   31.5067  -30.6598    1.9217 H   0  0  0  0  0  0  0  0  0  0  0  0
   30.9012  -33.5785    0.0722 H   0  0  0  0  0  0  0  0  0  0  0  0
   30.1626  -31.9316    0.4008 H   0  0  0  0  0  0  0  0  0  0  0  0
   30.4672  -31.2204   -1.8109 H   0  0  0  0  0  0  0  0  0  0  0  0
   31.6145  -32.5220   -2.1987 H   0  0  0  0  0  0  0  0  0  0  0  0
   28.9545  -33.6661   -1.2365 H   0  0  0  0  0  0  0  0  0  0  0  0
   30.7783  -32.0741   -3.9928 H   0  0  0  0  0  0  0  0  0  0  0  0
   30.4572  -33.5017   -5.0347 H   0  0  0  0  0  0  0  0  0  0  0  0
   29.3156  -32.1149   -5.0347 H   0  0  0  0  0  0  0  0  0  0  0  0
   27.5499  -34.6141   -2.6632 H   0  0  0  0  0  0  0  0  0  0  0  0
   27.2702  -33.7006   -4.1844 H   0  0  0  0  0  0  0  0  0  0  0  0
   28.3499  -35.1362   -4.1844 H   0  0  0  0  0  0  0  0  0  0  0  0
  1  2  1  0
  1  3  1  0
  2 17  1  0
  3  4  2  3
  4  5  1  0
  4  6  1  0
  6  7  1  0
  7  8  1  0
  8  9  2  3
  9 10  1  0
  9 11  1  0
 11 12  1  0
 12 13  1  0
 13 14  2  3
 14 15  1  0
 14 16  1  0
 17 18  2  0
 17 19  1  6
 17 20  1  0
 20 21  1  0
 21 22  2  0
 21 23  1  1
 21 24  1  0
  1 25  1  0
  1 26  1  0
  3 27  1  0
  5 28  1  0
  5 29  1  0
  5 30  1  0
  6 31  1  0
  6 32  1  0
  7 33  1  0
  7 34  1  0
  8 35  1  0
 10 36  1  0
 10 37  1  0
 10 38  1  0
 11 39  1  0
 11 40  1  0
 12 41  1  0
 12 42  1  0
 13 43  1  0
 15 44  1  0
 15 45  1  0
 15 46  1  0
 16 47  1  0
 16 48  1  0
 16 49  1  0
M  CHG  3  19  -1  23  -1  24  -1
M  END
>  <filename_input>  (12) 
7T0D_FPP_docked.sdf

>  <pdb_id>  (12) 
7T0D_FPP

>  <pose_rank>  (12) 
11

>  <num_atoms_heavy>  (12) 
24

>  <num_torsions>  (12) 
11

>  <pose>  (12) 
[37.34415234379399, -29.227077468757415, -1.2106661543434953, 2.934519739371659, -4.210857022019738, 3.3712273833101363, 6.323180438774262, 31.05914177966764, 23.206609761004987, -15.483935965248085, -0.13514303989755105, 8.819879524010393, 12.4535699059101, 1.31816670945885, 0.7397197787483454, -0.5948713472445082, -6.267352948923881]

>  <energy>  (12) 
-507.1355287942154

>  <inter_energy>  (12) 
-495.06351741427136

>  <intra_energy>  (12) 
3.9251909768822943

>  <rmsd>  (12) 
4.57869

>  <sdf_rank>  (12) 
0

$$$$

     RDKit          3D

 49 48  0  0  0  0  0  0  0  0999 V2000
   29.0642  -34.0223   -3.9045 C   0  0  0  0  0  0  0  0  0  0  0  0
   27.8704  -33.4705   -4.3796 O   0  0  0  0  0  0  0  0  0  0  0  0
   29.9864  -32.9050   -3.4209 C   0  0  0  0  0  0  0  0  0  0  0  0
   30.3407  -32.8797   -2.1553 C   0  0  0  0  0  0  0  0  0  0  0  0
   29.7969  -33.9568   -1.2404 C   0  0  0  0  0  0  0  0  0  0  0  0
   31.2645  -31.8273   -1.5389 C   0  0  0  0  0  0  0  0  0  0  0  0
   32.5014  -31.5259   -2.3739 C   0  0  0  0  0  0  0  0  0  0  0  0
   33.6803  -31.3121   -1.4178 C   0  0  0  0  0  0  0  0  0  0  0  0
   33.4849  -31.0203   -0.1449 C   0  0  0  0  0  0  0  0  0  0  0  0
   32.0692  -30.8696    0.4090 C   0  0  0  0  0  0  0  0  0  0  0  0
   34.6716  -30.7836    0.7972 C   0  0  0  0  0  0  0  0  0  0  0  0
   35.3772  -32.0575    1.2589 C   0  0  0  0  0  0  0  0  0  0  0  0
   35.2107  -32.1336    2.7784 C   0  0  0  0  0  0  0  0  0  0  0  0
   34.9044  -33.2504    3.4008 C   0  0  0  0  0  0  0  0  0  0  0  0
   34.7136  -34.5525    2.6250 C   0  0  0  0  0  0  0  0  0  0  0  0
   34.7430  -33.2377    4.9205 C   0  0  0  0  0  0  0  0  0  0  0  0
   26.7845  -34.4688   -5.1141 P   0  0  2  0  0  0  0  0  0  0  0  0
   27.4509  -35.2815   -6.1944 O   0  0  0  0  0  0  0  0  0  0  0  0
   25.6455  -33.6430   -5.6675 O   0  0  0  0  0  0  0  0  0  0  0  0
   26.2118  -35.5344   -3.9996 O   0  0  0  0  0  0  0  0  0  0  0  0
   25.8335  -37.1069   -4.2807 P   0  0  2  0  0  0  0  0  0  0  0  0
   24.8454  -37.5797   -3.2428 O   0  0  0  0  0  0  0  0  0  0  0  0
   27.0762  -37.9646   -4.2583 O   0  0  0  0  0  0  0  0  0  0  0  0
   25.1948  -37.1572   -5.6562 O   0  0  0  0  0  0  0  0  0  0  0  0
   28.8458  -34.7043   -3.0694 H   0  0  0  0  0  0  0  0  0  0  0  0
   29.5578  -34.5795   -4.7144 H   0  0  0  0  0  0  0  0  0  0  0  0
   30.3476  -32.1354   -4.1190 H   0  0  0  0  0  0  0  0  0  0  0  0
   29.9476  -33.6582   -0.1925 H   0  0  0  0  0  0  0  0  0  0  0  0
   28.7222  -34.0925   -1.4320 H   0  0  0  0  0  0  0  0  0  0  0  0
   30.3257  -34.9021   -1.4320 H   0  0  0  0  0  0  0  0  0  0  0  0
   30.6939  -30.8949   -1.4164 H   0  0  0  0  0  0  0  0  0  0  0  0
   31.6183  -32.2355   -0.5807 H   0  0  0  0  0  0  0  0  0  0  0  0
   32.7137  -32.3715   -3.0446 H   0  0  0  0  0  0  0  0  0  0  0  0
   32.3385  -30.6262   -2.9855 H   0  0  0  0  0  0  0  0  0  0  0  0
   34.7080  -31.4035   -1.7992 H   0  0  0  0  0  0  0  0  0  0  0  0
   32.1034  -30.8732    1.5085 H   0  0  0  0  0  0  0  0  0  0  0  0
   31.6376  -29.9204    0.0587 H   0  0  0  0  0  0  0  0  0  0  0  0
   31.4474  -31.7066    0.0587 H   0  0  0  0  0  0  0  0  0  0  0  0
   35.4062  -30.1545    0.2732 H   0  0  0  0  0  0  0  0  0  0  0  0
   34.2638  -30.3065    1.7005 H   0  0  0  0  0  0  0  0  0  0  0  0
   34.9185  -32.9372    0.7838 H   0  0  0  0  0  0  0  0  0  0  0  0
   36.4412  -32.0408    0.9803 H   0  0  0  0  0  0  0  0  0  0  0  0
   35.3526  -31.2188    3.3725 H   0  0  0  0  0  0  0  0  0  0  0  0
   34.5915  -35.3861    3.3322 H   0  0  0  0  0  0  0  0  0  0  0  0
   33.8174  -34.4742    1.9921 H   0  0  0  0  0  0  0  0  0  0  0  0
   35.5947  -34.7347    1.9921 H   0  0  0  0  0  0  0  0  0  0  0  0
   35.7323  -33.3155    5.3950 H   0  0  0  0  0  0  0  0  0  0  0  0
   34.2606  -32.2989    5.2301 H   0  0  0  0  0  0  0  0  0  0  0  0
   34.1198  -34.0896    5.2301 H   0  0  0  0  0  0  0  0  0  0  0  0
  1  2  1  0
  1  3  1  0
  2 17  1  0
  3  4  2  3
  4  5  1  0
  4  6  1  0
  6  7  1  0
  7  8  1  0
  8  9  2  3
  9 10  1  0
  9 11  1  0
 11 12  1  0
 12 13  1  0
 13 14  2  3
 14 15  1  0
 14 16  1  0
 17 18  2  0
 17 19  1  6
 17 20  1  0
 20 21  1  0
 21 22  2  0
 21 23  1  6
 21 24  1  0
  1 25  1  0
  1 26  1  0
  3 27  1  0
  5 28  1  0
  5 29  1  0
  5 30  1  0
  6 31  1  0
  6 32  1  0
  7 33  1  0
  7 34  1  0
  8 35  1  0
 10 36  1  0
 10 37  1  0
 10 38  1  0
 11 39  1  0
 11 40  1  0
 12 41  1  0
 12 42  1  0
 13 43  1  0
 15 44  1  0
 15 45  1  0
 15 46  1  0
 16 47  1  0
 16 48  1  0
 16 49  1  0
M  CHG  3  19  -1  23  -1  24  -1
M  END
>  <filename_input>  (13) 
7T0D_FPP_docked.sdf

>  <pdb_id>  (13) 
7T0D_FPP

>  <pose_rank>  (13) 
12

>  <num_atoms_heavy>  (13) 
24

>  <num_torsions>  (13) 
11

>  <pose>  (13) 
[29.986437020524672, -32.90497505247377, -3.4209042156354355, -0.41168791057165927, -1.5670520455707844, 3.132587475041896, 0.3627257505899526, 0.6804585563701867, 2.016390188075932, -4.242480521295741, 2.4160294138348806, -0.9846475966736827, 0.47623100928400774, -3.293536880341384, 0.055818035117824905, 0.7609912318428449, -0.9180399615178481]

>  <energy>  (13) 
-275.1805323070105

>  <inter_energy>  (13) 
-344.64602548650225

>  <intra_energy>  (13) 
71.89612739780483

>  <rmsd>  (13) 
10.7342

>  <sdf_rank>  (13) 
0

$$$$

     RDKit          3D

 49 48  0  0  0  0  0  0  0  0999 V2000
   35.7893  -30.1367   -0.5040 C   0  0  0  0  0  0  0  0  0  0  0  0
   36.7730  -29.9635   -1.4827 O   0  0  0  0  0  0  0  0  0  0  0  0
   36.1250  -31.3601    0.3465 C   0  0  0  0  0  0  0  0  0  0  0  0
   35.1452  -32.1357    0.7542 C   0  0  0  0  0  0  0  0  0  0  0  0
   33.7298  -31.7597    0.3692 C   0  0  0  0  0  0  0  0  0  0  0  0
   35.3375  -33.3954    1.6011 C   0  0  0  0  0  0  0  0  0  0  0  0
   35.4688  -34.6741    0.7854 C   0  0  0  0  0  0  0  0  0  0  0  0
   36.9485  -34.8639    0.4330 C   0  0  0  0  0  0  0  0  0  0  0  0
   37.4246  -36.0475    0.0925 C   0  0  0  0  0  0  0  0  0  0  0  0
   36.5110  -37.2714    0.0572 C   0  0  0  0  0  0  0  0  0  0  0  0
   38.9118  -36.2311   -0.2336 C   0  0  0  0  0  0  0  0  0  0  0  0
   39.6178  -37.2930    0.6078 C   0  0  0  0  0  0  0  0  0  0  0  0
   40.2446  -36.5708    1.8027 C   0  0  0  0  0  0  0  0  0  0  0  0
   41.5165  -36.2403    1.8411 C   0  0  0  0  0  0  0  0  0  0  0  0
   42.4424  -36.5517    0.6666 C   0  0  0  0  0  0  0  0  0  0  0  0
   42.0667  -35.5324    3.0787 C   0  0  0  0  0  0  0  0  0  0  0  0
   37.7088  -28.6085   -1.4207 P   0  0  2  0  0  0  0  0  0  0  0  0
   36.9599  -27.4705   -0.7759 O   0  0  0  0  0  0  0  0  0  0  0  0
   38.1592  -28.2512   -2.8189 O   0  0  0  0  0  0  0  0  0  0  0  0
   39.0179  -28.9160   -0.4735 O   0  0  0  0  0  0  0  0  0  0  0  0
   40.1038  -30.1262   -0.7002 P   0  0  2  0  0  0  0  0  0  0  0  0
   40.6824  -30.0287   -2.0904 O   0  0  0  0  0  0  0  0  0  0  0  0
   39.4510  -31.4718   -0.4914 O   0  0  0  0  0  0  0  0  0  0  0  0
   41.2012  -29.9184    0.3270 O   0  0  0  0  0  0  0  0  0  0  0  0
   35.7497  -29.2441    0.1376 H   0  0  0  0  0  0  0  0  0  0  0  0
   34.8129  -30.2845   -0.9886 H   0  0  0  0  0  0  0  0  0  0  0  0
   37.1676  -31.5880    0.6130 H   0  0  0  0  0  0  0  0  0  0  0  0
   33.1322  -31.6009    1.2789 H   0  0  0  0  0  0  0  0  0  0  0  0
   33.7451  -30.8344   -0.2256 H   0  0  0  0  0  0  0  0  0  0  0  0
   33.2839  -32.5705   -0.2256 H   0  0  0  0  0  0  0  0  0  0  0  0
   36.2508  -33.2726    2.2017 H   0  0  0  0  0  0  0  0  0  0  0  0
   34.4352  -33.5038    2.2209 H   0  0  0  0  0  0  0  0  0  0  0  0
   35.1132  -35.5314    1.3759 H   0  0  0  0  0  0  0  0  0  0  0  0
   34.8644  -34.6055   -0.1312 H   0  0  0  0  0  0  0  0  0  0  0  0
   37.6262  -33.9980    0.4644 H   0  0  0  0  0  0  0  0  0  0  0  0
   36.2774  -37.5843    1.0856 H   0  0  0  0  0  0  0  0  0  0  0  0
   35.5791  -37.0183   -0.4696 H   0  0  0  0  0  0  0  0  0  0  0  0
   37.0186  -38.0928   -0.4696 H   0  0  0  0  0  0  0  0  0  0  0  0
   38.9987  -36.5176   -1.2921 H   0  0  0  0  0  0  0  0  0  0  0  0
   39.4028  -35.2736   -0.0057 H   0  0  0  0  0  0  0  0  0  0  0  0
   38.8924  -38.0425    0.9572 H   0  0  0  0  0  0  0  0  0  0  0  0
   40.3849  -37.8161    0.0180 H   0  0  0  0  0  0  0  0  0  0  0  0
   39.6065  -36.3185    2.6625 H   0  0  0  0  0  0  0  0  0  0  0  0
   43.4204  -36.8805    1.0478 H   0  0  0  0  0  0  0  0  0  0  0  0
   42.0005  -37.3506    0.0531 H   0  0  0  0  0  0  0  0  0  0  0  0
   42.5730  -35.6480    0.0531 H   0  0  0  0  0  0  0  0  0  0  0  0
   41.6833  -36.0257    3.9840 H   0  0  0  0  0  0  0  0  0  0  0  0
   43.1655  -35.5821    3.0714 H   0  0  0  0  0  0  0  0  0  0  0  0
   41.7472  -34.4798    3.0714 H   0  0  0  0  0  0  0  0  0  0  0  0
  1  2  1  0
  1  3  1  0
  2 17  1  0
  3  4  2  3
  4  5  1  0
  4  6  1  0
  6  7  1  0
  7  8  1  0
  8  9  2  3
  9 10  1  0
  9 11  1  0
 11 12  1  0
 12 13  1  0
 13 14  2  3
 14 15  1  0
 14 16  1  0
 17 18  2  0
 17 19  1  6
 17 20  1  0
 20 21  1  0
 21 22  2  0
 21 23  1  1
 21 24  1  0
  1 25  1  0
  1 26  1  0
  3 27  1  0
  5 28  1  0
  5 29  1  0
  5 30  1  0
  6 31  1  0
  6 32  1  0
  7 33  1  0
  7 34  1  0
  8 35  1  0
 10 36  1  0
 10 37  1  0
 10 38  1  0
 11 39  1  0
 11 40  1  0
 12 41  1  0
 12 42  1  0
 13 43  1  0
 15 44  1  0
 15 45  1  0
 15 46  1  0
 16 47  1  0
 16 48  1  0
 16 49  1  0
M  CHG  3  19  -1  23  -1  24  -1
M  END
>  <filename_input>  (14) 
7T0D_FPP_docked.sdf

>  <pdb_id>  (14) 
7T0D_FPP

>  <pose_rank>  (14) 
13

>  <num_atoms_heavy>  (14) 
24

>  <num_torsions>  (14) 
11

>  <pose>  (14) 
[36.12495260537648, -31.360101235025006, 0.3464823319879556, -1.572669017410541, -1.533008961818434, 1.0062822861115035, -4.181484690683891, -4.353430669457328, 2.4153378091839985, -0.7416168058249365, -0.16321764380525822, -1.818768116424025, 4.492748366324121, -0.1687585436754851, -2.7184288537131915, -5.110315652201137, 1.2438511774361742]

>  <energy>  (14) 
-386.4116618307007

>  <inter_energy>  (14) 
-395.0440132094696

>  <intra_energy>  (14) 
5.0975960221436365

>  <rmsd>  (14) 
8.49092

>  <sdf_rank>  (14) 
0

$$$$

     RDKit          3D

 49 48  0  0  0  0  0  0  0  0999 V2000
   39.4726  -28.9663   -1.2688 C   0  0  0  0  0  0  0  0  0  0  0  0
   38.3251  -28.6562   -0.5325 O   0  0  0  0  0  0  0  0  0  0  0  0
   40.3306  -29.9568   -0.4843 C   0  0  0  0  0  0  0  0  0  0  0  0
   41.5570  -30.1945   -0.8932 C   0  0  0  0  0  0  0  0  0  0  0  0
   42.0457  -29.4811   -2.1363 C   0  0  0  0  0  0  0  0  0  0  0  0
   42.5273  -31.1526   -0.1992 C   0  0  0  0  0  0  0  0  0  0  0  0
   41.8691  -32.0587    0.8322 C   0  0  0  0  0  0  0  0  0  0  0  0
   42.1077  -33.5126    0.4095 C   0  0  0  0  0  0  0  0  0  0  0  0
   41.1859  -34.1952   -0.2445 C   0  0  0  0  0  0  0  0  0  0  0  0
   39.8408  -33.5556   -0.5844 C   0  0  0  0  0  0  0  0  0  0  0  0
   41.4251  -35.6574   -0.6404 C   0  0  0  0  0  0  0  0  0  0  0  0
   40.2275  -36.5785   -0.4142 C   0  0  0  0  0  0  0  0  0  0  0  0
   39.9211  -36.5513    1.0850 C   0  0  0  0  0  0  0  0  0  0  0  0
   40.0975  -37.5974    1.8616 C   0  0  0  0  0  0  0  0  0  0  0  0
   40.6427  -38.9083    1.2978 C   0  0  0  0  0  0  0  0  0  0  0  0
   39.7538  -37.4906    3.3469 C   0  0  0  0  0  0  0  0  0  0  0  0
   36.9301  -28.3431   -1.3520 P   0  0  2  0  0  0  0  0  0  0  0  0
   37.2254  -27.9168   -2.7672 O   0  0  0  0  0  0  0  0  0  0  0  0
   36.1440  -27.2864   -0.6096 O   0  0  0  0  0  0  0  0  0  0  0  0
   36.0516  -29.7306   -1.4447 O   0  0  0  0  0  0  0  0  0  0  0  0
   35.6373  -30.6909   -0.1793 P   0  0  2  0  0  0  0  0  0  0  0  0
   34.1863  -31.0867   -0.3025 O   0  0  0  0  0  0  0  0  0  0  0  0
   35.8829  -29.9798    1.1300 O   0  0  0  0  0  0  0  0  0  0  0  0
   36.5145  -31.9257   -0.2701 O   0  0  0  0  0  0  0  0  0  0  0  0
   39.1811  -29.4150   -2.2299 H   0  0  0  0  0  0  0  0  0  0  0  0
   40.0493  -28.0476   -1.4521 H   0  0  0  0  0  0  0  0  0  0  0  0
   39.9295  -30.4620    0.4067 H   0  0  0  0  0  0  0  0  0  0  0  0
   42.6452  -28.6060   -1.8450 H   0  0  0  0  0  0  0  0  0  0  0  0
   42.6644  -30.1671   -2.7334 H   0  0  0  0  0  0  0  0  0  0  0  0
   41.1825  -29.1520   -2.7334 H   0  0  0  0  0  0  0  0  0  0  0  0
   42.9970  -31.7856   -0.9665 H   0  0  0  0  0  0  0  0  0  0  0  0
   43.2569  -30.5316    0.3412 H   0  0  0  0  0  0  0  0  0  0  0  0
   42.3134  -31.8805    1.8226 H   0  0  0  0  0  0  0  0  0  0  0  0
   40.7906  -31.8504    0.8896 H   0  0  0  0  0  0  0  0  0  0  0  0
   43.0646  -33.9963    0.6555 H   0  0  0  0  0  0  0  0  0  0  0  0
   39.3096  -33.3030    0.3451 H   0  0  0  0  0  0  0  0  0  0  0  0
   40.0078  -32.6406   -1.1716 H   0  0  0  0  0  0  0  0  0  0  0  0
   39.2365  -34.2628   -1.1716 H   0  0  0  0  0  0  0  0  0  0  0  0
   41.6837  -35.6861   -1.7092 H   0  0  0  0  0  0  0  0  0  0  0  0
   42.2327  -36.0290    0.0074 H   0  0  0  0  0  0  0  0  0  0  0  0
   39.3591  -36.2165   -0.9842 H   0  0  0  0  0  0  0  0  0  0  0  0
   40.4491  -37.6017   -0.7517 H   0  0  0  0  0  0  0  0  0  0  0  0
   39.5386  -35.6208    1.5299 H   0  0  0  0  0  0  0  0  0  0  0  0
   40.9205  -39.5763    2.1264 H   0  0  0  0  0  0  0  0  0  0  0  0
   39.8708  -39.3911    0.6806 H   0  0  0  0  0  0  0  0  0  0  0  0
   41.5293  -38.7014    0.6806 H   0  0  0  0  0  0  0  0  0  0  0  0
   40.6339  -37.7640    3.9474 H   0  0  0  0  0  0  0  0  0  0  0  0
   39.4565  -36.4578    3.5811 H   0  0  0  0  0  0  0  0  0  0  0  0
   38.9236  -38.1732    3.5811 H   0  0  0  0  0  0  0  0  0  0  0  0
  1  2  1  0
  1  3  1  0
  2 17  1  0
  3  4  2  3
  4  5  1  0
  4  6  1  0
  6  7  1  0
  7  8  1  0
  8  9  2  3
  9 10  1  0
  9 11  1  0
 11 12  1  0
 12 13  1  0
 13 14  2  3
 14 15  1  0
 14 16  1  0
 17 18  2  0
 17 19  1  1
 17 20  1  0
 20 21  1  0
 21 22  2  0
 21 23  1  1
 21 24  1  0
  1 25  1  0
  1 26  1  0
  3 27  1  0
  5 28  1  0
  5 29  1  0
  5 30  1  0
  6 31  1  0
  6 32  1  0
  7 33  1  0
  7 34  1  0
  8 35  1  0
 10 36  1  0
 10 37  1  0
 10 38  1  0
 11 39  1  0
 11 40  1  0
 12 41  1  0
 12 42  1  0
 13 43  1  0
 15 44  1  0
 15 45  1  0
 15 46  1  0
 16 47  1  0
 16 48  1  0
 16 49  1  0
M  CHG  3  19  -1  23  -1  24  -1
M  END
>  <filename_input>  (15) 
7T0D_FPP_docked.sdf

>  <pdb_id>  (15) 
7T0D_FPP

>  <pose_rank>  (15) 
14

>  <num_atoms_heavy>  (15) 
24

>  <num_torsions>  (15) 
11

>  <pose>  (15) 
[40.33061949916596, -29.956789944159688, -0.48427140065897545, 0.17722117193959763, -3.5132404313082444, -1.331886688725689, -4.634240324692863, 1.3764698607016068, 2.520718952683894, -0.8135458461492904, 1.2297386700320578, 0.02845868343231043, -1.2227161505852375, 1.620962828890613, -2.485645395169482, 1.7406141241041118, 1.0197293896357398]

>  <energy>  (15) 
-382.20490055356447

>  <inter_energy>  (15) 
-388.43864521283456

>  <intra_energy>  (15) 
7.65603988543391

>  <rmsd>  (15) 
9.55108

>  <sdf_rank>  (15) 
0

$$$$

     RDKit          3D

 49 48  0  0  0  0  0  0  0  0999 V2000
   32.8636  -32.2612   -0.3424 C   0  0  0  0  0  0  0  0  0  0  0  0
   31.9164  -32.8103   -1.2123 O   0  0  0  0  0  0  0  0  0  0  0  0
   32.6289  -32.7932    1.0699 C   0  0  0  0  0  0  0  0  0  0  0  0
   33.5505  -32.5889    1.9846 C   0  0  0  0  0  0  0  0  0  0  0  0
   34.8072  -31.8481    1.5786 C   0  0  0  0  0  0  0  0  0  0  0  0
   33.4425  -33.0565    3.4375 C   0  0  0  0  0  0  0  0  0  0  0  0
   32.4587  -34.1992    3.6472 C   0  0  0  0  0  0  0  0  0  0  0  0
   31.4718  -33.7822    4.7434 C   0  0  0  0  0  0  0  0  0  0  0  0
   31.2199  -34.5695    5.7731 C   0  0  0  0  0  0  0  0  0  0  0  0
   31.8966  -35.9340    5.8914 C   0  0  0  0  0  0  0  0  0  0  0  0
   30.2117  -34.1535    6.8511 C   0  0  0  0  0  0  0  0  0  0  0  0
   29.1441  -33.1703    6.3738 C   0  0  0  0  0  0  0  0  0  0  0  0
   28.0431  -33.1570    7.4367 C   0  0  0  0  0  0  0  0  0  0  0  0
   26.9236  -33.8332    7.3033 C   0  0  0  0  0  0  0  0  0  0  0  0
   26.6711  -34.6938    6.0666 C   0  0  0  0  0  0  0  0  0  0  0  0
   25.8685  -33.7549    8.4061 C   0  0  0  0  0  0  0  0  0  0  0  0
   31.1393  -31.8033   -2.2599 P   0  0  2  0  0  0  0  0  0  0  0  0
   32.1143  -30.8624   -2.9200 O   0  0  0  0  0  0  0  0  0  0  0  0
   30.0609  -31.0485   -1.5161 O   0  0  0  0  0  0  0  0  0  0  0  0
   30.4641  -32.7079   -3.4563 O   0  0  0  0  0  0  0  0  0  0  0  0
   29.1492  -33.6782   -3.3003 P   0  0  2  0  0  0  0  0  0  0  0  0
   27.9198  -32.8290   -3.0895 O   0  0  0  0  0  0  0  0  0  0  0  0
   29.3320  -34.6401   -2.1506 O   0  0  0  0  0  0  0  0  0  0  0  0
   29.0237  -34.4465   -4.6028 O   0  0  0  0  0  0  0  0  0  0  0  0
   33.8736  -32.5413   -0.6764 H   0  0  0  0  0  0  0  0  0  0  0  0
   32.7678  -31.1654   -0.3414 H   0  0  0  0  0  0  0  0  0  0  0  0
   31.7055  -33.3375    1.3170 H   0  0  0  0  0  0  0  0  0  0  0  0
   35.3510  -31.5275    2.4794 H   0  0  0  0  0  0  0  0  0  0  0  0
   35.4478  -32.5130    0.9807 H   0  0  0  0  0  0  0  0  0  0  0  0
   34.5356  -30.9656    0.9807 H   0  0  0  0  0  0  0  0  0  0  0  0
   34.4369  -33.3906    3.7684 H   0  0  0  0  0  0  0  0  0  0  0  0
   33.0679  -32.2021    4.0204 H   0  0  0  0  0  0  0  0  0  0  0  0
   31.9148  -34.3994    2.7123 H   0  0  0  0  0  0  0  0  0  0  0  0
   32.9938  -35.1134    3.9436 H   0  0  0  0  0  0  0  0  0  0  0  0
   30.9640  -32.8091    4.6710 H   0  0  0  0  0  0  0  0  0  0  0  0
   32.0233  -36.1896    6.9538 H   0  0  0  0  0  0  0  0  0  0  0  0
   31.2722  -36.6966    5.4028 H   0  0  0  0  0  0  0  0  0  0  0  0
   32.8815  -35.8985    5.4028 H   0  0  0  0  0  0  0  0  0  0  0  0
   29.7058  -35.0594    7.2165 H   0  0  0  0  0  0  0  0  0  0  0  0
   30.7859  -33.6364    7.6340 H   0  0  0  0  0  0  0  0  0  0  0  0
   29.5773  -32.1650    6.2655 H   0  0  0  0  0  0  0  0  0  0  0  0
   28.7421  -33.4710    5.3950 H   0  0  0  0  0  0  0  0  0  0  0  0
   28.1942  -32.5586    8.3473 H   0  0  0  0  0  0  0  0  0  0  0  0
   26.3740  -35.7059    6.3787 H   0  0  0  0  0  0  0  0  0  0  0  0
   25.8669  -34.2446    5.4654 H   0  0  0  0  0  0  0  0  0  0  0  0
   27.5905  -34.7505    5.4654 H   0  0  0  0  0  0  0  0  0  0  0  0
   26.3617  -33.7915    9.3886 H   0  0  0  0  0  0  0  0  0  0  0  0
   25.3087  -32.8128    8.3116 H   0  0  0  0  0  0  0  0  0  0  0  0
   25.1757  -34.6041    8.3116 H   0  0  0  0  0  0  0  0  0  0  0  0
  1  2  1  0
  1  3  1  0
  2 17  1  0
  3  4  2  3
  4  5  1  0
  4  6  1  0
  6  7  1  0
  7  8  1  0
  8  9  2  3
  9 10  1  0
  9 11  1  0
 11 12  1  0
 12 13  1  0
 13 14  2  3
 14 15  1  0
 14 16  1  0
 17 18  2  0
 17 19  1  1
 17 20  1  0
 20 21  1  0
 21 22  2  0
 21 23  1  1
 21 24  1  0
  1 25  1  0
  1 26  1  0
  3 27  1  0
  5 28  1  0
  5 29  1  0
  5 30  1  0
  6 31  1  0
  6 32  1  0
  7 33  1  0
  7 34  1  0
  8 35  1  0
 10 36  1  0
 10 37  1  0
 10 38  1  0
 11 39  1  0
 11 40  1  0
 12 41  1  0
 12 42  1  0
 13 43  1  0
 15 44  1  0
 15 45  1  0
 15 46  1  0
 16 47  1  0
 16 48  1  0
 16 49  1  0
M  CHG  3  19  -1  23  -1  24  -1
M  END
>  <filename_input>  (16) 
7T0D_FPP_docked.sdf

>  <pdb_id>  (16) 
7T0D_FPP

>  <pose_rank>  (16) 
15

>  <num_atoms_heavy>  (16) 
24

>  <num_torsions>  (16) 
11

>  <pose>  (16) 
[32.62891718371094, -32.79324332932565, 1.0698849879777974, -0.8525034811548303, 1.4182754585292263, 0.41199442014100246, 1.2338455004904245, -0.013853414007272606, -2.5832471760408744, -0.46427695087430515, 0.07443381710924925, 0.1741125072649388, 0.750584262846775, 1.0706318390656457, 1.8469472720153284, -0.5891557695989811, 1.2348043692961064]

>  <energy>  (16) 
-376.1622864962765

>  <inter_energy>  (16) 
-379.1218407408501

>  <intra_energy>  (16) 
2.037886966819637

>  <rmsd>  (16) 
8.87295

>  <sdf_rank>  (16) 
0

$$$$

     RDKit          3D

 49 48  0  0  0  0  0  0  0  0999 V2000
   32.8842  -33.6705    2.9869 C   0  0  0  0  0  0  0  0  0  0  0  0
   32.4611  -33.1439    4.2113 O   0  0  0  0  0  0  0  0  0  0  0  0
   33.7660  -32.6503    2.2697 C   0  0  0  0  0  0  0  0  0  0  0  0
   33.3826  -32.1951    1.0977 C   0  0  0  0  0  0  0  0  0  0  0  0
   32.0893  -32.7247    0.5147 C   0  0  0  0  0  0  0  0  0  0  0  0
   34.1611  -31.1664    0.2750 C   0  0  0  0  0  0  0  0  0  0  0  0
   35.3585  -30.5714    1.0031 C   0  0  0  0  0  0  0  0  0  0  0  0
   36.2531  -29.8844   -0.0348 C   0  0  0  0  0  0  0  0  0  0  0  0
   37.2687  -30.5194   -0.5905 C   0  0  0  0  0  0  0  0  0  0  0  0
   37.5924  -31.9600   -0.1983 C   0  0  0  0  0  0  0  0  0  0  0  0
   38.1728  -29.8144   -1.6090 C   0  0  0  0  0  0  0  0  0  0  0  0
   38.9500  -28.6245   -1.0486 C   0  0  0  0  0  0  0  0  0  0  0  0
   39.8903  -28.1444   -2.1566 C   0  0  0  0  0  0  0  0  0  0  0  0
   41.1762  -28.4178   -2.1601 C   0  0  0  0  0  0  0  0  0  0  0  0
   41.8015  -29.2572   -1.0474 C   0  0  0  0  0  0  0  0  0  0  0  0
   42.0486  -27.8884   -3.2977 C   0  0  0  0  0  0  0  0  0  0  0  0
   31.5219  -34.0846    5.1851 P   0  0  2  0  0  0  0  0  0  0  0  0
   32.3646  -35.0777    5.9436 O   0  0  0  0  0  0  0  0  0  0  0  0
   30.4734  -34.7779    4.3451 O   0  0  0  0  0  0  0  0  0  0  0  0
   30.7949  -33.1224    6.3038 O   0  0  0  0  0  0  0  0  0  0  0  0
   29.3848  -33.4478    7.0788 P   0  0  2  0  0  0  0  0  0  0  0  0
   29.4424  -32.8938    8.4812 O   0  0  0  0  0  0  0  0  0  0  0  0
   29.1251  -34.9351    7.1071 O   0  0  0  0  0  0  0  0  0  0  0  0
   28.2908  -32.7463    6.2955 O   0  0  0  0  0  0  0  0  0  0  0  0
   33.4588  -34.5917    3.1632 H   0  0  0  0  0  0  0  0  0  0  0  0
   32.0069  -33.8982    2.3637 H   0  0  0  0  0  0  0  0  0  0  0  0
   34.7048  -32.3028    2.7256 H   0  0  0  0  0  0  0  0  0  0  0  0
   31.4066  -33.0042    1.3307 H   0  0  0  0  0  0  0  0  0  0  0  0
   31.6206  -31.9461   -0.1051 H   0  0  0  0  0  0  0  0  0  0  0  0
   32.3012  -33.6084   -0.1051 H   0  0  0  0  0  0  0  0  0  0  0  0
   34.5218  -31.6570   -0.6411 H   0  0  0  0  0  0  0  0  0  0  0  0
   33.4702  -30.3363    0.0661 H   0  0  0  0  0  0  0  0  0  0  0  0
   35.0156  -29.8356    1.7454 H   0  0  0  0  0  0  0  0  0  0  0  0
   35.9180  -31.3613    1.5256 H   0  0  0  0  0  0  0  0  0  0  0  0
   36.0452  -28.8431   -0.3220 H   0  0  0  0  0  0  0  0  0  0  0  0
   37.6117  -32.0460    0.8981 H   0  0  0  0  0  0  0  0  0  0  0  0
   36.8230  -32.6325   -0.6054 H   0  0  0  0  0  0  0  0  0  0  0  0
   38.5756  -32.2388   -0.6054 H   0  0  0  0  0  0  0  0  0  0  0  0
   38.8971  -30.5486   -1.9917 H   0  0  0  0  0  0  0  0  0  0  0  0
   37.5109  -29.4154   -2.3917 H   0  0  0  0  0  0  0  0  0  0  0  0
   38.2562  -27.8190   -0.7661 H   0  0  0  0  0  0  0  0  0  0  0  0
   39.5157  -28.9123   -0.1501 H   0  0  0  0  0  0  0  0  0  0  0  0
   39.4742  -27.5478   -2.9818 H   0  0  0  0  0  0  0  0  0  0  0  0
   41.5003  -28.8529   -0.0698 H   0  0  0  0  0  0  0  0  0  0  0  0
   41.4569  -30.2981   -1.1357 H   0  0  0  0  0  0  0  0  0  0  0  0
   42.8975  -29.2251   -1.1357 H   0  0  0  0  0  0  0  0  0  0  0  0
   42.9179  -27.3608   -2.8781 H   0  0  0  0  0  0  0  0  0  0  0  0
   42.3939  -28.7294   -3.9169 H   0  0  0  0  0  0  0  0  0  0  0  0
   41.4620  -27.1938   -3.9169 H   0  0  0  0  0  0  0  0  0  0  0  0
  1  2  1  0
  1  3  1  0
  2 17  1  0
  3  4  2  3
  4  5  1  0
  4  6  1  0
  6  7  1  0
  7  8  1  0
  8  9  2  3
  9 10  1  0
  9 11  1  0
 11 12  1  0
 12 13  1  0
 13 14  2  3
 14 15  1  0
 14 16  1  0
 17 18  2  0
 17 19  1  6
 17 20  1  0
 20 21  1  0
 21 22  2  0
 21 23  1  1
 21 24  1  0
  1 25  1  0
  1 26  1  0
  3 27  1  0
  5 28  1  0
  5 29  1  0
  5 30  1  0
  6 31  1  0
  6 32  1  0
  7 33  1  0
  7 34  1  0
  8 35  1  0
 10 36  1  0
 10 37  1  0
 10 38  1  0
 11 39  1  0
 11 40  1  0
 12 41  1  0
 12 42  1  0
 13 43  1  0
 15 44  1  0
 15 45  1  0
 15 46  1  0
 16 47  1  0
 16 48  1  0
 16 49  1  0
M  CHG  3  19  -1  23  -1  24  -1
M  END
>  <filename_input>  (17) 
7T0D_FPP_docked.sdf

>  <pdb_id>  (17) 
7T0D_FPP

>  <pose_rank>  (17) 
16

>  <num_atoms_heavy>  (17) 
24

>  <num_torsions>  (17) 
11

>  <pose>  (17) 
[33.76601272071808, -32.65027227030242, 2.269673180911808, -2.247228674087329, 3.138273152582413, 1.5462008219619543, 2.5074195483154167, 0.8257356499882995, 4.30393878316642, -5.313616774934723, 1.4171534975334945, -6.604576517711906, -0.45919737106212716, 1.6929462169016547, 2.5102010738699536, -0.4330839415905092, 1.1854616936644002]

>  <energy>  (17) 
-378.5146197156149

>  <inter_energy>  (17) 
-381.3638744634813

>  <intra_energy>  (17) 
5.163584966633369

>  <rmsd>  (17) 
10.7676

>  <sdf_rank>  (17) 
0

$$$$

     RDKit          3D

 49 48  0  0  0  0  0  0  0  0999 V2000
   34.2864  -31.0695   -0.4659 C   0  0  0  0  0  0  0  0  0  0  0  0
   35.3506  -30.3828    0.1268 O   0  0  0  0  0  0  0  0  0  0  0  0
   34.0956  -32.4151    0.2311 C   0  0  0  0  0  0  0  0  0  0  0  0
   33.3756  -32.4625    1.3298 C   0  0  0  0  0  0  0  0  0  0  0  0
   32.7873  -31.1693    1.8538 C   0  0  0  0  0  0  0  0  0  0  0  0
   33.0951  -33.7405    2.1229 C   0  0  0  0  0  0  0  0  0  0  0  0
   33.0324  -33.5312    3.6296 C   0  0  0  0  0  0  0  0  0  0  0  0
   31.5781  -33.7190    4.0759 C   0  0  0  0  0  0  0  0  0  0  0  0
   31.2700  -33.8971    5.3475 C   0  0  0  0  0  0  0  0  0  0  0  0
   32.3637  -33.9388    6.4133 C   0  0  0  0  0  0  0  0  0  0  0  0
   29.8141  -34.1093    5.7801 C   0  0  0  0  0  0  0  0  0  0  0  0
   29.2530  -35.4931    5.4572 C   0  0  0  0  0  0  0  0  0  0  0  0
   28.8788  -36.1446    6.7906 C   0  0  0  0  0  0  0  0  0  0  0  0
   29.2317  -37.3724    7.1009 C   0  0  0  0  0  0  0  0  0  0  0  0
   30.0617  -38.2166    6.1354 C   0  0  0  0  0  0  0  0  0  0  0  0
   28.8052  -37.9534    8.4486 C   0  0  0  0  0  0  0  0  0  0  0  0
   36.7180  -30.1422   -0.7607 P   0  0  2  0  0  0  0  0  0  0  0  0
   36.4297  -30.2753   -2.2341 O   0  0  0  0  0  0  0  0  0  0  0  0
   37.7788  -31.1229   -0.3149 O   0  0  0  0  0  0  0  0  0  0  0  0
   37.2415  -28.6025   -0.5137 O   0  0  0  0  0  0  0  0  0  0  0  0
   37.9263  -27.6285   -1.6440 P   0  0  2  0  0  0  0  0  0  0  0  0
   38.6792  -26.5149   -0.9584 O   0  0  0  0  0  0  0  0  0  0  0  0
   36.8732  -27.0652   -2.5682 O   0  0  0  0  0  0  0  0  0  0  0  0
   38.8944  -28.4939   -2.4291 O   0  0  0  0  0  0  0  0  0  0  0  0
   33.3669  -30.4735   -0.3698 H   0  0  0  0  0  0  0  0  0  0  0  0
   34.5063  -31.2367   -1.5306 H   0  0  0  0  0  0  0  0  0  0  0  0
   34.5525  -33.3279   -0.1789 H   0  0  0  0  0  0  0  0  0  0  0  0
   32.7935  -31.1829    2.9537 H   0  0  0  0  0  0  0  0  0  0  0  0
   33.3880  -30.3210    1.4942 H   0  0  0  0  0  0  0  0  0  0  0  0
   31.7530  -31.0648    1.4942 H   0  0  0  0  0  0  0  0  0  0  0  0
   32.1300  -34.1499    1.7898 H   0  0  0  0  0  0  0  0  0  0  0  0
   33.9340  -34.4256    1.9308 H   0  0  0  0  0  0  0  0  0  0  0  0
   33.6756  -34.2665    4.1353 H   0  0  0  0  0  0  0  0  0  0  0  0
   33.3836  -32.5217    3.8893 H   0  0  0  0  0  0  0  0  0  0  0  0
   30.7762  -33.7050    3.3230 H   0  0  0  0  0  0  0  0  0  0  0  0
   31.9032  -33.9212    7.4121 H   0  0  0  0  0  0  0  0  0  0  0  0
   32.9535  -34.8601    6.2976 H   0  0  0  0  0  0  0  0  0  0  0  0
   33.0219  -33.0651    6.2976 H   0  0  0  0  0  0  0  0  0  0  0  0
   29.7535  -33.9591    6.8682 H   0  0  0  0  0  0  0  0  0  0  0  0
   29.2102  -33.3862    5.2122 H   0  0  0  0  0  0  0  0  0  0  0  0
   28.3622  -35.4003    4.8186 H   0  0  0  0  0  0  0  0  0  0  0  0
   29.9932  -36.1012    4.9165 H   0  0  0  0  0  0  0  0  0  0  0  0
   28.2920  -35.5633    7.5171 H   0  0  0  0  0  0  0  0  0  0  0  0
   30.7204  -38.8866    6.7074 H   0  0  0  0  0  0  0  0  0  0  0  0
   29.3907  -38.8152    5.5018 H   0  0  0  0  0  0  0  0  0  0  0  0
   30.6716  -37.5558    5.5018 H   0  0  0  0  0  0  0  0  0  0  0  0
   29.2441  -37.3556    9.2610 H   0  0  0  0  0  0  0  0  0  0  0  0
   27.7083  -37.9300    8.5274 H   0  0  0  0  0  0  0  0  0  0  0  0
   29.1564  -38.9929    8.5274 H   0  0  0  0  0  0  0  0  0  0  0  0
  1  2  1  0
  1  3  1  0
  2 17  1  0
  3  4  2  3
  4  5  1  0
  4  6  1  0
  6  7  1  0
  7  8  1  0
  8  9  2  3
  9 10  1  0
  9 11  1  0
 11 12  1  0
 12 13  1  0
 13 14  2  3
 14 15  1  0
 14 16  1  0
 17 18  2  0
 17 19  1  1
 17 20  1  0
 20 21  1  0
 21 22  2  0
 21 23  1  6
 21 24  1  0
  1 25  1  0
  1 26  1  0
  3 27  1  0
  5 28  1  0
  5 29  1  0
  5 30  1  0
  6 31  1  0
  6 32  1  0
  7 33  1  0
  7 34  1  0
  8 35  1  0
 10 36  1  0
 10 37  1  0
 10 38  1  0
 11 39  1  0
 11 40  1  0
 12 41  1  0
 12 42  1  0
 13 43  1  0
 15 44  1  0
 15 45  1  0
 15 46  1  0
 16 47  1  0
 16 48  1  0
 16 49  1  0
M  CHG  3  19  -1  23  -1  24  -1
M  END
>  <filename_input>  (18) 
7T0D_FPP_docked.sdf

>  <pdb_id>  (18) 
7T0D_FPP

>  <pose_rank>  (18) 
17

>  <num_atoms_heavy>  (18) 
24

>  <num_torsions>  (18) 
11

>  <pose>  (18) 
[34.0956148705449, -32.41511861209181, 0.23109233342156804, -1.3367032290576246, -0.335551445721693, 0.8787682278583668, -0.22494990442661927, -0.3755530861249704, 3.2642143110103836, -4.2315058575822055, 2.340805130117597, -3.9576704662526825, -1.4019442159818647, -0.08164029602265119, 2.7050680600189243, -1.4083944647742164, 0.6731749441934685]

>  <energy>  (18) 
-393.8605500757134

>  <inter_energy>  (18) 
-405.64436017641253

>  <intra_energy>  (18) 
10.699652260706774

>  <rmsd>  (18) 
6.71729

>  <sdf_rank>  (18) 
0

$$$$

     RDKit          3D

 49 48  0  0  0  0  0  0  0  0999 V2000
   39.7125  -29.0328   -1.0481 C   0  0  0  0  0  0  0  0  0  0  0  0
   38.6270  -28.4457   -0.3904 O   0  0  0  0  0  0  0  0  0  0  0  0
   40.3077  -30.1318   -0.1703 C   0  0  0  0  0  0  0  0  0  0  0  0
   40.5478  -31.3084   -0.7049 C   0  0  0  0  0  0  0  0  0  0  0  0
   40.2024  -31.5129   -2.1650 C   0  0  0  0  0  0  0  0  0  0  0  0
   41.1497  -32.4936    0.0529 C   0  0  0  0  0  0  0  0  0  0  0  0
   41.3487  -33.7371   -0.8027 C   0  0  0  0  0  0  0  0  0  0  0  0
   40.1678  -34.6816   -0.5513 C   0  0  0  0  0  0  0  0  0  0  0  0
   40.3466  -35.8702   -0.0048 C   0  0  0  0  0  0  0  0  0  0  0  0
   41.7467  -36.3465    0.3782 C   0  0  0  0  0  0  0  0  0  0  0  0
   39.1615  -36.8175    0.2191 C   0  0  0  0  0  0  0  0  0  0  0  0
   39.5506  -38.2805    0.4250 C   0  0  0  0  0  0  0  0  0  0  0  0
   38.8289  -38.7604    1.6864 C   0  0  0  0  0  0  0  0  0  0  0  0
   37.7333  -39.4857    1.6411 C   0  0  0  0  0  0  0  0  0  0  0  0
   37.1270  -39.9060    0.3034 C   0  0  0  0  0  0  0  0  0  0  0  0
   37.0665  -39.9127    2.9482 C   0  0  0  0  0  0  0  0  0  0  0  0
   37.2551  -28.1504   -1.2541 P   0  0  2  0  0  0  0  0  0  0  0  0
   37.5861  -27.8166   -2.6861 O   0  0  0  0  0  0  0  0  0  0  0  0
   36.4813  -27.0334   -0.5914 O   0  0  0  0  0  0  0  0  0  0  0  0
   36.3453  -29.5205   -1.2812 O   0  0  0  0  0  0  0  0  0  0  0  0
   36.0490  -30.5016    0.0012 P   0  0  2  0  0  0  0  0  0  0  0  0
   35.9951  -29.6767    1.2635 O   0  0  0  0  0  0  0  0  0  0  0  0
   37.1121  -31.5685    0.1107 O   0  0  0  0  0  0  0  0  0  0  0  0
   34.6967  -31.1425   -0.2500 O   0  0  0  0  0  0  0  0  0  0  0  0
   39.3727  -29.4676   -1.9997 H   0  0  0  0  0  0  0  0  0  0  0  0
   40.4777  -28.2679   -1.2462 H   0  0  0  0  0  0  0  0  0  0  0  0
   40.5314  -29.9422    0.8899 H   0  0  0  0  0  0  0  0  0  0  0  0
   39.2581  -32.0716   -2.2436 H   0  0  0  0  0  0  0  0  0  0  0  0
   40.0916  -30.5348   -2.6560 H   0  0  0  0  0  0  0  0  0  0  0  0
   41.0064  -32.0807   -2.6560 H   0  0  0  0  0  0  0  0  0  0  0  0
   42.1279  -32.1882    0.4525 H   0  0  0  0  0  0  0  0  0  0  0  0
   40.4347  -32.7622    0.8444 H   0  0  0  0  0  0  0  0  0  0  0  0
   41.3822  -33.4568   -1.8659 H   0  0  0  0  0  0  0  0  0  0  0  0
   42.2954  -34.2323   -0.5411 H   0  0  0  0  0  0  0  0  0  0  0  0
   39.1528  -34.3633   -0.8313 H   0  0  0  0  0  0  0  0  0  0  0  0
   41.8367  -36.3771    1.4741 H   0  0  0  0  0  0  0  0  0  0  0  0
   41.9166  -37.3530   -0.0319 H   0  0  0  0  0  0  0  0  0  0  0  0
   42.4951  -35.6524   -0.0319 H   0  0  0  0  0  0  0  0  0  0  0  0
   38.6144  -36.4785    1.1112 H   0  0  0  0  0  0  0  0  0  0  0  0
   38.5541  -36.7810   -0.6973 H   0  0  0  0  0  0  0  0  0  0  0  0
   39.2367  -38.8807   -0.4417 H   0  0  0  0  0  0  0  0  0  0  0  0
   40.6403  -38.3863    0.5311 H   0  0  0  0  0  0  0  0  0  0  0  0
   39.2427  -38.4881    2.6685 H   0  0  0  0  0  0  0  0  0  0  0  0
   36.2351  -40.5243    0.4832 H   0  0  0  0  0  0  0  0  0  0  0  0
   36.8429  -39.0101   -0.2681 H   0  0  0  0  0  0  0  0  0  0  0  0
   37.8663  -40.4863   -0.2681 H   0  0  0  0  0  0  0  0  0  0  0  0
   37.6535  -39.5368    3.7991 H   0  0  0  0  0  0  0  0  0  0  0  0
   36.0486  -39.4980    2.9931 H   0  0  0  0  0  0  0  0  0  0  0  0
   37.0173  -41.0107    2.9931 H   0  0  0  0  0  0  0  0  0  0  0  0
  1  2  1  0
  1  3  1  0
  2 17  1  0
  3  4  2  3
  4  5  1  0
  4  6  1  0
  6  7  1  0
  7  8  1  0
  8  9  2  3
  9 10  1  0
  9 11  1  0
 11 12  1  0
 12 13  1  0
 13 14  2  3
 14 15  1  0
 14 16  1  0
 17 18  2  0
 17 19  1  1
 17 20  1  0
 20 21  1  0
 21 22  2  0
 21 23  1  1
 21 24  1  0
  1 25  1  0
  1 26  1  0
  3 27  1  0
  5 28  1  0
  5 29  1  0
  5 30  1  0
  6 31  1  0
  6 32  1  0
  7 33  1  0
  7 34  1  0
  8 35  1  0
 10 36  1  0
 10 37  1  0
 10 38  1  0
 11 39  1  0
 11 40  1  0
 12 41  1  0
 12 42  1  0
 13 43  1  0
 15 44  1  0
 15 45  1  0
 15 46  1  0
 16 47  1  0
 16 48  1  0
 16 49  1  0
M  CHG  3  19  -1  23  -1  24  -1
M  END
>  <filename_input>  (19) 
7T0D_FPP_docked.sdf

>  <pdb_id>  (19) 
7T0D_FPP

>  <pose_rank>  (19) 
18

>  <num_atoms_heavy>  (19) 
24

>  <num_torsions>  (19) 
11

>  <pose>  (19) 
[40.30772068572398, -30.13184298314941, -0.17032492719980286, -1.040968749483063, -3.1189295468794125, 0.16448478687961657, 0.5981427385418838, 1.5693607543217345, -3.9422510126149617, -0.9628089692400109, -0.5641877464020504, -3.3243226892296693, 1.2359788437448307, -4.980765031080518, 4.216794715274083, -1.211406594531036, -1.5404007680571312]

>  <energy>  (19) 
-398.3159829981045

>  <inter_energy>  (19) 
-393.5132196168982

>  <intra_energy>  (19) 
3.0488329455246657

>  <rmsd>  (19) 
8.78476

>  <sdf_rank>  (19) 
0

$$$$

     RDKit          3D

 49 48  0  0  0  0  0  0  0  0999 V2000
   39.0802  -27.2606   -2.3544 C   0  0  0  0  0  0  0  0  0  0  0  0
   37.9077  -28.0225   -2.3713 O   0  0  0  0  0  0  0  0  0  0  0  0
   40.2919  -28.1892   -2.3060 C   0  0  0  0  0  0  0  0  0  0  0  0
   40.9440  -28.4375   -3.4199 C   0  0  0  0  0  0  0  0  0  0  0  0
   40.4430  -27.7983   -4.6979 C   0  0  0  0  0  0  0  0  0  0  0  0
   42.1773  -29.3381   -3.5151 C   0  0  0  0  0  0  0  0  0  0  0  0
   41.9042  -30.6945   -4.1503 C   0  0  0  0  0  0  0  0  0  0  0  0
   41.2781  -31.6014   -3.0848 C   0  0  0  0  0  0  0  0  0  0  0  0
   41.9927  -32.5218   -2.4637 C   0  0  0  0  0  0  0  0  0  0  0  0
   43.4684  -32.7208   -2.8051 C   0  0  0  0  0  0  0  0  0  0  0  0
   41.3502  -33.4407   -1.4175 C   0  0  0  0  0  0  0  0  0  0  0  0
   41.7488  -33.1335    0.0250 C   0  0  0  0  0  0  0  0  0  0  0  0
   41.4286  -31.6572    0.2712 C   0  0  0  0  0  0  0  0  0  0  0  0
   42.3634  -30.7566    0.4797 C   0  0  0  0  0  0  0  0  0  0  0  0
   43.8409  -31.1443    0.4691 C   0  0  0  0  0  0  0  0  0  0  0  0
   41.9579  -29.3048    0.7313 C   0  0  0  0  0  0  0  0  0  0  0  0
   37.2735  -28.5148   -0.9323 P   0  0  2  0  0  0  0  0  0  0  0  0
   36.2414  -27.5335   -0.4390 O   0  0  0  0  0  0  0  0  0  0  0  0
   38.3919  -28.6903    0.0697 O   0  0  0  0  0  0  0  0  0  0  0  0
   36.4989  -29.9477   -1.1614 O   0  0  0  0  0  0  0  0  0  0  0  0
   35.4315  -30.6387   -0.1230 P   0  0  2  0  0  0  0  0  0  0  0  0
   35.9727  -31.9677    0.3438 O   0  0  0  0  0  0  0  0  0  0  0  0
   34.0862  -30.8177   -0.7852 O   0  0  0  0  0  0  0  0  0  0  0  0
   35.3056  -29.6938    1.0575 O   0  0  0  0  0  0  0  0  0  0  0  0
   39.1285  -26.6423   -3.2629 H   0  0  0  0  0  0  0  0  0  0  0  0
   39.0816  -26.6105   -1.4671 H   0  0  0  0  0  0  0  0  0  0  0  0
   40.6129  -28.6419   -1.3563 H   0  0  0  0  0  0  0  0  0  0  0  0
   39.7817  -26.9546   -4.4511 H   0  0  0  0  0  0  0  0  0  0  0  0
   41.2985  -27.4339   -5.2855 H   0  0  0  0  0  0  0  0  0  0  0  0
   39.8847  -28.5420   -5.2855 H   0  0  0  0  0  0  0  0  0  0  0  0
   42.9382  -28.8206   -4.1178 H   0  0  0  0  0  0  0  0  0  0  0  0
   42.5123  -29.5300   -2.4851 H   0  0  0  0  0  0  0  0  0  0  0  0
   41.2098  -30.5776   -4.9953 H   0  0  0  0  0  0  0  0  0  0  0  0
   42.8398  -31.1356   -4.5244 H   0  0  0  0  0  0  0  0  0  0  0  0
   40.2138  -31.4833   -2.8330 H   0  0  0  0  0  0  0  0  0  0  0  0
   44.0522  -32.7995   -1.8761 H   0  0  0  0  0  0  0  0  0  0  0  0
   43.5877  -33.6431   -3.3924 H   0  0  0  0  0  0  0  0  0  0  0  0
   43.8278  -31.8630   -3.3924 H   0  0  0  0  0  0  0  0  0  0  0  0
   40.2575  -33.3444   -1.5001 H   0  0  0  0  0  0  0  0  0  0  0  0
   41.7094  -34.4581   -1.6317 H   0  0  0  0  0  0  0  0  0  0  0  0
   41.1748  -33.7655    0.7186 H   0  0  0  0  0  0  0  0  0  0  0  0
   42.8172  -33.3369    0.1896 H   0  0  0  0  0  0  0  0  0  0  0  0
   40.3761  -31.3375    0.2737 H   0  0  0  0  0  0  0  0  0  0  0  0
   44.2025  -31.2392    1.5036 H   0  0  0  0  0  0  0  0  0  0  0  0
   43.9641  -32.1052   -0.0520 H   0  0  0  0  0  0  0  0  0  0  0  0
   44.4200  -30.3677   -0.0520 H   0  0  0  0  0  0  0  0  0  0  0  0
   41.9065  -29.1209    1.8146 H   0  0  0  0  0  0  0  0  0  0  0  0
   42.7027  -28.6326    0.2802 H   0  0  0  0  0  0  0  0  0  0  0  0
   40.9726  -29.1158    0.2802 H   0  0  0  0  0  0  0  0  0  0  0  0
  1  2  1  0
  1  3  1  0
  2 17  1  0
  3  4  2  3
  4  5  1  0
  4  6  1  0
  6  7  1  0
  7  8  1  0
  8  9  2  3
  9 10  1  0
  9 11  1  0
 11 12  1  0
 12 13  1  0
 13 14  2  3
 14 15  1  0
 14 16  1  0
 17 18  2  0
 17 19  1  1
 17 20  1  0
 20 21  1  0
 21 22  2  0
 21 23  1  6
 21 24  1  0
  1 25  1  0
  1 26  1  0
  3 27  1  0
  5 28  1  0
  5 29  1  0
  5 30  1  0
  6 31  1  0
  6 32  1  0
  7 33  1  0
  7 34  1  0
  8 35  1  0
 10 36  1  0
 10 37  1  0
 10 38  1  0
 11 39  1  0
 11 40  1  0
 12 41  1  0
 12 42  1  0
 13 43  1  0
 15 44  1  0
 15 45  1  0
 15 46  1  0
 16 47  1  0
 16 48  1  0
 16 49  1  0
M  CHG  3  19  -1  23  -1  24  -1
M  END
>  <filename_input>  (20) 
7T0D_FPP_docked.sdf

>  <pdb_id>  (20) 
7T0D_FPP

>  <pose_rank>  (20) 
19

>  <num_atoms_heavy>  (20) 
24

>  <num_torsions>  (20) 
11

>  <pose>  (20) 
[40.2918789895793, -28.189206900682773, -2.3060215729788536, 0.17810123899637217, 3.0560735084999067, 1.0048273522840068, 0.04545510685652857, -0.8464584839116446, -1.7447705102697604, -4.604271397053868, -3.194820332338407, 1.6447230453835548, 1.5593857489358856, -4.7293855937775655, -0.4703609699264471, 3.7629377088534453, 1.0049419448586083]

>  <energy>  (20) 
-356.4945772049888

>  <inter_energy>  (20) 
-390.09258144365606

>  <intra_energy>  (20) 
32.06655741661788

>  <rmsd>  (20) 
10.4409

>  <sdf_rank>  (20) 
0

$$$$

     RDKit          3D

 49 48  0  0  0  0  0  0  0  0999 V2000
   35.4004  -30.5959    0.4184 C   0  0  0  0  0  0  0  0  0  0  0  0
   36.5474  -29.9459    0.8844 O   0  0  0  0  0  0  0  0  0  0  0  0
   35.6640  -32.0979    0.3325 C   0  0  0  0  0  0  0  0  0  0  0  0
   34.7267  -32.9288    0.7310 C   0  0  0  0  0  0  0  0  0  0  0  0
   33.4382  -32.3452    1.2715 C   0  0  0  0  0  0  0  0  0  0  0  0
   34.8517  -34.4533    0.6917 C   0  0  0  0  0  0  0  0  0  0  0  0
   36.2448  -34.9677    1.0272 C   0  0  0  0  0  0  0  0  0  0  0  0
   36.4095  -36.3491    0.3837 C   0  0  0  0  0  0  0  0  0  0  0  0
   37.5992  -36.8048    0.0365 C   0  0  0  0  0  0  0  0  0  0  0  0
   38.8500  -35.9546    0.2521 C   0  0  0  0  0  0  0  0  0  0  0  0
   37.7500  -38.1778   -0.6298 C   0  0  0  0  0  0  0  0  0  0  0  0
   36.7915  -39.2452   -0.1043 C   0  0  0  0  0  0  0  0  0  0  0  0
   36.1471  -39.9057   -1.3253 C   0  0  0  0  0  0  0  0  0  0  0  0
   35.3958  -40.9806   -1.2331 C   0  0  0  0  0  0  0  0  0  0  0  0
   35.1109  -41.6232    0.1232 C   0  0  0  0  0  0  0  0  0  0  0  0
   34.8005  -41.5862   -2.5037 C   0  0  0  0  0  0  0  0  0  0  0  0
   37.5563  -29.2517   -0.2182 P   0  0  2  0  0  0  0  0  0  0  0  0
   37.9396  -30.2405   -1.2892 O   0  0  0  0  0  0  0  0  0  0  0  0
   38.7744  -28.7099    0.4947 O   0  0  0  0  0  0  0  0  0  0  0  0
   36.7548  -28.0250   -0.9655 O   0  0  0  0  0  0  0  0  0  0  0  0
   37.4476  -26.7111   -1.6647 P   0  0  2  0  0  0  0  0  0  0  0  0
   37.6578  -25.6396   -0.6232 O   0  0  0  0  0  0  0  0  0  0  0  0
   36.5862  -26.1927   -2.7915 O   0  0  0  0  0  0  0  0  0  0  0  0
   38.7889  -27.1685   -2.2069 O   0  0  0  0  0  0  0  0  0  0  0  0
   34.5665  -30.4092    1.1110 H   0  0  0  0  0  0  0  0  0  0  0  0
   35.1421  -30.2120   -0.5796 H   0  0  0  0  0  0  0  0  0  0  0  0
   36.6207  -32.4773   -0.0557 H   0  0  0  0  0  0  0  0  0  0  0  0
   33.4635  -32.3566    2.3712 H   0  0  0  0  0  0  0  0  0  0  0  0
   33.3282  -31.3094    0.9180 H   0  0  0  0  0  0  0  0  0  0  0  0
   32.5870  -32.9456    0.9180 H   0  0  0  0  0  0  0  0  0  0  0  0
   34.1420  -34.8776    1.4172 H   0  0  0  0  0  0  0  0  0  0  0  0
   34.6371  -34.7643   -0.3413 H   0  0  0  0  0  0  0  0  0  0  0  0
   37.0031  -34.2778    0.6286 H   0  0  0  0  0  0  0  0  0  0  0  0
   36.3732  -35.0372    2.1175 H   0  0  0  0  0  0  0  0  0  0  0  0
   35.5203  -36.9723    0.2079 H   0  0  0  0  0  0  0  0  0  0  0  0
   39.0291  -35.8329    1.3306 H   0  0  0  0  0  0  0  0  0  0  0  0
   39.7157  -36.4522   -0.2095 H   0  0  0  0  0  0  0  0  0  0  0  0
   38.7058  -34.9666   -0.2095 H   0  0  0  0  0  0  0  0  0  0  0  0
   37.5724  -38.0576   -1.7087 H   0  0  0  0  0  0  0  0  0  0  0  0
   38.7666  -38.5284   -0.3980 H   0  0  0  0  0  0  0  0  0  0  0  0
   37.3441  -39.9935    0.4828 H   0  0  0  0  0  0  0  0  0  0  0  0
   36.0281  -38.8000    0.5507 H   0  0  0  0  0  0  0  0  0  0  0  0
   36.3191  -39.4642   -2.3180 H   0  0  0  0  0  0  0  0  0  0  0  0
   35.4157  -40.9356    0.9259 H   0  0  0  0  0  0  0  0  0  0  0  0
   34.0349  -41.8343    0.2102 H   0  0  0  0  0  0  0  0  0  0  0  0
   35.6770  -42.5623    0.2102 H   0  0  0  0  0  0  0  0  0  0  0  0
   34.0533  -42.3465   -2.2323 H   0  0  0  0  0  0  0  0  0  0  0  0
   34.3194  -40.7945   -3.0967 H   0  0  0  0  0  0  0  0  0  0  0  0
   35.6005  -42.0536   -3.0967 H   0  0  0  0  0  0  0  0  0  0  0  0
  1  2  1  0
  1  3  1  0
  2 17  1  0
  3  4  2  3
  4  5  1  0
  4  6  1  0
  6  7  1  0
  7  8  1  0
  8  9  2  3
  9 10  1  0
  9 11  1  0
 11 12  1  0
 12 13  1  0
 13 14  2  3
 14 15  1  0
 14 16  1  0
 17 18  2  0
 17 19  1  1
 17 20  1  0
 20 21  1  0
 21 22  2  0
 21 23  1  6
 21 24  1  0
  1 25  1  0
  1 26  1  0
  3 27  1  0
  5 28  1  0
  5 29  1  0
  5 30  1  0
  6 31  1  0
  6 32  1  0
  7 33  1  0
  7 34  1  0
  8 35  1  0
 10 36  1  0
 10 37  1  0
 10 38  1  0
 11 39  1  0
 11 40  1  0
 12 41  1  0
 12 42  1  0
 13 43  1  0
 15 44  1  0
 15 45  1  0
 15 46  1  0
 16 47  1  0
 16 48  1  0
 16 49  1  0
M  CHG  3  19  -1  23  -1  24  -1
M  END
>  <filename_input>  (21) 
7T0D_FPP_docked.sdf

>  <pdb_id>  (21) 
7T0D_FPP

>  <pose_rank>  (21) 
20

>  <num_atoms_heavy>  (21) 
24

>  <num_torsions>  (21) 
11

>  <pose>  (21) 
[35.663980410624816, -32.09788319841016, 0.3325126906764576, -0.9857151546132499, -1.1904389500563988, 0.6935371290651186, 0.7159146060423286, -0.6349470687791473, 1.9955274958481242, 0.9656632440782892, 3.6402059657460972, 0.45030310045505867, 0.23995332450129248, -0.2873305996369408, 0.7621086401765443, -1.1915221279470414, -0.3153735922240684]

>  <energy>  (21) 
-381.4995671525201

>  <inter_energy>  (21) 
-379.3750245374755

>  <intra_energy>  (21) 
4.519417643051048

>  <rmsd>  (21) 
6.48374

>  <sdf_rank>  (21) 
0

$$$$

     RDKit          3D

 49 48  0  0  0  0  0  0  0  0999 V2000
   35.5569  -30.8050    0.0210 C   0  0  0  0  0  0  0  0  0  0  0  0
   36.1712  -29.8930   -0.8428 O   0  0  0  0  0  0  0  0  0  0  0  0
   34.2542  -31.3015   -0.6030 C   0  0  0  0  0  0  0  0  0  0  0  0
   33.4318  -32.0157    0.1327 C   0  0  0  0  0  0  0  0  0  0  0  0
   33.8338  -32.3216    1.5602 C   0  0  0  0  0  0  0  0  0  0  0  0
   32.0922  -32.5675   -0.3592 C   0  0  0  0  0  0  0  0  0  0  0  0
   31.2968  -31.5890   -1.2123 C   0  0  0  0  0  0  0  0  0  0  0  0
   30.8522  -32.3193   -2.4845 C   0  0  0  0  0  0  0  0  0  0  0  0
   29.6319  -32.8103   -2.6007 C   0  0  0  0  0  0  0  0  0  0  0  0
   28.6291  -32.6782   -1.4559 C   0  0  0  0  0  0  0  0  0  0  0  0
   29.2055  -33.5614   -3.8680 C   0  0  0  0  0  0  0  0  0  0  0  0
   28.4310  -34.8524   -3.6082 C   0  0  0  0  0  0  0  0  0  0  0  0
   27.1915  -34.8169   -4.5054 C   0  0  0  0  0  0  0  0  0  0  0  0
   26.4713  -35.8873   -4.7583 C   0  0  0  0  0  0  0  0  0  0  0  0
   26.8335  -37.2382   -4.1440 C   0  0  0  0  0  0  0  0  0  0  0  0
   25.2554  -35.7687   -5.6765 C   0  0  0  0  0  0  0  0  0  0  0  0
   37.8162  -29.8932   -0.9401 P   0  0  2  0  0  0  0  0  0  0  0  0
   38.3940  -31.0881   -0.2259 O   0  0  0  0  0  0  0  0  0  0  0  0
   38.3480  -28.5983   -0.3692 O   0  0  0  0  0  0  0  0  0  0  0  0
   38.2498  -30.0263   -2.5212 O   0  0  0  0  0  0  0  0  0  0  0  0
   39.4260  -29.1601   -3.2703 P   0  0  2  0  0  0  0  0  0  0  0  0
   38.9630  -27.7354   -3.4517 O   0  0  0  0  0  0  0  0  0  0  0  0
   39.7734  -29.7780   -4.6037 O   0  0  0  0  0  0  0  0  0  0  0  0
   40.6351  -29.1930   -2.3540 O   0  0  0  0  0  0  0  0  0  0  0  0
   36.2298  -31.6583    0.1919 H   0  0  0  0  0  0  0  0  0  0  0  0
   35.3388  -30.3114    0.9796 H   0  0  0  0  0  0  0  0  0  0  0  0
   34.0087  -31.0656   -1.6490 H   0  0  0  0  0  0  0  0  0  0  0  0
   33.1531  -31.8037    2.2519 H   0  0  0  0  0  0  0  0  0  0  0  0
   33.7763  -33.4064    1.7329 H   0  0  0  0  0  0  0  0  0  0  0  0
   34.8640  -31.9769    1.7329 H   0  0  0  0  0  0  0  0  0  0  0  0
   32.2881  -33.4691   -0.9582 H   0  0  0  0  0  0  0  0  0  0  0  0
   31.4861  -32.7771    0.5345 H   0  0  0  0  0  0  0  0  0  0  0  0
   30.4149  -31.2399   -0.6551 H   0  0  0  0  0  0  0  0  0  0  0  0
   31.9159  -30.7171   -1.4698 H   0  0  0  0  0  0  0  0  0  0  0  0
   31.5627  -32.4366   -3.3160 H   0  0  0  0  0  0  0  0  0  0  0  0
   29.1590  -32.7480   -0.4944 H   0  0  0  0  0  0  0  0  0  0  0  0
   28.1205  -31.7053   -1.5244 H   0  0  0  0  0  0  0  0  0  0  0  0
   27.8859  -33.4862   -1.5244 H   0  0  0  0  0  0  0  0  0  0  0  0
   28.5685  -32.8928   -4.4657 H   0  0  0  0  0  0  0  0  0  0  0  0
   30.1312  -33.8506   -4.3869 H   0  0  0  0  0  0  0  0  0  0  0  0
   29.0539  -35.7238   -3.8583 H   0  0  0  0  0  0  0  0  0  0  0  0
   28.1472  -34.9343   -2.5486 H   0  0  0  0  0  0  0  0  0  0  0  0
   26.8919  -33.8592   -4.9559 H   0  0  0  0  0  0  0  0  0  0  0  0
   26.8124  -37.1597   -3.0470 H   0  0  0  0  0  0  0  0  0  0  0  0
   26.1069  -37.9965   -4.4713 H   0  0  0  0  0  0  0  0  0  0  0  0
   27.8419  -37.5313   -4.4713 H   0  0  0  0  0  0  0  0  0  0  0  0
   24.3435  -35.6797   -5.0678 H   0  0  0  0  0  0  0  0  0  0  0  0
   25.3610  -34.8766   -6.3113 H   0  0  0  0  0  0  0  0  0  0  0  0
   25.1866  -36.6644   -6.3113 H   0  0  0  0  0  0  0  0  0  0  0  0
  1  2  1  0
  1  3  1  0
  2 17  1  0
  3  4  2  3
  4  5  1  0
  4  6  1  0
  6  7  1  0
  7  8  1  0
  8  9  2  3
  9 10  1  0
  9 11  1  0
 11 12  1  0
 12 13  1  0
 13 14  2  3
 14 15  1  0
 14 16  1  0
 17 18  2  0
 17 19  1  1
 17 20  1  0
 20 21  1  0
 21 22  2  0
 21 23  1  6
 21 24  1  0
  1 25  1  0
  1 26  1  0
  3 27  1  0
  5 28  1  0
  5 29  1  0
  5 30  1  0
  6 31  1  0
  6 32  1  0
  7 33  1  0
  7 34  1  0
  8 35  1  0
 10 36  1  0
 10 37  1  0
 10 38  1  0
 11 39  1  0
 11 40  1  0
 12 41  1  0
 12 42  1  0
 13 43  1  0
 15 44  1  0
 15 45  1  0
 15 46  1  0
 16 47  1  0
 16 48  1  0
 16 49  1  0
M  CHG  3  19  -1  23  -1  24  -1
M  END
>  <filename_input>  (22) 
7T0D_FPP_docked.sdf

>  <pdb_id>  (22) 
7T0D_FPP

>  <pose_rank>  (22) 
21

>  <num_atoms_heavy>  (22) 
24

>  <num_torsions>  (22) 
11

>  <pose>  (22) 
[34.25418969584764, -31.30145689585192, -0.6029656298852452, 1.4665413512854726, -0.962294074609707, 5.97522471490056, 1.6139026760444157, 1.4335850412203717, 3.087594959423194, 0.6478350745961701, 3.8934648217697028, -0.9252736754745468, -1.045427513931006, -1.2176483568159022, -2.518822699111919, -1.1813945208345376, -0.43729263444557753]

>  <energy>  (22) 
-677.4994721513699

>  <inter_energy>  (22) 
-680.6498811152517

>  <intra_energy>  (22) 
4.372952181147515

>  <rmsd>  (22) 
1.8184

>  <sdf_rank>  (22) 
0

$$$$

     RDKit          3D

 49 48  0  0  0  0  0  0  0  0999 V2000
   29.5674  -33.6083   -1.6409 C   0  0  0  0  0  0  0  0  0  0  0  0
   30.9630  -33.5715   -1.7206 O   0  0  0  0  0  0  0  0  0  0  0  0
   29.0151  -34.4904   -2.7587 C   0  0  0  0  0  0  0  0  0  0  0  0
   28.0471  -34.0223   -3.5147 C   0  0  0  0  0  0  0  0  0  0  0  0
   27.5203  -32.6333   -3.2211 C   0  0  0  0  0  0  0  0  0  0  0  0
   27.4085  -34.7914   -4.6731 C   0  0  0  0  0  0  0  0  0  0  0  0
   26.6864  -36.0623   -4.2472 C   0  0  0  0  0  0  0  0  0  0  0  0
   27.6300  -37.2472   -4.4826 C   0  0  0  0  0  0  0  0  0  0  0  0
   28.0144  -38.0242   -3.4865 C   0  0  0  0  0  0  0  0  0  0  0  0
   27.5399  -37.7509   -2.0604 C   0  0  0  0  0  0  0  0  0  0  0  0
   28.9787  -39.1917   -3.7290 C   0  0  0  0  0  0  0  0  0  0  0  0
   30.4233  -38.9160   -3.3150 C   0  0  0  0  0  0  0  0  0  0  0  0
   30.9565  -40.2000   -2.6752 C   0  0  0  0  0  0  0  0  0  0  0  0
   32.1631  -40.2846   -2.1602 C   0  0  0  0  0  0  0  0  0  0  0  0
   33.1011  -39.0789   -2.1602 C   0  0  0  0  0  0  0  0  0  0  0  0
   32.6237  -41.6089   -1.5521 C   0  0  0  0  0  0  0  0  0  0  0  0
   31.7078  -32.1016   -1.7321 P   0  0  2  0  0  0  0  0  0  0  0  0
   30.8771  -31.0754   -1.0051 O   0  0  0  0  0  0  0  0  0  0  0  0
   31.9688  -31.6879   -3.1626 O   0  0  0  0  0  0  0  0  0  0  0  0
   33.1317  -32.2269   -0.9182 O   0  0  0  0  0  0  0  0  0  0  0  0
   33.3118  -32.1861    0.7131 P   0  0  2  0  0  0  0  0  0  0  0  0
   32.3141  -31.2211    1.3051 O   0  0  0  0  0  0  0  0  0  0  0  0
   34.7200  -31.7847    1.0822 O   0  0  0  0  0  0  0  0  0  0  0  0
   33.0257  -33.5897    1.2134 O   0  0  0  0  0  0  0  0  0  0  0  0
   29.2668  -34.0206   -0.6663 H   0  0  0  0  0  0  0  0  0  0  0  0
   29.1677  -32.5890   -1.7476 H   0  0  0  0  0  0  0  0  0  0  0  0
   29.4200  -35.4991   -2.9280 H   0  0  0  0  0  0  0  0  0  0  0  0
   27.4641  -32.4851   -2.1326 H   0  0  0  0  0  0  0  0  0  0  0  0
   28.1969  -31.8845   -3.6587 H   0  0  0  0  0  0  0  0  0  0  0  0
   26.5173  -32.5215   -3.6587 H   0  0  0  0  0  0  0  0  0  0  0  0
   26.6825  -34.1304   -5.1690 H   0  0  0  0  0  0  0  0  0  0  0  0
   28.2264  -35.0981   -5.3416 H   0  0  0  0  0  0  0  0  0  0  0  0
   26.4225  -36.0018   -3.1811 H   0  0  0  0  0  0  0  0  0  0  0  0
   25.7623  -36.1892   -4.8301 H   0  0  0  0  0  0  0  0  0  0  0  0
   27.9936  -37.4540   -5.4999 H   0  0  0  0  0  0  0  0  0  0  0  0
   28.2649  -38.1685   -1.3463 H   0  0  0  0  0  0  0  0  0  0  0  0
   27.4548  -36.6654   -1.9040 H   0  0  0  0  0  0  0  0  0  0  0  0
   26.5582  -38.2219   -1.9040 H   0  0  0  0  0  0  0  0  0  0  0  0
   28.6175  -40.0600   -3.1584 H   0  0  0  0  0  0  0  0  0  0  0  0
   28.9921  -39.3664   -4.8149 H   0  0  0  0  0  0  0  0  0  0  0  0
   31.0260  -38.6546   -4.1972 H   0  0  0  0  0  0  0  0  0  0  0  0
   30.4762  -38.0737   -2.6094 H   0  0  0  0  0  0  0  0  0  0  0  0
   30.3053  -41.0859   -2.6452 H   0  0  0  0  0  0  0  0  0  0  0  0
   33.3263  -38.7895   -1.1231 H   0  0  0  0  0  0  0  0  0  0  0  0
   34.0352  -39.3410   -2.6787 H   0  0  0  0  0  0  0  0  0  0  0  0
   32.6174  -38.2380   -2.6787 H   0  0  0  0  0  0  0  0  0  0  0  0
   32.5987  -41.5369   -0.4548 H   0  0  0  0  0  0  0  0  0  0  0  0
   31.9537  -42.4165   -1.8820 H   0  0  0  0  0  0  0  0  0  0  0  0
   33.6503  -41.8264   -1.8820 H   0  0  0  0  0  0  0  0  0  0  0  0
  1  2  1  0
  1  3  1  0
  2 17  1  0
  3  4  2  3
  4  5  1  0
  4  6  1  0
  6  7  1  0
  7  8  1  0
  8  9  2  3
  9 10  1  0
  9 11  1  0
 11 12  1  0
 12 13  1  0
 13 14  2  3
 14 15  1  0
 14 16  1  0
 17 18  2  0
 17 19  1  6
 17 20  1  0
 20 21  1  0
 21 22  2  0
 21 23  1  6
 21 24  1  0
  1 25  1  0
  1 26  1  0
  3 27  1  0
  5 28  1  0
  5 29  1  0
  5 30  1  0
  6 31  1  0
  6 32  1  0
  7 33  1  0
  7 34  1  0
  8 35  1  0
 10 36  1  0
 10 37  1  0
 10 38  1  0
 11 39  1  0
 11 40  1  0
 12 41  1  0
 12 42  1  0
 13 43  1  0
 15 44  1  0
 15 45  1  0
 15 46  1  0
 16 47  1  0
 16 48  1  0
 16 49  1  0
M  CHG  3  19  -1  23  -1  24  -1
M  END
>  <filename_input>  (23) 
7T0D_FPP_docked.sdf

>  <pdb_id>  (23) 
7T0D_FPP

>  <pose_rank>  (23) 
22

>  <num_atoms_heavy>  (23) 
24

>  <num_torsions>  (23) 
11

>  <pose>  (23) 
[29.015089992271044, -34.49040569992367, -2.7586844654770935, -1.2026977658355757, -1.2872596244426302, -0.9318824580804308, 14.881321173008505, 43.88119887343162, 15.960938930995983, -15.707420140221169, 4.528186892133809, -49.358327211475455, 82.92626562775551, 80.81936336716237, -34.51734056799901, -13.593079930636572, 25.017373200675085]

>  <energy>  (23) 
-356.16498948562463

>  <inter_energy>  (23) 
-372.89650786260177

>  <intra_energy>  (23) 
16.61326635107741

>  <rmsd>  (23) 
7.03533

>  <sdf_rank>  (23) 
0

$$$$

     RDKit          3D

 49 48  0  0  0  0  0  0  0  0999 V2000
   38.7156  -29.7216   -3.4667 C   0  0  0  0  0  0  0  0  0  0  0  0
   37.9594  -30.2432   -2.4123 O   0  0  0  0  0  0  0  0  0  0  0  0
   40.0934  -30.3805   -3.4817 C   0  0  0  0  0  0  0  0  0  0  0  0
   41.1578  -29.6192   -3.6059 C   0  0  0  0  0  0  0  0  0  0  0  0
   40.9543  -28.1251   -3.7449 C   0  0  0  0  0  0  0  0  0  0  0  0
   42.5953  -30.1428   -3.6262 C   0  0  0  0  0  0  0  0  0  0  0  0
   43.2804  -30.1198   -2.2668 C   0  0  0  0  0  0  0  0  0  0  0  0
   42.7736  -31.3194   -1.4582 C   0  0  0  0  0  0  0  0  0  0  0  0
   42.0514  -31.1522   -0.3655 C   0  0  0  0  0  0  0  0  0  0  0  0
   41.7139  -29.7490    0.1354 C   0  0  0  0  0  0  0  0  0  0  0  0
   41.5708  -32.3588    0.4500 C   0  0  0  0  0  0  0  0  0  0  0  0
   41.5659  -33.6799   -0.3173 C   0  0  0  0  0  0  0  0  0  0  0  0
   41.7325  -34.7963    0.7163 C   0  0  0  0  0  0  0  0  0  0  0  0
   40.9425  -35.8464    0.7559 C   0  0  0  0  0  0  0  0  0  0  0  0
   39.8110  -36.0140   -0.2566 C   0  0  0  0  0  0  0  0  0  0  0  0
   41.1686  -36.9103    1.8295 C   0  0  0  0  0  0  0  0  0  0  0  0
   37.2437  -29.1900   -1.3665 P   0  0  2  0  0  0  0  0  0  0  0  0
   38.2255  -28.7219   -0.3232 O   0  0  0  0  0  0  0  0  0  0  0  0
   36.0424  -29.8560   -0.7348 O   0  0  0  0  0  0  0  0  0  0  0  0
   36.7669  -27.8578   -2.2054 O   0  0  0  0  0  0  0  0  0  0  0  0
   37.1724  -26.3063   -1.8542 P   0  0  2  0  0  0  0  0  0  0  0  0
   36.5580  -25.3822   -2.8767 O   0  0  0  0  0  0  0  0  0  0  0  0
   38.6733  -26.1426   -1.8266 O   0  0  0  0  0  0  0  0  0  0  0  0
   36.5942  -26.0097   -0.4830 O   0  0  0  0  0  0  0  0  0  0  0  0
   38.2032  -29.9220   -4.4192 H   0  0  0  0  0  0  0  0  0  0  0  0
   38.8304  -28.6359   -3.3326 H   0  0  0  0  0  0  0  0  0  0  0  0
   40.1932  -31.4721   -3.3904 H   0  0  0  0  0  0  0  0  0  0  0  0
   40.8922  -27.6690   -2.7459 H   0  0  0  0  0  0  0  0  0  0  0  0
   41.8014  -27.6893   -4.2949 H   0  0  0  0  0  0  0  0  0  0  0  0
   40.0215  -27.9317   -4.2949 H   0  0  0  0  0  0  0  0  0  0  0  0
   42.5803  -31.1813   -3.9888 H   0  0  0  0  0  0  0  0  0  0  0  0
   43.1692  -29.4735   -4.2839 H   0  0  0  0  0  0  0  0  0  0  0  0
   44.3703  -30.1917   -2.3972 H   0  0  0  0  0  0  0  0  0  0  0  0
   43.0518  -29.1813   -1.7405 H   0  0  0  0  0  0  0  0  0  0  0  0
   43.0160  -32.3383   -1.7944 H   0  0  0  0  0  0  0  0  0  0  0  0
   41.7125  -29.7429    1.2354 H   0  0  0  0  0  0  0  0  0  0  0  0
   42.4665  -29.0369   -0.2342 H   0  0  0  0  0  0  0  0  0  0  0  0
   40.7199  -29.4569   -0.2342 H   0  0  0  0  0  0  0  0  0  0  0  0
   42.2325  -32.4700    1.3216 H   0  0  0  0  0  0  0  0  0  0  0  0
   40.5262  -32.1536    0.7267 H   0  0  0  0  0  0  0  0  0  0  0  0
   40.6139  -33.8014   -0.8549 H   0  0  0  0  0  0  0  0  0  0  0  0
   42.3775  -33.7067   -1.0593 H   0  0  0  0  0  0  0  0  0  0  0  0
   42.5443  -34.7171    1.4543 H   0  0  0  0  0  0  0  0  0  0  0  0
   38.8594  -36.1549    0.2769 H   0  0  0  0  0  0  0  0  0  0  0  0
   39.7478  -35.1154   -0.8880 H   0  0  0  0  0  0  0  0  0  0  0  0
   40.0110  -36.8923   -0.8880 H   0  0  0  0  0  0  0  0  0  0  0  0
   41.0714  -36.4528    2.8252 H   0  0  0  0  0  0  0  0  0  0  0  0
   40.4200  -37.7085    1.7181 H   0  0  0  0  0  0  0  0  0  0  0  0
   42.1771  -37.3352    1.7181 H   0  0  0  0  0  0  0  0  0  0  0  0
  1  2  1  0
  1  3  1  0
  2 17  1  0
  3  4  2  3
  4  5  1  0
  4  6  1  0
  6  7  1  0
  7  8  1  0
  8  9  2  3
  9 10  1  0
  9 11  1  0
 11 12  1  0
 12 13  1  0
 13 14  2  3
 14 15  1  0
 14 16  1  0
 17 18  2  0
 17 19  1  1
 17 20  1  0
 20 21  1  0
 21 22  2  0
 21 23  1  1
 21 24  1  0
  1 25  1  0
  1 26  1  0
  3 27  1  0
  5 28  1  0
  5 29  1  0
  5 30  1  0
  6 31  1  0
  6 32  1  0
  7 33  1  0
  7 34  1  0
  8 35  1  0
 10 36  1  0
 10 37  1  0
 10 38  1  0
 11 39  1  0
 11 40  1  0
 12 41  1  0
 12 42  1  0
 13 43  1  0
 15 44  1  0
 15 45  1  0
 15 46  1  0
 16 47  1  0
 16 48  1  0
 16 49  1  0
M  CHG  3  19  -1  23  -1  24  -1
M  END
>  <filename_input>  (24) 
7T0D_FPP_docked.sdf

>  <pdb_id>  (24) 
7T0D_FPP

>  <pose_rank>  (24) 
23

>  <num_atoms_heavy>  (24) 
24

>  <num_torsions>  (24) 
11

>  <pose>  (24) 
[40.0934040904984, -30.380457644505846, -3.4817458960703154, -0.4357608593372054, 1.6954783826133495, 2.1152408832726683, 2.262698843891365, -0.10063306946808324, 1.479599746367033, 2.3641433460005, 1.9883516472914244, -14.416592737224503, 4.323551728026986, 7.6205563653681025, 1.0565251565617724, -0.800848111650811, -1.031459030642733]

>  <energy>  (24) 
-369.9715864545112

>  <inter_energy>  (24) 
-371.69569361380974

>  <intra_energy>  (24) 
9.298727963314095

>  <rmsd>  (24) 
9.77794

>  <sdf_rank>  (24) 
0

$$$$

     RDKit          3D

 49 48  0  0  0  0  0  0  0  0999 V2000
   38.3712  -28.8249   -2.1585 C   0  0  0  0  0  0  0  0  0  0  0  0
   38.5370  -27.4365   -2.1407 O   0  0  0  0  0  0  0  0  0  0  0  0
   37.0060  -29.1837   -1.5754 C   0  0  0  0  0  0  0  0  0  0  0  0
   36.9066  -30.2408   -0.8005 C   0  0  0  0  0  0  0  0  0  0  0  0
   38.1558  -31.0568   -0.5428 C   0  0  0  0  0  0  0  0  0  0  0  0
   35.6069  -30.7091   -0.1429 C   0  0  0  0  0  0  0  0  0  0  0  0
   35.7813  -31.8972    0.7930 C   0  0  0  0  0  0  0  0  0  0  0  0
   34.7338  -31.7837    1.9063 C   0  0  0  0  0  0  0  0  0  0  0  0
   33.8824  -32.7638    2.1474 C   0  0  0  0  0  0  0  0  0  0  0  0
   33.9071  -34.0388    1.3061 C   0  0  0  0  0  0  0  0  0  0  0  0
   32.8219  -32.6296    3.2470 C   0  0  0  0  0  0  0  0  0  0  0  0
   32.6188  -33.8891    4.0876 C   0  0  0  0  0  0  0  0  0  0  0  0
   31.5833  -33.5463    5.1612 C   0  0  0  0  0  0  0  0  0  0  0  0
   31.2411  -34.3912    6.1085 C   0  0  0  0  0  0  0  0  0  0  0  0
   31.8847  -35.7740    6.1946 C   0  0  0  0  0  0  0  0  0  0  0  0
   30.1880  -33.9752    7.1349 C   0  0  0  0  0  0  0  0  0  0  0  0
   39.8230  -26.7915   -2.9441 P   0  0  2  0  0  0  0  0  0  0  0  0
   39.5584  -25.3535   -3.3102 O   0  0  0  0  0  0  0  0  0  0  0  0
   40.1145  -27.6284   -4.1689 O   0  0  0  0  0  0  0  0  0  0  0  0
   41.1266  -26.7966   -1.9409 O   0  0  0  0  0  0  0  0  0  0  0  0
   42.6970  -26.8999   -2.4080 P   0  0  2  0  0  0  0  0  0  0  0  0
   43.5901  -26.4898   -1.2629 O   0  0  0  0  0  0  0  0  0  0  0  0
   42.9505  -26.0292   -3.6155 O   0  0  0  0  0  0  0  0  0  0  0  0
   42.9478  -28.3550   -2.7574 O   0  0  0  0  0  0  0  0  0  0  0  0
   38.4339  -29.1881   -3.1950 H   0  0  0  0  0  0  0  0  0  0  0  0
   39.1619  -29.2957   -1.5558 H   0  0  0  0  0  0  0  0  0  0  0  0
   36.1220  -28.5687   -1.7999 H   0  0  0  0  0  0  0  0  0  0  0  0
   38.3106  -31.1578    0.5416 H   0  0  0  0  0  0  0  0  0  0  0  0
   38.0411  -32.0546   -0.9913 H   0  0  0  0  0  0  0  0  0  0  0  0
   39.0234  -30.5507   -0.9913 H   0  0  0  0  0  0  0  0  0  0  0  0
   35.1900  -29.8713    0.4353 H   0  0  0  0  0  0  0  0  0  0  0  0
   34.9395  -31.0370   -0.9535 H   0  0  0  0  0  0  0  0  0  0  0  0
   35.6343  -32.8348    0.2368 H   0  0  0  0  0  0  0  0  0  0  0  0
   36.7944  -31.8995    1.2215 H   0  0  0  0  0  0  0  0  0  0  0  0
   34.6905  -30.8689    2.5156 H   0  0  0  0  0  0  0  0  0  0  0  0
   33.9242  -34.9158    1.9699 H   0  0  0  0  0  0  0  0  0  0  0  0
   33.0096  -34.0767    0.6714 H   0  0  0  0  0  0  0  0  0  0  0  0
   34.8055  -34.0419    0.6714 H   0  0  0  0  0  0  0  0  0  0  0  0
   33.1250  -31.8131    3.9189 H   0  0  0  0  0  0  0  0  0  0  0  0
   31.8662  -32.4353    2.7382 H   0  0  0  0  0  0  0  0  0  0  0  0
   32.2502  -34.7102    3.4554 H   0  0  0  0  0  0  0  0  0  0  0  0
   33.5654  -34.2142    4.5439 H   0  0  0  0  0  0  0  0  0  0  0  0
   31.1072  -32.5549    5.1395 H   0  0  0  0  0  0  0  0  0  0  0  0
   32.0145  -36.0529    7.2507 H   0  0  0  0  0  0  0  0  0  0  0  0
   31.2373  -36.5114    5.6976 H   0  0  0  0  0  0  0  0  0  0  0  0
   32.8658  -35.7534    5.6976 H   0  0  0  0  0  0  0  0  0  0  0  0
   30.5831  -34.1313    8.1495 H   0  0  0  0  0  0  0  0  0  0  0  0
   29.9415  -32.9121    6.9969 H   0  0  0  0  0  0  0  0  0  0  0  0
   29.2815  -34.5827    6.9969 H   0  0  0  0  0  0  0  0  0  0  0  0
  1  2  1  0
  1  3  1  0
  2 17  1  0
  3  4  2  3
  4  5  1  0
  4  6  1  0
  6  7  1  0
  7  8  1  0
  8  9  2  3
  9 10  1  0
  9 11  1  0
 11 12  1  0
 12 13  1  0
 13 14  2  3
 14 15  1  0
 14 16  1  0
 17 18  2  0
 17 19  1  6
 17 20  1  0
 20 21  1  0
 21 22  2  0
 21 23  1  6
 21 24  1  0
  1 25  1  0
  1 26  1  0
  3 27  1  0
  5 28  1  0
  5 29  1  0
  5 30  1  0
  6 31  1  0
  6 32  1  0
  7 33  1  0
  7 34  1  0
  8 35  1  0
 10 36  1  0
 10 37  1  0
 10 38  1  0
 11 39  1  0
 11 40  1  0
 12 41  1  0
 12 42  1  0
 13 43  1  0
 15 44  1  0
 15 45  1  0
 15 46  1  0
 16 47  1  0
 16 48  1  0
 16 49  1  0
M  CHG  3  19  -1  23  -1  24  -1
M  END
>  <filename_input>  (25) 
7T0D_FPP_docked.sdf

>  <pdb_id>  (25) 
7T0D_FPP

>  <pose_rank>  (25) 
24

>  <num_atoms_heavy>  (25) 
24

>  <num_torsions>  (25) 
11

>  <pose>  (25) 
[37.00596240046642, -29.183707088201828, -1.5754268947472585, 0.4247207399723304, 0.9854843647827835, -0.1260551093329021, 2.130168066754965, 0.9735935745391014, -0.6404591822818994, -5.373955674080726, -4.549739517048067, -22.112555677327357, -19.577286696654543, -7.067697845753413, -7.298144691398846, -6.664387886324124, -0.08651430077260573]

>  <energy>  (25) 
-320.855673505628

>  <inter_energy>  (25) 
-321.9446566597078

>  <intra_energy>  (25) 
0.9808924628035295

>  <rmsd>  (25) 
7.04089

>  <sdf_rank>  (25) 
0

$$$$

     RDKit          3D

 49 48  0  0  0  0  0  0  0  0999 V2000
   35.6110  -30.4420    0.4230 C   0  0  0  0  0  0  0  0  0  0  0  0
   36.7010  -31.2480    0.0800 O   0  0  0  0  0  0  0  0  0  0  0  0
   34.3420  -30.9990   -0.2190 C   0  0  0  0  0  0  0  0  0  0  0  0
   33.5530  -31.7660    0.5000 C   0  0  0  0  0  0  0  0  0  0  0  0
   33.9590  -32.0690    1.9270 C   0  0  0  0  0  0  0  0  0  0  0  0
   32.2490  -32.3820   -0.0110 C   0  0  0  0  0  0  0  0  0  0  0  0
   32.0590  -32.2650   -1.5170 C   0  0  0  0  0  0  0  0  0  0  0  0
   30.6190  -32.6730   -1.8480 C   0  0  0  0  0  0  0  0  0  0  0  0
   30.1080  -32.4670   -3.0480 C   0  0  0  0  0  0  0  0  0  0  0  0
   30.9380  -31.7960   -4.1410 C   0  0  0  0  0  0  0  0  0  0  0  0
   28.6580  -32.8560   -3.3610 C   0  0  0  0  0  0  0  0  0  0  0  0
   28.4520  -34.3390   -3.6650 C   0  0  0  0  0  0  0  0  0  0  0  0
   27.1190  -34.4610   -4.4070 C   0  0  0  0  0  0  0  0  0  0  0  0
   26.5540  -35.6210   -4.6590 C   0  0  0  0  0  0  0  0  0  0  0  0
   27.2040  -36.9250   -4.2000 C   0  0  0  0  0  0  0  0  0  0  0  0
   25.2280  -35.6560   -5.4180 C   0  0  0  0  0  0  0  0  0  0  0  0
   38.0910  -30.5150   -0.4160 P   0  0  2  0  0  0  0  0  0  0  0  0
   39.0290  -31.5150   -1.0420 O   0  0  0  0  0  0  0  0  0  0  0  0
   38.7330  -29.8180    0.7620 O   0  0  0  0  0  0  0  0  0  0  0  0
   37.7190  -29.4150   -1.5810 O   0  0  0  0  0  0  0  0  0  0  0  0
   37.5480  -27.7980   -1.3550 P   0  0  2  0  0  0  0  0  0  0  0  0
   38.8730  -27.2050   -0.9430 O   0  0  0  0  0  0  0  0  0  0  0  0
   36.4940  -27.5160   -0.3110 O   0  0  0  0  0  0  0  0  0  0  0  0
   37.1210  -27.2190   -2.6910 O   0  0  0  0  0  0  0  0  0  0  0  0
   35.4936  -30.4305    1.5167 H   0  0  0  0  0  0  0  0  0  0  0  0
   35.7850  -29.4178    0.0613 H   0  0  0  0  0  0  0  0  0  0  0  0
   34.0929  -30.7626   -1.2640 H   0  0  0  0  0  0  0  0  0  0  0  0
   33.2741  -31.5578    2.6195 H   0  0  0  0  0  0  0  0  0  0  0  0
   33.9118  -33.1544    2.0991 H   0  0  0  0  0  0  0  0  0  0  0  0
   34.9861  -31.7149    2.0991 H   0  0  0  0  0  0  0  0  0  0  0  0
   32.2418  -33.4488    0.2570 H   0  0  0  0  0  0  0  0  0  0  0  0
   31.4265  -31.8225    0.4586 H   0  0  0  0  0  0  0  0  0  0  0  0
   32.2351  -31.2270   -1.8356 H   0  0  0  0  0  0  0  0  0  0  0  0
   32.7708  -32.9182   -2.0430 H   0  0  0  0  0  0  0  0  0  0  0  0
   29.9999  -33.1461   -1.0715 H   0  0  0  0  0  0  0  0  0  0  0  0
   31.7142  -31.1685   -3.6788 H   0  0  0  0  0  0  0  0  0  0  0  0
   31.4134  -32.5666   -4.7656 H   0  0  0  0  0  0  0  0  0  0  0  0
   30.2840  -31.1697   -4.7656 H   0  0  0  0  0  0  0  0  0  0  0  0
   28.0366  -32.5938   -2.4920 H   0  0  0  0  0  0  0  0  0  0  0  0
   28.3764  -32.3076   -4.2720 H   0  0  0  0  0  0  0  0  0  0  0  0
   29.2716  -34.7129   -4.2962 H   0  0  0  0  0  0  0  0  0  0  0  0
   28.4423  -34.9326   -2.7390 H   0  0  0  0  0  0  0  0  0  0  0  0
   26.6143  -33.5429   -4.7423 H   0  0  0  0  0  0  0  0  0  0  0  0
   27.2210  -36.9591   -3.1007 H   0  0  0  0  0  0  0  0  0  0  0  0
   26.6257  -37.7781   -4.5844 H   0  0  0  0  0  0  0  0  0  0  0  0
   28.2333  -36.9768   -4.5844 H   0  0  0  0  0  0  0  0  0  0  0  0
   24.3950  -35.6780   -4.6999 H   0  0  0  0  0  0  0  0  0  0  0  0
   25.1436  -34.7598   -6.0502 H   0  0  0  0  0  0  0  0  0  0  0  0
   25.1910  -36.5554   -6.0502 H   0  0  0  0  0  0  0  0  0  0  0  0
  1  2  1  0
  1  3  1  0
  2 17  1  0
  3  4  2  3
  4  5  1  0
  4  6  1  0
  6  7  1  0
  7  8  1  0
  8  9  2  3
  9 10  1  0
  9 11  1  0
 11 12  1  0
 12 13  1  0
 13 14  2  3
 14 15  1  0
 14 16  1  0
 17 18  2  0
 17 19  1  1
 17 20  1  0
 20 21  1  0
 21 22  2  0
 21 23  1  1
 21 24  1  0
  1 25  1  0
  1 26  1  0
  3 27  1  0
  5 28  1  0
  5 29  1  0
  5 30  1  0
  6 31  1  0
  6 32  1  0
  7 33  1  0
  7 34  1  0
  8 35  1  0
 10 36  1  0
 10 37  1  0
 10 38  1  0
 11 39  1  0
 11 40  1  0
 12 41  1  0
 12 42  1  0
 13 43  1  0
 15 44  1  0
 15 45  1  0
 15 46  1  0
 16 47  1  0
 16 48  1  0
 16 49  1  0
M  CHG  3  19  -1  23  -1  24  -1
M  END
>  <filename_input>  (26) 
7T0D_FPP_docked.sdf

>  <pdb_id>  (26) 
7T0D_FPP

>  <pose_rank>  (26) 
25

>  <num_atoms_heavy>  (26) 
24

>  <num_torsions>  (26) 
11

>  <pose>  (26) 
[34.342, -30.999, -0.219, 1e-06, 1e-06, 1e-06, 0.0, 0.0, 0.0, 0.0, 0.0, 0.0, 0.0, 0.0, 0.0, 0.0, 0.0]

>  <energy>  (26) 
-753.8549959818614

>  <inter_energy>  (26) 
-770.5448405253161

>  <intra_energy>  (26) 
11.89365785125124

>  <rmsd>  (26) 
0.0

>  <sdf_rank>  (26) 
0

$$$$
