
     RDKit          3D

 60 65  0  0  0  0  0  0  0  0999 V2000
   21.9403   -8.1262   29.0107 N   0  0  0  0  0  0  0  0  0  0  0  0
   26.0579   -7.6774   20.9755 N   0  0  0  0  0  0  0  0  0  0  0  0
   23.5981   -6.7741   27.7299 C   0  0  0  0  0  0  0  0  0  0  0  0
   21.5956   -7.2612   25.4957 C   0  0  0  0  0  0  0  0  0  0  0  0
   20.6227   -6.3238   25.0246 C   0  0  0  0  0  0  0  0  0  0  0  0
   20.6969   -5.8580   23.6834 C   0  0  0  0  0  0  0  0  0  0  0  0
   21.7010   -6.2688   22.8339 C   0  0  0  0  0  0  0  0  0  0  0  0
   22.5248   -6.6988   20.5597 C   0  0  0  0  0  0  0  0  0  0  0  0
   22.5957   -7.6998   24.6532 C   0  0  0  0  0  0  0  0  0  0  0  0
   27.0568   -7.6851   19.9950 C   0  0  0  0  0  0  0  0  0  0  0  0
   27.7090   -7.1023   17.6446 C   0  0  0  0  0  0  0  0  0  0  0  0
   26.9663   -7.7943   14.0287 C   0  0  0  0  0  0  0  0  0  0  0  0
   26.2155   -9.0097   14.0867 C   0  0  0  0  0  0  0  0  0  0  0  0
   26.0104   -9.6530   15.2865 C   0  0  0  0  0  0  0  0  0  0  0  0
   25.7435   -8.9657   11.6651 C   0  0  0  0  0  0  0  0  0  0  0  0
   24.6266  -10.8406   11.6104 C   0  0  0  0  0  0  0  0  0  0  0  0
   22.3696   -7.5548   27.8984 C   0  0  0  0  0  0  0  0  0  0  0  0
   20.7126   -8.7174   28.6673 C   0  0  0  0  0  0  0  0  0  0  0  0
   19.9176   -9.4810   29.6324 C   0  0  0  0  0  0  0  0  0  0  0  0
   21.4774   -7.7583   26.8320 N   0  0  0  0  0  0  0  0  0  0  0  0
   20.4036   -8.5049   27.3203 C   0  0  0  0  0  0  0  0  0  0  0  0
   22.6548   -7.2069   23.3410 C   0  0  0  0  0  0  0  0  0  0  0  0
   23.7958   -7.6964   22.5249 C   0  0  0  0  0  0  0  0  0  0  0  0
   23.8219   -7.0647   21.2051 N   0  0  0  0  0  0  0  0  0  0  0  0
   21.8112   -5.7363   21.4602 C   0  0  0  0  0  0  0  0  0  0  0  0
   24.9765   -7.2009   20.4652 C   0  0  0  0  0  0  0  0  0  0  0  0
   25.1032   -6.6581   18.8419 S   0  0  0  0  0  0  0  0  0  0  0  0
   26.7497   -7.1700   18.7963 C   0  0  0  0  0  0  0  0  0  0  0  0
   27.1828   -7.8352   16.4038 C   0  0  0  0  0  0  0  0  0  0  0  0
   26.4897   -9.1042   16.4718 C   0  0  0  0  0  0  0  0  0  0  0  0
   27.4020   -7.2463   15.1895 C   0  0  0  0  0  0  0  0  0  0  0  0
   25.7111   -9.5501   12.9318 N   0  0  0  0  0  0  0  0  0  0  0  0
   24.9714  -10.7035   12.8902 N   0  0  0  0  0  0  0  0  0  0  0  0
   25.0621   -9.7517   10.8071 C   0  0  0  0  0  0  0  0  0  0  0  0
   24.0062   -6.5147   28.7179 H   0  0  0  0  0  0  0  0  0  0  0  0
   24.3369   -7.3687   27.1726 H   0  0  0  0  0  0  0  0  0  0  0  0
   23.3735   -5.8527   27.1726 H   0  0  0  0  0  0  0  0  0  0  0  0
   19.8255   -5.9671   25.6933 H   0  0  0  0  0  0  0  0  0  0  0  0
   19.9359   -5.1540   23.3157 H   0  0  0  0  0  0  0  0  0  0  0  0
   22.7140   -6.2265   19.5844 H   0  0  0  0  0  0  0  0  0  0  0  0
   21.9115   -7.5979   20.4007 H   0  0  0  0  0  0  0  0  0  0  0  0
   23.3396   -8.4290   25.0067 H   0  0  0  0  0  0  0  0  0  0  0  0
   28.0555   -8.0980   20.2004 H   0  0  0  0  0  0  0  0  0  0  0  0
   27.8777   -6.0465   17.3866 H   0  0  0  0  0  0  0  0  0  0  0  0
   28.6423   -7.5946   17.9552 H   0  0  0  0  0  0  0  0  0  0  0  0
   27.1856   -7.3145   13.0634 H   0  0  0  0  0  0  0  0  0  0  0  0
   25.4639  -10.6074   15.3082 H   0  0  0  0  0  0  0  0  0  0  0  0
   26.2426   -8.0196   11.4087 H   0  0  0  0  0  0  0  0  0  0  0  0
   24.0662  -11.7022   11.2183 H   0  0  0  0  0  0  0  0  0  0  0  0
   20.2114   -9.1988   30.6542 H   0  0  0  0  0  0  0  0  0  0  0  0
   18.8501   -9.2609   29.4838 H   0  0  0  0  0  0  0  0  0  0  0  0
   20.0944  -10.5565   29.4838 H   0  0  0  0  0  0  0  0  0  0  0  0
   19.5154   -8.8484   26.7699 H   0  0  0  0  0  0  0  0  0  0  0  0
   24.7350   -7.4667   23.0496 H   0  0  0  0  0  0  0  0  0  0  0  0
   23.6800   -8.7814   22.3857 H   0  0  0  0  0  0  0  0  0  0  0  0
   20.8012   -5.5557   21.0635 H   0  0  0  0  0  0  0  0  0  0  0  0
   22.3880   -4.8003   21.4954 H   0  0  0  0  0  0  0  0  0  0  0  0
   26.3461   -9.6197   17.4328 H   0  0  0  0  0  0  0  0  0  0  0  0
   27.9513   -6.2940   15.1532 H   0  0  0  0  0  0  0  0  0  0  0  0
   24.8844   -9.5880    9.7340 H   0  0  0  0  0  0  0  0  0  0  0  0
  1 17  2  0
  1 18  1  0
  2 10  1  0
  2 26  2  0
  3 17  1  0
  4  5  2  0
  4  9  1  0
  4 20  1  0
  5  6  1  0
  6  7  2  0
  7 22  1  0
  7 25  1  0
  8 24  1  0
  8 25  1  0
  9 22  2  0
 10 28  2  0
 11 28  1  0
 11 29  1  0
 12 13  2  0
 12 31  1  0
 13 14  1  0
 13 32  1  0
 14 30  2  0
 15 32  1  0
 15 34  2  0
 16 33  2  0
 16 34  1  0
 17 20  1  0
 18 19  1  0
 18 21  2  0
 20 21  1  0
 22 23  1  0
 23 24  1  0
 24 26  1  0
 26 27  1  0
 27 28  1  0
 29 30  1  0
 29 31  2  0
 32 33  1  0
  3 35  1  0
  3 36  1  0
  3 37  1  0
  5 38  1  0
  6 39  1  0
  8 40  1  0
  8 41  1  0
  9 42  1  0
 10 43  1  0
 11 44  1  0
 11 45  1  0
 12 46  1  0
 14 47  1  0
 15 48  1  0
 16 49  1  0
 19 50  1  0
 19 51  1  0
 19 52  1  0
 21 53  1  0
 23 54  1  0
 23 55  1  0
 25 56  1  0
 25 57  1  0
 30 58  1  0
 31 59  1  0
 34 60  1  0
M  END
>  <filename_input>  (1) 
7T1D_E7K_docked.sdf

>  <pdb_id>  (1) 
7T1D_E7K

>  <pose_rank>  (1) 
0

>  <num_atoms_heavy>  (1) 
34

>  <num_torsions>  (1) 
4

>  <pose>  (1) 
[26.057887131386273, -7.677393994876099, 20.975464241877525, 6.2344791870078, 0.3156567353997542, -0.13263739297049573, 0.23758268924278295, 0.07403517014873504, -0.2569640231012453, 0.22873879277080875]

>  <energy>  (1) 
-1029.7227556667024

>  <inter_energy>  (1) 
-1028.0714310258725

>  <intra_energy>  (1) 
7.146877263679495

>  <rmsd>  (1) 
0.609741

>  <sdf_rank>  (1) 
0

$$$$

     RDKit          3D

 60 65  0  0  0  0  0  0  0  0999 V2000
   25.6500  -10.6950   12.9791 N   0  0  0  0  0  0  0  0  0  0  0  0
   22.1441   -7.5036   20.7686 N   0  0  0  0  0  0  0  0  0  0  0  0
   25.5239  -11.6947   15.2598 C   0  0  0  0  0  0  0  0  0  0  0  0
   26.2102   -8.8433   16.0580 C   0  0  0  0  0  0  0  0  0  0  0  0
   27.4996   -8.4008   16.4927 C   0  0  0  0  0  0  0  0  0  0  0  0
   27.6737   -7.9799   17.8395 C   0  0  0  0  0  0  0  0  0  0  0  0
   26.6220   -7.9633   18.7295 C   0  0  0  0  0  0  0  0  0  0  0  0
   25.7796   -8.0743   21.0347 C   0  0  0  0  0  0  0  0  0  0  0  0
   25.1504   -8.8534   16.9406 C   0  0  0  0  0  0  0  0  0  0  0  0
   21.2679   -7.1250   21.7924 C   0  0  0  0  0  0  0  0  0  0  0  0
   21.0016   -6.3857   24.1739 C   0  0  0  0  0  0  0  0  0  0  0  0
   20.8986   -8.2661   27.4233 C   0  0  0  0  0  0  0  0  0  0  0  0
   22.2484   -8.1734   27.8857 C   0  0  0  0  0  0  0  0  0  0  0  0
   23.2158   -7.5694   27.1145 C   0  0  0  0  0  0  0  0  0  0  0  0
   23.8742   -8.8109   29.6290 C   0  0  0  0  0  0  0  0  0  0  0  0
   22.4305   -9.7716   30.9552 C   0  0  0  0  0  0  0  0  0  0  0  0
   25.7407  -10.6129   14.2955 C   0  0  0  0  0  0  0  0  0  0  0  0
   25.9099   -9.3950   12.5133 C   0  0  0  0  0  0  0  0  0  0  0  0
   25.9283   -9.0672   11.0854 C   0  0  0  0  0  0  0  0  0  0  0  0
   26.0634   -9.3108   14.7139 N   0  0  0  0  0  0  0  0  0  0  0  0
   26.1712   -8.5176   13.5702 C   0  0  0  0  0  0  0  0  0  0  0  0
   25.3484   -8.4132   18.2579 C   0  0  0  0  0  0  0  0  0  0  0  0
   24.1383   -8.4111   19.1201 C   0  0  0  0  0  0  0  0  0  0  0  0
   24.4238   -7.8583   20.4446 N   0  0  0  0  0  0  0  0  0  0  0  0
   26.7920   -7.4675   20.1109 C   0  0  0  0  0  0  0  0  0  0  0  0
   23.3440   -7.5268   21.2340 C   0  0  0  0  0  0  0  0  0  0  0  0
   23.5126   -7.0213   22.8656 S   0  0  0  0  0  0  0  0  0  0  0  0
   21.8042   -6.8123   22.9803 C   0  0  0  0  0  0  0  0  0  0  0  0
   21.5003   -7.0317   25.4730 C   0  0  0  0  0  0  0  0  0  0  0  0
   22.8855   -6.9946   25.8913 C   0  0  0  0  0  0  0  0  0  0  0  0
   20.5750   -7.6753   26.2470 C   0  0  0  0  0  0  0  0  0  0  0  0
   22.5862   -8.7092   29.1018 N   0  0  0  0  0  0  0  0  0  0  0  0
   21.6979   -9.3530   29.9238 N   0  0  0  0  0  0  0  0  0  0  0  0
   23.8132   -9.4823   30.7968 C   0  0  0  0  0  0  0  0  0  0  0  0
   25.6038  -11.2963   16.2820 H   0  0  0  0  0  0  0  0  0  0  0  0
   24.5220  -12.1235   15.1107 H   0  0  0  0  0  0  0  0  0  0  0  0
   26.2833  -12.4765   15.1107 H   0  0  0  0  0  0  0  0  0  0  0  0
   28.3474   -8.3864   15.7921 H   0  0  0  0  0  0  0  0  0  0  0  0
   28.6702   -7.6604   18.1785 H   0  0  0  0  0  0  0  0  0  0  0  0
   25.8381   -7.5910   22.0211 H   0  0  0  0  0  0  0  0  0  0  0  0
   25.9738   -9.1498   21.1591 H   0  0  0  0  0  0  0  0  0  0  0  0
   24.1597   -9.2031   16.6148 H   0  0  0  0  0  0  0  0  0  0  0  0
   20.1809   -7.0856   21.6284 H   0  0  0  0  0  0  0  0  0  0  0  0
   21.0701   -5.2924   24.2737 H   0  0  0  0  0  0  0  0  0  0  0  0
   19.9629   -6.7107   24.0141 H   0  0  0  0  0  0  0  0  0  0  0  0
   20.1394   -8.8051   28.0092 H   0  0  0  0  0  0  0  0  0  0  0  0
   24.2571   -7.5411   27.4680 H   0  0  0  0  0  0  0  0  0  0  0  0
   24.7886   -8.4095   29.1678 H   0  0  0  0  0  0  0  0  0  0  0  0
   22.0111  -10.2848   31.8331 H   0  0  0  0  0  0  0  0  0  0  0  0
   25.9896   -7.9760   10.9605 H   0  0  0  0  0  0  0  0  0  0  0  0
   26.8013   -9.5401   10.6119 H   0  0  0  0  0  0  0  0  0  0  0  0
   25.0078   -9.4393   10.6119 H   0  0  0  0  0  0  0  0  0  0  0  0
   26.4081   -7.4449   13.5133 H   0  0  0  0  0  0  0  0  0  0  0  0
   23.3581   -7.8026   18.6395 H   0  0  0  0  0  0  0  0  0  0  0  0
   23.8023   -9.4511   19.2455 H   0  0  0  0  0  0  0  0  0  0  0  0
   27.8008   -7.7281   20.4637 H   0  0  0  0  0  0  0  0  0  0  0  0
   26.6509   -6.3766   20.1087 H   0  0  0  0  0  0  0  0  0  0  0  0
   23.6548   -6.5256   25.2603 H   0  0  0  0  0  0  0  0  0  0  0  0
   19.5310   -7.7150   25.9030 H   0  0  0  0  0  0  0  0  0  0  0  0
   24.6417   -9.7454   31.4708 H   0  0  0  0  0  0  0  0  0  0  0  0
  1 17  2  0
  1 18  1  0
  2 10  1  0
  2 26  2  0
  3 17  1  0
  4  5  2  0
  4  9  1  0
  4 20  1  0
  5  6  1  0
  6  7  2  0
  7 22  1  0
  7 25  1  0
  8 24  1  0
  8 25  1  0
  9 22  2  0
 10 28  2  0
 11 28  1  0
 11 29  1  0
 12 13  2  0
 12 31  1  0
 13 14  1  0
 13 32  1  0
 14 30  2  0
 15 32  1  0
 15 34  2  0
 16 33  2  0
 16 34  1  0
 17 20  1  0
 18 19  1  0
 18 21  2  0
 20 21  1  0
 22 23  1  0
 23 24  1  0
 24 26  1  0
 26 27  1  0
 27 28  1  0
 29 30  1  0
 29 31  2  0
 32 33  1  0
  3 35  1  0
  3 36  1  0
  3 37  1  0
  5 38  1  0
  6 39  1  0
  8 40  1  0
  8 41  1  0
  9 42  1  0
 10 43  1  0
 11 44  1  0
 11 45  1  0
 12 46  1  0
 14 47  1  0
 15 48  1  0
 16 49  1  0
 19 50  1  0
 19 51  1  0
 19 52  1  0
 21 53  1  0
 23 54  1  0
 23 55  1  0
 25 56  1  0
 25 57  1  0
 30 58  1  0
 31 59  1  0
 34 60  1  0
M  END
>  <filename_input>  (2) 
7T1D_E7K_docked.sdf

>  <pdb_id>  (2) 
7T1D_E7K

>  <pose_rank>  (2) 
1

>  <num_atoms_heavy>  (2) 
34

>  <num_torsions>  (2) 
4

>  <pose>  (2) 
[22.144116602557112, -7.503598561030087, 20.768602515606542, -0.6569476246546805, -3.038617554659243, -0.08543780769456495, -2.031603476521669, 0.3534712518122739, 1.3518738178605094, -2.914406137478005]

>  <energy>  (2) 
-732.6123989332082

>  <inter_energy>  (2) 
-756.639210751837

>  <intra_energy>  (2) 
26.523493850552875

>  <rmsd>  (2) 
12.2031

>  <sdf_rank>  (2) 
0

$$$$

     RDKit          3D

 60 65  0  0  0  0  0  0  0  0999 V2000
   27.5309   -8.4201   17.6389 N   0  0  0  0  0  0  0  0  0  0  0  0
   22.1455   -8.9975   24.9769 N   0  0  0  0  0  0  0  0  0  0  0  0
   27.3762   -6.9953   19.6792 C   0  0  0  0  0  0  0  0  0  0  0  0
   24.4059   -7.4572   19.2292 C   0  0  0  0  0  0  0  0  0  0  0  0
   23.5037   -6.4916   18.6805 C   0  0  0  0  0  0  0  0  0  0  0  0
   22.4868   -5.9403   19.5070 C   0  0  0  0  0  0  0  0  0  0  0  0
   22.3333   -6.3345   20.8183 C   0  0  0  0  0  0  0  0  0  0  0  0
   21.5910   -5.8625   23.1122 C   0  0  0  0  0  0  0  0  0  0  0  0
   24.2806   -7.8484   20.5458 C   0  0  0  0  0  0  0  0  0  0  0  0
   21.5777   -9.3675   26.2016 C   0  0  0  0  0  0  0  0  0  0  0  0
   19.9290   -8.8239   28.0115 C   0  0  0  0  0  0  0  0  0  0  0  0
   21.0992   -8.9352   31.5785 C   0  0  0  0  0  0  0  0  0  0  0  0
   22.3985   -8.3430   31.5040 C   0  0  0  0  0  0  0  0  0  0  0  0
   22.9348   -7.9746   30.2908 C   0  0  0  0  0  0  0  0  0  0  0  0
   22.9835   -7.1061   33.5575 C   0  0  0  0  0  0  0  0  0  0  0  0
   24.6567   -8.3851   34.1323 C   0  0  0  0  0  0  0  0  0  0  0  0
   26.8378   -7.7856   18.5689 C   0  0  0  0  0  0  0  0  0  0  0  0
   26.5682   -9.0520   16.8333 C   0  0  0  0  0  0  0  0  0  0  0  0
   26.9346   -9.8489   15.6598 C   0  0  0  0  0  0  0  0  0  0  0  0
   25.4545   -7.9648   18.3989 N   0  0  0  0  0  0  0  0  0  0  0  0
   25.2718   -8.7835   17.2830 C   0  0  0  0  0  0  0  0  0  0  0  0
   23.2546   -7.3016   21.3311 C   0  0  0  0  0  0  0  0  0  0  0  0
   23.1663   -7.8214   22.7202 C   0  0  0  0  0  0  0  0  0  0  0  0
   22.0187   -7.2580   23.4323 N   0  0  0  0  0  0  0  0  0  0  0  0
   21.2378   -5.8055   21.6566 C   0  0  0  0  0  0  0  0  0  0  0  0
   21.6494   -7.8672   24.6120 C   0  0  0  0  0  0  0  0  0  0  0  0
   20.4320   -7.2292   25.6398 S   0  0  0  0  0  0  0  0  0  0  0  0
   20.6337   -8.5647   26.7126 C   0  0  0  0  0  0  0  0  0  0  0  0
   20.8576   -8.6593   29.2215 C   0  0  0  0  0  0  0  0  0  0  0  0
   22.2000   -8.1277   29.1192 C   0  0  0  0  0  0  0  0  0  0  0  0
   20.3742   -9.0510   30.4390 C   0  0  0  0  0  0  0  0  0  0  0  0
   23.1255   -8.1582   32.6519 N   0  0  0  0  0  0  0  0  0  0  0  0
   24.2049   -8.9273   33.0020 N   0  0  0  0  0  0  0  0  0  0  0  0
   23.9391   -7.2152   34.5025 C   0  0  0  0  0  0  0  0  0  0  0  0
   27.0686   -7.4470   20.6338 H   0  0  0  0  0  0  0  0  0  0  0  0
   28.4744   -6.9785   19.6186 H   0  0  0  0  0  0  0  0  0  0  0  0
   26.9899   -5.9672   19.6186 H   0  0  0  0  0  0  0  0  0  0  0  0
   23.5961   -6.1791   17.6299 H   0  0  0  0  0  0  0  0  0  0  0  0
   21.8074   -5.1821   19.0903 H   0  0  0  0  0  0  0  0  0  0  0  0
   20.7142   -5.5928   23.7193 H   0  0  0  0  0  0  0  0  0  0  0  0
   22.4029   -5.1546   23.3351 H   0  0  0  0  0  0  0  0  0  0  0  0
   24.9784   -8.5820   20.9760 H   0  0  0  0  0  0  0  0  0  0  0  0
   21.8940  -10.2821   26.7247 H   0  0  0  0  0  0  0  0  0  0  0  0
   19.0934   -8.1151   28.1080 H   0  0  0  0  0  0  0  0  0  0  0  0
   19.5739   -9.8650   27.9994 H   0  0  0  0  0  0  0  0  0  0  0  0
   20.6968   -9.2889   32.5392 H   0  0  0  0  0  0  0  0  0  0  0  0
   23.9513   -7.5563   30.2473 H   0  0  0  0  0  0  0  0  0  0  0  0
   22.2180   -6.3177   33.5085 H   0  0  0  0  0  0  0  0  0  0  0  0
   25.4934   -8.7978   34.7151 H   0  0  0  0  0  0  0  0  0  0  0  0
   27.3734  -10.8031   15.9870 H   0  0  0  0  0  0  0  0  0  0  0  0
   26.0368  -10.0462   15.0557 H   0  0  0  0  0  0  0  0  0  0  0  0
   27.6689   -9.2958   15.0557 H   0  0  0  0  0  0  0  0  0  0  0  0
   24.3225   -9.1374   16.8544 H   0  0  0  0  0  0  0  0  0  0  0  0
   23.0634   -8.9161   22.6863 H   0  0  0  0  0  0  0  0  0  0  0  0
   24.0817   -7.5303   23.2563 H   0  0  0  0  0  0  0  0  0  0  0  0
   21.0440   -4.7598   21.3754 H   0  0  0  0  0  0  0  0  0  0  0  0
   20.3436   -6.4244   21.4914 H   0  0  0  0  0  0  0  0  0  0  0  0
   22.6269   -7.8526   28.1435 H   0  0  0  0  0  0  0  0  0  0  0  0
   19.3609   -9.4753   30.4958 H   0  0  0  0  0  0  0  0  0  0  0  0
   24.1212   -6.5523   35.3612 H   0  0  0  0  0  0  0  0  0  0  0  0
  1 17  2  0
  1 18  1  0
  2 10  1  0
  2 26  2  0
  3 17  1  0
  4  5  2  0
  4  9  1  0
  4 20  1  0
  5  6  1  0
  6  7  2  0
  7 22  1  0
  7 25  1  0
  8 24  1  0
  8 25  1  0
  9 22  2  0
 10 28  2  0
 11 28  1  0
 11 29  1  0
 12 13  2  0
 12 31  1  0
 13 14  1  0
 13 32  1  0
 14 30  2  0
 15 32  1  0
 15 34  2  0
 16 33  2  0
 16 34  1  0
 17 20  1  0
 18 19  1  0
 18 21  2  0
 20 21  1  0
 22 23  1  0
 23 24  1  0
 24 26  1  0
 26 27  1  0
 27 28  1  0
 29 30  1  0
 29 31  2  0
 32 33  1  0
  3 35  1  0
  3 36  1  0
  3 37  1  0
  5 38  1  0
  6 39  1  0
  8 40  1  0
  8 41  1  0
  9 42  1  0
 10 43  1  0
 11 44  1  0
 11 45  1  0
 12 46  1  0
 14 47  1  0
 15 48  1  0
 16 49  1  0
 19 50  1  0
 19 51  1  0
 19 52  1  0
 21 53  1  0
 23 54  1  0
 23 55  1  0
 25 56  1  0
 25 57  1  0
 30 58  1  0
 31 59  1  0
 34 60  1  0
M  END
>  <filename_input>  (3) 
7T1D_E7K_docked.sdf

>  <pdb_id>  (3) 
7T1D_E7K

>  <pose_rank>  (3) 
2

>  <num_atoms_heavy>  (3) 
34

>  <num_torsions>  (3) 
4

>  <pose>  (3) 
[22.14546998627266, -8.997459430809704, 24.97692359219107, -2.0977143496301585, 2.155657544451475, -1.096655779303761, -2.0362019349239304, -0.8473870428130759, 0.5968274108738311, -1.078220781396143]

>  <energy>  (3) 
-604.6576514395945

>  <inter_energy>  (3) 
-612.8119542469001

>  <intra_energy>  (3) 
16.467899353444402

>  <rmsd>  (3) 
12.5938

>  <sdf_rank>  (3) 
0

$$$$

     RDKit          3D

 60 65  0  0  0  0  0  0  0  0999 V2000
   20.6133  -12.6986   34.6362 N   0  0  0  0  0  0  0  0  0  0  0  0
   20.5990   -8.4943   26.3301 N   0  0  0  0  0  0  0  0  0  0  0  0
   20.3992  -10.2155   34.5643 C   0  0  0  0  0  0  0  0  0  0  0  0
   22.1834  -10.5820   32.1308 C   0  0  0  0  0  0  0  0  0  0  0  0
   23.3691   -9.8763   32.5095 C   0  0  0  0  0  0  0  0  0  0  0  0
   23.8209   -8.7931   31.7072 C   0  0  0  0  0  0  0  0  0  0  0  0
   23.1571   -8.4238   30.5575 C   0  0  0  0  0  0  0  0  0  0  0  0
   22.5551   -6.7122   28.9012 C   0  0  0  0  0  0  0  0  0  0  0  0
   21.4940  -10.2130   30.9947 C   0  0  0  0  0  0  0  0  0  0  0  0
   20.3256   -8.0676   25.0253 C   0  0  0  0  0  0  0  0  0  0  0  0
   20.7444   -6.3649   23.2324 C   0  0  0  0  0  0  0  0  0  0  0  0
   23.0010   -6.0566   20.2460 C   0  0  0  0  0  0  0  0  0  0  0  0
   24.1191   -6.8705   20.6089 C   0  0  0  0  0  0  0  0  0  0  0  0
   24.1853   -7.4614   21.8506 C   0  0  0  0  0  0  0  0  0  0  0  0
   25.8088   -8.2466   19.4512 C   0  0  0  0  0  0  0  0  0  0  0  0
   26.7301   -6.6049   18.3458 C   0  0  0  0  0  0  0  0  0  0  0  0
   20.8846  -11.5192   34.1039 C   0  0  0  0  0  0  0  0  0  0  0  0
   21.2788  -13.6293   33.8204 C   0  0  0  0  0  0  0  0  0  0  0  0
   21.2466  -15.0686   34.0926 C   0  0  0  0  0  0  0  0  0  0  0  0
   21.7143  -11.6367   32.9759 N   0  0  0  0  0  0  0  0  0  0  0  0
   21.9708  -12.9955   32.7839 C   0  0  0  0  0  0  0  0  0  0  0  0
   21.9756   -9.1528   30.2120 C   0  0  0  0  0  0  0  0  0  0  0  0
   21.1967   -8.8618   28.9807 C   0  0  0  0  0  0  0  0  0  0  0  0
   21.8208   -7.8012   28.1888 N   0  0  0  0  0  0  0  0  0  0  0  0
   23.6633   -7.3378   29.6931 C   0  0  0  0  0  0  0  0  0  0  0  0
   21.3749   -7.6367   26.8952 C   0  0  0  0  0  0  0  0  0  0  0  0
   21.8911   -6.3388   25.8979 S   0  0  0  0  0  0  0  0  0  0  0  0
   20.9308   -6.9492   24.6016 C   0  0  0  0  0  0  0  0  0  0  0  0
   21.9823   -6.5508   22.3456 C   0  0  0  0  0  0  0  0  0  0  0  0
   23.1399   -7.3161   22.7572 C   0  0  0  0  0  0  0  0  0  0  0  0
   21.9702   -5.9458   21.1195 C   0  0  0  0  0  0  0  0  0  0  0  0
   25.1455   -7.0481   19.7170 N   0  0  0  0  0  0  0  0  0  0  0  0
   25.7610   -6.0210   19.0497 N   0  0  0  0  0  0  0  0  0  0  0  0
   26.8198   -8.0019   18.5933 C   0  0  0  0  0  0  0  0  0  0  0  0
   20.3915  -10.1946   35.6640 H   0  0  0  0  0  0  0  0  0  0  0  0
   21.0627   -9.4232   34.1871 H   0  0  0  0  0  0  0  0  0  0  0  0
   19.3792  -10.0499   34.1871 H   0  0  0  0  0  0  0  0  0  0  0  0
   23.9254  -10.1689   33.4122 H   0  0  0  0  0  0  0  0  0  0  0  0
   24.7203   -8.2374   32.0109 H   0  0  0  0  0  0  0  0  0  0  0  0
   22.9729   -6.0042   28.1703 H   0  0  0  0  0  0  0  0  0  0  0  0
   21.8722   -6.1653   29.5680 H   0  0  0  0  0  0  0  0  0  0  0  0
   20.5757  -10.7448   30.7049 H   0  0  0  0  0  0  0  0  0  0  0  0
   19.6404   -8.6285   24.3727 H   0  0  0  0  0  0  0  0  0  0  0  0
   19.8873   -6.8585   22.7510 H   0  0  0  0  0  0  0  0  0  0  0  0
   20.5731   -5.2845   23.3484 H   0  0  0  0  0  0  0  0  0  0  0  0
   22.9776   -5.5320   19.2795 H   0  0  0  0  0  0  0  0  0  0  0  0
   25.0706   -8.0524   22.1278 H   0  0  0  0  0  0  0  0  0  0  0  0
   25.5495   -9.2292   19.8722 H   0  0  0  0  0  0  0  0  0  0  0  0
   27.3886   -6.0651   17.6494 H   0  0  0  0  0  0  0  0  0  0  0  0
   21.2428  -15.2361   35.1797 H   0  0  0  0  0  0  0  0  0  0  0  0
   20.3385  -15.5050   33.6512 H   0  0  0  0  0  0  0  0  0  0  0  0
   22.1343  -15.5452   33.6512 H   0  0  0  0  0  0  0  0  0  0  0  0
   22.5797  -13.4620   31.9955 H   0  0  0  0  0  0  0  0  0  0  0  0
   21.1377   -9.7754   28.3709 H   0  0  0  0  0  0  0  0  0  0  0  0
   20.1931   -8.5244   29.2790 H   0  0  0  0  0  0  0  0  0  0  0  0
   24.1330   -6.5678   30.3228 H   0  0  0  0  0  0  0  0  0  0  0  0
   24.3944   -7.7646   28.9907 H   0  0  0  0  0  0  0  0  0  0  0  0
   23.1917   -7.7698   23.7580 H   0  0  0  0  0  0  0  0  0  0  0  0
   21.0929   -5.3480   20.8316 H   0  0  0  0  0  0  0  0  0  0  0  0
   27.5460   -8.7176   18.1805 H   0  0  0  0  0  0  0  0  0  0  0  0
  1 17  2  0
  1 18  1  0
  2 10  1  0
  2 26  2  0
  3 17  1  0
  4  5  2  0
  4  9  1  0
  4 20  1  0
  5  6  1  0
  6  7  2  0
  7 22  1  0
  7 25  1  0
  8 24  1  0
  8 25  1  0
  9 22  2  0
 10 28  2  0
 11 28  1  0
 11 29  1  0
 12 13  2  0
 12 31  1  0
 13 14  1  0
 13 32  1  0
 14 30  2  0
 15 32  1  0
 15 34  2  0
 16 33  2  0
 16 34  1  0
 17 20  1  0
 18 19  1  0
 18 21  2  0
 20 21  1  0
 22 23  1  0
 23 24  1  0
 24 26  1  0
 26 27  1  0
 27 28  1  0
 29 30  1  0
 29 31  2  0
 32 33  1  0
  3 35  1  0
  3 36  1  0
  3 37  1  0
  5 38  1  0
  6 39  1  0
  8 40  1  0
  8 41  1  0
  9 42  1  0
 10 43  1  0
 11 44  1  0
 11 45  1  0
 12 46  1  0
 14 47  1  0
 15 48  1  0
 16 49  1  0
 19 50  1  0
 19 51  1  0
 19 52  1  0
 21 53  1  0
 23 54  1  0
 23 55  1  0
 25 56  1  0
 25 57  1  0
 30 58  1  0
 31 59  1  0
 34 60  1  0
M  END
>  <filename_input>  (4) 
7T1D_E7K_docked.sdf

>  <pdb_id>  (4) 
7T1D_E7K

>  <pose_rank>  (4) 
3

>  <num_atoms_heavy>  (4) 
34

>  <num_torsions>  (4) 
4

>  <pose>  (4) 
[20.599021505506855, -8.494277766426336, 26.330066465382814, -1.5009335776318016, -2.076576833506414, 3.355518603054693, -2.5441114158960425, 2.3479152825219542, 0.5469590990896817, -2.065816965799518]

>  <energy>  (4) 
-549.6609882294036

>  <inter_energy>  (4) 
-561.7009332175586

>  <intra_energy>  (4) 
5.750128515514854

>  <rmsd>  (4) 
7.27662

>  <sdf_rank>  (4) 
0

$$$$

     RDKit          3D

 60 65  0  0  0  0  0  0  0  0999 V2000
   26.9413  -10.0096   33.8927 N   0  0  0  0  0  0  0  0  0  0  0  0
   23.3555   -7.8016   25.6234 N   0  0  0  0  0  0  0  0  0  0  0  0
   25.2146  -11.4696   32.8420 C   0  0  0  0  0  0  0  0  0  0  0  0
   24.1892   -8.7830   31.8571 C   0  0  0  0  0  0  0  0  0  0  0  0
   22.9107   -8.6033   32.4738 C   0  0  0  0  0  0  0  0  0  0  0  0
   21.7564   -8.4636   31.6556 C   0  0  0  0  0  0  0  0  0  0  0  0
   21.8444   -8.4709   30.2806 C   0  0  0  0  0  0  0  0  0  0  0  0
   20.8296   -8.8898   28.0828 C   0  0  0  0  0  0  0  0  0  0  0  0
   24.2939   -8.8139   30.4822 C   0  0  0  0  0  0  0  0  0  0  0  0
   23.1496   -7.5041   24.2712 C   0  0  0  0  0  0  0  0  0  0  0  0
   21.4994   -7.1855   22.4099 C   0  0  0  0  0  0  0  0  0  0  0  0
   24.5257   -8.2431   20.4531 C   0  0  0  0  0  0  0  0  0  0  0  0
   24.9897   -7.0103   19.8970 C   0  0  0  0  0  0  0  0  0  0  0  0
   24.2847   -5.8433   20.0878 C   0  0  0  0  0  0  0  0  0  0  0  0
   26.2335   -7.2302   17.7772 C   0  0  0  0  0  0  0  0  0  0  0  0
   28.2202   -6.9688   18.6434 C   0  0  0  0  0  0  0  0  0  0  0  0
   25.8498  -10.1902   33.1688 C   0  0  0  0  0  0  0  0  0  0  0  0
   27.1596   -8.6215   33.8844 C   0  0  0  0  0  0  0  0  0  0  0  0
   28.2752   -8.0030   34.6051 C   0  0  0  0  0  0  0  0  0  0  0  0
   25.3335   -8.9723   32.6947 N   0  0  0  0  0  0  0  0  0  0  0  0
   26.1746   -7.9550   33.1492 C   0  0  0  0  0  0  0  0  0  0  0  0
   23.1397   -8.6532   29.7009 C   0  0  0  0  0  0  0  0  0  0  0  0
   23.3579   -8.6483   28.2312 C   0  0  0  0  0  0  0  0  0  0  0  0
   22.1140   -8.3909   27.5047 N   0  0  0  0  0  0  0  0  0  0  0  0
   20.6519   -8.2641   29.4331 C   0  0  0  0  0  0  0  0  0  0  0  0
   22.2207   -8.0691   26.1690 C   0  0  0  0  0  0  0  0  0  0  0  0
   20.8522   -7.8986   25.1473 S   0  0  0  0  0  0  0  0  0  0  0  0
   21.8847   -7.4888   23.8278 C   0  0  0  0  0  0  0  0  0  0  0  0
   22.7185   -7.0771   21.4849 C   0  0  0  0  0  0  0  0  0  0  0  0
   23.1326   -5.8349   20.8678 C   0  0  0  0  0  0  0  0  0  0  0  0
   23.4219   -8.2236   21.2398 C   0  0  0  0  0  0  0  0  0  0  0  0
   26.1390   -6.9945   19.1493 N   0  0  0  0  0  0  0  0  0  0  0  0
   27.3950   -6.8748   19.6854 N   0  0  0  0  0  0  0  0  0  0  0  0
   27.5351   -7.2270   17.4250 C   0  0  0  0  0  0  0  0  0  0  0  0
   24.9528  -11.9969   33.7712 H   0  0  0  0  0  0  0  0  0  0  0  0
   24.3026  -11.2867   32.2547 H   0  0  0  0  0  0  0  0  0  0  0  0
   25.9115  -12.0856   32.2547 H   0  0  0  0  0  0  0  0  0  0  0  0
   22.8217   -8.5735   33.5698 H   0  0  0  0  0  0  0  0  0  0  0  0
   20.7712   -8.3472   32.1309 H   0  0  0  0  0  0  0  0  0  0  0  0
   19.9917   -8.6079   27.4281 H   0  0  0  0  0  0  0  0  0  0  0  0
   20.8520   -9.9861   28.1710 H   0  0  0  0  0  0  0  0  0  0  0  0
   25.2727   -8.9629   30.0030 H   0  0  0  0  0  0  0  0  0  0  0  0
   23.9933   -7.2911   23.5984 H   0  0  0  0  0  0  0  0  0  0  0  0
   20.8463   -7.9902   22.0412 H   0  0  0  0  0  0  0  0  0  0  0  0
   20.9840   -6.2138   22.4021 H   0  0  0  0  0  0  0  0  0  0  0  0
   25.0527   -9.1864   20.2472 H   0  0  0  0  0  0  0  0  0  0  0  0
   24.6348   -4.9110   19.6205 H   0  0  0  0  0  0  0  0  0  0  0  0
   25.3857   -7.3919   17.0952 H   0  0  0  0  0  0  0  0  0  0  0  0
   29.3121   -6.8586   18.7180 H   0  0  0  0  0  0  0  0  0  0  0  0
   28.1082   -8.0956   35.6884 H   0  0  0  0  0  0  0  0  0  0  0  0
   29.2130   -8.5101   34.3341 H   0  0  0  0  0  0  0  0  0  0  0  0
   28.3421   -6.9390   34.3341 H   0  0  0  0  0  0  0  0  0  0  0  0
   26.0831   -6.8736   32.9695 H   0  0  0  0  0  0  0  0  0  0  0  0
   24.0870   -7.8636   27.9808 H   0  0  0  0  0  0  0  0  0  0  0  0
   23.7316   -9.6395   27.9348 H   0  0  0  0  0  0  0  0  0  0  0  0
   19.7789   -8.7168   29.9260 H   0  0  0  0  0  0  0  0  0  0  0  0
   20.5045   -7.1824   29.2983 H   0  0  0  0  0  0  0  0  0  0  0  0
   22.5531   -4.9110   21.0114 H   0  0  0  0  0  0  0  0  0  0  0  0
   23.0799   -9.1638   21.6972 H   0  0  0  0  0  0  0  0  0  0  0  0
   27.9668   -7.3872   16.4260 H   0  0  0  0  0  0  0  0  0  0  0  0
  1 17  2  0
  1 18  1  0
  2 10  1  0
  2 26  2  0
  3 17  1  0
  4  5  2  0
  4  9  1  0
  4 20  1  0
  5  6  1  0
  6  7  2  0
  7 22  1  0
  7 25  1  0
  8 24  1  0
  8 25  1  0
  9 22  2  0
 10 28  2  0
 11 28  1  0
 11 29  1  0
 12 13  2  0
 12 31  1  0
 13 14  1  0
 13 32  1  0
 14 30  2  0
 15 32  1  0
 15 34  2  0
 16 33  2  0
 16 34  1  0
 17 20  1  0
 18 19  1  0
 18 21  2  0
 20 21  1  0
 22 23  1  0
 23 24  1  0
 24 26  1  0
 26 27  1  0
 27 28  1  0
 29 30  1  0
 29 31  2  0
 32 33  1  0
  3 35  1  0
  3 36  1  0
  3 37  1  0
  5 38  1  0
  6 39  1  0
  8 40  1  0
  8 41  1  0
  9 42  1  0
 10 43  1  0
 11 44  1  0
 11 45  1  0
 12 46  1  0
 14 47  1  0
 15 48  1  0
 16 49  1  0
 19 50  1  0
 19 51  1  0
 19 52  1  0
 21 53  1  0
 23 54  1  0
 23 55  1  0
 25 56  1  0
 25 57  1  0
 30 58  1  0
 31 59  1  0
 34 60  1  0
M  END
>  <filename_input>  (5) 
7T1D_E7K_docked.sdf

>  <pdb_id>  (5) 
7T1D_E7K

>  <pose_rank>  (5) 
4

>  <num_atoms_heavy>  (5) 
34

>  <num_torsions>  (5) 
4

>  <pose>  (5) 
[23.355452965504455, -7.801573519205877, 25.623402107465, -0.004215374985566658, 0.8461274079252136, 0.625104725975814, -2.4635142225008257, -1.9229929804722556, -1.5104074701907404, 1.8644675021967918]

>  <energy>  (5) 
-499.6736847236738

>  <inter_energy>  (5) 
-508.507385880657

>  <intra_energy>  (5) 
14.399326875020483

>  <rmsd>  (5) 
6.80053

>  <sdf_rank>  (5) 
0

$$$$

     RDKit          3D

 60 65  0  0  0  0  0  0  0  0999 V2000
   19.9448  -10.7232   34.6680 N   0  0  0  0  0  0  0  0  0  0  0  0
   20.3531   -7.8976   25.8086 N   0  0  0  0  0  0  0  0  0  0  0  0
   20.9890   -8.5143   34.1705 C   0  0  0  0  0  0  0  0  0  0  0  0
   21.8193   -9.9819   31.6416 C   0  0  0  0  0  0  0  0  0  0  0  0
   23.2473   -9.9751   31.7311 C   0  0  0  0  0  0  0  0  0  0  0  0
   24.0071   -9.3678   30.6943 C   0  0  0  0  0  0  0  0  0  0  0  0
   23.4001   -8.8083   29.5910 C   0  0  0  0  0  0  0  0  0  0  0  0
   23.4151   -7.1909   27.7419 C   0  0  0  0  0  0  0  0  0  0  0  0
   21.1934   -9.4081   30.5548 C   0  0  0  0  0  0  0  0  0  0  0  0
   20.0716   -7.5087   24.4938 C   0  0  0  0  0  0  0  0  0  0  0  0
   20.9126   -6.4479   22.3828 C   0  0  0  0  0  0  0  0  0  0  0  0
   24.4239   -7.5073   21.5742 C   0  0  0  0  0  0  0  0  0  0  0  0
   24.5860   -7.0626   20.2250 C   0  0  0  0  0  0  0  0  0  0  0  0
   23.5373   -6.4869   19.5437 C   0  0  0  0  0  0  0  0  0  0  0  0
   26.0015   -7.3219   18.2206 C   0  0  0  0  0  0  0  0  0  0  0  0
   27.8759   -7.6308   19.2962 C   0  0  0  0  0  0  0  0  0  0  0  0
   20.6547   -9.9150   33.8993 C   0  0  0  0  0  0  0  0  0  0  0  0
   19.8768  -11.9348   33.9594 C   0  0  0  0  0  0  0  0  0  0  0  0
   19.1864  -13.1122   34.4920 C   0  0  0  0  0  0  0  0  0  0  0  0
   21.0680  -10.5524   32.7171 N   0  0  0  0  0  0  0  0  0  0  0  0
   20.5675  -11.8553   32.7463 C   0  0  0  0  0  0  0  0  0  0  0  0
   21.9707   -8.8341   29.5375 C   0  0  0  0  0  0  0  0  0  0  0  0
   21.2110   -8.2876   28.3835 C   0  0  0  0  0  0  0  0  0  0  0  0
   22.1064   -7.7890   27.3389 N   0  0  0  0  0  0  0  0  0  0  0  0
   24.1944   -8.2327   28.4862 C   0  0  0  0  0  0  0  0  0  0  0  0
   21.5507   -7.5302   26.1047 C   0  0  0  0  0  0  0  0  0  0  0  0
   22.4326   -6.7924   24.8305 S   0  0  0  0  0  0  0  0  0  0  0  0
   21.0551   -6.9187   23.8001 C   0  0  0  0  0  0  0  0  0  0  0  0
   22.1900   -6.6710   21.5630 C   0  0  0  0  0  0  0  0  0  0  0  0
   22.3138   -6.2832   20.1740 C   0  0  0  0  0  0  0  0  0  0  0  0
   23.2409   -7.2761   22.1945 C   0  0  0  0  0  0  0  0  0  0  0  0
   25.7936   -7.2293   19.5973 N   0  0  0  0  0  0  0  0  0  0  0  0
   26.9700   -7.4671   20.2596 N   0  0  0  0  0  0  0  0  0  0  0  0
   27.3053   -7.5814   17.9952 C   0  0  0  0  0  0  0  0  0  0  0  0
   21.0281   -8.3505   35.2575 H   0  0  0  0  0  0  0  0  0  0  0  0
   21.9685   -8.2790   33.7288 H   0  0  0  0  0  0  0  0  0  0  0  0
   20.2213   -7.8620   33.7288 H   0  0  0  0  0  0  0  0  0  0  0  0
   23.7522  -10.4351   32.5934 H   0  0  0  0  0  0  0  0  0  0  0  0
   25.1039   -9.3439   30.7746 H   0  0  0  0  0  0  0  0  0  0  0  0
   23.9727   -6.8768   26.8472 H   0  0  0  0  0  0  0  0  0  0  0  0
   23.2509   -6.3100   28.3799 H   0  0  0  0  0  0  0  0  0  0  0  0
   20.0956   -9.4006   30.4862 H   0  0  0  0  0  0  0  0  0  0  0  0
   19.0812   -7.6807   24.0470 H   0  0  0  0  0  0  0  0  0  0  0  0
   20.0873   -6.9992   21.9084 H   0  0  0  0  0  0  0  0  0  0  0  0
   20.7127   -5.3665   22.4062 H   0  0  0  0  0  0  0  0  0  0  0  0
   25.2411   -8.0255   22.0973 H   0  0  0  0  0  0  0  0  0  0  0  0
   23.6677   -6.1858   18.4937 H   0  0  0  0  0  0  0  0  0  0  0  0
   25.2289   -7.2029   17.4467 H   0  0  0  0  0  0  0  0  0  0  0  0
   28.9480   -7.7869   19.4869 H   0  0  0  0  0  0  0  0  0  0  0  0
   19.2043  -13.0816   35.5914 H   0  0  0  0  0  0  0  0  0  0  0  0
   18.1435  -13.1151   34.1422 H   0  0  0  0  0  0  0  0  0  0  0  0
   19.6930  -14.0238   34.1422 H   0  0  0  0  0  0  0  0  0  0  0  0
   20.6890  -12.6415   31.9866 H   0  0  0  0  0  0  0  0  0  0  0  0
   20.5790   -9.0835   27.9625 H   0  0  0  0  0  0  0  0  0  0  0  0
   20.5971   -7.4478   28.7412 H   0  0  0  0  0  0  0  0  0  0  0  0
   25.1037   -7.7725   28.9002 H   0  0  0  0  0  0  0  0  0  0  0  0
   24.4521   -9.0406   27.7856 H   0  0  0  0  0  0  0  0  0  0  0  0
   21.4650   -5.8402   19.6323 H   0  0  0  0  0  0  0  0  0  0  0  0
   23.1223   -7.5863   23.2432 H   0  0  0  0  0  0  0  0  0  0  0  0
   27.8106   -7.7223   17.0283 H   0  0  0  0  0  0  0  0  0  0  0  0
  1 17  2  0
  1 18  1  0
  2 10  1  0
  2 26  2  0
  3 17  1  0
  4  5  2  0
  4  9  1  0
  4 20  1  0
  5  6  1  0
  6  7  2  0
  7 22  1  0
  7 25  1  0
  8 24  1  0
  8 25  1  0
  9 22  2  0
 10 28  2  0
 11 28  1  0
 11 29  1  0
 12 13  2  0
 12 31  1  0
 13 14  1  0
 13 32  1  0
 14 30  2  0
 15 32  1  0
 15 34  2  0
 16 33  2  0
 16 34  1  0
 17 20  1  0
 18 19  1  0
 18 21  2  0
 20 21  1  0
 22 23  1  0
 23 24  1  0
 24 26  1  0
 26 27  1  0
 27 28  1  0
 29 30  1  0
 29 31  2  0
 32 33  1  0
  3 35  1  0
  3 36  1  0
  3 37  1  0
  5 38  1  0
  6 39  1  0
  8 40  1  0
  8 41  1  0
  9 42  1  0
 10 43  1  0
 11 44  1  0
 11 45  1  0
 12 46  1  0
 14 47  1  0
 15 48  1  0
 16 49  1  0
 19 50  1  0
 19 51  1  0
 19 52  1  0
 21 53  1  0
 23 54  1  0
 23 55  1  0
 25 56  1  0
 25 57  1  0
 30 58  1  0
 31 59  1  0
 34 60  1  0
M  END
>  <filename_input>  (6) 
7T1D_E7K_docked.sdf

>  <pdb_id>  (6) 
7T1D_E7K

>  <pose_rank>  (6) 
5

>  <num_atoms_heavy>  (6) 
34

>  <num_torsions>  (6) 
4

>  <pose>  (6) 
[20.353119191046183, -7.897625081770176, 25.8086154196675, -1.2110744361036545, -1.2441753292774822, 3.310908989616027, -2.5396318725647116, 1.7363265182532897, -2.673242684825027, 3.0448173173186563]

>  <energy>  (6) 
-509.16460495023114

>  <inter_energy>  (6) 
-551.1044217666216

>  <intra_energy>  (6) 
37.36000149737707

>  <rmsd>  (6) 
6.65538

>  <sdf_rank>  (6) 
0

$$$$

     RDKit          3D

 60 65  0  0  0  0  0  0  0  0999 V2000
   23.7919   -6.0252   20.1459 N   0  0  0  0  0  0  0  0  0  0  0  0
   24.3140   -9.0625   29.1720 N   0  0  0  0  0  0  0  0  0  0  0  0
   21.7688   -5.1140   21.2832 C   0  0  0  0  0  0  0  0  0  0  0  0
   22.5380   -7.2083   23.3474 C   0  0  0  0  0  0  0  0  0  0  0  0
   21.1073   -7.2156   23.3347 C   0  0  0  0  0  0  0  0  0  0  0  0
   20.4010   -7.4064   24.5537 C   0  0  0  0  0  0  0  0  0  0  0  0
   21.0637   -7.6111   25.7443 C   0  0  0  0  0  0  0  0  0  0  0  0
   21.1341   -7.4662   28.1958 C   0  0  0  0  0  0  0  0  0  0  0  0
   23.2184   -7.3907   24.5332 C   0  0  0  0  0  0  0  0  0  0  0  0
   24.6666   -9.5467   30.4371 C   0  0  0  0  0  0  0  0  0  0  0  0
   23.9359  -10.0406   32.7847 C   0  0  0  0  0  0  0  0  0  0  0  0
   21.1578  -12.4423   33.5721 C   0  0  0  0  0  0  0  0  0  0  0  0
   21.8354  -13.6996   33.6374 C   0  0  0  0  0  0  0  0  0  0  0  0
   23.1792  -13.7899   33.3522 C   0  0  0  0  0  0  0  0  0  0  0  0
   21.6790  -16.0780   34.2759 C   0  0  0  0  0  0  0  0  0  0  0  0
   19.4988  -16.1860   34.2436 C   0  0  0  0  0  0  0  0  0  0  0  0
   22.9220   -6.0068   21.1413 C   0  0  0  0  0  0  0  0  0  0  0  0
   24.7185   -7.0244   20.4890 C   0  0  0  0  0  0  0  0  0  0  0  0
   25.8440   -7.3763   19.6194 C   0  0  0  0  0  0  0  0  0  0  0  0
   23.2331   -6.9651   22.1209 N   0  0  0  0  0  0  0  0  0  0  0  0
   24.3930   -7.6241   21.7094 C   0  0  0  0  0  0  0  0  0  0  0  0
   22.4940   -7.5967   25.7170 C   0  0  0  0  0  0  0  0  0  0  0  0
   23.3122   -7.8354   26.9340 C   0  0  0  0  0  0  0  0  0  0  0  0
   22.4726   -8.1233   28.0975 N   0  0  0  0  0  0  0  0  0  0  0  0
   20.3274   -7.8702   26.9988 C   0  0  0  0  0  0  0  0  0  0  0  0
   23.0960   -8.6478   29.2089 C   0  0  0  0  0  0  0  0  0  0  0  0
   22.2799   -8.8867   30.6997 S   0  0  0  0  0  0  0  0  0  0  0  0
   23.7171   -9.5518   31.3832 C   0  0  0  0  0  0  0  0  0  0  0  0
   23.2268  -11.3740   33.0544 C   0  0  0  0  0  0  0  0  0  0  0  0
   23.9126  -12.6487   33.0426 C   0  0  0  0  0  0  0  0  0  0  0  0
   21.8832  -11.3291   33.3034 C   0  0  0  0  0  0  0  0  0  0  0  0
   21.1343  -14.8305   33.9688 N   0  0  0  0  0  0  0  0  0  0  0  0
   19.7679  -14.9241   33.9107 N   0  0  0  0  0  0  0  0  0  0  0  0
   20.6735  -16.9596   34.4494 C   0  0  0  0  0  0  0  0  0  0  0  0
   21.5597   -4.9521   22.3510 H   0  0  0  0  0  0  0  0  0  0  0  0
   21.9904   -4.1496   20.8027 H   0  0  0  0  0  0  0  0  0  0  0  0
   20.8907   -5.5700   20.8027 H   0  0  0  0  0  0  0  0  0  0  0  0
   20.5594   -7.0750   22.3913 H   0  0  0  0  0  0  0  0  0  0  0  0
   19.3012   -7.3902   24.5462 H   0  0  0  0  0  0  0  0  0  0  0  0
   20.6256   -7.7920   29.1152 H   0  0  0  0  0  0  0  0  0  0  0  0
   21.2480   -6.3726   28.2269 H   0  0  0  0  0  0  0  0  0  0  0  0
   24.3181   -7.3749   24.5507 H   0  0  0  0  0  0  0  0  0  0  0  0
   25.6838   -9.9091   30.6468 H   0  0  0  0  0  0  0  0  0  0  0  0
   25.0154  -10.1748   32.9479 H   0  0  0  0  0  0  0  0  0  0  0  0
   23.5153   -9.2913   33.4715 H   0  0  0  0  0  0  0  0  0  0  0  0
   20.0720  -12.3796   33.7364 H   0  0  0  0  0  0  0  0  0  0  0  0
   23.6765  -14.7709   33.3691 H   0  0  0  0  0  0  0  0  0  0  0  0
   22.7519  -16.3049   34.3621 H   0  0  0  0  0  0  0  0  0  0  0  0
   18.4792  -16.5854   34.3477 H   0  0  0  0  0  0  0  0  0  0  0  0
   26.7131   -7.6481   20.2364 H   0  0  0  0  0  0  0  0  0  0  0  0
   25.5638   -8.2298   18.9844 H   0  0  0  0  0  0  0  0  0  0  0  0
   26.0999   -6.5153   18.9844 H   0  0  0  0  0  0  0  0  0  0  0  0
   24.9294   -8.4323   22.2280 H   0  0  0  0  0  0  0  0  0  0  0  0
   23.9791   -8.6915   26.7540 H   0  0  0  0  0  0  0  0  0  0  0  0
   23.8920   -6.9245   27.1440 H   0  0  0  0  0  0  0  0  0  0  0  0
   19.3889   -7.2965   26.9888 H   0  0  0  0  0  0  0  0  0  0  0  0
   20.1228   -8.9489   27.0654 H   0  0  0  0  0  0  0  0  0  0  0  0
   24.9827  -12.7133   32.7961 H   0  0  0  0  0  0  0  0  0  0  0  0
   21.3726  -10.3549   33.2849 H   0  0  0  0  0  0  0  0  0  0  0  0
   20.7456  -18.0297   34.6937 H   0  0  0  0  0  0  0  0  0  0  0  0
  1 17  2  0
  1 18  1  0
  2 10  1  0
  2 26  2  0
  3 17  1  0
  4  5  2  0
  4  9  1  0
  4 20  1  0
  5  6  1  0
  6  7  2  0
  7 22  1  0
  7 25  1  0
  8 24  1  0
  8 25  1  0
  9 22  2  0
 10 28  2  0
 11 28  1  0
 11 29  1  0
 12 13  2  0
 12 31  1  0
 13 14  1  0
 13 32  1  0
 14 30  2  0
 15 32  1  0
 15 34  2  0
 16 33  2  0
 16 34  1  0
 17 20  1  0
 18 19  1  0
 18 21  2  0
 20 21  1  0
 22 23  1  0
 23 24  1  0
 24 26  1  0
 26 27  1  0
 27 28  1  0
 29 30  1  0
 29 31  2  0
 32 33  1  0
  3 35  1  0
  3 36  1  0
  3 37  1  0
  5 38  1  0
  6 39  1  0
  8 40  1  0
  8 41  1  0
  9 42  1  0
 10 43  1  0
 11 44  1  0
 11 45  1  0
 12 46  1  0
 14 47  1  0
 15 48  1  0
 16 49  1  0
 19 50  1  0
 19 51  1  0
 19 52  1  0
 21 53  1  0
 23 54  1  0
 23 55  1  0
 25 56  1  0
 25 57  1  0
 30 58  1  0
 31 59  1  0
 34 60  1  0
M  END
>  <filename_input>  (7) 
7T1D_E7K_docked.sdf

>  <pdb_id>  (7) 
7T1D_E7K

>  <pose_rank>  (7) 
6

>  <num_atoms_heavy>  (7) 
34

>  <num_torsions>  (7) 
4

>  <pose>  (7) 
[24.313992007033715, -9.062540230475404, 29.17200329935684, 2.826110443265185, -1.0998413543733456, 0.5587646025649108, -3.293926706390952, 2.3359245209043134, 2.205626782010015, -2.6142904197735373]

>  <energy>  (7) 
-477.0429964643644

>  <inter_energy>  (7) 
-506.54405245538925

>  <intra_energy>  (7) 
21.55092536604005

>  <rmsd>  (7) 
13.5044

>  <sdf_rank>  (7) 
0

$$$$

     RDKit          3D

 60 65  0  0  0  0  0  0  0  0999 V2000
   31.5379  -16.1401   27.1427 N   0  0  0  0  0  0  0  0  0  0  0  0
   28.9313   -9.8882   21.1011 N   0  0  0  0  0  0  0  0  0  0  0  0
   29.4566  -15.4106   25.9796 C   0  0  0  0  0  0  0  0  0  0  0  0
   31.3802  -15.1883   23.6368 C   0  0  0  0  0  0  0  0  0  0  0  0
   31.3891  -16.1721   22.5979 C   0  0  0  0  0  0  0  0  0  0  0  0
   31.0841  -15.7807   21.2656 C   0  0  0  0  0  0  0  0  0  0  0  0
   30.7538  -14.4792   20.9561 C   0  0  0  0  0  0  0  0  0  0  0  0
   30.6506  -12.6347   19.3366 C   0  0  0  0  0  0  0  0  0  0  0  0
   31.0724  -13.8765   23.3422 C   0  0  0  0  0  0  0  0  0  0  0  0
   28.3187   -8.7661   20.5311 C   0  0  0  0  0  0  0  0  0  0  0  0
   27.5988   -7.5941   18.4341 C   0  0  0  0  0  0  0  0  0  0  0  0
   25.4048   -9.3999   15.9783 C   0  0  0  0  0  0  0  0  0  0  0  0
   25.9526   -9.0084   14.7170 C   0  0  0  0  0  0  0  0  0  0  0  0
   26.9844   -8.0995   14.6501 C   0  0  0  0  0  0  0  0  0  0  0  0
   24.6170  -10.6584   13.4590 C   0  0  0  0  0  0  0  0  0  0  0  0
   25.0951   -9.8827   11.4751 C   0  0  0  0  0  0  0  0  0  0  0  0
   30.8871  -15.7135   26.0738 C   0  0  0  0  0  0  0  0  0  0  0  0
   32.8654  -16.3152   26.7163 C   0  0  0  0  0  0  0  0  0  0  0  0
   33.9241  -16.7619   27.6252 C   0  0  0  0  0  0  0  0  0  0  0  0
   31.7383  -15.5886   24.9627 N   0  0  0  0  0  0  0  0  0  0  0  0
   33.0163  -15.9781   25.3677 C   0  0  0  0  0  0  0  0  0  0  0  0
   30.7560  -13.5243   22.0215 C   0  0  0  0  0  0  0  0  0  0  0  0
   30.3876  -12.1005   21.8101 C   0  0  0  0  0  0  0  0  0  0  0  0
   29.9929  -11.8482   20.4237 N   0  0  0  0  0  0  0  0  0  0  0  0
   30.3775  -14.0879   19.5820 C   0  0  0  0  0  0  0  0  0  0  0  0
   29.3528  -10.6570   20.1587 C   0  0  0  0  0  0  0  0  0  0  0  0
   28.9737  -10.1463   18.5646 S   0  0  0  0  0  0  0  0  0  0  0  0
   28.2284   -8.7240   19.1944 C   0  0  0  0  0  0  0  0  0  0  0  0
   27.0284   -8.0465   17.0837 C   0  0  0  0  0  0  0  0  0  0  0  0
   27.5453   -7.5825   15.8138 C   0  0  0  0  0  0  0  0  0  0  0  0
   25.9765   -8.9196   17.1097 C   0  0  0  0  0  0  0  0  0  0  0  0
   25.4311   -9.5297   13.5609 N   0  0  0  0  0  0  0  0  0  0  0  0
   25.7570   -9.0799   12.3076 N   0  0  0  0  0  0  0  0  0  0  0  0
   24.3902  -10.9135   12.1545 C   0  0  0  0  0  0  0  0  0  0  0  0
   29.0334  -15.3209   26.9910 H   0  0  0  0  0  0  0  0  0  0  0  0
   29.3173  -14.4630   25.4386 H   0  0  0  0  0  0  0  0  0  0  0  0
   28.9451  -16.2203   25.4386 H   0  0  0  0  0  0  0  0  0  0  0  0
   31.6296  -17.2206   22.8276 H   0  0  0  0  0  0  0  0  0  0  0  0
   31.1124  -16.5335   20.4641 H   0  0  0  0  0  0  0  0  0  0  0  0
   30.2393  -12.3377   18.3606 H   0  0  0  0  0  0  0  0  0  0  0  0
   31.7344  -12.4462   19.3324 H   0  0  0  0  0  0  0  0  0  0  0  0
   31.0750  -13.1139   24.1350 H   0  0  0  0  0  0  0  0  0  0  0  0
   27.9265   -7.9503   21.1561 H   0  0  0  0  0  0  0  0  0  0  0  0
   26.7828   -7.1722   19.0391 H   0  0  0  0  0  0  0  0  0  0  0  0
   28.3804   -6.8461   18.2353 H   0  0  0  0  0  0  0  0  0  0  0  0
   24.5385  -10.0759   16.0296 H   0  0  0  0  0  0  0  0  0  0  0  0
   27.3681   -7.7798   13.6700 H   0  0  0  0  0  0  0  0  0  0  0  0
   24.2247  -11.2437   14.3037 H   0  0  0  0  0  0  0  0  0  0  0  0
   25.0942   -9.7611   10.3819 H   0  0  0  0  0  0  0  0  0  0  0  0
   33.5963  -16.6236   28.6661 H   0  0  0  0  0  0  0  0  0  0  0  0
   34.1364  -17.8262   27.4460 H   0  0  0  0  0  0  0  0  0  0  0  0
   34.8346  -16.1712   27.4460 H   0  0  0  0  0  0  0  0  0  0  0  0
   33.9344  -16.0120   24.7627 H   0  0  0  0  0  0  0  0  0  0  0  0
   29.5470  -11.8467   22.4727 H   0  0  0  0  0  0  0  0  0  0  0  0
   31.2667  -11.4795   22.0370 H   0  0  0  0  0  0  0  0  0  0  0  0
   30.9590  -14.6878   18.8664 H   0  0  0  0  0  0  0  0  0  0  0  0
   29.2997  -14.2657   19.4526 H   0  0  0  0  0  0  0  0  0  0  0  0
   28.3580   -6.8425   15.7699 H   0  0  0  0  0  0  0  0  0  0  0  0
   25.5802   -9.2438   18.0832 H   0  0  0  0  0  0  0  0  0  0  0  0
   23.7971  -11.7301   11.7171 H   0  0  0  0  0  0  0  0  0  0  0  0
  1 17  2  0
  1 18  1  0
  2 10  1  0
  2 26  2  0
  3 17  1  0
  4  5  2  0
  4  9  1  0
  4 20  1  0
  5  6  1  0
  6  7  2  0
  7 22  1  0
  7 25  1  0
  8 24  1  0
  8 25  1  0
  9 22  2  0
 10 28  2  0
 11 28  1  0
 11 29  1  0
 12 13  2  0
 12 31  1  0
 13 14  1  0
 13 32  1  0
 14 30  2  0
 15 32  1  0
 15 34  2  0
 16 33  2  0
 16 34  1  0
 17 20  1  0
 18 19  1  0
 18 21  2  0
 20 21  1  0
 22 23  1  0
 23 24  1  0
 24 26  1  0
 26 27  1  0
 27 28  1  0
 29 30  1  0
 29 31  2  0
 32 33  1  0
  3 35  1  0
  3 36  1  0
  3 37  1  0
  5 38  1  0
  6 39  1  0
  8 40  1  0
  8 41  1  0
  9 42  1  0
 10 43  1  0
 11 44  1  0
 11 45  1  0
 12 46  1  0
 14 47  1  0
 15 48  1  0
 16 49  1  0
 19 50  1  0
 19 51  1  0
 19 52  1  0
 21 53  1  0
 23 54  1  0
 23 55  1  0
 25 56  1  0
 25 57  1  0
 30 58  1  0
 31 59  1  0
 34 60  1  0
M  END
>  <filename_input>  (8) 
7T1D_E7K_docked.sdf

>  <pdb_id>  (8) 
7T1D_E7K

>  <pose_rank>  (8) 
7

>  <num_atoms_heavy>  (8) 
34

>  <num_torsions>  (8) 
4

>  <pose>  (8) 
[28.93126080410192, -9.88818483788949, 21.1011394360283, -0.25269051661197084, 1.0606789180393041, -3.7990997577053176, 0.34565497229476133, 1.565418271218253, -1.5573434361087708, 0.05291447209356003]

>  <energy>  (8) 
-398.76031364908135

>  <inter_energy>  (8) 
-407.3191201132339

>  <intra_energy>  (8) 
7.289161862759409

>  <rmsd>  (8) 
9.0151

>  <sdf_rank>  (8) 
0

$$$$

     RDKit          3D

 60 65  0  0  0  0  0  0  0  0999 V2000
   21.0759   -5.6725   20.3011 N   0  0  0  0  0  0  0  0  0  0  0  0
   20.5949   -8.2416   28.9875 N   0  0  0  0  0  0  0  0  0  0  0  0
   21.2023   -4.6624   22.5772 C   0  0  0  0  0  0  0  0  0  0  0  0
   22.8130   -7.1833   23.1158 C   0  0  0  0  0  0  0  0  0  0  0  0
   24.2399   -7.1532   23.2171 C   0  0  0  0  0  0  0  0  0  0  0  0
   24.8595   -7.5365   24.4379 C   0  0  0  0  0  0  0  0  0  0  0  0
   24.1155   -7.9112   25.5354 C   0  0  0  0  0  0  0  0  0  0  0  0
   23.8996   -9.1695   27.6344 C   0  0  0  0  0  0  0  0  0  0  0  0
   22.0526   -7.5758   24.1974 C   0  0  0  0  0  0  0  0  0  0  0  0
   20.1424   -8.3988   30.3027 C   0  0  0  0  0  0  0  0  0  0  0  0
   20.7023   -9.0324   32.6637 C   0  0  0  0  0  0  0  0  0  0  0  0
   19.6787  -12.6420   32.8316 C   0  0  0  0  0  0  0  0  0  0  0  0
   20.6274  -13.1978   33.7457 C   0  0  0  0  0  0  0  0  0  0  0  0
   21.6492  -12.4276   34.2536 C   0  0  0  0  0  0  0  0  0  0  0  0
   21.5895  -15.3663   34.4244 C   0  0  0  0  0  0  0  0  0  0  0  0
   19.7052  -16.4688   34.4238 C   0  0  0  0  0  0  0  0  0  0  0  0
   21.4622   -5.6899   21.5654 C   0  0  0  0  0  0  0  0  0  0  0  0
   21.5975   -6.8522   19.7435 C   0  0  0  0  0  0  0  0  0  0  0  0
   21.3673   -7.2219   18.3446 C   0  0  0  0  0  0  0  0  0  0  0  0
   22.2075   -6.8430   21.8651 N   0  0  0  0  0  0  0  0  0  0  0  0
   22.3024   -7.5970   20.6940 C   0  0  0  0  0  0  0  0  0  0  0  0
   22.6918   -7.9291   25.3953 C   0  0  0  0  0  0  0  0  0  0  0  0
   21.7894   -8.2878   26.5199 C   0  0  0  0  0  0  0  0  0  0  0  0
   22.5410   -8.5577   27.7462 N   0  0  0  0  0  0  0  0  0  0  0  0
   24.7596   -8.2498   26.8213 C   0  0  0  0  0  0  0  0  0  0  0  0
   21.8261   -8.6116   28.9231 C   0  0  0  0  0  0  0  0  0  0  0  0
   22.5361   -9.0760   30.4151 S   0  0  0  0  0  0  0  0  0  0  0  0
   21.0300   -8.8182   31.2154 C   0  0  0  0  0  0  0  0  0  0  0  0
   20.7352  -10.5152   33.0558 C   0  0  0  0  0  0  0  0  0  0  0  0
   21.7473  -11.0796   33.9232 C   0  0  0  0  0  0  0  0  0  0  0  0
   19.7586  -11.3207   32.5394 C   0  0  0  0  0  0  0  0  0  0  0  0
   20.5291  -14.5175   34.1049 N   0  0  0  0  0  0  0  0  0  0  0  0
   19.3599  -15.2322   34.0670 N   0  0  0  0  0  0  0  0  0  0  0  0
   21.1053  -16.6086   34.6259 C   0  0  0  0  0  0  0  0  0  0  0  0
   21.3129   -5.0996   23.5805 H   0  0  0  0  0  0  0  0  0  0  0  0
   21.9202   -3.8379   22.4554 H   0  0  0  0  0  0  0  0  0  0  0  0
   20.1787   -4.2785   22.4554 H   0  0  0  0  0  0  0  0  0  0  0  0
   24.8513   -6.8368   22.3591 H   0  0  0  0  0  0  0  0  0  0  0  0
   25.9573   -7.5337   24.5079 H   0  0  0  0  0  0  0  0  0  0  0  0
   24.3345   -9.2975   28.6367 H   0  0  0  0  0  0  0  0  0  0  0  0
   23.8346  -10.1560   27.1520 H   0  0  0  0  0  0  0  0  0  0  0  0
   20.9558   -7.6115   24.1215 H   0  0  0  0  0  0  0  0  0  0  0  0
   19.0985   -8.1863   30.5768 H   0  0  0  0  0  0  0  0  0  0  0  0
   21.4361   -8.4882   33.2765 H   0  0  0  0  0  0  0  0  0  0  0  0
   19.6810   -8.6617   32.8357 H   0  0  0  0  0  0  0  0  0  0  0  0
   18.9013  -13.2726   32.3756 H   0  0  0  0  0  0  0  0  0  0  0  0
   22.3931  -12.8809   34.9251 H   0  0  0  0  0  0  0  0  0  0  0  0
   22.6463  -15.0708   34.4996 H   0  0  0  0  0  0  0  0  0  0  0  0
   18.9855  -17.2913   34.5484 H   0  0  0  0  0  0  0  0  0  0  0  0
   20.7862   -8.1550   18.3028 H   0  0  0  0  0  0  0  0  0  0  0  0
   20.8090   -6.4194   17.8404 H   0  0  0  0  0  0  0  0  0  0  0  0
   22.3338   -7.3689   17.8404 H   0  0  0  0  0  0  0  0  0  0  0  0
   22.8156   -8.5594   20.5513 H   0  0  0  0  0  0  0  0  0  0  0  0
   21.0962   -7.4533   26.7020 H   0  0  0  0  0  0  0  0  0  0  0  0
   21.2403   -9.2002   26.2440 H   0  0  0  0  0  0  0  0  0  0  0  0
   25.7224   -8.7428   26.6211 H   0  0  0  0  0  0  0  0  0  0  0  0
   24.9097   -7.3205   27.3903 H   0  0  0  0  0  0  0  0  0  0  0  0
   22.5704  -10.4606   34.3099 H   0  0  0  0  0  0  0  0  0  0  0  0
   19.0111  -10.8810   31.8628 H   0  0  0  0  0  0  0  0  0  0  0  0
   21.6644  -17.5194   34.8864 H   0  0  0  0  0  0  0  0  0  0  0  0
  1 17  2  0
  1 18  1  0
  2 10  1  0
  2 26  2  0
  3 17  1  0
  4  5  2  0
  4  9  1  0
  4 20  1  0
  5  6  1  0
  6  7  2  0
  7 22  1  0
  7 25  1  0
  8 24  1  0
  8 25  1  0
  9 22  2  0
 10 28  2  0
 11 28  1  0
 11 29  1  0
 12 13  2  0
 12 31  1  0
 13 14  1  0
 13 32  1  0
 14 30  2  0
 15 32  1  0
 15 34  2  0
 16 33  2  0
 16 34  1  0
 17 20  1  0
 18 19  1  0
 18 21  2  0
 20 21  1  0
 22 23  1  0
 23 24  1  0
 24 26  1  0
 26 27  1  0
 27 28  1  0
 29 30  1  0
 29 31  2  0
 32 33  1  0
  3 35  1  0
  3 36  1  0
  3 37  1  0
  5 38  1  0
  6 39  1  0
  8 40  1  0
  8 41  1  0
  9 42  1  0
 10 43  1  0
 11 44  1  0
 11 45  1  0
 12 46  1  0
 14 47  1  0
 15 48  1  0
 16 49  1  0
 19 50  1  0
 19 51  1  0
 19 52  1  0
 21 53  1  0
 23 54  1  0
 23 55  1  0
 25 56  1  0
 25 57  1  0
 30 58  1  0
 31 59  1  0
 34 60  1  0
M  END
>  <filename_input>  (9) 
7T1D_E7K_docked.sdf

>  <pdb_id>  (9) 
7T1D_E7K

>  <pose_rank>  (9) 
8

>  <num_atoms_heavy>  (9) 
34

>  <num_torsions>  (9) 
4

>  <pose>  (9) 
[20.594938042137112, -8.241609898405937, 28.987519244378465, 1.0668641179697187, 3.3081937260676484, 0.94276536325624, 0.3304578662358889, 6.1709644069236695, -3.8993018791623, 2.9248699540512186]

>  <energy>  (9) 
-408.7432962594732

>  <inter_energy>  (9) 
-401.78600984426527

>  <intra_energy>  (9) 
4.183558175462914

>  <rmsd>  (9) 
13.7489

>  <sdf_rank>  (9) 
0

$$$$

     RDKit          3D

 60 65  0  0  0  0  0  0  0  0999 V2000
   21.4966   -6.9629   26.4061 N   0  0  0  0  0  0  0  0  0  0  0  0
   25.2693   -4.7680   18.1561 N   0  0  0  0  0  0  0  0  0  0  0  0
   23.6345   -8.0957   25.8036 C   0  0  0  0  0  0  0  0  0  0  0  0
   22.4798   -7.8016   23.0073 C   0  0  0  0  0  0  0  0  0  0  0  0
   22.3977   -9.1805   22.6342 C   0  0  0  0  0  0  0  0  0  0  0  0
   23.0722   -9.6267   21.4649 C   0  0  0  0  0  0  0  0  0  0  0  0
   23.7820   -8.7557   20.6674 C   0  0  0  0  0  0  0  0  0  0  0  0
   25.5892   -8.3313   19.0582 C   0  0  0  0  0  0  0  0  0  0  0  0
   23.2031   -6.9190   22.2326 C   0  0  0  0  0  0  0  0  0  0  0  0
   25.8151   -4.1234   17.0399 C   0  0  0  0  0  0  0  0  0  0  0  0
   27.0529   -4.3492   14.8706 C   0  0  0  0  0  0  0  0  0  0  0  0
   24.4496   -2.1673   13.2681 C   0  0  0  0  0  0  0  0  0  0  0  0
   25.0354   -0.8654   13.3471 C   0  0  0  0  0  0  0  0  0  0  0  0
   26.2395   -0.6738   13.9865 C   0  0  0  0  0  0  0  0  0  0  0  0
   23.2262    0.1549   12.0150 C   0  0  0  0  0  0  0  0  0  0  0  0
   23.9714    2.2031   12.1384 C   0  0  0  0  0  0  0  0  0  0  0  0
   22.3318   -7.4855   25.5245 C   0  0  0  0  0  0  0  0  0  0  0  0
   20.4170   -6.4817   25.6459 C   0  0  0  0  0  0  0  0  0  0  0  0
   19.2518   -5.8431   26.2630 C   0  0  0  0  0  0  0  0  0  0  0  0
   21.8373   -7.3786   24.2135 N   0  0  0  0  0  0  0  0  0  0  0  0
   20.6035   -6.7291   24.2825 C   0  0  0  0  0  0  0  0  0  0  0  0
   23.8413   -7.3851   21.0733 C   0  0  0  0  0  0  0  0  0  0  0  0
   24.5524   -6.3526   20.2758 C   0  0  0  0  0  0  0  0  0  0  0  0
   25.1122   -6.9152   19.0463 N   0  0  0  0  0  0  0  0  0  0  0  0
   24.4305   -9.2105   19.4202 C   0  0  0  0  0  0  0  0  0  0  0  0
   25.5352   -6.0253   18.0829 C   0  0  0  0  0  0  0  0  0  0  0  0
   26.3584   -6.5240   16.6619 S   0  0  0  0  0  0  0  0  0  0  0  0
   26.4223   -4.8873   16.1211 C   0  0  0  0  0  0  0  0  0  0  0  0
   26.3604   -3.0749   14.3703 C   0  0  0  0  0  0  0  0  0  0  0  0
   26.9318   -1.7540   14.5250 C   0  0  0  0  0  0  0  0  0  0  0  0
   25.1436   -3.2208   13.7642 C   0  0  0  0  0  0  0  0  0  0  0  0
   24.3809    0.2065   12.7968 N   0  0  0  0  0  0  0  0  0  0  0  0
   24.8600    1.4904   12.8298 N   0  0  0  0  0  0  0  0  0  0  0  0
   22.9426    1.3984   11.5774 C   0  0  0  0  0  0  0  0  0  0  0  0
   23.7816   -8.1646   26.8915 H   0  0  0  0  0  0  0  0  0  0  0  0
   23.6689   -9.1036   25.3643 H   0  0  0  0  0  0  0  0  0  0  0  0
   24.4308   -7.4769   25.3643 H   0  0  0  0  0  0  0  0  0  0  0  0
   21.8187   -9.8880   23.2458 H   0  0  0  0  0  0  0  0  0  0  0  0
   23.0264  -10.6911   21.1909 H   0  0  0  0  0  0  0  0  0  0  0  0
   25.9682   -8.6053   18.0626 H   0  0  0  0  0  0  0  0  0  0  0  0
   26.4025   -8.4531   19.7887 H   0  0  0  0  0  0  0  0  0  0  0  0
   23.2788   -5.8602   22.5208 H   0  0  0  0  0  0  0  0  0  0  0  0
   25.7482   -3.0318   16.9214 H   0  0  0  0  0  0  0  0  0  0  0  0
   28.1086   -4.1200   15.0774 H   0  0  0  0  0  0  0  0  0  0  0  0
   26.9536   -5.1153   14.0875 H   0  0  0  0  0  0  0  0  0  0  0  0
   23.4577   -2.3109   12.8147 H   0  0  0  0  0  0  0  0  0  0  0  0
   26.6572    0.3402   14.0722 H   0  0  0  0  0  0  0  0  0  0  0  0
   22.6433   -0.7510   11.7924 H   0  0  0  0  0  0  0  0  0  0  0  0
   24.0278    3.2948   12.0153 H   0  0  0  0  0  0  0  0  0  0  0  0
   19.3432   -5.8932   27.3581 H   0  0  0  0  0  0  0  0  0  0  0  0
   19.2003   -4.7907   25.9472 H   0  0  0  0  0  0  0  0  0  0  0  0
   18.3370   -6.3659   25.9472 H   0  0  0  0  0  0  0  0  0  0  0  0
   19.9302   -6.4704   23.4519 H   0  0  0  0  0  0  0  0  0  0  0  0
   23.8437   -5.5535   20.0127 H   0  0  0  0  0  0  0  0  0  0  0  0
   25.3805   -5.9578   20.8827 H   0  0  0  0  0  0  0  0  0  0  0  0
   24.7914  -10.2403   19.5587 H   0  0  0  0  0  0  0  0  0  0  0  0
   23.6913   -9.1638   18.6069 H   0  0  0  0  0  0  0  0  0  0  0  0
   27.8857   -1.6083   15.0531 H   0  0  0  0  0  0  0  0  0  0  0  0
   24.7124   -4.2289   13.6761 H   0  0  0  0  0  0  0  0  0  0  0  0
   22.1083    1.7164   10.9350 H   0  0  0  0  0  0  0  0  0  0  0  0
  1 17  2  0
  1 18  1  0
  2 10  1  0
  2 26  2  0
  3 17  1  0
  4  5  2  0
  4  9  1  0
  4 20  1  0
  5  6  1  0
  6  7  2  0
  7 22  1  0
  7 25  1  0
  8 24  1  0
  8 25  1  0
  9 22  2  0
 10 28  2  0
 11 28  1  0
 11 29  1  0
 12 13  2  0
 12 31  1  0
 13 14  1  0
 13 32  1  0
 14 30  2  0
 15 32  1  0
 15 34  2  0
 16 33  2  0
 16 34  1  0
 17 20  1  0
 18 19  1  0
 18 21  2  0
 20 21  1  0
 22 23  1  0
 23 24  1  0
 24 26  1  0
 26 27  1  0
 27 28  1  0
 29 30  1  0
 29 31  2  0
 32 33  1  0
  3 35  1  0
  3 36  1  0
  3 37  1  0
  5 38  1  0
  6 39  1  0
  8 40  1  0
  8 41  1  0
  9 42  1  0
 10 43  1  0
 11 44  1  0
 11 45  1  0
 12 46  1  0
 14 47  1  0
 15 48  1  0
 16 49  1  0
 19 50  1  0
 19 51  1  0
 19 52  1  0
 21 53  1  0
 23 54  1  0
 23 55  1  0
 25 56  1  0
 25 57  1  0
 30 58  1  0
 31 59  1  0
 34 60  1  0
M  END
>  <filename_input>  (10) 
7T1D_E7K_docked.sdf

>  <pdb_id>  (10) 
7T1D_E7K

>  <pose_rank>  (10) 
9

>  <num_atoms_heavy>  (10) 
34

>  <num_torsions>  (10) 
4

>  <pose>  (10) 
[25.269305752711226, -4.7679903605833225, 18.156133613746082, 1.9701065859520646, 0.6609747653376886, -3.5976001104520665, -2.609603292988417, 9.990873045351504, 2.279327422086381, 0.21243337978599935]

>  <energy>  (10) 
-342.22037652576927

>  <inter_energy>  (10) 
-354.6946847586639

>  <intra_energy>  (10) 
5.833072678255055

>  <rmsd>  (10) 
6.18302

>  <sdf_rank>  (10) 
0

$$$$

     RDKit          3D

 60 65  0  0  0  0  0  0  0  0999 V2000
   23.2805    0.3289    8.5758 N   0  0  0  0  0  0  0  0  0  0  0  0
   25.4258   -4.8573   16.0206 N   0  0  0  0  0  0  0  0  0  0  0  0
   25.6862   -0.2054    8.9553 C   0  0  0  0  0  0  0  0  0  0  0  0
   24.7911   -0.0842   11.8575 C   0  0  0  0  0  0  0  0  0  0  0  0
   25.5987    0.9923   12.3436 C   0  0  0  0  0  0  0  0  0  0  0  0
   26.4777    0.7644   13.4375 C   0  0  0  0  0  0  0  0  0  0  0  0
   26.5504   -0.4637   14.0580 C   0  0  0  0  0  0  0  0  0  0  0  0
   27.8119   -2.1218   15.3600 C   0  0  0  0  0  0  0  0  0  0  0  0
   24.8659   -1.3261   12.4527 C   0  0  0  0  0  0  0  0  0  0  0  0
   25.5292   -5.8558   16.9961 C   0  0  0  0  0  0  0  0  0  0  0  0
   26.7789   -6.7430   18.9811 C   0  0  0  0  0  0  0  0  0  0  0  0
   23.3983   -6.0622   20.4688 C   0  0  0  0  0  0  0  0  0  0  0  0
   23.3999   -6.8762   21.6442 C   0  0  0  0  0  0  0  0  0  0  0  0
   24.4616   -7.7075   21.9224 C   0  0  0  0  0  0  0  0  0  0  0  0
   21.1147   -6.1837   22.2661 C   0  0  0  0  0  0  0  0  0  0  0  0
   21.1400   -7.0613   24.2649 C   0  0  0  0  0  0  0  0  0  0  0  0
   24.3131    0.0966    9.3681 C   0  0  0  0  0  0  0  0  0  0  0  0
   22.1926    0.5283    9.4426 C   0  0  0  0  0  0  0  0  0  0  0  0
   20.8491    0.8414    8.9489 C   0  0  0  0  0  0  0  0  0  0  0  0
   23.9492    0.1483   10.7244 N   0  0  0  0  0  0  0  0  0  0  0  0
   22.5817    0.4231   10.7815 C   0  0  0  0  0  0  0  0  0  0  0  0
   25.7279   -1.5152   13.5433 C   0  0  0  0  0  0  0  0  0  0  0  0
   25.7023   -2.8708   14.1511 C   0  0  0  0  0  0  0  0  0  0  0  0
   26.5666   -2.9472   15.3295 N   0  0  0  0  0  0  0  0  0  0  0  0
   27.4192   -0.6808   15.2331 C   0  0  0  0  0  0  0  0  0  0  0  0
   26.4129   -4.0418   16.1525 C   0  0  0  0  0  0  0  0  0  0  0  0
   27.4571   -4.3551   17.4781 S   0  0  0  0  0  0  0  0  0  0  0  0
   26.5348   -5.7572   17.8768 C   0  0  0  0  0  0  0  0  0  0  0  0
   25.5885   -6.8474   19.9431 C   0  0  0  0  0  0  0  0  0  0  0  0
   25.5747   -7.7330   21.0880 C   0  0  0  0  0  0  0  0  0  0  0  0
   24.4989   -6.0654   19.6774 C   0  0  0  0  0  0  0  0  0  0  0  0
   22.3236   -6.8425   22.4931 N   0  0  0  0  0  0  0  0  0  0  0  0
   22.3411   -7.3513   23.7659 N   0  0  0  0  0  0  0  0  0  0  0  0
   20.3455   -6.2966   23.3678 C   0  0  0  0  0  0  0  0  0  0  0  0
   26.3152   -0.3438    9.8471 H   0  0  0  0  0  0  0  0  0  0  0  0
   25.6942   -1.1268    8.3544 H   0  0  0  0  0  0  0  0  0  0  0  0
   26.0801    0.6275    8.3544 H   0  0  0  0  0  0  0  0  0  0  0  0
   25.5400    1.9861   11.8757 H   0  0  0  0  0  0  0  0  0  0  0  0
   27.1139    1.5868   13.7965 H   0  0  0  0  0  0  0  0  0  0  0  0
   28.3417   -2.2814   16.3107 H   0  0  0  0  0  0  0  0  0  0  0  0
   28.4794   -2.4088   14.5342 H   0  0  0  0  0  0  0  0  0  0  0  0
   24.2556   -2.1601   12.0759 H   0  0  0  0  0  0  0  0  0  0  0  0
   24.8127   -6.6894   17.0384 H   0  0  0  0  0  0  0  0  0  0  0  0
   26.9628   -7.7326   18.5374 H   0  0  0  0  0  0  0  0  0  0  0  0
   27.6477   -6.3932   19.5581 H   0  0  0  0  0  0  0  0  0  0  0  0
   22.5232   -5.4469   20.2123 H   0  0  0  0  0  0  0  0  0  0  0  0
   24.4296   -8.3559   22.8104 H   0  0  0  0  0  0  0  0  0  0  0  0
   20.8352   -5.6587   21.3407 H   0  0  0  0  0  0  0  0  0  0  0  0
   20.8005   -7.3788   25.2618 H   0  0  0  0  0  0  0  0  0  0  0  0
   20.1726    0.9990    9.8018 H   0  0  0  0  0  0  0  0  0  0  0  0
   20.8869    1.7548    8.3371 H   0  0  0  0  0  0  0  0  0  0  0  0
   20.4793    0.0054    8.3371 H   0  0  0  0  0  0  0  0  0  0  0  0
   21.9525    0.5323   11.6771 H   0  0  0  0  0  0  0  0  0  0  0  0
   24.6705   -3.1095   14.4487 H   0  0  0  0  0  0  0  0  0  0  0  0
   26.0715   -3.5902   13.4054 H   0  0  0  0  0  0  0  0  0  0  0  0
   28.3276   -0.0699   15.1251 H   0  0  0  0  0  0  0  0  0  0  0  0
   26.8614   -0.3917   16.1360 H   0  0  0  0  0  0  0  0  0  0  0  0
   26.4198   -8.4067   21.2925 H   0  0  0  0  0  0  0  0  0  0  0  0
   24.5159   -5.4157   18.7899 H   0  0  0  0  0  0  0  0  0  0  0  0
   19.3366   -5.8909   23.5339 H   0  0  0  0  0  0  0  0  0  0  0  0
  1 17  2  0
  1 18  1  0
  2 10  1  0
  2 26  2  0
  3 17  1  0
  4  5  2  0
  4  9  1  0
  4 20  1  0
  5  6  1  0
  6  7  2  0
  7 22  1  0
  7 25  1  0
  8 24  1  0
  8 25  1  0
  9 22  2  0
 10 28  2  0
 11 28  1  0
 11 29  1  0
 12 13  2  0
 12 31  1  0
 13 14  1  0
 13 32  1  0
 14 30  2  0
 15 32  1  0
 15 34  2  0
 16 33  2  0
 16 34  1  0
 17 20  1  0
 18 19  1  0
 18 21  2  0
 20 21  1  0
 22 23  1  0
 23 24  1  0
 24 26  1  0
 26 27  1  0
 27 28  1  0
 29 30  1  0
 29 31  2  0
 32 33  1  0
  3 35  1  0
  3 36  1  0
  3 37  1  0
  5 38  1  0
  6 39  1  0
  8 40  1  0
  8 41  1  0
  9 42  1  0
 10 43  1  0
 11 44  1  0
 11 45  1  0
 12 46  1  0
 14 47  1  0
 15 48  1  0
 16 49  1  0
 19 50  1  0
 19 51  1  0
 19 52  1  0
 21 53  1  0
 23 54  1  0
 23 55  1  0
 25 56  1  0
 25 57  1  0
 30 58  1  0
 31 59  1  0
 34 60  1  0
M  END
>  <filename_input>  (11) 
7T1D_E7K_docked.sdf

>  <pdb_id>  (11) 
7T1D_E7K

>  <pose_rank>  (11) 
10

>  <num_atoms_heavy>  (11) 
34

>  <num_torsions>  (11) 
4

>  <pose>  (11) 
[25.425798784366286, -4.857319403207838, 16.02063904423295, 0.5939476402836779, -2.1671491045797526, -0.8675157053304741, 3.7014130909494543, 3.185940873576128, -2.69417259409607, 0.4704191304963395]

>  <energy>  (11) 
-280.1810940445708

>  <inter_energy>  (11) 
-306.5803370587168

>  <intra_energy>  (11) 
26.689932259692796

>  <rmsd>  (11) 
13.0471

>  <sdf_rank>  (11) 
0

$$$$

     RDKit          3D

 60 65  0  0  0  0  0  0  0  0999 V2000
   15.2364    0.2683   15.9519 N   0  0  0  0  0  0  0  0  0  0  0  0
   23.7504   -3.2586   14.9623 N   0  0  0  0  0  0  0  0  0  0  0  0
   16.5262    0.6022   13.8444 C   0  0  0  0  0  0  0  0  0  0  0  0
   18.8433    0.7064   15.8089 C   0  0  0  0  0  0  0  0  0  0  0  0
   19.3769    2.0332   15.7611 C   0  0  0  0  0  0  0  0  0  0  0  0
   20.7276    2.2265   15.3620 C   0  0  0  0  0  0  0  0  0  0  0  0
   21.5434    1.1621   15.0455 C   0  0  0  0  0  0  0  0  0  0  0  0
   23.4716    0.2426   13.8322 C   0  0  0  0  0  0  0  0  0  0  0  0
   19.6389   -0.3696   15.4753 C   0  0  0  0  0  0  0  0  0  0  0  0
   24.8633   -4.1000   14.8499 C   0  0  0  0  0  0  0  0  0  0  0  0
   27.2804   -4.3266   14.2211 C   0  0  0  0  0  0  0  0  0  0  0  0
   26.5720   -7.8543   13.1445 C   0  0  0  0  0  0  0  0  0  0  0  0
   26.5865   -8.5716   14.3813 C   0  0  0  0  0  0  0  0  0  0  0  0
   26.9006   -7.9340   15.5604 C   0  0  0  0  0  0  0  0  0  0  0  0
   25.6030  -10.6143   13.4071 C   0  0  0  0  0  0  0  0  0  0  0  0
   26.0822  -11.9274   15.0840 C   0  0  0  0  0  0  0  0  0  0  0  0
   16.3656    0.4711   15.2950 C   0  0  0  0  0  0  0  0  0  0  0  0
   15.6109    0.1803   17.3035 C   0  0  0  0  0  0  0  0  0  0  0  0
   14.6300   -0.0203   18.3732 C   0  0  0  0  0  0  0  0  0  0  0  0
   17.4683    0.5332   16.1639 N   0  0  0  0  0  0  0  0  0  0  0  0
   16.9905    0.3432   17.4618 C   0  0  0  0  0  0  0  0  0  0  0  0
   20.9740   -0.1490   15.1047 C   0  0  0  0  0  0  0  0  0  0  0  0
   21.7670   -1.3713   14.8134 C   0  0  0  0  0  0  0  0  0  0  0  0
   23.1638   -1.0477   14.5202 N   0  0  0  0  0  0  0  0  0  0  0  0
   22.9637    1.3614   14.6906 C   0  0  0  0  0  0  0  0  0  0  0  0
   24.0651   -2.0901   14.5235 C   0  0  0  0  0  0  0  0  0  0  0  0
   25.7014   -1.8985   14.0424 S   0  0  0  0  0  0  0  0  0  0  0  0
   26.0027   -3.5598   14.3953 C   0  0  0  0  0  0  0  0  0  0  0  0
   27.0695   -5.8425   14.3257 C   0  0  0  0  0  0  0  0  0  0  0  0
   27.1620   -6.5675   15.5752 C   0  0  0  0  0  0  0  0  0  0  0  0
   26.7940   -6.5172   13.1689 C   0  0  0  0  0  0  0  0  0  0  0  0
   26.3033   -9.9133   14.3896 N   0  0  0  0  0  0  0  0  0  0  0  0
   26.5596  -10.7393   15.4531 N   0  0  0  0  0  0  0  0  0  0  0  0
   25.4401  -11.8887   13.8164 C   0  0  0  0  0  0  0  0  0  0  0  0
   17.3618    1.2842   13.6282 H   0  0  0  0  0  0  0  0  0  0  0  0
   16.7366   -0.3854   13.4081 H   0  0  0  0  0  0  0  0  0  0  0  0
   15.6009    1.0063   13.4081 H   0  0  0  0  0  0  0  0  0  0  0  0
   18.7483    2.8948   16.0303 H   0  0  0  0  0  0  0  0  0  0  0  0
   21.1305    3.2485   15.3047 H   0  0  0  0  0  0  0  0  0  0  0  0
   24.5585    0.3418   13.6951 H   0  0  0  0  0  0  0  0  0  0  0  0
   22.9895    0.2717   12.8439 H   0  0  0  0  0  0  0  0  0  0  0  0
   19.2307   -1.3908   15.4995 H   0  0  0  0  0  0  0  0  0  0  0  0
   24.8052   -5.1637   15.1242 H   0  0  0  0  0  0  0  0  0  0  0  0
   27.6993   -4.0954   13.2306 H   0  0  0  0  0  0  0  0  0  0  0  0
   27.9655   -4.0260   15.0276 H   0  0  0  0  0  0  0  0  0  0  0  0
   26.3848   -8.3758   12.1943 H   0  0  0  0  0  0  0  0  0  0  0  0
   26.9452   -8.5089   16.4971 H   0  0  0  0  0  0  0  0  0  0  0  0
   25.2430  -10.1961   12.4555 H   0  0  0  0  0  0  0  0  0  0  0  0
   26.1749  -12.8383   15.6936 H   0  0  0  0  0  0  0  0  0  0  0  0
   15.1263    0.0812   19.3496 H   0  0  0  0  0  0  0  0  0  0  0  0
   13.8336    0.7336   18.2866 H   0  0  0  0  0  0  0  0  0  0  0  0
   14.1936   -1.0263   18.2866 H   0  0  0  0  0  0  0  0  0  0  0  0
   17.5687    0.3256   18.3974 H   0  0  0  0  0  0  0  0  0  0  0  0
   21.7306   -2.0377   15.6877 H   0  0  0  0  0  0  0  0  0  0  0  0
   21.3335   -1.8610   13.9290 H   0  0  0  0  0  0  0  0  0  0  0  0
   23.0666    2.3093   14.1420 H   0  0  0  0  0  0  0  0  0  0  0  0
   23.5541    1.3833   15.6184 H   0  0  0  0  0  0  0  0  0  0  0  0
   27.4311   -6.0529   16.5094 H   0  0  0  0  0  0  0  0  0  0  0  0
   26.7510   -5.9551   12.2244 H   0  0  0  0  0  0  0  0  0  0  0  0
   24.9288  -12.7087   13.2909 H   0  0  0  0  0  0  0  0  0  0  0  0
  1 17  2  0
  1 18  1  0
  2 10  1  0
  2 26  2  0
  3 17  1  0
  4  5  2  0
  4  9  1  0
  4 20  1  0
  5  6  1  0
  6  7  2  0
  7 22  1  0
  7 25  1  0
  8 24  1  0
  8 25  1  0
  9 22  2  0
 10 28  2  0
 11 28  1  0
 11 29  1  0
 12 13  2  0
 12 31  1  0
 13 14  1  0
 13 32  1  0
 14 30  2  0
 15 32  1  0
 15 34  2  0
 16 33  2  0
 16 34  1  0
 17 20  1  0
 18 19  1  0
 18 21  2  0
 20 21  1  0
 22 23  1  0
 23 24  1  0
 24 26  1  0
 26 27  1  0
 27 28  1  0
 29 30  1  0
 29 31  2  0
 32 33  1  0
  3 35  1  0
  3 36  1  0
  3 37  1  0
  5 38  1  0
  6 39  1  0
  8 40  1  0
  8 41  1  0
  9 42  1  0
 10 43  1  0
 11 44  1  0
 11 45  1  0
 12 46  1  0
 14 47  1  0
 15 48  1  0
 16 49  1  0
 19 50  1  0
 19 51  1  0
 19 52  1  0
 21 53  1  0
 23 54  1  0
 23 55  1  0
 25 56  1  0
 25 57  1  0
 30 58  1  0
 31 59  1  0
 34 60  1  0
M  END
>  <filename_input>  (12) 
7T1D_E7K_docked.sdf

>  <pdb_id>  (12) 
7T1D_E7K

>  <pose_rank>  (12) 
11

>  <num_atoms_heavy>  (12) 
34

>  <num_torsions>  (12) 
4

>  <pose>  (12) 
[23.7503882788633, -3.2585969614450234, 14.962313568812847, -1.6475195466934338, 3.1727235422465134, 3.3988896911241033, 3.849837326598391, -1.837905534187215, -1.1230269200710212, -0.028896344063382956]

>  <energy>  (12) 
-320.29895315023043

>  <inter_energy>  (12) 
-325.87354096141456

>  <intra_energy>  (12) 
6.9238931455851525

>  <rmsd>  (12) 
10.1436

>  <sdf_rank>  (12) 
0

$$$$

     RDKit          3D

 60 65  0  0  0  0  0  0  0  0999 V2000
   20.7972   -7.7636   28.2677 N   0  0  0  0  0  0  0  0  0  0  0  0
   22.7375   -4.5424   19.7659 N   0  0  0  0  0  0  0  0  0  0  0  0
   19.5479   -8.4888   26.2354 C   0  0  0  0  0  0  0  0  0  0  0  0
   22.2974   -8.1669   24.9800 C   0  0  0  0  0  0  0  0  0  0  0  0
   22.4033   -9.5254   24.5436 C   0  0  0  0  0  0  0  0  0  0  0  0
   22.7648   -9.7976   23.1959 C   0  0  0  0  0  0  0  0  0  0  0  0
   22.9898   -8.7819   22.2924 C   0  0  0  0  0  0  0  0  0  0  0  0
   24.0784   -7.9446   20.2553 C   0  0  0  0  0  0  0  0  0  0  0  0
   22.5395   -7.1371   24.0951 C   0  0  0  0  0  0  0  0  0  0  0  0
   22.7612   -3.7824   18.5907 C   0  0  0  0  0  0  0  0  0  0  0  0
   23.2897   -3.7042   16.1405 C   0  0  0  0  0  0  0  0  0  0  0  0
   20.0997   -3.9059   14.1685 C   0  0  0  0  0  0  0  0  0  0  0  0
   19.4524   -2.6713   14.4864 C   0  0  0  0  0  0  0  0  0  0  0  0
   20.0064   -1.8013   15.3983 C   0  0  0  0  0  0  0  0  0  0  0  0
   18.0615   -1.4230   12.8753 C   0  0  0  0  0  0  0  0  0  0  0  0
   16.1499   -2.2553   13.5224 C   0  0  0  0  0  0  0  0  0  0  0  0
   20.7323   -8.0511   26.9789 C   0  0  0  0  0  0  0  0  0  0  0  0
   22.1431   -7.4336   28.5011 C   0  0  0  0  0  0  0  0  0  0  0  0
   22.6285   -7.0261   29.8220 C   0  0  0  0  0  0  0  0  0  0  0  0
   21.9819   -7.9104   26.3516 N   0  0  0  0  0  0  0  0  0  0  0  0
   22.8987   -7.5154   27.3275 C   0  0  0  0  0  0  0  0  0  0  0  0
   22.8747   -7.4368   22.7661 C   0  0  0  0  0  0  0  0  0  0  0  0
   23.0661   -6.2637   21.8747 C   0  0  0  0  0  0  0  0  0  0  0  0
   23.3279   -6.6749   20.4949 N   0  0  0  0  0  0  0  0  0  0  0  0
   23.3052   -9.0678   20.8775 C   0  0  0  0  0  0  0  0  0  0  0  0
   23.2320   -5.7052   19.5205 C   0  0  0  0  0  0  0  0  0  0  0  0
   23.6652   -5.9927   17.8848 S   0  0  0  0  0  0  0  0  0  0  0  0
   23.2057   -4.3810   17.4768 C   0  0  0  0  0  0  0  0  0  0  0  0
   21.9099   -3.3056   15.6011 C   0  0  0  0  0  0  0  0  0  0  0  0
   21.2326   -2.0871   15.9907 C   0  0  0  0  0  0  0  0  0  0  0  0
   21.3098   -4.1640   14.7223 C   0  0  0  0  0  0  0  0  0  0  0  0
   18.2573   -2.3599   13.8906 N   0  0  0  0  0  0  0  0  0  0  0  0
   17.0462   -2.8418   14.3150 N   0  0  0  0  0  0  0  0  0  0  0  0
   16.7405   -1.3272   12.6221 C   0  0  0  0  0  0  0  0  0  0  0  0
   18.7580   -8.7807   26.9430 H   0  0  0  0  0  0  0  0  0  0  0  0
   19.1870   -7.6646   25.6025 H   0  0  0  0  0  0  0  0  0  0  0  0
   19.8097   -9.3495   25.6025 H   0  0  0  0  0  0  0  0  0  0  0  0
   22.2071  -10.3508   25.2438 H   0  0  0  0  0  0  0  0  0  0  0  0
   22.8671  -10.8423   22.8670 H   0  0  0  0  0  0  0  0  0  0  0  0
   24.1825   -8.1178   19.1740 H   0  0  0  0  0  0  0  0  0  0  0  0
   25.0832   -7.8826   20.6987 H   0  0  0  0  0  0  0  0  0  0  0  0
   22.4704   -6.0909   24.4280 H   0  0  0  0  0  0  0  0  0  0  0  0
   22.4278   -2.7341   18.5816 H   0  0  0  0  0  0  0  0  0  0  0  0
   23.9053   -2.7982   16.2410 H   0  0  0  0  0  0  0  0  0  0  0  0
   23.7352   -4.4164   15.4304 H   0  0  0  0  0  0  0  0  0  0  0  0
   19.6262   -4.6303   13.4895 H   0  0  0  0  0  0  0  0  0  0  0  0
   19.4761   -0.8740   15.6605 H   0  0  0  0  0  0  0  0  0  0  0  0
   18.8542   -0.8558   12.3654 H   0  0  0  0  0  0  0  0  0  0  0  0
   15.0709   -2.4662   13.5606 H   0  0  0  0  0  0  0  0  0  0  0  0
   22.0339   -7.5253   30.6012 H   0  0  0  0  0  0  0  0  0  0  0  0
   23.6856   -7.3113   29.9282 H   0  0  0  0  0  0  0  0  0  0  0  0
   22.5305   -5.9356   29.9282 H   0  0  0  0  0  0  0  0  0  0  0  0
   23.9728   -7.3139   27.2016 H   0  0  0  0  0  0  0  0  0  0  0  0
   22.1563   -5.6458   21.8969 H   0  0  0  0  0  0  0  0  0  0  0  0
   23.9354   -5.6944   22.2357 H   0  0  0  0  0  0  0  0  0  0  0  0
   23.9040   -9.9889   20.8227 H   0  0  0  0  0  0  0  0  0  0  0  0
   22.3598   -9.1855   20.3276 H   0  0  0  0  0  0  0  0  0  0  0  0
   21.6744   -1.4067   16.7335 H   0  0  0  0  0  0  0  0  0  0  0  0
   21.8273   -5.0971   14.4551 H   0  0  0  0  0  0  0  0  0  0  0  0
   16.2366   -0.6806   11.8887 H   0  0  0  0  0  0  0  0  0  0  0  0
  1 17  2  0
  1 18  1  0
  2 10  1  0
  2 26  2  0
  3 17  1  0
  4  5  2  0
  4  9  1  0
  4 20  1  0
  5  6  1  0
  6  7  2  0
  7 22  1  0
  7 25  1  0
  8 24  1  0
  8 25  1  0
  9 22  2  0
 10 28  2  0
 11 28  1  0
 11 29  1  0
 12 13  2  0
 12 31  1  0
 13 14  1  0
 13 32  1  0
 14 30  2  0
 15 32  1  0
 15 34  2  0
 16 33  2  0
 16 34  1  0
 17 20  1  0
 18 19  1  0
 18 21  2  0
 20 21  1  0
 22 23  1  0
 23 24  1  0
 24 26  1  0
 26 27  1  0
 27 28  1  0
 29 30  1  0
 29 31  2  0
 32 33  1  0
  3 35  1  0
  3 36  1  0
  3 37  1  0
  5 38  1  0
  6 39  1  0
  8 40  1  0
  8 41  1  0
  9 42  1  0
 10 43  1  0
 11 44  1  0
 11 45  1  0
 12 46  1  0
 14 47  1  0
 15 48  1  0
 16 49  1  0
 19 50  1  0
 19 51  1  0
 19 52  1  0
 21 53  1  0
 23 54  1  0
 23 55  1  0
 25 56  1  0
 25 57  1  0
 30 58  1  0
 31 59  1  0
 34 60  1  0
M  END
>  <filename_input>  (13) 
7T1D_E7K_docked.sdf

>  <pdb_id>  (13) 
7T1D_E7K

>  <pose_rank>  (13) 
12

>  <num_atoms_heavy>  (13) 
34

>  <num_torsions>  (13) 
4

>  <pose>  (13) 
[22.737460163398158, -4.542396767076194, 19.76589180442675, -0.6614801233923402, -0.3124462653729159, 2.1520132249836754, 0.941692040355548, 3.107734144241586, 1.901835724165807, -1.5036371690273298]

>  <energy>  (13) 
-312.588302227041

>  <inter_energy>  (13) 
-326.68443276803976

>  <intra_energy>  (13) 
6.598315415472829

>  <rmsd>  (13) 
6.2087

>  <sdf_rank>  (13) 
0

$$$$

     RDKit          3D

 60 65  0  0  0  0  0  0  0  0999 V2000
   16.8199   -2.9355   14.3210 N   0  0  0  0  0  0  0  0  0  0  0  0
   16.9252  -11.7772   17.2517 N   0  0  0  0  0  0  0  0  0  0  0  0
   14.6335   -4.0540   14.7521 C   0  0  0  0  0  0  0  0  0  0  0  0
   16.1972   -6.4797   13.7985 C   0  0  0  0  0  0  0  0  0  0  0  0
   15.4687   -6.8536   12.6252 C   0  0  0  0  0  0  0  0  0  0  0  0
   14.9059   -8.1564   12.5406 C   0  0  0  0  0  0  0  0  0  0  0  0
   15.0687   -9.0772   13.5525 C   0  0  0  0  0  0  0  0  0  0  0  0
   14.2796  -11.0508   14.7846 C   0  0  0  0  0  0  0  0  0  0  0  0
   16.3526   -7.3813   14.8307 C   0  0  0  0  0  0  0  0  0  0  0  0
   17.1318  -12.9751   17.9458 C   0  0  0  0  0  0  0  0  0  0  0  0
   16.4747  -15.3760   18.2501 C   0  0  0  0  0  0  0  0  0  0  0  0
   20.0957  -16.2476   18.7335 C   0  0  0  0  0  0  0  0  0  0  0  0
   20.2788  -16.0706   20.1404 C   0  0  0  0  0  0  0  0  0  0  0  0
   19.2549  -15.5955   20.9285 C   0  0  0  0  0  0  0  0  0  0  0  0
   21.9493  -17.6237   21.0818 C   0  0  0  0  0  0  0  0  0  0  0  0
   23.3935  -16.0919   21.6596 C   0  0  0  0  0  0  0  0  0  0  0  0
   16.0355   -3.9998   14.3295 C   0  0  0  0  0  0  0  0  0  0  0  0
   18.0659   -3.4037   13.8706 C   0  0  0  0  0  0  0  0  0  0  0  0
   19.2168   -2.5140   13.6961 C   0  0  0  0  0  0  0  0  0  0  0  0
   16.7141   -5.1488   13.8892 N   0  0  0  0  0  0  0  0  0  0  0  0
   18.0260   -4.7737   13.5941 C   0  0  0  0  0  0  0  0  0  0  0  0
   15.8028   -8.6664   14.7098 C   0  0  0  0  0  0  0  0  0  0  0  0
   16.0657   -9.5841   15.8484 C   0  0  0  0  0  0  0  0  0  0  0  0
   15.5284  -10.9215   15.5951 N   0  0  0  0  0  0  0  0  0  0  0  0
   14.5352  -10.4501   13.4354 C   0  0  0  0  0  0  0  0  0  0  0  0
   15.9518  -11.9371   16.4248 C   0  0  0  0  0  0  0  0  0  0  0  0
   15.2925  -13.5203   16.3582 S   0  0  0  0  0  0  0  0  0  0  0  0
   16.3727  -14.0257   17.6043 C   0  0  0  0  0  0  0  0  0  0  0  0
   17.8170  -15.5811   18.9639 C   0  0  0  0  0  0  0  0  0  0  0  0
   18.0069  -15.3252   20.3759 C   0  0  0  0  0  0  0  0  0  0  0  0
   18.8689  -16.0152   18.2059 C   0  0  0  0  0  0  0  0  0  0  0  0
   21.4937  -16.3592   20.7070 N   0  0  0  0  0  0  0  0  0  0  0  0
   22.3903  -15.4053   21.1138 N   0  0  0  0  0  0  0  0  0  0  0  0
   23.1443  -17.4910   21.6923 C   0  0  0  0  0  0  0  0  0  0  0  0
   14.5816   -4.0560   15.8509 H   0  0  0  0  0  0  0  0  0  0  0  0
   14.0985   -3.1758   14.3614 H   0  0  0  0  0  0  0  0  0  0  0  0
   14.1679   -4.9708   14.3614 H   0  0  0  0  0  0  0  0  0  0  0  0
   15.3454   -6.1402   11.7970 H   0  0  0  0  0  0  0  0  0  0  0  0
   14.3277   -8.4354   11.6474 H   0  0  0  0  0  0  0  0  0  0  0  0
   14.0143  -12.1128   14.6756 H   0  0  0  0  0  0  0  0  0  0  0  0
   13.4474  -10.5308   15.2816 H   0  0  0  0  0  0  0  0  0  0  0  0
   16.9020   -7.0955   15.7397 H   0  0  0  0  0  0  0  0  0  0  0  0
   17.8882  -13.0513   18.7408 H   0  0  0  0  0  0  0  0  0  0  0  0
   15.6636  -15.4781   18.9862 H   0  0  0  0  0  0  0  0  0  0  0  0
   16.3962  -16.1346   17.4574 H   0  0  0  0  0  0  0  0  0  0  0  0
   20.9320  -16.5652   18.0933 H   0  0  0  0  0  0  0  0  0  0  0  0
   19.4246  -15.4283   22.0024 H   0  0  0  0  0  0  0  0  0  0  0  0
   21.4207  -18.5726   20.9079 H   0  0  0  0  0  0  0  0  0  0  0  0
   24.3137  -15.6269   22.0429 H   0  0  0  0  0  0  0  0  0  0  0  0
   19.6025   -2.2158   14.6821 H   0  0  0  0  0  0  0  0  0  0  0  0
   20.0053   -3.0396   13.1375 H   0  0  0  0  0  0  0  0  0  0  0  0
   18.9066   -1.6185   13.1375 H   0  0  0  0  0  0  0  0  0  0  0  0
   18.8435   -5.4117   13.2271 H   0  0  0  0  0  0  0  0  0  0  0  0
   17.1521   -9.6590   16.0036 H   0  0  0  0  0  0  0  0  0  0  0  0
   15.5694   -9.1765   16.7415 H   0  0  0  0  0  0  0  0  0  0  0  0
   13.5914  -10.4210   12.8713 H   0  0  0  0  0  0  0  0  0  0  0  0
   15.2804  -11.0694   12.9147 H   0  0  0  0  0  0  0  0  0  0  0  0
   17.1881  -14.9286   20.9942 H   0  0  0  0  0  0  0  0  0  0  0  0
   18.7140  -16.1819   17.1297 H   0  0  0  0  0  0  0  0  0  0  0  0
   23.7793  -18.2823   22.1172 H   0  0  0  0  0  0  0  0  0  0  0  0
  1 17  2  0
  1 18  1  0
  2 10  1  0
  2 26  2  0
  3 17  1  0
  4  5  2  0
  4  9  1  0
  4 20  1  0
  5  6  1  0
  6  7  2  0
  7 22  1  0
  7 25  1  0
  8 24  1  0
  8 25  1  0
  9 22  2  0
 10 28  2  0
 11 28  1  0
 11 29  1  0
 12 13  2  0
 12 31  1  0
 13 14  1  0
 13 32  1  0
 14 30  2  0
 15 32  1  0
 15 34  2  0
 16 33  2  0
 16 34  1  0
 17 20  1  0
 18 19  1  0
 18 21  2  0
 20 21  1  0
 22 23  1  0
 23 24  1  0
 24 26  1  0
 26 27  1  0
 27 28  1  0
 29 30  1  0
 29 31  2  0
 32 33  1  0
  3 35  1  0
  3 36  1  0
  3 37  1  0
  5 38  1  0
  6 39  1  0
  8 40  1  0
  8 41  1  0
  9 42  1  0
 10 43  1  0
 11 44  1  0
 11 45  1  0
 12 46  1  0
 14 47  1  0
 15 48  1  0
 16 49  1  0
 19 50  1  0
 19 51  1  0
 19 52  1  0
 21 53  1  0
 23 54  1  0
 23 55  1  0
 25 56  1  0
 25 57  1  0
 30 58  1  0
 31 59  1  0
 34 60  1  0
M  END
>  <filename_input>  (14) 
7T1D_E7K_docked.sdf

>  <pdb_id>  (14) 
7T1D_E7K

>  <pose_rank>  (14) 
13

>  <num_atoms_heavy>  (14) 
34

>  <num_torsions>  (14) 
4

>  <pose>  (14) 
[16.92516150604565, -11.777221808718089, 17.251718103088045, -1.8873734335467502, 0.10590360834774105, -0.8123887178317818, 3.7233795824266207, -2.405663060268757, 2.1032486980934655, -1.0897043210042927]

>  <energy>  (14) 
-316.3129275479569

>  <inter_energy>  (14) 
-304.258919691587

>  <intra_energy>  (14) 
6.477250632066657

>  <rmsd>  (14) 
12.8053

>  <sdf_rank>  (14) 
0

$$$$

     RDKit          3D

 60 65  0  0  0  0  0  0  0  0999 V2000
   21.2804   -7.3106   24.3971 N   0  0  0  0  0  0  0  0  0  0  0  0
   22.0864   -3.2848   16.5519 N   0  0  0  0  0  0  0  0  0  0  0  0
   20.9293   -5.7246   22.5054 C   0  0  0  0  0  0  0  0  0  0  0  0
   23.3456   -7.2052   21.4061 C   0  0  0  0  0  0  0  0  0  0  0  0
   24.3905   -8.0780   20.9661 C   0  0  0  0  0  0  0  0  0  0  0  0
   25.0467   -7.8124   19.7332 C   0  0  0  0  0  0  0  0  0  0  0  0
   24.6811   -6.7477   18.9387 C   0  0  0  0  0  0  0  0  0  0  0  0
   25.2442   -5.0646   17.2399 C   0  0  0  0  0  0  0  0  0  0  0  0
   22.9802   -6.1223   20.6340 C   0  0  0  0  0  0  0  0  0  0  0  0
   21.7849   -2.4920   15.4385 C   0  0  0  0  0  0  0  0  0  0  0  0
   22.5043   -1.6619   13.1841 C   0  0  0  0  0  0  0  0  0  0  0  0
   18.9163   -2.1315   12.1787 C   0  0  0  0  0  0  0  0  0  0  0  0
   19.0181   -2.9688   11.0242 C   0  0  0  0  0  0  0  0  0  0  0  0
   20.2487   -3.3235   10.5191 C   0  0  0  0  0  0  0  0  0  0  0  0
   17.0258   -4.4151   10.8566 C   0  0  0  0  0  0  0  0  0  0  0  0
   16.3793   -3.6968    8.8990 C   0  0  0  0  0  0  0  0  0  0  0  0
   21.6106   -6.8074   23.2199 C   0  0  0  0  0  0  0  0  0  0  0  0
   22.2090   -8.3397   24.6279 C   0  0  0  0  0  0  0  0  0  0  0  0
   22.1981   -9.1392   25.8557 C   0  0  0  0  0  0  0  0  0  0  0  0
   22.7297   -7.4575   22.6725 N   0  0  0  0  0  0  0  0  0  0  0  0
   23.1203   -8.4500   23.5732 C   0  0  0  0  0  0  0  0  0  0  0  0
   23.6325   -5.8974   19.4123 C   0  0  0  0  0  0  0  0  0  0  0  0
   23.1361   -4.7383   18.6263 C   0  0  0  0  0  0  0  0  0  0  0  0
   23.8162   -4.6348   17.3347 N   0  0  0  0  0  0  0  0  0  0  0  0
   25.3230   -6.5098   17.6293 C   0  0  0  0  0  0  0  0  0  0  0  0
   23.2568   -3.7968   16.3946 C   0  0  0  0  0  0  0  0  0  0  0  0
   24.0208   -3.4458   14.8983 S   0  0  0  0  0  0  0  0  0  0  0  0
   22.6813   -2.4593   14.4425 C   0  0  0  0  0  0  0  0  0  0  0  0
   21.2944   -2.1277   12.3640 C   0  0  0  0  0  0  0  0  0  0  0  0
   21.4166   -2.9124   11.1538 C   0  0  0  0  0  0  0  0  0  0  0  0
   20.0559   -1.7617   12.8128 C   0  0  0  0  0  0  0  0  0  0  0  0
   17.8771   -3.4070   10.4025 N   0  0  0  0  0  0  0  0  0  0  0  0
   17.4835   -2.9963    9.1553 N   0  0  0  0  0  0  0  0  0  0  0  0
   16.0716   -4.6281    9.9280 C   0  0  0  0  0  0  0  0  0  0  0  0
   20.4895   -5.0256   23.2321 H   0  0  0  0  0  0  0  0  0  0  0  0
   21.6537   -5.1893   21.8739 H   0  0  0  0  0  0  0  0  0  0  0  0
   20.1333   -6.1460   21.8739 H   0  0  0  0  0  0  0  0  0  0  0  0
   24.6832   -8.9457   21.5756 H   0  0  0  0  0  0  0  0  0  0  0  0
   25.8645   -8.4714   19.4063 H   0  0  0  0  0  0  0  0  0  0  0  0
   25.6044   -4.9363   16.2085 H   0  0  0  0  0  0  0  0  0  0  0  0
   25.8705   -4.4554   17.9082 H   0  0  0  0  0  0  0  0  0  0  0  0
   22.1852   -5.4417   20.9727 H   0  0  0  0  0  0  0  0  0  0  0  0
   20.8482   -1.9178   15.3830 H   0  0  0  0  0  0  0  0  0  0  0  0
   22.3636   -0.6044   13.4524 H   0  0  0  0  0  0  0  0  0  0  0  0
   23.4037   -1.8039   12.5668 H   0  0  0  0  0  0  0  0  0  0  0  0
   17.9349   -1.7949   12.5443 H   0  0  0  0  0  0  0  0  0  0  0  0
   20.3090   -3.9362    9.6075 H   0  0  0  0  0  0  0  0  0  0  0  0
   17.1180   -4.9482   11.8143 H   0  0  0  0  0  0  0  0  0  0  0  0
   15.7724   -3.5685    7.9907 H   0  0  0  0  0  0  0  0  0  0  0  0
   22.2072   -8.4703   26.7289 H   0  0  0  0  0  0  0  0  0  0  0  0
   21.2915   -9.7615   25.8799 H   0  0  0  0  0  0  0  0  0  0  0  0
   23.0876   -9.7859   25.8799 H   0  0  0  0  0  0  0  0  0  0  0  0
   23.9560   -9.1585   23.4753 H   0  0  0  0  0  0  0  0  0  0  0  0
   22.0567   -4.8600   18.4531 H   0  0  0  0  0  0  0  0  0  0  0  0
   23.3403   -3.8211   19.1981 H   0  0  0  0  0  0  0  0  0  0  0  0
   26.3801   -6.8080   17.6888 H   0  0  0  0  0  0  0  0  0  0  0  0
   24.7938   -7.1039   16.8697 H   0  0  0  0  0  0  0  0  0  0  0  0
   22.4043   -3.1760   10.7476 H   0  0  0  0  0  0  0  0  0  0  0  0
   19.9816   -1.1451   13.7207 H   0  0  0  0  0  0  0  0  0  0  0  0
   15.2461   -5.3544    9.9594 H   0  0  0  0  0  0  0  0  0  0  0  0
  1 17  2  0
  1 18  1  0
  2 10  1  0
  2 26  2  0
  3 17  1  0
  4  5  2  0
  4  9  1  0
  4 20  1  0
  5  6  1  0
  6  7  2  0
  7 22  1  0
  7 25  1  0
  8 24  1  0
  8 25  1  0
  9 22  2  0
 10 28  2  0
 11 28  1  0
 11 29  1  0
 12 13  2  0
 12 31  1  0
 13 14  1  0
 13 32  1  0
 14 30  2  0
 15 32  1  0
 15 34  2  0
 16 33  2  0
 16 34  1  0
 17 20  1  0
 18 19  1  0
 18 21  2  0
 20 21  1  0
 22 23  1  0
 23 24  1  0
 24 26  1  0
 26 27  1  0
 27 28  1  0
 29 30  1  0
 29 31  2  0
 32 33  1  0
  3 35  1  0
  3 36  1  0
  3 37  1  0
  5 38  1  0
  6 39  1  0
  8 40  1  0
  8 41  1  0
  9 42  1  0
 10 43  1  0
 11 44  1  0
 11 45  1  0
 12 46  1  0
 14 47  1  0
 15 48  1  0
 16 49  1  0
 19 50  1  0
 19 51  1  0
 19 52  1  0
 21 53  1  0
 23 54  1  0
 23 55  1  0
 25 56  1  0
 25 57  1  0
 30 58  1  0
 31 59  1  0
 34 60  1  0
M  END
>  <filename_input>  (15) 
7T1D_E7K_docked.sdf

>  <pdb_id>  (15) 
7T1D_E7K

>  <pose_rank>  (15) 
14

>  <num_atoms_heavy>  (15) 
34

>  <num_torsions>  (15) 
4

>  <pose>  (15) 
[22.08637468655787, -3.2847920302895806, 16.551946585329542, -0.7977108429143283, -0.8919721059801387, 2.703859130803356, -0.7758308150550637, -3.1529508173794945, -1.3747801418282437, -7.260855288937169]

>  <energy>  (15) 
-257.6444787988182

>  <inter_energy>  (15) 
-298.42078831589424

>  <intra_energy>  (15) 
39.54768042248733

>  <rmsd>  (15) 
7.65814

>  <sdf_rank>  (15) 
0

$$$$

     RDKit          3D

 60 65  0  0  0  0  0  0  0  0999 V2000
   20.0444   -0.8266   14.2279 N   0  0  0  0  0  0  0  0  0  0  0  0
   15.5181   -8.6769   15.9850 N   0  0  0  0  0  0  0  0  0  0  0  0
   20.7796   -3.1443   13.6759 C   0  0  0  0  0  0  0  0  0  0  0  0
   17.8089   -3.4732   13.1231 C   0  0  0  0  0  0  0  0  0  0  0  0
   17.7825   -3.7350   11.7167 C   0  0  0  0  0  0  0  0  0  0  0  0
   17.1221   -4.8993   11.2375 C   0  0  0  0  0  0  0  0  0  0  0  0
   16.5291   -5.7959   12.0994 C   0  0  0  0  0  0  0  0  0  0  0  0
   14.8393   -7.5221   12.5472 C   0  0  0  0  0  0  0  0  0  0  0  0
   17.2025   -4.3487   13.9994 C   0  0  0  0  0  0  0  0  0  0  0  0
   15.0818   -9.8653   16.5822 C   0  0  0  0  0  0  0  0  0  0  0  0
   13.9243  -12.0708   16.2899 C   0  0  0  0  0  0  0  0  0  0  0  0
   15.8563  -14.5991   18.2848 C   0  0  0  0  0  0  0  0  0  0  0  0
   17.0468  -14.7698   17.5115 C   0  0  0  0  0  0  0  0  0  0  0  0
   17.1986  -14.1275   16.3033 C   0  0  0  0  0  0  0  0  0  0  0  0
   19.2796  -15.1993   18.4700 C   0  0  0  0  0  0  0  0  0  0  0  0
   19.1640  -17.3769   18.3659 C   0  0  0  0  0  0  0  0  0  0  0  0
   19.7993   -2.0687   13.8469 C   0  0  0  0  0  0  0  0  0  0  0  0
   18.7950   -0.1838   14.2033 C   0  0  0  0  0  0  0  0  0  0  0  0
   18.6325    1.2203   14.5890 C   0  0  0  0  0  0  0  0  0  0  0  0
   18.4338   -2.2719   13.5849 N   0  0  0  0  0  0  0  0  0  0  0  0
   17.7788   -1.0596   13.8092 C   0  0  0  0  0  0  0  0  0  0  0  0
   16.5759   -5.4996   13.4983 C   0  0  0  0  0  0  0  0  0  0  0  0
   15.9963   -6.4087   14.5206 C   0  0  0  0  0  0  0  0  0  0  0  0
   15.4421   -7.6182   13.9111 N   0  0  0  0  0  0  0  0  0  0  0  0
   15.8971   -7.0359   11.6032 C   0  0  0  0  0  0  0  0  0  0  0  0
   15.1434   -8.6670   14.7536 C   0  0  0  0  0  0  0  0  0  0  0  0
   14.3412  -10.0855   14.2148 S   0  0  0  0  0  0  0  0  0  0  0  0
   14.4487  -10.7525   15.8019 C   0  0  0  0  0  0  0  0  0  0  0  0
   15.0498  -13.0424   16.6675 C   0  0  0  0  0  0  0  0  0  0  0  0
   16.2148  -13.2613   15.8367 C   0  0  0  0  0  0  0  0  0  0  0  0
   14.9161  -13.7286   17.8424 C   0  0  0  0  0  0  0  0  0  0  0  0
   18.0394  -15.5975   17.9697 N   0  0  0  0  0  0  0  0  0  0  0  0
   17.9979  -16.9641   17.8706 N   0  0  0  0  0  0  0  0  0  0  0  0
   20.0179  -16.2985   18.7249 C   0  0  0  0  0  0  0  0  0  0  0  0
   21.1064   -3.5029   14.6632 H   0  0  0  0  0  0  0  0  0  0  0  0
   20.3203   -3.9737   13.1182 H   0  0  0  0  0  0  0  0  0  0  0  0
   21.6480   -2.7638   13.1182 H   0  0  0  0  0  0  0  0  0  0  0  0
   18.2682   -3.0426   11.0134 H   0  0  0  0  0  0  0  0  0  0  0  0
   17.0837   -5.0884   10.1545 H   0  0  0  0  0  0  0  0  0  0  0  0
   14.4808   -8.5117   12.2275 H   0  0  0  0  0  0  0  0  0  0  0  0
   13.9872   -6.8265   12.5555 H   0  0  0  0  0  0  0  0  0  0  0  0
   17.2101   -4.1466   15.0807 H   0  0  0  0  0  0  0  0  0  0  0  0
   15.2518  -10.0635   17.6507 H   0  0  0  0  0  0  0  0  0  0  0  0
   13.2965  -11.8954   17.1760 H   0  0  0  0  0  0  0  0  0  0  0  0
   13.3471  -12.5265   15.4719 H   0  0  0  0  0  0  0  0  0  0  0  0
   15.7067  -15.1618   19.2181 H   0  0  0  0  0  0  0  0  0  0  0  0
   18.1038  -14.3003   15.7028 H   0  0  0  0  0  0  0  0  0  0  0  0
   19.6020  -14.1599   18.6301 H   0  0  0  0  0  0  0  0  0  0  0  0
   19.4362  -18.4361   18.4840 H   0  0  0  0  0  0  0  0  0  0  0  0
   18.6232    1.3004   15.6860 H   0  0  0  0  0  0  0  0  0  0  0  0
   19.4684    1.8105   14.1853 H   0  0  0  0  0  0  0  0  0  0  0  0
   17.6840    1.6040   14.1853 H   0  0  0  0  0  0  0  0  0  0  0  0
   16.7059   -0.8426   13.7006 H   0  0  0  0  0  0  0  0  0  0  0  0
   16.7849   -6.6960   15.2316 H   0  0  0  0  0  0  0  0  0  0  0  0
   15.1815   -5.8764   15.0332 H   0  0  0  0  0  0  0  0  0  0  0  0
   15.4391   -6.8374   10.6230 H   0  0  0  0  0  0  0  0  0  0  0  0
   16.6722   -7.8119   11.5200 H   0  0  0  0  0  0  0  0  0  0  0  0
   16.3192  -12.7575   14.8644 H   0  0  0  0  0  0  0  0  0  0  0  0
   14.0135  -13.5686   18.4504 H   0  0  0  0  0  0  0  0  0  0  0  0
   21.0435  -16.3491   19.1193 H   0  0  0  0  0  0  0  0  0  0  0  0
  1 17  2  0
  1 18  1  0
  2 10  1  0
  2 26  2  0
  3 17  1  0
  4  5  2  0
  4  9  1  0
  4 20  1  0
  5  6  1  0
  6  7  2  0
  7 22  1  0
  7 25  1  0
  8 24  1  0
  8 25  1  0
  9 22  2  0
 10 28  2  0
 11 28  1  0
 11 29  1  0
 12 13  2  0
 12 31  1  0
 13 14  1  0
 13 32  1  0
 14 30  2  0
 15 32  1  0
 15 34  2  0
 16 33  2  0
 16 34  1  0
 17 20  1  0
 18 19  1  0
 18 21  2  0
 20 21  1  0
 22 23  1  0
 23 24  1  0
 24 26  1  0
 26 27  1  0
 27 28  1  0
 29 30  1  0
 29 31  2  0
 32 33  1  0
  3 35  1  0
  3 36  1  0
  3 37  1  0
  5 38  1  0
  6 39  1  0
  8 40  1  0
  8 41  1  0
  9 42  1  0
 10 43  1  0
 11 44  1  0
 11 45  1  0
 12 46  1  0
 14 47  1  0
 15 48  1  0
 16 49  1  0
 19 50  1  0
 19 51  1  0
 19 52  1  0
 21 53  1  0
 23 54  1  0
 23 55  1  0
 25 56  1  0
 25 57  1  0
 30 58  1  0
 31 59  1  0
 34 60  1  0
M  END
>  <filename_input>  (16) 
7T1D_E7K_docked.sdf

>  <pdb_id>  (16) 
7T1D_E7K

>  <pose_rank>  (16) 
15

>  <num_atoms_heavy>  (16) 
34

>  <num_torsions>  (16) 
4

>  <pose>  (16) 
[15.51807374746624, -8.676949611771935, 15.98498936450419, 3.0271056571785704, 0.09553682165309459, 2.82124527120137, 0.7657406911962705, -3.2488386533975824, -0.34492504170692223, -1.5491097590147662]

>  <energy>  (16) 
-244.46810924726213

>  <inter_energy>  (16) 
-246.77808057783363

>  <intra_energy>  (16) 
1.4953242309897536

>  <rmsd>  (16) 
13.191

>  <sdf_rank>  (16) 
0

$$$$

     RDKit          3D

 60 65  0  0  0  0  0  0  0  0999 V2000
   16.0360  -17.5220   18.1457 N   0  0  0  0  0  0  0  0  0  0  0  0
   21.3520  -10.3531   20.3159 N   0  0  0  0  0  0  0  0  0  0  0  0
   18.2451  -16.8142   17.2316 C   0  0  0  0  0  0  0  0  0  0  0  0
   18.7391  -16.1553   20.1575 C   0  0  0  0  0  0  0  0  0  0  0  0
   19.7309  -17.0637   20.6457 C   0  0  0  0  0  0  0  0  0  0  0  0
   20.9239  -16.5482   21.2220 C   0  0  0  0  0  0  0  0  0  0  0  0
   21.1588  -15.1925   21.2973 C   0  0  0  0  0  0  0  0  0  0  0  0
   22.2459  -13.2755   22.3832 C   0  0  0  0  0  0  0  0  0  0  0  0
   18.9476  -14.7947   20.2435 C   0  0  0  0  0  0  0  0  0  0  0  0
   21.9851   -9.1050   20.2930 C   0  0  0  0  0  0  0  0  0  0  0  0
   23.9112   -7.7029   21.0763 C   0  0  0  0  0  0  0  0  0  0  0  0
   25.1960   -6.5251   17.7495 C   0  0  0  0  0  0  0  0  0  0  0  0
   26.4413   -7.2170   17.6281 C   0  0  0  0  0  0  0  0  0  0  0  0
   26.9091   -8.0080   18.6532 C   0  0  0  0  0  0  0  0  0  0  0  0
   28.5280   -7.4251   16.3277 C   0  0  0  0  0  0  0  0  0  0  0  0
   27.7750   -6.4585   14.5208 C   0  0  0  0  0  0  0  0  0  0  0  0
   17.2493  -17.0165   18.2874 C   0  0  0  0  0  0  0  0  0  0  0  0
   15.4944  -17.5409   19.4423 C   0  0  0  0  0  0  0  0  0  0  0  0
   14.1349  -18.0152   19.7129 C   0  0  0  0  0  0  0  0  0  0  0  0
   17.5228  -16.6894   19.6264 N   0  0  0  0  0  0  0  0  0  0  0  0
   16.3967  -17.0276   20.3790 C   0  0  0  0  0  0  0  0  0  0  0  0
   20.1437  -14.3160   20.7991 C   0  0  0  0  0  0  0  0  0  0  0  0
   20.3012  -12.8386   20.8020 C   0  0  0  0  0  0  0  0  0  0  0  0
   21.6101  -12.4393   21.3204 N   0  0  0  0  0  0  0  0  0  0  0  0
   22.4258  -14.6612   21.8407 C   0  0  0  0  0  0  0  0  0  0  0  0
   22.0001  -11.1349   21.1068 C   0  0  0  0  0  0  0  0  0  0  0  0
   23.4289  -10.4739   21.7905 S   0  0  0  0  0  0  0  0  0  0  0  0
   23.1152   -8.9725   21.0014 C   0  0  0  0  0  0  0  0  0  0  0  0
   24.8607   -7.5389   19.8825 C   0  0  0  0  0  0  0  0  0  0  0  0
   26.1529   -8.1867   19.8074 C   0  0  0  0  0  0  0  0  0  0  0  0
   24.4476   -6.7291   18.8612 C   0  0  0  0  0  0  0  0  0  0  0  0
   27.1865   -7.0753   16.4858 N   0  0  0  0  0  0  0  0  0  0  0  0
   26.7405   -6.4323   15.3603 N   0  0  0  0  0  0  0  0  0  0  0  0
   28.9339   -7.0440   15.0996 C   0  0  0  0  0  0  0  0  0  0  0  0
   19.2266  -16.6148   17.6866 H   0  0  0  0  0  0  0  0  0  0  0  0
   18.3069  -17.7181   16.6078 H   0  0  0  0  0  0  0  0  0  0  0  0
   17.9494  -15.9578   16.6078 H   0  0  0  0  0  0  0  0  0  0  0  0
   19.5720  -18.1499   20.5758 H   0  0  0  0  0  0  0  0  0  0  0  0
   21.6761  -17.2470   21.6167 H   0  0  0  0  0  0  0  0  0  0  0  0
   23.2238  -12.8520   22.6556 H   0  0  0  0  0  0  0  0  0  0  0  0
   21.6110  -13.2976   23.2812 H   0  0  0  0  0  0  0  0  0  0  0  0
   18.1836  -14.0916   19.8800 H   0  0  0  0  0  0  0  0  0  0  0  0
   21.5710   -8.2651   19.7158 H   0  0  0  0  0  0  0  0  0  0  0  0
   23.2163   -6.8505   21.0951 H   0  0  0  0  0  0  0  0  0  0  0  0
   24.5231   -7.7432   21.9894 H   0  0  0  0  0  0  0  0  0  0  0  0
   24.8528   -5.8423   16.9583 H   0  0  0  0  0  0  0  0  0  0  0  0
   27.8873   -8.5021   18.5592 H   0  0  0  0  0  0  0  0  0  0  0  0
   29.1518   -7.9287   17.0809 H   0  0  0  0  0  0  0  0  0  0  0  0
   27.7365   -6.0697   13.4926 H   0  0  0  0  0  0  0  0  0  0  0  0
   13.9755  -18.0708   20.7999 H   0  0  0  0  0  0  0  0  0  0  0  0
   13.4083  -17.3175   19.2710 H   0  0  0  0  0  0  0  0  0  0  0  0
   14.0001  -19.0135   19.2710 H   0  0  0  0  0  0  0  0  0  0  0  0
   16.2519  -16.9157   21.4637 H   0  0  0  0  0  0  0  0  0  0  0  0
   20.1959  -12.4660   19.7723 H   0  0  0  0  0  0  0  0  0  0  0  0
   19.5264  -12.4104   21.4548 H   0  0  0  0  0  0  0  0  0  0  0  0
   22.7735  -15.3205   22.6496 H   0  0  0  0  0  0  0  0  0  0  0  0
   23.1642  -14.6225   21.0263 H   0  0  0  0  0  0  0  0  0  0  0  0
   26.5264   -8.8025   20.6389 H   0  0  0  0  0  0  0  0  0  0  0  0
   23.4734   -6.2252   18.9446 H   0  0  0  0  0  0  0  0  0  0  0  0
   29.9310   -7.1594   14.6497 H   0  0  0  0  0  0  0  0  0  0  0  0
  1 17  2  0
  1 18  1  0
  2 10  1  0
  2 26  2  0
  3 17  1  0
  4  5  2  0
  4  9  1  0
  4 20  1  0
  5  6  1  0
  6  7  2  0
  7 22  1  0
  7 25  1  0
  8 24  1  0
  8 25  1  0
  9 22  2  0
 10 28  2  0
 11 28  1  0
 11 29  1  0
 12 13  2  0
 12 31  1  0
 13 14  1  0
 13 32  1  0
 14 30  2  0
 15 32  1  0
 15 34  2  0
 16 33  2  0
 16 34  1  0
 17 20  1  0
 18 19  1  0
 18 21  2  0
 20 21  1  0
 22 23  1  0
 23 24  1  0
 24 26  1  0
 26 27  1  0
 27 28  1  0
 29 30  1  0
 29 31  2  0
 32 33  1  0
  3 35  1  0
  3 36  1  0
  3 37  1  0
  5 38  1  0
  6 39  1  0
  8 40  1  0
  8 41  1  0
  9 42  1  0
 10 43  1  0
 11 44  1  0
 11 45  1  0
 12 46  1  0
 14 47  1  0
 15 48  1  0
 16 49  1  0
 19 50  1  0
 19 51  1  0
 19 52  1  0
 21 53  1  0
 23 54  1  0
 23 55  1  0
 25 56  1  0
 25 57  1  0
 30 58  1  0
 31 59  1  0
 34 60  1  0
M  END
>  <filename_input>  (17) 
7T1D_E7K_docked.sdf

>  <pdb_id>  (17) 
7T1D_E7K

>  <pose_rank>  (17) 
16

>  <num_atoms_heavy>  (17) 
34

>  <num_torsions>  (17) 
4

>  <pose>  (17) 
[21.351996929649896, -10.353134405985292, 20.315915442405824, -2.299041593324372, -1.7539170315967867, 1.355316104874511, 0.6445913959747195, 2.7761609758853165, -0.9706187885536445, 3.214534713969414]

>  <energy>  (17) 
-261.8154906836608

>  <inter_energy>  (17) 
-253.958210412917

>  <intra_energy>  (17) 
0.7256300167321059

>  <rmsd>  (17) 
8.63339

>  <sdf_rank>  (17) 
0

$$$$

     RDKit          3D

 60 65  0  0  0  0  0  0  0  0999 V2000
   20.3999   -1.6740   13.8373 N   0  0  0  0  0  0  0  0  0  0  0  0
   17.1080  -10.2625   15.1119 N   0  0  0  0  0  0  0  0  0  0  0  0
   18.4631   -2.0486   15.3623 C   0  0  0  0  0  0  0  0  0  0  0  0
   17.8398   -4.2017   13.3094 C   0  0  0  0  0  0  0  0  0  0  0  0
   16.6036   -3.8013   12.7105 C   0  0  0  0  0  0  0  0  0  0  0  0
   15.4746   -4.6604   12.8029 C   0  0  0  0  0  0  0  0  0  0  0  0
   15.5510   -5.8830   13.4337 C   0  0  0  0  0  0  0  0  0  0  0  0
   14.4718   -7.7221   14.6540 C   0  0  0  0  0  0  0  0  0  0  0  0
   17.9293   -5.4128   13.9631 C   0  0  0  0  0  0  0  0  0  0  0  0
   16.9363  -11.6160   15.4248 C   0  0  0  0  0  0  0  0  0  0  0  0
   15.3341  -13.5159   15.7599 C   0  0  0  0  0  0  0  0  0  0  0  0
   16.9112  -14.2555   19.0873 C   0  0  0  0  0  0  0  0  0  0  0  0
   17.9941  -15.1216   18.7388 C   0  0  0  0  0  0  0  0  0  0  0  0
   18.1749  -15.5328   17.4374 C   0  0  0  0  0  0  0  0  0  0  0  0
   20.0409  -14.9494   20.1062 C   0  0  0  0  0  0  0  0  0  0  0  0
   19.7703  -16.8359   21.1710 C   0  0  0  0  0  0  0  0  0  0  0  0
   19.2859   -2.3002   14.1761 C   0  0  0  0  0  0  0  0  0  0  0  0
   20.8230   -2.2974   12.6511 C   0  0  0  0  0  0  0  0  0  0  0  0
   22.0263   -1.8710   11.9322 C   0  0  0  0  0  0  0  0  0  0  0  0
   18.9521   -3.3039   13.2510 N   0  0  0  0  0  0  0  0  0  0  0  0
   19.9406   -3.3111   12.2653 C   0  0  0  0  0  0  0  0  0  0  0  0
   16.8036   -6.2482   14.0205 C   0  0  0  0  0  0  0  0  0  0  0  0
   17.0100   -7.5536   14.6996 C   0  0  0  0  0  0  0  0  0  0  0  0
   15.8094   -8.3879   14.6352 N   0  0  0  0  0  0  0  0  0  0  0  0
   14.3933   -6.8002   13.4748 C   0  0  0  0  0  0  0  0  0  0  0  0
   15.9508   -9.7197   14.9595 C   0  0  0  0  0  0  0  0  0  0  0  0
   14.6126  -10.7868   15.0877 S   0  0  0  0  0  0  0  0  0  0  0  0
   15.6831  -12.0909   15.4460 C   0  0  0  0  0  0  0  0  0  0  0  0
   16.2888  -14.1371   16.7876 C   0  0  0  0  0  0  0  0  0  0  0  0
   17.3340  -15.0722   16.4291 C   0  0  0  0  0  0  0  0  0  0  0  0
   16.1155  -13.7830   18.0968 C   0  0  0  0  0  0  0  0  0  0  0  0
   18.8501  -15.5626   19.7151 N   0  0  0  0  0  0  0  0  0  0  0  0
   18.7154  -16.7647   20.3601 N   0  0  0  0  0  0  0  0  0  0  0  0
   20.6510  -15.7302   21.0207 C   0  0  0  0  0  0  0  0  0  0  0  0
   19.0600   -2.2311   16.2680 H   0  0  0  0  0  0  0  0  0  0  0  0
   18.1185   -1.0040   15.3546 H   0  0  0  0  0  0  0  0  0  0  0  0
   17.5932   -2.7218   15.3546 H   0  0  0  0  0  0  0  0  0  0  0  0
   16.5274   -2.8384   12.1840 H   0  0  0  0  0  0  0  0  0  0  0  0
   14.5189   -4.3420   12.3610 H   0  0  0  0  0  0  0  0  0  0  0  0
   13.6772   -8.4799   14.5882 H   0  0  0  0  0  0  0  0  0  0  0  0
   14.3407   -7.1570   15.5886 H   0  0  0  0  0  0  0  0  0  0  0  0
   18.8741   -5.7207   14.4350 H   0  0  0  0  0  0  0  0  0  0  0  0
   17.7969  -12.2649   15.6448 H   0  0  0  0  0  0  0  0  0  0  0  0
   14.3110  -13.5489   16.1626 H   0  0  0  0  0  0  0  0  0  0  0  0
   15.4188  -14.0957   14.8290 H   0  0  0  0  0  0  0  0  0  0  0  0
   16.7278  -13.9788   20.1360 H   0  0  0  0  0  0  0  0  0  0  0  0
   18.9898  -16.2301   17.1930 H   0  0  0  0  0  0  0  0  0  0  0  0
   20.4195  -13.9874   19.7305 H   0  0  0  0  0  0  0  0  0  0  0  0
   19.9410  -17.6601   21.8792 H   0  0  0  0  0  0  0  0  0  0  0  0
   22.8071   -1.5943   12.6559 H   0  0  0  0  0  0  0  0  0  0  0  0
   22.3876   -2.6959   11.3004 H   0  0  0  0  0  0  0  0  0  0  0  0
   21.7876   -1.0027   11.3004 H   0  0  0  0  0  0  0  0  0  0  0  0
   20.0097   -3.9661   11.3842 H   0  0  0  0  0  0  0  0  0  0  0  0
   17.8402   -8.0837   14.2101 H   0  0  0  0  0  0  0  0  0  0  0  0
   17.2387   -7.3594   15.7579 H   0  0  0  0  0  0  0  0  0  0  0  0
   13.4690   -6.2079   13.5436 H   0  0  0  0  0  0  0  0  0  0  0  0
   14.3984   -7.4076   12.5577 H   0  0  0  0  0  0  0  0  0  0  0  0
   17.4597  -15.4090   15.3895 H   0  0  0  0  0  0  0  0  0  0  0  0
   15.3014  -13.0899   18.3555 H   0  0  0  0  0  0  0  0  0  0  0  0
   21.6086  -15.5527   21.5320 H   0  0  0  0  0  0  0  0  0  0  0  0
  1 17  2  0
  1 18  1  0
  2 10  1  0
  2 26  2  0
  3 17  1  0
  4  5  2  0
  4  9  1  0
  4 20  1  0
  5  6  1  0
  6  7  2  0
  7 22  1  0
  7 25  1  0
  8 24  1  0
  8 25  1  0
  9 22  2  0
 10 28  2  0
 11 28  1  0
 11 29  1  0
 12 13  2  0
 12 31  1  0
 13 14  1  0
 13 32  1  0
 14 30  2  0
 15 32  1  0
 15 34  2  0
 16 33  2  0
 16 34  1  0
 17 20  1  0
 18 19  1  0
 18 21  2  0
 20 21  1  0
 22 23  1  0
 23 24  1  0
 24 26  1  0
 26 27  1  0
 27 28  1  0
 29 30  1  0
 29 31  2  0
 32 33  1  0
  3 35  1  0
  3 36  1  0
  3 37  1  0
  5 38  1  0
  6 39  1  0
  8 40  1  0
  8 41  1  0
  9 42  1  0
 10 43  1  0
 11 44  1  0
 11 45  1  0
 12 46  1  0
 14 47  1  0
 15 48  1  0
 16 49  1  0
 19 50  1  0
 19 51  1  0
 19 52  1  0
 21 53  1  0
 23 54  1  0
 23 55  1  0
 25 56  1  0
 25 57  1  0
 30 58  1  0
 31 59  1  0
 34 60  1  0
M  END
>  <filename_input>  (18) 
7T1D_E7K_docked.sdf

>  <pdb_id>  (18) 
7T1D_E7K

>  <pose_rank>  (18) 
17

>  <num_atoms_heavy>  (18) 
34

>  <num_torsions>  (18) 
4

>  <pose>  (18) 
[17.1079937203085, -10.26248753145878, 15.111935212191652, 3.50594841471919, -1.977193392321292, 1.0517391946614087, -2.4791366170806275, -1.467906113865455, -1.3622748955628847, -1.258269271101604]

>  <energy>  (18) 
-295.8635498614922

>  <inter_energy>  (18) 
-285.4171932932464

>  <intra_energy>  (18) 
3.865563057159498

>  <rmsd>  (18) 
12.973

>  <sdf_rank>  (18) 
0

$$$$

     RDKit          3D

 60 65  0  0  0  0  0  0  0  0999 V2000
   30.5142  -11.1112   29.7764 N   0  0  0  0  0  0  0  0  0  0  0  0
   31.0137  -13.2289   20.9500 N   0  0  0  0  0  0  0  0  0  0  0  0
   29.0522  -10.9621   27.7622 C   0  0  0  0  0  0  0  0  0  0  0  0
   30.2415  -13.7120   27.2499 C   0  0  0  0  0  0  0  0  0  0  0  0
   29.4336  -14.8713   27.4750 C   0  0  0  0  0  0  0  0  0  0  0  0
   29.1510  -15.7445   26.3892 C   0  0  0  0  0  0  0  0  0  0  0  0
   29.6157  -15.4856   25.1182 C   0  0  0  0  0  0  0  0  0  0  0  0
   30.3032  -16.2809   22.8977 C   0  0  0  0  0  0  0  0  0  0  0  0
   30.7329  -13.4478   25.9886 C   0  0  0  0  0  0  0  0  0  0  0  0
   31.0977  -13.1117   19.5578 C   0  0  0  0  0  0  0  0  0  0  0  0
   30.8037  -14.2190   17.3270 C   0  0  0  0  0  0  0  0  0  0  0  0
   28.5850  -11.3487   16.3556 C   0  0  0  0  0  0  0  0  0  0  0  0
   27.5017  -11.9985   15.6859 C   0  0  0  0  0  0  0  0  0  0  0  0
   27.5190  -13.3591   15.4770 C   0  0  0  0  0  0  0  0  0  0  0  0
   25.7968  -11.4072   14.0029 C   0  0  0  0  0  0  0  0  0  0  0  0
   24.9877   -9.6909   15.0825 C   0  0  0  0  0  0  0  0  0  0  0  0
   30.0314  -11.5993   28.6466 C   0  0  0  0  0  0  0  0  0  0  0  0
   31.3819  -12.1041   30.2621 C   0  0  0  0  0  0  0  0  0  0  0  0
   32.1451  -11.9350   31.5012 C   0  0  0  0  0  0  0  0  0  0  0  0
   30.5582  -12.8708   28.3629 N   0  0  0  0  0  0  0  0  0  0  0  0
   31.4282  -13.2056   29.4021 C   0  0  0  0  0  0  0  0  0  0  0  0
   30.4203  -14.3172   24.9327 C   0  0  0  0  0  0  0  0  0  0  0  0
   30.9505  -13.9234   23.6018 C   0  0  0  0  0  0  0  0  0  0  0  0
   30.5036  -14.8408   22.5530 N   0  0  0  0  0  0  0  0  0  0  0  0
   29.2694  -16.3616   23.9800 C   0  0  0  0  0  0  0  0  0  0  0  0
   30.6732  -14.4342   21.2472 C   0  0  0  0  0  0  0  0  0  0  0  0
   30.3498  -15.4606   19.9102 S   0  0  0  0  0  0  0  0  0  0  0  0
   30.7686  -14.1858   18.8265 C   0  0  0  0  0  0  0  0  0  0  0  0
   29.6216  -13.4693   16.6993 C   0  0  0  0  0  0  0  0  0  0  0  0
   28.5702  -14.1332   15.9583 C   0  0  0  0  0  0  0  0  0  0  0  0
   29.5900  -12.1110   16.8521 C   0  0  0  0  0  0  0  0  0  0  0  0
   26.4436  -11.2550   15.2299 N   0  0  0  0  0  0  0  0  0  0  0  0
   25.9544  -10.1497   15.8765 N   0  0  0  0  0  0  0  0  0  0  0  0
   24.8750  -10.4315   13.8744 C   0  0  0  0  0  0  0  0  0  0  0  0
   28.2825  -10.4612   28.3678 H   0  0  0  0  0  0  0  0  0  0  0  0
   29.5593  -10.2206   27.1274 H   0  0  0  0  0  0  0  0  0  0  0  0
   28.5796  -11.7261   27.1274 H   0  0  0  0  0  0  0  0  0  0  0  0
   29.0353  -15.0847   28.4778 H   0  0  0  0  0  0  0  0  0  0  0  0
   28.5479  -16.6469   26.5678 H   0  0  0  0  0  0  0  0  0  0  0  0
   29.9579  -16.8320   22.0106 H   0  0  0  0  0  0  0  0  0  0  0  0
   31.2490  -16.7257   23.2406 H   0  0  0  0  0  0  0  0  0  0  0  0
   31.3637  -12.5641   25.8122 H   0  0  0  0  0  0  0  0  0  0  0  0
   31.4214  -12.1742   19.0820 H   0  0  0  0  0  0  0  0  0  0  0  0
   31.7397  -13.7533   16.9848 H   0  0  0  0  0  0  0  0  0  0  0  0
   30.7397  -15.2712   17.0125 H   0  0  0  0  0  0  0  0  0  0  0  0
   28.6026  -10.2543   16.4656 H   0  0  0  0  0  0  0  0  0  0  0  0
   26.6960  -13.8376   14.9258 H   0  0  0  0  0  0  0  0  0  0  0  0
   26.0047  -12.1937   13.2624 H   0  0  0  0  0  0  0  0  0  0  0  0
   24.3469   -8.8330   15.3343 H   0  0  0  0  0  0  0  0  0  0  0  0
   31.4797  -12.0824   32.3647 H   0  0  0  0  0  0  0  0  0  0  0  0
   32.9586  -12.6746   31.5347 H   0  0  0  0  0  0  0  0  0  0  0  0
   32.5700  -10.9209   31.5347 H   0  0  0  0  0  0  0  0  0  0  0  0
   32.0170  -14.1275   29.5181 H   0  0  0  0  0  0  0  0  0  0  0  0
   30.5987  -12.9089   23.3629 H   0  0  0  0  0  0  0  0  0  0  0  0
   32.0492  -13.9571   23.6444 H   0  0  0  0  0  0  0  0  0  0  0  0
   29.2021  -17.4006   24.3348 H   0  0  0  0  0  0  0  0  0  0  0  0
   28.3060  -16.0292   23.5660 H   0  0  0  0  0  0  0  0  0  0  0  0
   28.6014  -15.2184   15.7809 H   0  0  0  0  0  0  0  0  0  0  0  0
   30.4091  -11.6193   17.3973 H   0  0  0  0  0  0  0  0  0  0  0  0
   24.1936  -10.2505   13.0300 H   0  0  0  0  0  0  0  0  0  0  0  0
  1 17  2  0
  1 18  1  0
  2 10  1  0
  2 26  2  0
  3 17  1  0
  4  5  2  0
  4  9  1  0
  4 20  1  0
  5  6  1  0
  6  7  2  0
  7 22  1  0
  7 25  1  0
  8 24  1  0
  8 25  1  0
  9 22  2  0
 10 28  2  0
 11 28  1  0
 11 29  1  0
 12 13  2  0
 12 31  1  0
 13 14  1  0
 13 32  1  0
 14 30  2  0
 15 32  1  0
 15 34  2  0
 16 33  2  0
 16 34  1  0
 17 20  1  0
 18 19  1  0
 18 21  2  0
 20 21  1  0
 22 23  1  0
 23 24  1  0
 24 26  1  0
 26 27  1  0
 27 28  1  0
 29 30  1  0
 29 31  2  0
 32 33  1  0
  3 35  1  0
  3 36  1  0
  3 37  1  0
  5 38  1  0
  6 39  1  0
  8 40  1  0
  8 41  1  0
  9 42  1  0
 10 43  1  0
 11 44  1  0
 11 45  1  0
 12 46  1  0
 14 47  1  0
 15 48  1  0
 16 49  1  0
 19 50  1  0
 19 51  1  0
 19 52  1  0
 21 53  1  0
 23 54  1  0
 23 55  1  0
 25 56  1  0
 25 57  1  0
 30 58  1  0
 31 59  1  0
 34 60  1  0
M  END
>  <filename_input>  (19) 
7T1D_E7K_docked.sdf

>  <pdb_id>  (19) 
7T1D_E7K

>  <pose_rank>  (19) 
18

>  <num_atoms_heavy>  (19) 
34

>  <num_torsions>  (19) 
4

>  <pose>  (19) 
[31.01367785560132, -13.228910949429437, 20.95003912561992, -0.6817230800192544, 0.44756701318636977, 1.6121037300008463, 6.669550800938312, -3.3740208582358573, -1.5131324040243272, 2.748302552549621]

>  <energy>  (19) 
-268.9524122989491

>  <inter_energy>  (19) 
-276.7678965778808

>  <intra_energy>  (19) 
11.87432883292158

>  <rmsd>  (19) 
8.9686

>  <sdf_rank>  (19) 
0

$$$$

     RDKit          3D

 60 65  0  0  0  0  0  0  0  0999 V2000
   16.9788  -13.5881   17.0248 N   0  0  0  0  0  0  0  0  0  0  0  0
   17.8518   -4.7459   14.1122 N   0  0  0  0  0  0  0  0  0  0  0  0
   16.9122  -13.2409   14.5566 C   0  0  0  0  0  0  0  0  0  0  0  0
   15.6948  -10.5912   15.4147 C   0  0  0  0  0  0  0  0  0  0  0  0
   14.4424  -10.7255   14.7359 C   0  0  0  0  0  0  0  0  0  0  0  0
   14.0395   -9.7217   13.8132 C   0  0  0  0  0  0  0  0  0  0  0  0
   14.8159   -8.6082   13.5773 C   0  0  0  0  0  0  0  0  0  0  0  0
   15.5302   -6.7839   12.0949 C   0  0  0  0  0  0  0  0  0  0  0  0
   16.4951   -9.4938   15.1755 C   0  0  0  0  0  0  0  0  0  0  0  0
   18.2566   -3.4286   13.8667 C   0  0  0  0  0  0  0  0  0  0  0  0
   17.9745   -1.3603   12.4769 C   0  0  0  0  0  0  0  0  0  0  0  0
   21.3769   -0.0035   13.3066 C   0  0  0  0  0  0  0  0  0  0  0  0
   22.1885   -0.5138   12.2458 C   0  0  0  0  0  0  0  0  0  0  0  0
   21.6577   -1.3612   11.2995 C   0  0  0  0  0  0  0  0  0  0  0  0
   24.5067   -0.8418   11.4665 C   0  0  0  0  0  0  0  0  0  0  0  0
   25.3767    0.7897   12.6273 C   0  0  0  0  0  0  0  0  0  0  0  0
   16.6817  -12.8699   15.9553 C   0  0  0  0  0  0  0  0  0  0  0  0
   16.5992  -12.7903   18.1176 C   0  0  0  0  0  0  0  0  0  0  0  0
   16.7447  -13.2446   19.5028 C   0  0  0  0  0  0  0  0  0  0  0  0
   16.1087  -11.6345   16.3019 N   0  0  0  0  0  0  0  0  0  0  0  0
   16.0548  -11.5736   17.6955 C   0  0  0  0  0  0  0  0  0  0  0  0
   16.0614   -8.5096   14.2745 C   0  0  0  0  0  0  0  0  0  0  0  0
   16.9652   -7.3404   14.1207 C   0  0  0  0  0  0  0  0  0  0  0  0
   16.3910   -6.3316   13.2295 N   0  0  0  0  0  0  0  0  0  0  0  0
   14.3662   -7.5371   12.6644 C   0  0  0  0  0  0  0  0  0  0  0  0
   16.9774   -5.0845   13.2304 C   0  0  0  0  0  0  0  0  0  0  0  0
   16.5236   -3.8492   12.1287 S   0  0  0  0  0  0  0  0  0  0  0  0
   17.6555   -2.7746   12.8630 C   0  0  0  0  0  0  0  0  0  0  0  0
   19.4845   -1.1120   12.3685 C   0  0  0  0  0  0  0  0  0  0  0  0
   20.3078   -1.6971   11.3316 C   0  0  0  0  0  0  0  0  0  0  0  0
   20.0556   -0.3064   13.3141 C   0  0  0  0  0  0  0  0  0  0  0  0
   23.5145   -0.1704   12.1821 N   0  0  0  0  0  0  0  0  0  0  0  0
   24.0813    0.8230   12.9378 N   0  0  0  0  0  0  0  0  0  0  0  0
   25.6968   -0.2652   11.7298 C   0  0  0  0  0  0  0  0  0  0  0  0
   17.4923  -14.1746   14.5157 H   0  0  0  0  0  0  0  0  0  0  0  0
   15.9458  -13.3873   14.0520 H   0  0  0  0  0  0  0  0  0  0  0  0
   17.4716  -12.4393   14.0520 H   0  0  0  0  0  0  0  0  0  0  0  0
   13.7980  -11.5965   14.9259 H   0  0  0  0  0  0  0  0  0  0  0  0
   13.0866   -9.8366   13.2758 H   0  0  0  0  0  0  0  0  0  0  0  0
   15.1694   -5.9116   11.5300 H   0  0  0  0  0  0  0  0  0  0  0  0
   16.1051   -7.4290   11.4142 H   0  0  0  0  0  0  0  0  0  0  0  0
   17.4640   -9.3910   15.6861 H   0  0  0  0  0  0  0  0  0  0  0  0
   19.0380   -2.9486   14.4742 H   0  0  0  0  0  0  0  0  0  0  0  0
   17.5102   -1.1464   11.5029 H   0  0  0  0  0  0  0  0  0  0  0  0
   17.5809   -0.7001   13.2637 H   0  0  0  0  0  0  0  0  0  0  0  0
   21.8150    0.6210   14.0990 H   0  0  0  0  0  0  0  0  0  0  0  0
   22.3051   -1.7756   10.5127 H   0  0  0  0  0  0  0  0  0  0  0  0
   24.3446   -1.7000   10.7978 H   0  0  0  0  0  0  0  0  0  0  0  0
   26.1173    1.5006   13.0224 H   0  0  0  0  0  0  0  0  0  0  0  0
   16.4820  -12.4245   20.1872 H   0  0  0  0  0  0  0  0  0  0  0  0
   16.0754  -14.0993   19.6807 H   0  0  0  0  0  0  0  0  0  0  0  0
   17.7861  -13.5512   19.6807 H   0  0  0  0  0  0  0  0  0  0  0  0
   15.6708  -10.7537   18.3204 H   0  0  0  0  0  0  0  0  0  0  0  0
   17.1361   -6.8885   15.1089 H   0  0  0  0  0  0  0  0  0  0  0  0
   17.9107   -7.6908   13.6812 H   0  0  0  0  0  0  0  0  0  0  0  0
   13.7919   -7.9859   11.8405 H   0  0  0  0  0  0  0  0  0  0  0  0
   13.7422   -6.8333   13.2348 H   0  0  0  0  0  0  0  0  0  0  0  0
   19.8786   -2.3873   10.5903 H   0  0  0  0  0  0  0  0  0  0  0  0
   19.4203    0.1109   14.1092 H   0  0  0  0  0  0  0  0  0  0  0  0
   26.6864   -0.5460   11.3402 H   0  0  0  0  0  0  0  0  0  0  0  0
  1 17  2  0
  1 18  1  0
  2 10  1  0
  2 26  2  0
  3 17  1  0
  4  5  2  0
  4  9  1  0
  4 20  1  0
  5  6  1  0
  6  7  2  0
  7 22  1  0
  7 25  1  0
  8 24  1  0
  8 25  1  0
  9 22  2  0
 10 28  2  0
 11 28  1  0
 11 29  1  0
 12 13  2  0
 12 31  1  0
 13 14  1  0
 13 32  1  0
 14 30  2  0
 15 32  1  0
 15 34  2  0
 16 33  2  0
 16 34  1  0
 17 20  1  0
 18 19  1  0
 18 21  2  0
 20 21  1  0
 22 23  1  0
 23 24  1  0
 24 26  1  0
 26 27  1  0
 27 28  1  0
 29 30  1  0
 29 31  2  0
 32 33  1  0
  3 35  1  0
  3 36  1  0
  3 37  1  0
  5 38  1  0
  6 39  1  0
  8 40  1  0
  8 41  1  0
  9 42  1  0
 10 43  1  0
 11 44  1  0
 11 45  1  0
 12 46  1  0
 14 47  1  0
 15 48  1  0
 16 49  1  0
 19 50  1  0
 19 51  1  0
 19 52  1  0
 21 53  1  0
 23 54  1  0
 23 55  1  0
 25 56  1  0
 25 57  1  0
 30 58  1  0
 31 59  1  0
 34 60  1  0
M  END
>  <filename_input>  (20) 
7T1D_E7K_docked.sdf

>  <pdb_id>  (20) 
7T1D_E7K

>  <pose_rank>  (20) 
19

>  <num_atoms_heavy>  (20) 
34

>  <num_torsions>  (20) 
4

>  <pose>  (20) 
[17.85182308718157, -4.74586031306111, 14.11220597114573, -2.070709862104066, 1.501725082173026, -4.289497398367545, 3.6260339992141075, -1.2299615524203835, 1.6491413286969028, -3.1295142393837208]

>  <energy>  (20) 
-290.6752636229535

>  <inter_energy>  (20) 
-284.09210505013243

>  <intra_energy>  (20) 
3.2551579312010053

>  <rmsd>  (20) 
11.6967

>  <sdf_rank>  (20) 
0

$$$$

     RDKit          3D

 60 65  0  0  0  0  0  0  0  0999 V2000
   21.1144   -6.5026   23.0789 N   0  0  0  0  0  0  0  0  0  0  0  0
   29.0864  -11.3131   21.2461 N   0  0  0  0  0  0  0  0  0  0  0  0
   21.5703   -6.3500   20.6323 C   0  0  0  0  0  0  0  0  0  0  0  0
   24.3780   -7.0417   21.5688 C   0  0  0  0  0  0  0  0  0  0  0  0
   24.7093   -5.9978   20.6480 C   0  0  0  0  0  0  0  0  0  0  0  0
   25.8038   -6.1756   19.7582 C   0  0  0  0  0  0  0  0  0  0  0  0
   26.5701   -7.3206   19.7804 C   0  0  0  0  0  0  0  0  0  0  0  0
   28.0401   -8.9230   18.6373 C   0  0  0  0  0  0  0  0  0  0  0  0
   25.1209   -8.2035   21.5911 C   0  0  0  0  0  0  0  0  0  0  0  0
   30.1757  -12.1911   21.2043 C   0  0  0  0  0  0  0  0  0  0  0  0
   32.2279  -12.9480   19.9777 C   0  0  0  0  0  0  0  0  0  0  0  0
   33.3374  -13.8879   16.5149 C   0  0  0  0  0  0  0  0  0  0  0  0
   32.3218  -14.8023   16.0944 C   0  0  0  0  0  0  0  0  0  0  0  0
   31.3151  -15.1792   16.9545 C   0  0  0  0  0  0  0  0  0  0  0  0
   31.5131  -16.3031   14.3105 C   0  0  0  0  0  0  0  0  0  0  0  0
   33.0578  -15.7906   12.8555 C   0  0  0  0  0  0  0  0  0  0  0  0
   21.9281   -6.5562   22.0382 C   0  0  0  0  0  0  0  0  0  0  0  0
   21.9214   -6.8031   24.1894 C   0  0  0  0  0  0  0  0  0  0  0  0
   21.3925   -6.8226   25.5555 C   0  0  0  0  0  0  0  0  0  0  0  0
   23.2433   -6.8678   22.4226 N   0  0  0  0  0  0  0  0  0  0  0  0
   23.2473   -7.0320   23.8089 C   0  0  0  0  0  0  0  0  0  0  0  0
   26.2077   -8.3418   20.7146 C   0  0  0  0  0  0  0  0  0  0  0  0
   26.9794   -9.6046   20.8470 C   0  0  0  0  0  0  0  0  0  0  0  0
   28.1392   -9.6210   19.9548 N   0  0  0  0  0  0  0  0  0  0  0  0
   27.7440   -7.4769   18.8970 C   0  0  0  0  0  0  0  0  0  0  0  0
   29.0947  -10.5875   20.1830 C   0  0  0  0  0  0  0  0  0  0  0  0
   30.4261  -10.8376   19.1291 S   0  0  0  0  0  0  0  0  0  0  0  0
   31.0154  -12.0846   20.1650 C   0  0  0  0  0  0  0  0  0  0  0  0
   32.2344  -13.6570   18.6173 C   0  0  0  0  0  0  0  0  0  0  0  0
   31.2412  -14.6377   18.2340 C   0  0  0  0  0  0  0  0  0  0  0  0
   33.2421  -13.3376   17.7501 C   0  0  0  0  0  0  0  0  0  0  0  0
   32.3626  -15.3240   14.8269 N   0  0  0  0  0  0  0  0  0  0  0  0
   33.3510  -15.0438   13.9193 N   0  0  0  0  0  0  0  0  0  0  0  0
   31.9275  -16.6258   13.0686 C   0  0  0  0  0  0  0  0  0  0  0  0
   20.6186   -5.8016   20.5728 H   0  0  0  0  0  0  0  0  0  0  0  0
   22.3603   -5.7686   20.1344 H   0  0  0  0  0  0  0  0  0  0  0  0
   21.4634   -7.3250   20.1344 H   0  0  0  0  0  0  0  0  0  0  0  0
   24.1231   -5.0672   20.6287 H   0  0  0  0  0  0  0  0  0  0  0  0
   26.0442   -5.3816   19.0360 H   0  0  0  0  0  0  0  0  0  0  0  0
   28.9916   -9.0168   18.0933 H   0  0  0  0  0  0  0  0  0  0  0  0
   27.2420   -9.3717   18.0276 H   0  0  0  0  0  0  0  0  0  0  0  0
   24.8638   -9.0138   22.2891 H   0  0  0  0  0  0  0  0  0  0  0  0
   30.3365  -12.9397   21.9940 H   0  0  0  0  0  0  0  0  0  0  0  0
   33.1261  -12.3173   20.0521 H   0  0  0  0  0  0  0  0  0  0  0  0
   32.2139  -13.7215   20.7598 H   0  0  0  0  0  0  0  0  0  0  0  0
   34.1775  -13.6365   15.8508 H   0  0  0  0  0  0  0  0  0  0  0  0
   30.5639  -15.9134   16.6278 H   0  0  0  0  0  0  0  0  0  0  0  0
   30.6479  -16.7398   14.8308 H   0  0  0  0  0  0  0  0  0  0  0  0
   33.6281  -15.7638   11.9152 H   0  0  0  0  0  0  0  0  0  0  0  0
   22.2265   -6.7919   26.2721 H   0  0  0  0  0  0  0  0  0  0  0  0
   20.7439   -5.9477   25.7101 H   0  0  0  0  0  0  0  0  0  0  0  0
   20.8099   -7.7427   25.7101 H   0  0  0  0  0  0  0  0  0  0  0  0
   24.1005   -7.2844   24.4557 H   0  0  0  0  0  0  0  0  0  0  0  0
   27.3264   -9.7040   21.8861 H   0  0  0  0  0  0  0  0  0  0  0  0
   26.3208  -10.4417   20.5721 H   0  0  0  0  0  0  0  0  0  0  0  0
   27.5415   -6.9748   17.9394 H   0  0  0  0  0  0  0  0  0  0  0  0
   28.6159   -7.0274   19.3947 H   0  0  0  0  0  0  0  0  0  0  0  0
   30.4508  -14.9461   18.9342 H   0  0  0  0  0  0  0  0  0  0  0  0
   34.0025  -12.6082   18.0660 H   0  0  0  0  0  0  0  0  0  0  0  0
   31.4916  -17.3645   12.3798 H   0  0  0  0  0  0  0  0  0  0  0  0
  1 17  2  0
  1 18  1  0
  2 10  1  0
  2 26  2  0
  3 17  1  0
  4  5  2  0
  4  9  1  0
  4 20  1  0
  5  6  1  0
  6  7  2  0
  7 22  1  0
  7 25  1  0
  8 24  1  0
  8 25  1  0
  9 22  2  0
 10 28  2  0
 11 28  1  0
 11 29  1  0
 12 13  2  0
 12 31  1  0
 13 14  1  0
 13 32  1  0
 14 30  2  0
 15 32  1  0
 15 34  2  0
 16 33  2  0
 16 34  1  0
 17 20  1  0
 18 19  1  0
 18 21  2  0
 20 21  1  0
 22 23  1  0
 23 24  1  0
 24 26  1  0
 26 27  1  0
 27 28  1  0
 29 30  1  0
 29 31  2  0
 32 33  1  0
  3 35  1  0
  3 36  1  0
  3 37  1  0
  5 38  1  0
  6 39  1  0
  8 40  1  0
  8 41  1  0
  9 42  1  0
 10 43  1  0
 11 44  1  0
 11 45  1  0
 12 46  1  0
 14 47  1  0
 15 48  1  0
 16 49  1  0
 19 50  1  0
 19 51  1  0
 19 52  1  0
 21 53  1  0
 23 54  1  0
 23 55  1  0
 25 56  1  0
 25 57  1  0
 30 58  1  0
 31 59  1  0
 34 60  1  0
M  END
>  <filename_input>  (21) 
7T1D_E7K_docked.sdf

>  <pdb_id>  (21) 
7T1D_E7K

>  <pose_rank>  (21) 
20

>  <num_atoms_heavy>  (21) 
34

>  <num_torsions>  (21) 
4

>  <pose>  (21) 
[29.086376470450116, -11.313113348473259, 21.246085326557164, -0.20891487670558267, -0.7353471850765637, -0.6896150924279358, -3.0957511735539947, 0.12902291510841005, -0.6672180320527135, -2.8977759048810237]

>  <energy>  (21) 
-256.40798594834365

>  <inter_energy>  (21) 
-264.2808793372088

>  <intra_energy>  (21) 
12.33645252627765

>  <rmsd>  (21) 
7.13379

>  <sdf_rank>  (21) 
0

$$$$

     RDKit          3D

 60 65  0  0  0  0  0  0  0  0999 V2000
   23.2136   -8.8213   32.6879 N   0  0  0  0  0  0  0  0  0  0  0  0
   22.2896  -11.1199   23.8210 N   0  0  0  0  0  0  0  0  0  0  0  0
   24.9817   -9.0952   30.9513 C   0  0  0  0  0  0  0  0  0  0  0  0
   22.8503   -7.7934   29.2189 C   0  0  0  0  0  0  0  0  0  0  0  0
   23.3873   -6.5170   28.8586 C   0  0  0  0  0  0  0  0  0  0  0  0
   23.4914   -6.1683   27.4843 C   0  0  0  0  0  0  0  0  0  0  0  0
   23.1113   -7.0426   26.4896 C   0  0  0  0  0  0  0  0  0  0  0  0
   22.3009   -7.4505   24.2065 C   0  0  0  0  0  0  0  0  0  0  0  0
   22.4450   -8.6734   28.2374 C   0  0  0  0  0  0  0  0  0  0  0  0
   22.2525  -11.8470   22.6255 C   0  0  0  0  0  0  0  0  0  0  0  0
   22.3339  -11.7901   20.1197 C   0  0  0  0  0  0  0  0  0  0  0  0
   19.1285  -13.7352   19.9007 C   0  0  0  0  0  0  0  0  0  0  0  0
   19.5729  -15.0903   20.0034 C   0  0  0  0  0  0  0  0  0  0  0  0
   20.9158  -15.3870   20.0670 C   0  0  0  0  0  0  0  0  0  0  0  0
   17.3009  -15.9992   19.6862 C   0  0  0  0  0  0  0  0  0  0  0  0
   17.7528  -18.0126   20.3992 C   0  0  0  0  0  0  0  0  0  0  0  0
   23.6610   -8.7019   31.4495 C   0  0  0  0  0  0  0  0  0  0  0  0
   21.9193   -8.2744   32.6629 C   0  0  0  0  0  0  0  0  0  0  0  0
   21.0646   -8.2389   33.8523 C   0  0  0  0  0  0  0  0  0  0  0  0
   22.7056   -8.1089   30.6068 N   0  0  0  0  0  0  0  0  0  0  0  0
   21.5797   -7.8268   31.3826 C   0  0  0  0  0  0  0  0  0  0  0  0
   22.5788   -8.3090   26.8891 C   0  0  0  0  0  0  0  0  0  0  0  0
   22.1645   -9.3409   25.9037 C   0  0  0  0  0  0  0  0  0  0  0  0
   22.4190   -8.9045   24.5303 N   0  0  0  0  0  0  0  0  0  0  0  0
   23.2778   -6.7016   25.0617 C   0  0  0  0  0  0  0  0  0  0  0  0
   22.3592   -9.8648   23.5438 C   0  0  0  0  0  0  0  0  0  0  0  0
   22.4740   -9.4831   21.8743 S   0  0  0  0  0  0  0  0  0  0  0  0
   22.3539  -11.1581   21.4802 C   0  0  0  0  0  0  0  0  0  0  0  0
   21.3925  -12.9996   20.0525 C   0  0  0  0  0  0  0  0  0  0  0  0
   21.8632  -14.3682   20.0816 C   0  0  0  0  0  0  0  0  0  0  0  0
   20.0532  -12.7451   19.9494 C   0  0  0  0  0  0  0  0  0  0  0  0
   18.6518  -16.1059   20.0193 N   0  0  0  0  0  0  0  0  0  0  0  0
   18.9106  -17.3615   20.5046 N   0  0  0  0  0  0  0  0  0  0  0  0
   16.7015  -17.1842   19.9202 C   0  0  0  0  0  0  0  0  0  0  0  0
   25.6501   -9.2943   31.8019 H   0  0  0  0  0  0  0  0  0  0  0  0
   24.8868  -10.0041   30.3390 H   0  0  0  0  0  0  0  0  0  0  0  0
   25.3996   -8.2826   30.3390 H   0  0  0  0  0  0  0  0  0  0  0  0
   23.7162   -5.8128   29.6370 H   0  0  0  0  0  0  0  0  0  0  0  0
   23.8843   -5.1784   27.2090 H   0  0  0  0  0  0  0  0  0  0  0  0
   22.5325   -7.2853   23.1439 H   0  0  0  0  0  0  0  0  0  0  0  0
   21.2768   -7.0990   24.4008 H   0  0  0  0  0  0  0  0  0  0  0  0
   22.0211   -9.6515   28.5089 H   0  0  0  0  0  0  0  0  0  0  0  0
   22.1444  -12.9416   22.6259 H   0  0  0  0  0  0  0  0  0  0  0  0
   21.9999  -11.0410   19.3866 H   0  0  0  0  0  0  0  0  0  0  0  0
   23.3517  -12.1436   19.8982 H   0  0  0  0  0  0  0  0  0  0  0  0
   18.0600  -13.5012   19.7847 H   0  0  0  0  0  0  0  0  0  0  0  0
   21.2419  -16.4368   20.1065 H   0  0  0  0  0  0  0  0  0  0  0  0
   16.8065  -15.0971   19.2968 H   0  0  0  0  0  0  0  0  0  0  0  0
   17.6244  -19.0747   20.6548 H   0  0  0  0  0  0  0  0  0  0  0  0
   21.6918   -8.2649   34.7556 H   0  0  0  0  0  0  0  0  0  0  0  0
   20.4673   -7.3151   33.8472 H   0  0  0  0  0  0  0  0  0  0  0  0
   20.3927   -9.1099   33.8472 H   0  0  0  0  0  0  0  0  0  0  0  0
   20.6383   -7.3584   31.0596 H   0  0  0  0  0  0  0  0  0  0  0  0
   22.7292  -10.2652   26.0954 H   0  0  0  0  0  0  0  0  0  0  0  0
   21.0837   -9.5115   26.0166 H   0  0  0  0  0  0  0  0  0  0  0  0
   23.1154   -5.6217   24.9297 H   0  0  0  0  0  0  0  0  0  0  0  0
   24.2958   -6.9821   24.7537 H   0  0  0  0  0  0  0  0  0  0  0  0
   22.9388  -14.5961   20.1143 H   0  0  0  0  0  0  0  0  0  0  0  0
   19.7138  -11.6997   19.9043 H   0  0  0  0  0  0  0  0  0  0  0  0
   15.6438  -17.4487   19.7743 H   0  0  0  0  0  0  0  0  0  0  0  0
  1 17  2  0
  1 18  1  0
  2 10  1  0
  2 26  2  0
  3 17  1  0
  4  5  2  0
  4  9  1  0
  4 20  1  0
  5  6  1  0
  6  7  2  0
  7 22  1  0
  7 25  1  0
  8 24  1  0
  8 25  1  0
  9 22  2  0
 10 28  2  0
 11 28  1  0
 11 29  1  0
 12 13  2  0
 12 31  1  0
 13 14  1  0
 13 32  1  0
 14 30  2  0
 15 32  1  0
 15 34  2  0
 16 33  2  0
 16 34  1  0
 17 20  1  0
 18 19  1  0
 18 21  2  0
 20 21  1  0
 22 23  1  0
 23 24  1  0
 24 26  1  0
 26 27  1  0
 27 28  1  0
 29 30  1  0
 29 31  2  0
 32 33  1  0
  3 35  1  0
  3 36  1  0
  3 37  1  0
  5 38  1  0
  6 39  1  0
  8 40  1  0
  8 41  1  0
  9 42  1  0
 10 43  1  0
 11 44  1  0
 11 45  1  0
 12 46  1  0
 14 47  1  0
 15 48  1  0
 16 49  1  0
 19 50  1  0
 19 51  1  0
 19 52  1  0
 21 53  1  0
 23 54  1  0
 23 55  1  0
 25 56  1  0
 25 57  1  0
 30 58  1  0
 31 59  1  0
 34 60  1  0
M  END
>  <filename_input>  (22) 
7T1D_E7K_docked.sdf

>  <pdb_id>  (22) 
7T1D_E7K

>  <pose_rank>  (22) 
21

>  <num_atoms_heavy>  (22) 
34

>  <num_torsions>  (22) 
4

>  <pose>  (22) 
[22.289614485783087, -11.119887147389905, 23.82100150298041, -0.022303895425853516, 0.39221156172412786, -1.2827850250077542, 0.7018220612159193, -1.436707745373538, -1.3383212431304061, 0.5740889136288716]

>  <energy>  (22) 
-262.2191453202532

>  <inter_energy>  (22) 
-267.28832593323347

>  <intra_energy>  (22) 
3.159029963329221

>  <rmsd>  (22) 
7.22151

>  <sdf_rank>  (22) 
0

$$$$

     RDKit          3D

 60 65  0  0  0  0  0  0  0  0999 V2000
   25.9009   -7.6544   21.5701 N   0  0  0  0  0  0  0  0  0  0  0  0
   25.2079   -2.3030   14.3006 N   0  0  0  0  0  0  0  0  0  0  0  0
   24.3151   -7.0986   19.7280 C   0  0  0  0  0  0  0  0  0  0  0  0
   26.8900   -7.1150   18.1128 C   0  0  0  0  0  0  0  0  0  0  0  0
   27.2915   -8.1913   17.2597 C   0  0  0  0  0  0  0  0  0  0  0  0
   27.4360   -7.9574   15.8648 C   0  0  0  0  0  0  0  0  0  0  0  0
   27.1725   -6.7234   15.3114 C   0  0  0  0  0  0  0  0  0  0  0  0
   27.5399   -5.0596   13.5414 C   0  0  0  0  0  0  0  0  0  0  0  0
   26.6421   -5.8675   17.5795 C   0  0  0  0  0  0  0  0  0  0  0  0
   24.7745   -1.2952   13.4313 C   0  0  0  0  0  0  0  0  0  0  0  0
   24.7522   -0.3951   11.0907 C   0  0  0  0  0  0  0  0  0  0  0  0
   21.0286   -0.7381   10.7409 C   0  0  0  0  0  0  0  0  0  0  0  0
   20.8855   -1.3337    9.4489 C   0  0  0  0  0  0  0  0  0  0  0  0
   21.9857   -1.5574    8.6521 C   0  0  0  0  0  0  0  0  0  0  0  0
   19.2517   -1.7828    7.6552 C   0  0  0  0  0  0  0  0  0  0  0  0
   17.5322   -2.0652    8.9703 C   0  0  0  0  0  0  0  0  0  0  0  0
   25.6342   -7.3646   20.3080 C   0  0  0  0  0  0  0  0  0  0  0  0
   27.2911   -7.8551   21.6129 C   0  0  0  0  0  0  0  0  0  0  0  0
   27.9948   -8.1763   22.8571 C   0  0  0  0  0  0  0  0  0  0  0  0
   26.7979   -7.3541   19.5203 N   0  0  0  0  0  0  0  0  0  0  0  0
   27.8714   -7.6728   20.3539 C   0  0  0  0  0  0  0  0  0  0  0  0
   26.7738   -5.6723   16.1964 C   0  0  0  0  0  0  0  0  0  0  0  0
   26.4360   -4.3104   15.7078 C   0  0  0  0  0  0  0  0  0  0  0  0
   26.5207   -4.2271   14.2492 N   0  0  0  0  0  0  0  0  0  0  0  0
   27.2642   -6.4994   13.8538 C   0  0  0  0  0  0  0  0  0  0  0  0
   25.9556   -3.1231   13.6484 C   0  0  0  0  0  0  0  0  0  0  0  0
   26.1135   -2.8024   11.9697 S   0  0  0  0  0  0  0  0  0  0  0  0
   25.1378   -1.3907   12.1447 C   0  0  0  0  0  0  0  0  0  0  0  0
   23.3961   -0.7192   10.4508 C   0  0  0  0  0  0  0  0  0  0  0  0
   23.2630   -1.2520    9.1115 C   0  0  0  0  0  0  0  0  0  0  0  0
   22.2773   -0.4736   11.1973 C   0  0  0  0  0  0  0  0  0  0  0  0
   19.6368   -1.6676    8.9914 N   0  0  0  0  0  0  0  0  0  0  0  0
   18.5400   -1.8051    9.8023 N   0  0  0  0  0  0  0  0  0  0  0  0
   17.9266   -2.0276    7.6051 C   0  0  0  0  0  0  0  0  0  0  0  0
   23.5826   -6.9509   20.5352 H   0  0  0  0  0  0  0  0  0  0  0  0
   24.3639   -6.1922   19.1066 H   0  0  0  0  0  0  0  0  0  0  0  0
   24.0087   -7.9530   19.1066 H   0  0  0  0  0  0  0  0  0  0  0  0
   27.4863   -9.1895   17.6788 H   0  0  0  0  0  0  0  0  0  0  0  0
   27.7656   -8.7798   15.2129 H   0  0  0  0  0  0  0  0  0  0  0  0
   27.4687   -4.8934   12.4564 H   0  0  0  0  0  0  0  0  0  0  0  0
   28.5523   -4.7852   13.8725 H   0  0  0  0  0  0  0  0  0  0  0  0
   26.3441   -5.0337   18.2322 H   0  0  0  0  0  0  0  0  0  0  0  0
   24.1593   -0.4569   13.7904 H   0  0  0  0  0  0  0  0  0  0  0  0
   24.6968    0.6028   11.5503 H   0  0  0  0  0  0  0  0  0  0  0  0
   25.5148   -0.4313   10.2989 H   0  0  0  0  0  0  0  0  0  0  0  0
   20.1448   -0.4997   11.3510 H   0  0  0  0  0  0  0  0  0  0  0  0
   21.8540   -1.9806    7.6453 H   0  0  0  0  0  0  0  0  0  0  0  0
   19.9191   -1.6892    6.7858 H   0  0  0  0  0  0  0  0  0  0  0  0
   16.5071   -2.2850    9.3035 H   0  0  0  0  0  0  0  0  0  0  0  0
   27.3697   -7.8910   23.7161 H   0  0  0  0  0  0  0  0  0  0  0  0
   28.1986   -9.2566   22.8947 H   0  0  0  0  0  0  0  0  0  0  0  0
   28.9445   -7.6225   22.8947 H   0  0  0  0  0  0  0  0  0  0  0  0
   28.9336   -7.7607   20.0818 H   0  0  0  0  0  0  0  0  0  0  0  0
   25.4111   -4.0624   16.0210 H   0  0  0  0  0  0  0  0  0  0  0  0
   27.1592   -3.6010   16.1363 H   0  0  0  0  0  0  0  0  0  0  0  0
   28.0784   -7.1169   13.4468 H   0  0  0  0  0  0  0  0  0  0  0  0
   26.3018   -6.7758   13.3984 H   0  0  0  0  0  0  0  0  0  0  0  0
   24.1462   -1.4107    8.4753 H   0  0  0  0  0  0  0  0  0  0  0  0
   22.3946   -0.0462   12.2040 H   0  0  0  0  0  0  0  0  0  0  0  0
   17.2967   -2.1662    6.7141 H   0  0  0  0  0  0  0  0  0  0  0  0
  1 17  2  0
  1 18  1  0
  2 10  1  0
  2 26  2  0
  3 17  1  0
  4  5  2  0
  4  9  1  0
  4 20  1  0
  5  6  1  0
  6  7  2  0
  7 22  1  0
  7 25  1  0
  8 24  1  0
  8 25  1  0
  9 22  2  0
 10 28  2  0
 11 28  1  0
 11 29  1  0
 12 13  2  0
 12 31  1  0
 13 14  1  0
 13 32  1  0
 14 30  2  0
 15 32  1  0
 15 34  2  0
 16 33  2  0
 16 34  1  0
 17 20  1  0
 18 19  1  0
 18 21  2  0
 20 21  1  0
 22 23  1  0
 23 24  1  0
 24 26  1  0
 26 27  1  0
 27 28  1  0
 29 30  1  0
 29 31  2  0
 32 33  1  0
  3 35  1  0
  3 36  1  0
  3 37  1  0
  5 38  1  0
  6 39  1  0
  8 40  1  0
  8 41  1  0
  9 42  1  0
 10 43  1  0
 11 44  1  0
 11 45  1  0
 12 46  1  0
 14 47  1  0
 15 48  1  0
 16 49  1  0
 19 50  1  0
 19 51  1  0
 19 52  1  0
 21 53  1  0
 23 54  1  0
 23 55  1  0
 25 56  1  0
 25 57  1  0
 30 58  1  0
 31 59  1  0
 34 60  1  0
M  END
>  <filename_input>  (23) 
7T1D_E7K_docked.sdf

>  <pdb_id>  (23) 
7T1D_E7K

>  <pose_rank>  (23) 
22

>  <num_atoms_heavy>  (23) 
34

>  <num_torsions>  (23) 
4

>  <pose>  (23) 
[25.207935885995667, -2.303044896502819, 14.300580380018197, -0.2776703608423585, -0.6802216551725545, 2.376426222029533, 6.561148432947318, -3.5785650714988657, 4.873384769039745, -3.2382052712767844]

>  <energy>  (23) 
-251.59303084765477

>  <inter_energy>  (23) 
-257.08834851736606

>  <intra_energy>  (23) 
8.524887004425487

>  <rmsd>  (23) 
10.0097

>  <sdf_rank>  (23) 
0

$$$$

     RDKit          3D

 60 65  0  0  0  0  0  0  0  0999 V2000
   23.1152   -7.3113   29.8453 N   0  0  0  0  0  0  0  0  0  0  0  0
   17.1370   -9.0695   22.5763 N   0  0  0  0  0  0  0  0  0  0  0  0
   24.0303   -5.9462   27.9702 C   0  0  0  0  0  0  0  0  0  0  0  0
   22.0086   -7.5773   26.3918 C   0  0  0  0  0  0  0  0  0  0  0  0
   23.0898   -7.1860   25.5402 C   0  0  0  0  0  0  0  0  0  0  0  0
   22.8522   -7.0094   24.1497 C   0  0  0  0  0  0  0  0  0  0  0  0
   21.6092   -7.2324   23.5985 C   0  0  0  0  0  0  0  0  0  0  0  0
   19.9455   -6.7912   21.8454 C   0  0  0  0  0  0  0  0  0  0  0  0
   20.7526   -7.7846   25.8611 C   0  0  0  0  0  0  0  0  0  0  0  0
   16.1143   -9.4617   21.7049 C   0  0  0  0  0  0  0  0  0  0  0  0
   15.2015   -9.4178   19.3695 C   0  0  0  0  0  0  0  0  0  0  0  0
   14.8490  -13.1495   19.1327 C   0  0  0  0  0  0  0  0  0  0  0  0
   15.6808  -13.4758   18.0164 C   0  0  0  0  0  0  0  0  0  0  0  0
   16.2991  -12.4854   17.2870 C   0  0  0  0  0  0  0  0  0  0  0  0
   14.9239  -15.8177   17.8396 C   0  0  0  0  0  0  0  0  0  0  0  0
   16.7877  -16.6047   17.0195 C   0  0  0  0  0  0  0  0  0  0  0  0
   23.1680   -6.9682   28.5697 C   0  0  0  0  0  0  0  0  0  0  0  0
   22.1182   -8.2991   29.9169 C   0  0  0  0  0  0  0  0  0  0  0  0
   21.7673   -8.9634   31.1747 C   0  0  0  0  0  0  0  0  0  0  0  0
   22.2528   -7.7019   27.7959 N   0  0  0  0  0  0  0  0  0  0  0  0
   21.5688   -8.5608   28.6581 C   0  0  0  0  0  0  0  0  0  0  0  0
   20.5534   -7.6221   24.4819 C   0  0  0  0  0  0  0  0  0  0  0  0
   19.1811   -7.9174   23.9948 C   0  0  0  0  0  0  0  0  0  0  0  0
   19.0921   -7.8031   22.5386 N   0  0  0  0  0  0  0  0  0  0  0  0
   21.3798   -7.1076   22.1443 C   0  0  0  0  0  0  0  0  0  0  0  0
   17.9716   -8.3297   21.9336 C   0  0  0  0  0  0  0  0  0  0  0  0
   17.6459   -8.1323   20.2600 S   0  0  0  0  0  0  0  0  0  0  0  0
   16.2119   -9.0765   20.4247 C   0  0  0  0  0  0  0  0  0  0  0  0
   15.3794  -10.8434   18.8314 C   0  0  0  0  0  0  0  0  0  0  0  0
   16.1640  -11.1502   17.6544 C   0  0  0  0  0  0  0  0  0  0  0  0
   14.7478  -11.8505   19.5069 C   0  0  0  0  0  0  0  0  0  0  0  0
   15.8483  -14.7885   17.6574 N   0  0  0  0  0  0  0  0  0  0  0  0
   17.0264  -15.3039   17.1824 N   0  0  0  0  0  0  0  0  0  0  0  0
   15.4869  -16.9802   17.4527 C   0  0  0  0  0  0  0  0  0  0  0  0
   24.5196   -5.3662   28.7666 H   0  0  0  0  0  0  0  0  0  0  0  0
   24.7957   -6.4318   27.3471 H   0  0  0  0  0  0  0  0  0  0  0  0
   23.4228   -5.2734   27.3471 H   0  0  0  0  0  0  0  0  0  0  0  0
   24.0947   -7.0234   25.9572 H   0  0  0  0  0  0  0  0  0  0  0  0
   23.6789   -6.6876   23.4994 H   0  0  0  0  0  0  0  0  0  0  0  0
   19.7719   -6.8377   20.7602 H   0  0  0  0  0  0  0  0  0  0  0  0
   19.6976   -5.7788   22.1970 H   0  0  0  0  0  0  0  0  0  0  0  0
   19.9153   -8.0747   26.5129 H   0  0  0  0  0  0  0  0  0  0  0  0
   15.2631  -10.0631   22.0570 H   0  0  0  0  0  0  0  0  0  0  0  0
   14.1941   -9.3261   19.8016 H   0  0  0  0  0  0  0  0  0  0  0  0
   15.3439   -8.7215   18.5300 H   0  0  0  0  0  0  0  0  0  0  0  0
   14.3033  -13.9351   19.6758 H   0  0  0  0  0  0  0  0  0  0  0  0
   16.9041  -12.7515   16.4077 H   0  0  0  0  0  0  0  0  0  0  0  0
   13.9037  -15.7001   18.2340 H   0  0  0  0  0  0  0  0  0  0  0  0
   17.5174  -17.3107   16.5963 H   0  0  0  0  0  0  0  0  0  0  0  0
   22.0953   -8.3424   32.0213 H   0  0  0  0  0  0  0  0  0  0  0  0
   20.6774   -9.1038   31.2235 H   0  0  0  0  0  0  0  0  0  0  0  0
   22.2657   -9.9428   31.2235 H   0  0  0  0  0  0  0  0  0  0  0  0
   20.7768   -9.2808   28.4044 H   0  0  0  0  0  0  0  0  0  0  0  0
   18.9098   -8.9417   24.2901 H   0  0  0  0  0  0  0  0  0  0  0  0
   18.4918   -7.1854   24.4410 H   0  0  0  0  0  0  0  0  0  0  0  0
   22.0148   -6.3010   21.7490 H   0  0  0  0  0  0  0  0  0  0  0  0
   21.6303   -8.0676   21.6692 H   0  0  0  0  0  0  0  0  0  0  0  0
   16.6398  -10.3509   17.0673 H   0  0  0  0  0  0  0  0  0  0  0  0
   14.1359  -11.5977   20.3853 H   0  0  0  0  0  0  0  0  0  0  0  0
   15.0425  -17.9863   17.4685 H   0  0  0  0  0  0  0  0  0  0  0  0
  1 17  2  0
  1 18  1  0
  2 10  1  0
  2 26  2  0
  3 17  1  0
  4  5  2  0
  4  9  1  0
  4 20  1  0
  5  6  1  0
  6  7  2  0
  7 22  1  0
  7 25  1  0
  8 24  1  0
  8 25  1  0
  9 22  2  0
 10 28  2  0
 11 28  1  0
 11 29  1  0
 12 13  2  0
 12 31  1  0
 13 14  1  0
 13 32  1  0
 14 30  2  0
 15 32  1  0
 15 34  2  0
 16 33  2  0
 16 34  1  0
 17 20  1  0
 18 19  1  0
 18 21  2  0
 20 21  1  0
 22 23  1  0
 23 24  1  0
 24 26  1  0
 26 27  1  0
 27 28  1  0
 29 30  1  0
 29 31  2  0
 32 33  1  0
  3 35  1  0
  3 36  1  0
  3 37  1  0
  5 38  1  0
  6 39  1  0
  8 40  1  0
  8 41  1  0
  9 42  1  0
 10 43  1  0
 11 44  1  0
 11 45  1  0
 12 46  1  0
 14 47  1  0
 15 48  1  0
 16 49  1  0
 19 50  1  0
 19 51  1  0
 19 52  1  0
 21 53  1  0
 23 54  1  0
 23 55  1  0
 25 56  1  0
 25 57  1  0
 30 58  1  0
 31 59  1  0
 34 60  1  0
M  END
>  <filename_input>  (24) 
7T1D_E7K_docked.sdf

>  <pdb_id>  (24) 
7T1D_E7K

>  <pose_rank>  (24) 
23

>  <num_atoms_heavy>  (24) 
34

>  <num_torsions>  (24) 
4

>  <pose>  (24) 
[17.136970866193707, -9.069463113461374, 22.57630755881498, 0.44967582459691285, -1.1640869609005544, 3.768318493356149, 2.790328548008396, -3.448030516340251, -1.18110223483628, -5.428817882648407]

>  <energy>  (24) 
-245.2179684256165

>  <inter_energy>  (24) 
-280.7390863055711

>  <intra_energy>  (24) 
27.405831035892906

>  <rmsd>  (24) 
8.14919

>  <sdf_rank>  (24) 
0

$$$$

     RDKit          3D

 60 65  0  0  0  0  0  0  0  0999 V2000
   23.8711  -16.2917   22.8219 N   0  0  0  0  0  0  0  0  0  0  0  0
   16.7052  -11.7947   19.0457 N   0  0  0  0  0  0  0  0  0  0  0  0
   23.4805  -16.3194   20.3594 C   0  0  0  0  0  0  0  0  0  0  0  0
   20.5814  -16.3259   21.2730 C   0  0  0  0  0  0  0  0  0  0  0  0
   20.0093  -17.5793   20.8870 C   0  0  0  0  0  0  0  0  0  0  0  0
   18.9093  -17.5947   19.9865 C   0  0  0  0  0  0  0  0  0  0  0  0
   18.3640  -16.4278   19.4971 C   0  0  0  0  0  0  0  0  0  0  0  0
   17.1345  -15.2209   17.7457 C   0  0  0  0  0  0  0  0  0  0  0  0
   20.0622  -15.1485   20.7769 C   0  0  0  0  0  0  0  0  0  0  0  0
   15.7907  -10.8298   18.6076 C   0  0  0  0  0  0  0  0  0  0  0  0
   13.8327  -10.2955   17.1347 C   0  0  0  0  0  0  0  0  0  0  0  0
   14.2636   -7.2618   14.9631 C   0  0  0  0  0  0  0  0  0  0  0  0
   15.2279   -7.6958   14.0007 C   0  0  0  0  0  0  0  0  0  0  0  0
   15.8010   -8.9441   14.0932 C   0  0  0  0  0  0  0  0  0  0  0  0
   14.7530   -6.0163   12.2564 C   0  0  0  0  0  0  0  0  0  0  0  0
   16.7848   -5.9215   11.4636 C   0  0  0  0  0  0  0  0  0  0  0  0
   23.0742  -16.3198   21.7673 C   0  0  0  0  0  0  0  0  0  0  0  0
   23.0085  -16.2694   23.9310 C   0  0  0  0  0  0  0  0  0  0  0  0
   23.5088  -16.2596   25.3081 C   0  0  0  0  0  0  0  0  0  0  0  0
   21.7194  -16.3301   22.1401 N   0  0  0  0  0  0  0  0  0  0  0  0
   21.6679  -16.2944   23.5347 C   0  0  0  0  0  0  0  0  0  0  0  0
   18.9634  -15.1946   19.9056 C   0  0  0  0  0  0  0  0  0  0  0  0
   18.4411  -13.8754   19.4647 C   0  0  0  0  0  0  0  0  0  0  0  0
   17.2478  -14.0221   18.6304 N   0  0  0  0  0  0  0  0  0  0  0  0
   17.1825  -16.4444   18.6102 C   0  0  0  0  0  0  0  0  0  0  0  0
   16.4980  -12.8889   18.4002 C   0  0  0  0  0  0  0  0  0  0  0  0
   15.1678  -12.8656   17.3159 S   0  0  0  0  0  0  0  0  0  0  0  0
   14.8801  -11.2088   17.7001 C   0  0  0  0  0  0  0  0  0  0  0  0
   14.3829   -9.3970   16.0196 C   0  0  0  0  0  0  0  0  0  0  0  0
   15.4145   -9.8247   15.0987 C   0  0  0  0  0  0  0  0  0  0  0  0
   13.8658   -8.1352   15.9203 C   0  0  0  0  0  0  0  0  0  0  0  0
   15.5997   -6.8516   12.9861 N   0  0  0  0  0  0  0  0  0  0  0  0
   16.8609   -6.8136   12.4504 N   0  0  0  0  0  0  0  0  0  0  0  0
   15.4679   -5.4179   11.2822 C   0  0  0  0  0  0  0  0  0  0  0  0
   24.5786  -16.3185   20.2947 H   0  0  0  0  0  0  0  0  0  0  0  0
   23.0847  -17.2179   19.8634 H   0  0  0  0  0  0  0  0  0  0  0  0
   23.0831  -15.4217   19.8634 H   0  0  0  0  0  0  0  0  0  0  0  0
   20.4165  -18.5214   21.2829 H   0  0  0  0  0  0  0  0  0  0  0  0
   18.4841  -18.5597   19.6734 H   0  0  0  0  0  0  0  0  0  0  0  0
   16.1821  -15.1899   17.1961 H   0  0  0  0  0  0  0  0  0  0  0  0
   17.9590  -15.2364   17.0177 H   0  0  0  0  0  0  0  0  0  0  0  0
   20.5052  -14.1827   21.0614 H   0  0  0  0  0  0  0  0  0  0  0  0
   15.8184   -9.8000   18.9934 H   0  0  0  0  0  0  0  0  0  0  0  0
   13.0145  -10.9063   16.7254 H   0  0  0  0  0  0  0  0  0  0  0  0
   13.4801   -9.6442   17.9480 H   0  0  0  0  0  0  0  0  0  0  0  0
   13.8536   -6.2416   14.9274 H   0  0  0  0  0  0  0  0  0  0  0  0
   16.5697   -9.2474   13.3672 H   0  0  0  0  0  0  0  0  0  0  0  0
   13.6791   -5.8700   12.4448 H   0  0  0  0  0  0  0  0  0  0  0  0
   17.6467   -5.6089   10.8557 H   0  0  0  0  0  0  0  0  0  0  0  0
   22.6594  -16.2762   26.0068 H   0  0  0  0  0  0  0  0  0  0  0  0
   24.1388  -17.1456   25.4756 H   0  0  0  0  0  0  0  0  0  0  0  0
   24.1037  -15.3496   25.4756 H   0  0  0  0  0  0  0  0  0  0  0  0
   20.7747  -16.2875   24.1766 H   0  0  0  0  0  0  0  0  0  0  0  0
   18.1855  -13.2775   20.3520 H   0  0  0  0  0  0  0  0  0  0  0  0
   19.2200  -13.3779   18.8681 H   0  0  0  0  0  0  0  0  0  0  0  0
   17.2292  -17.3359   17.9674 H   0  0  0  0  0  0  0  0  0  0  0  0
   16.2781  -16.4635   19.2361 H   0  0  0  0  0  0  0  0  0  0  0  0
   15.8795  -10.8173   15.1911 H   0  0  0  0  0  0  0  0  0  0  0  0
   13.0996   -7.8176   16.6429 H   0  0  0  0  0  0  0  0  0  0  0  0
   15.1140   -4.7050   10.5229 H   0  0  0  0  0  0  0  0  0  0  0  0
  1 17  2  0
  1 18  1  0
  2 10  1  0
  2 26  2  0
  3 17  1  0
  4  5  2  0
  4  9  1  0
  4 20  1  0
  5  6  1  0
  6  7  2  0
  7 22  1  0
  7 25  1  0
  8 24  1  0
  8 25  1  0
  9 22  2  0
 10 28  2  0
 11 28  1  0
 11 29  1  0
 12 13  2  0
 12 31  1  0
 13 14  1  0
 13 32  1  0
 14 30  2  0
 15 32  1  0
 15 34  2  0
 16 33  2  0
 16 34  1  0
 17 20  1  0
 18 19  1  0
 18 21  2  0
 20 21  1  0
 22 23  1  0
 23 24  1  0
 24 26  1  0
 26 27  1  0
 27 28  1  0
 29 30  1  0
 29 31  2  0
 32 33  1  0
  3 35  1  0
  3 36  1  0
  3 37  1  0
  5 38  1  0
  6 39  1  0
  8 40  1  0
  8 41  1  0
  9 42  1  0
 10 43  1  0
 11 44  1  0
 11 45  1  0
 12 46  1  0
 14 47  1  0
 15 48  1  0
 16 49  1  0
 19 50  1  0
 19 51  1  0
 19 52  1  0
 21 53  1  0
 23 54  1  0
 23 55  1  0
 25 56  1  0
 25 57  1  0
 30 58  1  0
 31 59  1  0
 34 60  1  0
M  END
>  <filename_input>  (25) 
7T1D_E7K_docked.sdf

>  <pdb_id>  (25) 
7T1D_E7K

>  <pose_rank>  (25) 
24

>  <num_atoms_heavy>  (25) 
34

>  <num_torsions>  (25) 
4

>  <pose>  (25) 
[16.7052197393161, -11.794732203308135, 19.045682439159126, 0.6555426491562587, 0.16112552395590793, 2.0266369570328995, -2.422612051370986, -0.6524458301692131, 1.0406531048775174, -0.3712871982901094]

>  <energy>  (25) 
-259.72637417102766

>  <inter_energy>  (25) 
-264.4176372494099

>  <intra_energy>  (25) 
1.9478433611947286

>  <rmsd>  (25) 
10.8929

>  <sdf_rank>  (25) 
0

$$$$

     RDKit          3D

 60 65  0  0  0  0  0  0  0  0999 V2000
   21.7880   -8.6300   29.4440 N   0  0  0  0  0  0  0  0  0  0  0  0
   25.8110   -7.7170   21.4810 N   0  0  0  0  0  0  0  0  0  0  0  0
   23.5940   -7.5850   28.0790 C   0  0  0  0  0  0  0  0  0  0  0  0
   21.3580   -7.4750   26.0230 C   0  0  0  0  0  0  0  0  0  0  0  0
   20.3850   -6.5190   25.5910 C   0  0  0  0  0  0  0  0  0  0  0  0
   20.4570   -6.0010   24.2690 C   0  0  0  0  0  0  0  0  0  0  0  0
   21.4590   -6.3790   23.4020 C   0  0  0  0  0  0  0  0  0  0  0  0
   22.2780   -6.7200   21.1110 C   0  0  0  0  0  0  0  0  0  0  0  0
   22.3560   -7.8810   25.1620 C   0  0  0  0  0  0  0  0  0  0  0  0
   26.8080   -7.6870   20.4990 C   0  0  0  0  0  0  0  0  0  0  0  0
   27.4560   -7.0130   18.1720 C   0  0  0  0  0  0  0  0  0  0  0  0
   27.0550   -7.9530   14.5580 C   0  0  0  0  0  0  0  0  0  0  0  0
   26.1220   -9.0350   14.6140 C   0  0  0  0  0  0  0  0  0  0  0  0
   25.6760   -9.5170   15.8240 C   0  0  0  0  0  0  0  0  0  0  0  0
   25.7350   -9.0420   12.1770 C   0  0  0  0  0  0  0  0  0  0  0  0
   24.7000  -10.9630   12.1100 C   0  0  0  0  0  0  0  0  0  0  0  0
   22.2410   -8.0910   28.3250 C   0  0  0  0  0  0  0  0  0  0  0  0
   20.4360   -8.9170   29.1900 C   0  0  0  0  0  0  0  0  0  0  0  0
   19.5730   -9.5540   30.1880 C   0  0  0  0  0  0  0  0  0  0  0  0
   21.2420   -8.0240   27.3390 N   0  0  0  0  0  0  0  0  0  0  0  0
   20.0730   -8.5520   27.8900 C   0  0  0  0  0  0  0  0  0  0  0  0
   22.4130   -7.3370   23.8700 C   0  0  0  0  0  0  0  0  0  0  0  0
   23.5520   -7.7950   23.0330 C   0  0  0  0  0  0  0  0  0  0  0  0
   23.5760   -7.1120   21.7390 N   0  0  0  0  0  0  0  0  0  0  0  0
   21.5670   -5.7930   22.0500 C   0  0  0  0  0  0  0  0  0  0  0  0
   24.7290   -7.2200   20.9920 C   0  0  0  0  0  0  0  0  0  0  0  0
   24.8530   -6.6140   19.3910 S   0  0  0  0  0  0  0  0  0  0  0  0
   26.4990   -7.1250   19.3220 C   0  0  0  0  0  0  0  0  0  0  0  0
   26.9750   -7.7840   16.9360 C   0  0  0  0  0  0  0  0  0  0  0  0
   26.0890   -8.9260   17.0140 C   0  0  0  0  0  0  0  0  0  0  0  0
   27.4280   -7.3590   15.7180 C   0  0  0  0  0  0  0  0  0  0  0  0
   25.6820   -9.6110   13.4500 N   0  0  0  0  0  0  0  0  0  0  0  0
   24.9930  -10.7950   13.3990 N   0  0  0  0  0  0  0  0  0  0  0  0
   25.1180   -9.8670   11.3070 C   0  0  0  0  0  0  0  0  0  0  0  0
   24.0956   -7.3974   29.0398 H   0  0  0  0  0  0  0  0  0  0  0  0
   24.1656   -8.3301   27.5063 H   0  0  0  0  0  0  0  0  0  0  0  0
   23.5364   -6.6476   27.5063 H   0  0  0  0  0  0  0  0  0  0  0  0
   19.5894   -6.1882   26.2748 H   0  0  0  0  0  0  0  0  0  0  0  0
   19.6959   -5.2825   23.9308 H   0  0  0  0  0  0  0  0  0  0  0  0
   22.4656   -6.2100   20.1546 H   0  0  0  0  0  0  0  0  0  0  0  0
   21.6635   -7.6118   20.9181 H   0  0  0  0  0  0  0  0  0  0  0  0
   23.1000   -8.6240   25.4851 H   0  0  0  0  0  0  0  0  0  0  0  0
   27.8067   -8.1084   20.6860 H   0  0  0  0  0  0  0  0  0  0  0  0
   27.5662   -5.9514   17.9058 H   0  0  0  0  0  0  0  0  0  0  0  0
   28.4146   -7.4498   18.4886 H   0  0  0  0  0  0  0  0  0  0  0  0
   27.4611   -7.6102   13.5949 H   0  0  0  0  0  0  0  0  0  0  0  0
   24.9884  -10.3752   15.8502 H   0  0  0  0  0  0  0  0  0  0  0  0
   26.2030   -8.0790   11.9247 H   0  0  0  0  0  0  0  0  0  0  0  0
   24.1904  -11.8524   11.7110 H   0  0  0  0  0  0  0  0  0  0  0  0
   19.9254   -9.2939   31.1970 H   0  0  0  0  0  0  0  0  0  0  0  0
   18.5395   -9.2006   30.0581 H   0  0  0  0  0  0  0  0  0  0  0  0
   19.6062  -10.6458   30.0581 H   0  0  0  0  0  0  0  0  0  0  0  0
   19.0889   -8.6571   27.4100 H   0  0  0  0  0  0  0  0  0  0  0  0
   24.4924   -7.5869   23.5644 H   0  0  0  0  0  0  0  0  0  0  0  0
   23.4349   -8.8736   22.8516 H   0  0  0  0  0  0  0  0  0  0  0  0
   20.5564   -5.5962   21.6628 H   0  0  0  0  0  0  0  0  0  0  0  0
   22.1446   -4.8596   22.1208 H   0  0  0  0  0  0  0  0  0  0  0  0
   25.7519   -9.3154   17.9860 H   0  0  0  0  0  0  0  0  0  0  0  0
   28.1197   -6.5047   15.6779 H   0  0  0  0  0  0  0  0  0  0  0  0
   24.9719   -9.7248   10.2261 H   0  0  0  0  0  0  0  0  0  0  0  0
  1 17  2  0
  1 18  1  0
  2 10  1  0
  2 26  2  0
  3 17  1  0
  4  5  2  0
  4  9  1  0
  4 20  1  0
  5  6  1  0
  6  7  2  0
  7 22  1  0
  7 25  1  0
  8 24  1  0
  8 25  1  0
  9 22  2  0
 10 28  2  0
 11 28  1  0
 11 29  1  0
 12 13  2  0
 12 31  1  0
 13 14  1  0
 13 32  1  0
 14 30  2  0
 15 32  1  0
 15 34  2  0
 16 33  2  0
 16 34  1  0
 17 20  1  0
 18 19  1  0
 18 21  2  0
 20 21  1  0
 22 23  1  0
 23 24  1  0
 24 26  1  0
 26 27  1  0
 27 28  1  0
 29 30  1  0
 29 31  2  0
 32 33  1  0
  3 35  1  0
  3 36  1  0
  3 37  1  0
  5 38  1  0
  6 39  1  0
  8 40  1  0
  8 41  1  0
  9 42  1  0
 10 43  1  0
 11 44  1  0
 11 45  1  0
 12 46  1  0
 14 47  1  0
 15 48  1  0
 16 49  1  0
 19 50  1  0
 19 51  1  0
 19 52  1  0
 21 53  1  0
 23 54  1  0
 23 55  1  0
 25 56  1  0
 25 57  1  0
 30 58  1  0
 31 59  1  0
 34 60  1  0
M  END
>  <filename_input>  (26) 
7T1D_E7K_docked.sdf

>  <pdb_id>  (26) 
7T1D_E7K

>  <pose_rank>  (26) 
25

>  <num_atoms_heavy>  (26) 
34

>  <num_torsions>  (26) 
4

>  <pose>  (26) 
[25.811, -7.717, 21.481, 1e-06, 1e-06, 1e-06, 0.0, 0.0, 0.0, 0.0]

>  <energy>  (26) 
-982.680830111294

>  <inter_energy>  (26) 
-1002.1883288906124

>  <intra_energy>  (26) 
15.378903312409687

>  <rmsd>  (26) 
0.0

>  <sdf_rank>  (26) 
0

$$$$
