
     RDKit          3D

 39 39  0  0  0  0  0  0  0  0999 V2000
   13.3125  -24.2877  -24.4053 C   0  0  0  0  0  0  0  0  0  0  0  0
   14.4713  -23.2995  -24.4981 C   0  0  1  0  0  0  0  0  0  0  0  0
   15.7985  -23.9133  -24.1150 C   0  0  0  0  0  0  0  0  0  0  0  0
   16.8416  -22.8585  -23.9834 C   0  0  1  0  0  0  0  0  0  0  0  0
   16.3899  -21.8389  -22.9586 C   0  0  2  0  0  0  0  0  0  0  0  0
   15.0829  -21.2190  -23.4394 C   0  0  2  0  0  0  0  0  0  0  0  0
   14.4940  -20.2004  -22.4977 C   0  0  1  0  0  0  0  0  0  0  0  0
   13.1536  -19.6494  -22.9965 C   0  0  1  0  0  0  0  0  0  0  0  0
   12.5672  -18.6560  -22.0373 C   0  0  0  0  0  0  0  0  0  0  0  0
   18.1676  -20.6678  -21.6739 C   0  0  0  0  0  0  0  0  0  0  0  0
   19.1198  -19.4894  -21.6861 C   0  0  0  0  0  0  0  0  0  0  0  0
   17.3623  -20.7814  -22.7868 N   0  0  0  0  0  0  0  0  0  0  0  0
   13.0341  -24.9563  -25.4459 O   0  0  0  0  0  0  0  0  0  0  0  0
   12.6918  -24.3736  -23.3124 O   0  0  0  0  0  0  0  0  0  0  0  0
   14.5380  -22.7247  -25.7692 O   0  0  0  0  0  0  0  0  0  0  0  0
   18.0931  -23.4671  -23.5877 O   0  0  0  0  0  0  0  0  0  0  0  0
   14.0911  -22.2568  -23.5786 O   0  0  0  0  0  0  0  0  0  0  0  0
   14.2608  -20.8036  -21.2000 O   0  0  0  0  0  0  0  0  0  0  0  0
   13.3398  -19.0702  -24.2901 O   0  0  0  0  0  0  0  0  0  0  0  0
   13.0918  -17.3371  -22.1638 O   0  0  0  0  0  0  0  0  0  0  0  0
   18.1206  -21.4641  -20.7526 O   0  0  0  0  0  0  0  0  0  0  0  0
   15.6909  -24.4380  -23.1542 H   0  0  0  0  0  0  0  0  0  0  0  0
   16.1040  -24.6201  -24.9005 H   0  0  0  0  0  0  0  0  0  0  0  0
   16.9910  -22.3489  -24.9467 H   0  0  0  0  0  0  0  0  0  0  0  0
   16.2650  -22.3521  -21.9936 H   0  0  0  0  0  0  0  0  0  0  0  0
   15.3306  -20.7144  -24.3850 H   0  0  0  0  0  0  0  0  0  0  0  0
   15.2196  -19.3760  -22.4355 H   0  0  0  0  0  0  0  0  0  0  0  0
   12.4343  -20.4787  -23.0666 H   0  0  0  0  0  0  0  0  0  0  0  0
   11.4813  -18.6124  -22.2078 H   0  0  0  0  0  0  0  0  0  0  0  0
   12.8282  -19.0028  -21.0266 H   0  0  0  0  0  0  0  0  0  0  0  0
   19.3555  -19.1977  -20.6520 H   0  0  0  0  0  0  0  0  0  0  0  0
   20.0462  -19.7720  -22.2076 H   0  0  0  0  0  0  0  0  0  0  0  0
   18.6490  -18.6430  -22.2076 H   0  0  0  0  0  0  0  0  0  0  0  0
   17.4575  -20.0783  -23.5334 H   0  0  0  0  0  0  0  0  0  0  0  0
   14.6517  -21.7450  -25.6827 H   0  0  0  0  0  0  0  0  0  0  0  0
   18.1490  -23.4943  -22.5997 H   0  0  0  0  0  0  0  0  0  0  0  0
   14.5089  -20.1617  -20.4883 H   0  0  0  0  0  0  0  0  0  0  0  0
   13.6414  -18.1324  -24.1915 H   0  0  0  0  0  0  0  0  0  0  0  0
   13.2440  -16.9548  -21.2634 H   0  0  0  0  0  0  0  0  0  0  0  0
  1  2  1  0
  1 13  2  0
  1 14  1  0
  2  3  1  0
  2 15  1  6
  2 17  1  0
  3  4  1  0
  4  5  1  0
  4 16  1  0
  5  6  1  0
  5 12  1  0
  6  7  1  0
  6 17  1  0
  7  8  1  0
  7 18  1  0
  8  9  1  0
  8 19  1  0
  9 20  1  0
 10 11  1  0
 10 12  1  0
 10 21  2  0
  3 22  1  0
  3 23  1  0
  4 24  1  6
  5 25  1  1
  6 26  1  6
  7 27  1  1
  8 28  1  6
  9 29  1  0
  9 30  1  0
 11 31  1  0
 11 32  1  0
 11 33  1  0
 12 34  1  0
 15 35  1  0
 16 36  1  0
 18 37  1  0
 19 38  1  0
 20 39  1  0
M  CHG  1  14  -1
M  END
>  <filename_input>  (1) 
7T3E_SLB_docked.sdf

>  <pdb_id>  (1) 
7T3E_SLB

>  <pose_rank>  (1) 
0

>  <num_atoms_heavy>  (1) 
21

>  <num_torsions>  (1) 
5

>  <pose>  (1) 
[14.471289695041714, -23.299518045970128, -24.498146005988193, -5.491085637215731, -2.3528862174449454, -1.596578895443698, -0.0190345167878417, 0.4138180296344467, -0.018445842699212123, -0.12944552957284647, -5.847052541634855]

>  <energy>  (1) 
-1006.6537409864178

>  <inter_energy>  (1) 
-994.8397036287195

>  <intra_energy>  (1) 
1.3822643528655216

>  <rmsd>  (1) 
0.361806

>  <sdf_rank>  (1) 
0

$$$$

     RDKit          3D

 39 39  0  0  0  0  0  0  0  0999 V2000
   13.8408  -24.4785  -24.3306 C   0  0  0  0  0  0  0  0  0  0  0  0
   14.1054  -23.3586  -23.3286 C   0  0  1  0  0  0  0  0  0  0  0  0
   12.8445  -22.6414  -22.9032 C   0  0  0  0  0  0  0  0  0  0  0  0
   13.1794  -21.4143  -22.1286 C   0  0  1  0  0  0  0  0  0  0  0  0
   14.0634  -20.5203  -22.9730 C   0  0  2  0  0  0  0  0  0  0  0  0
   15.3383  -21.2843  -23.3113 C   0  0  2  0  0  0  0  0  0  0  0  0
   16.3071  -20.5242  -24.1802 C   0  0  1  0  0  0  0  0  0  0  0  0
   17.7633  -20.7259  -23.7470 C   0  0  1  0  0  0  0  0  0  0  0  0
   18.1068  -19.8992  -22.5432 C   0  0  0  0  0  0  0  0  0  0  0  0
   13.9230  -18.0667  -22.5952 C   0  0  0  0  0  0  0  0  0  0  0  0
   14.4315  -16.9231  -21.7413 C   0  0  0  0  0  0  0  0  0  0  0  0
   14.4283  -19.3080  -22.2726 N   0  0  0  0  0  0  0  0  0  0  0  0
   12.9194  -25.3030  -24.0507 O   0  0  0  0  0  0  0  0  0  0  0  0
   14.5569  -24.5300  -25.3659 O   0  0  0  0  0  0  0  0  0  0  0  0
   14.8045  -23.8359  -22.2179 O   0  0  0  0  0  0  0  0  0  0  0  0
   11.9586  -20.7313  -21.7592 O   0  0  0  0  0  0  0  0  0  0  0  0
   14.9934  -22.4774  -24.0444 O   0  0  0  0  0  0  0  0  0  0  0  0
   16.1956  -20.9730  -25.5545 O   0  0  0  0  0  0  0  0  0  0  0  0
   17.9881  -22.1159  -23.5001 O   0  0  0  0  0  0  0  0  0  0  0  0
   17.7392  -18.5265  -22.6489 O   0  0  0  0  0  0  0  0  0  0  0  0
   13.1194  -17.9056  -23.4970 O   0  0  0  0  0  0  0  0  0  0  0  0
   12.2690  -22.3595  -23.7972 H   0  0  0  0  0  0  0  0  0  0  0  0
   12.2503  -23.3133  -22.2664 H   0  0  0  0  0  0  0  0  0  0  0  0
   13.7215  -21.6808  -21.2093 H   0  0  0  0  0  0  0  0  0  0  0  0
   13.5055  -20.2400  -23.8787 H   0  0  0  0  0  0  0  0  0  0  0  0
   15.8233  -21.4840  -22.3444 H   0  0  0  0  0  0  0  0  0  0  0  0
   16.0476  -19.4599  -24.0806 H   0  0  0  0  0  0  0  0  0  0  0  0
   18.4240  -20.3865  -24.5584 H   0  0  0  0  0  0  0  0  0  0  0  0
   17.5897  -20.3280  -21.6721 H   0  0  0  0  0  0  0  0  0  0  0  0
   19.2022  -19.9249  -22.4461 H   0  0  0  0  0  0  0  0  0  0  0  0
   14.3170  -17.1805  -20.6780 H   0  0  0  0  0  0  0  0  0  0  0  0
   15.4939  -16.7442  -21.9630 H   0  0  0  0  0  0  0  0  0  0  0  0
   13.8526  -16.0144  -21.9630 H   0  0  0  0  0  0  0  0  0  0  0  0
   15.0991  -19.3759  -21.4939 H   0  0  0  0  0  0  0  0  0  0  0  0
   14.3566  -23.5302  -21.3896 H   0  0  0  0  0  0  0  0  0  0  0  0
   11.8881  -20.6919  -20.7725 H   0  0  0  0  0  0  0  0  0  0  0  0
   15.9572  -21.9338  -25.5695 H   0  0  0  0  0  0  0  0  0  0  0  0
   18.0142  -22.2776  -22.5237 H   0  0  0  0  0  0  0  0  0  0  0  0
   17.6361  -18.1417  -21.7426 H   0  0  0  0  0  0  0  0  0  0  0  0
  1  2  1  0
  1 13  2  0
  1 14  1  0
  2  3  1  0
  2 15  1  1
  2 17  1  0
  3  4  1  0
  4  5  1  0
  4 16  1  0
  5  6  1  0
  5 12  1  0
  6  7  1  0
  6 17  1  0
  7  8  1  0
  7 18  1  0
  8  9  1  0
  8 19  1  0
  9 20  1  0
 10 11  1  0
 10 12  1  0
 10 21  2  0
  3 22  1  0
  3 23  1  0
  4 24  1  1
  5 25  1  6
  6 26  1  1
  7 27  1  6
  8 28  1  6
  9 29  1  0
  9 30  1  0
 11 31  1  0
 11 32  1  0
 11 33  1  0
 12 34  1  0
 15 35  1  0
 16 36  1  0
 18 37  1  0
 19 38  1  0
 20 39  1  0
M  CHG  1  14  -1
M  END
>  <filename_input>  (2) 
7T3E_SLB_docked.sdf

>  <pdb_id>  (2) 
7T3E_SLB

>  <pose_rank>  (2) 
1

>  <num_atoms_heavy>  (2) 
21

>  <num_torsions>  (2) 
5

>  <pose>  (2) 
[14.10536533339083, -23.358620915268624, -23.328619149462227, -1.136164062377403, -2.216940880671997, -0.5882526294093398, -6.330113557753857, -5.142270282985564, -13.332717214561754, -10.895944029426287, -1.8686767974624647]

>  <energy>  (2) 
-749.1485315212841

>  <inter_energy>  (2) 
-763.4774735140305

>  <intra_energy>  (2) 
4.59768687035102

>  <rmsd>  (2) 
4.07617

>  <sdf_rank>  (2) 
0

$$$$

     RDKit          3D

 39 39  0  0  0  0  0  0  0  0999 V2000
   13.5932  -24.7782  -24.2880 C   0  0  0  0  0  0  0  0  0  0  0  0
   14.5134  -23.5633  -24.3608 C   0  0  1  0  0  0  0  0  0  0  0  0
   15.7245  -23.6895  -23.4650 C   0  0  0  0  0  0  0  0  0  0  0  0
   16.4503  -22.3916  -23.3845 C   0  0  1  0  0  0  0  0  0  0  0  0
   15.5021  -21.3231  -22.8815 C   0  0  2  0  0  0  0  0  0  0  0  0
   14.3413  -21.2084  -23.8629 C   0  0  2  0  0  0  0  0  0  0  0  0
   13.2943  -20.1971  -23.4726 C   0  0  1  0  0  0  0  0  0  0  0  0
   13.6037  -19.5233  -22.1313 C   0  0  1  0  0  0  0  0  0  0  0  0
   13.4162  -18.0363  -22.1975 C   0  0  0  0  0  0  0  0  0  0  0  0
   17.5052  -19.8515  -22.9497 C   0  0  0  0  0  0  0  0  0  0  0  0
   17.9858  -18.4217  -22.8080 C   0  0  0  0  0  0  0  0  0  0  0  0
   16.1487  -20.0324  -22.7842 N   0  0  0  0  0  0  0  0  0  0  0  0
   13.3019  -25.3529  -25.3798 O   0  0  0  0  0  0  0  0  0  0  0  0
   13.1654  -25.1318  -23.1570 O   0  0  0  0  0  0  0  0  0  0  0  0
   14.8950  -23.3030  -25.6787 O   0  0  0  0  0  0  0  0  0  0  0  0
   17.5863  -22.5306  -22.4993 O   0  0  0  0  0  0  0  0  0  0  0  0
   13.6623  -22.4783  -23.9416 O   0  0  0  0  0  0  0  0  0  0  0  0
   13.2167  -19.1534  -24.4762 O   0  0  0  0  0  0  0  0  0  0  0  0
   12.7796  -20.1030  -21.1172 O   0  0  0  0  0  0  0  0  0  0  0  0
   14.6148  -17.2849  -22.0261 O   0  0  0  0  0  0  0  0  0  0  0  0
   18.2590  -20.7756  -23.2002 O   0  0  0  0  0  0  0  0  0  0  0  0
   15.3998  -23.9860  -22.4567 H   0  0  0  0  0  0  0  0  0  0  0  0
   16.3999  -24.4498  -23.8843 H   0  0  0  0  0  0  0  0  0  0  0  0
   16.8173  -22.0986  -24.3792 H   0  0  0  0  0  0  0  0  0  0  0  0
   15.1579  -21.6124  -21.8776 H   0  0  0  0  0  0  0  0  0  0  0  0
   14.7941  -20.8893  -24.8133 H   0  0  0  0  0  0  0  0  0  0  0  0
   12.3454  -20.7468  -23.3872 H   0  0  0  0  0  0  0  0  0  0  0  0
   14.6621  -19.6944  -21.8852 H   0  0  0  0  0  0  0  0  0  0  0  0
   12.9908  -17.7864  -23.1806 H   0  0  0  0  0  0  0  0  0  0  0  0
   12.7530  -17.7654  -21.3627 H   0  0  0  0  0  0  0  0  0  0  0  0
   18.0712  -18.1677  -21.7411 H   0  0  0  0  0  0  0  0  0  0  0  0
   18.9689  -18.3159  -23.2899 H   0  0  0  0  0  0  0  0  0  0  0  0
   17.2662  -17.7436  -23.2899 H   0  0  0  0  0  0  0  0  0  0  0  0
   15.5663  -19.2075  -22.5812 H   0  0  0  0  0  0  0  0  0  0  0  0
   15.7129  -22.7452  -25.6814 H   0  0  0  0  0  0  0  0  0  0  0  0
   17.2786  -22.4929  -21.5591 H   0  0  0  0  0  0  0  0  0  0  0  0
   13.1511  -18.2716  -24.0310 H   0  0  0  0  0  0  0  0  0  0  0  0
   13.1309  -19.8559  -20.2252 H   0  0  0  0  0  0  0  0  0  0  0  0
   14.7972  -17.1705  -21.0598 H   0  0  0  0  0  0  0  0  0  0  0  0
  1  2  1  0
  1 13  2  0
  1 14  1  0
  2  3  1  0
  2 15  1  6
  2 17  1  0
  3  4  1  0
  4  5  1  0
  4 16  1  0
  5  6  1  0
  5 12  1  0
  6  7  1  0
  6 17  1  0
  7  8  1  0
  7 18  1  0
  8  9  1  0
  8 19  1  0
  9 20  1  0
 10 11  1  0
 10 12  1  0
 10 21  2  0
  3 22  1  0
  3 23  1  0
  4 24  1  6
  5 25  1  1
  6 26  1  6
  7 27  1  1
  8 28  1  1
  9 29  1  0
  9 30  1  0
 11 31  1  0
 11 32  1  0
 11 33  1  0
 12 34  1  0
 15 35  1  0
 16 36  1  0
 18 37  1  0
 19 38  1  0
 20 39  1  0
M  CHG  1  14  -1
M  END
>  <filename_input>  (3) 
7T3E_SLB_docked.sdf

>  <pdb_id>  (3) 
7T3E_SLB

>  <pose_rank>  (3) 
2

>  <num_atoms_heavy>  (3) 
21

>  <num_torsions>  (3) 
5

>  <pose>  (3) 
[14.513390249768483, -23.56334539775792, -24.360788117549284, 2.7535658898980393, 3.6109456746297837, -3.699560627537325, 1.6951034056247036, -0.19966474172417567, 3.0496062403674262, -7.192801576406815, -3.002030777623336]

>  <energy>  (3) 
-660.7513740290191

>  <inter_energy>  (3) 
-809.9465230216813

>  <intra_energy>  (3) 
158.73454264560743

>  <rmsd>  (3) 
1.64114

>  <sdf_rank>  (3) 
0

$$$$

     RDKit          3D

 39 39  0  0  0  0  0  0  0  0999 V2000
   13.9391  -24.2960  -24.4247 C   0  0  0  0  0  0  0  0  0  0  0  0
   14.6403  -23.3127  -23.4922 C   0  0  1  0  0  0  0  0  0  0  0  0
   13.6837  -22.3479  -22.8295 C   0  0  0  0  0  0  0  0  0  0  0  0
   14.4339  -21.2658  -22.1336 C   0  0  1  0  0  0  0  0  0  0  0  0
   15.3256  -20.5585  -23.1329 C   0  0  2  0  0  0  0  0  0  0  0  0
   16.3013  -21.5761  -23.7128 C   0  0  2  0  0  0  0  0  0  0  0  0
   17.2381  -21.0172  -24.7526 C   0  0  1  0  0  0  0  0  0  0  0  0
   18.4626  -21.9111  -24.9771 C   0  0  1  0  0  0  0  0  0  0  0  0
   19.2597  -22.0917  -23.7190 C   0  0  0  0  0  0  0  0  0  0  0  0
   15.5344  -18.2891  -22.1384 C   0  0  0  0  0  0  0  0  0  0  0  0
   16.5010  -17.3066  -21.5093 C   0  0  0  0  0  0  0  0  0  0  0  0
   16.0871  -19.4943  -22.5155 N   0  0  0  0  0  0  0  0  0  0  0  0
   12.6847  -24.4260  -24.2952 O   0  0  0  0  0  0  0  0  0  0  0  0
   14.6422  -24.9302  -25.2557 O   0  0  0  0  0  0  0  0  0  0  0  0
   15.4063  -23.9868  -22.5386 O   0  0  0  0  0  0  0  0  0  0  0  0
   13.4971  -20.3408  -21.5338 O   0  0  0  0  0  0  0  0  0  0  0  0
   15.5571  -22.6247  -24.3659 O   0  0  0  0  0  0  0  0  0  0  0  0
   16.5500  -20.8944  -26.0230 O   0  0  0  0  0  0  0  0  0  0  0  0
   18.0315  -23.1697  -25.5003 O   0  0  0  0  0  0  0  0  0  0  0  0
   19.3723  -23.4440  -23.2841 O   0  0  0  0  0  0  0  0  0  0  0  0
   14.3519  -18.0386  -22.2935 O   0  0  0  0  0  0  0  0  0  0  0  0
   13.0313  -21.9019  -23.5946 H   0  0  0  0  0  0  0  0  0  0  0  0
   13.0809  -22.8955  -22.0901 H   0  0  0  0  0  0  0  0  0  0  0  0
   15.0629  -21.6904  -21.3373 H   0  0  0  0  0  0  0  0  0  0  0  0
   14.6874  -20.1176  -23.9128 H   0  0  0  0  0  0  0  0  0  0  0  0
   16.9001  -21.9249  -22.8585 H   0  0  0  0  0  0  0  0  0  0  0  0
   17.5726  -20.0384  -24.3781 H   0  0  0  0  0  0  0  0  0  0  0  0
   19.1295  -21.4220  -25.7024 H   0  0  0  0  0  0  0  0  0  0  0  0
   20.2729  -21.7008  -23.8943 H   0  0  0  0  0  0  0  0  0  0  0  0
   18.7231  -21.5499  -22.9262 H   0  0  0  0  0  0  0  0  0  0  0  0
   16.4329  -17.3759  -20.4136 H   0  0  0  0  0  0  0  0  0  0  0  0
   17.5262  -17.5453  -21.8288 H   0  0  0  0  0  0  0  0  0  0  0  0
   16.2457  -16.2855  -21.8288 H   0  0  0  0  0  0  0  0  0  0  0  0
   17.0925  -19.6448  -22.3496 H   0  0  0  0  0  0  0  0  0  0  0  0
   15.1089  -23.7251  -21.6314 H   0  0  0  0  0  0  0  0  0  0  0  0
   13.5587  -20.4017  -20.5476 H   0  0  0  0  0  0  0  0  0  0  0  0
   15.5884  -20.7229  -25.8622 H   0  0  0  0  0  0  0  0  0  0  0  0
   17.8212  -23.7834  -24.7524 H   0  0  0  0  0  0  0  0  0  0  0  0
   19.3747  -23.4733  -22.2945 H   0  0  0  0  0  0  0  0  0  0  0  0
  1  2  1  0
  1 13  2  0
  1 14  1  0
  2  3  1  0
  2 15  1  1
  2 17  1  0
  3  4  1  0
  4  5  1  0
  4 16  1  0
  5  6  1  0
  5 12  1  0
  6  7  1  0
  6 17  1  0
  7  8  1  0
  7 18  1  0
  8  9  1  0
  8 19  1  0
  9 20  1  0
 10 11  1  0
 10 12  1  0
 10 21  2  0
  3 22  1  0
  3 23  1  0
  4 24  1  1
  5 25  1  6
  6 26  1  1
  7 27  1  1
  8 28  1  6
  9 29  1  0
  9 30  1  0
 11 31  1  0
 11 32  1  0
 11 33  1  0
 12 34  1  0
 15 35  1  0
 16 36  1  0
 18 37  1  0
 19 38  1  0
 20 39  1  0
M  CHG  1  14  -1
M  END
>  <filename_input>  (4) 
7T3E_SLB_docked.sdf

>  <pdb_id>  (4) 
7T3E_SLB

>  <pose_rank>  (4) 
3

>  <num_atoms_heavy>  (4) 
21

>  <num_torsions>  (4) 
5

>  <pose>  (4) 
[14.640298770721508, -23.31270872895665, -23.49215184126668, -1.3892680391131091, -1.9238989080142908, -0.570559343514911, 0.5501225905087457, 1.6999411256656738, -0.38076882512424526, 1.9911192171385073, 1.0888187532979832]

>  <energy>  (4) 
-643.1821533874571

>  <inter_energy>  (4) 
-683.10091694794

>  <intra_energy>  (4) 
48.89659629851883

>  <rmsd>  (4) 
4.21424

>  <sdf_rank>  (4) 
0

$$$$

     RDKit          3D

 39 39  0  0  0  0  0  0  0  0999 V2000
   12.6461  -19.7776  -21.9535 C   0  0  0  0  0  0  0  0  0  0  0  0
   13.3566  -20.7482  -22.8922 C   0  0  1  0  0  0  0  0  0  0  0  0
   13.2761  -22.1832  -22.4238 C   0  0  0  0  0  0  0  0  0  0  0  0
   14.1839  -23.0459  -23.2297 C   0  0  1  0  0  0  0  0  0  0  0  0
   15.5972  -22.5114  -23.1270 C   0  0  2  0  0  0  0  0  0  0  0  0
   15.6148  -21.0880  -23.6723 C   0  0  2  0  0  0  0  0  0  0  0  0
   16.9603  -20.4125  -23.6047 C   0  0  1  0  0  0  0  0  0  0  0  0
   17.7791  -20.8610  -22.3892 C   0  0  1  0  0  0  0  0  0  0  0  0
   19.1041  -20.1608  -22.3200 C   0  0  0  0  0  0  0  0  0  0  0  0
   16.2320  -23.8413  -25.1298 C   0  0  0  0  0  0  0  0  0  0  0  0
   17.3457  -24.6447  -25.7697 C   0  0  0  0  0  0  0  0  0  0  0  0
   16.5306  -23.3072  -23.8945 N   0  0  0  0  0  0  0  0  0  0  0  0
   11.6196  -20.2047  -21.3442 O   0  0  0  0  0  0  0  0  0  0  0  0
   13.1068  -18.6098  -21.8476 O   0  0  0  0  0  0  0  0  0  0  0  0
   12.8762  -20.6238  -24.1976 O   0  0  0  0  0  0  0  0  0  0  0  0
   14.1108  -24.4065  -22.7432 O   0  0  0  0  0  0  0  0  0  0  0  0
   14.7171  -20.2724  -22.8919 O   0  0  0  0  0  0  0  0  0  0  0  0
   17.7325  -20.7290  -24.7904 O   0  0  0  0  0  0  0  0  0  0  0  0
   17.0138  -20.6363  -21.2028 O   0  0  0  0  0  0  0  0  0  0  0  0
   19.0879  -18.9451  -21.5766 O   0  0  0  0  0  0  0  0  0  0  0  0
   15.1526  -23.6704  -25.6689 O   0  0  0  0  0  0  0  0  0  0  0  0
   13.5716  -22.2357  -21.3655 H   0  0  0  0  0  0  0  0  0  0  0  0
   12.2431  -22.5405  -22.5468 H   0  0  0  0  0  0  0  0  0  0  0  0
   13.8785  -23.0368  -24.2865 H   0  0  0  0  0  0  0  0  0  0  0  0
   15.9028  -22.5455  -22.0708 H   0  0  0  0  0  0  0  0  0  0  0  0
   15.3248  -21.1777  -24.7296 H   0  0  0  0  0  0  0  0  0  0  0  0
   16.7644  -19.3329  -23.5263 H   0  0  0  0  0  0  0  0  0  0  0  0
   17.9974  -21.9347  -22.4863 H   0  0  0  0  0  0  0  0  0  0  0  0
   19.8293  -20.8418  -21.8506 H   0  0  0  0  0  0  0  0  0  0  0  0
   19.3734  -19.8944  -23.3527 H   0  0  0  0  0  0  0  0  0  0  0  0
   17.9705  -25.0955  -24.9845 H   0  0  0  0  0  0  0  0  0  0  0  0
   16.9122  -25.4394  -26.3946 H   0  0  0  0  0  0  0  0  0  0  0  0
   17.9631  -23.9827  -26.3946 H   0  0  0  0  0  0  0  0  0  0  0  0
   17.4647  -23.4835  -23.4981 H   0  0  0  0  0  0  0  0  0  0  0  0
   11.9180  -20.3758  -24.1744 H   0  0  0  0  0  0  0  0  0  0  0  0
   14.1110  -24.4034  -21.7532 H   0  0  0  0  0  0  0  0  0  0  0  0
   18.6145  -21.0904  -24.5230 H   0  0  0  0  0  0  0  0  0  0  0  0
   17.5804  -20.8026  -20.4081 H   0  0  0  0  0  0  0  0  0  0  0  0
   19.0906  -19.1505  -20.6081 H   0  0  0  0  0  0  0  0  0  0  0  0
  1  2  1  0
  1 13  2  0
  1 14  1  0
  2  3  1  0
  2 15  1  6
  2 17  1  0
  3  4  1  0
  4  5  1  0
  4 16  1  0
  5  6  1  0
  5 12  1  0
  6  7  1  0
  6 17  1  0
  7  8  1  0
  7 18  1  0
  8  9  1  0
  8 19  1  0
  9 20  1  0
 10 11  1  0
 10 12  1  0
 10 21  2  0
  3 22  1  0
  3 23  1  0
  4 24  1  6
  5 25  1  1
  6 26  1  6
  7 27  1  1
  8 28  1  6
  9 29  1  0
  9 30  1  0
 11 31  1  0
 11 32  1  0
 11 33  1  0
 12 34  1  0
 15 35  1  0
 16 36  1  0
 18 37  1  0
 19 38  1  0
 20 39  1  0
M  CHG  1  14  -1
M  END
>  <filename_input>  (5) 
7T3E_SLB_docked.sdf

>  <pdb_id>  (5) 
7T3E_SLB

>  <pose_rank>  (5) 
4

>  <num_atoms_heavy>  (5) 
21

>  <num_torsions>  (5) 
5

>  <pose>  (5) 
[13.356591586114977, -20.748191336881444, -22.892211527249795, -0.3838698038029532, 0.6700160031552594, -1.3696660595769767, 21.37292492320562, 1.4261565529611193, 21.359709607926554, 6.191761375686658, 0.5765799881052792]

>  <energy>  (5) 
-617.6380794745724

>  <inter_energy>  (5) 
-645.51896778871

>  <intra_energy>  (5) 
68.31727298726975

>  <rmsd>  (5) 
4.58397

>  <sdf_rank>  (5) 
0

$$$$

     RDKit          3D

 39 39  0  0  0  0  0  0  0  0999 V2000
   19.2234  -20.5869  -21.3352 C   0  0  0  0  0  0  0  0  0  0  0  0
   18.2621  -21.5463  -22.0305 C   0  0  1  0  0  0  0  0  0  0  0  0
   18.7344  -21.9558  -23.4068 C   0  0  0  0  0  0  0  0  0  0  0  0
   17.6564  -22.6837  -24.1322 C   0  0  1  0  0  0  0  0  0  0  0  0
   16.4282  -21.8011  -24.2113 C   0  0  2  0  0  0  0  0  0  0  0  0
   15.9733  -21.4803  -22.7922 C   0  0  2  0  0  0  0  0  0  0  0  0
   14.7692  -20.5773  -22.7141 C   0  0  1  0  0  0  0  0  0  0  0  0
   13.8535  -20.9248  -21.5353 C   0  0  1  0  0  0  0  0  0  0  0  0
   12.4535  -20.4309  -21.7519 C   0  0  0  0  0  0  0  0  0  0  0  0
   15.0179  -23.7835  -24.7246 C   0  0  0  0  0  0  0  0  0  0  0  0
   13.8435  -24.2779  -25.5443 C   0  0  0  0  0  0  0  0  0  0  0  0
   15.3393  -22.4552  -24.9043 N   0  0  0  0  0  0  0  0  0  0  0  0
   20.4066  -20.9948  -21.1329 O   0  0  0  0  0  0  0  0  0  0  0  0
   18.7875  -19.4564  -20.9901 O   0  0  0  0  0  0  0  0  0  0  0  0
   18.0130  -22.6678  -21.2364 O   0  0  0  0  0  0  0  0  0  0  0  0
   18.1224  -23.0380  -25.4553 O   0  0  0  0  0  0  0  0  0  0  0  0
   17.0355  -20.7928  -22.1000 O   0  0  0  0  0  0  0  0  0  0  0  0
   15.1934  -19.2012  -22.5447 O   0  0  0  0  0  0  0  0  0  0  0  0
   13.8758  -22.3392  -21.3286 O   0  0  0  0  0  0  0  0  0  0  0  0
   12.3603  -19.0392  -22.0440 O   0  0  0  0  0  0  0  0  0  0  0  0
   15.6305  -24.5030  -23.9552 O   0  0  0  0  0  0  0  0  0  0  0  0
   19.0114  -21.0568  -23.9770 H   0  0  0  0  0  0  0  0  0  0  0  0
   19.6044  -22.6207  -23.3015 H   0  0  0  0  0  0  0  0  0  0  0  0
   17.3938  -23.6076  -23.5961 H   0  0  0  0  0  0  0  0  0  0  0  0
   16.6933  -20.8904  -24.7684 H   0  0  0  0  0  0  0  0  0  0  0  0
   15.7089  -22.4499  -22.3450 H   0  0  0  0  0  0  0  0  0  0  0  0
   14.2131  -20.7160  -23.6530 H   0  0  0  0  0  0  0  0  0  0  0  0
   14.2284  -20.4170  -20.6344 H   0  0  0  0  0  0  0  0  0  0  0  0
   12.0177  -20.9893  -22.5934 H   0  0  0  0  0  0  0  0  0  0  0  0
   11.9138  -20.5908  -20.8068 H   0  0  0  0  0  0  0  0  0  0  0  0
   13.0422  -24.6153  -24.8704 H   0  0  0  0  0  0  0  0  0  0  0  0
   13.4694  -23.4610  -26.1788 H   0  0  0  0  0  0  0  0  0  0  0  0
   14.1663  -25.1165  -26.1788 H   0  0  0  0  0  0  0  0  0  0  0  0
   14.7763  -21.9005  -25.5647 H   0  0  0  0  0  0  0  0  0  0  0  0
   18.0692  -22.4147  -20.2809 H   0  0  0  0  0  0  0  0  0  0  0  0
   18.9081  -23.6355  -25.3794 H   0  0  0  0  0  0  0  0  0  0  0  0
   15.2579  -18.9921  -21.5792 H   0  0  0  0  0  0  0  0  0  0  0  0
   13.8788  -22.5308  -20.3573 H   0  0  0  0  0  0  0  0  0  0  0  0
   12.3259  -18.5261  -21.1981 H   0  0  0  0  0  0  0  0  0  0  0  0
  1  2  1  0
  1 13  2  0
  1 14  1  0
  2  3  1  0
  2 15  1  1
  2 17  1  0
  3  4  1  0
  4  5  1  0
  4 16  1  0
  5  6  1  0
  5 12  1  0
  6  7  1  0
  6 17  1  0
  7  8  1  0
  7 18  1  0
  8  9  1  0
  8 19  1  0
  9 20  1  0
 10 11  1  0
 10 12  1  0
 10 21  2  0
  3 22  1  0
  3 23  1  0
  4 24  1  1
  5 25  1  6
  6 26  1  1
  7 27  1  6
  8 28  1  1
  9 29  1  0
  9 30  1  0
 11 31  1  0
 11 32  1  0
 11 33  1  0
 12 34  1  0
 15 35  1  0
 16 36  1  0
 18 37  1  0
 19 38  1  0
 20 39  1  0
M  CHG  1  14  -1
M  END
>  <filename_input>  (6) 
7T3E_SLB_docked.sdf

>  <pdb_id>  (6) 
7T3E_SLB

>  <pose_rank>  (6) 
5

>  <num_atoms_heavy>  (6) 
21

>  <num_torsions>  (6) 
5

>  <pose>  (6) 
[18.262111901451835, -21.546330915217023, -22.0304515684156, 2.4284422040437925, -2.3468701796275977, -1.3234861787587369, -16.28542104817284, 19.800516168634864, -0.6719125224136878, -12.286770141579943, 4.3351920486629805]

>  <energy>  (6) 
-533.6164972390377

>  <inter_energy>  (6) 
-555.7461132732915

>  <intra_energy>  (6) 
38.15137966628482

>  <rmsd>  (6) 
4.72596

>  <sdf_rank>  (6) 
0

$$$$

     RDKit          3D

 39 39  0  0  0  0  0  0  0  0999 V2000
   12.9987  -24.2304  -24.4404 C   0  0  0  0  0  0  0  0  0  0  0  0
   14.1989  -23.2986  -24.5794 C   0  0  1  0  0  0  0  0  0  0  0  0
   15.4896  -23.9296  -24.1093 C   0  0  0  0  0  0  0  0  0  0  0  0
   16.5711  -22.9085  -24.0334 C   0  0  1  0  0  0  0  0  0  0  0  0
   16.1351  -21.7916  -23.1082 C   0  0  2  0  0  0  0  0  0  0  0  0
   14.8674  -21.1633  -23.6756 C   0  0  2  0  0  0  0  0  0  0  0  0
   14.2964  -20.0488  -22.8372 C   0  0  1  0  0  0  0  0  0  0  0  0
   15.1865  -19.7045  -21.6379 C   0  0  1  0  0  0  0  0  0  0  0  0
   15.1961  -18.2312  -21.3550 C   0  0  0  0  0  0  0  0  0  0  0  0
   18.1086  -20.7528  -22.0089 C   0  0  0  0  0  0  0  0  0  0  0  0
   19.0740  -19.5864  -22.0633 C   0  0  0  0  0  0  0  0  0  0  0  0
   17.1451  -20.7618  -22.9947 N   0  0  0  0  0  0  0  0  0  0  0  0
   12.3134  -24.4550  -25.4832 O   0  0  0  0  0  0  0  0  0  0  0  0
   12.7483  -24.7101  -23.3027 O   0  0  0  0  0  0  0  0  0  0  0  0
   14.3218  -22.8332  -25.8904 O   0  0  0  0  0  0  0  0  0  0  0  0
   17.7861  -23.5305  -23.5535 O   0  0  0  0  0  0  0  0  0  0  0  0
   13.8380  -22.1700  -23.7589 O   0  0  0  0  0  0  0  0  0  0  0  0
   14.1610  -18.8474  -23.6377 O   0  0  0  0  0  0  0  0  0  0  0  0
   14.7422  -20.4461  -20.4993 O   0  0  0  0  0  0  0  0  0  0  0  0
   16.4794  -17.6209  -21.4622 O   0  0  0  0  0  0  0  0  0  0  0  0
   18.1810  -21.6258  -21.1618 O   0  0  0  0  0  0  0  0  0  0  0  0
   15.3359  -24.3690  -23.1126 H   0  0  0  0  0  0  0  0  0  0  0  0
   15.7861  -24.7098  -24.8257 H   0  0  0  0  0  0  0  0  0  0  0  0
   16.7660  -22.4861  -25.0302 H   0  0  0  0  0  0  0  0  0  0  0  0
   15.9645  -22.2184  -22.1089 H   0  0  0  0  0  0  0  0  0  0  0  0
   15.1598  -20.7480  -24.6514 H   0  0  0  0  0  0  0  0  0  0  0  0
   13.3213  -20.4017  -22.4702 H   0  0  0  0  0  0  0  0  0  0  0  0
   16.2236  -19.9842  -21.8752 H   0  0  0  0  0  0  0  0  0  0  0  0
   14.5199  -17.7390  -22.0695 H   0  0  0  0  0  0  0  0  0  0  0  0
   14.8763  -18.1096  -20.3095 H   0  0  0  0  0  0  0  0  0  0  0  0
   19.3314  -19.2755  -21.0401 H   0  0  0  0  0  0  0  0  0  0  0  0
   19.9877  -19.8912  -22.5947 H   0  0  0  0  0  0  0  0  0  0  0  0
   18.6039  -18.7458  -22.5947 H   0  0  0  0  0  0  0  0  0  0  0  0
   17.1441  -19.9972  -23.6848 H   0  0  0  0  0  0  0  0  0  0  0  0
   14.5746  -21.8761  -25.8784 H   0  0  0  0  0  0  0  0  0  0  0  0
   17.7876  -23.5312  -22.5635 H   0  0  0  0  0  0  0  0  0  0  0  0
   14.0724  -18.0619  -23.0417 H   0  0  0  0  0  0  0  0  0  0  0  0
   15.0217  -19.9796  -19.6721 H   0  0  0  0  0  0  0  0  0  0  0  0
   16.8399  -17.4494  -20.5563 H   0  0  0  0  0  0  0  0  0  0  0  0
  1  2  1  0
  1 13  2  0
  1 14  1  0
  2  3  1  0
  2 15  1  6
  2 17  1  0
  3  4  1  0
  4  5  1  0
  4 16  1  0
  5  6  1  0
  5 12  1  0
  6  7  1  0
  6 17  1  0
  7  8  1  0
  7 18  1  0
  8  9  1  0
  8 19  1  0
  9 20  1  0
 10 11  1  0
 10 12  1  0
 10 21  2  0
  3 22  1  0
  3 23  1  0
  4 24  1  6
  5 25  1  1
  6 26  1  6
  7 27  1  1
  8 28  1  6
  9 29  1  0
  9 30  1  0
 11 31  1  0
 11 32  1  0
 11 33  1  0
 12 34  1  0
 15 35  1  0
 16 36  1  0
 18 37  1  0
 19 38  1  0
 20 39  1  0
M  CHG  1  14  -1
M  END
>  <filename_input>  (7) 
7T3E_SLB_docked.sdf

>  <pdb_id>  (7) 
7T3E_SLB

>  <pose_rank>  (7) 
6

>  <num_atoms_heavy>  (7) 
21

>  <num_torsions>  (7) 
5

>  <pose>  (7) 
[14.198861011128919, -23.298644356228493, -24.57939982256342, 2.3684428419326773, 3.2628972641427807, -4.843307430695478, 0.22621940534046012, -0.17984726191134653, 3.164347677053508, -7.036825385462291, -3.0727496385275987]

>  <energy>  (7) 
-777.714044613955

>  <inter_energy>  (7) 
-842.4782940446452

>  <intra_energy>  (7) 
64.16932266440612

>  <rmsd>  (7) 
1.59819

>  <sdf_rank>  (7) 
0

$$$$

     RDKit          3D

 39 39  0  0  0  0  0  0  0  0999 V2000
   12.7661  -19.7750  -24.3928 C   0  0  0  0  0  0  0  0  0  0  0  0
   14.0764  -20.0593  -23.6646 C   0  0  1  0  0  0  0  0  0  0  0  0
   15.2915  -19.6190  -24.4488 C   0  0  0  0  0  0  0  0  0  0  0  0
   16.5359  -20.1374  -23.8158 C   0  0  1  0  0  0  0  0  0  0  0  0
   16.4554  -21.6471  -23.7265 C   0  0  2  0  0  0  0  0  0  0  0  0
   15.2471  -22.0155  -22.8732 C   0  0  2  0  0  0  0  0  0  0  0  0
   15.0217  -23.4978  -22.7211 C   0  0  1  0  0  0  0  0  0  0  0  0
   13.9206  -23.8204  -21.7049 C   0  0  1  0  0  0  0  0  0  0  0  0
   14.1158  -25.1706  -21.0807 C   0  0  0  0  0  0  0  0  0  0  0  0
   18.2024  -21.7187  -21.9585 C   0  0  0  0  0  0  0  0  0  0  0  0
   19.4383  -22.4529  -21.4803 C   0  0  0  0  0  0  0  0  0  0  0  0
   17.6378  -22.2137  -23.1146 N   0  0  0  0  0  0  0  0  0  0  0  0
   12.6633  -20.1883  -25.5869 O   0  0  0  0  0  0  0  0  0  0  0  0
   11.8710  -19.1374  -23.7768 O   0  0  0  0  0  0  0  0  0  0  0  0
   14.0743  -19.4892  -22.3897 O   0  0  0  0  0  0  0  0  0  0  0  0
   17.6804  -19.7278  -24.6004 O   0  0  0  0  0  0  0  0  0  0  0  0
   14.0548  -21.4900  -23.4914 O   0  0  0  0  0  0  0  0  0  0  0  0
   14.6221  -24.0701  -23.9921 O   0  0  0  0  0  0  0  0  0  0  0  0
   13.8868  -22.7925  -20.7120 O   0  0  0  0  0  0  0  0  0  0  0  0
   13.8686  -25.2103  -19.6778 O   0  0  0  0  0  0  0  0  0  0  0  0
   17.7338  -20.7648  -21.3623 O   0  0  0  0  0  0  0  0  0  0  0  0
   15.2193  -20.0060  -25.4759 H   0  0  0  0  0  0  0  0  0  0  0  0
   15.3289  -18.5197  -24.4598 H   0  0  0  0  0  0  0  0  0  0  0  0
   16.6450  -19.7285  -22.8004 H   0  0  0  0  0  0  0  0  0  0  0  0
   16.3696  -22.0488  -24.7469 H   0  0  0  0  0  0  0  0  0  0  0  0
   15.4530  -21.5925  -21.8789 H   0  0  0  0  0  0  0  0  0  0  0  0
   15.9721  -23.9238  -22.3672 H   0  0  0  0  0  0  0  0  0  0  0  0
   12.9543  -23.8550  -22.2294 H   0  0  0  0  0  0  0  0  0  0  0  0
   13.4316  -25.8787  -21.5711 H   0  0  0  0  0  0  0  0  0  0  0  0
   15.1750  -25.4318  -21.2210 H   0  0  0  0  0  0  0  0  0  0  0  0
   19.4560  -22.4634  -20.3805 H   0  0  0  0  0  0  0  0  0  0  0  0
   19.4194  -23.4864  -21.8567 H   0  0  0  0  0  0  0  0  0  0  0  0
   20.3369  -21.9420  -21.8567 H   0  0  0  0  0  0  0  0  0  0  0  0
   18.0798  -23.0276  -23.5653 H   0  0  0  0  0  0  0  0  0  0  0  0
   14.0770  -20.2066  -21.7074 H   0  0  0  0  0  0  0  0  0  0  0  0
   18.4180  -19.4639  -23.9951 H   0  0  0  0  0  0  0  0  0  0  0  0
   14.0628  -24.8711  -23.8321 H   0  0  0  0  0  0  0  0  0  0  0  0
   13.9003  -23.2031  -19.8113 H   0  0  0  0  0  0  0  0  0  0  0  0
   14.7185  -25.0736  -19.1890 H   0  0  0  0  0  0  0  0  0  0  0  0
  1  2  1  0
  1 13  2  0
  1 14  1  0
  2  3  1  0
  2 15  1  1
  2 17  1  0
  3  4  1  0
  4  5  1  0
  4 16  1  0
  5  6  1  0
  5 12  1  0
  6  7  1  0
  6 17  1  0
  7  8  1  0
  7 18  1  0
  8  9  1  0
  8 19  1  0
  9 20  1  0
 10 11  1  0
 10 12  1  0
 10 21  2  0
  3 22  1  0
  3 23  1  0
  4 24  1  1
  5 25  1  6
  6 26  1  1
  7 27  1  1
  8 28  1  6
  9 29  1  0
  9 30  1  0
 11 31  1  0
 11 32  1  0
 11 33  1  0
 12 34  1  0
 15 35  1  0
 16 36  1  0
 18 37  1  0
 19 38  1  0
 20 39  1  0
M  CHG  1  14  -1
M  END
>  <filename_input>  (8) 
7T3E_SLB_docked.sdf

>  <pdb_id>  (8) 
7T3E_SLB

>  <pose_rank>  (8) 
7

>  <num_atoms_heavy>  (8) 
21

>  <num_torsions>  (8) 
5

>  <pose>  (8) 
[14.076437238301954, -20.059344836055445, -23.664607520595755, 2.380125964508067, 0.31121978542311074, 0.10715833106293748, 2.655188065919352, 2.8992740979748133, -0.19788324804927576, 0.3568777850861633, 1.411189056786632]

>  <energy>  (8) 
-452.62006147475483

>  <inter_energy>  (8) 
-484.2916137963045

>  <intra_energy>  (8) 
30.004230760767257

>  <rmsd>  (8) 
4.19303

>  <sdf_rank>  (8) 
0

$$$$

     RDKit          3D

 39 39  0  0  0  0  0  0  0  0999 V2000
   13.2538  -24.3826  -24.3853 C   0  0  0  0  0  0  0  0  0  0  0  0
   14.3758  -23.3555  -24.5044 C   0  0  1  0  0  0  0  0  0  0  0  0
   15.7201  -23.9027  -24.0818 C   0  0  0  0  0  0  0  0  0  0  0  0
   16.7210  -22.8046  -23.9807 C   0  0  1  0  0  0  0  0  0  0  0  0
   16.2181  -21.7633  -23.0027 C   0  0  2  0  0  0  0  0  0  0  0  0
   14.8951  -21.2130  -23.5229 C   0  0  2  0  0  0  0  0  0  0  0  0
   14.2563  -20.1810  -22.6295 C   0  0  1  0  0  0  0  0  0  0  0  0
   12.8444  -20.5828  -22.1890 C   0  0  1  0  0  0  0  0  0  0  0  0
   12.8639  -21.3998  -20.9308 C   0  0  0  0  0  0  0  0  0  0  0  0
   17.7282  -20.0220  -23.9356 C   0  0  0  0  0  0  0  0  0  0  0  0
   18.6748  -18.8949  -23.5766 C   0  0  0  0  0  0  0  0  0  0  0  0
   17.1479  -20.6635  -22.8624 N   0  0  0  0  0  0  0  0  0  0  0  0
   12.7944  -24.6096  -23.2257 O   0  0  0  0  0  0  0  0  0  0  0  0
   12.8589  -24.9547  -25.4360 O   0  0  0  0  0  0  0  0  0  0  0  0
   14.4373  -22.8293  -25.7965 O   0  0  0  0  0  0  0  0  0  0  0  0
   17.9893  -23.3492  -23.5468 O   0  0  0  0  0  0  0  0  0  0  0  0
   13.9449  -22.2925  -23.6317 O   0  0  0  0  0  0  0  0  0  0  0  0
   15.0525  -20.0041  -21.4306 O   0  0  0  0  0  0  0  0  0  0  0  0
   12.0532  -19.4032  -22.0265 O   0  0  0  0  0  0  0  0  0  0  0  0
   12.0062  -22.5375  -20.9559 O   0  0  0  0  0  0  0  0  0  0  0  0
   17.4884  -20.3356  -25.0885 O   0  0  0  0  0  0  0  0  0  0  0  0
   15.6198  -24.3927  -23.1021 H   0  0  0  0  0  0  0  0  0  0  0  0
   16.0620  -24.6279  -24.8349 H   0  0  0  0  0  0  0  0  0  0  0  0
   16.8636  -22.3283  -24.9619 H   0  0  0  0  0  0  0  0  0  0  0  0
   16.1002  -22.2422  -22.0195 H   0  0  0  0  0  0  0  0  0  0  0  0
   15.1359  -20.7371  -24.4850 H   0  0  0  0  0  0  0  0  0  0  0  0
   14.1980  -19.2525  -23.2164 H   0  0  0  0  0  0  0  0  0  0  0  0
   12.3983  -21.2187  -22.9679 H   0  0  0  0  0  0  0  0  0  0  0  0
   13.8935  -21.7484  -20.7625 H   0  0  0  0  0  0  0  0  0  0  0  0
   12.4962  -20.7464  -20.1258 H   0  0  0  0  0  0  0  0  0  0  0  0
   18.7458  -18.8104  -22.4821 H   0  0  0  0  0  0  0  0  0  0  0  0
   19.6707  -19.1057  -23.9934 H   0  0  0  0  0  0  0  0  0  0  0  0
   18.2952  -17.9504  -23.9934 H   0  0  0  0  0  0  0  0  0  0  0  0
   17.3881  -20.3441  -21.9131 H   0  0  0  0  0  0  0  0  0  0  0  0
   14.5521  -21.8472  -25.7478 H   0  0  0  0  0  0  0  0  0  0  0  0
   18.0213  -23.3629  -22.5574 H   0  0  0  0  0  0  0  0  0  0  0  0
   14.4803  -20.1313  -20.6328 H   0  0  0  0  0  0  0  0  0  0  0  0
   11.9297  -19.2191  -21.0617 H   0  0  0  0  0  0  0  0  0  0  0  0
   11.7977  -22.8141  -20.0285 H   0  0  0  0  0  0  0  0  0  0  0  0
  1  2  1  0
  1 13  2  0
  1 14  1  0
  2  3  1  0
  2 15  1  6
  2 17  1  0
  3  4  1  0
  4  5  1  0
  4 16  1  0
  5  6  1  0
  5 12  1  0
  6  7  1  0
  6 17  1  0
  7  8  1  0
  7 18  1  0
  8  9  1  0
  8 19  1  0
  9 20  1  0
 10 11  1  0
 10 12  1  0
 10 21  2  0
  3 22  1  0
  3 23  1  0
  4 24  1  6
  5 25  1  1
  6 26  1  6
  7 27  1  6
  8 28  1  6
  9 29  1  0
  9 30  1  0
 11 31  1  0
 11 32  1  0
 11 33  1  0
 12 34  1  0
 15 35  1  0
 16 36  1  0
 18 37  1  0
 19 38  1  0
 20 39  1  0
M  CHG  1  14  -1
M  END
>  <filename_input>  (9) 
7T3E_SLB_docked.sdf

>  <pdb_id>  (9) 
7T3E_SLB

>  <pose_rank>  (9) 
8

>  <num_atoms_heavy>  (9) 
21

>  <num_torsions>  (9) 
5

>  <pose>  (9) 
[14.37579107891291, -23.355516157350483, -24.504387563688102, 3.6176339440074767, 2.1148969396223207, 4.793834668195812, 2.6688366210700356, 3.349152386118073, 0.9478632850515984, -1.708639129548482, 2.9147418697778056]

>  <energy>  (9) 
-803.0322322697677

>  <inter_energy>  (9) 
-831.6727584706251

>  <intra_energy>  (9) 
60.72304319853583

>  <rmsd>  (9) 
2.04769

>  <sdf_rank>  (9) 
0

$$$$

     RDKit          3D

 39 39  0  0  0  0  0  0  0  0999 V2000
   13.1957  -23.6805  -22.1287 C   0  0  0  0  0  0  0  0  0  0  0  0
   13.9195  -22.8149  -23.1558 C   0  0  1  0  0  0  0  0  0  0  0  0
   14.9232  -23.5926  -23.9761 C   0  0  0  0  0  0  0  0  0  0  0  0
   15.7682  -22.6665  -24.7800 C   0  0  1  0  0  0  0  0  0  0  0  0
   16.4560  -21.6888  -23.8501 C   0  0  2  0  0  0  0  0  0  0  0  0
   15.3864  -20.8995  -23.1041 C   0  0  2  0  0  0  0  0  0  0  0  0
   15.9275  -19.9018  -22.1127 C   0  0  1  0  0  0  0  0  0  0  0  0
   17.2672  -20.3419  -21.5124 C   0  0  1  0  0  0  0  0  0  0  0  0
   18.2215  -19.1925  -21.3751 C   0  0  0  0  0  0  0  0  0  0  0  0
   16.9364  -20.2028  -25.7850 C   0  0  0  0  0  0  0  0  0  0  0  0
   17.9514  -19.2483  -26.3799 C   0  0  0  0  0  0  0  0  0  0  0  0
   17.2925  -20.7557  -24.5735 N   0  0  0  0  0  0  0  0  0  0  0  0
   13.2092  -24.9348  -22.3129 O   0  0  0  0  0  0  0  0  0  0  0  0
   12.6168  -23.1044  -21.1694 O   0  0  0  0  0  0  0  0  0  0  0  0
   13.0091  -22.1523  -23.9821 O   0  0  0  0  0  0  0  0  0  0  0  0
   16.7385  -23.4321  -25.5320 O   0  0  0  0  0  0  0  0  0  0  0  0
   14.5673  -21.8135  -22.3466 O   0  0  0  0  0  0  0  0  0  0  0  0
   16.1411  -18.6239  -22.7637 O   0  0  0  0  0  0  0  0  0  0  0  0
   17.0290  -20.9689  -20.2499 O   0  0  0  0  0  0  0  0  0  0  0  0
   18.4955  -18.8142  -20.0288 O   0  0  0  0  0  0  0  0  0  0  0  0
   15.8774  -20.4589  -26.3310 O   0  0  0  0  0  0  0  0  0  0  0  0
   15.5668  -24.1769  -23.3019 H   0  0  0  0  0  0  0  0  0  0  0  0
   14.3815  -24.2637  -24.6588 H   0  0  0  0  0  0  0  0  0  0  0  0
   15.1450  -22.1015  -25.4888 H   0  0  0  0  0  0  0  0  0  0  0  0
   17.0944  -22.2601  -23.1601 H   0  0  0  0  0  0  0  0  0  0  0  0
   14.8341  -20.3510  -23.8814 H   0  0  0  0  0  0  0  0  0  0  0  0
   15.1818  -19.8254  -21.3076 H   0  0  0  0  0  0  0  0  0  0  0  0
   17.7413  -21.0622  -22.1954 H   0  0  0  0  0  0  0  0  0  0  0  0
   19.1711  -19.4743  -21.8536 H   0  0  0  0  0  0  0  0  0  0  0  0
   17.7415  -18.3262  -21.8538 H   0  0  0  0  0  0  0  0  0  0  0  0
   18.4937  -18.7383  -25.5701 H   0  0  0  0  0  0  0  0  0  0  0  0
   18.6640  -19.8111  -27.0008 H   0  0  0  0  0  0  0  0  0  0  0  0
   17.4335  -18.5025  -27.0008 H   0  0  0  0  0  0  0  0  0  0  0  0
   18.1993  -20.4914  -24.1627 H   0  0  0  0  0  0  0  0  0  0  0  0
   12.3476  -21.6708  -23.4248 H   0  0  0  0  0  0  0  0  0  0  0  0
   17.3406  -23.9073  -24.9062 H   0  0  0  0  0  0  0  0  0  0  0  0
   16.2588  -17.9197  -22.0779 H   0  0  0  0  0  0  0  0  0  0  0  0
   17.2668  -20.3431  -19.5206 H   0  0  0  0  0  0  0  0  0  0  0  0
   18.0417  -19.4408  -19.4111 H   0  0  0  0  0  0  0  0  0  0  0  0
  1  2  1  0
  1 13  2  0
  1 14  1  0
  2  3  1  0
  2 15  1  6
  2 17  1  0
  3  4  1  0
  4  5  1  0
  4 16  1  0
  5  6  1  0
  5 12  1  0
  6  7  1  0
  6 17  1  0
  7  8  1  0
  7 18  1  0
  8  9  1  0
  8 19  1  0
  9 20  1  0
 10 11  1  0
 10 12  1  0
 10 21  2  0
  3 22  1  0
  3 23  1  0
  4 24  1  6
  5 25  1  1
  6 26  1  6
  7 27  1  1
  8 28  1  6
  9 29  1  0
  9 30  1  0
 11 31  1  0
 11 32  1  0
 11 33  1  0
 12 34  1  0
 15 35  1  0
 16 36  1  0
 18 37  1  0
 19 38  1  0
 20 39  1  0
M  CHG  1  14  -1
M  END
>  <filename_input>  (10) 
7T3E_SLB_docked.sdf

>  <pdb_id>  (10) 
7T3E_SLB

>  <pose_rank>  (10) 
9

>  <num_atoms_heavy>  (10) 
21

>  <num_torsions>  (10) 
5

>  <pose>  (10) 
[13.919457204400477, -22.81494220777292, -23.155824744640842, 0.11992052052780473, 0.9706145109232995, -0.1519388269299625, 21.376173828105202, 1.6582033495541253, 21.404531268437157, 5.467961424364347, 0.9444178167803342]

>  <energy>  (10) 
-562.9793841373922

>  <inter_energy>  (10) 
-590.6589136851131

>  <intra_energy>  (10) 
50.52130917980348

>  <rmsd>  (10) 
3.46822

>  <sdf_rank>  (10) 
0

$$$$

     RDKit          3D

 39 39  0  0  0  0  0  0  0  0999 V2000
   18.1132  -19.7567  -23.0962 C   0  0  0  0  0  0  0  0  0  0  0  0
   17.3417  -20.9869  -22.6281 C   0  0  1  0  0  0  0  0  0  0  0  0
   17.8209  -22.2638  -23.2801 C   0  0  0  0  0  0  0  0  0  0  0  0
   16.8853  -23.3836  -22.9824 C   0  0  1  0  0  0  0  0  0  0  0  0
   15.4968  -23.0099  -23.4580 C   0  0  2  0  0  0  0  0  0  0  0  0
   15.0552  -21.7537  -22.7157 C   0  0  2  0  0  0  0  0  0  0  0  0
   13.6938  -21.2432  -23.1121 C   0  0  1  0  0  0  0  0  0  0  0  0
   13.0402  -20.4039  -22.0087 C   0  0  1  0  0  0  0  0  0  0  0  0
   12.4791  -21.2621  -20.9135 C   0  0  0  0  0  0  0  0  0  0  0  0
   13.8304  -24.7062  -24.1846 C   0  0  0  0  0  0  0  0  0  0  0  0
   12.8728  -25.7754  -23.6996 C   0  0  0  0  0  0  0  0  0  0  0  0
   14.5367  -24.0594  -23.1931 N   0  0  0  0  0  0  0  0  0  0  0  0
   19.1243  -19.4105  -22.4142 O   0  0  0  0  0  0  0  0  0  0  0  0
   17.6976  -19.1489  -24.1186 O   0  0  0  0  0  0  0  0  0  0  0  0
   17.3730  -21.0974  -21.2363 O   0  0  0  0  0  0  0  0  0  0  0  0
   17.3495  -24.5853  -23.6410 O   0  0  0  0  0  0  0  0  0  0  0  0
   15.9823  -20.6863  -23.0010 O   0  0  0  0  0  0  0  0  0  0  0  0
   13.8040  -20.4041  -24.2895 O   0  0  0  0  0  0  0  0  0  0  0  0
   14.0007  -19.4767  -21.4973 O   0  0  0  0  0  0  0  0  0  0  0  0
   13.2338  -22.4409  -20.6460 O   0  0  0  0  0  0  0  0  0  0  0  0
   13.9745  -24.4407  -25.3652 O   0  0  0  0  0  0  0  0  0  0  0  0
   17.8746  -22.1164  -24.3688 H   0  0  0  0  0  0  0  0  0  0  0  0
   18.8152  -22.5152  -22.8823 H   0  0  0  0  0  0  0  0  0  0  0  0
   16.8493  -23.5715  -21.8992 H   0  0  0  0  0  0  0  0  0  0  0  0
   15.5371  -22.8462  -24.5450 H   0  0  0  0  0  0  0  0  0  0  0  0
   15.0226  -22.0392  -21.6539 H   0  0  0  0  0  0  0  0  0  0  0  0
   13.0714  -22.1295  -23.3045 H   0  0  0  0  0  0  0  0  0  0  0  0
   12.1917  -19.8522  -22.4395 H   0  0  0  0  0  0  0  0  0  0  0  0
   12.4393  -20.6623  -19.9922 H   0  0  0  0  0  0  0  0  0  0  0  0
   11.4863  -21.5941  -21.2514 H   0  0  0  0  0  0  0  0  0  0  0  0
   12.8625  -25.7868  -22.5997 H   0  0  0  0  0  0  0  0  0  0  0  0
   11.8612  -25.5585  -24.0735 H   0  0  0  0  0  0  0  0  0  0  0  0
   13.1993  -26.7570  -24.0735 H   0  0  0  0  0  0  0  0  0  0  0  0
   14.3727  -24.3371  -22.2149 H   0  0  0  0  0  0  0  0  0  0  0  0
   17.1268  -20.2286  -20.8306 H   0  0  0  0  0  0  0  0  0  0  0  0
   17.6084  -25.2557  -22.9601 H   0  0  0  0  0  0  0  0  0  0  0  0
   13.9278  -19.4617  -24.0127 H   0  0  0  0  0  0  0  0  0  0  0  0
   13.9822  -19.4945  -20.5077 H   0  0  0  0  0  0  0  0  0  0  0  0
   13.3140  -22.5663  -19.6672 H   0  0  0  0  0  0  0  0  0  0  0  0
  1  2  1  0
  1 13  2  0
  1 14  1  0
  2  3  1  0
  2 15  1  1
  2 17  1  0
  3  4  1  0
  4  5  1  0
  4 16  1  0
  5  6  1  0
  5 12  1  0
  6  7  1  0
  6 17  1  0
  7  8  1  0
  7 18  1  0
  8  9  1  0
  8 19  1  0
  9 20  1  0
 10 11  1  0
 10 12  1  0
 10 21  2  0
  3 22  1  0
  3 23  1  0
  4 24  1  1
  5 25  1  6
  6 26  1  1
  7 27  1  6
  8 28  1  6
  9 29  1  0
  9 30  1  0
 11 31  1  0
 11 32  1  0
 11 33  1  0
 12 34  1  0
 15 35  1  0
 16 36  1  0
 18 37  1  0
 19 38  1  0
 20 39  1  0
M  CHG  1  14  -1
M  END
>  <filename_input>  (11) 
7T3E_SLB_docked.sdf

>  <pdb_id>  (11) 
7T3E_SLB

>  <pose_rank>  (11) 
10

>  <num_atoms_heavy>  (11) 
21

>  <num_torsions>  (11) 
5

>  <pose>  (11) 
[17.341667718191747, -20.98692386688748, -22.628106307905117, -2.4593268215763655, 2.32283008940727, 0.39940704999636145, -0.23236201990589894, 0.3856428692836256, -0.48277330926827733, 1.682722779472816, -0.3974596127875469]

>  <energy>  (11) 
-461.6983449132826

>  <inter_energy>  (11) 
-472.0036332511385

>  <intra_energy>  (11) 
31.606133436666386

>  <rmsd>  (11) 
4.8372

>  <sdf_rank>  (11) 
0

$$$$

     RDKit          3D

 39 39  0  0  0  0  0  0  0  0999 V2000
   12.4764  -19.2288  -23.8830 C   0  0  0  0  0  0  0  0  0  0  0  0
   13.5322  -20.3062  -23.6540 C   0  0  1  0  0  0  0  0  0  0  0  0
   13.5652  -20.8019  -22.2263 C   0  0  0  0  0  0  0  0  0  0  0  0
   14.7617  -21.6594  -22.0001 C   0  0  1  0  0  0  0  0  0  0  0  0
   16.0091  -20.8697  -22.3379 C   0  0  2  0  0  0  0  0  0  0  0  0
   15.9360  -20.4573  -23.8036 C   0  0  2  0  0  0  0  0  0  0  0  0
   17.1050  -19.6321  -24.2767 C   0  0  1  0  0  0  0  0  0  0  0  0
   17.3623  -19.7905  -25.7793 C   0  0  1  0  0  0  0  0  0  0  0  0
   17.4256  -18.4641  -26.4773 C   0  0  0  0  0  0  0  0  0  0  0  0
   18.4032  -21.1109  -21.7112 C   0  0  0  0  0  0  0  0  0  0  0  0
   19.5436  -22.0983  -21.5696 C   0  0  0  0  0  0  0  0  0  0  0  0
   17.2106  -21.6517  -22.1418 N   0  0  0  0  0  0  0  0  0  0  0  0
   12.0270  -18.6288  -22.8605 O   0  0  0  0  0  0  0  0  0  0  0  0
   12.1019  -19.0066  -25.0652 O   0  0  0  0  0  0  0  0  0  0  0  0
   13.3647  -21.3683  -24.5451 O   0  0  0  0  0  0  0  0  0  0  0  0
   14.7860  -22.0960  -20.6210 O   0  0  0  0  0  0  0  0  0  0  0  0
   14.7626  -19.6438  -24.0072 O   0  0  0  0  0  0  0  0  0  0  0  0
   16.8525  -18.2268  -24.0242 O   0  0  0  0  0  0  0  0  0  0  0  0
   18.5694  -20.5324  -25.9700 O   0  0  0  0  0  0  0  0  0  0  0  0
   18.0438  -18.5046  -27.7606 O   0  0  0  0  0  0  0  0  0  0  0  0
   18.5256  -19.9257  -21.4557 O   0  0  0  0  0  0  0  0  0  0  0  0
   13.6035  -19.9396  -21.5444 H   0  0  0  0  0  0  0  0  0  0  0  0
   12.6597  -21.3964  -22.0348 H   0  0  0  0  0  0  0  0  0  0  0  0
   14.7203  -22.5484  -22.6466 H   0  0  0  0  0  0  0  0  0  0  0  0
   16.0547  -19.9955  -21.6719 H   0  0  0  0  0  0  0  0  0  0  0  0
   15.9249  -21.3996  -24.3710 H   0  0  0  0  0  0  0  0  0  0  0  0
   17.9851  -19.9903  -23.7226 H   0  0  0  0  0  0  0  0  0  0  0  0
   16.5205  -20.3394  -26.2265 H   0  0  0  0  0  0  0  0  0  0  0  0
   16.3982  -18.0911  -26.6017 H   0  0  0  0  0  0  0  0  0  0  0  0
   18.0462  -17.8076  -25.8498 H   0  0  0  0  0  0  0  0  0  0  0  0
   19.7463  -22.2738  -20.5028 H   0  0  0  0  0  0  0  0  0  0  0  0
   19.2683  -23.0479  -22.0516 H   0  0  0  0  0  0  0  0  0  0  0  0
   20.4441  -21.6899  -22.0516 H   0  0  0  0  0  0  0  0  0  0  0  0
   17.1728  -22.6630  -22.3334 H   0  0  0  0  0  0  0  0  0  0  0  0
   13.2323  -22.2076  -24.0371 H   0  0  0  0  0  0  0  0  0  0  0  0
   14.7421  -21.3073  -20.0243 H   0  0  0  0  0  0  0  0  0  0  0  0
   16.8238  -18.0669  -23.0476 H   0  0  0  0  0  0  0  0  0  0  0  0
   18.9541  -20.7688  -25.0889 H   0  0  0  0  0  0  0  0  0  0  0  0
   19.0257  -18.5689  -27.6520 H   0  0  0  0  0  0  0  0  0  0  0  0
  1  2  1  0
  1 13  2  0
  1 14  1  0
  2  3  1  0
  2 15  1  6
  2 17  1  0
  3  4  1  0
  4  5  1  0
  4 16  1  0
  5  6  1  0
  5 12  1  0
  6  7  1  0
  6 17  1  0
  7  8  1  0
  7 18  1  0
  8  9  1  0
  8 19  1  0
  9 20  1  0
 10 11  1  0
 10 12  1  0
 10 21  2  0
  3 22  1  0
  3 23  1  0
  4 24  1  6
  5 25  1  1
  6 26  1  6
  7 27  1  1
  8 28  1  6
  9 29  1  0
  9 30  1  0
 11 31  1  0
 11 32  1  0
 11 33  1  0
 12 34  1  0
 15 35  1  0
 16 36  1  0
 18 37  1  0
 19 38  1  0
 20 39  1  0
M  CHG  1  14  -1
M  END
>  <filename_input>  (12) 
7T3E_SLB_docked.sdf

>  <pdb_id>  (12) 
7T3E_SLB

>  <pose_rank>  (12) 
11

>  <num_atoms_heavy>  (12) 
21

>  <num_torsions>  (12) 
5

>  <pose>  (12) 
[13.532247585746338, -20.30617581862192, -23.65396839778469, 2.732300174577416, 0.4686011036033726, 3.609317978446019, 11.861907951375757, -3.9656979658847606, 5.74930346036342, 11.537092967907038, 1.8314245293179443]

>  <energy>  (12) 
-394.59742368150455

>  <inter_energy>  (12) 
-412.41395463389273

>  <intra_energy>  (12) 
15.251075921295651

>  <rmsd>  (12) 
4.09673

>  <sdf_rank>  (12) 
0

$$$$

     RDKit          3D

 39 39  0  0  0  0  0  0  0  0999 V2000
   14.0885  -24.1033  -24.4067 C   0  0  0  0  0  0  0  0  0  0  0  0
   14.2143  -22.9158  -23.4569 C   0  0  1  0  0  0  0  0  0  0  0  0
   13.5373  -21.6701  -23.9813 C   0  0  0  0  0  0  0  0  0  0  0  0
   13.8975  -20.4908  -23.1463 C   0  0  1  0  0  0  0  0  0  0  0  0
   15.4038  -20.3344  -23.1319 C   0  0  2  0  0  0  0  0  0  0  0  0
   16.0136  -21.5979  -22.5356 C   0  0  2  0  0  0  0  0  0  0  0  0
   17.5199  -21.5980  -22.4858 C   0  0  1  0  0  0  0  0  0  0  0  0
   18.0586  -21.9345  -21.0909 C   0  0  1  0  0  0  0  0  0  0  0  0
   19.4958  -21.5330  -20.9362 C   0  0  0  0  0  0  0  0  0  0  0  0
   14.9615  -18.4981  -21.5148 C   0  0  0  0  0  0  0  0  0  0  0  0
   15.5929  -17.3466  -20.7593 C   0  0  0  0  0  0  0  0  0  0  0  0
   15.8198  -19.2034  -22.3310 N   0  0  0  0  0  0  0  0  0  0  0  0
   15.1500  -24.5186  -24.9617 O   0  0  0  0  0  0  0  0  0  0  0  0
   12.9432  -24.5925  -24.5968 O   0  0  0  0  0  0  0  0  0  0  0  0
   13.7402  -23.2408  -22.1841 O   0  0  0  0  0  0  0  0  0  0  0  0
   13.2618  -19.3082  -23.6855 O   0  0  0  0  0  0  0  0  0  0  0  0
   15.6393  -22.7306  -23.3461 O   0  0  0  0  0  0  0  0  0  0  0  0
   18.0449  -22.5882  -23.4057 O   0  0  0  0  0  0  0  0  0  0  0  0
   17.2366  -21.3003  -20.1081 O   0  0  0  0  0  0  0  0  0  0  0  0
   19.9015  -21.3100  -19.5884 O   0  0  0  0  0  0  0  0  0  0  0  0
   13.7830  -18.7877  -21.4048 O   0  0  0  0  0  0  0  0  0  0  0  0
   13.8595  -21.4920  -25.0178 H   0  0  0  0  0  0  0  0  0  0  0  0
   12.4474  -21.8142  -23.9428 H   0  0  0  0  0  0  0  0  0  0  0  0
   13.5471  -20.6346  -22.1135 H   0  0  0  0  0  0  0  0  0  0  0  0
   15.7431  -20.1682  -24.1649 H   0  0  0  0  0  0  0  0  0  0  0  0
   15.6328  -21.6465  -21.5048 H   0  0  0  0  0  0  0  0  0  0  0  0
   17.8417  -20.5821  -22.7588 H   0  0  0  0  0  0  0  0  0  0  0  0
   18.0216  -23.0249  -20.9510 H   0  0  0  0  0  0  0  0  0  0  0  0
   20.1237  -22.3321  -21.3570 H   0  0  0  0  0  0  0  0  0  0  0  0
   19.6130  -20.5743  -21.4627 H   0  0  0  0  0  0  0  0  0  0  0  0
   15.4970  -17.5214  -19.6775 H   0  0  0  0  0  0  0  0  0  0  0  0
   16.6575  -17.2729  -21.0259 H   0  0  0  0  0  0  0  0  0  0  0  0
   15.0824  -16.4093  -21.0259 H   0  0  0  0  0  0  0  0  0  0  0  0
   16.8064  -18.9107  -22.3729 H   0  0  0  0  0  0  0  0  0  0  0  0
   14.3298  -22.8367  -21.4992 H   0  0  0  0  0  0  0  0  0  0  0  0
   12.9521  -18.7321  -22.9424 H   0  0  0  0  0  0  0  0  0  0  0  0
   18.4417  -23.3367  -22.8935 H   0  0  0  0  0  0  0  0  0  0  0  0
   17.5549  -21.5459  -19.2034 H   0  0  0  0  0  0  0  0  0  0  0  0
   19.2218  -21.6836  -18.9731 H   0  0  0  0  0  0  0  0  0  0  0  0
  1  2  1  0
  1 13  2  0
  1 14  1  0
  2  3  1  0
  2 15  1  1
  2 17  1  0
  3  4  1  0
  4  5  1  0
  4 16  1  0
  5  6  1  0
  5 12  1  0
  6  7  1  0
  6 17  1  0
  7  8  1  0
  7 18  1  0
  8  9  1  0
  8 19  1  0
  9 20  1  0
 10 11  1  0
 10 12  1  0
 10 21  2  0
  3 22  1  0
  3 23  1  0
  4 24  1  1
  5 25  1  6
  6 26  1  1
  7 27  1  6
  8 28  1  1
  9 29  1  0
  9 30  1  0
 11 31  1  0
 11 32  1  0
 11 33  1  0
 12 34  1  0
 15 35  1  0
 16 36  1  0
 18 37  1  0
 19 38  1  0
 20 39  1  0
M  CHG  1  14  -1
M  END
>  <filename_input>  (13) 
7T3E_SLB_docked.sdf

>  <pdb_id>  (13) 
7T3E_SLB

>  <pose_rank>  (13) 
12

>  <num_atoms_heavy>  (13) 
21

>  <num_torsions>  (13) 
5

>  <pose>  (13) 
[14.21428729278619, -22.915834312473905, -23.456896003827474, -1.8235197499507956, -2.600174620955958, -1.2126748802068532, 8.29734147431676, -2.3222682912927692, 5.319794247426964, 12.758342054828455, 1.7243599626477941]

>  <energy>  (13) 
-574.3856021989776

>  <inter_energy>  (13) 
-650.1873930286188

>  <intra_energy>  (13) 
87.02190358348204

>  <rmsd>  (13) 
4.30886

>  <sdf_rank>  (13) 
0

$$$$

     RDKit          3D

 39 39  0  0  0  0  0  0  0  0999 V2000
   22.5136  -30.5008  -16.1647 C   0  0  0  0  0  0  0  0  0  0  0  0
   21.3753  -29.4897  -16.0644 C   0  0  1  0  0  0  0  0  0  0  0  0
   21.0493  -29.1122  -14.6375 C   0  0  0  0  0  0  0  0  0  0  0  0
   19.7858  -28.3257  -14.5824 C   0  0  1  0  0  0  0  0  0  0  0  0
   18.6691  -29.1364  -15.2065 C   0  0  2  0  0  0  0  0  0  0  0  0
   19.0369  -29.4264  -16.6571 C   0  0  2  0  0  0  0  0  0  0  0  0
   18.0243  -30.2584  -17.4013 C   0  0  1  0  0  0  0  0  0  0  0  0
   17.7764  -29.7435  -18.8234 C   0  0  1  0  0  0  0  0  0  0  0  0
   16.9881  -30.7230  -19.6418 C   0  0  0  0  0  0  0  0  0  0  0  0
   16.4029  -28.6910  -14.2854 C   0  0  0  0  0  0  0  0  0  0  0  0
   15.1631  -27.8324  -14.4318 C   0  0  0  0  0  0  0  0  0  0  0  0
   17.4105  -28.4229  -15.1871 N   0  0  0  0  0  0  0  0  0  0  0  0
   22.3397  -31.6284  -15.6118 O   0  0  0  0  0  0  0  0  0  0  0  0
   23.5611  -30.1567  -16.7742 O   0  0  0  0  0  0  0  0  0  0  0  0
   21.6466  -28.3534  -16.8296 O   0  0  0  0  0  0  0  0  0  0  0  0
   19.4807  -28.0027  -13.2056 O   0  0  0  0  0  0  0  0  0  0  0  0
   20.2711  -30.1717  -16.6914 O   0  0  0  0  0  0  0  0  0  0  0  0
   18.4921  -31.6266  -17.5092 O   0  0  0  0  0  0  0  0  0  0  0  0
   17.1138  -28.4787  -18.7525 O   0  0  0  0  0  0  0  0  0  0  0  0
   17.3462  -30.7587  -21.0207 O   0  0  0  0  0  0  0  0  0  0  0  0
   16.5082  -29.5510  -13.4286 O   0  0  0  0  0  0  0  0  0  0  0  0
   20.9326  -30.0273  -14.0384 H   0  0  0  0  0  0  0  0  0  0  0  0
   21.8687  -28.4981  -14.2356 H   0  0  0  0  0  0  0  0  0  0  0  0
   19.8974  -27.3866  -15.1443 H   0  0  0  0  0  0  0  0  0  0  0  0
   18.5489  -30.0625  -14.6251 H   0  0  0  0  0  0  0  0  0  0  0  0
   19.1011  -28.4418  -17.1436 H   0  0  0  0  0  0  0  0  0  0  0  0
   17.0871  -30.1958  -16.8289 H   0  0  0  0  0  0  0  0  0  0  0  0
   18.7454  -29.6214  -19.3295 H   0  0  0  0  0  0  0  0  0  0  0  0
   17.1424  -31.7271  -19.2199 H   0  0  0  0  0  0  0  0  0  0  0  0
   15.9385  -30.3969  -19.5978 H   0  0  0  0  0  0  0  0  0  0  0  0
   14.7807  -27.5676  -13.4350 H   0  0  0  0  0  0  0  0  0  0  0  0
   15.4157  -26.9148  -14.9834 H   0  0  0  0  0  0  0  0  0  0  0  0
   14.3930  -28.3915  -14.9834 H   0  0  0  0  0  0  0  0  0  0  0  0
   17.2599  -27.6775  -15.8818 H   0  0  0  0  0  0  0  0  0  0  0  0
   21.8294  -27.5875  -16.2297 H   0  0  0  0  0  0  0  0  0  0  0  0
   20.0210  -28.5747  -12.6048 H   0  0  0  0  0  0  0  0  0  0  0  0
   18.6210  -32.0037  -16.6029 H   0  0  0  0  0  0  0  0  0  0  0  0
   16.9823  -28.2278  -17.8039 H   0  0  0  0  0  0  0  0  0  0  0  0
   18.3278  -30.8566  -21.1042 H   0  0  0  0  0  0  0  0  0  0  0  0
  1  2  1  0
  1 13  2  0
  1 14  1  0
  2  3  1  0
  2 15  1  6
  2 17  1  0
  3  4  1  0
  4  5  1  0
  4 16  1  0
  5  6  1  0
  5 12  1  0
  6  7  1  0
  6 17  1  0
  7  8  1  0
  7 18  1  0
  8  9  1  0
  8 19  1  0
  9 20  1  0
 10 11  1  0
 10 12  1  0
 10 21  2  0
  3 22  1  0
  3 23  1  0
  4 24  1  6
  5 25  1  1
  6 26  1  6
  7 27  1  1
  8 28  1  6
  9 29  1  0
  9 30  1  0
 11 31  1  0
 11 32  1  0
 11 33  1  0
 12 34  1  0
 15 35  1  0
 16 36  1  0
 18 37  1  0
 19 38  1  0
 20 39  1  0
M  CHG  1  14  -1
M  END
>  <filename_input>  (14) 
7T3E_SLB_docked.sdf

>  <pdb_id>  (14) 
7T3E_SLB

>  <pose_rank>  (14) 
13

>  <num_atoms_heavy>  (14) 
21

>  <num_torsions>  (14) 
5

>  <pose>  (14) 
[21.375279831733597, -29.48973950770658, -16.064436852148937, -0.25831442590373976, 2.7165105153951026, -3.296711321071272, 0.05289540582101116, 3.0598346369177603, -0.7984559992280146, -0.31092805148805736, -3.536023459936925]

>  <energy>  (14) 
-184.2923737230896

>  <inter_energy>  (14) 
-186.19759510024846

>  <intra_energy>  (14) 
2.1798955089172205

>  <rmsd>  (14) 
12.1559

>  <sdf_rank>  (14) 
0

$$$$

     RDKit          3D

 39 39  0  0  0  0  0  0  0  0999 V2000
   18.2571  -30.3658  -20.2090 C   0  0  0  0  0  0  0  0  0  0  0  0
   17.6338  -30.2207  -18.8239 C   0  0  1  0  0  0  0  0  0  0  0  0
   16.3148  -29.4826  -18.8480 C   0  0  0  0  0  0  0  0  0  0  0  0
   15.8767  -29.1535  -17.4632 C   0  0  1  0  0  0  0  0  0  0  0  0
   16.9540  -28.3343  -16.7834 C   0  0  2  0  0  0  0  0  0  0  0  0
   18.2333  -29.1620  -16.7399 C   0  0  2  0  0  0  0  0  0  0  0  0
   19.4091  -28.4574  -16.1136 C   0  0  1  0  0  0  0  0  0  0  0  0
   20.1649  -29.3493  -15.1224 C   0  0  1  0  0  0  0  0  0  0  0  0
   19.8501  -28.9932  -13.6994 C   0  0  0  0  0  0  0  0  0  0  0  0
   16.1347  -28.9027  -14.5056 C   0  0  0  0  0  0  0  0  0  0  0  0
   15.8047  -28.3346  -13.1405 C   0  0  0  0  0  0  0  0  0  0  0  0
   16.5889  -27.9842  -15.4278 N   0  0  0  0  0  0  0  0  0  0  0  0
   19.3233  -31.0460  -20.2981 O   0  0  0  0  0  0  0  0  0  0  0  0
   17.6902  -29.7938  -21.1778 O   0  0  0  0  0  0  0  0  0  0  0  0
   17.4960  -31.4648  -18.2045 O   0  0  0  0  0  0  0  0  0  0  0  0
   14.6292  -28.4227  -17.5149 O   0  0  0  0  0  0  0  0  0  0  0  0
   18.6318  -29.4865  -18.0875 O   0  0  0  0  0  0  0  0  0  0  0  0
   20.3493  -28.0553  -17.1416 O   0  0  0  0  0  0  0  0  0  0  0  0
   19.8516  -30.7175  -15.3937 O   0  0  0  0  0  0  0  0  0  0  0  0
   19.8441  -27.5936  -13.4317 O   0  0  0  0  0  0  0  0  0  0  0  0
   16.0166  -30.0864  -14.7701 O   0  0  0  0  0  0  0  0  0  0  0  0
   16.4313  -28.5515  -19.4219 H   0  0  0  0  0  0  0  0  0  0  0  0
   15.5559  -30.1251  -19.3183 H   0  0  0  0  0  0  0  0  0  0  0  0
   15.7167  -30.0758  -16.8855 H   0  0  0  0  0  0  0  0  0  0  0  0
   17.0914  -27.4040  -17.3542 H   0  0  0  0  0  0  0  0  0  0  0  0
   17.9899  -30.0421  -16.1266 H   0  0  0  0  0  0  0  0  0  0  0  0
   19.0024  -27.5883  -15.5757 H   0  0  0  0  0  0  0  0  0  0  0  0
   21.2450  -29.1878  -15.2536 H   0  0  0  0  0  0  0  0  0  0  0  0
   18.8553  -29.3946  -13.4560 H   0  0  0  0  0  0  0  0  0  0  0  0
   20.6499  -29.4282  -13.0821 H   0  0  0  0  0  0  0  0  0  0  0  0
   16.1942  -29.0051  -12.3603 H   0  0  0  0  0  0  0  0  0  0  0  0
   16.2667  -27.3419  -13.0349 H   0  0  0  0  0  0  0  0  0  0  0  0
   14.7135  -28.2442  -13.0349 H   0  0  0  0  0  0  0  0  0  0  0  0
   16.6725  -26.9996  -15.1373 H   0  0  0  0  0  0  0  0  0  0  0  0
   17.5090  -31.3473  -17.2216 H   0  0  0  0  0  0  0  0  0  0  0  0
   14.3158  -28.2392  -16.5940 H   0  0  0  0  0  0  0  0  0  0  0  0
   21.1717  -27.7035  -16.7173 H   0  0  0  0  0  0  0  0  0  0  0  0
   19.7398  -31.2060  -14.5399 H   0  0  0  0  0  0  0  0  0  0  0  0
   19.8435  -27.4448  -12.4530 H   0  0  0  0  0  0  0  0  0  0  0  0
  1  2  1  0
  1 13  2  0
  1 14  1  0
  2  3  1  0
  2 15  1  1
  2 17  1  0
  3  4  1  0
  4  5  1  0
  4 16  1  0
  5  6  1  0
  5 12  1  0
  6  7  1  0
  6 17  1  0
  7  8  1  0
  7 18  1  0
  8  9  1  0
  8 19  1  0
  9 20  1  0
 10 11  1  0
 10 12  1  0
 10 21  2  0
  3 22  1  0
  3 23  1  0
  4 24  1  1
  5 25  1  6
  6 26  1  1
  7 27  1  1
  8 28  1  1
  9 29  1  0
  9 30  1  0
 11 31  1  0
 11 32  1  0
 11 33  1  0
 12 34  1  0
 15 35  1  0
 16 36  1  0
 18 37  1  0
 19 38  1  0
 20 39  1  0
M  CHG  1  14  -1
M  END
>  <filename_input>  (15) 
7T3E_SLB_docked.sdf

>  <pdb_id>  (15) 
7T3E_SLB

>  <pose_rank>  (15) 
14

>  <num_atoms_heavy>  (15) 
21

>  <num_torsions>  (15) 
5

>  <pose>  (15) 
[17.633819314948397, -30.220693726500585, -18.823910353497194, 0.7920443931971772, 2.370712722343688, 2.1974826295937153, -3.5662150908643637, -1.0696633857758837, -0.8529580218435349, 1.2250229763010803, -1.7728999953964302]

>  <energy>  (15) 
-186.65138180751913

>  <inter_energy>  (15) 
-198.97467222462066

>  <intra_energy>  (15) 
26.87660336378367

>  <rmsd>  (15) 
11.1798

>  <sdf_rank>  (15) 
0

$$$$

     RDKit          3D

 39 39  0  0  0  0  0  0  0  0999 V2000
   16.8734  -28.5354  -17.1485 C   0  0  0  0  0  0  0  0  0  0  0  0
   17.9607  -29.0174  -16.1929 C   0  0  1  0  0  0  0  0  0  0  0  0
   18.1108  -28.1298  -14.9784 C   0  0  0  0  0  0  0  0  0  0  0  0
   19.3347  -28.4966  -14.2132 C   0  0  1  0  0  0  0  0  0  0  0  0
   20.5398  -28.3916  -15.1245 C   0  0  2  0  0  0  0  0  0  0  0  0
   20.3482  -29.3556  -16.2898 C   0  0  2  0  0  0  0  0  0  0  0  0
   21.4641  -29.3370  -17.3025 C   0  0  1  0  0  0  0  0  0  0  0  0
   21.4773  -30.5930  -18.1807 C   0  0  1  0  0  0  0  0  0  0  0  0
   21.0789  -30.2891  -19.5948 C   0  0  0  0  0  0  0  0  0  0  0  0
   22.7649  -27.8311  -14.1669 C   0  0  0  0  0  0  0  0  0  0  0  0
   23.9684  -28.3960  -13.4403 C   0  0  0  0  0  0  0  0  0  0  0  0
   21.7651  -28.7403  -14.4386 N   0  0  0  0  0  0  0  0  0  0  0  0
   16.8440  -29.0544  -18.3048 O   0  0  0  0  0  0  0  0  0  0  0  0
   16.0798  -27.6445  -16.7438 O   0  0  0  0  0  0  0  0  0  0  0  0
   17.7426  -30.3440  -15.8150 O   0  0  0  0  0  0  0  0  0  0  0  0
   19.4714  -27.6149  -13.0744 O   0  0  0  0  0  0  0  0  0  0  0  0
   19.1497  -28.9965  -17.0073 O   0  0  0  0  0  0  0  0  0  0  0  0
   21.3154  -28.1932  -18.1810 O   0  0  0  0  0  0  0  0  0  0  0  0
   22.7769  -31.1862  -18.1266 O   0  0  0  0  0  0  0  0  0  0  0  0
   19.7539  -30.6916  -19.9311 O   0  0  0  0  0  0  0  0  0  0  0  0
   22.6800  -26.6570  -14.4820 O   0  0  0  0  0  0  0  0  0  0  0  0
   18.1873  -27.0817  -15.3032 H   0  0  0  0  0  0  0  0  0  0  0  0
   17.2323  -28.2624  -14.3298 H   0  0  0  0  0  0  0  0  0  0  0  0
   19.2582  -29.5308  -13.8462 H   0  0  0  0  0  0  0  0  0  0  0  0
   20.6221  -27.3500  -15.4685 H   0  0  0  0  0  0  0  0  0  0  0  0
   20.3087  -30.3568  -15.8358 H   0  0  0  0  0  0  0  0  0  0  0  0
   22.4032  -29.2888  -16.7318 H   0  0  0  0  0  0  0  0  0  0  0  0
   20.7336  -31.3043  -17.7922 H   0  0  0  0  0  0  0  0  0  0  0  0
   21.1584  -29.2029  -19.7491 H   0  0  0  0  0  0  0  0  0  0  0  0
   21.7564  -30.8643  -20.2430 H   0  0  0  0  0  0  0  0  0  0  0  0
   23.8095  -28.3214  -12.3544 H   0  0  0  0  0  0  0  0  0  0  0  0
   24.1031  -29.4514  -13.7195 H   0  0  0  0  0  0  0  0  0  0  0  0
   24.8664  -27.8254  -13.7195 H   0  0  0  0  0  0  0  0  0  0  0  0
   21.8969  -29.7167  -14.1384 H   0  0  0  0  0  0  0  0  0  0  0  0
   17.7320  -30.4083  -14.8271 H   0  0  0  0  0  0  0  0  0  0  0  0
   19.3900  -28.1398  -12.2390 H   0  0  0  0  0  0  0  0  0  0  0  0
   21.2087  -27.3720  -17.6384 H   0  0  0  0  0  0  0  0  0  0  0  0
   23.0447  -31.3084  -17.1814 H   0  0  0  0  0  0  0  0  0  0  0  0
   19.2363  -30.8488  -19.1019 H   0  0  0  0  0  0  0  0  0  0  0  0
  1  2  1  0
  1 13  2  0
  1 14  1  0
  2  3  1  0
  2 15  1  1
  2 17  1  0
  3  4  1  0
  4  5  1  0
  4 16  1  0
  5  6  1  0
  5 12  1  0
  6  7  1  0
  6 17  1  0
  7  8  1  0
  7 18  1  0
  8  9  1  0
  8 19  1  0
  9 20  1  0
 10 11  1  0
 10 12  1  0
 10 21  2  0
  3 22  1  0
  3 23  1  0
  4 24  1  1
  5 25  1  6
  6 26  1  1
  7 27  1  1
  8 28  1  1
  9 29  1  0
  9 30  1  0
 11 31  1  0
 11 32  1  0
 11 33  1  0
 12 34  1  0
 15 35  1  0
 16 36  1  0
 18 37  1  0
 19 38  1  0
 20 39  1  0
M  CHG  1  14  -1
M  END
>  <filename_input>  (16) 
7T3E_SLB_docked.sdf

>  <pdb_id>  (16) 
7T3E_SLB

>  <pose_rank>  (16) 
15

>  <num_atoms_heavy>  (16) 
21

>  <num_torsions>  (16) 
5

>  <pose>  (16) 
[17.960748404307537, -29.017396437148534, -16.192860240785667, 3.0229522484121674, 1.329155537482152, 2.023518957269855, -0.12415985684123601, -1.3765984177955097, -0.38560796781026646, -1.3278872585790749, -2.8159168416958917]

>  <energy>  (16) 
-165.55513174790062

>  <inter_energy>  (16) 
-172.80756868981106

>  <intra_energy>  (16) 
1.1348107111242203

>  <rmsd>  (16) 
11.8289

>  <sdf_rank>  (16) 
0

$$$$

     RDKit          3D

 39 39  0  0  0  0  0  0  0  0999 V2000
   14.2136  -28.8664  -16.2749 C   0  0  0  0  0  0  0  0  0  0  0  0
   15.7163  -28.8986  -16.0129 C   0  0  1  0  0  0  0  0  0  0  0  0
   16.3741  -27.5505  -16.2002 C   0  0  0  0  0  0  0  0  0  0  0  0
   17.8569  -27.6867  -16.1769 C   0  0  1  0  0  0  0  0  0  0  0  0
   18.2827  -28.6618  -17.2546 C   0  0  2  0  0  0  0  0  0  0  0  0
   17.6334  -30.0108  -16.9677 C   0  0  2  0  0  0  0  0  0  0  0  0
   17.9451  -31.0798  -17.9831 C   0  0  1  0  0  0  0  0  0  0  0  0
   17.9859  -30.5326  -19.4142 C   0  0  1  0  0  0  0  0  0  0  0  0
   18.0385  -31.6342  -20.4313 C   0  0  0  0  0  0  0  0  0  0  0  0
   20.4706  -29.0894  -16.1532 C   0  0  0  0  0  0  0  0  0  0  0  0
   21.9582  -29.2459  -16.3935 C   0  0  0  0  0  0  0  0  0  0  0  0
   19.7182  -28.8412  -17.2813 N   0  0  0  0  0  0  0  0  0  0  0  0
   13.5804  -29.9590  -16.1623 O   0  0  0  0  0  0  0  0  0  0  0  0
   13.6913  -27.7671  -16.6005 O   0  0  0  0  0  0  0  0  0  0  0  0
   15.9921  -29.4142  -14.7446 O   0  0  0  0  0  0  0  0  0  0  0  0
   18.4618  -26.3894  -16.3875 O   0  0  0  0  0  0  0  0  0  0  0  0
   16.1995  -29.8558  -16.9761 O   0  0  0  0  0  0  0  0  0  0  0  0
   19.2423  -31.6642  -17.7034 O   0  0  0  0  0  0  0  0  0  0  0  0
   16.8502  -29.6901  -19.6238 O   0  0  0  0  0  0  0  0  0  0  0  0
   17.0180  -31.5665  -21.4236 O   0  0  0  0  0  0  0  0  0  0  0  0
   19.9710  -29.1839  -15.0457 O   0  0  0  0  0  0  0  0  0  0  0  0
   16.0644  -27.1278  -17.1674 H   0  0  0  0  0  0  0  0  0  0  0  0
   16.0645  -26.8863  -15.3799 H   0  0  0  0  0  0  0  0  0  0  0  0
   18.1883  -28.0714  -15.2011 H   0  0  0  0  0  0  0  0  0  0  0  0
   17.9679  -28.2585  -18.2284 H   0  0  0  0  0  0  0  0  0  0  0  0
   18.0382  -30.3278  -15.9953 H   0  0  0  0  0  0  0  0  0  0  0  0
   17.1409  -31.8265  -17.9077 H   0  0  0  0  0  0  0  0  0  0  0  0
   18.9068  -29.9447  -19.5420 H   0  0  0  0  0  0  0  0  0  0  0  0
   19.0142  -31.5893  -20.9373 H   0  0  0  0  0  0  0  0  0  0  0  0
   17.8830  -32.5755  -19.8839 H   0  0  0  0  0  0  0  0  0  0  0  0
   22.4818  -29.3010  -15.4276 H   0  0  0  0  0  0  0  0  0  0  0  0
   22.1425  -30.1684  -16.9636 H   0  0  0  0  0  0  0  0  0  0  0  0
   22.3305  -28.3820  -16.9636 H   0  0  0  0  0  0  0  0  0  0  0  0
   20.2021  -28.7804  -18.1885 H   0  0  0  0  0  0  0  0  0  0  0  0
   15.6575  -28.7886  -14.0542 H   0  0  0  0  0  0  0  0  0  0  0  0
   18.6572  -25.9703  -15.5121 H   0  0  0  0  0  0  0  0  0  0  0  0
   19.3733  -31.7232  -16.7239 H   0  0  0  0  0  0  0  0  0  0  0  0
   16.4781  -29.4140  -18.7489 H   0  0  0  0  0  0  0  0  0  0  0  0
   16.1331  -31.5079  -20.9835 H   0  0  0  0  0  0  0  0  0  0  0  0
  1  2  1  0
  1 13  2  0
  1 14  1  0
  2  3  1  0
  2 15  1  1
  2 17  1  0
  3  4  1  0
  4  5  1  0
  4 16  1  0
  5  6  1  0
  5 12  1  0
  6  7  1  0
  6 17  1  0
  7  8  1  0
  7 18  1  0
  8  9  1  0
  8 19  1  0
  9 20  1  0
 10 11  1  0
 10 12  1  0
 10 21  2  0
  3 22  1  0
  3 23  1  0
  4 24  1  1
  5 25  1  6
  6 26  1  1
  7 27  1  6
  8 28  1  1
  9 29  1  0
  9 30  1  0
 11 31  1  0
 11 32  1  0
 11 33  1  0
 12 34  1  0
 15 35  1  0
 16 36  1  0
 18 37  1  0
 19 38  1  0
 20 39  1  0
M  CHG  1  14  -1
M  END
>  <filename_input>  (17) 
7T3E_SLB_docked.sdf

>  <pdb_id>  (17) 
7T3E_SLB

>  <pose_rank>  (17) 
16

>  <num_atoms_heavy>  (17) 
21

>  <num_torsions>  (17) 
5

>  <pose>  (17) 
[15.716333749787282, -28.898628771700206, -16.012886971667907, -2.819103999167962, -0.9916067429773704, -0.21372652304978726, 2.6855021186948655, -1.1652836234589379, 8.69581084072926, 6.359555376503364, 1.1958179863283467]

>  <energy>  (17) 
-139.03298284897934

>  <inter_energy>  (17) 
-203.87755398615735

>  <intra_energy>  (17) 
73.63778032893762

>  <rmsd>  (17) 
10.8798

>  <sdf_rank>  (17) 
0

$$$$

     RDKit          3D

 39 39  0  0  0  0  0  0  0  0999 V2000
    7.7144  -19.3301  -16.4003 C   0  0  0  0  0  0  0  0  0  0  0  0
    8.2542  -17.9111  -16.2487 C   0  0  1  0  0  0  0  0  0  0  0  0
    8.2284  -17.4228  -14.8183 C   0  0  0  0  0  0  0  0  0  0  0  0
    8.5275  -15.9650  -14.7601 C   0  0  1  0  0  0  0  0  0  0  0  0
    7.5250  -15.2183  -15.6152 C   0  0  2  0  0  0  0  0  0  0  0  0
    7.6501  -15.7166  -17.0504 C   0  0  2  0  0  0  0  0  0  0  0  0
    6.6849  -15.0794  -18.0166 C   0  0  1  0  0  0  0  0  0  0  0  0
    7.3678  -14.0670  -18.9428 C   0  0  1  0  0  0  0  0  0  0  0  0
    8.1064  -14.7429  -20.0601 C   0  0  0  0  0  0  0  0  0  0  0  0
    6.8116  -12.8671  -15.2336 C   0  0  0  0  0  0  0  0  0  0  0  0
    7.2610  -11.4214  -15.2898 C   0  0  0  0  0  0  0  0  0  0  0  0
    7.7650  -13.7914  -15.6035 N   0  0  0  0  0  0  0  0  0  0  0  0
    8.5511  -20.2450  -16.6656 O   0  0  0  0  0  0  0  0  0  0  0  0
    6.4745  -19.5107  -16.2689 O   0  0  0  0  0  0  0  0  0  0  0  0
    9.5382  -17.8041  -16.7874 O   0  0  0  0  0  0  0  0  0  0  0  0
    8.4676  -15.5169  -13.3858 O   0  0  0  0  0  0  0  0  0  0  0  0
    7.3754  -17.1320  -17.0843 O   0  0  0  0  0  0  0  0  0  0  0  0
    6.0800  -16.0966  -18.8542 O   0  0  0  0  0  0  0  0  0  0  0  0
    6.3848  -13.1601  -19.4479 O   0  0  0  0  0  0  0  0  0  0  0  0
    9.5244  -14.7296  -19.9194 O   0  0  0  0  0  0  0  0  0  0  0  0
    5.6921  -13.1932  -14.8794 O   0  0  0  0  0  0  0  0  0  0  0  0
    7.2312  -17.6052  -14.3913 H   0  0  0  0  0  0  0  0  0  0  0  0
    8.9922  -17.9662  -14.2428 H   0  0  0  0  0  0  0  0  0  0  0  0
    9.5382  -15.7683  -15.1472 H   0  0  0  0  0  0  0  0  0  0  0  0
    6.5199  -15.4018  -15.2078 H   0  0  0  0  0  0  0  0  0  0  0  0
    8.6731  -15.4570  -17.3606 H   0  0  0  0  0  0  0  0  0  0  0  0
    5.9322  -14.5572  -17.4077 H   0  0  0  0  0  0  0  0  0  0  0  0
    8.1185  -13.5085  -18.3644 H   0  0  0  0  0  0  0  0  0  0  0  0
    7.7749  -15.7906  -20.1078 H   0  0  0  0  0  0  0  0  0  0  0  0
    7.8759  -14.1789  -20.9760 H   0  0  0  0  0  0  0  0  0  0  0  0
    7.3812  -11.0347  -14.2671 H   0  0  0  0  0  0  0  0  0  0  0  0
    8.2217  -11.3565  -15.8216 H   0  0  0  0  0  0  0  0  0  0  0  0
    6.5064  -10.8232  -15.8216 H   0  0  0  0  0  0  0  0  0  0  0  0
    8.6946  -13.4493  -15.8856 H   0  0  0  0  0  0  0  0  0  0  0  0
   10.2004  -17.7489  -16.0535 H   0  0  0  0  0  0  0  0  0  0  0  0
    8.5714  -16.2935  -12.7806 H   0  0  0  0  0  0  0  0  0  0  0  0
    5.6666  -16.7915  -18.2830 H   0  0  0  0  0  0  0  0  0  0  0  0
    5.9155  -12.7272  -18.6913 H   0  0  0  0  0  0  0  0  0  0  0  0
    9.7606  -14.7274  -18.9580 H   0  0  0  0  0  0  0  0  0  0  0  0
  1  2  1  0
  1 13  2  0
  1 14  1  0
  2  3  1  0
  2 15  1  6
  2 17  1  0
  3  4  1  0
  4  5  1  0
  4 16  1  0
  5  6  1  0
  5 12  1  0
  6  7  1  0
  6 17  1  0
  7  8  1  0
  7 18  1  0
  8  9  1  0
  8 19  1  0
  9 20  1  0
 10 11  1  0
 10 12  1  0
 10 21  2  0
  3 22  1  0
  3 23  1  0
  4 24  1  6
  5 25  1  1
  6 26  1  6
  7 27  1  1
  8 28  1  1
  9 29  1  0
  9 30  1  0
 11 31  1  0
 11 32  1  0
 11 33  1  0
 12 34  1  0
 15 35  1  0
 16 36  1  0
 18 37  1  0
 19 38  1  0
 20 39  1  0
M  CHG  1  14  -1
M  END
>  <filename_input>  (18) 
7T3E_SLB_docked.sdf

>  <pdb_id>  (18) 
7T3E_SLB

>  <pose_rank>  (18) 
17

>  <num_atoms_heavy>  (18) 
21

>  <num_torsions>  (18) 
5

>  <pose>  (18) 
[8.254167169434854, -17.911118116613665, -16.248705133409185, -0.6534852801913636, -1.1690573426076332, 0.4449180328448106, -0.31866312596506724, 0.09590758655424766, -1.351425280583158, -1.8814211646457446, -2.8540827269337092]

>  <energy>  (18) 
-118.96481559483931

>  <inter_energy>  (18) 
-129.35974433325006

>  <intra_energy>  (18) 
4.98607120487335

>  <rmsd>  (18) 
12.2389

>  <sdf_rank>  (18) 
0

$$$$

     RDKit          3D

 39 39  0  0  0  0  0  0  0  0999 V2000
   18.6198  -30.8300  -27.6890 C   0  0  0  0  0  0  0  0  0  0  0  0
   19.8850  -30.0903  -28.1136 C   0  0  1  0  0  0  0  0  0  0  0  0
   21.1459  -30.8766  -27.8362 C   0  0  0  0  0  0  0  0  0  0  0  0
   22.3481  -30.0205  -28.0356 C   0  0  1  0  0  0  0  0  0  0  0  0
   22.2473  -28.8061  -27.1363 C   0  0  2  0  0  0  0  0  0  0  0  0
   20.9900  -28.0307  -27.5130 C   0  0  2  0  0  0  0  0  0  0  0  0
   20.7412  -26.8036  -26.6742 C   0  0  1  0  0  0  0  0  0  0  0  0
   19.6950  -25.8724  -27.2966 C   0  0  1  0  0  0  0  0  0  0  0  0
   18.9718  -25.0706  -26.2551 C   0  0  0  0  0  0  0  0  0  0  0  0
   24.4487  -27.9100  -26.4061 C   0  0  0  0  0  0  0  0  0  0  0  0
   25.5446  -26.9186  -26.7401 C   0  0  0  0  0  0  0  0  0  0  0  0
   23.3882  -27.9290  -27.2865 N   0  0  0  0  0  0  0  0  0  0  0  0
   17.5492  -30.5535  -28.3093 O   0  0  0  0  0  0  0  0  0  0  0  0
   18.7054  -31.6577  -26.7431 O   0  0  0  0  0  0  0  0  0  0  0  0
   19.8184  -29.7156  -29.4573 O   0  0  0  0  0  0  0  0  0  0  0  0
   23.5383  -30.7864  -27.7357 O   0  0  0  0  0  0  0  0  0  0  0  0
   19.8390  -28.8806  -27.3313 O   0  0  0  0  0  0  0  0  0  0  0  0
   20.2549  -27.1906  -25.3641 O   0  0  0  0  0  0  0  0  0  0  0  0
   20.3362  -25.0218  -28.2500 O   0  0  0  0  0  0  0  0  0  0  0  0
   17.6163  -24.7735  -26.5790 O   0  0  0  0  0  0  0  0  0  0  0  0
   24.5018  -28.6447  -25.4353 O   0  0  0  0  0  0  0  0  0  0  0  0
   21.1265  -31.2373  -26.7972 H   0  0  0  0  0  0  0  0  0  0  0  0
   21.1953  -31.7273  -28.5317 H   0  0  0  0  0  0  0  0  0  0  0  0
   22.4053  -29.6825  -29.0808 H   0  0  0  0  0  0  0  0  0  0  0  0
   22.2137  -29.1518  -26.0926 H   0  0  0  0  0  0  0  0  0  0  0  0
   21.1451  -27.7129  -28.5546 H   0  0  0  0  0  0  0  0  0  0  0  0
   21.7011  -26.2706  -26.6077 H   0  0  0  0  0  0  0  0  0  0  0  0
   18.9345  -26.4839  -27.8044 H   0  0  0  0  0  0  0  0  0  0  0  0
   18.9842  -25.6386  -25.3132 H   0  0  0  0  0  0  0  0  0  0  0  0
   19.4960  -24.1064  -26.1804 H   0  0  0  0  0  0  0  0  0  0  0  0
   25.9794  -26.5253  -25.8093 H   0  0  0  0  0  0  0  0  0  0  0  0
   26.3276  -27.4214  -27.3267 H   0  0  0  0  0  0  0  0  0  0  0  0
   25.1225  -26.0893  -27.3267 H   0  0  0  0  0  0  0  0  0  0  0  0
   23.4090  -27.2868  -28.0915 H   0  0  0  0  0  0  0  0  0  0  0  0
   19.6456  -28.7428  -29.5204 H   0  0  0  0  0  0  0  0  0  0  0  0
   23.6471  -30.8564  -26.7541 H   0  0  0  0  0  0  0  0  0  0  0  0
   20.8042  -26.7535  -24.6660 H   0  0  0  0  0  0  0  0  0  0  0  0
   20.8590  -24.3284  -27.7746 H   0  0  0  0  0  0  0  0  0  0  0  0
   17.0951  -24.6592  -25.7451 H   0  0  0  0  0  0  0  0  0  0  0  0
  1  2  1  0
  1 13  2  0
  1 14  1  0
  2  3  1  0
  2 15  1  6
  2 17  1  0
  3  4  1  0
  4  5  1  0
  4 16  1  0
  5  6  1  0
  5 12  1  0
  6  7  1  0
  6 17  1  0
  7  8  1  0
  7 18  1  0
  8  9  1  0
  8 19  1  0
  9 20  1  0
 10 11  1  0
 10 12  1  0
 10 21  2  0
  3 22  1  0
  3 23  1  0
  4 24  1  6
  5 25  1  1
  6 26  1  6
  7 27  1  1
  8 28  1  6
  9 29  1  0
  9 30  1  0
 11 31  1  0
 11 32  1  0
 11 33  1  0
 12 34  1  0
 15 35  1  0
 16 36  1  0
 18 37  1  0
 19 38  1  0
 20 39  1  0
M  CHG  1  14  -1
M  END
>  <filename_input>  (19) 
7T3E_SLB_docked.sdf

>  <pdb_id>  (19) 
7T3E_SLB

>  <pose_rank>  (19) 
18

>  <num_atoms_heavy>  (19) 
21

>  <num_torsions>  (19) 
5

>  <pose>  (19) 
[19.885010661600628, -30.090288544313328, -28.11355792156546, 1.3801445211902732, -4.587975170242848, 3.6562387981196425, 0.09818359085160007, -0.6745854908670796, -0.3141662456077853, -0.5955223463327638, -3.5779822746168892]

>  <energy>  (19) 
-103.06539540630162

>  <inter_energy>  (19) 
-112.25472127524066

>  <intra_energy>  (19) 
3.1355253345561236

>  <rmsd>  (19) 
9.67149

>  <sdf_rank>  (19) 
0

$$$$

     RDKit          3D

 39 39  0  0  0  0  0  0  0  0999 V2000
   10.7807  -26.9966  -13.6141 C   0  0  0  0  0  0  0  0  0  0  0  0
   11.4741  -26.0454  -14.5849 C   0  0  1  0  0  0  0  0  0  0  0  0
   10.5602  -25.5639  -15.6886 C   0  0  0  0  0  0  0  0  0  0  0  0
   11.3403  -24.8469  -16.7352 C   0  0  1  0  0  0  0  0  0  0  0  0
   12.4144  -25.7695  -17.2727 C   0  0  2  0  0  0  0  0  0  0  0  0
   13.3317  -26.1635  -16.1207 C   0  0  2  0  0  0  0  0  0  0  0  0
   14.4386  -27.1119  -16.5034 C   0  0  1  0  0  0  0  0  0  0  0  0
   14.5303  -28.3151  -15.5584 C   0  0  1  0  0  0  0  0  0  0  0  0
   15.8922  -28.9438  -15.5861 C   0  0  0  0  0  0  0  0  0  0  0  0
   12.6813  -24.6146  -19.4584 C   0  0  0  0  0  0  0  0  0  0  0  0
   13.6856  -23.9832  -20.4009 C   0  0  0  0  0  0  0  0  0  0  0  0
   13.2127  -25.1279  -18.2947 N   0  0  0  0  0  0  0  0  0  0  0  0
   11.4020  -28.0543  -13.2934 O   0  0  0  0  0  0  0  0  0  0  0  0
    9.6319  -26.6880  -13.1993 O   0  0  0  0  0  0  0  0  0  0  0  0
   12.0451  -24.9666  -13.9063 O   0  0  0  0  0  0  0  0  0  0  0  0
   10.4487  -24.4228  -17.7928 O   0  0  0  0  0  0  0  0  0  0  0  0
   12.5563  -26.8395  -15.1098 O   0  0  0  0  0  0  0  0  0  0  0  0
   14.2101  -27.6248  -17.8402 O   0  0  0  0  0  0  0  0  0  0  0  0
   14.1811  -27.8975  -14.2365 O   0  0  0  0  0  0  0  0  0  0  0  0
   16.2016  -29.6214  -16.8009 O   0  0  0  0  0  0  0  0  0  0  0  0
   11.4886  -24.6594  -19.7043 O   0  0  0  0  0  0  0  0  0  0  0  0
   10.0541  -26.4285  -16.1428 H   0  0  0  0  0  0  0  0  0  0  0  0
    9.8189  -24.8727  -15.2609 H   0  0  0  0  0  0  0  0  0  0  0  0
   11.8219  -23.9555  -16.3069 H   0  0  0  0  0  0  0  0  0  0  0  0
   11.9235  -26.6467  -17.7193 H   0  0  0  0  0  0  0  0  0  0  0  0
   13.7853  -25.2230  -15.7749 H   0  0  0  0  0  0  0  0  0  0  0  0
   15.3755  -26.5384  -16.4454 H   0  0  0  0  0  0  0  0  0  0  0  0
   13.8229  -29.0862  -15.8978 H   0  0  0  0  0  0  0  0  0  0  0  0
   16.6401  -28.1518  -15.4335 H   0  0  0  0  0  0  0  0  0  0  0  0
   15.9043  -29.7032  -14.7904 H   0  0  0  0  0  0  0  0  0  0  0  0
   14.4748  -23.4871  -19.8169 H   0  0  0  0  0  0  0  0  0  0  0  0
   14.1335  -24.7625  -21.0350 H   0  0  0  0  0  0  0  0  0  0  0  0
   13.1776  -23.2417  -21.0350 H   0  0  0  0  0  0  0  0  0  0  0  0
   14.2289  -25.0508  -18.1453 H   0  0  0  0  0  0  0  0  0  0  0  0
   11.9679  -25.1125  -12.9302 H   0  0  0  0  0  0  0  0  0  0  0  0
    9.6292  -24.0330  -17.3970 H   0  0  0  0  0  0  0  0  0  0  0  0
   13.8079  -28.5276  -17.7830 H   0  0  0  0  0  0  0  0  0  0  0  0
   14.6541  -28.4633  -13.5760 H   0  0  0  0  0  0  0  0  0  0  0  0
   16.6039  -30.5021  -16.5943 H   0  0  0  0  0  0  0  0  0  0  0  0
  1  2  1  0
  1 13  2  0
  1 14  1  0
  2  3  1  0
  2 15  1  1
  2 17  1  0
  3  4  1  0
  4  5  1  0
  4 16  1  0
  5  6  1  0
  5 12  1  0
  6  7  1  0
  6 17  1  0
  7  8  1  0
  7 18  1  0
  8  9  1  0
  8 19  1  0
  9 20  1  0
 10 11  1  0
 10 12  1  0
 10 21  2  0
  3 22  1  0
  3 23  1  0
  4 24  1  1
  5 25  1  6
  6 26  1  1
  7 27  1  6
  8 28  1  6
  9 29  1  0
  9 30  1  0
 11 31  1  0
 11 32  1  0
 11 33  1  0
 12 34  1  0
 15 35  1  0
 16 36  1  0
 18 37  1  0
 19 38  1  0
 20 39  1  0
M  CHG  1  14  -1
M  END
>  <filename_input>  (20) 
7T3E_SLB_docked.sdf

>  <pdb_id>  (20) 
7T3E_SLB

>  <pose_rank>  (20) 
19

>  <num_atoms_heavy>  (20) 
21

>  <num_torsions>  (20) 
5

>  <pose>  (20) 
[11.474052317338645, -26.045376648039113, -14.584919063910972, -2.1690491584817955, -2.537500189731419, 1.2724169756648718, 0.8216469080987244, -1.9497114044050026, 0.8030728079878826, 0.28004100269743437, -2.2174697487359847]

>  <energy>  (20) 
-12.448456129479865

>  <inter_energy>  (20) 
-171.8100942502197

>  <intra_energy>  (20) 
155.5446411428494

>  <rmsd>  (20) 
10.3

>  <sdf_rank>  (20) 
0

$$$$

     RDKit          3D

 39 39  0  0  0  0  0  0  0  0999 V2000
   18.7231  -30.4040  -27.2364 C   0  0  0  0  0  0  0  0  0  0  0  0
   20.1879  -30.0258  -27.4348 C   0  0  1  0  0  0  0  0  0  0  0  0
   20.6636  -28.9827  -26.4496 C   0  0  0  0  0  0  0  0  0  0  0  0
   22.0078  -28.4733  -26.8388 C   0  0  1  0  0  0  0  0  0  0  0  0
   21.9382  -27.9125  -28.2440 C   0  0  2  0  0  0  0  0  0  0  0  0
   21.5139  -29.0312  -29.1886 C   0  0  2  0  0  0  0  0  0  0  0  0
   21.3716  -28.6091  -30.6283 C   0  0  1  0  0  0  0  0  0  0  0  0
   20.3712  -29.4798  -31.3965 C   0  0  1  0  0  0  0  0  0  0  0  0
   19.9386  -28.8331  -32.6792 C   0  0  0  0  0  0  0  0  0  0  0  0
   24.3531  -28.1815  -28.7718 C   0  0  0  0  0  0  0  0  0  0  0  0
   25.5942  -27.4585  -29.2537 C   0  0  0  0  0  0  0  0  0  0  0  0
   23.2189  -27.4029  -28.6840 N   0  0  0  0  0  0  0  0  0  0  0  0
   18.4320  -31.6376  -27.2680 O   0  0  0  0  0  0  0  0  0  0  0  0
   17.8880  -29.4759  -27.0679 O   0  0  0  0  0  0  0  0  0  0  0  0
   21.0064  -31.1567  -27.3953 O   0  0  0  0  0  0  0  0  0  0  0  0
   22.4271  -27.4568  -25.8985 O   0  0  0  0  0  0  0  0  0  0  0  0
   20.2198  -29.5240  -28.7855 O   0  0  0  0  0  0  0  0  0  0  0  0
   20.8998  -27.2398  -30.6978 O   0  0  0  0  0  0  0  0  0  0  0  0
   20.9568  -30.7617  -31.6365 O   0  0  0  0  0  0  0  0  0  0  0  0
   18.5587  -28.4797  -32.7226 O   0  0  0  0  0  0  0  0  0  0  0  0
   24.3521  -29.3669  -28.4895 O   0  0  0  0  0  0  0  0  0  0  0  0
   19.9496  -28.1461  -26.4349 H   0  0  0  0  0  0  0  0  0  0  0  0
   20.7315  -29.4403  -25.4516 H   0  0  0  0  0  0  0  0  0  0  0  0
   22.7443  -29.2902  -26.8203 H   0  0  0  0  0  0  0  0  0  0  0  0
   21.2171  -27.0819  -28.2484 H   0  0  0  0  0  0  0  0  0  0  0  0
   22.3132  -29.7843  -29.1256 H   0  0  0  0  0  0  0  0  0  0  0  0
   22.3661  -28.7175  -31.0856 H   0  0  0  0  0  0  0  0  0  0  0  0
   19.4645  -29.6000  -30.7855 H   0  0  0  0  0  0  0  0  0  0  0  0
   20.5328  -27.9184  -32.8211 H   0  0  0  0  0  0  0  0  0  0  0  0
   20.0984  -29.5752  -33.4752 H   0  0  0  0  0  0  0  0  0  0  0  0
   26.1797  -27.1174  -28.3872 H   0  0  0  0  0  0  0  0  0  0  0  0
   26.2041  -28.1426  -29.8620 H   0  0  0  0  0  0  0  0  0  0  0  0
   25.2999  -26.5904  -29.8620 H   0  0  0  0  0  0  0  0  0  0  0  0
   23.2865  -26.4088  -28.9447 H   0  0  0  0  0  0  0  0  0  0  0  0
   21.1843  -31.4025  -26.4529 H   0  0  0  0  0  0  0  0  0  0  0  0
   22.2914  -27.7857  -24.9747 H   0  0  0  0  0  0  0  0  0  0  0  0
   20.7779  -26.8859  -29.7813 H   0  0  0  0  0  0  0  0  0  0  0  0
   21.1571  -31.2001  -30.7718 H   0  0  0  0  0  0  0  0  0  0  0  0
   18.2117  -28.3908  -31.7997 H   0  0  0  0  0  0  0  0  0  0  0  0
  1  2  1  0
  1 13  2  0
  1 14  1  0
  2  3  1  0
  2 15  1  6
  2 17  1  0
  3  4  1  0
  4  5  1  0
  4 16  1  0
  5  6  1  0
  5 12  1  0
  6  7  1  0
  6 17  1  0
  7  8  1  0
  7 18  1  0
  8  9  1  0
  8 19  1  0
  9 20  1  0
 10 11  1  0
 10 12  1  0
 10 21  2  0
  3 22  1  0
  3 23  1  0
  4 24  1  6
  5 25  1  1
  6 26  1  6
  7 27  1  6
  8 28  1  1
  9 29  1  0
  9 30  1  0
 11 31  1  0
 11 32  1  0
 11 33  1  0
 12 34  1  0
 15 35  1  0
 16 36  1  0
 18 37  1  0
 19 38  1  0
 20 39  1  0
M  CHG  1  14  -1
M  END
>  <filename_input>  (21) 
7T3E_SLB_docked.sdf

>  <pdb_id>  (21) 
7T3E_SLB

>  <pose_rank>  (21) 
20

>  <num_atoms_heavy>  (21) 
21

>  <num_torsions>  (21) 
5

>  <pose>  (21) 
[20.187888356587933, -30.02584106960284, -27.434791246068542, 3.9890436281731296, 1.913508733488263, 0.21434445031030883, 2.885255281272075, -0.365717734147681, 0.4072241139018333, -6.681599313612876, -3.0013851411117454]

>  <energy>  (21) 
-78.48364606973465

>  <inter_energy>  (21) 
-118.96112648461875

>  <intra_energy>  (21) 
32.65235345285242

>  <rmsd>  (21) 
11.4843

>  <sdf_rank>  (21) 
0

$$$$

     RDKit          3D

 39 39  0  0  0  0  0  0  0  0999 V2000
    7.1866  -12.9144  -20.6900 C   0  0  0  0  0  0  0  0  0  0  0  0
    7.2308  -13.0334  -19.1695 C   0  0  1  0  0  0  0  0  0  0  0  0
    8.1946  -12.0588  -18.5321 C   0  0  0  0  0  0  0  0  0  0  0  0
    8.3834  -12.3806  -17.0902 C   0  0  1  0  0  0  0  0  0  0  0  0
    8.8758  -13.8069  -16.9604 C   0  0  2  0  0  0  0  0  0  0  0  0
    7.8293  -14.7350  -17.5664 C   0  0  2  0  0  0  0  0  0  0  0  0
    8.2004  -16.1953  -17.5357 C   0  0  1  0  0  0  0  0  0  0  0  0
    7.0790  -17.0716  -16.9670 C   0  0  1  0  0  0  0  0  0  0  0  0
    7.3679  -17.5036  -15.5597 C   0  0  0  0  0  0  0  0  0  0  0  0
    8.1176  -14.0138  -14.6014 C   0  0  0  0  0  0  0  0  0  0  0  0
    8.5232  -14.4716  -13.2153 C   0  0  0  0  0  0  0  0  0  0  0  0
    9.0759  -14.1833  -15.5777 N   0  0  0  0  0  0  0  0  0  0  0  0
    7.3821  -11.7654  -21.1889 O   0  0  0  0  0  0  0  0  0  0  0  0
    6.9456  -13.9538  -21.3599 O   0  0  0  0  0  0  0  0  0  0  0  0
    5.9538  -12.9008  -18.6199 O   0  0  0  0  0  0  0  0  0  0  0  0
    9.3312  -11.4534  -16.5113 O   0  0  0  0  0  0  0  0  0  0  0  0
    7.6467  -14.3969  -18.9565 O   0  0  0  0  0  0  0  0  0  0  0  0
    8.4790  -16.6628  -18.8797 O   0  0  0  0  0  0  0  0  0  0  0  0
    5.8436  -16.3564  -17.0442 O   0  0  0  0  0  0  0  0  0  0  0  0
    6.2113  -17.6439  -14.7392 O   0  0  0  0  0  0  0  0  0  0  0  0
    7.0217  -13.5378  -14.8410 O   0  0  0  0  0  0  0  0  0  0  0  0
    9.1648  -12.1200  -19.0468 H   0  0  0  0  0  0  0  0  0  0  0  0
    7.7830  -11.0425  -18.6192 H   0  0  0  0  0  0  0  0  0  0  0  0
    7.4292  -12.2857  -16.5512 H   0  0  0  0  0  0  0  0  0  0  0  0
    9.8408  -13.8873  -17.4823 H   0  0  0  0  0  0  0  0  0  0  0  0
    6.9261  -14.5941  -16.9546 H   0  0  0  0  0  0  0  0  0  0  0  0
    9.0850  -16.2794  -16.8873 H   0  0  0  0  0  0  0  0  0  0  0  0
    7.0086  -17.9902  -17.5680 H   0  0  0  0  0  0  0  0  0  0  0  0
    7.8837  -18.4745  -15.5966 H   0  0  0  0  0  0  0  0  0  0  0  0
    7.9807  -16.7104  -15.1066 H   0  0  0  0  0  0  0  0  0  0  0  0
    7.9922  -13.8722  -12.4612 H   0  0  0  0  0  0  0  0  0  0  0  0
    8.2636  -15.5331  -13.0892 H   0  0  0  0  0  0  0  0  0  0  0  0
    9.6082  -14.3420  -13.0892 H   0  0  0  0  0  0  0  0  0  0  0  0
    9.9795  -14.5987  -15.3096 H   0  0  0  0  0  0  0  0  0  0  0  0
    6.0174  -12.9074  -17.6320 H   0  0  0  0  0  0  0  0  0  0  0  0
    9.2803  -11.5032  -15.5238 H   0  0  0  0  0  0  0  0  0  0  0  0
    8.9853  -17.5125  -18.8352 H   0  0  0  0  0  0  0  0  0  0  0  0
    5.5148  -16.1660  -16.1300 H   0  0  0  0  0  0  0  0  0  0  0  0
    6.4770  -17.6117  -13.7860 H   0  0  0  0  0  0  0  0  0  0  0  0
  1  2  1  0
  1 13  2  0
  1 14  1  0
  2  3  1  0
  2 15  1  1
  2 17  1  0
  3  4  1  0
  4  5  1  0
  4 16  1  0
  5  6  1  0
  5 12  1  0
  6  7  1  0
  6 17  1  0
  7  8  1  0
  7 18  1  0
  8  9  1  0
  8 19  1  0
  9 20  1  0
 10 11  1  0
 10 12  1  0
 10 21  2  0
  3 22  1  0
  3 23  1  0
  4 24  1  1
  5 25  1  6
  6 26  1  1
  7 27  1  1
  8 28  1  6
  9 29  1  0
  9 30  1  0
 11 31  1  0
 11 32  1  0
 11 33  1  0
 12 34  1  0
 15 35  1  0
 16 36  1  0
 18 37  1  0
 19 38  1  0
 20 39  1  0
M  CHG  1  14  -1
M  END
>  <filename_input>  (22) 
7T3E_SLB_docked.sdf

>  <pdb_id>  (22) 
7T3E_SLB

>  <pose_rank>  (22) 
21

>  <num_atoms_heavy>  (22) 
21

>  <num_torsions>  (22) 
5

>  <pose>  (22) 
[7.230791486279341, -13.033411125919468, -19.16949359209847, -2.9426549373645803, -0.39778225069850487, -2.2908226623792802, -3.543984991530033, 1.4372141802586997, -0.9259930501506168, 1.220111334572153, 1.56844736101412]

>  <energy>  (22) 
-120.48370383261565

>  <inter_energy>  (22) 
-133.48828650430687

>  <intra_energy>  (22) 
26.233442045698354

>  <rmsd>  (22) 
12.9243

>  <sdf_rank>  (22) 
0

$$$$

     RDKit          3D

 39 39  0  0  0  0  0  0  0  0999 V2000
   19.8827  -26.0252  -27.5432 C   0  0  0  0  0  0  0  0  0  0  0  0
   20.6076  -27.3264  -27.8740 C   0  0  1  0  0  0  0  0  0  0  0  0
   20.4578  -28.3730  -26.7935 C   0  0  0  0  0  0  0  0  0  0  0  0
   21.3765  -29.5176  -27.0461 C   0  0  1  0  0  0  0  0  0  0  0  0
   22.7994  -29.0044  -27.1224 C   0  0  2  0  0  0  0  0  0  0  0  0
   22.8898  -28.0038  -28.2688 C   0  0  2  0  0  0  0  0  0  0  0  0
   24.2512  -27.3823  -28.4461 C   0  0  1  0  0  0  0  0  0  0  0  0
   24.3768  -26.6171  -29.7681 C   0  0  1  0  0  0  0  0  0  0  0  0
   23.4297  -27.1399  -30.8075 C   0  0  0  0  0  0  0  0  0  0  0  0
   24.6666  -30.4976  -26.4394 C   0  0  0  0  0  0  0  0  0  0  0  0
   25.5661  -31.6284  -26.8949 C   0  0  0  0  0  0  0  0  0  0  0  0
   23.7439  -30.0720  -27.3709 N   0  0  0  0  0  0  0  0  0  0  0  0
   19.3021  -25.9531  -26.4185 O   0  0  0  0  0  0  0  0  0  0  0  0
   19.8888  -25.1067  -28.4055 O   0  0  0  0  0  0  0  0  0  0  0  0
   20.1972  -27.8273  -29.1113 O   0  0  0  0  0  0  0  0  0  0  0  0
   21.2357  -30.4900  -25.9841 O   0  0  0  0  0  0  0  0  0  0  0  0
   21.9810  -26.9129  -28.0162 O   0  0  0  0  0  0  0  0  0  0  0  0
   24.5090  -26.4421  -27.3728 O   0  0  0  0  0  0  0  0  0  0  0  0
   24.1585  -25.2255  -29.5240 O   0  0  0  0  0  0  0  0  0  0  0  0
   23.9508  -27.1325  -32.1338 O   0  0  0  0  0  0  0  0  0  0  0  0
   24.7448  -30.0036  -25.3282 O   0  0  0  0  0  0  0  0  0  0  0  0
   20.6983  -27.9239  -25.8186 H   0  0  0  0  0  0  0  0  0  0  0  0
   19.4213  -28.7412  -26.7957 H   0  0  0  0  0  0  0  0  0  0  0  0
   21.1247  -30.0042  -27.9999 H   0  0  0  0  0  0  0  0  0  0  0  0
   23.0506  -28.5401  -26.1574 H   0  0  0  0  0  0  0  0  0  0  0  0
   22.6503  -28.5780  -29.1760 H   0  0  0  0  0  0  0  0  0  0  0  0
   24.9758  -28.2100  -28.4409 H   0  0  0  0  0  0  0  0  0  0  0  0
   25.3913  -26.7642  -30.1671 H   0  0  0  0  0  0  0  0  0  0  0  0
   23.1691  -28.1761  -30.5458 H   0  0  0  0  0  0  0  0  0  0  0  0
   22.5598  -26.4667  -30.8075 H   0  0  0  0  0  0  0  0  0  0  0  0
   25.9779  -32.1461  -26.0161 H   0  0  0  0  0  0  0  0  0  0  0  0
   24.9839  -32.3392  -27.4997 H   0  0  0  0  0  0  0  0  0  0  0  0
   26.3897  -31.2210  -27.4997 H   0  0  0  0  0  0  0  0  0  0  0  0
   23.7258  -30.5372  -28.2897 H   0  0  0  0  0  0  0  0  0  0  0  0
   19.5760  -28.5852  -28.9709 H   0  0  0  0  0  0  0  0  0  0  0  0
   21.3018  -30.0337  -25.1080 H   0  0  0  0  0  0  0  0  0  0  0  0
   24.3850  -26.8944  -26.5010 H   0  0  0  0  0  0  0  0  0  0  0  0
   24.1328  -25.0618  -28.5479 H   0  0  0  0  0  0  0  0  0  0  0  0
   24.9401  -27.1184  -32.0996 H   0  0  0  0  0  0  0  0  0  0  0  0
  1  2  1  0
  1 13  2  0
  1 14  1  0
  2  3  1  0
  2 15  1  6
  2 17  1  0
  3  4  1  0
  4  5  1  0
  4 16  1  0
  5  6  1  0
  5 12  1  0
  6  7  1  0
  6 17  1  0
  7  8  1  0
  7 18  1  0
  8  9  1  0
  8 19  1  0
  9 20  1  0
 10 11  1  0
 10 12  1  0
 10 21  2  0
  3 22  1  0
  3 23  1  0
  4 24  1  6
  5 25  1  1
  6 26  1  6
  7 27  1  6
  8 28  1  6
  9 29  1  0
  9 30  1  0
 11 31  1  0
 11 32  1  0
 11 33  1  0
 12 34  1  0
 15 35  1  0
 16 36  1  0
 18 37  1  0
 19 38  1  0
 20 39  1  0
M  CHG  1  14  -1
M  END
>  <filename_input>  (23) 
7T3E_SLB_docked.sdf

>  <pdb_id>  (23) 
7T3E_SLB

>  <pose_rank>  (23) 
22

>  <num_atoms_heavy>  (23) 
21

>  <num_torsions>  (23) 
5

>  <pose>  (23) 
[20.607594078429763, -27.32643318277841, -27.87395580320513, 1.895452196768945, -0.7457800080020817, 4.064697805190646, 6.17852682950591, 2.040474140264749, -0.26774728691907485, -3.6981238253946778, 2.7743490139023756]

>  <energy>  (23) 
-117.47918576699524

>  <inter_energy>  (23) 
-112.67318568338403

>  <intra_energy>  (23) 
8.744129963746932

>  <rmsd>  (23) 
11.3933

>  <sdf_rank>  (23) 
0

$$$$

     RDKit          3D

 39 39  0  0  0  0  0  0  0  0999 V2000
    8.8445  -22.0960  -13.3858 C   0  0  0  0  0  0  0  0  0  0  0  0
    8.5629  -23.4762  -13.9723 C   0  0  1  0  0  0  0  0  0  0  0  0
    7.3675  -24.1506  -13.3387 C   0  0  0  0  0  0  0  0  0  0  0  0
    7.2870  -25.5754  -13.7646 C   0  0  1  0  0  0  0  0  0  0  0  0
    8.5765  -26.2779  -13.3938 C   0  0  2  0  0  0  0  0  0  0  0  0
    9.7271  -25.5852  -14.1148 C   0  0  2  0  0  0  0  0  0  0  0  0
   11.0867  -26.1618  -13.8144 C   0  0  1  0  0  0  0  0  0  0  0  0
   11.8889  -26.4604  -15.0857 C   0  0  1  0  0  0  0  0  0  0  0  0
   12.0887  -25.2303  -15.9211 C   0  0  0  0  0  0  0  0  0  0  0  0
    8.0933  -28.1081  -15.0061 C   0  0  0  0  0  0  0  0  0  0  0  0
    8.1644  -29.6058  -15.2233 C   0  0  0  0  0  0  0  0  0  0  0  0
    8.5626  -27.6705  -13.7860 N   0  0  0  0  0  0  0  0  0  0  0  0
   10.0512  -21.8129  -13.1196 O   0  0  0  0  0  0  0  0  0  0  0  0
    7.8680  -21.3253  -13.1865 O   0  0  0  0  0  0  0  0  0  0  0  0
    8.4188  -23.4103  -15.3598 O   0  0  0  0  0  0  0  0  0  0  0  0
    6.1539  -26.2054  -13.1225 O   0  0  0  0  0  0  0  0  0  0  0  0
    9.7780  -24.2035  -13.7043 O   0  0  0  0  0  0  0  0  0  0  0  0
   11.8581  -25.2228  -13.0234 O   0  0  0  0  0  0  0  0  0  0  0  0
   13.1411  -27.0454  -14.7203 O   0  0  0  0  0  0  0  0  0  0  0  0
   12.2919  -25.4887  -17.3077 O   0  0  0  0  0  0  0  0  0  0  0  0
    7.6612  -27.3422  -15.8497 O   0  0  0  0  0  0  0  0  0  0  0  0
    7.4640  -24.1048  -12.2439 H   0  0  0  0  0  0  0  0  0  0  0  0
    6.4533  -23.6305  -13.6606 H   0  0  0  0  0  0  0  0  0  0  0  0
    7.1503  -25.6396  -14.8542 H   0  0  0  0  0  0  0  0  0  0  0  0
    8.6938  -26.2290  -12.3011 H   0  0  0  0  0  0  0  0  0  0  0  0
    9.5224  -25.7207  -15.1871 H   0  0  0  0  0  0  0  0  0  0  0  0
   10.9141  -27.1021  -13.2703 H   0  0  0  0  0  0  0  0  0  0  0  0
   11.3200  -27.1698  -15.7046 H   0  0  0  0  0  0  0  0  0  0  0  0
   11.1973  -24.5945  -15.8163 H   0  0  0  0  0  0  0  0  0  0  0  0
   13.0055  -24.7461  -15.5536 H   0  0  0  0  0  0  0  0  0  0  0  0
    8.1887  -30.1168  -14.2496 H   0  0  0  0  0  0  0  0  0  0  0  0
    7.2809  -29.9365  -15.7891 H   0  0  0  0  0  0  0  0  0  0  0  0
    9.0752  -29.8514  -15.7891 H   0  0  0  0  0  0  0  0  0  0  0  0
    8.9213  -28.3699  -13.1204 H   0  0  0  0  0  0  0  0  0  0  0  0
    7.5414  -23.0091  -15.5818 H   0  0  0  0  0  0  0  0  0  0  0  0
    6.2575  -26.1478  -12.1396 H   0  0  0  0  0  0  0  0  0  0  0  0
   11.7105  -25.4025  -12.0611 H   0  0  0  0  0  0  0  0  0  0  0  0
   13.2140  -27.0794  -13.7335 H   0  0  0  0  0  0  0  0  0  0  0  0
   12.9005  -26.2623  -17.4135 H   0  0  0  0  0  0  0  0  0  0  0  0
  1  2  1  0
  1 13  2  0
  1 14  1  0
  2  3  1  0
  2 15  1  6
  2 17  1  0
  3  4  1  0
  4  5  1  0
  4 16  1  0
  5  6  1  0
  5 12  1  0
  6  7  1  0
  6 17  1  0
  7  8  1  0
  7 18  1  0
  8  9  1  0
  8 19  1  0
  9 20  1  0
 10 11  1  0
 10 12  1  0
 10 21  2  0
  3 22  1  0
  3 23  1  0
  4 24  1  6
  5 25  1  1
  6 26  1  6
  7 27  1  1
  8 28  1  6
  9 29  1  0
  9 30  1  0
 11 31  1  0
 11 32  1  0
 11 33  1  0
 12 34  1  0
 15 35  1  0
 16 36  1  0
 18 37  1  0
 19 38  1  0
 20 39  1  0
M  CHG  1  14  -1
M  END
>  <filename_input>  (24) 
7T3E_SLB_docked.sdf

>  <pdb_id>  (24) 
7T3E_SLB

>  <pose_rank>  (24) 
23

>  <num_atoms_heavy>  (24) 
21

>  <num_torsions>  (24) 
5

>  <pose>  (24) 
[8.562888855900775, -23.476183991013563, -13.972268347736865, -0.1506272968890511, 0.5452404683946472, -2.3163688991836104, 2.6021148028069696, -1.9192658266895843, -0.9322137251931505, 4.0543391111387175, -3.6976075767757854]

>  <energy>  (24) 
-57.44927273627036

>  <inter_energy>  (24) 
-85.07696620692994

>  <intra_energy>  (24) 
30.119202478924915

>  <rmsd>  (24) 
12.6549

>  <sdf_rank>  (24) 
0

$$$$

     RDKit          3D

 39 39  0  0  0  0  0  0  0  0999 V2000
   24.1660  -27.0774  -26.6735 C   0  0  0  0  0  0  0  0  0  0  0  0
   22.8295  -27.8050  -26.7842 C   0  0  1  0  0  0  0  0  0  0  0  0
   22.8886  -29.2238  -26.2659 C   0  0  0  0  0  0  0  0  0  0  0  0
   21.6439  -29.9604  -26.6209 C   0  0  1  0  0  0  0  0  0  0  0  0
   21.4610  -29.9302  -28.1240 C   0  0  2  0  0  0  0  0  0  0  0  0
   21.3473  -28.4759  -28.5665 C   0  0  2  0  0  0  0  0  0  0  0  0
   21.1913  -28.2885  -30.0537 C   0  0  1  0  0  0  0  0  0  0  0  0
   21.8930  -29.3881  -30.8582 C   0  0  1  0  0  0  0  0  0  0  0  0
   21.3943  -29.4497  -32.2718 C   0  0  0  0  0  0  0  0  0  0  0  0
   19.0260  -30.4078  -27.9656 C   0  0  0  0  0  0  0  0  0  0  0  0
   17.8969  -31.2414  -28.5364 C   0  0  0  0  0  0  0  0  0  0  0  0
   20.2621  -30.6286  -28.5344 N   0  0  0  0  0  0  0  0  0  0  0  0
   24.4552  -26.5605  -25.5525 O   0  0  0  0  0  0  0  0  0  0  0  0
   24.8963  -27.0183  -27.6983 O   0  0  0  0  0  0  0  0  0  0  0  0
   21.8143  -27.0860  -26.1495 O   0  0  0  0  0  0  0  0  0  0  0  0
   21.7377  -31.3218  -26.1404 O   0  0  0  0  0  0  0  0  0  0  0  0
   22.5527  -27.7748  -28.1983 O   0  0  0  0  0  0  0  0  0  0  0  0
   19.7863  -28.3171  -30.4109 O   0  0  0  0  0  0  0  0  0  0  0  0
   23.3048  -29.1666  -30.8180 O   0  0  0  0  0  0  0  0  0  0  0  0
   21.6629  -28.2804  -33.0408 O   0  0  0  0  0  0  0  0  0  0  0  0
   18.8557  -29.5943  -27.0744 O   0  0  0  0  0  0  0  0  0  0  0  0
   23.7529  -29.7368  -26.7128 H   0  0  0  0  0  0  0  0  0  0  0  0
   22.9876  -29.1989  -25.1706 H   0  0  0  0  0  0  0  0  0  0  0  0
   20.7720  -29.4836  -26.1492 H   0  0  0  0  0  0  0  0  0  0  0  0
   22.3255  -30.4290  -28.5866 H   0  0  0  0  0  0  0  0  0  0  0  0
   20.4432  -28.0910  -28.0720 H   0  0  0  0  0  0  0  0  0  0  0  0
   21.6502  -27.3186  -30.2962 H   0  0  0  0  0  0  0  0  0  0  0  0
   21.6620  -30.3622  -30.4024 H   0  0  0  0  0  0  0  0  0  0  0  0
   21.8731  -30.3062  -32.7688 H   0  0  0  0  0  0  0  0  0  0  0  0
   20.2998  -29.5445  -32.2154 H   0  0  0  0  0  0  0  0  0  0  0  0
   17.3093  -31.6751  -27.7138 H   0  0  0  0  0  0  0  0  0  0  0  0
   17.2474  -30.6045  -29.1548 H   0  0  0  0  0  0  0  0  0  0  0  0
   18.3142  -32.0497  -29.1548 H   0  0  0  0  0  0  0  0  0  0  0  0
   20.3360  -31.3256  -29.2891 H   0  0  0  0  0  0  0  0  0  0  0  0
   21.9205  -27.1612  -25.1681 H   0  0  0  0  0  0  0  0  0  0  0  0
   21.7378  -31.3231  -25.1504 H   0  0  0  0  0  0  0  0  0  0  0  0
   19.2367  -28.3283  -29.5875 H   0  0  0  0  0  0  0  0  0  0  0  0
   23.6047  -29.1195  -29.8757 H   0  0  0  0  0  0  0  0  0  0  0  0
   21.8379  -27.5187  -32.4331 H   0  0  0  0  0  0  0  0  0  0  0  0
  1  2  1  0
  1 13  2  0
  1 14  1  0
  2  3  1  0
  2 15  1  1
  2 17  1  0
  3  4  1  0
  4  5  1  0
  4 16  1  0
  5  6  1  0
  5 12  1  0
  6  7  1  0
  6 17  1  0
  7  8  1  0
  7 18  1  0
  8  9  1  0
  8 19  1  0
  9 20  1  0
 10 11  1  0
 10 12  1  0
 10 21  2  0
  3 22  1  0
  3 23  1  0
  4 24  1  1
  5 25  1  6
  6 26  1  1
  7 27  1  6
  8 28  1  1
  9 29  1  0
  9 30  1  0
 11 31  1  0
 11 32  1  0
 11 33  1  0
 12 34  1  0
 15 35  1  0
 16 36  1  0
 18 37  1  0
 19 38  1  0
 20 39  1  0
M  CHG  1  14  -1
M  END
>  <filename_input>  (25) 
7T3E_SLB_docked.sdf

>  <pdb_id>  (25) 
7T3E_SLB

>  <pose_rank>  (25) 
24

>  <num_atoms_heavy>  (25) 
21

>  <num_torsions>  (25) 
5

>  <pose>  (25) 
[22.829459979811908, -27.80498897271788, -26.784180479319364, -1.5599739433918511, 2.3332264138564858, -1.2291560194113154, 8.994211463461333, -5.727117197826053, -10.021052757968338, -0.42070726317178675, 0.11505167948020543]

>  <energy>  (25) 
-88.16797719644231

>  <inter_energy>  (25) 
-131.6422764845756

>  <intra_energy>  (25) 
52.461180131994844

>  <rmsd>  (25) 
12.1184

>  <sdf_rank>  (25) 
0

$$$$

     RDKit          3D

 39 39  0  0  0  0  0  0  0  0999 V2000
   13.4730  -24.4060  -24.2930 C   0  0  0  0  0  0  0  0  0  0  0  0
   14.6610  -23.4580  -24.4270 C   0  0  1  0  0  0  0  0  0  0  0  0
   15.9560  -24.0670  -23.9400 C   0  0  0  0  0  0  0  0  0  0  0  0
   17.0220  -23.0300  -23.8610 C   0  0  1  0  0  0  0  0  0  0  0  0
   16.5610  -21.9130  -22.9480 C   0  0  2  0  0  0  0  0  0  0  0  0
   15.2900  -21.3070  -23.5320 C   0  0  2  0  0  0  0  0  0  0  0  0
   14.6950  -20.1950  -22.7070 C   0  0  1  0  0  0  0  0  0  0  0  0
   13.3760  -19.6760  -23.2900 C   0  0  1  0  0  0  0  0  0  0  0  0
   12.8740  -18.4720  -22.5490 C   0  0  0  0  0  0  0  0  0  0  0  0
   18.3370  -20.6890  -21.7110 C   0  0  0  0  0  0  0  0  0  0  0  0
   19.3180  -19.5370  -21.7880 C   0  0  0  0  0  0  0  0  0  0  0  0
   17.5550  -20.8680  -22.8320 N   0  0  0  0  0  0  0  0  0  0  0  0
   12.9250  -24.8060  -25.3640 O   0  0  0  0  0  0  0  0  0  0  0  0
   13.0960  -24.7250  -23.1340 O   0  0  0  0  0  0  0  0  0  0  0  0
   14.7900  -23.0000  -25.7400 O   0  0  0  0  0  0  0  0  0  0  0  0
   18.2410  -23.6310  -23.3650 O   0  0  0  0  0  0  0  0  0  0  0  0
   14.2760  -22.3290  -23.6180 O   0  0  0  0  0  0  0  0  0  0  0  0
   14.4210  -20.6680  -21.3640 O   0  0  0  0  0  0  0  0  0  0  0  0
   13.5610  -19.3880  -24.6780 O   0  0  0  0  0  0  0  0  0  0  0  0
   13.7900  -17.3810  -22.5120 O   0  0  0  0  0  0  0  0  0  0  0  0
   18.2490  -21.4120  -20.7340 O   0  0  0  0  0  0  0  0  0  0  0  0
   15.7989  -24.5016  -22.9418 H   0  0  0  0  0  0  0  0  0  0  0  0
   16.2707  -24.8479  -24.6480 H   0  0  0  0  0  0  0  0  0  0  0  0
   17.2205  -22.6117  -24.8588 H   0  0  0  0  0  0  0  0  0  0  0  0
   16.3869  -22.3353  -21.9473 H   0  0  0  0  0  0  0  0  0  0  0  0
   15.5859  -20.8944  -24.5078 H   0  0  0  0  0  0  0  0  0  0  0  0
   15.4320  -19.3784  -22.7052 H   0  0  0  0  0  0  0  0  0  0  0  0
   12.6082  -20.4555  -23.1768 H   0  0  0  0  0  0  0  0  0  0  0  0
   11.9493  -18.1288  -23.0360 H   0  0  0  0  0  0  0  0  0  0  0  0
   12.7175  -18.7868  -21.5067 H   0  0  0  0  0  0  0  0  0  0  0  0
   19.5896  -19.2181  -20.7709 H   0  0  0  0  0  0  0  0  0  0  0  0
   20.2221  -19.8606  -22.3245 H   0  0  0  0  0  0  0  0  0  0  0  0
   18.8545  -18.6960  -22.3245 H   0  0  0  0  0  0  0  0  0  0  0  0
   17.6848  -20.2258  -23.6267 H   0  0  0  0  0  0  0  0  0  0  0  0
   15.0584  -22.0471  -25.7322 H   0  0  0  0  0  0  0  0  0  0  0  0
   18.2320  -23.6266  -22.3751 H   0  0  0  0  0  0  0  0  0  0  0  0
   14.7920  -20.0276  -20.7065 H   0  0  0  0  0  0  0  0  0  0  0  0
   14.0935  -18.5590  -24.7749 H   0  0  0  0  0  0  0  0  0  0  0  0
   13.9865  -17.1469  -21.5704 H   0  0  0  0  0  0  0  0  0  0  0  0
  1  2  1  0
  1 13  2  0
  1 14  1  0
  2  3  1  0
  2 15  1  6
  2 17  1  0
  3  4  1  0
  4  5  1  0
  4 16  1  0
  5  6  1  0
  5 12  1  0
  6  7  1  0
  6 17  1  0
  7  8  1  0
  7 18  1  0
  8  9  1  0
  8 19  1  0
  9 20  1  0
 10 11  1  0
 10 12  1  0
 10 21  2  0
  3 22  1  0
  3 23  1  0
  4 24  1  6
  5 25  1  1
  6 26  1  6
  7 27  1  1
  8 28  1  6
  9 29  1  0
  9 30  1  0
 11 31  1  0
 11 32  1  0
 11 33  1  0
 12 34  1  0
 15 35  1  0
 16 36  1  0
 18 37  1  0
 19 38  1  0
 20 39  1  0
M  CHG  1  14  -1
M  END
>  <filename_input>  (26) 
7T3E_SLB_docked.sdf

>  <pdb_id>  (26) 
7T3E_SLB

>  <pose_rank>  (26) 
25

>  <num_atoms_heavy>  (26) 
21

>  <num_torsions>  (26) 
5

>  <pose>  (26) 
[14.661, -23.458, -24.427, 1e-06, 1e-06, 1e-06, 0.0, 0.0, 0.0, 0.0, 0.0]

>  <energy>  (26) 
-931.6590227207271

>  <inter_energy>  (26) 
-925.2565487354619

>  <intra_energy>  (26) 
2.651488380847034

>  <rmsd>  (26) 
0.0

>  <sdf_rank>  (26) 
0

$$$$
