
     RDKit          3D

 64 66  0  0  0  0  0  0  0  0999 V2000
   25.8038  -27.0803   36.4417 C   0  0  1  0  0  0  0  0  0  0  0  0
   24.3715  -26.7457   35.9884 C   0  0  1  0  0  0  0  0  0  0  0  0
   23.7738  -27.8767   35.1597 C   0  0  2  0  0  0  0  0  0  0  0  0
   24.7158  -28.2756   34.0351 C   0  0  1  0  0  0  0  0  0  0  0  0
   26.1235  -28.5388   34.5874 C   0  0  1  0  0  0  0  0  0  0  0  0
   27.1222  -28.8389   33.4878 C   0  0  0  0  0  0  0  0  0  0  0  0
   22.8943  -25.3113   37.2787 C   0  0  0  0  0  0  0  0  0  0  0  0
   22.0748  -25.1590   38.5334 C   0  0  0  0  0  0  0  0  0  0  0  0
   23.5729  -26.4430   37.1543 N   0  0  0  0  0  0  0  0  0  0  0  0
   25.6877  -28.1689   37.3308 O   0  0  0  0  0  0  0  0  0  0  0  0
   22.4620  -27.4960   34.7040 O   0  0  0  0  0  0  0  0  0  0  0  0
   24.2733  -29.4868   33.4196 O   0  0  0  0  0  0  0  0  0  0  0  0
   26.5984  -27.3822   35.3026 O   0  0  0  0  0  0  0  0  0  0  0  0
   26.9913  -27.9966   32.3271 O   0  0  0  0  0  0  0  0  0  0  0  0
   22.8714  -24.4764   36.3513 O   0  0  0  0  0  0  0  0  0  0  0  0
   29.3937  -33.8409   42.4835 N   0  0  0  0  0  0  0  0  0  0  0  0
   29.7688  -35.0856   42.9852 C   0  0  0  0  0  0  0  0  0  0  0  0
   29.8283  -36.0997   42.0476 N   0  0  0  0  0  0  0  0  0  0  0  0
   29.5111  -36.0092   40.7098 C   0  0  0  0  0  0  0  0  0  0  0  0
   29.1456  -34.6938   40.2761 C   0  0  0  0  0  0  0  0  0  0  0  0
   29.0877  -33.6962   41.1558 C   0  0  0  0  0  0  0  0  0  0  0  0
   30.0025  -35.2571   44.1666 O   0  0  0  0  0  0  0  0  0  0  0  0
   29.5712  -37.0072   39.9812 O   0  0  0  0  0  0  0  0  0  0  0  0
   29.2320  -32.7507   43.4695 C   0  0  1  0  0  0  0  0  0  0  0  0
   30.3774  -31.7710   43.5505 C   0  0  2  0  0  0  0  0  0  0  0  0
   30.4171  -31.3430   44.9207 O   0  0  0  0  0  0  0  0  0  0  0  0
   29.7944  -30.6243   42.7921 C   0  0  1  0  0  0  0  0  0  0  0  0
   28.3282  -30.6186   43.2534 C   0  0  2  0  0  0  0  0  0  0  0  0
   28.0250  -32.0232   43.2620 O   0  0  0  0  0  0  0  0  0  0  0  0
   30.4849  -29.5341   43.3558 O   0  0  0  0  0  0  0  0  0  0  0  0
   27.3364  -29.9649   42.3005 C   0  0  0  0  0  0  0  0  0  0  0  0
   27.6520  -30.4158   40.9757 O   0  0  0  0  0  0  0  0  0  0  0  0
   26.5263  -30.8490   39.8898 P   0  0  2  0  0  0  0  0  0  0  0  0
   25.1278  -30.5779   40.3382 O   0  0  0  0  0  0  0  0  0  0  0  0
   26.8186  -32.2411   39.4656 O   0  0  0  0  0  0  0  0  0  0  0  0
   26.8913  -29.8336   38.7065 O   0  0  0  0  0  0  0  0  0  0  0  0
   26.6817  -28.2503   38.5985 P   0  0  1  0  0  0  0  0  0  0  0  0
   27.9427  -27.5209   38.3082 O   0  0  0  0  0  0  0  0  0  0  0  0
   25.8556  -27.8147   39.7721 O   0  0  0  0  0  0  0  0  0  0  0  0
   26.3003  -26.2412   36.9509 H   0  0  0  0  0  0  0  0  0  0  0  0
   24.3881  -25.8629   35.3323 H   0  0  0  0  0  0  0  0  0  0  0  0
   23.6518  -28.7770   35.7798 H   0  0  0  0  0  0  0  0  0  0  0  0
   24.7292  -27.4514   33.3067 H   0  0  0  0  0  0  0  0  0  0  0  0
   26.0429  -29.4128   35.2504 H   0  0  0  0  0  0  0  0  0  0  0  0
   28.1351  -28.7087   33.8964 H   0  0  0  0  0  0  0  0  0  0  0  0
   26.9267  -29.8690   33.1551 H   0  0  0  0  0  0  0  0  0  0  0  0
   22.7246  -25.2797   39.4127 H   0  0  0  0  0  0  0  0  0  0  0  0
   21.6147  -24.1600   38.5519 H   0  0  0  0  0  0  0  0  0  0  0  0
   21.2866  -25.9261   38.5519 H   0  0  0  0  0  0  0  0  0  0  0  0
   23.5294  -27.1331   37.9177 H   0  0  0  0  0  0  0  0  0  0  0  0
   21.8777  -27.3265   35.4850 H   0  0  0  0  0  0  0  0  0  0  0  0
   24.0331  -30.1442   34.1198 H   0  0  0  0  0  0  0  0  0  0  0  0
   26.8459  -27.0602   32.6136 H   0  0  0  0  0  0  0  0  0  0  0  0
   30.1433  -37.0206   42.3848 H   0  0  0  0  0  0  0  0  0  0  0  0
   28.9130  -34.5081   39.2171 H   0  0  0  0  0  0  0  0  0  0  0  0
   28.7778  -32.7033   40.7978 H   0  0  0  0  0  0  0  0  0  0  0  0
   29.2055  -33.2858   44.4302 H   0  0  0  0  0  0  0  0  0  0  0  0
   31.3571  -32.1351   43.2076 H   0  0  0  0  0  0  0  0  0  0  0  0
   30.3439  -32.1315   45.5149 H   0  0  0  0  0  0  0  0  0  0  0  0
   29.8608  -30.6334   41.6941 H   0  0  0  0  0  0  0  0  0  0  0  0
   28.2346  -30.0548   44.1932 H   0  0  0  0  0  0  0  0  0  0  0  0
   30.4468  -29.5943   44.3432 H   0  0  0  0  0  0  0  0  0  0  0  0
   26.3105  -30.2616   42.5641 H   0  0  0  0  0  0  0  0  0  0  0  0
   27.4027  -28.8687   42.3634 H   0  0  0  0  0  0  0  0  0  0  0  0
  1  2  1  0
  1 10  1  0
  1 13  1  0
  2  3  1  0
  2  9  1  0
  3  4  1  0
  3 11  1  0
  4  5  1  0
  4 12  1  0
  5  6  1  0
  5 13  1  0
  6 14  1  0
  7  8  1  0
  7  9  1  0
  7 15  2  0
 10 37  1  0
 16 17  1  0
 16 21  1  0
 24 16  1  0
 17 18  1  0
 17 22  2  0
 18 19  1  0
 19 20  1  0
 19 23  2  0
 20 21  2  0
 24 25  1  0
 24 29  1  0
 25 26  1  0
 25 27  1  0
 27 28  1  0
 27 30  1  0
 28 29  1  0
 28 31  1  0
 31 32  1  0
 32 33  1  0
 33 34  2  0
 33 35  1  6
 33 36  1  0
 36 37  1  0
 37 38  2  0
 37 39  1  1
  1 40  1  1
  2 41  1  6
  3 42  1  1
  4 43  1  6
  5 44  1  1
  6 45  1  0
  6 46  1  0
  8 47  1  0
  8 48  1  0
  8 49  1  0
  9 50  1  0
 11 51  1  0
 12 52  1  0
 14 53  1  0
 18 54  1  0
 20 55  1  0
 21 56  1  0
 24 57  1  1
 25 58  1  6
 26 59  1  0
 27 60  1  6
 28 61  1  1
 30 62  1  0
 31 63  1  0
 31 64  1  0
M  CHG  2  35  -1  39  -1
M  END
>  <filename_input>  (1) 
7TB0_UD1_docked.sdf

>  <pdb_id>  (1) 
7TB0_UD1

>  <pose_rank>  (1) 
0

>  <num_atoms_heavy>  (1) 
39

>  <num_torsions>  (1) 
10

>  <pose>  (1) 
[26.526343709541575, -30.849030830995122, 39.88979627431462, 3.02535064900924, -0.28944182715457833, 5.435011325850319, -81.50341727285964, -43.99197185484415, 18.76685719570746, 0.3337146455769134, -66.30515586641773, -61.4330348310882, -57.72801437147727, -43.57699757667796, 19.74005715242567, -0.15776254895818315]

>  <energy>  (1) 
-926.2237248387723

>  <inter_energy>  (1) 
-937.353053491104

>  <intra_energy>  (1) 
16.62145293762065

>  <rmsd>  (1) 
3.43509

>  <sdf_rank>  (1) 
0

$$$$

     RDKit          3D

 64 66  0  0  0  0  0  0  0  0999 V2000
   25.5212  -28.8263   37.0013 C   0  0  1  0  0  0  0  0  0  0  0  0
   25.4834  -27.5999   36.0720 C   0  0  1  0  0  0  0  0  0  0  0  0
   25.9839  -26.3489   36.7844 C   0  0  2  0  0  0  0  0  0  0  0  0
   25.2638  -26.1601   38.1100 C   0  0  1  0  0  0  0  0  0  0  0  0
   25.3196  -27.4529   38.9354 C   0  0  1  0  0  0  0  0  0  0  0  0
   24.5252  -27.3448   40.2215 C   0  0  0  0  0  0  0  0  0  0  0  0
   25.7471  -28.5719   33.8606 C   0  0  0  0  0  0  0  0  0  0  0  0
   26.6554  -28.7618   32.6741 C   0  0  0  0  0  0  0  0  0  0  0  0
   26.2496  -27.8934   34.8823 N   0  0  0  0  0  0  0  0  0  0  0  0
   26.8841  -29.0726   37.2676 O   0  0  0  0  0  0  0  0  0  0  0  0
   25.8713  -25.2168   35.9018 O   0  0  0  0  0  0  0  0  0  0  0  0
   25.9005  -25.1409   38.8830 O   0  0  0  0  0  0  0  0  0  0  0  0
   24.7723  -28.5482   38.1767 O   0  0  0  0  0  0  0  0  0  0  0  0
   25.3348  -27.2865   41.4110 O   0  0  0  0  0  0  0  0  0  0  0  0
   24.5536  -28.9371   33.8631 O   0  0  0  0  0  0  0  0  0  0  0  0
   30.4178  -32.7060   45.0702 N   0  0  0  0  0  0  0  0  0  0  0  0
   31.5075  -32.6802   45.9382 C   0  0  0  0  0  0  0  0  0  0  0  0
   31.3771  -31.8225   47.0146 N   0  0  0  0  0  0  0  0  0  0  0  0
   30.3213  -30.9763   47.2748 C   0  0  0  0  0  0  0  0  0  0  0  0
   29.2407  -31.0735   46.3396 C   0  0  0  0  0  0  0  0  0  0  0  0
   29.3355  -31.8971   45.2979 C   0  0  0  0  0  0  0  0  0  0  0  0
   32.5021  -33.3519   45.7394 O   0  0  0  0  0  0  0  0  0  0  0  0
   30.3448  -30.2272   48.2591 O   0  0  0  0  0  0  0  0  0  0  0  0
   30.5552  -33.5436   43.8594 C   0  0  1  0  0  0  0  0  0  0  0  0
   29.4045  -34.4803   43.5817 C   0  0  2  0  0  0  0  0  0  0  0  0
   29.9906  -35.6264   42.9454 O   0  0  0  0  0  0  0  0  0  0  0  0
   28.7139  -33.7293   42.4912 C   0  0  1  0  0  0  0  0  0  0  0  0
   29.8839  -33.1742   41.6634 C   0  0  2  0  0  0  0  0  0  0  0  0
   30.7929  -32.7576   42.6954 O   0  0  0  0  0  0  0  0  0  0  0  0
   28.0761  -34.7721   41.7919 O   0  0  0  0  0  0  0  0  0  0  0  0
   29.5771  -31.9382   40.8284 C   0  0  0  0  0  0  0  0  0  0  0  0
   28.2984  -32.1431   40.2112 O   0  0  0  0  0  0  0  0  0  0  0  0
   27.1549  -30.9944   40.1272 P   0  0  2  0  0  0  0  0  0  0  0  0
   27.6800  -29.6120   40.3358 O   0  0  0  0  0  0  0  0  0  0  0  0
   26.0329  -31.4073   41.0070 O   0  0  0  0  0  0  0  0  0  0  0  0
   26.7274  -31.1542   38.5922 O   0  0  0  0  0  0  0  0  0  0  0  0
   27.4178  -30.5947   37.2608 P   0  0  1  0  0  0  0  0  0  0  0  0
   26.9554  -31.2940   36.0346 O   0  0  0  0  0  0  0  0  0  0  0  0
   28.8925  -30.4934   37.5153 O   0  0  0  0  0  0  0  0  0  0  0  0
   25.0674  -29.7211   36.5504 H   0  0  0  0  0  0  0  0  0  0  0  0
   24.4440  -27.3892   35.7801 H   0  0  0  0  0  0  0  0  0  0  0  0
   27.0491  -26.4573   37.0367 H   0  0  0  0  0  0  0  0  0  0  0  0
   24.2230  -25.8844   37.8847 H   0  0  0  0  0  0  0  0  0  0  0  0
   26.3784  -27.6255   39.1785 H   0  0  0  0  0  0  0  0  0  0  0  0
   23.9146  -26.4310   40.1743 H   0  0  0  0  0  0  0  0  0  0  0  0
   23.9179  -28.2589   40.2963 H   0  0  0  0  0  0  0  0  0  0  0  0
   27.6762  -28.9751   33.0242 H   0  0  0  0  0  0  0  0  0  0  0  0
   26.2930  -29.6036   32.0658 H   0  0  0  0  0  0  0  0  0  0  0  0
   26.6605  -27.8453   32.0658 H   0  0  0  0  0  0  0  0  0  0  0  0
   27.2235  -27.5627   34.8263 H   0  0  0  0  0  0  0  0  0  0  0  0
   25.7889  -24.3880   36.4370 H   0  0  0  0  0  0  0  0  0  0  0  0
   25.7800  -25.3337   39.8465 H   0  0  0  0  0  0  0  0  0  0  0  0
   24.7513  -27.3285   42.2097 H   0  0  0  0  0  0  0  0  0  0  0  0
   32.1512  -31.8153   47.6940 H   0  0  0  0  0  0  0  0  0  0  0  0
   28.3333  -30.4682   46.4819 H   0  0  0  0  0  0  0  0  0  0  0  0
   28.5009  -31.9300   44.5822 H   0  0  0  0  0  0  0  0  0  0  0  0
   31.4267  -34.1738   44.0901 H   0  0  0  0  0  0  0  0  0  0  0  0
   28.7861  -34.7644   44.4459 H   0  0  0  0  0  0  0  0  0  0  0  0
   30.3136  -36.2580   43.6359 H   0  0  0  0  0  0  0  0  0  0  0  0
   28.0134  -32.9277   42.7683 H   0  0  0  0  0  0  0  0  0  0  0  0
   30.2212  -33.9307   40.9395 H   0  0  0  0  0  0  0  0  0  0  0  0
   27.6849  -35.4119   42.4382 H   0  0  0  0  0  0  0  0  0  0  0  0
   29.5448  -31.0476   41.4731 H   0  0  0  0  0  0  0  0  0  0  0  0
   30.3550  -31.7816   40.0666 H   0  0  0  0  0  0  0  0  0  0  0  0
  1  2  1  0
  1 10  1  0
  1 13  1  0
  2  3  1  0
  2  9  1  0
  3  4  1  0
  3 11  1  0
  4  5  1  0
  4 12  1  0
  5  6  1  0
  5 13  1  0
  6 14  1  0
  7  8  1  0
  7  9  1  0
  7 15  2  0
 10 37  1  0
 16 17  1  0
 16 21  1  0
 24 16  1  0
 17 18  1  0
 17 22  2  0
 18 19  1  0
 19 20  1  0
 19 23  2  0
 20 21  2  0
 24 25  1  0
 24 29  1  0
 25 26  1  0
 25 27  1  0
 27 28  1  0
 27 30  1  0
 28 29  1  0
 28 31  1  0
 31 32  1  0
 32 33  1  0
 33 34  2  0
 33 35  1  1
 33 36  1  0
 36 37  1  0
 37 38  2  0
 37 39  1  1
  1 40  1  6
  2 41  1  6
  3 42  1  1
  4 43  1  6
  5 44  1  1
  6 45  1  0
  6 46  1  0
  8 47  1  0
  8 48  1  0
  8 49  1  0
  9 50  1  0
 11 51  1  0
 12 52  1  0
 14 53  1  0
 18 54  1  0
 20 55  1  0
 21 56  1  0
 24 57  1  1
 25 58  1  1
 26 59  1  0
 27 60  1  1
 28 61  1  6
 30 62  1  0
 31 63  1  0
 31 64  1  0
M  CHG  2  35  -1  39  -1
M  END
>  <filename_input>  (2) 
7TB0_UD1_docked.sdf

>  <pdb_id>  (2) 
7TB0_UD1

>  <pose_rank>  (2) 
1

>  <num_atoms_heavy>  (2) 
39

>  <num_torsions>  (2) 
10

>  <pose>  (2) 
[27.154866123348757, -30.994419435700017, 40.12716613764927, -0.7096069656991634, 0.8675470584817534, -1.400238544424125, -93.86644729304435, -144.54326668602025, -76.99756797929317, 13.411920428651898, 34.06858398316905, -41.91961012520224, -68.99028280973286, -30.90015672548887, -6.142249754673456, -2.79461877411165]

>  <energy>  (2) 
-902.1641430635805

>  <inter_energy>  (2) 
-912.9157572004617

>  <intra_energy>  (2) 
15.331659462490169

>  <rmsd>  (2) 
3.33023

>  <sdf_rank>  (2) 
0

$$$$

     RDKit          3D

 64 66  0  0  0  0  0  0  0  0999 V2000
   25.6767  -28.6431   37.5591 C   0  0  1  0  0  0  0  0  0  0  0  0
   25.6814  -27.6520   36.3816 C   0  0  1  0  0  0  0  0  0  0  0  0
   26.6182  -26.4794   36.6477 C   0  0  2  0  0  0  0  0  0  0  0  0
   26.3240  -25.8521   38.0009 C   0  0  1  0  0  0  0  0  0  0  0  0
   26.2945  -26.9303   39.0929 C   0  0  1  0  0  0  0  0  0  0  0  0
   25.9021  -26.3657   40.4434 C   0  0  0  0  0  0  0  0  0  0  0  0
   25.2059  -28.4612   34.1403 C   0  0  0  0  0  0  0  0  0  0  0  0
   25.7282  -29.2015   32.9369 C   0  0  0  0  0  0  0  0  0  0  0  0
   26.0300  -28.3653   35.1740 N   0  0  0  0  0  0  0  0  0  0  0  0
   26.9696  -29.2049   37.6019 O   0  0  0  0  0  0  0  0  0  0  0  0
   26.5432  -25.5475   35.5527 O   0  0  0  0  0  0  0  0  0  0  0  0
   27.3517  -24.9245   38.3548 O   0  0  0  0  0  0  0  0  0  0  0  0
   25.3373  -27.9518   38.7536 O   0  0  0  0  0  0  0  0  0  0  0  0
   24.7345  -25.5233   40.4131 O   0  0  0  0  0  0  0  0  0  0  0  0
   24.1024  -27.8781   34.1484 O   0  0  0  0  0  0  0  0  0  0  0  0
   27.8579  -30.9438   43.4497 N   0  0  0  0  0  0  0  0  0  0  0  0
   28.0076  -29.5644   43.5782 C   0  0  0  0  0  0  0  0  0  0  0  0
   26.8586  -28.8285   43.3555 N   0  0  0  0  0  0  0  0  0  0  0  0
   25.6254  -29.3141   42.9789 C   0  0  0  0  0  0  0  0  0  0  0  0
   25.5566  -30.7414   42.8794 C   0  0  0  0  0  0  0  0  0  0  0  0
   26.6456  -31.4758   43.0964 C   0  0  0  0  0  0  0  0  0  0  0  0
   29.0808  -29.0577   43.8458 O   0  0  0  0  0  0  0  0  0  0  0  0
   24.6819  -28.5406   42.7738 O   0  0  0  0  0  0  0  0  0  0  0  0
   29.0831  -31.7592   43.5925 C   0  0  1  0  0  0  0  0  0  0  0  0
   28.8646  -33.1981   43.9928 C   0  0  2  0  0  0  0  0  0  0  0  0
   30.0139  -33.5548   44.7763 O   0  0  0  0  0  0  0  0  0  0  0  0
   29.0590  -33.8687   42.6728 C   0  0  1  0  0  0  0  0  0  0  0  0
   30.2255  -33.0801   42.0564 C   0  0  2  0  0  0  0  0  0  0  0  0
   29.8789  -31.7315   42.4113 O   0  0  0  0  0  0  0  0  0  0  0  0
   29.4938  -35.1483   43.0687 O   0  0  0  0  0  0  0  0  0  0  0  0
   30.3222  -33.1193   40.5371 C   0  0  0  0  0  0  0  0  0  0  0  0
   29.1963  -32.3992   40.0160 O   0  0  0  0  0  0  0  0  0  0  0  0
   29.2659  -30.8420   39.5639 P   0  0  2  0  0  0  0  0  0  0  0  0
   30.6585  -30.3153   39.4471 O   0  0  0  0  0  0  0  0  0  0  0  0
   28.3480  -30.0741   40.4421 O   0  0  0  0  0  0  0  0  0  0  0  0
   28.6381  -30.9613   38.0956 O   0  0  0  0  0  0  0  0  0  0  0  0
   27.1230  -30.8106   37.6012 P   0  0  1  0  0  0  0  0  0  0  0  0
   26.1471  -31.4187   38.5416 O   0  0  0  0  0  0  0  0  0  0  0  0
   27.0693  -31.2083   36.1560 O   0  0  0  0  0  0  0  0  0  0  0  0
   24.9316  -29.4440   37.4435 H   0  0  0  0  0  0  0  0  0  0  0  0
   24.6778  -27.2186   36.2592 H   0  0  0  0  0  0  0  0  0  0  0  0
   27.6590  -26.8310   36.7021 H   0  0  0  0  0  0  0  0  0  0  0  0
   25.3510  -25.3446   37.9258 H   0  0  0  0  0  0  0  0  0  0  0  0
   27.3125  -27.3423   39.1557 H   0  0  0  0  0  0  0  0  0  0  0  0
   25.7038  -27.2063   41.1246 H   0  0  0  0  0  0  0  0  0  0  0  0
   26.7389  -25.7350   40.7781 H   0  0  0  0  0  0  0  0  0  0  0  0
   26.3330  -30.0586   33.2677 H   0  0  0  0  0  0  0  0  0  0  0  0
   24.8826  -29.5610   32.3321 H   0  0  0  0  0  0  0  0  0  0  0  0
   26.3503  -28.5254   32.3321 H   0  0  0  0  0  0  0  0  0  0  0  0
   26.9540  -28.8163   35.1143 H   0  0  0  0  0  0  0  0  0  0  0  0
   26.4691  -24.6264   35.9078 H   0  0  0  0  0  0  0  0  0  0  0  0
   27.4174  -24.8652   39.3408 H   0  0  0  0  0  0  0  0  0  0  0  0
   24.4509  -25.3188   41.3393 H   0  0  0  0  0  0  0  0  0  0  0  0
   26.9322  -27.8094   43.4849 H   0  0  0  0  0  0  0  0  0  0  0  0
   24.6049  -31.2303   42.6241 H   0  0  0  0  0  0  0  0  0  0  0  0
   26.5681  -32.5676   42.9862 H   0  0  0  0  0  0  0  0  0  0  0  0
   29.6083  -31.2749   44.4290 H   0  0  0  0  0  0  0  0  0  0  0  0
   27.9254  -33.4215   44.5200 H   0  0  0  0  0  0  0  0  0  0  0  0
   29.7916  -33.4858   45.7386 H   0  0  0  0  0  0  0  0  0  0  0  0
   28.2072  -33.9174   41.9784 H   0  0  0  0  0  0  0  0  0  0  0  0
   31.1824  -33.4884   42.4136 H   0  0  0  0  0  0  0  0  0  0  0  0
   29.5112  -35.1997   44.0573 H   0  0  0  0  0  0  0  0  0  0  0  0
   31.2578  -32.6437   40.2077 H   0  0  0  0  0  0  0  0  0  0  0  0
   30.3200  -34.1580   40.1749 H   0  0  0  0  0  0  0  0  0  0  0  0
  1  2  1  0
  1 10  1  0
  1 13  1  0
  2  3  1  0
  2  9  1  0
  3  4  1  0
  3 11  1  0
  4  5  1  0
  4 12  1  0
  5  6  1  0
  5 13  1  0
  6 14  1  0
  7  8  1  0
  7  9  1  0
  7 15  2  0
 10 37  1  0
 16 17  1  0
 16 21  1  0
 24 16  1  0
 17 18  1  0
 17 22  2  0
 18 19  1  0
 19 20  1  0
 19 23  2  0
 20 21  2  0
 24 25  1  0
 24 29  1  0
 25 26  1  0
 25 27  1  0
 27 28  1  0
 27 30  1  0
 28 29  1  0
 28 31  1  0
 31 32  1  0
 32 33  1  0
 33 34  2  0
 33 35  1  1
 33 36  1  0
 36 37  1  0
 37 38  2  0
 37 39  1  6
  1 40  1  6
  2 41  1  6
  3 42  1  1
  4 43  1  6
  5 44  1  1
  6 45  1  0
  6 46  1  0
  8 47  1  0
  8 48  1  0
  8 49  1  0
  9 50  1  0
 11 51  1  0
 12 52  1  0
 14 53  1  0
 18 54  1  0
 20 55  1  0
 21 56  1  0
 24 57  1  1
 25 58  1  1
 26 59  1  0
 27 60  1  6
 28 61  1  1
 30 62  1  0
 31 63  1  0
 31 64  1  0
M  CHG  2  35  -1  39  -1
M  END
>  <filename_input>  (3) 
7TB0_UD1_docked.sdf

>  <pdb_id>  (3) 
7TB0_UD1

>  <pose_rank>  (3) 
2

>  <num_atoms_heavy>  (3) 
39

>  <num_torsions>  (3) 
10

>  <pose>  (3) 
[29.265887714186654, -30.841970710107894, 39.56392422605187, 0.8394017620567169, -1.5299694595383997, 3.237143753120183, 0.282498306321593, -0.7302162899001512, 0.33602361714407564, 1.2966095995324114, -0.614638279148209, -1.4614348359597615, -1.501986614134227, 0.704622314029711, -5.519750723567961, -0.05169665981979713]

>  <energy>  (3) 
-793.9127419843688

>  <inter_energy>  (3) 
-839.3653313529769

>  <intra_energy>  (3) 
45.61560344931913

>  <rmsd>  (3) 
3.68214

>  <sdf_rank>  (3) 
0

$$$$

     RDKit          3D

 64 66  0  0  0  0  0  0  0  0999 V2000
   26.7455  -28.7993   36.3582 C   0  0  1  0  0  0  0  0  0  0  0  0
   25.7446  -27.6474   36.5586 C   0  0  1  0  0  0  0  0  0  0  0  0
   24.4415  -27.9093   35.8125 C   0  0  2  0  0  0  0  0  0  0  0  0
   24.7152  -28.2636   34.3596 C   0  0  1  0  0  0  0  0  0  0  0  0
   25.7590  -29.3854   34.2724 C   0  0  1  0  0  0  0  0  0  0  0  0
   26.1407  -29.7010   32.8401 C   0  0  0  0  0  0  0  0  0  0  0  0
   25.9129  -26.3559   38.6099 C   0  0  0  0  0  0  0  0  0  0  0  0
   25.5852  -26.2858   40.0785 C   0  0  0  0  0  0  0  0  0  0  0  0
   25.5328  -27.4557   37.9753 N   0  0  0  0  0  0  0  0  0  0  0  0
   26.1773  -29.9249   36.9902 O   0  0  0  0  0  0  0  0  0  0  0  0
   23.5613  -26.7813   35.9741 O   0  0  0  0  0  0  0  0  0  0  0  0
   23.5262  -28.7469   33.7315 O   0  0  0  0  0  0  0  0  0  0  0  0
   26.9599  -28.9988   34.9675 O   0  0  0  0  0  0  0  0  0  0  0  0
   26.7543  -28.6033   32.1383 O   0  0  0  0  0  0  0  0  0  0  0  0
   26.4229  -25.4033   37.9852 O   0  0  0  0  0  0  0  0  0  0  0  0
   28.9678  -33.6031   42.9041 N   0  0  0  0  0  0  0  0  0  0  0  0
   29.5571  -34.6348   43.6321 C   0  0  0  0  0  0  0  0  0  0  0  0
   29.9197  -35.7420   42.8879 N   0  0  0  0  0  0  0  0  0  0  0  0
   29.7124  -35.9367   41.5397 C   0  0  0  0  0  0  0  0  0  0  0  0
   29.1110  -34.8242   40.8669 C   0  0  0  0  0  0  0  0  0  0  0  0
   28.7589  -33.7415   41.5570 C   0  0  0  0  0  0  0  0  0  0  0  0
   29.7148  -34.5616   44.8361 O   0  0  0  0  0  0  0  0  0  0  0  0
   30.0531  -36.9956   40.9984 O   0  0  0  0  0  0  0  0  0  0  0  0
   28.4852  -32.4386   43.6772 C   0  0  1  0  0  0  0  0  0  0  0  0
   29.5266  -31.3948   44.0004 C   0  0  2  0  0  0  0  0  0  0  0  0
   29.1336  -30.8432   45.2666 O   0  0  0  0  0  0  0  0  0  0  0  0
   29.1770  -30.3548   42.9874 C   0  0  1  0  0  0  0  0  0  0  0  0
   27.6403  -30.3871   42.9796 C   0  0  2  0  0  0  0  0  0  0  0  0
   27.3830  -31.7995   43.0402 O   0  0  0  0  0  0  0  0  0  0  0  0
   29.6347  -29.1822   43.6187 O   0  0  0  0  0  0  0  0  0  0  0  0
   26.9733  -29.8770   41.7092 C   0  0  0  0  0  0  0  0  0  0  0  0
   27.9653  -29.1597   40.9612 O   0  0  0  0  0  0  0  0  0  0  0  0
   28.6595  -29.7415   39.6145 P   0  0  2  0  0  0  0  0  0  0  0  0
   29.7902  -30.6797   39.8824 O   0  0  0  0  0  0  0  0  0  0  0  0
   28.9612  -28.5905   38.7271 O   0  0  0  0  0  0  0  0  0  0  0  0
   27.4300  -30.5773   39.0194 O   0  0  0  0  0  0  0  0  0  0  0  0
   27.1516  -31.0918   37.5293 P   0  0  1  0  0  0  0  0  0  0  0  0
   26.4511  -32.4011   37.4935 O   0  0  0  0  0  0  0  0  0  0  0  0
   28.4203  -30.9359   36.7445 O   0  0  0  0  0  0  0  0  0  0  0  0
   27.7329  -28.5915   36.7962 H   0  0  0  0  0  0  0  0  0  0  0  0
   26.1578  -26.7206   36.1342 H   0  0  0  0  0  0  0  0  0  0  0  0
   23.9289  -28.7832   36.2409 H   0  0  0  0  0  0  0  0  0  0  0  0
   25.0767  -27.3530   33.8595 H   0  0  0  0  0  0  0  0  0  0  0  0
   25.3026  -30.2760   34.7290 H   0  0  0  0  0  0  0  0  0  0  0  0
   26.8478  -30.5435   32.8489 H   0  0  0  0  0  0  0  0  0  0  0  0
   25.2069  -29.9347   32.3077 H   0  0  0  0  0  0  0  0  0  0  0  0
   26.4942  -26.4802   40.6667 H   0  0  0  0  0  0  0  0  0  0  0  0
   25.1989  -25.2847   40.3206 H   0  0  0  0  0  0  0  0  0  0  0  0
   24.8232  -27.0412   40.3206 H   0  0  0  0  0  0  0  0  0  0  0  0
   25.0688  -28.2022   38.5123 H   0  0  0  0  0  0  0  0  0  0  0  0
   23.4240  -26.6053   36.9386 H   0  0  0  0  0  0  0  0  0  0  0  0
   22.8715  -29.0130   34.4248 H   0  0  0  0  0  0  0  0  0  0  0  0
   27.1168  -27.9547   32.7926 H   0  0  0  0  0  0  0  0  0  0  0  0
   30.3951  -36.5021   43.3951 H   0  0  0  0  0  0  0  0  0  0  0  0
   28.9403  -34.8645   39.7809 H   0  0  0  0  0  0  0  0  0  0  0  0
   28.2747  -32.9144   41.0172 H   0  0  0  0  0  0  0  0  0  0  0  0
   28.1781  -32.8853   44.6344 H   0  0  0  0  0  0  0  0  0  0  0  0
   30.5727  -31.7347   44.0098 H   0  0  0  0  0  0  0  0  0  0  0  0
   29.5208  -31.3867   45.9978 H   0  0  0  0  0  0  0  0  0  0  0  0
   29.5773  -30.4595   41.9682 H   0  0  0  0  0  0  0  0  0  0  0  0
   27.2493  -29.7464   43.7838 H   0  0  0  0  0  0  0  0  0  0  0  0
   29.5898  -29.2972   44.6010 H   0  0  0  0  0  0  0  0  0  0  0  0
   26.5955  -30.7236   41.1171 H   0  0  0  0  0  0  0  0  0  0  0  0
   26.1231  -29.2231   41.9530 H   0  0  0  0  0  0  0  0  0  0  0  0
  1  2  1  0
  1 10  1  0
  1 13  1  0
  2  3  1  0
  2  9  1  0
  3  4  1  0
  3 11  1  0
  4  5  1  0
  4 12  1  0
  5  6  1  0
  5 13  1  0
  6 14  1  0
  7  8  1  0
  7  9  1  0
  7 15  2  0
 10 37  1  0
 16 17  1  0
 16 21  1  0
 24 16  1  0
 17 18  1  0
 17 22  2  0
 18 19  1  0
 19 20  1  0
 19 23  2  0
 20 21  2  0
 24 25  1  0
 24 29  1  0
 25 26  1  0
 25 27  1  0
 27 28  1  0
 27 30  1  0
 28 29  1  0
 28 31  1  0
 31 32  1  0
 32 33  1  0
 33 34  2  0
 33 35  1  6
 33 36  1  0
 36 37  1  0
 37 38  2  0
 37 39  1  6
  1 40  1  1
  2 41  1  6
  3 42  1  1
  4 43  1  6
  5 44  1  1
  6 45  1  0
  6 46  1  0
  8 47  1  0
  8 48  1  0
  8 49  1  0
  9 50  1  0
 11 51  1  0
 12 52  1  0
 14 53  1  0
 18 54  1  0
 20 55  1  0
 21 56  1  0
 24 57  1  1
 25 58  1  1
 26 59  1  0
 27 60  1  6
 28 61  1  1
 30 62  1  0
 31 63  1  0
 31 64  1  0
M  CHG  2  35  -1  39  -1
M  END
>  <filename_input>  (4) 
7TB0_UD1_docked.sdf

>  <pdb_id>  (4) 
7TB0_UD1

>  <pose_rank>  (4) 
3

>  <num_atoms_heavy>  (4) 
39

>  <num_torsions>  (4) 
10

>  <pose>  (4) 
[28.659509482583037, -29.741526993328254, 39.614485218104306, -0.5495346741550582, -0.6389361057389505, -3.692568214524574, -1.3796236415947292, -0.5650932995406827, -7.395753255625809, 0.024936483079654834, -5.717454955905478, -17.081999036251307, -15.92199263198772, 12.797661741994682, 0.6919209028376284, 0.19498863495200222]

>  <energy>  (4) 
-857.651585812223

>  <inter_energy>  (4) 
-885.5657827510431

>  <intra_energy>  (4) 
30.40186401388871

>  <rmsd>  (4) 
3.44298

>  <sdf_rank>  (4) 
0

$$$$

     RDKit          3D

 64 66  0  0  0  0  0  0  0  0999 V2000
   25.5792  -28.6793   37.4526 C   0  0  1  0  0  0  0  0  0  0  0  0
   25.7299  -27.5721   36.3942 C   0  0  1  0  0  0  0  0  0  0  0  0
   26.4010  -26.3345   36.9783 C   0  0  2  0  0  0  0  0  0  0  0  0
   25.7035  -25.8968   38.2563 C   0  0  1  0  0  0  0  0  0  0  0  0
   25.5619  -27.0836   39.2193 C   0  0  1  0  0  0  0  0  0  0  0  0
   24.7795  -26.7189   40.4649 C   0  0  0  0  0  0  0  0  0  0  0  0
   25.8529  -28.7038   34.2475 C   0  0  0  0  0  0  0  0  0  0  0  0
   26.7416  -29.1684   33.1236 C   0  0  0  0  0  0  0  0  0  0  0  0
   26.4564  -28.1042   35.2639 N   0  0  0  0  0  0  0  0  0  0  0  0
   26.8888  -29.0882   37.7793 O   0  0  0  0  0  0  0  0  0  0  0  0
   26.4635  -25.3040   35.9747 O   0  0  0  0  0  0  0  0  0  0  0  0
   26.4750  -24.9000   38.9294 O   0  0  0  0  0  0  0  0  0  0  0  0
   24.8677  -28.1664   38.5710 O   0  0  0  0  0  0  0  0  0  0  0  0
   23.3696  -26.5301   40.2408 O   0  0  0  0  0  0  0  0  0  0  0  0
   24.6080  -28.7792   34.1998 O   0  0  0  0  0  0  0  0  0  0  0  0
   30.5230  -30.9240   45.2764 N   0  0  0  0  0  0  0  0  0  0  0  0
   30.8033  -31.4843   46.5210 C   0  0  0  0  0  0  0  0  0  0  0  0
   32.1480  -31.6037   46.8187 N   0  0  0  0  0  0  0  0  0  0  0  0
   33.2083  -31.2769   46.0017 C   0  0  0  0  0  0  0  0  0  0  0  0
   32.8317  -30.6989   44.7463 C   0  0  0  0  0  0  0  0  0  0  0  0
   31.5440  -30.5643   44.4364 C   0  0  0  0  0  0  0  0  0  0  0  0
   29.9203  -31.8560   47.2708 O   0  0  0  0  0  0  0  0  0  0  0  0
   34.3718  -31.4688   46.3757 O   0  0  0  0  0  0  0  0  0  0  0  0
   29.0987  -30.8612   44.8839 C   0  0  1  0  0  0  0  0  0  0  0  0
   28.7169  -29.6965   44.0029 C   0  0  2  0  0  0  0  0  0  0  0  0
   27.3619  -29.3787   44.3566 O   0  0  0  0  0  0  0  0  0  0  0  0
   28.6320  -30.3858   42.6809 C   0  0  1  0  0  0  0  0  0  0  0  0
   27.9840  -31.7331   43.0381 C   0  0  2  0  0  0  0  0  0  0  0  0
   28.6680  -32.0658   44.2572 O   0  0  0  0  0  0  0  0  0  0  0  0
   27.7101  -29.5699   41.9970 O   0  0  0  0  0  0  0  0  0  0  0  0
   28.2484  -32.8741   42.0650 C   0  0  0  0  0  0  0  0  0  0  0  0
   27.7670  -32.4618   40.7781 O   0  0  0  0  0  0  0  0  0  0  0  0
   28.7291  -32.2744   39.4845 P   0  0  2  0  0  0  0  0  0  0  0  0
   28.5655  -33.3464   38.4577 O   0  0  0  0  0  0  0  0  0  0  0  0
   30.1107  -32.0463   39.9772 O   0  0  0  0  0  0  0  0  0  0  0  0
   28.1294  -30.9093   38.9005 O   0  0  0  0  0  0  0  0  0  0  0  0
   27.3024  -30.6315   37.5583 P   0  0  1  0  0  0  0  0  0  0  0  0
   26.0860  -31.4766   37.4460 O   0  0  0  0  0  0  0  0  0  0  0  0
   28.2730  -30.6167   36.4149 O   0  0  0  0  0  0  0  0  0  0  0  0
   25.0037  -29.5441   37.0907 H   0  0  0  0  0  0  0  0  0  0  0  0
   24.7352  -27.2477   36.0544 H   0  0  0  0  0  0  0  0  0  0  0  0
   27.4364  -26.5664   37.2683 H   0  0  0  0  0  0  0  0  0  0  0  0
   24.7164  -25.5009   37.9756 H   0  0  0  0  0  0  0  0  0  0  0  0
   26.5818  -27.3787   39.5070 H   0  0  0  0  0  0  0  0  0  0  0  0
   24.9070  -27.5261   41.2013 H   0  0  0  0  0  0  0  0  0  0  0  0
   25.1760  -25.7551   40.8170 H   0  0  0  0  0  0  0  0  0  0  0  0
   27.6438  -29.6399   33.5405 H   0  0  0  0  0  0  0  0  0  0  0  0
   26.1991  -29.8982   32.5047 H   0  0  0  0  0  0  0  0  0  0  0  0
   27.0312  -28.3063   32.5047 H   0  0  0  0  0  0  0  0  0  0  0  0
   27.4823  -28.0140   35.2475 H   0  0  0  0  0  0  0  0  0  0  0  0
   26.5172  -24.4184   36.4140 H   0  0  0  0  0  0  0  0  0  0  0  0
   26.3840  -25.0176   39.9082 H   0  0  0  0  0  0  0  0  0  0  0  0
   22.9025  -26.4676   41.1115 H   0  0  0  0  0  0  0  0  0  0  0  0
   32.3822  -31.9766   47.7499 H   0  0  0  0  0  0  0  0  0  0  0  0
   33.6058  -30.3665   44.0390 H   0  0  0  0  0  0  0  0  0  0  0  0
   31.2860  -30.1420   43.4540 H   0  0  0  0  0  0  0  0  0  0  0  0
   28.5822  -30.7138   45.8438 H   0  0  0  0  0  0  0  0  0  0  0  0
   29.3698  -28.8126   44.0513 H   0  0  0  0  0  0  0  0  0  0  0  0
   27.2744  -29.3582   45.3426 H   0  0  0  0  0  0  0  0  0  0  0  0
   29.5582  -30.5353   42.1066 H   0  0  0  0  0  0  0  0  0  0  0  0
   26.8894  -31.6264   43.0616 H   0  0  0  0  0  0  0  0  0  0  0  0
   27.1547  -29.0783   42.6527 H   0  0  0  0  0  0  0  0  0  0  0  0
   29.3274  -33.0819   42.0137 H   0  0  0  0  0  0  0  0  0  0  0  0
   27.7383  -33.7913   42.3945 H   0  0  0  0  0  0  0  0  0  0  0  0
  1  2  1  0
  1 10  1  0
  1 13  1  0
  2  3  1  0
  2  9  1  0
  3  4  1  0
  3 11  1  0
  4  5  1  0
  4 12  1  0
  5  6  1  0
  5 13  1  0
  6 14  1  0
  7  8  1  0
  7  9  1  0
  7 15  2  0
 10 37  1  0
 16 17  1  0
 16 21  1  0
 24 16  1  0
 17 18  1  0
 17 22  2  0
 18 19  1  0
 19 20  1  0
 19 23  2  0
 20 21  2  0
 24 25  1  0
 24 29  1  0
 25 26  1  0
 25 27  1  0
 27 28  1  0
 27 30  1  0
 28 29  1  0
 28 31  1  0
 31 32  1  0
 32 33  1  0
 33 34  2  0
 33 35  1  1
 33 36  1  0
 36 37  1  0
 37 38  2  0
 37 39  1  6
  1 40  1  6
  2 41  1  6
  3 42  1  1
  4 43  1  6
  5 44  1  1
  6 45  1  0
  6 46  1  0
  8 47  1  0
  8 48  1  0
  8 49  1  0
  9 50  1  0
 11 51  1  0
 12 52  1  0
 14 53  1  0
 18 54  1  0
 20 55  1  0
 21 56  1  0
 24 57  1  1
 25 58  1  6
 26 59  1  0
 27 60  1  6
 28 61  1  1
 30 62  1  0
 31 63  1  0
 31 64  1  0
M  CHG  2  35  -1  39  -1
M  END
>  <filename_input>  (5) 
7TB0_UD1_docked.sdf

>  <pdb_id>  (5) 
7TB0_UD1

>  <pose_rank>  (5) 
4

>  <num_atoms_heavy>  (5) 
39

>  <num_torsions>  (5) 
10

>  <pose>  (5) 
[28.72914662929726, -32.27439469522411, 39.48454287603338, 0.4654607323596833, -1.0924787949738792, 1.3258366548821547, 1.927492818220763, -0.37486364337044736, -1.870103712501394, -5.128443140711817, -4.16594641354691, 0.18768597689795086, -1.046980355251937, 0.8072023654132331, 0.2545696538021524, 0.3635512570642805]

>  <energy>  (5) 
-813.5913743863744

>  <inter_energy>  (5) 
-830.8260218311112

>  <intra_energy>  (5) 
17.293245678112847

>  <rmsd>  (5) 
3.21382

>  <sdf_rank>  (5) 
0

$$$$

     RDKit          3D

 64 66  0  0  0  0  0  0  0  0999 V2000
   25.2210  -28.7033   37.1435 C   0  0  1  0  0  0  0  0  0  0  0  0
   25.8133  -28.6931   35.7229 C   0  0  1  0  0  0  0  0  0  0  0  0
   26.4101  -27.3330   35.3809 C   0  0  2  0  0  0  0  0  0  0  0  0
   25.4099  -26.2218   35.6568 C   0  0  1  0  0  0  0  0  0  0  0  0
   24.8463  -26.3532   37.0784 C   0  0  1  0  0  0  0  0  0  0  0  0
   23.7674  -25.3276   37.3626 C   0  0  0  0  0  0  0  0  0  0  0  0
   26.7204  -30.6893   34.6756 C   0  0  0  0  0  0  0  0  0  0  0  0
   27.8298  -31.7082   34.6683 C   0  0  0  0  0  0  0  0  0  0  0  0
   26.7851  -29.7575   35.6160 N   0  0  0  0  0  0  0  0  0  0  0  0
   26.3124  -28.5466   38.0228 O   0  0  0  0  0  0  0  0  0  0  0  0
   26.8936  -27.3486   34.0247 O   0  0  0  0  0  0  0  0  0  0  0  0
   26.0469  -24.9454   35.5742 O   0  0  0  0  0  0  0  0  0  0  0  0
   24.2649  -27.6583   37.2612 O   0  0  0  0  0  0  0  0  0  0  0  0
   22.7166  -25.2896   36.3785 O   0  0  0  0  0  0  0  0  0  0  0  0
   25.8362  -30.6469   33.7958 O   0  0  0  0  0  0  0  0  0  0  0  0
   29.7011  -33.9791   42.7514 N   0  0  0  0  0  0  0  0  0  0  0  0
   29.9373  -35.3166   43.0629 C   0  0  0  0  0  0  0  0  0  0  0  0
   29.6569  -36.2115   42.0471 N   0  0  0  0  0  0  0  0  0  0  0  0
   29.1321  -35.9178   40.8074 C   0  0  0  0  0  0  0  0  0  0  0  0
   28.9293  -34.5204   40.5667 C   0  0  0  0  0  0  0  0  0  0  0  0
   29.1984  -33.6353   41.5240 C   0  0  0  0  0  0  0  0  0  0  0  0
   30.3400  -35.6587   44.1587 O   0  0  0  0  0  0  0  0  0  0  0  0
   28.8914  -36.8213   39.9973 O   0  0  0  0  0  0  0  0  0  0  0  0
   29.9040  -32.9996   43.8405 C   0  0  1  0  0  0  0  0  0  0  0  0
   30.9004  -31.9030   43.5525 C   0  0  2  0  0  0  0  0  0  0  0  0
   31.4968  -31.5868   44.8200 O   0  0  0  0  0  0  0  0  0  0  0  0
   29.9683  -30.7739   43.2584 C   0  0  1  0  0  0  0  0  0  0  0  0
   28.8479  -30.9770   44.2908 C   0  0  2  0  0  0  0  0  0  0  0  0
   28.6777  -32.4033   44.2522 O   0  0  0  0  0  0  0  0  0  0  0  0
   30.7558  -29.6604   43.6094 O   0  0  0  0  0  0  0  0  0  0  0  0
   27.4989  -30.3676   43.9331 C   0  0  0  0  0  0  0  0  0  0  0  0
   27.5579  -29.9719   42.5554 O   0  0  0  0  0  0  0  0  0  0  0  0
   26.5046  -30.4886   41.4339 P   0  0  2  0  0  0  0  0  0  0  0  0
   25.0758  -30.2773   41.8136 O   0  0  0  0  0  0  0  0  0  0  0  0
   26.8839  -31.8744   41.0609 O   0  0  0  0  0  0  0  0  0  0  0  0
   26.8715  -29.4861   40.2403 O   0  0  0  0  0  0  0  0  0  0  0  0
   26.0224  -28.2953   39.5895 P   0  0  1  0  0  0  0  0  0  0  0  0
   26.5120  -26.9519   39.9919 O   0  0  0  0  0  0  0  0  0  0  0  0
   24.5682  -28.6133   39.7741 O   0  0  0  0  0  0  0  0  0  0  0  0
   24.6892  -29.6366   37.3805 H   0  0  0  0  0  0  0  0  0  0  0  0
   25.0141  -28.8688   34.9879 H   0  0  0  0  0  0  0  0  0  0  0  0
   27.2737  -27.1244   36.0295 H   0  0  0  0  0  0  0  0  0  0  0  0
   24.6078  -26.3054   34.9086 H   0  0  0  0  0  0  0  0  0  0  0  0
   25.6887  -26.1914   37.7670 H   0  0  0  0  0  0  0  0  0  0  0  0
   23.3177  -25.5612   38.3389 H   0  0  0  0  0  0  0  0  0  0  0  0
   24.2548  -24.3417   37.3436 H   0  0  0  0  0  0  0  0  0  0  0  0
   28.1035  -31.9596   35.7036 H   0  0  0  0  0  0  0  0  0  0  0  0
   27.4905  -32.6160   34.1480 H   0  0  0  0  0  0  0  0  0  0  0  0
   28.7055  -31.2931   34.1480 H   0  0  0  0  0  0  0  0  0  0  0  0
   27.5574  -29.7933   36.2965 H   0  0  0  0  0  0  0  0  0  0  0  0
   27.8831  -27.3806   34.0275 H   0  0  0  0  0  0  0  0  0  0  0  0
   26.2180  -24.6023   36.4870 H   0  0  0  0  0  0  0  0  0  0  0  0
   21.8385  -25.2578   36.8345 H   0  0  0  0  0  0  0  0  0  0  0  0
   29.8621  -37.2028   42.2371 H   0  0  0  0  0  0  0  0  0  0  0  0
   28.5516  -34.1789   39.5916 H   0  0  0  0  0  0  0  0  0  0  0  0
   29.0069  -32.5717   41.3189 H   0  0  0  0  0  0  0  0  0  0  0  0
   30.3321  -33.6110   44.6486 H   0  0  0  0  0  0  0  0  0  0  0  0
   31.6595  -32.1211   42.7869 H   0  0  0  0  0  0  0  0  0  0  0  0
   30.9059  -31.9001   45.5499 H   0  0  0  0  0  0  0  0  0  0  0  0
   29.5554  -30.6853   42.2427 H   0  0  0  0  0  0  0  0  0  0  0  0
   29.1292  -30.5067   45.2446 H   0  0  0  0  0  0  0  0  0  0  0  0
   30.8061  -29.5894   44.5956 H   0  0  0  0  0  0  0  0  0  0  0  0
   26.7008  -31.1107   44.0769 H   0  0  0  0  0  0  0  0  0  0  0  0
   27.2812  -29.5022   44.5764 H   0  0  0  0  0  0  0  0  0  0  0  0
  1  2  1  0
  1 10  1  0
  1 13  1  0
  2  3  1  0
  2  9  1  0
  3  4  1  0
  3 11  1  0
  4  5  1  0
  4 12  1  0
  5  6  1  0
  5 13  1  0
  6 14  1  0
  7  8  1  0
  7  9  1  0
  7 15  2  0
 10 37  1  0
 16 17  1  0
 16 21  1  0
 24 16  1  0
 17 18  1  0
 17 22  2  0
 18 19  1  0
 19 20  1  0
 19 23  2  0
 20 21  2  0
 24 25  1  0
 24 29  1  0
 25 26  1  0
 25 27  1  0
 27 28  1  0
 27 30  1  0
 28 29  1  0
 28 31  1  0
 31 32  1  0
 32 33  1  0
 33 34  2  0
 33 35  1  6
 33 36  1  0
 36 37  1  0
 37 38  2  0
 37 39  1  6
  1 40  1  1
  2 41  1  6
  3 42  1  1
  4 43  1  6
  5 44  1  1
  6 45  1  0
  6 46  1  0
  8 47  1  0
  8 48  1  0
  8 49  1  0
  9 50  1  0
 11 51  1  0
 12 52  1  0
 14 53  1  0
 18 54  1  0
 20 55  1  0
 21 56  1  0
 24 57  1  1
 25 58  1  6
 26 59  1  0
 27 60  1  6
 28 61  1  1
 30 62  1  0
 31 63  1  0
 31 64  1  0
M  CHG  2  35  -1  39  -1
M  END
>  <filename_input>  (6) 
7TB0_UD1_docked.sdf

>  <pdb_id>  (6) 
7TB0_UD1

>  <pose_rank>  (6) 
5

>  <num_atoms_heavy>  (6) 
39

>  <num_torsions>  (6) 
10

>  <pose>  (6) 
[26.504609398936996, -30.488613270608685, 41.4339011118414, 4.815858389672654, 3.929236127748874, -0.03239728671734394, -61.8570108114591, -37.95165256047487, -50.91418980005856, -5.583477264863914, -16.741479099682454, -42.91402669720921, -15.31444589910586, 24.75615837023286, 7.168987423232128, 0.014849505352057674]

>  <energy>  (6) 
-815.7947696017874

>  <inter_energy>  (6) 
-875.4953629636652

>  <intra_energy>  (6) 
62.21323440857165

>  <rmsd>  (6) 
2.17767

>  <sdf_rank>  (6) 
0

$$$$

     RDKit          3D

 64 66  0  0  0  0  0  0  0  0999 V2000
   25.4100  -28.4001   36.0872 C   0  0  1  0  0  0  0  0  0  0  0  0
   25.6314  -27.0733   35.3392 C   0  0  1  0  0  0  0  0  0  0  0  0
   26.2578  -26.0223   36.2482 C   0  0  2  0  0  0  0  0  0  0  0  0
   25.4726  -25.8944   37.5437 C   0  0  1  0  0  0  0  0  0  0  0  0
   25.2671  -27.2756   38.1807 C   0  0  1  0  0  0  0  0  0  0  0  0
   24.3995  -27.2095   39.4215 C   0  0  0  0  0  0  0  0  0  0  0  0
   25.9162  -27.7671   33.0279 C   0  0  0  0  0  0  0  0  0  0  0  0
   26.8765  -27.9460   31.8813 C   0  0  0  0  0  0  0  0  0  0  0  0
   26.4355  -27.3288   34.1659 N   0  0  0  0  0  0  0  0  0  0  0  0
   26.6948  -28.8946   36.3938 O   0  0  0  0  0  0  0  0  0  0  0  0
   26.3876  -24.7818   35.5288 O   0  0  0  0  0  0  0  0  0  0  0  0
   26.1934  -25.1000   38.4876 O   0  0  0  0  0  0  0  0  0  0  0  0
   24.6217  -28.1606   37.2453 O   0  0  0  0  0  0  0  0  0  0  0  0
   23.3668  -26.2073   39.3657 O   0  0  0  0  0  0  0  0  0  0  0  0
   24.6836  -27.9210   32.9072 O   0  0  0  0  0  0  0  0  0  0  0  0
   27.0353  -30.6828   42.6660 N   0  0  0  0  0  0  0  0  0  0  0  0
   26.8602  -29.3142   42.4714 C   0  0  0  0  0  0  0  0  0  0  0  0
   25.5478  -28.9097   42.3126 N   0  0  0  0  0  0  0  0  0  0  0  0
   24.4317  -29.7169   42.2788 C   0  0  0  0  0  0  0  0  0  0  0  0
   24.7001  -31.1071   42.4966 C   0  0  0  0  0  0  0  0  0  0  0  0
   25.9538  -31.5240   42.6605 C   0  0  0  0  0  0  0  0  0  0  0  0
   27.8032  -28.5470   42.4253 O   0  0  0  0  0  0  0  0  0  0  0  0
   23.3100  -29.2300   42.0914 O   0  0  0  0  0  0  0  0  0  0  0  0
   28.4300  -31.1667   42.7509 C   0  0  1  0  0  0  0  0  0  0  0  0
   28.6007  -32.5733   43.2713 C   0  0  2  0  0  0  0  0  0  0  0  0
   29.8569  -32.5729   43.9669 O   0  0  0  0  0  0  0  0  0  0  0  0
   28.8554  -33.2967   41.9899 C   0  0  1  0  0  0  0  0  0  0  0  0
   29.7444  -32.3132   41.2123 C   0  0  2  0  0  0  0  0  0  0  0  0
   29.1054  -31.0590   41.5013 O   0  0  0  0  0  0  0  0  0  0  0  0
   29.6182  -34.3942   42.4335 O   0  0  0  0  0  0  0  0  0  0  0  0
   29.7355  -32.4676   39.6973 C   0  0  0  0  0  0  0  0  0  0  0  0
   28.7828  -31.5305   39.1754 O   0  0  0  0  0  0  0  0  0  0  0  0
   27.6622  -31.9217   38.0684 P   0  0  2  0  0  0  0  0  0  0  0  0
   26.2637  -31.6335   38.5060 O   0  0  0  0  0  0  0  0  0  0  0  0
   27.9340  -33.3105   37.6204 O   0  0  0  0  0  0  0  0  0  0  0  0
   28.0596  -30.8906   36.9095 O   0  0  0  0  0  0  0  0  0  0  0  0
   27.1793  -30.2782   35.7210 P   0  0  1  0  0  0  0  0  0  0  0  0
   26.0046  -31.1212   35.3809 O   0  0  0  0  0  0  0  0  0  0  0  0
   28.1129  -29.8719   34.6196 O   0  0  0  0  0  0  0  0  0  0  0  0
   24.8629  -29.1440   35.4896 H   0  0  0  0  0  0  0  0  0  0  0  0
   24.6620  -26.6622   35.0209 H   0  0  0  0  0  0  0  0  0  0  0  0
   27.2712  -26.3323   36.5432 H   0  0  0  0  0  0  0  0  0  0  0  0
   24.5065  -25.4281   37.3003 H   0  0  0  0  0  0  0  0  0  0  0  0
   26.2652  -27.6461   38.4573 H   0  0  0  0  0  0  0  0  0  0  0  0
   23.9215  -28.1903   39.5612 H   0  0  0  0  0  0  0  0  0  0  0  0
   25.0614  -26.9359   40.2564 H   0  0  0  0  0  0  0  0  0  0  0  0
   27.8863  -28.1342   32.2747 H   0  0  0  0  0  0  0  0  0  0  0  0
   26.5577  -28.8002   31.2659 H   0  0  0  0  0  0  0  0  0  0  0  0
   26.8867  -27.0343   31.2659 H   0  0  0  0  0  0  0  0  0  0  0  0
   27.4510  -27.1639   34.2159 H   0  0  0  0  0  0  0  0  0  0  0  0
   26.4658  -24.0337   36.1724 H   0  0  0  0  0  0  0  0  0  0  0  0
   25.9456  -25.3731   39.4063 H   0  0  0  0  0  0  0  0  0  0  0  0
   23.1042  -25.9525   40.2856 H   0  0  0  0  0  0  0  0  0  0  0  0
   25.3873  -27.8976   42.2087 H   0  0  0  0  0  0  0  0  0  0  0  0
   23.8711  -31.8294   42.5284 H   0  0  0  0  0  0  0  0  0  0  0  0
   26.1307  -32.6009   42.7989 H   0  0  0  0  0  0  0  0  0  0  0  0
   28.8809  -30.4967   43.4978 H   0  0  0  0  0  0  0  0  0  0  0  0
   27.7863  -32.9643   43.8989 H   0  0  0  0  0  0  0  0  0  0  0  0
   29.6934  -32.5730   44.9433 H   0  0  0  0  0  0  0  0  0  0  0  0
   27.9926  -33.6101   41.3839 H   0  0  0  0  0  0  0  0  0  0  0  0
   30.7959  -32.4475   41.5062 H   0  0  0  0  0  0  0  0  0  0  0  0
   29.6292  -34.4100   43.4233 H   0  0  0  0  0  0  0  0  0  0  0  0
   30.7351  -32.2525   39.2917 H   0  0  0  0  0  0  0  0  0  0  0  0
   29.4645  -33.4952   39.4136 H   0  0  0  0  0  0  0  0  0  0  0  0
  1  2  1  0
  1 10  1  0
  1 13  1  0
  2  3  1  0
  2  9  1  0
  3  4  1  0
  3 11  1  0
  4  5  1  0
  4 12  1  0
  5  6  1  0
  5 13  1  0
  6 14  1  0
  7  8  1  0
  7  9  1  0
  7 15  2  0
 10 37  1  0
 16 17  1  0
 16 21  1  0
 24 16  1  0
 17 18  1  0
 17 22  2  0
 18 19  1  0
 19 20  1  0
 19 23  2  0
 20 21  2  0
 24 25  1  0
 24 29  1  0
 25 26  1  0
 25 27  1  0
 27 28  1  0
 27 30  1  0
 28 29  1  0
 28 31  1  0
 31 32  1  0
 32 33  1  0
 33 34  2  0
 33 35  1  6
 33 36  1  0
 36 37  1  0
 37 38  2  0
 37 39  1  6
  1 40  1  6
  2 41  1  6
  3 42  1  1
  4 43  1  6
  5 44  1  1
  6 45  1  0
  6 46  1  0
  8 47  1  0
  8 48  1  0
  8 49  1  0
  9 50  1  0
 11 51  1  0
 12 52  1  0
 14 53  1  0
 18 54  1  0
 20 55  1  0
 21 56  1  0
 24 57  1  1
 25 58  1  1
 26 59  1  0
 27 60  1  6
 28 61  1  1
 30 62  1  0
 31 63  1  0
 31 64  1  0
M  CHG  2  35  -1  39  -1
M  END
>  <filename_input>  (7) 
7TB0_UD1_docked.sdf

>  <pdb_id>  (7) 
7TB0_UD1

>  <pose_rank>  (7) 
6

>  <num_atoms_heavy>  (7) 
39

>  <num_torsions>  (7) 
10

>  <pose>  (7) 
[27.66221386290361, -31.92174849013762, 38.06843233481349, -0.6962287460880493, -0.7676207090293864, -6.266538031172614, -4.07426176695817, -4.735012718374532, 0.8232464212312063, 1.4658095659037829, 1.3411194101167494, -7.458459499595506, -1.1818178348134964, 0.9091357180140063, 0.15221091881150015, -0.29749132472041323]

>  <energy>  (7) 
-814.2607896832029

>  <inter_energy>  (7) 
-845.4220162768273

>  <intra_energy>  (7) 
29.122771646626244

>  <rmsd>  (7) 
3.78369

>  <sdf_rank>  (7) 
0

$$$$

     RDKit          3D

 64 66  0  0  0  0  0  0  0  0999 V2000
   28.6669  -32.2335   42.3922 C   0  0  1  0  0  0  0  0  0  0  0  0
   29.5496  -32.8622   43.4851 C   0  0  1  0  0  0  0  0  0  0  0  0
   30.4653  -33.9357   42.9086 C   0  0  2  0  0  0  0  0  0  0  0  0
   29.6698  -34.9360   42.0852 C   0  0  1  0  0  0  0  0  0  0  0  0
   28.7902  -34.2041   41.0622 C   0  0  1  0  0  0  0  0  0  0  0  0
   27.9008  -35.1562   40.2881 C   0  0  0  0  0  0  0  0  0  0  0  0
   29.9894  -31.3893   45.3670 C   0  0  0  0  0  0  0  0  0  0  0  0
   30.8791  -30.3170   45.9393 C   0  0  0  0  0  0  0  0  0  0  0  0
   30.2897  -31.8122   44.1472 N   0  0  0  0  0  0  0  0  0  0  0  0
   29.5448  -31.5460   41.5286 O   0  0  0  0  0  0  0  0  0  0  0  0
   31.2247  -34.5402   43.9721 O   0  0  0  0  0  0  0  0  0  0  0  0
   30.5496  -35.7878   41.3489 O   0  0  0  0  0  0  0  0  0  0  0  0
   27.9355  -33.2578   41.7321 O   0  0  0  0  0  0  0  0  0  0  0  0
   27.7633  -36.4564   40.8918 O   0  0  0  0  0  0  0  0  0  0  0  0
   29.0781  -31.9329   46.0239 O   0  0  0  0  0  0  0  0  0  0  0  0
   26.6676  -29.6000   35.1075 N   0  0  0  0  0  0  0  0  0  0  0  0
   26.3976  -29.7580   33.7496 C   0  0  0  0  0  0  0  0  0  0  0  0
   26.7509  -30.9863   33.2227 N   0  0  0  0  0  0  0  0  0  0  0  0
   27.3743  -32.0218   33.8841 C   0  0  0  0  0  0  0  0  0  0  0  0
   27.6059  -31.7800   35.2769 C   0  0  0  0  0  0  0  0  0  0  0  0
   27.2685  -30.6091   35.8131 C   0  0  0  0  0  0  0  0  0  0  0  0
   25.9070  -28.8651   33.0849 O   0  0  0  0  0  0  0  0  0  0  0  0
   27.6717  -33.0619   33.2838 O   0  0  0  0  0  0  0  0  0  0  0  0
   26.3864  -28.2694   35.6882 C   0  0  1  0  0  0  0  0  0  0  0  0
   24.9563  -28.0315   36.1082 C   0  0  2  0  0  0  0  0  0  0  0  0
   24.7265  -26.6290   35.9023 O   0  0  0  0  0  0  0  0  0  0  0  0
   25.0866  -28.2007   37.5862 C   0  0  1  0  0  0  0  0  0  0  0  0
   26.4329  -27.5245   37.8910 C   0  0  2  0  0  0  0  0  0  0  0  0
   27.2387  -27.9825   36.7929 O   0  0  0  0  0  0  0  0  0  0  0  0
   24.0253  -27.4027   38.0553 O   0  0  0  0  0  0  0  0  0  0  0  0
   27.1311  -27.9826   39.1644 C   0  0  0  0  0  0  0  0  0  0  0  0
   26.2291  -28.8555   39.8589 O   0  0  0  0  0  0  0  0  0  0  0  0
   26.4073  -30.4680   39.9048 P   0  0  2  0  0  0  0  0  0  0  0  0
   25.8560  -31.1646   38.7043 O   0  0  0  0  0  0  0  0  0  0  0  0
   25.9102  -30.9412   41.2210 O   0  0  0  0  0  0  0  0  0  0  0  0
   28.0053  -30.5619   39.8631 O   0  0  0  0  0  0  0  0  0  0  0  0
   29.0982  -30.1112   40.9425 P   0  0  1  0  0  0  0  0  0  0  0  0
   28.5257  -29.2712   42.0256 O   0  0  0  0  0  0  0  0  0  0  0  0
   30.2968  -29.6022   40.1983 O   0  0  0  0  0  0  0  0  0  0  0  0
   27.9213  -31.5312   42.7934 H   0  0  0  0  0  0  0  0  0  0  0  0
   28.9148  -33.3692   44.2267 H   0  0  0  0  0  0  0  0  0  0  0  0
   31.1872  -33.4838   42.2125 H   0  0  0  0  0  0  0  0  0  0  0  0
   29.0536  -35.5226   42.7824 H   0  0  0  0  0  0  0  0  0  0  0  0
   29.4737  -33.6997   40.3634 H   0  0  0  0  0  0  0  0  0  0  0  0
   26.9006  -34.7056   40.2073 H   0  0  0  0  0  0  0  0  0  0  0  0
   28.3784  -35.3104   39.3093 H   0  0  0  0  0  0  0  0  0  0  0  0
   30.8441  -30.3593   47.0380 H   0  0  0  0  0  0  0  0  0  0  0  0
   31.9127  -30.4779   45.5990 H   0  0  0  0  0  0  0  0  0  0  0  0
   30.5303  -29.3309   45.5990 H   0  0  0  0  0  0  0  0  0  0  0  0
   31.0806  -31.3759   43.6523 H   0  0  0  0  0  0  0  0  0  0  0  0
   30.8593  -34.2494   44.8451 H   0  0  0  0  0  0  0  0  0  0  0  0
   31.0984  -36.3190   41.9788 H   0  0  0  0  0  0  0  0  0  0  0  0
   27.7730  -36.3653   41.8775 H   0  0  0  0  0  0  0  0  0  0  0  0
   26.5240  -31.1441   32.2304 H   0  0  0  0  0  0  0  0  0  0  0  0
   28.0622  -32.5611   35.9028 H   0  0  0  0  0  0  0  0  0  0  0  0
   27.4835  -30.4431   36.8791 H   0  0  0  0  0  0  0  0  0  0  0  0
   26.5878  -27.5848   34.8511 H   0  0  0  0  0  0  0  0  0  0  0  0
   24.1922  -28.6479   35.6121 H   0  0  0  0  0  0  0  0  0  0  0  0
   24.6520  -26.1747   36.7787 H   0  0  0  0  0  0  0  0  0  0  0  0
   25.0548  -29.2183   38.0027 H   0  0  0  0  0  0  0  0  0  0  0  0
   26.2863  -26.4419   38.0199 H   0  0  0  0  0  0  0  0  0  0  0  0
   24.0252  -27.4025   39.0453 H   0  0  0  0  0  0  0  0  0  0  0  0
   28.0564  -28.5215   38.9126 H   0  0  0  0  0  0  0  0  0  0  0  0
   27.3974  -27.1199   39.7928 H   0  0  0  0  0  0  0  0  0  0  0  0
  1  2  1  0
  1 10  1  0
  1 13  1  0
  2  3  1  0
  2  9  1  0
  3  4  1  0
  3 11  1  0
  4  5  1  0
  4 12  1  0
  5  6  1  0
  5 13  1  0
  6 14  1  0
  7  8  1  0
  7  9  1  0
  7 15  2  0
 10 37  1  0
 16 17  1  0
 16 21  1  0
 24 16  1  0
 17 18  1  0
 17 22  2  0
 18 19  1  0
 19 20  1  0
 19 23  2  0
 20 21  2  0
 24 25  1  0
 24 29  1  0
 25 26  1  0
 25 27  1  0
 27 28  1  0
 27 30  1  0
 28 29  1  0
 28 31  1  0
 31 32  1  0
 32 33  1  0
 33 34  2  0
 33 35  1  1
 33 36  1  0
 36 37  1  0
 37 38  2  0
 37 39  1  6
  1 40  1  1
  2 41  1  1
  3 42  1  6
  4 43  1  1
  5 44  1  6
  6 45  1  0
  6 46  1  0
  8 47  1  0
  8 48  1  0
  8 49  1  0
  9 50  1  0
 11 51  1  0
 12 52  1  0
 14 53  1  0
 18 54  1  0
 20 55  1  0
 21 56  1  0
 24 57  1  6
 25 58  1  6
 26 59  1  0
 27 60  1  6
 28 61  1  1
 30 62  1  0
 31 63  1  0
 31 64  1  0
M  CHG  2  35  -1  39  -1
M  END
>  <filename_input>  (8) 
7TB0_UD1_docked.sdf

>  <pdb_id>  (8) 
7TB0_UD1

>  <pose_rank>  (8) 
7

>  <num_atoms_heavy>  (8) 
39

>  <num_torsions>  (8) 
10

>  <pose>  (8) 
[26.407299398263593, -30.468013746942304, 39.90480369987437, 2.9486512534788667, 3.1252419576899375, -0.14278288405981102, 23.73887861841373, -31.996599220592927, -7.253881535940634, 12.587624429254221, 11.513292297903774, 11.585203734007012, 6.34763455887059, -18.375062998716775, 6.836862156711292, -0.5996837231708588]

>  <energy>  (8) 
-755.9584419335158

>  <inter_energy>  (8) 
-796.3253096063473

>  <intra_energy>  (8) 
48.709666422178834

>  <rmsd>  (8) 
9.12614

>  <sdf_rank>  (8) 
0

$$$$

     RDKit          3D

 64 66  0  0  0  0  0  0  0  0999 V2000
   29.0363  -33.7049   43.0049 C   0  0  1  0  0  0  0  0  0  0  0  0
   29.1882  -35.2364   42.9938 C   0  0  1  0  0  0  0  0  0  0  0  0
   29.7084  -35.7323   41.6496 C   0  0  2  0  0  0  0  0  0  0  0  0
   28.8734  -35.1714   40.5096 C   0  0  1  0  0  0  0  0  0  0  0  0
   28.7449  -33.6478   40.6428 C   0  0  1  0  0  0  0  0  0  0  0  0
   27.8341  -33.0564   39.5858 C   0  0  0  0  0  0  0  0  0  0  0  0
   29.7321  -35.4019   45.3563 C   0  0  0  0  0  0  0  0  0  0  0  0
   30.7094  -35.9052   46.3861 C   0  0  0  0  0  0  0  0  0  0  0  0
   30.0469  -35.6271   44.0886 N   0  0  0  0  0  0  0  0  0  0  0  0
   30.3419  -33.1822   42.8979 O   0  0  0  0  0  0  0  0  0  0  0  0
   29.7740  -37.1706   41.6617 O   0  0  0  0  0  0  0  0  0  0  0  0
   29.5047  -35.4312   39.2543 O   0  0  0  0  0  0  0  0  0  0  0  0
   28.1950  -33.3085   41.9302 O   0  0  0  0  0  0  0  0  0  0  0  0
   27.8131  -33.7917   38.3477 O   0  0  0  0  0  0  0  0  0  0  0  0
   28.6355  -34.8889   45.6594 O   0  0  0  0  0  0  0  0  0  0  0  0
   26.6116  -28.3450   36.4453 N   0  0  0  0  0  0  0  0  0  0  0  0
   26.1563  -27.4330   35.4953 C   0  0  0  0  0  0  0  0  0  0  0  0
   25.9771  -27.9515   34.2263 N   0  0  0  0  0  0  0  0  0  0  0  0
   26.2476  -29.2376   33.8124 C   0  0  0  0  0  0  0  0  0  0  0  0
   26.7017  -30.1110   34.8531 C   0  0  0  0  0  0  0  0  0  0  0  0
   26.8756  -29.6408   36.0864 C   0  0  0  0  0  0  0  0  0  0  0  0
   25.9562  -26.2652   35.7712 O   0  0  0  0  0  0  0  0  0  0  0  0
   26.0774  -29.5663   32.6319 O   0  0  0  0  0  0  0  0  0  0  0  0
   26.9005  -27.8090   37.7928 C   0  0  1  0  0  0  0  0  0  0  0  0
   25.6934  -27.4204   38.6116 C   0  0  2  0  0  0  0  0  0  0  0  0
   26.1229  -26.3175   39.4247 O   0  0  0  0  0  0  0  0  0  0  0  0
   25.6173  -28.5907   39.5361 C   0  0  1  0  0  0  0  0  0  0  0  0
   27.0947  -28.8754   39.8506 C   0  0  2  0  0  0  0  0  0  0  0  0
   27.7008  -28.7044   38.5590 O   0  0  0  0  0  0  0  0  0  0  0  0
   24.9831  -28.0223   40.6576 O   0  0  0  0  0  0  0  0  0  0  0  0
   27.4152  -30.2954   40.2975 C   0  0  0  0  0  0  0  0  0  0  0  0
   28.4819  -30.2147   41.2533 O   0  0  0  0  0  0  0  0  0  0  0  0
   28.2443  -29.9187   42.8313 P   0  0  2  0  0  0  0  0  0  0  0  0
   26.8181  -30.0475   43.2554 O   0  0  0  0  0  0  0  0  0  0  0  0
   28.9092  -28.6319   43.1557 O   0  0  0  0  0  0  0  0  0  0  0  0
   29.0776  -31.1332   43.4598 O   0  0  0  0  0  0  0  0  0  0  0  0
   30.5796  -31.6123   43.1822 P   0  0  1  0  0  0  0  0  0  0  0  0
   31.4679  -31.4338   44.3592 O   0  0  0  0  0  0  0  0  0  0  0  0
   31.0098  -31.0370   41.8655 O   0  0  0  0  0  0  0  0  0  0  0  0
   28.5632  -33.3267   43.9231 H   0  0  0  0  0  0  0  0  0  0  0  0
   28.2034  -35.7066   43.1318 H   0  0  0  0  0  0  0  0  0  0  0  0
   30.7307  -35.3635   41.4798 H   0  0  0  0  0  0  0  0  0  0  0  0
   27.8854  -35.6529   40.5552 H   0  0  0  0  0  0  0  0  0  0  0  0
   29.7569  -33.2347   40.5196 H   0  0  0  0  0  0  0  0  0  0  0  0
   26.8107  -33.0286   39.9882 H   0  0  0  0  0  0  0  0  0  0  0  0
   28.2271  -32.0557   39.3530 H   0  0  0  0  0  0  0  0  0  0  0  0
   30.3169  -35.7031   47.3937 H   0  0  0  0  0  0  0  0  0  0  0  0
   30.8513  -36.9885   46.2584 H   0  0  0  0  0  0  0  0  0  0  0  0
   31.6737  -35.3915   46.2584 H   0  0  0  0  0  0  0  0  0  0  0  0
   30.9376  -36.0985   43.8756 H   0  0  0  0  0  0  0  0  0  0  0  0
   29.7887  -37.4924   42.5978 H   0  0  0  0  0  0  0  0  0  0  0  0
   30.4088  -35.8031   39.4102 H   0  0  0  0  0  0  0  0  0  0  0  0
   27.7854  -34.7623   38.5408 H   0  0  0  0  0  0  0  0  0  0  0  0
   25.6016  -27.3083   33.5149 H   0  0  0  0  0  0  0  0  0  0  0  0
   26.9066  -31.1691   34.6334 H   0  0  0  0  0  0  0  0  0  0  0  0
   27.2511  -30.3289   36.8581 H   0  0  0  0  0  0  0  0  0  0  0  0
   27.4493  -26.8800   37.5788 H   0  0  0  0  0  0  0  0  0  0  0  0
   24.7782  -27.1819   38.0500 H   0  0  0  0  0  0  0  0  0  0  0  0
   26.0298  -26.5566   40.3809 H   0  0  0  0  0  0  0  0  0  0  0  0
   25.1069  -29.5012   39.1891 H   0  0  0  0  0  0  0  0  0  0  0  0
   27.4307  -28.2334   40.6782 H   0  0  0  0  0  0  0  0  0  0  0  0
   25.3880  -28.3851   41.4849 H   0  0  0  0  0  0  0  0  0  0  0  0
   26.5287  -30.7526   40.7614 H   0  0  0  0  0  0  0  0  0  0  0  0
   27.7102  -30.9154   39.4381 H   0  0  0  0  0  0  0  0  0  0  0  0
  1  2  1  0
  1 10  1  0
  1 13  1  0
  2  3  1  0
  2  9  1  0
  3  4  1  0
  3 11  1  0
  4  5  1  0
  4 12  1  0
  5  6  1  0
  5 13  1  0
  6 14  1  0
  7  8  1  0
  7  9  1  0
  7 15  2  0
 10 37  1  0
 16 17  1  0
 16 21  1  0
 24 16  1  0
 17 18  1  0
 17 22  2  0
 18 19  1  0
 19 20  1  0
 19 23  2  0
 20 21  2  0
 24 25  1  0
 24 29  1  0
 25 26  1  0
 25 27  1  0
 27 28  1  0
 27 30  1  0
 28 29  1  0
 28 31  1  0
 31 32  1  0
 32 33  1  0
 33 34  2  0
 33 35  1  1
 33 36  1  0
 36 37  1  0
 37 38  2  0
 37 39  1  6
  1 40  1  1
  2 41  1  1
  3 42  1  6
  4 43  1  6
  5 44  1  1
  6 45  1  0
  6 46  1  0
  8 47  1  0
  8 48  1  0
  8 49  1  0
  9 50  1  0
 11 51  1  0
 12 52  1  0
 14 53  1  0
 18 54  1  0
 20 55  1  0
 21 56  1  0
 24 57  1  6
 25 58  1  6
 26 59  1  0
 27 60  1  6
 28 61  1  1
 30 62  1  0
 31 63  1  0
 31 64  1  0
M  CHG  2  35  -1  39  -1
M  END
>  <filename_input>  (9) 
7TB0_UD1_docked.sdf

>  <pdb_id>  (9) 
7TB0_UD1

>  <pose_rank>  (9) 
8

>  <num_atoms_heavy>  (9) 
39

>  <num_torsions>  (9) 
10

>  <pose>  (9) 
[28.244278227432538, -29.91873654320094, 42.83133123961243, 3.1233397855474214, -0.06525667863678454, -0.9881865380413714, -5.9969425086118955, -0.9456369340917264, -3.3938858881267193, -0.18894298781766525, -1.3247977600203662, 7.489413685130454, 7.596148519295433, -0.002782394477378519, -0.21100906855785703, -1.4078879080401299]

>  <energy>  (9) 
-698.4394222837672

>  <inter_energy>  (9) 
-801.3204923815097

>  <intra_energy>  (9) 
105.53439159138154

>  <rmsd>  (9) 
9.37685

>  <sdf_rank>  (9) 
0

$$$$

     RDKit          3D

 64 66  0  0  0  0  0  0  0  0999 V2000
   26.0883  -27.9642   38.9954 C   0  0  1  0  0  0  0  0  0  0  0  0
   25.0146  -27.6381   40.0489 C   0  0  1  0  0  0  0  0  0  0  0  0
   23.6700  -27.3397   39.3961 C   0  0  2  0  0  0  0  0  0  0  0  0
   23.8226  -26.2931   38.3040 C   0  0  1  0  0  0  0  0  0  0  0  0
   24.9478  -26.6905   37.3387 C   0  0  1  0  0  0  0  0  0  0  0  0
   25.2061  -25.6253   36.2921 C   0  0  0  0  0  0  0  0  0  0  0  0
   24.5289  -28.5737   42.2383 C   0  0  0  0  0  0  0  0  0  0  0  0
   24.4585  -29.8191   43.0826 C   0  0  0  0  0  0  0  0  0  0  0  0
   24.9341  -28.7349   40.9866 N   0  0  0  0  0  0  0  0  0  0  0  0
   25.6911  -29.1772   38.3955 O   0  0  0  0  0  0  0  0  0  0  0  0
   22.7141  -26.9782   40.4103 O   0  0  0  0  0  0  0  0  0  0  0  0
   22.6231  -26.1974   37.5335 O   0  0  0  0  0  0  0  0  0  0  0  0
   26.1748  -26.8927   38.0657 O   0  0  0  0  0  0  0  0  0  0  0  0
   26.0936  -24.5770   36.7250 O   0  0  0  0  0  0  0  0  0  0  0  0
   24.1380  -27.4598   42.6434 O   0  0  0  0  0  0  0  0  0  0  0  0
   31.2662  -32.4961   44.9508 N   0  0  0  0  0  0  0  0  0  0  0  0
   31.9822  -33.2952   45.8399 C   0  0  0  0  0  0  0  0  0  0  0  0
   32.5469  -32.6212   46.9068 N   0  0  0  0  0  0  0  0  0  0  0  0
   32.5121  -31.2636   47.1395 C   0  0  0  0  0  0  0  0  0  0  0  0
   31.7478  -30.5189   46.1839 C   0  0  0  0  0  0  0  0  0  0  0  0
   31.1860  -31.1430   45.1508 C   0  0  0  0  0  0  0  0  0  0  0  0
   32.1107  -34.4923   45.6660 O   0  0  0  0  0  0  0  0  0  0  0  0
   33.0935  -30.7791   48.1181 O   0  0  0  0  0  0  0  0  0  0  0  0
   30.7223  -33.1652   43.7495 C   0  0  1  0  0  0  0  0  0  0  0  0
   29.4058  -33.8782   43.9414 C   0  0  2  0  0  0  0  0  0  0  0  0
   29.4418  -34.9951   43.0396 O   0  0  0  0  0  0  0  0  0  0  0  0
   28.4794  -32.8894   43.3135 C   0  0  1  0  0  0  0  0  0  0  0  0
   29.2782  -32.3966   42.0963 C   0  0  2  0  0  0  0  0  0  0  0  0
   30.5965  -32.2650   42.6528 O   0  0  0  0  0  0  0  0  0  0  0  0
   27.4219  -33.7204   42.8962 O   0  0  0  0  0  0  0  0  0  0  0  0
   28.8920  -31.0239   41.5619 C   0  0  0  0  0  0  0  0  0  0  0  0
   28.9137  -31.0987   40.1295 O   0  0  0  0  0  0  0  0  0  0  0  0
   27.6396  -31.5716   39.2422 P   0  0  2  0  0  0  0  0  0  0  0  0
   26.3285  -31.3869   39.9333 O   0  0  0  0  0  0  0  0  0  0  0  0
   27.9238  -32.9367   38.7333 O   0  0  0  0  0  0  0  0  0  0  0  0
   27.7408  -30.5142   38.0439 O   0  0  0  0  0  0  0  0  0  0  0  0
   26.5885  -29.7882   37.2026 P   0  0  1  0  0  0  0  0  0  0  0  0
   25.7838  -30.7365   36.3905 O   0  0  0  0  0  0  0  0  0  0  0  0
   27.1968  -28.5983   36.5215 O   0  0  0  0  0  0  0  0  0  0  0  0
   27.0932  -28.0797   39.4278 H   0  0  0  0  0  0  0  0  0  0  0  0
   25.2974  -26.7261   40.5950 H   0  0  0  0  0  0  0  0  0  0  0  0
   23.2844  -28.2396   38.8946 H   0  0  0  0  0  0  0  0  0  0  0  0
   24.0479  -25.3343   38.7938 H   0  0  0  0  0  0  0  0  0  0  0  0
   24.6224  -27.6153   36.8399 H   0  0  0  0  0  0  0  0  0  0  0  0
   25.6484  -26.1092   35.4088 H   0  0  0  0  0  0  0  0  0  0  0  0
   24.2371  -25.1511   36.0772 H   0  0  0  0  0  0  0  0  0  0  0  0
   24.4742  -29.5419   44.1469 H   0  0  0  0  0  0  0  0  0  0  0  0
   23.5282  -30.3618   42.8586 H   0  0  0  0  0  0  0  0  0  0  0  0
   25.3217  -30.4632   42.8586 H   0  0  0  0  0  0  0  0  0  0  0  0
   25.2018  -29.6778   40.6701 H   0  0  0  0  0  0  0  0  0  0  0  0
   23.1099  -27.1279   41.3052 H   0  0  0  0  0  0  0  0  0  0  0  0
   21.8443  -26.1353   38.1416 H   0  0  0  0  0  0  0  0  0  0  0  0
   26.1157  -24.5509   37.7144 H   0  0  0  0  0  0  0  0  0  0  0  0
   33.0466  -33.1947   47.6012 H   0  0  0  0  0  0  0  0  0  0  0  0
   31.6251  -29.4323   46.3036 H   0  0  0  0  0  0  0  0  0  0  0  0
   30.6279  -30.5405   44.4191 H   0  0  0  0  0  0  0  0  0  0  0  0
   31.4728  -33.9402   43.5349 H   0  0  0  0  0  0  0  0  0  0  0  0
   29.1638  -34.1898   44.9682 H   0  0  0  0  0  0  0  0  0  0  0  0
   29.4690  -35.8376   43.5587 H   0  0  0  0  0  0  0  0  0  0  0  0
   28.1259  -32.0428   43.9204 H   0  0  0  0  0  0  0  0  0  0  0  0
   29.1309  -33.0837   41.2500 H   0  0  0  0  0  0  0  0  0  0  0  0
   26.9565  -34.0860   43.6898 H   0  0  0  0  0  0  0  0  0  0  0  0
   27.8832  -30.7557   41.9090 H   0  0  0  0  0  0  0  0  0  0  0  0
   29.5932  -30.2563   41.9211 H   0  0  0  0  0  0  0  0  0  0  0  0
  1  2  1  0
  1 10  1  0
  1 13  1  0
  2  3  1  0
  2  9  1  0
  3  4  1  0
  3 11  1  0
  4  5  1  0
  4 12  1  0
  5  6  1  0
  5 13  1  0
  6 14  1  0
  7  8  1  0
  7  9  1  0
  7 15  2  0
 10 37  1  0
 16 17  1  0
 16 21  1  0
 24 16  1  0
 17 18  1  0
 17 22  2  0
 18 19  1  0
 19 20  1  0
 19 23  2  0
 20 21  2  0
 24 25  1  0
 24 29  1  0
 25 26  1  0
 25 27  1  0
 27 28  1  0
 27 30  1  0
 28 29  1  0
 28 31  1  0
 31 32  1  0
 32 33  1  0
 33 34  2  0
 33 35  1  6
 33 36  1  0
 36 37  1  0
 37 38  2  0
 37 39  1  6
  1 40  1  1
  2 41  1  1
  3 42  1  6
  4 43  1  1
  5 44  1  6
  6 45  1  0
  6 46  1  0
  8 47  1  0
  8 48  1  0
  8 49  1  0
  9 50  1  0
 11 51  1  0
 12 52  1  0
 14 53  1  0
 18 54  1  0
 20 55  1  0
 21 56  1  0
 24 57  1  6
 25 58  1  1
 26 59  1  0
 27 60  1  1
 28 61  1  6
 30 62  1  0
 31 63  1  0
 31 64  1  0
M  CHG  2  35  -1  39  -1
M  END
>  <filename_input>  (10) 
7TB0_UD1_docked.sdf

>  <pdb_id>  (10) 
7TB0_UD1

>  <pose_rank>  (10) 
9

>  <num_atoms_heavy>  (10) 
39

>  <num_torsions>  (10) 
10

>  <pose>  (10) 
[27.639552748109875, -31.57156348048679, 39.24221070585643, 0.2351713206711198, -6.097094210390353, -0.23292751404232748, -5.815100073850175, -7.173663746075935, -9.56464655628767, 0.009734808089013346, 1.5384426554956367, 4.375196622479972, -3.503450444977135, -0.2496149489322379, -4.906722881327963, 0.585079585234314]

>  <energy>  (10) 
-695.4607132338855

>  <inter_energy>  (10) 
-781.0085049070327

>  <intra_energy>  (10) 
86.14034958300267

>  <rmsd>  (10) 
4.72245

>  <sdf_rank>  (10) 
0

$$$$

     RDKit          3D

 64 66  0  0  0  0  0  0  0  0999 V2000
   26.0564  -27.7389   39.6773 C   0  0  1  0  0  0  0  0  0  0  0  0
   24.8080  -27.1495   40.3578 C   0  0  1  0  0  0  0  0  0  0  0  0
   23.5757  -27.2888   39.4716 C   0  0  2  0  0  0  0  0  0  0  0  0
   23.8512  -26.7473   38.0780 C   0  0  1  0  0  0  0  0  0  0  0  0
   25.1395  -27.3612   37.5129 C   0  0  1  0  0  0  0  0  0  0  0  0
   25.5105  -26.7727   36.1666 C   0  0  0  0  0  0  0  0  0  0  0  0
   23.9734  -27.2157   42.6389 C   0  0  0  0  0  0  0  0  0  0  0  0
   23.8376  -28.0254   43.9018 C   0  0  0  0  0  0  0  0  0  0  0  0
   24.6317  -27.7892   41.6416 N   0  0  0  0  0  0  0  0  0  0  0  0
   25.8279  -29.1270   39.5771 O   0  0  0  0  0  0  0  0  0  0  0  0
   22.4479  -26.6690   40.1175 O   0  0  0  0  0  0  0  0  0  0  0  0
   22.7918  -27.1013   37.1869 O   0  0  0  0  0  0  0  0  0  0  0  0
   26.2386  -27.1184   38.4117 O   0  0  0  0  0  0  0  0  0  0  0  0
   26.2692  -27.6608   35.3243 O   0  0  0  0  0  0  0  0  0  0  0  0
   23.4203  -26.1077   42.4839 O   0  0  0  0  0  0  0  0  0  0  0  0
   31.7349  -32.3883   45.9424 N   0  0  0  0  0  0  0  0  0  0  0  0
   32.2071  -33.6969   46.0213 C   0  0  0  0  0  0  0  0  0  0  0  0
   33.5513  -33.8159   46.3216 N   0  0  0  0  0  0  0  0  0  0  0  0
   34.4542  -32.7896   46.4951 C   0  0  0  0  0  0  0  0  0  0  0  0
   33.8838  -31.4785   46.4072 C   0  0  0  0  0  0  0  0  0  0  0  0
   32.5904  -31.3341   46.1272 C   0  0  0  0  0  0  0  0  0  0  0  0
   31.4837  -34.6534   45.8175 O   0  0  0  0  0  0  0  0  0  0  0  0
   35.6452  -33.0331   46.7248 O   0  0  0  0  0  0  0  0  0  0  0  0
   30.3235  -32.2169   45.5359 C   0  0  1  0  0  0  0  0  0  0  0  0
   29.8503  -30.7889   45.4122 C   0  0  2  0  0  0  0  0  0  0  0  0
   28.4604  -30.8149   45.7720 O   0  0  0  0  0  0  0  0  0  0  0  0
   29.8743  -30.6336   43.9271 C   0  0  1  0  0  0  0  0  0  0  0  0
   29.3571  -31.9937   43.4321 C   0  0  2  0  0  0  0  0  0  0  0  0
   30.0361  -32.8983   44.3184 O   0  0  0  0  0  0  0  0  0  0  0  0
   28.8941  -29.6414   43.7323 O   0  0  0  0  0  0  0  0  0  0  0  0
   29.7645  -32.3824   42.0172 C   0  0  0  0  0  0  0  0  0  0  0  0
   28.5696  -32.4347   41.2250 O   0  0  0  0  0  0  0  0  0  0  0  0
   28.5322  -32.0727   39.6434 P   0  0  2  0  0  0  0  0  0  0  0  0
   28.3372  -33.2627   38.7623 O   0  0  0  0  0  0  0  0  0  0  0  0
   29.7135  -31.2248   39.3450 O   0  0  0  0  0  0  0  0  0  0  0  0
   27.2018  -31.1823   39.6041 O   0  0  0  0  0  0  0  0  0  0  0  0
   26.7719  -30.0052   38.6080 P   0  0  1  0  0  0  0  0  0  0  0  0
   25.9940  -30.4939   37.4407 O   0  0  0  0  0  0  0  0  0  0  0  0
   27.9789  -29.1506   38.3580 O   0  0  0  0  0  0  0  0  0  0  0  0
   26.9809  -27.5587   40.2455 H   0  0  0  0  0  0  0  0  0  0  0  0
   24.9486  -26.0702   40.5169 H   0  0  0  0  0  0  0  0  0  0  0  0
   23.3260  -28.3512   39.3346 H   0  0  0  0  0  0  0  0  0  0  0  0
   23.9419  -25.6541   38.1597 H   0  0  0  0  0  0  0  0  0  0  0  0
   24.9498  -28.4384   37.3962 H   0  0  0  0  0  0  0  0  0  0  0  0
   24.5829  -26.5053   35.6393 H   0  0  0  0  0  0  0  0  0  0  0  0
   26.1519  -25.9019   36.3676 H   0  0  0  0  0  0  0  0  0  0  0  0
   23.9484  -27.3649   44.7745 H   0  0  0  0  0  0  0  0  0  0  0  0
   22.8469  -28.5027   43.9266 H   0  0  0  0  0  0  0  0  0  0  0  0
   24.6185  -28.7998   43.9266 H   0  0  0  0  0  0  0  0  0  0  0  0
   25.0329  -28.7267   41.7871 H   0  0  0  0  0  0  0  0  0  0  0  0
   22.5564  -26.7286   41.0997 H   0  0  0  0  0  0  0  0  0  0  0  0
   21.9950  -27.3675   37.7107 H   0  0  0  0  0  0  0  0  0  0  0  0
   26.7976  -28.2794   35.8883 H   0  0  0  0  0  0  0  0  0  0  0  0
   33.9166  -34.7732   46.4268 H   0  0  0  0  0  0  0  0  0  0  0  0
   34.5140  -30.5919   46.5709 H   0  0  0  0  0  0  0  0  0  0  0  0
   32.1871  -30.3144   46.0396 H   0  0  0  0  0  0  0  0  0  0  0  0
   29.7672  -32.6624   46.3738 H   0  0  0  0  0  0  0  0  0  0  0  0
   30.4081  -30.0375   45.9904 H   0  0  0  0  0  0  0  0  0  0  0  0
   28.3749  -30.8165   46.7583 H   0  0  0  0  0  0  0  0  0  0  0  0
   30.8271  -30.3752   43.4418 H   0  0  0  0  0  0  0  0  0  0  0  0
   28.2571  -31.9938   43.4223 H   0  0  0  0  0  0  0  0  0  0  0  0
   28.5737  -29.3170   44.6111 H   0  0  0  0  0  0  0  0  0  0  0  0
   30.4557  -31.6322   41.6056 H   0  0  0  0  0  0  0  0  0  0  0  0
   30.2750  -33.3567   42.0142 H   0  0  0  0  0  0  0  0  0  0  0  0
  1  2  1  0
  1 10  1  0
  1 13  1  0
  2  3  1  0
  2  9  1  0
  3  4  1  0
  3 11  1  0
  4  5  1  0
  4 12  1  0
  5  6  1  0
  5 13  1  0
  6 14  1  0
  7  8  1  0
  7  9  1  0
  7 15  2  0
 10 37  1  0
 16 17  1  0
 16 21  1  0
 24 16  1  0
 17 18  1  0
 17 22  2  0
 18 19  1  0
 19 20  1  0
 19 23  2  0
 20 21  2  0
 24 25  1  0
 24 29  1  0
 25 26  1  0
 25 27  1  0
 27 28  1  0
 27 30  1  0
 28 29  1  0
 28 31  1  0
 31 32  1  0
 32 33  1  0
 33 34  2  0
 33 35  1  6
 33 36  1  0
 36 37  1  0
 37 38  2  0
 37 39  1  6
  1 40  1  1
  2 41  1  1
  3 42  1  6
  4 43  1  1
  5 44  1  6
  6 45  1  0
  6 46  1  0
  8 47  1  0
  8 48  1  0
  8 49  1  0
  9 50  1  0
 11 51  1  0
 12 52  1  0
 14 53  1  0
 18 54  1  0
 20 55  1  0
 21 56  1  0
 24 57  1  1
 25 58  1  1
 26 59  1  0
 27 60  1  6
 28 61  1  6
 30 62  1  0
 31 63  1  0
 31 64  1  0
M  CHG  2  35  -1  39  -1
M  END
>  <filename_input>  (11) 
7TB0_UD1_docked.sdf

>  <pdb_id>  (11) 
7TB0_UD1

>  <pose_rank>  (11) 
10

>  <num_atoms_heavy>  (11) 
39

>  <num_torsions>  (11) 
10

>  <pose>  (11) 
[28.532201406356986, -32.07265738858044, 39.64337079387277, 1.0448530097732058, -0.4953181911221988, 1.4669938559924163, 1.9499631207682109, 0.17122010831778223, 3.4302462576516017, 1.736189081805454, -5.8384228939537985, 0.8253761556424956, 3.6148638010450163, -0.46954813400873924, 1.4224542722025348, -3.5531136341448826]

>  <energy>  (11) 
-623.9216821398661

>  <inter_energy>  (11) 
-716.1921692540568

>  <intra_energy>  (11) 
91.54637877121212

>  <rmsd>  (11) 
4.81668

>  <sdf_rank>  (11) 
0

$$$$

     RDKit          3D

 64 66  0  0  0  0  0  0  0  0999 V2000
   25.8236  -27.8133   36.0755 C   0  0  1  0  0  0  0  0  0  0  0  0
   24.4999  -27.7016   35.2982 C   0  0  1  0  0  0  0  0  0  0  0  0
   24.2313  -28.9576   34.4776 C   0  0  2  0  0  0  0  0  0  0  0  0
   25.4383  -29.3106   33.6233 C   0  0  1  0  0  0  0  0  0  0  0  0
   26.7081  -29.3478   34.4847 C   0  0  1  0  0  0  0  0  0  0  0  0
   27.9534  -29.5940   33.6570 C   0  0  0  0  0  0  0  0  0  0  0  0
   23.0387  -26.1887   36.5148 C   0  0  0  0  0  0  0  0  0  0  0  0
   21.8866  -26.0604   37.4767 C   0  0  0  0  0  0  0  0  0  0  0  0
   23.4334  -27.4221   36.2325 N   0  0  0  0  0  0  0  0  0  0  0  0
   25.6346  -28.8407   37.0231 O   0  0  0  0  0  0  0  0  0  0  0  0
   23.0198  -28.7849   33.7189 O   0  0  0  0  0  0  0  0  0  0  0  0
   25.2814  -30.6104   33.0509 O   0  0  0  0  0  0  0  0  0  0  0  0
   26.8803  -28.0907   35.1664 O   0  0  0  0  0  0  0  0  0  0  0  0
   28.4541  -30.9421   33.7324 O   0  0  0  0  0  0  0  0  0  0  0  0
   23.5420  -25.2084   35.9289 O   0  0  0  0  0  0  0  0  0  0  0  0
   31.0805  -33.0122   44.4106 N   0  0  0  0  0  0  0  0  0  0  0  0
   31.5125  -33.9497   45.3466 C   0  0  0  0  0  0  0  0  0  0  0  0
   32.2504  -33.4318   46.3948 N   0  0  0  0  0  0  0  0  0  0  0  0
   32.6315  -32.1192   46.5689 C   0  0  0  0  0  0  0  0  0  0  0  0
   32.1372  -31.2217   45.5678 C   0  0  0  0  0  0  0  0  0  0  0  0
   31.4172  -31.6915   44.5514 C   0  0  0  0  0  0  0  0  0  0  0  0
   31.2694  -35.1356   45.2262 O   0  0  0  0  0  0  0  0  0  0  0  0
   33.3278  -31.7906   47.5373 O   0  0  0  0  0  0  0  0  0  0  0  0
   30.3646  -33.5381   43.2284 C   0  0  1  0  0  0  0  0  0  0  0  0
   28.8873  -33.7833   43.4177 C   0  0  2  0  0  0  0  0  0  0  0  0
   28.5747  -34.9012   42.5724 O   0  0  0  0  0  0  0  0  0  0  0  0
   28.3322  -32.5869   42.7172 C   0  0  1  0  0  0  0  0  0  0  0  0
   29.2598  -32.4416   41.5003 C   0  0  2  0  0  0  0  0  0  0  0  0
   30.5449  -32.7061   42.0863 O   0  0  0  0  0  0  0  0  0  0  0  0
   27.0693  -33.0597   42.3112 O   0  0  0  0  0  0  0  0  0  0  0  0
   29.3381  -31.0488   40.8895 C   0  0  0  0  0  0  0  0  0  0  0  0
   28.0004  -30.5359   40.8162 O   0  0  0  0  0  0  0  0  0  0  0  0
   26.8391  -31.2028   39.8992 P   0  0  2  0  0  0  0  0  0  0  0  0
   25.4763  -31.1158   40.5040 O   0  0  0  0  0  0  0  0  0  0  0  0
   27.2951  -32.5600   39.5075 O   0  0  0  0  0  0  0  0  0  0  0  0
   26.9018  -30.2234   38.6338 O   0  0  0  0  0  0  0  0  0  0  0  0
   26.3667  -28.7253   38.4557 P   0  0  1  0  0  0  0  0  0  0  0  0
   27.4635  -27.7257   38.3913 O   0  0  0  0  0  0  0  0  0  0  0  0
   25.2595  -28.5119   39.4448 O   0  0  0  0  0  0  0  0  0  0  0  0
   26.0978  -26.8821   36.5930 H   0  0  0  0  0  0  0  0  0  0  0  0
   24.5638  -26.8739   34.5765 H   0  0  0  0  0  0  0  0  0  0  0  0
   24.0754  -29.8190   35.1437 H   0  0  0  0  0  0  0  0  0  0  0  0
   25.5216  -28.5465   32.8365 H   0  0  0  0  0  0  0  0  0  0  0  0
   26.5798  -30.1747   35.1987 H   0  0  0  0  0  0  0  0  0  0  0  0
   27.7187  -29.3712   32.6056 H   0  0  0  0  0  0  0  0  0  0  0  0
   28.7391  -28.9411   34.0651 H   0  0  0  0  0  0  0  0  0  0  0  0
   22.2643  -26.1025   38.5090 H   0  0  0  0  0  0  0  0  0  0  0  0
   21.3764  -25.1000   37.3118 H   0  0  0  0  0  0  0  0  0  0  0  0
   21.1777  -26.8852   37.3118 H   0  0  0  0  0  0  0  0  0  0  0  0
   22.9620  -28.2115   36.6967 H   0  0  0  0  0  0  0  0  0  0  0  0
   22.2552  -28.6759   34.3383 H   0  0  0  0  0  0  0  0  0  0  0  0
   25.2003  -31.2818   33.7738 H   0  0  0  0  0  0  0  0  0  0  0  0
   28.5518  -31.2052   34.6818 H   0  0  0  0  0  0  0  0  0  0  0  0
   32.5467  -34.0977   47.1226 H   0  0  0  0  0  0  0  0  0  0  0  0
   32.3524  -30.1453   45.6389 H   0  0  0  0  0  0  0  0  0  0  0  0
   31.0745  -30.9819   43.7839 H   0  0  0  0  0  0  0  0  0  0  0  0
   30.8307  -34.5222   43.0725 H   0  0  0  0  0  0  0  0  0  0  0  0
   28.5472  -33.9449   44.4513 H   0  0  0  0  0  0  0  0  0  0  0  0
   28.3549  -35.6872   43.1326 H   0  0  0  0  0  0  0  0  0  0  0  0
   28.2609  -31.6400   43.2723 H   0  0  0  0  0  0  0  0  0  0  0  0
   28.9102  -33.0913   40.6844 H   0  0  0  0  0  0  0  0  0  0  0  0
   26.5214  -33.2648   43.1098 H   0  0  0  0  0  0  0  0  0  0  0  0
   29.9570  -30.3953   41.5219 H   0  0  0  0  0  0  0  0  0  0  0  0
   29.7938  -31.0888   39.8891 H   0  0  0  0  0  0  0  0  0  0  0  0
  1  2  1  0
  1 10  1  0
  1 13  1  0
  2  3  1  0
  2  9  1  0
  3  4  1  0
  3 11  1  0
  4  5  1  0
  4 12  1  0
  5  6  1  0
  5 13  1  0
  6 14  1  0
  7  8  1  0
  7  9  1  0
  7 15  2  0
 10 37  1  0
 16 17  1  0
 16 21  1  0
 24 16  1  0
 17 18  1  0
 17 22  2  0
 18 19  1  0
 19 20  1  0
 19 23  2  0
 20 21  2  0
 24 25  1  0
 24 29  1  0
 25 26  1  0
 25 27  1  0
 27 28  1  0
 27 30  1  0
 28 29  1  0
 28 31  1  0
 31 32  1  0
 32 33  1  0
 33 34  2  0
 33 35  1  6
 33 36  1  0
 36 37  1  0
 37 38  2  0
 37 39  1  1
  1 40  1  1
  2 41  1  6
  3 42  1  1
  4 43  1  6
  5 44  1  1
  6 45  1  0
  6 46  1  0
  8 47  1  0
  8 48  1  0
  8 49  1  0
  9 50  1  0
 11 51  1  0
 12 52  1  0
 14 53  1  0
 18 54  1  0
 20 55  1  0
 21 56  1  0
 24 57  1  6
 25 58  1  1
 26 59  1  0
 27 60  1  1
 28 61  1  6
 30 62  1  0
 31 63  1  0
 31 64  1  0
M  CHG  2  35  -1  39  -1
M  END
>  <filename_input>  (12) 
7TB0_UD1_docked.sdf

>  <pdb_id>  (12) 
7TB0_UD1

>  <pose_rank>  (12) 
11

>  <num_atoms_heavy>  (12) 
39

>  <num_torsions>  (12) 
10

>  <pose>  (12) 
[26.839094676320027, -31.20280872841981, 39.899219576580975, -3.0732224940862394, 4.233236816825685, 3.7993145045428287, -3.6883943261933916, -3.531444201877319, -1.6161245727081288, 0.026818001694071555, -3.5365901959409203, -5.162788987927098, -1.025604028562822, -5.915138403620219, 0.32826494274943624, -2.6827470770585653]

>  <energy>  (12) 
-663.826181671936

>  <inter_energy>  (12) 
-746.9766751206548

>  <intra_energy>  (12) 
75.3025373491938

>  <rmsd>  (12) 
4.50801

>  <sdf_rank>  (12) 
0

$$$$

     RDKit          3D

 64 66  0  0  0  0  0  0  0  0999 V2000
   27.6471  -32.8522   42.1581 C   0  0  1  0  0  0  0  0  0  0  0  0
   28.6822  -32.1766   43.0752 C   0  0  1  0  0  0  0  0  0  0  0  0
   30.0947  -32.6596   42.7672 C   0  0  2  0  0  0  0  0  0  0  0  0
   30.1538  -34.1788   42.7584 C   0  0  1  0  0  0  0  0  0  0  0  0
   29.0525  -34.7496   41.8545 C   0  0  1  0  0  0  0  0  0  0  0  0
   29.0067  -36.2638   41.8960 C   0  0  0  0  0  0  0  0  0  0  0  0
   28.3294  -29.9497   43.9812 C   0  0  0  0  0  0  0  0  0  0  0  0
   28.2638  -28.4731   43.6905 C   0  0  0  0  0  0  0  0  0  0  0  0
   28.5554  -30.7430   42.9437 N   0  0  0  0  0  0  0  0  0  0  0  0
   27.9200  -32.3898   40.8540 O   0  0  0  0  0  0  0  0  0  0  0  0
   31.0206  -32.0528   43.6878 O   0  0  0  0  0  0  0  0  0  0  0  0
   31.4039  -34.6263   42.2305 O   0  0  0  0  0  0  0  0  0  0  0  0
   27.7642  -34.2636   42.2774 O   0  0  0  0  0  0  0  0  0  0  0  0
   29.3958  -36.8991   40.6636 O   0  0  0  0  0  0  0  0  0  0  0  0
   28.2765  -30.4134   45.1387 O   0  0  0  0  0  0  0  0  0  0  0  0
   24.1721  -27.5945   39.7897 N   0  0  0  0  0  0  0  0  0  0  0  0
   25.3711  -27.6765   40.4949 C   0  0  0  0  0  0  0  0  0  0  0  0
   25.2360  -27.8788   41.8558 N   0  0  0  0  0  0  0  0  0  0  0  0
   24.0589  -27.9539   42.5681 C   0  0  0  0  0  0  0  0  0  0  0  0
   22.8753  -27.8702   41.7656 C   0  0  0  0  0  0  0  0  0  0  0  0
   22.9755  -27.6836   40.4513 C   0  0  0  0  0  0  0  0  0  0  0  0
   26.4489  -27.5556   39.9440 O   0  0  0  0  0  0  0  0  0  0  0  0
   24.0765  -28.1009   43.7964 O   0  0  0  0  0  0  0  0  0  0  0  0
   24.2722  -27.2898   38.3462 C   0  0  1  0  0  0  0  0  0  0  0  0
   24.8084  -25.9205   38.0055 C   0  0  2  0  0  0  0  0  0  0  0  0
   24.1519  -25.5468   36.7843 O   0  0  0  0  0  0  0  0  0  0  0  0
   26.2047  -26.2770   37.6139 C   0  0  1  0  0  0  0  0  0  0  0  0
   26.0183  -27.5917   36.8398 C   0  0  2  0  0  0  0  0  0  0  0  0
   25.0421  -28.2658   37.6507 O   0  0  0  0  0  0  0  0  0  0  0  0
   26.5232  -25.2316   36.7256 O   0  0  0  0  0  0  0  0  0  0  0  0
   27.2370  -28.5027   36.7780 C   0  0  0  0  0  0  0  0  0  0  0  0
   26.7783  -29.8480   36.9722 O   0  0  0  0  0  0  0  0  0  0  0  0
   27.7459  -31.0590   37.4533 P   0  0  2  0  0  0  0  0  0  0  0  0
   29.1032  -30.6057   37.8806 O   0  0  0  0  0  0  0  0  0  0  0  0
   27.7074  -32.1119   36.4077 O   0  0  0  0  0  0  0  0  0  0  0  0
   26.9384  -31.5491   38.7463 O   0  0  0  0  0  0  0  0  0  0  0  0
   27.0907  -31.1294   40.2836 P   0  0  1  0  0  0  0  0  0  0  0  0
   25.7846  -31.0172   40.9821 O   0  0  0  0  0  0  0  0  0  0  0  0
   28.0419  -29.9717   40.3520 O   0  0  0  0  0  0  0  0  0  0  0  0
   26.6094  -32.6047   42.4262 H   0  0  0  0  0  0  0  0  0  0  0  0
   28.4864  -32.4544   44.1213 H   0  0  0  0  0  0  0  0  0  0  0  0
   30.3908  -32.3440   41.7559 H   0  0  0  0  0  0  0  0  0  0  0  0
   30.0249  -34.5208   43.7959 H   0  0  0  0  0  0  0  0  0  0  0  0
   29.2857  -34.4234   40.8302 H   0  0  0  0  0  0  0  0  0  0  0  0
   29.6847  -36.6081   42.6909 H   0  0  0  0  0  0  0  0  0  0  0  0
   27.9589  -36.5440   42.0796 H   0  0  0  0  0  0  0  0  0  0  0  0
   28.2389  -27.9138   44.6374 H   0  0  0  0  0  0  0  0  0  0  0  0
   29.1495  -28.1738   43.1110 H   0  0  0  0  0  0  0  0  0  0  0  0
   27.3550  -28.2536   43.1110 H   0  0  0  0  0  0  0  0  0  0  0  0
   28.6439  -30.3216   42.0080 H   0  0  0  0  0  0  0  0  0  0  0  0
   30.7337  -32.2408   44.6164 H   0  0  0  0  0  0  0  0  0  0  0  0
   32.0173  -34.8459   42.9759 H   0  0  0  0  0  0  0  0  0  0  0  0
   29.9022  -37.7258   40.8640 H   0  0  0  0  0  0  0  0  0  0  0  0
   26.1076  -27.9845   42.3944 H   0  0  0  0  0  0  0  0  0  0  0  0
   21.8845  -27.9601   42.2350 H   0  0  0  0  0  0  0  0  0  0  0  0
   22.0486  -27.5964   39.8654 H   0  0  0  0  0  0  0  0  0  0  0  0
   23.2237  -27.3099   38.0142 H   0  0  0  0  0  0  0  0  0  0  0  0
   24.7013  -25.1470   38.7802 H   0  0  0  0  0  0  0  0  0  0  0  0
   23.3113  -25.0681   36.9947 H   0  0  0  0  0  0  0  0  0  0  0  0
   26.9590  -26.3911   38.4063 H   0  0  0  0  0  0  0  0  0  0  0  0
   25.7708  -27.3752   35.7901 H   0  0  0  0  0  0  0  0  0  0  0  0
   26.7694  -24.4235   37.2417 H   0  0  0  0  0  0  0  0  0  0  0  0
   27.7261  -28.4102   35.7971 H   0  0  0  0  0  0  0  0  0  0  0  0
   27.9678  -28.2263   37.5524 H   0  0  0  0  0  0  0  0  0  0  0  0
  1  2  1  0
  1 10  1  0
  1 13  1  0
  2  3  1  0
  2  9  1  0
  3  4  1  0
  3 11  1  0
  4  5  1  0
  4 12  1  0
  5  6  1  0
  5 13  1  0
  6 14  1  0
  7  8  1  0
  7  9  1  0
  7 15  2  0
 10 37  1  0
 16 17  1  0
 16 21  1  0
 24 16  1  0
 17 18  1  0
 17 22  2  0
 18 19  1  0
 19 20  1  0
 19 23  2  0
 20 21  2  0
 24 25  1  0
 24 29  1  0
 25 26  1  0
 25 27  1  0
 27 28  1  0
 27 30  1  0
 28 29  1  0
 28 31  1  0
 31 32  1  0
 32 33  1  0
 33 34  2  0
 33 35  1  6
 33 36  1  0
 36 37  1  0
 37 38  2  0
 37 39  1  6
  1 40  1  1
  2 41  1  1
  3 42  1  6
  4 43  1  1
  5 44  1  6
  6 45  1  0
  6 46  1  0
  8 47  1  0
  8 48  1  0
  8 49  1  0
  9 50  1  0
 11 51  1  0
 12 52  1  0
 14 53  1  0
 18 54  1  0
 20 55  1  0
 21 56  1  0
 24 57  1  6
 25 58  1  1
 26 59  1  0
 27 60  1  1
 28 61  1  6
 30 62  1  0
 31 63  1  0
 31 64  1  0
M  CHG  2  35  -1  39  -1
M  END
>  <filename_input>  (13) 
7TB0_UD1_docked.sdf

>  <pdb_id>  (13) 
7TB0_UD1

>  <pose_rank>  (13) 
12

>  <num_atoms_heavy>  (13) 
39

>  <num_torsions>  (13) 
10

>  <pose>  (13) 
[27.745886464220238, -31.058995178647322, 37.45325662071285, 0.2661174497059686, -2.954859128557784, -1.7543056323169481, 0.21339492843723537, 1.083179366026657, 1.5659982705108475, -2.588168300896443, -3.843051757660681, 1.6931319878378073, -1.1560636361622305, 1.2562372835440754, 0.8601482582672868, -2.8498046773471946]

>  <energy>  (13) 
-770.5566762713328

>  <inter_energy>  (13) 
-886.4047371852914

>  <intra_energy>  (13) 
124.90826590937046

>  <rmsd>  (13) 
8.76882

>  <sdf_rank>  (13) 
0

$$$$

     RDKit          3D

 64 66  0  0  0  0  0  0  0  0999 V2000
   26.9116  -27.9637   36.7442 C   0  0  1  0  0  0  0  0  0  0  0  0
   26.1103  -26.7340   37.2074 C   0  0  1  0  0  0  0  0  0  0  0  0
   24.6712  -26.7900   36.7083 C   0  0  2  0  0  0  0  0  0  0  0  0
   24.6308  -27.0432   35.2098 C   0  0  1  0  0  0  0  0  0  0  0  0
   25.4983  -28.2576   34.8511 C   0  0  1  0  0  0  0  0  0  0  0  0
   25.5718  -28.4857   33.3547 C   0  0  0  0  0  0  0  0  0  0  0  0
   25.3008  -27.2292   39.4443 C   0  0  0  0  0  0  0  0  0  0  0  0
   25.5360  -27.0810   40.9247 C   0  0  0  0  0  0  0  0  0  0  0  0
   26.1848  -26.6452   38.6479 N   0  0  0  0  0  0  0  0  0  0  0  0
   26.3365  -29.0734   37.3976 O   0  0  0  0  0  0  0  0  0  0  0  0
   23.9776  -25.5935   37.1088 O   0  0  0  0  0  0  0  0  0  0  0  0
   23.2979  -27.3410   34.7898 O   0  0  0  0  0  0  0  0  0  0  0  0
   26.8434  -28.0627   35.3280 O   0  0  0  0  0  0  0  0  0  0  0  0
   26.8245  -29.0339   32.9031 O   0  0  0  0  0  0  0  0  0  0  0  0
   24.3895  -27.9397   38.9728 O   0  0  0  0  0  0  0  0  0  0  0  0
   29.3838  -32.1739   44.0622 N   0  0  0  0  0  0  0  0  0  0  0  0
   30.0209  -31.9626   45.2833 C   0  0  0  0  0  0  0  0  0  0  0  0
   29.4214  -31.0222   46.1003 N   0  0  0  0  0  0  0  0  0  0  0  0
   28.3126  -30.2585   45.8073 C   0  0  0  0  0  0  0  0  0  0  0  0
   27.7146  -30.5462   44.5378 C   0  0  0  0  0  0  0  0  0  0  0  0
   28.2660  -31.4528   43.7338 C   0  0  0  0  0  0  0  0  0  0  0  0
   31.0406  -32.5533   45.5856 O   0  0  0  0  0  0  0  0  0  0  0  0
   27.8961  -29.4200   46.6159 O   0  0  0  0  0  0  0  0  0  0  0  0
   30.0437  -33.1066   43.1235 C   0  0  1  0  0  0  0  0  0  0  0  0
   29.5939  -34.5448   43.2106 C   0  0  2  0  0  0  0  0  0  0  0  0
   30.7490  -35.3271   42.8708 O   0  0  0  0  0  0  0  0  0  0  0  0
   28.7017  -34.6122   42.0150 C   0  0  1  0  0  0  0  0  0  0  0  0
   29.4611  -33.7750   40.9733 C   0  0  2  0  0  0  0  0  0  0  0  0
   29.9218  -32.6729   41.7721 O   0  0  0  0  0  0  0  0  0  0  0  0
   28.7752  -35.9795   41.6859 O   0  0  0  0  0  0  0  0  0  0  0  0
   28.6140  -33.1794   39.8568 C   0  0  0  0  0  0  0  0  0  0  0  0
   27.4638  -32.5754   40.4654 O   0  0  0  0  0  0  0  0  0  0  0  0
   27.0008  -31.0473   40.1748 P   0  0  2  0  0  0  0  0  0  0  0  0
   28.1211  -30.0616   40.2354 O   0  0  0  0  0  0  0  0  0  0  0  0
   25.8278  -30.7578   41.0372 O   0  0  0  0  0  0  0  0  0  0  0  0
   26.5303  -31.1955   38.6513 O   0  0  0  0  0  0  0  0  0  0  0  0
   27.0878  -30.4988   37.3223 P   0  0  1  0  0  0  0  0  0  0  0  0
   26.6942  -31.2204   36.0851 O   0  0  0  0  0  0  0  0  0  0  0  0
   28.5390  -30.1882   37.5401 O   0  0  0  0  0  0  0  0  0  0  0  0
   27.9800  -27.9008   36.9982 H   0  0  0  0  0  0  0  0  0  0  0  0
   26.5480  -25.8228   36.7738 H   0  0  0  0  0  0  0  0  0  0  0  0
   24.1436  -27.6386   37.1682 H   0  0  0  0  0  0  0  0  0  0  0  0
   25.0024  -26.1360   34.7109 H   0  0  0  0  0  0  0  0  0  0  0  0
   25.0287  -29.1312   35.3269 H   0  0  0  0  0  0  0  0  0  0  0  0
   24.7683  -29.1817   33.0717 H   0  0  0  0  0  0  0  0  0  0  0  0
   25.4677  -27.4995   32.8786 H   0  0  0  0  0  0  0  0  0  0  0  0
   24.7308  -27.5881   41.4765 H   0  0  0  0  0  0  0  0  0  0  0  0
   26.5031  -27.5334   41.1894 H   0  0  0  0  0  0  0  0  0  0  0  0
   25.5459  -26.0134   41.1894 H   0  0  0  0  0  0  0  0  0  0  0  0
   26.9543  -26.1076   39.0719 H   0  0  0  0  0  0  0  0  0  0  0  0
   23.9489  -25.5439   38.0971 H   0  0  0  0  0  0  0  0  0  0  0  0
   22.7223  -27.4696   35.5850 H   0  0  0  0  0  0  0  0  0  0  0  0
   27.3797  -29.2769   33.6859 H   0  0  0  0  0  0  0  0  0  0  0  0
   29.8488  -30.8771   47.0261 H   0  0  0  0  0  0  0  0  0  0  0  0
   26.8007  -30.0184   44.2275 H   0  0  0  0  0  0  0  0  0  0  0  0
   27.7994  -31.6325   42.7540 H   0  0  0  0  0  0  0  0  0  0  0  0
   31.0946  -33.0842   43.4478 H   0  0  0  0  0  0  0  0  0  0  0  0
   29.1527  -34.8618   44.1671 H   0  0  0  0  0  0  0  0  0  0  0  0
   31.1974  -35.6308   43.6996 H   0  0  0  0  0  0  0  0  0  0  0  0
   27.6625  -34.2659   42.1155 H   0  0  0  0  0  0  0  0  0  0  0  0
   30.2066  -34.4018   40.4621 H   0  0  0  0  0  0  0  0  0  0  0  0
   28.8041  -36.5177   42.5164 H   0  0  0  0  0  0  0  0  0  0  0  0
   29.1925  -32.4199   39.3104 H   0  0  0  0  0  0  0  0  0  0  0  0
   28.3106  -33.9586   39.1421 H   0  0  0  0  0  0  0  0  0  0  0  0
  1  2  1  0
  1 10  1  0
  1 13  1  0
  2  3  1  0
  2  9  1  0
  3  4  1  0
  3 11  1  0
  4  5  1  0
  4 12  1  0
  5  6  1  0
  5 13  1  0
  6 14  1  0
  7  8  1  0
  7  9  1  0
  7 15  2  0
 10 37  1  0
 16 17  1  0
 16 21  1  0
 24 16  1  0
 17 18  1  0
 17 22  2  0
 18 19  1  0
 19 20  1  0
 19 23  2  0
 20 21  2  0
 24 25  1  0
 24 29  1  0
 25 26  1  0
 25 27  1  0
 27 28  1  0
 27 30  1  0
 28 29  1  0
 28 31  1  0
 31 32  1  0
 32 33  1  0
 33 34  2  0
 33 35  1  1
 33 36  1  0
 36 37  1  0
 37 38  2  0
 37 39  1  1
  1 40  1  6
  2 41  1  6
  3 42  1  1
  4 43  1  6
  5 44  1  1
  6 45  1  0
  6 46  1  0
  8 47  1  0
  8 48  1  0
  8 49  1  0
  9 50  1  0
 11 51  1  0
 12 52  1  0
 14 53  1  0
 18 54  1  0
 20 55  1  0
 21 56  1  0
 24 57  1  1
 25 58  1  1
 26 59  1  0
 27 60  1  1
 28 61  1  6
 30 62  1  0
 31 63  1  0
 31 64  1  0
M  CHG  2  35  -1  39  -1
M  END
>  <filename_input>  (14) 
7TB0_UD1_docked.sdf

>  <pdb_id>  (14) 
7TB0_UD1

>  <pose_rank>  (14) 
13

>  <num_atoms_heavy>  (14) 
39

>  <num_torsions>  (14) 
10

>  <pose>  (14) 
[27.000786922699067, -31.047288653570902, 40.17475525211208, 1.091481384067356, -1.767898090821772, 3.4738957440046763, 24.374268461516337, -6.460436722434106, -25.160105563560673, 0.17612716414096743, -16.845242465909806, -16.814665612774142, -33.637558442037374, -56.59687090409874, 3.4123721796553395, 1.6815051117326263]

>  <energy>  (14) 
-796.4853303364711

>  <inter_energy>  (14) 
-873.8792460266246

>  <intra_energy>  (14) 
91.81595482852045

>  <rmsd>  (14) 
4.45559

>  <sdf_rank>  (14) 
0

$$$$

     RDKit          3D

 64 66  0  0  0  0  0  0  0  0999 V2000
   26.4741  -28.2008   36.4923 C   0  0  1  0  0  0  0  0  0  0  0  0
   25.4541  -27.2564   37.1530 C   0  0  1  0  0  0  0  0  0  0  0  0
   24.0622  -27.4414   36.5601 C   0  0  2  0  0  0  0  0  0  0  0  0
   24.1086  -27.3600   35.0427 C   0  0  1  0  0  0  0  0  0  0  0  0
   25.1880  -28.3017   34.4914 C   0  0  1  0  0  0  0  0  0  0  0  0
   25.3418  -28.1776   32.9889 C   0  0  0  0  0  0  0  0  0  0  0  0
   26.0073  -26.6103   39.4292 C   0  0  0  0  0  0  0  0  0  0  0  0
   25.9120  -26.9611   40.8910 C   0  0  0  0  0  0  0  0  0  0  0  0
   25.4723  -27.4771   38.5811 N   0  0  0  0  0  0  0  0  0  0  0  0
   26.0882  -29.5079   36.8552 O   0  0  0  0  0  0  0  0  0  0  0  0
   23.1559  -26.4968   37.1598 O   0  0  0  0  0  0  0  0  0  0  0  0
   22.8620  -27.7770   34.4824 O   0  0  0  0  0  0  0  0  0  0  0  0
   26.4633  -27.9942   35.0862 O   0  0  0  0  0  0  0  0  0  0  0  0
   26.6937  -27.9415   32.5525 O   0  0  0  0  0  0  0  0  0  0  0  0
   26.4699  -25.5243   39.0238 O   0  0  0  0  0  0  0  0  0  0  0  0
   29.0481  -32.9997   44.1859 N   0  0  0  0  0  0  0  0  0  0  0  0
   29.5578  -33.1972   45.4676 C   0  0  0  0  0  0  0  0  0  0  0  0
   29.9725  -34.4878   45.7392 N   0  0  0  0  0  0  0  0  0  0  0  0
   29.8844  -35.5784   44.9018 C   0  0  0  0  0  0  0  0  0  0  0  0
   29.3586  -35.2854   43.6019 C   0  0  0  0  0  0  0  0  0  0  0  0
   28.9589  -34.0496   43.3099 C   0  0  0  0  0  0  0  0  0  0  0  0
   29.6081  -32.2966   46.2838 O   0  0  0  0  0  0  0  0  0  0  0  0
   30.2597  -36.6942   45.2822 O   0  0  0  0  0  0  0  0  0  0  0  0
   28.5119  -31.6546   43.8863 C   0  0  1  0  0  0  0  0  0  0  0  0
   29.4590  -30.7200   43.1738 C   0  0  2  0  0  0  0  0  0  0  0  0
   29.1202  -29.4048   43.6402 O   0  0  0  0  0  0  0  0  0  0  0  0
   28.9133  -30.8031   41.7862 C   0  0  1  0  0  0  0  0  0  0  0  0
   27.3941  -30.8383   42.0172 C   0  0  2  0  0  0  0  0  0  0  0  0
   27.2963  -31.7213   43.1466 O   0  0  0  0  0  0  0  0  0  0  0  0
   29.2953  -29.5546   41.2585 O   0  0  0  0  0  0  0  0  0  0  0  0
   26.5687  -31.4652   40.9015 C   0  0  0  0  0  0  0  0  0  0  0  0
   27.0412  -30.9226   39.6605 O   0  0  0  0  0  0  0  0  0  0  0  0
   27.9346  -31.7674   38.6011 P   0  0  2  0  0  0  0  0  0  0  0  0
   28.1877  -33.1774   39.0233 O   0  0  0  0  0  0  0  0  0  0  0  0
   29.1348  -30.9576   38.2737 O   0  0  0  0  0  0  0  0  0  0  0  0
   26.9310  -31.7782   37.3533 O   0  0  0  0  0  0  0  0  0  0  0  0
   26.7941  -30.7609   36.1249 P   0  0  1  0  0  0  0  0  0  0  0  0
   25.9211  -31.2805   35.0413 O   0  0  0  0  0  0  0  0  0  0  0  0
   28.1703  -30.2820   35.7691 O   0  0  0  0  0  0  0  0  0  0  0  0
   27.5069  -28.0172   36.8235 H   0  0  0  0  0  0  0  0  0  0  0  0
   25.7342  -26.2116   36.9531 H   0  0  0  0  0  0  0  0  0  0  0  0
   23.6819  -28.4469   36.7932 H   0  0  0  0  0  0  0  0  0  0  0  0
   24.3260  -26.3158   34.7739 H   0  0  0  0  0  0  0  0  0  0  0  0
   24.8687  -29.3250   34.7384 H   0  0  0  0  0  0  0  0  0  0  0  0
   24.9881  -29.1114   32.5274 H   0  0  0  0  0  0  0  0  0  0  0  0
   24.7523  -27.3012   32.6816 H   0  0  0  0  0  0  0  0  0  0  0  0
   26.1527  -26.0753   41.4971 H   0  0  0  0  0  0  0  0  0  0  0  0
   24.8901  -27.2966   41.1217 H   0  0  0  0  0  0  0  0  0  0  0  0
   26.6235  -27.7677   41.1217 H   0  0  0  0  0  0  0  0  0  0  0  0
   25.0534  -28.3410   38.9542 H   0  0  0  0  0  0  0  0  0  0  0  0
   23.2174  -26.5609   38.1458 H   0  0  0  0  0  0  0  0  0  0  0  0
   22.2270  -27.9894   35.2116 H   0  0  0  0  0  0  0  0  0  0  0  0
   27.2821  -27.8388   33.3420 H   0  0  0  0  0  0  0  0  0  0  0  0
   30.3918  -34.6513   46.6657 H   0  0  0  0  0  0  0  0  0  0  0  0
   29.2852  -36.0809   42.8457 H   0  0  0  0  0  0  0  0  0  0  0  0
   28.5345  -33.8613   42.3127 H   0  0  0  0  0  0  0  0  0  0  0  0
   28.3386  -31.2276   44.8851 H   0  0  0  0  0  0  0  0  0  0  0  0
   30.5325  -30.9305   43.2893 H   0  0  0  0  0  0  0  0  0  0  0  0
   29.1180  -29.3962   44.6302 H   0  0  0  0  0  0  0  0  0  0  0  0
   29.2328  -31.6385   41.1458 H   0  0  0  0  0  0  0  0  0  0  0  0
   27.0076  -29.8132   42.1162 H   0  0  0  0  0  0  0  0  0  0  0  0
   29.4871  -28.9276   42.0003 H   0  0  0  0  0  0  0  0  0  0  0  0
   26.6972  -32.5576   40.9073 H   0  0  0  0  0  0  0  0  0  0  0  0
   25.4997  -31.2453   41.0392 H   0  0  0  0  0  0  0  0  0  0  0  0
  1  2  1  0
  1 10  1  0
  1 13  1  0
  2  3  1  0
  2  9  1  0
  3  4  1  0
  3 11  1  0
  4  5  1  0
  4 12  1  0
  5  6  1  0
  5 13  1  0
  6 14  1  0
  7  8  1  0
  7  9  1  0
  7 15  2  0
 10 37  1  0
 16 17  1  0
 16 21  1  0
 24 16  1  0
 17 18  1  0
 17 22  2  0
 18 19  1  0
 19 20  1  0
 19 23  2  0
 20 21  2  0
 24 25  1  0
 24 29  1  0
 25 26  1  0
 25 27  1  0
 27 28  1  0
 27 30  1  0
 28 29  1  0
 28 31  1  0
 31 32  1  0
 32 33  1  0
 33 34  2  0
 33 35  1  6
 33 36  1  0
 36 37  1  0
 37 38  2  0
 37 39  1  6
  1 40  1  1
  2 41  1  1
  3 42  1  6
  4 43  1  1
  5 44  1  6
  6 45  1  0
  6 46  1  0
  8 47  1  0
  8 48  1  0
  8 49  1  0
  9 50  1  0
 11 51  1  0
 12 52  1  0
 14 53  1  0
 18 54  1  0
 20 55  1  0
 21 56  1  0
 24 57  1  1
 25 58  1  6
 26 59  1  0
 27 60  1  6
 28 61  1  1
 30 62  1  0
 31 63  1  0
 31 64  1  0
M  CHG  2  35  -1  39  -1
M  END
>  <filename_input>  (15) 
7TB0_UD1_docked.sdf

>  <pdb_id>  (15) 
7TB0_UD1

>  <pose_rank>  (15) 
14

>  <num_atoms_heavy>  (15) 
39

>  <num_torsions>  (15) 
10

>  <pose>  (15) 
[27.93463814579335, -31.767414720321113, 38.60105955224332, 0.1331070268364443, 0.2169187579533409, -4.363504071149917, 0.08279998430993406, -0.5529796667285881, -1.6559831329805652, 0.25359043338806103, -0.6315167020098956, 2.1637159435517437, -2.4570931921742436, -0.40168778667621985, 0.5736542813946797, 1.334011590557629]

>  <energy>  (15) 
-761.9179449052054

>  <inter_energy>  (15) 
-816.0278941937122

>  <intra_energy>  (15) 
52.17930896772171

>  <rmsd>  (15) 
3.75343

>  <sdf_rank>  (15) 
0

$$$$

     RDKit          3D

 64 66  0  0  0  0  0  0  0  0999 V2000
   25.8387  -26.7029   38.7423 C   0  0  1  0  0  0  0  0  0  0  0  0
   25.5984  -26.3227   37.2704 C   0  0  1  0  0  0  0  0  0  0  0  0
   25.3557  -27.5581   36.4112 C   0  0  2  0  0  0  0  0  0  0  0  0
   26.4532  -28.5878   36.6273 C   0  0  1  0  0  0  0  0  0  0  0  0
   26.6435  -28.8571   38.1263 C   0  0  1  0  0  0  0  0  0  0  0  0
   27.7985  -29.8005   38.3955 C   0  0  0  0  0  0  0  0  0  0  0  0
   23.2361  -25.7793   37.1010 C   0  0  0  0  0  0  0  0  0  0  0  0
   22.1981  -24.6879   37.0856 C   0  0  0  0  0  0  0  0  0  0  0  0
   24.4982  -25.3879   37.2045 N   0  0  0  0  0  0  0  0  0  0  0  0
   24.6232  -27.2450   39.2091 O   0  0  0  0  0  0  0  0  0  0  0  0
   25.2001  -27.1626   35.0355 O   0  0  0  0  0  0  0  0  0  0  0  0
   26.0974  -29.8310   36.0194 O   0  0  0  0  0  0  0  0  0  0  0  0
   26.9178  -27.6245   38.8193 O   0  0  0  0  0  0  0  0  0  0  0  0
   27.3970  -31.1378   38.7483 O   0  0  0  0  0  0  0  0  0  0  0  0
   22.9413  -26.9920   37.1173 O   0  0  0  0  0  0  0  0  0  0  0  0
   29.1661  -33.5944   42.2878 N   0  0  0  0  0  0  0  0  0  0  0  0
   29.5582  -34.8536   42.7378 C   0  0  0  0  0  0  0  0  0  0  0  0
   29.6214  -35.8297   41.7608 N   0  0  0  0  0  0  0  0  0  0  0  0
   29.2930  -35.6906   40.4300 C   0  0  0  0  0  0  0  0  0  0  0  0
   28.9104  -34.3633   40.0506 C   0  0  0  0  0  0  0  0  0  0  0  0
   28.8486  -33.4015   40.9689 C   0  0  0  0  0  0  0  0  0  0  0  0
   29.8027  -35.0685   43.9099 O   0  0  0  0  0  0  0  0  0  0  0  0
   29.3582  -36.6587   39.6625 O   0  0  0  0  0  0  0  0  0  0  0  0
   29.0004  -32.5454   43.3167 C   0  0  1  0  0  0  0  0  0  0  0  0
   30.1197  -31.5364   43.4040 C   0  0  2  0  0  0  0  0  0  0  0  0
   30.1840  -31.1567   44.7873 O   0  0  0  0  0  0  0  0  0  0  0  0
   29.4846  -30.3807   42.7031 C   0  0  1  0  0  0  0  0  0  0  0  0
   28.0317  -30.4340   43.2019 C   0  0  2  0  0  0  0  0  0  0  0  0
   27.7684  -31.8462   43.1670 O   0  0  0  0  0  0  0  0  0  0  0  0
   30.1591  -29.2918   43.2883 O   0  0  0  0  0  0  0  0  0  0  0  0
   26.9969  -29.7756   42.2993 C   0  0  0  0  0  0  0  0  0  0  0  0
   25.8002  -29.6039   43.0717 O   0  0  0  0  0  0  0  0  0  0  0  0
   24.3093  -29.6846   42.4352 P   0  0  2  0  0  0  0  0  0  0  0  0
   23.2711  -28.9921   43.2555 O   0  0  0  0  0  0  0  0  0  0  0  0
   24.0370  -31.1044   42.0987 O   0  0  0  0  0  0  0  0  0  0  0  0
   24.5459  -28.8448   41.0924 O   0  0  0  0  0  0  0  0  0  0  0  0
   24.3453  -27.2843   40.7974 P   0  0  1  0  0  0  0  0  0  0  0  0
   25.3305  -26.4320   41.5110 O   0  0  0  0  0  0  0  0  0  0  0  0
   22.8859  -26.9720   40.9472 O   0  0  0  0  0  0  0  0  0  0  0  0
   26.1216  -25.8431   39.3674 H   0  0  0  0  0  0  0  0  0  0  0  0
   26.4981  -25.8393   36.8619 H   0  0  0  0  0  0  0  0  0  0  0  0
   24.4202  -28.0517   36.7134 H   0  0  0  0  0  0  0  0  0  0  0  0
   27.3754  -28.1867   36.1817 H   0  0  0  0  0  0  0  0  0  0  0  0
   25.7106  -29.3171   38.4842 H   0  0  0  0  0  0  0  0  0  0  0  0
   28.4189  -29.8542   37.4888 H   0  0  0  0  0  0  0  0  0  0  0  0
   28.3436  -29.3949   39.2606 H   0  0  0  0  0  0  0  0  0  0  0  0
   21.9381  -24.4146   38.1189 H   0  0  0  0  0  0  0  0  0  0  0  0
   22.5998  -23.8071   36.5633 H   0  0  0  0  0  0  0  0  0  0  0  0
   21.2982  -25.0451   36.5633 H   0  0  0  0  0  0  0  0  0  0  0  0
   24.7027  -24.3790   37.2393 H   0  0  0  0  0  0  0  0  0  0  0  0
   24.8379  -26.2421   34.9957 H   0  0  0  0  0  0  0  0  0  0  0  0
   25.9060  -30.4999   36.7238 H   0  0  0  0  0  0  0  0  0  0  0  0
   27.3708  -31.2252   39.7341 H   0  0  0  0  0  0  0  0  0  0  0  0
   29.9486  -36.7596   42.0596 H   0  0  0  0  0  0  0  0  0  0  0  0
   28.6679  -34.1390   39.0013 H   0  0  0  0  0  0  0  0  0  0  0  0
   28.5255  -32.3988   40.6522 H   0  0  0  0  0  0  0  0  0  0  0  0
   29.0147  -33.1150   44.2576 H   0  0  0  0  0  0  0  0  0  0  0  0
   31.0997  -31.8595   43.0229 H   0  0  0  0  0  0  0  0  0  0  0  0
   30.0485  -31.9560   45.3556 H   0  0  0  0  0  0  0  0  0  0  0  0
   29.5219  -30.3486   41.6042 H   0  0  0  0  0  0  0  0  0  0  0  0
   27.9476  -29.9070   44.1637 H   0  0  0  0  0  0  0  0  0  0  0  0
   30.1130  -29.3664   44.2744 H   0  0  0  0  0  0  0  0  0  0  0  0
   27.3657  -28.7981   41.9553 H   0  0  0  0  0  0  0  0  0  0  0  0
   26.8014  -30.3987   41.4142 H   0  0  0  0  0  0  0  0  0  0  0  0
  1  2  1  0
  1 10  1  0
  1 13  1  0
  2  3  1  0
  2  9  1  0
  3  4  1  0
  3 11  1  0
  4  5  1  0
  4 12  1  0
  5  6  1  0
  5 13  1  0
  6 14  1  0
  7  8  1  0
  7  9  1  0
  7 15  2  0
 10 37  1  0
 16 17  1  0
 16 21  1  0
 24 16  1  0
 17 18  1  0
 17 22  2  0
 18 19  1  0
 19 20  1  0
 19 23  2  0
 20 21  2  0
 24 25  1  0
 24 29  1  0
 25 26  1  0
 25 27  1  0
 27 28  1  0
 27 30  1  0
 28 29  1  0
 28 31  1  0
 31 32  1  0
 32 33  1  0
 33 34  2  0
 33 35  1  6
 33 36  1  0
 36 37  1  0
 37 38  2  0
 37 39  1  6
  1 40  1  1
  2 41  1  6
  3 42  1  1
  4 43  1  6
  5 44  1  1
  6 45  1  0
  6 46  1  0
  8 47  1  0
  8 48  1  0
  8 49  1  0
  9 50  1  0
 11 51  1  0
 12 52  1  0
 14 53  1  0
 18 54  1  0
 20 55  1  0
 21 56  1  0
 24 57  1  1
 25 58  1  6
 26 59  1  0
 27 60  1  6
 28 61  1  1
 30 62  1  0
 31 63  1  0
 31 64  1  0
M  CHG  2  35  -1  39  -1
M  END
>  <filename_input>  (16) 
7TB0_UD1_docked.sdf

>  <pdb_id>  (16) 
7TB0_UD1

>  <pose_rank>  (16) 
15

>  <num_atoms_heavy>  (16) 
39

>  <num_torsions>  (16) 
10

>  <pose>  (16) 
[24.309348270741133, -29.684579159978515, 42.43522462007757, 1.1549837192889116, -3.8918063263069125, 4.129756268039002, 3.576300722295018, 1.2972539708944775, 2.5585044638758228, 0.35981558876524045, -3.8339291339135824, 0.42496783167438773, -0.49733367129477885, 0.14059325181089985, -2.838526877495811, -2.7167773289922805]

>  <energy>  (16) 
-758.9879539275236

>  <inter_energy>  (16) 
-824.9517115118197

>  <intra_energy>  (16) 
77.39315537697651

>  <rmsd>  (16) 
3.38657

>  <sdf_rank>  (16) 
0

$$$$

     RDKit          3D

 64 66  0  0  0  0  0  0  0  0999 V2000
   29.5396  -32.6656   42.0337 C   0  0  1  0  0  0  0  0  0  0  0  0
   29.7514  -34.0486   42.6750 C   0  0  1  0  0  0  0  0  0  0  0  0
   29.6559  -33.9756   44.1944 C   0  0  2  0  0  0  0  0  0  0  0  0
   30.5603  -32.8812   44.7384 C   0  0  1  0  0  0  0  0  0  0  0  0
   30.3024  -31.5608   43.9997 C   0  0  1  0  0  0  0  0  0  0  0  0
   31.2541  -30.4656   44.4372 C   0  0  0  0  0  0  0  0  0  0  0  0
   28.8336  -35.3553   40.8434 C   0  0  0  0  0  0  0  0  0  0  0  0
   27.7938  -36.3576   40.4154 C   0  0  0  0  0  0  0  0  0  0  0  0
   28.7948  -34.9742   42.1123 N   0  0  0  0  0  0  0  0  0  0  0  0
   28.2016  -32.3107   42.3035 O   0  0  0  0  0  0  0  0  0  0  0  0
   29.9232  -35.2747   44.7548 O   0  0  0  0  0  0  0  0  0  0  0  0
   30.2860  -32.6489   46.1213 O   0  0  0  0  0  0  0  0  0  0  0  0
   30.4742  -31.7457   42.5816 O   0  0  0  0  0  0  0  0  0  0  0  0
   31.8544  -29.7374   43.3494 O   0  0  0  0  0  0  0  0  0  0  0  0
   29.7498  -34.9684   40.0894 O   0  0  0  0  0  0  0  0  0  0  0  0
   23.2035  -26.2671   37.4817 N   0  0  0  0  0  0  0  0  0  0  0  0
   23.3172  -26.3357   38.8687 C   0  0  0  0  0  0  0  0  0  0  0  0
   22.7111  -25.3009   39.5566 N   0  0  0  0  0  0  0  0  0  0  0  0
   22.0668  -24.2114   39.0124 C   0  0  0  0  0  0  0  0  0  0  0  0
   21.9867  -24.2248   37.5823 C   0  0  0  0  0  0  0  0  0  0  0  0
   22.5544  -25.2130   36.8942 C   0  0  0  0  0  0  0  0  0  0  0  0
   23.9261  -27.2337   39.4189 O   0  0  0  0  0  0  0  0  0  0  0  0
   21.5966  -23.3305   39.7428 O   0  0  0  0  0  0  0  0  0  0  0  0
   23.9142  -27.3068   36.7066 C   0  0  1  0  0  0  0  0  0  0  0  0
   24.9640  -26.8003   35.7476 C   0  0  2  0  0  0  0  0  0  0  0  0
   24.9595  -27.7285   34.6520 O   0  0  0  0  0  0  0  0  0  0  0  0
   26.2001  -27.1096   36.5263 C   0  0  1  0  0  0  0  0  0  0  0  0
   25.8753  -28.4732   37.1570 C   0  0  2  0  0  0  0  0  0  0  0  0
   24.5068  -28.2868   37.5536 O   0  0  0  0  0  0  0  0  0  0  0  0
   27.1492  -27.2643   35.4976 O   0  0  0  0  0  0  0  0  0  0  0  0
   26.6514  -28.8206   38.4203 C   0  0  0  0  0  0  0  0  0  0  0  0
   26.6396  -30.2490   38.5528 O   0  0  0  0  0  0  0  0  0  0  0  0
   27.9753  -31.1649   38.4470 P   0  0  2  0  0  0  0  0  0  0  0  0
   29.2363  -30.3724   38.3371 O   0  0  0  0  0  0  0  0  0  0  0  0
   27.7460  -32.1791   37.3876 O   0  0  0  0  0  0  0  0  0  0  0  0
   27.9339  -31.8656   39.8863 O   0  0  0  0  0  0  0  0  0  0  0  0
   27.4456  -31.2980   41.3013 P   0  0  1  0  0  0  0  0  0  0  0  0
   25.9751  -31.3978   41.4854 O   0  0  0  0  0  0  0  0  0  0  0  0
   28.1064  -29.9687   41.5163 O   0  0  0  0  0  0  0  0  0  0  0  0
   29.7076  -32.6659   40.9466 H   0  0  0  0  0  0  0  0  0  0  0  0
   30.7662  -34.4088   42.4503 H   0  0  0  0  0  0  0  0  0  0  0  0
   28.6357  -33.6968   44.4968 H   0  0  0  0  0  0  0  0  0  0  0  0
   31.6002  -33.2113   44.5982 H   0  0  0  0  0  0  0  0  0  0  0  0
   29.2718  -31.2613   44.2412 H   0  0  0  0  0  0  0  0  0  0  0  0
   30.6966  -29.7535   45.0633 H   0  0  0  0  0  0  0  0  0  0  0  0
   32.0748  -30.9575   44.9799 H   0  0  0  0  0  0  0  0  0  0  0  0
   27.3285  -36.8060   41.3056 H   0  0  0  0  0  0  0  0  0  0  0  0
   27.0235  -35.8527   39.8141 H   0  0  0  0  0  0  0  0  0  0  0  0
   28.2700  -37.1460   39.8141 H   0  0  0  0  0  0  0  0  0  0  0  0
   28.0545  -35.3522   42.7206 H   0  0  0  0  0  0  0  0  0  0  0  0
   29.9112  -35.2166   45.7431 H   0  0  0  0  0  0  0  0  0  0  0  0
   30.9120  -33.1791   46.6755 H   0  0  0  0  0  0  0  0  0  0  0  0
   32.4403  -29.0265   43.7118 H   0  0  0  0  0  0  0  0  0  0  0  0
   22.7447  -25.3497   40.5849 H   0  0  0  0  0  0  0  0  0  0  0  0
   21.4566  -23.4192   37.0530 H   0  0  0  0  0  0  0  0  0  0  0  0
   22.4995  -25.1817   35.7960 H   0  0  0  0  0  0  0  0  0  0  0  0
   23.1152  -27.7507   36.0946 H   0  0  0  0  0  0  0  0  0  0  0  0
   24.8512  -25.7616   35.4035 H   0  0  0  0  0  0  0  0  0  0  0  0
   24.9550  -28.6540   35.0036 H   0  0  0  0  0  0  0  0  0  0  0  0
   26.5318  -26.3920   37.2911 H   0  0  0  0  0  0  0  0  0  0  0  0
   26.1117  -29.2790   36.4466 H   0  0  0  0  0  0  0  0  0  0  0  0
   28.0446  -27.4103   35.8939 H   0  0  0  0  0  0  0  0  0  0  0  0
   27.6870  -28.4594   38.3364 H   0  0  0  0  0  0  0  0  0  0  0  0
   26.1932  -28.3454   39.3002 H   0  0  0  0  0  0  0  0  0  0  0  0
  1  2  1  0
  1 10  1  0
  1 13  1  0
  2  3  1  0
  2  9  1  0
  3  4  1  0
  3 11  1  0
  4  5  1  0
  4 12  1  0
  5  6  1  0
  5 13  1  0
  6 14  1  0
  7  8  1  0
  7  9  1  0
  7 15  2  0
 10 37  1  0
 16 17  1  0
 16 21  1  0
 24 16  1  0
 17 18  1  0
 17 22  2  0
 18 19  1  0
 19 20  1  0
 19 23  2  0
 20 21  2  0
 24 25  1  0
 24 29  1  0
 25 26  1  0
 25 27  1  0
 27 28  1  0
 27 30  1  0
 28 29  1  0
 28 31  1  0
 31 32  1  0
 32 33  1  0
 33 34  2  0
 33 35  1  6
 33 36  1  0
 36 37  1  0
 37 38  2  0
 37 39  1  1
  1 40  1  6
  2 41  1  1
  3 42  1  6
  4 43  1  1
  5 44  1  6
  6 45  1  0
  6 46  1  0
  8 47  1  0
  8 48  1  0
  8 49  1  0
  9 50  1  0
 11 51  1  0
 12 52  1  0
 14 53  1  0
 18 54  1  0
 20 55  1  0
 21 56  1  0
 24 57  1  6
 25 58  1  6
 26 59  1  0
 27 60  1  1
 28 61  1  6
 30 62  1  0
 31 63  1  0
 31 64  1  0
M  CHG  2  35  -1  39  -1
M  END
>  <filename_input>  (17) 
7TB0_UD1_docked.sdf

>  <pdb_id>  (17) 
7TB0_UD1

>  <pose_rank>  (17) 
16

>  <num_atoms_heavy>  (17) 
39

>  <num_torsions>  (17) 
10

>  <pose>  (17) 
[27.97527425492984, -31.16494711693233, 38.446992112331124, -0.2355919484004952, 2.767092781086194, 1.8502718612281632, 0.15750571076035783, -0.41896543383152013, 2.6878334471120486, -3.528881271869079, -2.830219639597677, 0.6755565765766635, 2.092675021272839, 0.23989936075969656, -0.12390942537913426, 1.4270396327589994]

>  <energy>  (17) 
-757.1455145350187

>  <inter_energy>  (17) 
-813.1165308778995

>  <intra_energy>  (17) 
63.01327013610307

>  <rmsd>  (17) 
9.77665

>  <sdf_rank>  (17) 
0

$$$$

     RDKit          3D

 64 66  0  0  0  0  0  0  0  0999 V2000
   26.0355  -28.6317   36.9510 C   0  0  1  0  0  0  0  0  0  0  0  0
   26.2362  -29.1978   35.5340 C   0  0  1  0  0  0  0  0  0  0  0  0
   26.6957  -28.1152   34.5644 C   0  0  2  0  0  0  0  0  0  0  0  0
   25.7802  -26.9037   34.6375 C   0  0  1  0  0  0  0  0  0  0  0  0
   25.6099  -26.4516   36.0943 C   0  0  1  0  0  0  0  0  0  0  0  0
   24.6224  -25.3098   36.2269 C   0  0  0  0  0  0  0  0  0  0  0  0
   26.9100  -31.4841   35.0616 C   0  0  0  0  0  0  0  0  0  0  0  0
   27.9965  -32.5209   35.1775 C   0  0  0  0  0  0  0  0  0  0  0  0
   27.1674  -30.3010   35.6008 N   0  0  0  0  0  0  0  0  0  0  0  0
   27.3153  -28.2489   37.4035 O   0  0  0  0  0  0  0  0  0  0  0  0
   26.8086  -28.6725   33.2416 O   0  0  0  0  0  0  0  0  0  0  0  0
   26.3479  -25.8055   33.9210 O   0  0  0  0  0  0  0  0  0  0  0  0
   25.1226  -27.5437   36.8973 O   0  0  0  0  0  0  0  0  0  0  0  0
   24.9310  -24.3838   37.2858 O   0  0  0  0  0  0  0  0  0  0  0  0
   25.8609  -31.6745   34.4129 O   0  0  0  0  0  0  0  0  0  0  0  0
   31.4051  -31.6071   44.3445 N   0  0  0  0  0  0  0  0  0  0  0  0
   32.7669  -31.3124   44.3611 C   0  0  0  0  0  0  0  0  0  0  0  0
   33.2929  -31.0504   45.6125 N   0  0  0  0  0  0  0  0  0  0  0  0
   32.6055  -31.0046   46.8057 C   0  0  0  0  0  0  0  0  0  0  0  0
   31.2143  -31.3293   46.7000 C   0  0  0  0  0  0  0  0  0  0  0  0
   30.6824  -31.5938   45.5085 C   0  0  0  0  0  0  0  0  0  0  0  0
   33.4269  -31.2711   43.3400 O   0  0  0  0  0  0  0  0  0  0  0  0
   33.1913  -30.7199   47.8574 O   0  0  0  0  0  0  0  0  0  0  0  0
   30.7865  -31.8056   43.0161 C   0  0  1  0  0  0  0  0  0  0  0  0
   30.1798  -33.1669   42.7773 C   0  0  2  0  0  0  0  0  0  0  0  0
   30.3475  -33.4184   41.3735 O   0  0  0  0  0  0  0  0  0  0  0  0
   28.7328  -32.8425   42.9535 C   0  0  1  0  0  0  0  0  0  0  0  0
   28.6061  -31.4660   42.2814 C   0  0  2  0  0  0  0  0  0  0  0  0
   29.8031  -30.8138   42.7359 O   0  0  0  0  0  0  0  0  0  0  0  0
   28.1239  -33.8303   42.1556 O   0  0  0  0  0  0  0  0  0  0  0  0
   27.4383  -30.6065   42.7467 C   0  0  0  0  0  0  0  0  0  0  0  0
   27.1084  -29.7127   41.6742 O   0  0  0  0  0  0  0  0  0  0  0  0
   25.9685  -30.0343   40.5645 P   0  0  2  0  0  0  0  0  0  0  0  0
   24.5749  -29.9228   41.0897 O   0  0  0  0  0  0  0  0  0  0  0  0
   26.3209  -31.3208   39.9133 O   0  0  0  0  0  0  0  0  0  0  0  0
   26.2327  -28.8232   39.5508 O   0  0  0  0  0  0  0  0  0  0  0  0
   27.6064  -28.2225   38.9898 P   0  0  1  0  0  0  0  0  0  0  0  0
   28.7806  -29.0744   39.3093 O   0  0  0  0  0  0  0  0  0  0  0  0
   27.6553  -26.7684   39.3545 O   0  0  0  0  0  0  0  0  0  0  0  0
   25.6028  -29.3637   37.6488 H   0  0  0  0  0  0  0  0  0  0  0  0
   25.2764  -29.5683   35.1446 H   0  0  0  0  0  0  0  0  0  0  0  0
   27.6943  -27.7517   34.8483 H   0  0  0  0  0  0  0  0  0  0  0  0
   24.8125  -27.1936   34.2022 H   0  0  0  0  0  0  0  0  0  0  0  0
   26.5995  -26.1148   36.4369 H   0  0  0  0  0  0  0  0  0  0  0  0
   24.6065  -24.7551   35.2771 H   0  0  0  0  0  0  0  0  0  0  0  0
   23.6493  -25.7597   36.4733 H   0  0  0  0  0  0  0  0  0  0  0  0
   28.2033  -32.7182   36.2398 H   0  0  0  0  0  0  0  0  0  0  0  0
   27.6698  -33.4507   34.6887 H   0  0  0  0  0  0  0  0  0  0  0  0
   28.9099  -32.1511   34.6887 H   0  0  0  0  0  0  0  0  0  0  0  0
   28.0653  -30.1625   36.0860 H   0  0  0  0  0  0  0  0  0  0  0  0
   27.0048  -29.6406   33.3070 H   0  0  0  0  0  0  0  0  0  0  0  0
   26.6939  -25.1361   34.5631 H   0  0  0  0  0  0  0  0  0  0  0  0
   24.7847  -24.8227   38.1610 H   0  0  0  0  0  0  0  0  0  0  0  0
   34.3061  -30.8705   45.6576 H   0  0  0  0  0  0  0  0  0  0  0  0
   30.5861  -31.3601   47.6024 H   0  0  0  0  0  0  0  0  0  0  0  0
   29.6058  -31.8133   45.4558 H   0  0  0  0  0  0  0  0  0  0  0  0
   31.6400  -31.7151   42.3280 H   0  0  0  0  0  0  0  0  0  0  0  0
   30.5731  -33.9915   43.3899 H   0  0  0  0  0  0  0  0  0  0  0  0
   30.8922  -34.2354   41.2473 H   0  0  0  0  0  0  0  0  0  0  0  0
   28.3202  -32.8214   43.9730 H   0  0  0  0  0  0  0  0  0  0  0  0
   28.4542  -31.5915   41.1992 H   0  0  0  0  0  0  0  0  0  0  0  0
   27.7037  -34.5119   42.7378 H   0  0  0  0  0  0  0  0  0  0  0  0
   26.5738  -31.2438   42.9842 H   0  0  0  0  0  0  0  0  0  0  0  0
   27.7077  -30.0432   43.6523 H   0  0  0  0  0  0  0  0  0  0  0  0
  1  2  1  0
  1 10  1  0
  1 13  1  0
  2  3  1  0
  2  9  1  0
  3  4  1  0
  3 11  1  0
  4  5  1  0
  4 12  1  0
  5  6  1  0
  5 13  1  0
  6 14  1  0
  7  8  1  0
  7  9  1  0
  7 15  2  0
 10 37  1  0
 16 17  1  0
 16 21  1  0
 24 16  1  0
 17 18  1  0
 17 22  2  0
 18 19  1  0
 19 20  1  0
 19 23  2  0
 20 21  2  0
 24 25  1  0
 24 29  1  0
 25 26  1  0
 25 27  1  0
 27 28  1  0
 27 30  1  0
 28 29  1  0
 28 31  1  0
 31 32  1  0
 32 33  1  0
 33 34  2  0
 33 35  1  6
 33 36  1  0
 36 37  1  0
 37 38  2  0
 37 39  1  1
  1 40  1  1
  2 41  1  6
  3 42  1  1
  4 43  1  6
  5 44  1  1
  6 45  1  0
  6 46  1  0
  8 47  1  0
  8 48  1  0
  8 49  1  0
  9 50  1  0
 11 51  1  0
 12 52  1  0
 14 53  1  0
 18 54  1  0
 20 55  1  0
 21 56  1  0
 24 57  1  6
 25 58  1  1
 26 59  1  0
 27 60  1  1
 28 61  1  6
 30 62  1  0
 31 63  1  0
 31 64  1  0
M  CHG  2  35  -1  39  -1
M  END
>  <filename_input>  (18) 
7TB0_UD1_docked.sdf

>  <pdb_id>  (18) 
7TB0_UD1

>  <pose_rank>  (18) 
17

>  <num_atoms_heavy>  (18) 
39

>  <num_torsions>  (18) 
10

>  <pose>  (18) 
[25.968545687280145, -30.034301758216404, 40.56454518775215, -5.887193912320603, -1.7066747240392475, -0.42698072661368053, 1.3324501790705419, -7.061354696912015, 15.308298872594914, -5.645120014735697, -7.746969979298652, -44.5702524680103, -48.82143791707587, 0.23894867411635942, 0.9584095778808854, -3.45746053963072]

>  <energy>  (18) 
-703.6725353817895

>  <inter_energy>  (18) 
-710.3622444706716

>  <intra_energy>  (18) 
16.57676027490232

>  <rmsd>  (18) 
4.04021

>  <sdf_rank>  (18) 
0

$$$$

     RDKit          3D

 64 66  0  0  0  0  0  0  0  0999 V2000
   25.2080  -28.6930   36.5839 C   0  0  1  0  0  0  0  0  0  0  0  0
   25.2038  -27.5855   35.5151 C   0  0  1  0  0  0  0  0  0  0  0  0
   26.2179  -26.4956   35.8422 C   0  0  2  0  0  0  0  0  0  0  0  0
   26.0337  -25.9995   37.2674 C   0  0  1  0  0  0  0  0  0  0  0  0
   26.0036  -27.1833   38.2439 C   0  0  1  0  0  0  0  0  0  0  0  0
   25.7178  -26.7443   39.6659 C   0  0  0  0  0  0  0  0  0  0  0  0
   26.6611  -28.5025   33.8005 C   0  0  0  0  0  0  0  0  0  0  0  0
   26.7476  -29.1589   32.4475 C   0  0  0  0  0  0  0  0  0  0  0  0
   25.4454  -28.1850   34.2225 N   0  0  0  0  0  0  0  0  0  0  0  0
   26.4679  -29.3202   36.4915 O   0  0  0  0  0  0  0  0  0  0  0  0
   26.1354  -25.4516   34.8541 O   0  0  0  0  0  0  0  0  0  0  0  0
   27.1294  -25.1666   37.6513 O   0  0  0  0  0  0  0  0  0  0  0  0
   24.9736  -28.1145   37.8607 O   0  0  0  0  0  0  0  0  0  0  0  0
   24.8619  -27.6411   40.3987 O   0  0  0  0  0  0  0  0  0  0  0  0
   27.6536  -28.3479   34.5411 O   0  0  0  0  0  0  0  0  0  0  0  0
   29.5733  -33.0937   44.2799 N   0  0  0  0  0  0  0  0  0  0  0  0
   29.0979  -33.3475   45.5649 C   0  0  0  0  0  0  0  0  0  0  0  0
   29.3500  -34.6210   46.0403 N   0  0  0  0  0  0  0  0  0  0  0  0
   29.9653  -35.6504   45.3619 C   0  0  0  0  0  0  0  0  0  0  0  0
   30.4314  -35.3014   44.0532 C   0  0  0  0  0  0  0  0  0  0  0  0
   30.2097  -34.0798   43.5727 C   0  0  0  0  0  0  0  0  0  0  0  0
   28.4890  -32.5083   46.2011 O   0  0  0  0  0  0  0  0  0  0  0  0
   30.0970  -36.7609   45.8910 O   0  0  0  0  0  0  0  0  0  0  0  0
   29.2459  -31.7727   43.7015 C   0  0  1  0  0  0  0  0  0  0  0  0
   30.1168  -30.6278   44.1588 C   0  0  2  0  0  0  0  0  0  0  0  0
   29.2642  -29.4724   44.1492 O   0  0  0  0  0  0  0  0  0  0  0  0
   31.0015  -30.4797   42.9649 C   0  0  1  0  0  0  0  0  0  0  0  0
   30.0342  -30.7046   41.7918 C   0  0  2  0  0  0  0  0  0  0  0  0
   29.2453  -31.8031   42.2774 O   0  0  0  0  0  0  0  0  0  0  0  0
   31.3582  -29.1198   43.0462 O   0  0  0  0  0  0  0  0  0  0  0  0
   30.6703  -31.1680   40.4881 C   0  0  0  0  0  0  0  0  0  0  0  0
   29.7849  -30.7969   39.4222 O   0  0  0  0  0  0  0  0  0  0  0  0
   28.4477  -31.6344   39.0417 P   0  0  2  0  0  0  0  0  0  0  0  0
   27.3720  -31.5439   40.0738 O   0  0  0  0  0  0  0  0  0  0  0  0
   28.8668  -33.0042   38.6526 O   0  0  0  0  0  0  0  0  0  0  0  0
   27.9824  -30.8204   37.7436 O   0  0  0  0  0  0  0  0  0  0  0  0
   26.6040  -30.8661   36.9309 P   0  0  1  0  0  0  0  0  0  0  0  0
   25.4492  -31.2615   37.7774 O   0  0  0  0  0  0  0  0  0  0  0  0
   26.8473  -31.6158   35.6548 O   0  0  0  0  0  0  0  0  0  0  0  0
   24.4141  -29.4392   36.4325 H   0  0  0  0  0  0  0  0  0  0  0  0
   24.2208  -27.0921   35.4979 H   0  0  0  0  0  0  0  0  0  0  0  0
   27.2388  -26.9026   35.7978 H   0  0  0  0  0  0  0  0  0  0  0  0
   25.0879  -25.4389   37.3029 H   0  0  0  0  0  0  0  0  0  0  0  0
   26.9989  -27.6500   38.2032 H   0  0  0  0  0  0  0  0  0  0  0  0
   26.6752  -26.6657   40.2019 H   0  0  0  0  0  0  0  0  0  0  0  0
   25.1870  -25.7831   39.5999 H   0  0  0  0  0  0  0  0  0  0  0  0
   26.8903  -30.2423   32.5740 H   0  0  0  0  0  0  0  0  0  0  0  0
   25.8173  -28.9743   31.8902 H   0  0  0  0  0  0  0  0  0  0  0  0
   27.5982  -28.7397   31.8902 H   0  0  0  0  0  0  0  0  0  0  0  0
   24.6422  -28.3726   33.6056 H   0  0  0  0  0  0  0  0  0  0  0  0
   26.0661  -24.5737   35.3065 H   0  0  0  0  0  0  0  0  0  0  0  0
   27.1829  -25.1260   38.6390 H   0  0  0  0  0  0  0  0  0  0  0  0
   24.9937  -27.5030   41.3701 H   0  0  0  0  0  0  0  0  0  0  0  0
   29.0456  -34.8215   47.0036 H   0  0  0  0  0  0  0  0  0  0  0  0
   30.9720  -36.0421   43.4456 H   0  0  0  0  0  0  0  0  0  0  0  0
   30.5557  -33.8498   42.5542 H   0  0  0  0  0  0  0  0  0  0  0  0
   28.2354  -31.5750   44.0886 H   0  0  0  0  0  0  0  0  0  0  0  0
   30.6219  -30.7548   45.1277 H   0  0  0  0  0  0  0  0  0  0  0  0
   29.0646  -29.2018   45.0803 H   0  0  0  0  0  0  0  0  0  0  0  0
   31.8816  -31.1341   42.8796 H   0  0  0  0  0  0  0  0  0  0  0  0
   29.5254  -29.7621   41.5414 H   0  0  0  0  0  0  0  0  0  0  0  0
   31.4281  -28.8532   43.9970 H   0  0  0  0  0  0  0  0  0  0  0  0
   31.6470  -30.6806   40.3523 H   0  0  0  0  0  0  0  0  0  0  0  0
   30.8294  -32.2564   40.4993 H   0  0  0  0  0  0  0  0  0  0  0  0
  1  2  1  0
  1 10  1  0
  1 13  1  0
  2  3  1  0
  2  9  1  0
  3  4  1  0
  3 11  1  0
  4  5  1  0
  4 12  1  0
  5  6  1  0
  5 13  1  0
  6 14  1  0
  7  8  1  0
  7  9  1  0
  7 15  2  0
 10 37  1  0
 16 17  1  0
 16 21  1  0
 24 16  1  0
 17 18  1  0
 17 22  2  0
 18 19  1  0
 19 20  1  0
 19 23  2  0
 20 21  2  0
 24 25  1  0
 24 29  1  0
 25 26  1  0
 25 27  1  0
 27 28  1  0
 27 30  1  0
 28 29  1  0
 28 31  1  0
 31 32  1  0
 32 33  1  0
 33 34  2  0
 33 35  1  6
 33 36  1  0
 36 37  1  0
 37 38  2  0
 37 39  1  6
  1 40  1  6
  2 41  1  6
  3 42  1  1
  4 43  1  6
  5 44  1  1
  6 45  1  0
  6 46  1  0
  8 47  1  0
  8 48  1  0
  8 49  1  0
  9 50  1  0
 11 51  1  0
 12 52  1  0
 14 53  1  0
 18 54  1  0
 20 55  1  0
 21 56  1  0
 24 57  1  1
 25 58  1  1
 26 59  1  0
 27 60  1  1
 28 61  1  6
 30 62  1  0
 31 63  1  0
 31 64  1  0
M  CHG  2  35  -1  39  -1
M  END
>  <filename_input>  (19) 
7TB0_UD1_docked.sdf

>  <pdb_id>  (19) 
7TB0_UD1

>  <pose_rank>  (19) 
18

>  <num_atoms_heavy>  (19) 
39

>  <num_torsions>  (19) 
10

>  <pose>  (19) 
[28.447704613088174, -31.634438716929434, 39.04174585298176, -0.18733216482520415, 0.4767834797749006, 0.1897250246057675, 1.2615321176630507, 2.4870072850159546, -3.579824078093801, -0.041119472234500694, 7.412970002173776, -0.2917632318230566, 5.2379778333971565, 6.545373032971559, -2.707409263241707, 1.5787677308650185]

>  <energy>  (19) 
-716.2098572354298

>  <inter_energy>  (19) 
-815.0316867512312

>  <intra_energy>  (19) 
105.90772297453788

>  <rmsd>  (19) 
2.22122

>  <sdf_rank>  (19) 
0

$$$$

     RDKit          3D

 64 66  0  0  0  0  0  0  0  0999 V2000
   28.8600  -32.6551   42.7627 C   0  0  1  0  0  0  0  0  0  0  0  0
   28.0438  -31.8506   43.7900 C   0  0  1  0  0  0  0  0  0  0  0  0
   28.9513  -31.0272   44.6966 C   0  0  2  0  0  0  0  0  0  0  0  0
   30.0433  -31.8972   45.2982 C   0  0  1  0  0  0  0  0  0  0  0  0
   30.7599  -32.6904   44.1967 C   0  0  1  0  0  0  0  0  0  0  0  0
   31.7883  -33.6502   44.7604 C   0  0  0  0  0  0  0  0  0  0  0  0
   27.3702  -29.8013   42.6715 C   0  0  0  0  0  0  0  0  0  0  0  0
   26.2836  -29.0853   41.9128 C   0  0  0  0  0  0  0  0  0  0  0  0
   27.0873  -31.0287   43.0842 N   0  0  0  0  0  0  0  0  0  0  0  0
   29.4659  -31.7048   41.9148 O   0  0  0  0  0  0  0  0  0  0  0  0
   28.1532  -30.3428   45.6804 O   0  0  0  0  0  0  0  0  0  0  0  0
   31.0293  -31.0868   45.9408 O   0  0  0  0  0  0  0  0  0  0  0  0
   29.8064  -33.4660   43.4458 O   0  0  0  0  0  0  0  0  0  0  0  0
   31.2269  -34.8497   45.3261 O   0  0  0  0  0  0  0  0  0  0  0  0
   28.5127  -29.3238   42.8272 O   0  0  0  0  0  0  0  0  0  0  0  0
   25.6131  -28.4383   34.7472 N   0  0  0  0  0  0  0  0  0  0  0  0
   26.1944  -28.1547   33.5129 C   0  0  0  0  0  0  0  0  0  0  0  0
   26.0421  -29.1400   32.5551 N   0  0  0  0  0  0  0  0  0  0  0  0
   25.4306  -30.3639   32.7174 C   0  0  0  0  0  0  0  0  0  0  0  0
   24.8521  -30.5694   34.0117 C   0  0  0  0  0  0  0  0  0  0  0  0
   24.9763  -29.6342   34.9510 C   0  0  0  0  0  0  0  0  0  0  0  0
   26.8060  -27.1221   33.3138 O   0  0  0  0  0  0  0  0  0  0  0  0
   25.3941  -31.1763   31.7851 O   0  0  0  0  0  0  0  0  0  0  0  0
   25.8304  -27.4489   35.8245 C   0  0  1  0  0  0  0  0  0  0  0  0
   24.6415  -27.1863   36.7167 C   0  0  2  0  0  0  0  0  0  0  0  0
   24.7568  -25.8103   37.1108 O   0  0  0  0  0  0  0  0  0  0  0  0
   25.0370  -27.9791   37.9188 C   0  0  1  0  0  0  0  0  0  0  0  0
   26.5479  -27.7162   38.0206 C   0  0  2  0  0  0  0  0  0  0  0  0
   26.9455  -27.7916   36.6418 O   0  0  0  0  0  0  0  0  0  0  0  0
   24.3550  -27.2952   38.9436 O   0  0  0  0  0  0  0  0  0  0  0  0
   27.3553  -28.7712   38.7650 C   0  0  0  0  0  0  0  0  0  0  0  0
   27.2306  -30.0008   38.0367 O   0  0  0  0  0  0  0  0  0  0  0  0
   27.4742  -31.4603   38.7036 P   0  0  2  0  0  0  0  0  0  0  0  0
   27.8630  -32.5112   37.7161 O   0  0  0  0  0  0  0  0  0  0  0  0
   26.3009  -31.7688   39.5588 O   0  0  0  0  0  0  0  0  0  0  0  0
   28.7423  -31.1263   39.6226 O   0  0  0  0  0  0  0  0  0  0  0  0
   29.7594  -32.1035   40.3797 P   0  0  1  0  0  0  0  0  0  0  0  0
   31.1798  -31.8302   40.0421 O   0  0  0  0  0  0  0  0  0  0  0  0
   29.2448  -33.5049   40.2342 O   0  0  0  0  0  0  0  0  0  0  0  0
   28.2414  -33.3400   42.1641 H   0  0  0  0  0  0  0  0  0  0  0  0
   27.4980  -32.5404   44.4505 H   0  0  0  0  0  0  0  0  0  0  0  0
   29.4732  -30.2563   44.1107 H   0  0  0  0  0  0  0  0  0  0  0  0
   29.5657  -32.5751   46.0209 H   0  0  0  0  0  0  0  0  0  0  0  0
   31.2668  -31.9529   43.5570 H   0  0  0  0  0  0  0  0  0  0  0  0
   32.4725  -33.9388   43.9488 H   0  0  0  0  0  0  0  0  0  0  0  0
   32.2984  -33.1225   45.5797 H   0  0  0  0  0  0  0  0  0  0  0  0
   25.5828  -28.6236   42.6240 H   0  0  0  0  0  0  0  0  0  0  0  0
   26.7313  -28.3048   41.2801 H   0  0  0  0  0  0  0  0  0  0  0  0
   25.7430  -29.8048   41.2801 H   0  0  0  0  0  0  0  0  0  0  0  0
   26.1500  -31.4114   42.8946 H   0  0  0  0  0  0  0  0  0  0  0  0
   28.4544  -30.6011   46.5874 H   0  0  0  0  0  0  0  0  0  0  0  0
   30.9327  -31.1662   46.9229 H   0  0  0  0  0  0  0  0  0  0  0  0
   31.2537  -34.7925   46.3141 H   0  0  0  0  0  0  0  0  0  0  0  0
   26.4266  -28.9376   31.6212 H   0  0  0  0  0  0  0  0  0  0  0  0
   24.3057  -31.4990   34.2292 H   0  0  0  0  0  0  0  0  0  0  0  0
   24.5447  -29.8320   35.9433 H   0  0  0  0  0  0  0  0  0  0  0  0
   26.0225  -26.5173   35.2719 H   0  0  0  0  0  0  0  0  0  0  0  0
   23.6520  -27.4075   36.2901 H   0  0  0  0  0  0  0  0  0  0  0  0
   24.7619  -25.7493   38.0989 H   0  0  0  0  0  0  0  0  0  0  0  0
   24.8244  -29.0584   37.9287 H   0  0  0  0  0  0  0  0  0  0  0  0
   26.7279  -26.7799   38.5692 H   0  0  0  0  0  0  0  0  0  0  0  0
   24.6748  -27.6159   39.8239 H   0  0  0  0  0  0  0  0  0  0  0  0
   28.4119  -28.4696   38.8153 H   0  0  0  0  0  0  0  0  0  0  0  0
   26.9837  -28.8900   39.7935 H   0  0  0  0  0  0  0  0  0  0  0  0
  1  2  1  0
  1 10  1  0
  1 13  1  0
  2  3  1  0
  2  9  1  0
  3  4  1  0
  3 11  1  0
  4  5  1  0
  4 12  1  0
  5  6  1  0
  5 13  1  0
  6 14  1  0
  7  8  1  0
  7  9  1  0
  7 15  2  0
 10 37  1  0
 16 17  1  0
 16 21  1  0
 24 16  1  0
 17 18  1  0
 17 22  2  0
 18 19  1  0
 19 20  1  0
 19 23  2  0
 20 21  2  0
 24 25  1  0
 24 29  1  0
 25 26  1  0
 25 27  1  0
 27 28  1  0
 27 30  1  0
 28 29  1  0
 28 31  1  0
 31 32  1  0
 32 33  1  0
 33 34  2  0
 33 35  1  1
 33 36  1  0
 36 37  1  0
 37 38  2  0
 37 39  1  1
  1 40  1  6
  2 41  1  1
  3 42  1  6
  4 43  1  1
  5 44  1  6
  6 45  1  0
  6 46  1  0
  8 47  1  0
  8 48  1  0
  8 49  1  0
  9 50  1  0
 11 51  1  0
 12 52  1  0
 14 53  1  0
 18 54  1  0
 20 55  1  0
 21 56  1  0
 24 57  1  6
 25 58  1  6
 26 59  1  0
 27 60  1  6
 28 61  1  1
 30 62  1  0
 31 63  1  0
 31 64  1  0
M  CHG  2  35  -1  39  -1
M  END
>  <filename_input>  (20) 
7TB0_UD1_docked.sdf

>  <pdb_id>  (20) 
7TB0_UD1

>  <pose_rank>  (20) 
19

>  <num_atoms_heavy>  (20) 
39

>  <num_torsions>  (20) 
10

>  <pose>  (20) 
[27.47421844411955, -31.460339430076615, 38.70356564707491, -1.5542263604047415, -2.1878108201426265, -0.057322763730407365, -2.6572184139752357, 1.111002637373603, 0.24202204121364787, -5.269407568770191, 1.1568610573967053, 1.4267153138343007, 3.324045731555438, 0.30678612679483774, -2.854476735967594, 0.4558915867788083]

>  <energy>  (20) 
-719.0860100286565

>  <inter_energy>  (20) 
-806.9717229558007

>  <intra_energy>  (20) 
86.39685218793979

>  <rmsd>  (20) 
9.07703

>  <sdf_rank>  (20) 
0

$$$$

     RDKit          3D

 64 66  0  0  0  0  0  0  0  0999 V2000
   24.7857  -26.4285   37.3583 C   0  0  1  0  0  0  0  0  0  0  0  0
   24.2081  -26.7871   38.7392 C   0  0  1  0  0  0  0  0  0  0  0  0
   22.7153  -27.0836   38.6557 C   0  0  2  0  0  0  0  0  0  0  0  0
   21.9834  -25.9621   37.9361 C   0  0  1  0  0  0  0  0  0  0  0  0
   22.6676  -25.6523   36.5975 C   0  0  1  0  0  0  0  0  0  0  0  0
   22.0342  -24.4701   35.8919 C   0  0  0  0  0  0  0  0  0  0  0  0
   25.7978  -27.7630   40.2963 C   0  0  0  0  0  0  0  0  0  0  0  0
   26.4711  -29.0217   40.7774 C   0  0  0  0  0  0  0  0  0  0  0  0
   24.9553  -27.8986   39.2821 N   0  0  0  0  0  0  0  0  0  0  0  0
   24.6841  -27.5980   36.5768 O   0  0  0  0  0  0  0  0  0  0  0  0
   22.2047  -27.3505   39.9752 O   0  0  0  0  0  0  0  0  0  0  0  0
   20.6407  -26.3516   37.6408 O   0  0  0  0  0  0  0  0  0  0  0  0
   24.0564  -25.3371   36.8132 O   0  0  0  0  0  0  0  0  0  0  0  0
   22.5234  -23.1895   36.3330 O   0  0  0  0  0  0  0  0  0  0  0  0
   25.9344  -26.6625   40.8689 O   0  0  0  0  0  0  0  0  0  0  0  0
   28.9212  -33.8851   41.8086 N   0  0  0  0  0  0  0  0  0  0  0  0
   28.7338  -34.7694   40.7481 C   0  0  0  0  0  0  0  0  0  0  0  0
   29.2068  -36.0503   40.9647 N   0  0  0  0  0  0  0  0  0  0  0  0
   29.8733  -36.5083   42.0803 C   0  0  0  0  0  0  0  0  0  0  0  0
   30.0143  -35.5386   43.1251 C   0  0  0  0  0  0  0  0  0  0  0  0
   29.5610  -34.2995   42.9472 C   0  0  0  0  0  0  0  0  0  0  0  0
   28.2107  -34.4206   39.7067 O   0  0  0  0  0  0  0  0  0  0  0  0
   30.2800  -37.6755   42.1337 O   0  0  0  0  0  0  0  0  0  0  0  0
   28.5094  -32.4830   41.5825 C   0  0  1  0  0  0  0  0  0  0  0  0
   29.6359  -31.4882   41.4422 C   0  0  2  0  0  0  0  0  0  0  0  0
   29.1284  -30.2584   41.9827 O   0  0  0  0  0  0  0  0  0  0  0  0
   29.6364  -31.3015   39.9605 C   0  0  1  0  0  0  0  0  0  0  0  0
   28.1387  -31.2992   39.6151 C   0  0  2  0  0  0  0  0  0  0  0  0
   27.6495  -32.3587   40.4537 O   0  0  0  0  0  0  0  0  0  0  0  0
   30.1641  -30.0014   39.8411 O   0  0  0  0  0  0  0  0  0  0  0  0
   27.7884  -31.6804   38.1830 C   0  0  0  0  0  0  0  0  0  0  0  0
   26.9267  -30.6574   37.6645 O   0  0  0  0  0  0  0  0  0  0  0  0
   26.6257  -30.4633   36.0815 P   0  0  2  0  0  0  0  0  0  0  0  0
   25.2510  -30.8854   35.6783 O   0  0  0  0  0  0  0  0  0  0  0  0
   27.7463  -31.0805   35.3286 O   0  0  0  0  0  0  0  0  0  0  0  0
   26.7211  -28.8678   35.9846 O   0  0  0  0  0  0  0  0  0  0  0  0
   25.7069  -27.8060   35.3470 P   0  0  1  0  0  0  0  0  0  0  0  0
   24.9838  -28.3388   34.1640 O   0  0  0  0  0  0  0  0  0  0  0  0
   26.4317  -26.4994   35.2156 O   0  0  0  0  0  0  0  0  0  0  0  0
   25.8365  -26.1063   37.4027 H   0  0  0  0  0  0  0  0  0  0  0  0
   24.3105  -25.9272   39.4174 H   0  0  0  0  0  0  0  0  0  0  0  0
   22.5419  -27.9874   38.0531 H   0  0  0  0  0  0  0  0  0  0  0  0
   21.9971  -25.0817   38.5954 H   0  0  0  0  0  0  0  0  0  0  0  0
   22.5544  -26.5495   35.9713 H   0  0  0  0  0  0  0  0  0  0  0  0
   22.2342  -24.5635   34.8143 H   0  0  0  0  0  0  0  0  0  0  0  0
   20.9605  -24.4978   36.1293 H   0  0  0  0  0  0  0  0  0  0  0  0
   26.4788  -29.0360   41.8772 H   0  0  0  0  0  0  0  0  0  0  0  0
   25.9212  -29.8978   40.4031 H   0  0  0  0  0  0  0  0  0  0  0  0
   27.5051  -29.0505   40.4031 H   0  0  0  0  0  0  0  0  0  0  0  0
   24.8283  -28.8318   38.8649 H   0  0  0  0  0  0  0  0  0  0  0  0
   22.8458  -27.0154   40.6511 H   0  0  0  0  0  0  0  0  0  0  0  0
   20.1454  -26.4952   38.4859 H   0  0  0  0  0  0  0  0  0  0  0  0
   22.5335  -23.1631   37.3226 H   0  0  0  0  0  0  0  0  0  0  0  0
   29.0437  -36.7347   40.2125 H   0  0  0  0  0  0  0  0  0  0  0  0
   30.4966  -35.8174   44.0736 H   0  0  0  0  0  0  0  0  0  0  0  0
   29.7078  -33.5698   43.7571 H   0  0  0  0  0  0  0  0  0  0  0  0
   27.9761  -32.2275   42.5100 H   0  0  0  0  0  0  0  0  0  0  0  0
   30.5962  -31.7697   41.8988 H   0  0  0  0  0  0  0  0  0  0  0  0
   29.1458  -30.3006   42.9717 H   0  0  0  0  0  0  0  0  0  0  0  0
   30.1816  -32.0282   39.3403 H   0  0  0  0  0  0  0  0  0  0  0  0
   27.7258  -30.2886   39.7502 H   0  0  0  0  0  0  0  0  0  0  0  0
   30.3176  -29.6233   40.7431 H   0  0  0  0  0  0  0  0  0  0  0  0
   28.7039  -31.7437   37.5763 H   0  0  0  0  0  0  0  0  0  0  0  0
   27.2893  -32.6601   38.1532 H   0  0  0  0  0  0  0  0  0  0  0  0
  1  2  1  0
  1 10  1  0
  1 13  1  0
  2  3  1  0
  2  9  1  0
  3  4  1  0
  3 11  1  0
  4  5  1  0
  4 12  1  0
  5  6  1  0
  5 13  1  0
  6 14  1  0
  7  8  1  0
  7  9  1  0
  7 15  2  0
 10 37  1  0
 16 17  1  0
 16 21  1  0
 24 16  1  0
 17 18  1  0
 17 22  2  0
 18 19  1  0
 19 20  1  0
 19 23  2  0
 20 21  2  0
 24 25  1  0
 24 29  1  0
 25 26  1  0
 25 27  1  0
 27 28  1  0
 27 30  1  0
 28 29  1  0
 28 31  1  0
 31 32  1  0
 32 33  1  0
 33 34  2  0
 33 35  1  6
 33 36  1  0
 36 37  1  0
 37 38  2  0
 37 39  1  6
  1 40  1  1
  2 41  1  1
  3 42  1  6
  4 43  1  1
  5 44  1  6
  6 45  1  0
  6 46  1  0
  8 47  1  0
  8 48  1  0
  8 49  1  0
  9 50  1  0
 11 51  1  0
 12 52  1  0
 14 53  1  0
 18 54  1  0
 20 55  1  0
 21 56  1  0
 24 57  1  1
 25 58  1  1
 26 59  1  0
 27 60  1  6
 28 61  1  1
 30 62  1  0
 31 63  1  0
 31 64  1  0
M  CHG  2  35  -1  39  -1
M  END
>  <filename_input>  (21) 
7TB0_UD1_docked.sdf

>  <pdb_id>  (21) 
7TB0_UD1

>  <pose_rank>  (21) 
20

>  <num_atoms_heavy>  (21) 
39

>  <num_torsions>  (21) 
10

>  <pose>  (21) 
[26.62571727784018, -30.46332184173987, 36.081456175952034, -3.814317895377963, 2.9810462842347087, -2.298403453031557, 1.929909719247858, 0.4421502996598708, 3.187005160947759, -3.33259073536423, 1.8023970509444467, 4.932330117532558, -3.1291170586582835, 0.22821200489431592, 0.5942440569695411, 0.5726565874540908]

>  <energy>  (21) 
-694.9682608092248

>  <inter_energy>  (21) 
-769.147687975134

>  <intra_energy>  (21) 
83.8030567967412

>  <rmsd>  (21) 
4.30594

>  <sdf_rank>  (21) 
0

$$$$

     RDKit          3D

 64 66  0  0  0  0  0  0  0  0999 V2000
   29.2237  -32.0829   41.5146 C   0  0  1  0  0  0  0  0  0  0  0  0
   29.3785  -33.4414   42.2212 C   0  0  1  0  0  0  0  0  0  0  0  0
   28.8808  -33.3775   43.6605 C   0  0  2  0  0  0  0  0  0  0  0  0
   29.5118  -32.2065   44.3965 C   0  0  1  0  0  0  0  0  0  0  0  0
   29.3437  -30.9144   43.5853 C   0  0  1  0  0  0  0  0  0  0  0  0
   30.0482  -29.7382   44.2310 C   0  0  0  0  0  0  0  0  0  0  0  0
   29.1641  -35.6757   41.2903 C   0  0  0  0  0  0  0  0  0  0  0  0
   28.3087  -36.6258   40.4938 C   0  0  0  0  0  0  0  0  0  0  0  0
   28.6875  -34.4491   41.4494 N   0  0  0  0  0  0  0  0  0  0  0  0
   27.8363  -31.8497   41.4161 O   0  0  0  0  0  0  0  0  0  0  0  0
   29.1028  -34.6475   44.3016 O   0  0  0  0  0  0  0  0  0  0  0  0
   28.8643  -32.0000   45.6535 O   0  0  0  0  0  0  0  0  0  0  0  0
   29.8979  -31.0828   42.2665 O   0  0  0  0  0  0  0  0  0  0  0  0
   31.4838  -29.7813   44.1260 O   0  0  0  0  0  0  0  0  0  0  0  0
   30.2161  -36.0298   41.8609 O   0  0  0  0  0  0  0  0  0  0  0  0
   24.7824  -27.0715   37.0129 N   0  0  0  0  0  0  0  0  0  0  0  0
   23.4747  -26.8191   37.4225 C   0  0  0  0  0  0  0  0  0  0  0  0
   23.3439  -26.3953   38.7319 N   0  0  0  0  0  0  0  0  0  0  0  0
   24.3525  -26.2519   39.6596 C   0  0  0  0  0  0  0  0  0  0  0  0
   25.6650  -26.5218   39.1531 C   0  0  0  0  0  0  0  0  0  0  0  0
   25.8216  -26.9238   37.8937 C   0  0  0  0  0  0  0  0  0  0  0  0
   22.5263  -26.9845   36.6788 O   0  0  0  0  0  0  0  0  0  0  0  0
   24.0957  -25.8983   40.8169 O   0  0  0  0  0  0  0  0  0  0  0  0
   24.9562  -27.6117   35.6474 C   0  0  1  0  0  0  0  0  0  0  0  0
   26.2898  -27.3278   34.9998 C   0  0  2  0  0  0  0  0  0  0  0  0
   26.0156  -27.2165   33.5946 O   0  0  0  0  0  0  0  0  0  0  0  0
   26.9517  -28.6553   35.1723 C   0  0  1  0  0  0  0  0  0  0  0  0
   25.8068  -29.6459   34.9072 C   0  0  2  0  0  0  0  0  0  0  0  0
   24.7161  -29.0149   35.5980 O   0  0  0  0  0  0  0  0  0  0  0  0
   27.8574  -28.6603   34.0939 O   0  0  0  0  0  0  0  0  0  0  0  0
   25.9710  -31.0287   35.5237 C   0  0  0  0  0  0  0  0  0  0  0  0
   26.3435  -30.8455   36.8969 O   0  0  0  0  0  0  0  0  0  0  0  0
   27.7432  -31.3812   37.5198 P   0  0  2  0  0  0  0  0  0  0  0  0
   28.8123  -30.3396   37.5702 O   0  0  0  0  0  0  0  0  0  0  0  0
   28.0939  -32.6450   36.8246 O   0  0  0  0  0  0  0  0  0  0  0  0
   27.2663  -31.6992   39.0150 O   0  0  0  0  0  0  0  0  0  0  0  0
   27.2991  -30.7858   40.3293 P   0  0  1  0  0  0  0  0  0  0  0  0
   25.9545  -30.2897   40.7195 O   0  0  0  0  0  0  0  0  0  0  0  0
   28.4116  -29.7923   40.1711 O   0  0  0  0  0  0  0  0  0  0  0  0
   29.6711  -32.0679   40.5098 H   0  0  0  0  0  0  0  0  0  0  0  0
   30.4439  -33.7089   42.2787 H   0  0  0  0  0  0  0  0  0  0  0  0
   27.7967  -33.1916   43.6784 H   0  0  0  0  0  0  0  0  0  0  0  0
   30.5765  -32.4417   44.5414 H   0  0  0  0  0  0  0  0  0  0  0  0
   28.2640  -30.7087   43.5413 H   0  0  0  0  0  0  0  0  0  0  0  0
   29.6943  -28.8159   43.7474 H   0  0  0  0  0  0  0  0  0  0  0  0
   29.8080  -29.7754   45.3038 H   0  0  0  0  0  0  0  0  0  0  0  0
   27.7336  -37.2647   41.1801 H   0  0  0  0  0  0  0  0  0  0  0  0
   27.6165  -36.0524   39.8598 H   0  0  0  0  0  0  0  0  0  0  0  0
   28.9515  -37.2542   39.8598 H   0  0  0  0  0  0  0  0  0  0  0  0
   27.7905  -34.2048   41.0061 H   0  0  0  0  0  0  0  0  0  0  0  0
   29.0821  -34.5291   45.2843 H   0  0  0  0  0  0  0  0  0  0  0  0
   29.4970  -32.2018   46.3877 H   0  0  0  0  0  0  0  0  0  0  0  0
   31.8808  -29.7933   45.0329 H   0  0  0  0  0  0  0  0  0  0  0  0
   22.3916  -26.1619   39.0474 H   0  0  0  0  0  0  0  0  0  0  0  0
   26.5428  -26.3970   39.8043 H   0  0  0  0  0  0  0  0  0  0  0  0
   26.8390  -27.1493   37.5415 H   0  0  0  0  0  0  0  0  0  0  0  0
   24.1998  -27.0650   35.0653 H   0  0  0  0  0  0  0  0  0  0  0  0
   26.8412  -26.4547   35.3789 H   0  0  0  0  0  0  0  0  0  0  0  0
   25.1063  -26.8475   33.4641 H   0  0  0  0  0  0  0  0  0  0  0  0
   27.4469  -28.8742   36.1298 H   0  0  0  0  0  0  0  0  0  0  0  0
   25.7110  -29.8254   33.8262 H   0  0  0  0  0  0  0  0  0  0  0  0
   28.7843  -28.6653   34.4415 H   0  0  0  0  0  0  0  0  0  0  0  0
   25.0226  -31.5826   35.4622 H   0  0  0  0  0  0  0  0  0  0  0  0
   26.7393  -31.6043   34.9866 H   0  0  0  0  0  0  0  0  0  0  0  0
  1  2  1  0
  1 10  1  0
  1 13  1  0
  2  3  1  0
  2  9  1  0
  3  4  1  0
  3 11  1  0
  4  5  1  0
  4 12  1  0
  5  6  1  0
  5 13  1  0
  6 14  1  0
  7  8  1  0
  7  9  1  0
  7 15  2  0
 10 37  1  0
 16 17  1  0
 16 21  1  0
 24 16  1  0
 17 18  1  0
 17 22  2  0
 18 19  1  0
 19 20  1  0
 19 23  2  0
 20 21  2  0
 24 25  1  0
 24 29  1  0
 25 26  1  0
 25 27  1  0
 27 28  1  0
 27 30  1  0
 28 29  1  0
 28 31  1  0
 31 32  1  0
 32 33  1  0
 33 34  2  0
 33 35  1  6
 33 36  1  0
 36 37  1  0
 37 38  2  0
 37 39  1  6
  1 40  1  6
  2 41  1  1
  3 42  1  6
  4 43  1  1
  5 44  1  6
  6 45  1  0
  6 46  1  0
  8 47  1  0
  8 48  1  0
  8 49  1  0
  9 50  1  0
 11 51  1  0
 12 52  1  0
 14 53  1  0
 18 54  1  0
 20 55  1  0
 21 56  1  0
 24 57  1  6
 25 58  1  1
 26 59  1  0
 27 60  1  1
 28 61  1  6
 30 62  1  0
 31 63  1  0
 31 64  1  0
M  CHG  2  35  -1  39  -1
M  END
>  <filename_input>  (22) 
7TB0_UD1_docked.sdf

>  <pdb_id>  (22) 
7TB0_UD1

>  <pose_rank>  (22) 
21

>  <num_atoms_heavy>  (22) 
39

>  <num_torsions>  (22) 
10

>  <pose>  (22) 
[27.74320150243501, -31.381203788614886, 37.51976796285089, -0.7667174587491289, 2.8159155128677478, 1.2391385565952644, 26.873227113690852, 20.644253149565902, -0.00616762687351482, 1.2558468518771388, 21.291463914008176, 13.647647699415508, 2.8024250929398686, 25.259015706108872, 1.1731173181194299, 6.6626544760271145]

>  <energy>  (22) 
-827.0487143517224

>  <inter_energy>  (22) 
-868.0521457208927

>  <intra_energy>  (22) 
43.68401567292936

>  <rmsd>  (22) 
9.33137

>  <sdf_rank>  (22) 
0

$$$$

     RDKit          3D

 64 66  0  0  0  0  0  0  0  0999 V2000
   24.4079  -27.6466   37.2956 C   0  0  1  0  0  0  0  0  0  0  0  0
   25.2844  -27.9865   36.0769 C   0  0  1  0  0  0  0  0  0  0  0  0
   26.3655  -26.9340   35.8608 C   0  0  2  0  0  0  0  0  0  0  0  0
   25.7612  -25.5392   35.8357 C   0  0  1  0  0  0  0  0  0  0  0  0
   24.8700  -25.3225   37.0664 C   0  0  1  0  0  0  0  0  0  0  0  0
   24.1632  -23.9824   37.0316 C   0  0  0  0  0  0  0  0  0  0  0  0
   27.0020  -29.5183   36.8565 C   0  0  0  0  0  0  0  0  0  0  0  0
   27.4269  -30.9557   37.0054 C   0  0  0  0  0  0  0  0  0  0  0  0
   25.8389  -29.3089   36.2563 N   0  0  0  0  0  0  0  0  0  0  0  0
   25.2505  -27.7452   38.4222 O   0  0  0  0  0  0  0  0  0  0  0  0
   27.1189  -27.2563   34.6769 O   0  0  0  0  0  0  0  0  0  0  0  0
   26.7901  -24.5488   35.8831 O   0  0  0  0  0  0  0  0  0  0  0  0
   23.8587  -26.3461   37.1312 O   0  0  0  0  0  0  0  0  0  0  0  0
   22.7624  -24.0633   36.7073 O   0  0  0  0  0  0  0  0  0  0  0  0
   27.6443  -28.5692   37.3508 O   0  0  0  0  0  0  0  0  0  0  0  0
   29.8042  -33.1736   42.8741 N   0  0  0  0  0  0  0  0  0  0  0  0
   29.6476  -34.4724   42.3942 C   0  0  0  0  0  0  0  0  0  0  0  0
   29.8873  -35.4705   43.3203 N   0  0  0  0  0  0  0  0  0  0  0  0
   30.3045  -35.3071   44.6232 C   0  0  0  0  0  0  0  0  0  0  0  0
   30.4307  -33.9416   45.0373 C   0  0  0  0  0  0  0  0  0  0  0  0
   30.1983  -32.9597   44.1688 C   0  0  0  0  0  0  0  0  0  0  0  0
   29.3433  -34.6967   41.2379 O   0  0  0  0  0  0  0  0  0  0  0  0
   30.5205  -36.2909   45.3415 O   0  0  0  0  0  0  0  0  0  0  0  0
   29.6438  -32.0805   41.8913 C   0  0  1  0  0  0  0  0  0  0  0  0
   28.6940  -32.3629   40.7526 C   0  0  2  0  0  0  0  0  0  0  0  0
   29.2193  -31.6393   39.6291 O   0  0  0  0  0  0  0  0  0  0  0  0
   27.5035  -31.5839   41.2064 C   0  0  1  0  0  0  0  0  0  0  0  0
   28.1320  -30.3152   41.8046 C   0  0  2  0  0  0  0  0  0  0  0  0
   29.2562  -30.8598   42.5148 O   0  0  0  0  0  0  0  0  0  0  0  0
   26.8791  -31.2845   39.9801 O   0  0  0  0  0  0  0  0  0  0  0  0
   27.2842  -29.5768   42.8318 C   0  0  0  0  0  0  0  0  0  0  0  0
   26.3111  -28.8067   42.1121 O   0  0  0  0  0  0  0  0  0  0  0  0
   24.7414  -29.2102   42.0261 P   0  0  2  0  0  0  0  0  0  0  0  0
   23.8796  -28.4680   42.9940 O   0  0  0  0  0  0  0  0  0  0  0  0
   24.6514  -30.6911   42.0727 O   0  0  0  0  0  0  0  0  0  0  0  0
   24.4130  -28.6933   40.5464 O   0  0  0  0  0  0  0  0  0  0  0  0
   24.6899  -27.2742   39.8594 P   0  0  1  0  0  0  0  0  0  0  0  0
   25.7201  -26.4789   40.5754 O   0  0  0  0  0  0  0  0  0  0  0  0
   23.3634  -26.6359   39.5720 O   0  0  0  0  0  0  0  0  0  0  0  0
   23.5540  -28.3298   37.4144 H   0  0  0  0  0  0  0  0  0  0  0  0
   24.6682  -27.9820   35.1656 H   0  0  0  0  0  0  0  0  0  0  0  0
   27.0717  -26.9377   36.7042 H   0  0  0  0  0  0  0  0  0  0  0  0
   25.1764  -25.4486   34.9084 H   0  0  0  0  0  0  0  0  0  0  0  0
   25.5317  -25.3590   37.9444 H   0  0  0  0  0  0  0  0  0  0  0  0
   24.2617  -23.5143   38.0222 H   0  0  0  0  0  0  0  0  0  0  0  0
   24.6395  -23.3938   36.2337 H   0  0  0  0  0  0  0  0  0  0  0  0
   27.5013  -31.2073   38.0737 H   0  0  0  0  0  0  0  0  0  0  0  0
   26.6836  -31.6094   36.5257 H   0  0  0  0  0  0  0  0  0  0  0  0
   28.4062  -31.1002   36.5257 H   0  0  0  0  0  0  0  0  0  0  0  0
   25.3100  -30.1197   35.9044 H   0  0  0  0  0  0  0  0  0  0  0  0
   27.9972  -27.6320   34.9367 H   0  0  0  0  0  0  0  0  0  0  0  0
   27.0054  -24.3415   36.8269 H   0  0  0  0  0  0  0  0  0  0  0  0
   22.2316  -24.0939   37.5424 H   0  0  0  0  0  0  0  0  0  0  0  0
   29.7382  -36.4388   43.0026 H   0  0  0  0  0  0  0  0  0  0  0  0
   30.7194  -33.7046   46.0720 H   0  0  0  0  0  0  0  0  0  0  0  0
   30.3297  -31.9218   44.5087 H   0  0  0  0  0  0  0  0  0  0  0  0
   30.6478  -31.9926   41.4505 H   0  0  0  0  0  0  0  0  0  0  0  0
   28.5211  -33.4222   40.5117 H   0  0  0  0  0  0  0  0  0  0  0  0
   29.7691  -30.8820   39.9522 H   0  0  0  0  0  0  0  0  0  0  0  0
   26.8103  -32.0531   41.9202 H   0  0  0  0  0  0  0  0  0  0  0  0
   28.3192  -29.5800   41.0081 H   0  0  0  0  0  0  0  0  0  0  0  0
   26.0000  -30.8630   40.1517 H   0  0  0  0  0  0  0  0  0  0  0  0
   26.7796  -30.2983   43.4912 H   0  0  0  0  0  0  0  0  0  0  0  0
   27.9119  -28.9235   43.4556 H   0  0  0  0  0  0  0  0  0  0  0  0
  1  2  1  0
  1 10  1  0
  1 13  1  0
  2  3  1  0
  2  9  1  0
  3  4  1  0
  3 11  1  0
  4  5  1  0
  4 12  1  0
  5  6  1  0
  5 13  1  0
  6 14  1  0
  7  8  1  0
  7  9  1  0
  7 15  2  0
 10 37  1  0
 16 17  1  0
 16 21  1  0
 24 16  1  0
 17 18  1  0
 17 22  2  0
 18 19  1  0
 19 20  1  0
 19 23  2  0
 20 21  2  0
 24 25  1  0
 24 29  1  0
 25 26  1  0
 25 27  1  0
 27 28  1  0
 27 30  1  0
 28 29  1  0
 28 31  1  0
 31 32  1  0
 32 33  1  0
 33 34  2  0
 33 35  1  6
 33 36  1  0
 36 37  1  0
 37 38  2  0
 37 39  1  6
  1 40  1  1
  2 41  1  6
  3 42  1  1
  4 43  1  6
  5 44  1  1
  6 45  1  0
  6 46  1  0
  8 47  1  0
  8 48  1  0
  8 49  1  0
  9 50  1  0
 11 51  1  0
 12 52  1  0
 14 53  1  0
 18 54  1  0
 20 55  1  0
 21 56  1  0
 24 57  1  6
 25 58  1  6
 26 59  1  0
 27 60  1  1
 28 61  1  6
 30 62  1  0
 31 63  1  0
 31 64  1  0
M  CHG  2  35  -1  39  -1
M  END
>  <filename_input>  (23) 
7TB0_UD1_docked.sdf

>  <pdb_id>  (23) 
7TB0_UD1

>  <pose_rank>  (23) 
22

>  <num_atoms_heavy>  (23) 
39

>  <num_torsions>  (23) 
10

>  <pose>  (23) 
[24.741385439609626, -29.210195918916106, 42.02605845098224, 2.9371136758237166, -4.412966176717852, 1.5931926932535498, -4.508728003632647, -0.5686371753209705, 4.049883721863911, -0.9157901995909861, 3.171027368217932, 5.834238399180558, 3.175332477393424, 5.934067166545319, 3.4124481663357136, 0.9457142267898224]

>  <energy>  (23) 
-568.7928270569466

>  <inter_energy>  (23) 
-750.140021733882

>  <intra_energy>  (23) 
183.0194268006052

>  <rmsd>  (23) 
3.51856

>  <sdf_rank>  (23) 
0

$$$$

     RDKit          3D

 64 66  0  0  0  0  0  0  0  0999 V2000
   25.1851  -28.3613   36.3267 C   0  0  1  0  0  0  0  0  0  0  0  0
   24.1416  -27.3992   36.9221 C   0  0  1  0  0  0  0  0  0  0  0  0
   24.6269  -25.9552   36.8721 C   0  0  2  0  0  0  0  0  0  0  0  0
   26.0166  -25.8334   37.4764 C   0  0  1  0  0  0  0  0  0  0  0  0
   26.9627  -26.8665   36.8491 C   0  0  1  0  0  0  0  0  0  0  0  0
   28.3338  -26.8521   37.4946 C   0  0  0  0  0  0  0  0  0  0  0  0
   21.7160  -27.3411   36.7897 C   0  0  0  0  0  0  0  0  0  0  0  0
   20.5024  -27.5337   35.9184 C   0  0  0  0  0  0  0  0  0  0  0  0
   22.8901  -27.5784   36.2221 N   0  0  0  0  0  0  0  0  0  0  0  0
   25.2684  -28.0465   34.9545 O   0  0  0  0  0  0  0  0  0  0  0  0
   23.6511  -25.0994   37.4955 O   0  0  0  0  0  0  0  0  0  0  0  0
   26.5666  -24.5425   37.2065 O   0  0  0  0  0  0  0  0  0  0  0  0
   26.4217  -28.1921   37.0064 O   0  0  0  0  0  0  0  0  0  0  0  0
   28.7606  -25.5516   37.9424 O   0  0  0  0  0  0  0  0  0  0  0  0
   21.6492  -26.8887   37.9509 O   0  0  0  0  0  0  0  0  0  0  0  0
   26.4898  -29.7081   40.9985 N   0  0  0  0  0  0  0  0  0  0  0  0
   26.0233  -28.3962   41.0535 C   0  0  0  0  0  0  0  0  0  0  0  0
   24.8005  -28.2365   41.6783 N   0  0  0  0  0  0  0  0  0  0  0  0
   23.9980  -29.2316   42.1923 C   0  0  0  0  0  0  0  0  0  0  0  0
   24.5569  -30.5475   42.1035 C   0  0  0  0  0  0  0  0  0  0  0  0
   25.7366  -30.7300   41.5142 C   0  0  0  0  0  0  0  0  0  0  0  0
   26.6464  -27.4728   40.5646 O   0  0  0  0  0  0  0  0  0  0  0  0
   22.9018  -28.9570   42.6958 O   0  0  0  0  0  0  0  0  0  0  0  0
   27.7512  -29.9322   40.2601 C   0  0  1  0  0  0  0  0  0  0  0  0
   28.6294  -31.0385   40.7922 C   0  0  2  0  0  0  0  0  0  0  0  0
   29.9758  -30.6241   40.5140 O   0  0  0  0  0  0  0  0  0  0  0  0
   28.3295  -32.1112   39.7976 C   0  0  1  0  0  0  0  0  0  0  0  0
   28.2452  -31.3362   38.4729 C   0  0  2  0  0  0  0  0  0  0  0  0
   27.5199  -30.1621   38.8734 O   0  0  0  0  0  0  0  0  0  0  0  0
   29.5133  -32.8729   39.8398 O   0  0  0  0  0  0  0  0  0  0  0  0
   27.4294  -31.9968   37.3696 C   0  0  0  0  0  0  0  0  0  0  0  0
   28.0502  -31.6659   36.1193 O   0  0  0  0  0  0  0  0  0  0  0  0
   27.2394  -31.5843   34.7157 P   0  0  2  0  0  0  0  0  0  0  0  0
   26.2862  -32.7153   34.5095 O   0  0  0  0  0  0  0  0  0  0  0  0
   28.2298  -31.3584   33.6333 O   0  0  0  0  0  0  0  0  0  0  0  0
   26.3989  -30.2452   34.9697 O   0  0  0  0  0  0  0  0  0  0  0  0
   25.8607  -29.1480   33.9358 P   0  0  1  0  0  0  0  0  0  0  0  0
   24.7809  -29.6656   33.0568 O   0  0  0  0  0  0  0  0  0  0  0  0
   27.0506  -28.4929   33.2997 O   0  0  0  0  0  0  0  0  0  0  0  0
   24.9100  -29.4198   36.4448 H   0  0  0  0  0  0  0  0  0  0  0  0
   23.9883  -27.6326   37.9861 H   0  0  0  0  0  0  0  0  0  0  0  0
   24.7261  -25.6249   35.8275 H   0  0  0  0  0  0  0  0  0  0  0  0
   25.9217  -25.9970   38.5600 H   0  0  0  0  0  0  0  0  0  0  0  0
   27.0610  -26.5989   35.7867 H   0  0  0  0  0  0  0  0  0  0  0  0
   28.3135  -27.5268   38.3632 H   0  0  0  0  0  0  0  0  0  0  0  0
   29.0501  -27.1723   36.7236 H   0  0  0  0  0  0  0  0  0  0  0  0
   19.6146  -27.6746   36.5523 H   0  0  0  0  0  0  0  0  0  0  0  0
   20.3625  -26.6465   35.2833 H   0  0  0  0  0  0  0  0  0  0  0  0
   20.6440  -28.4206   35.2833 H   0  0  0  0  0  0  0  0  0  0  0  0
   22.9112  -27.9030   35.2448 H   0  0  0  0  0  0  0  0  0  0  0  0
   23.7313  -25.1697   38.4797 H   0  0  0  0  0  0  0  0  0  0  0  0
   26.7627  -24.0821   38.0607 H   0  0  0  0  0  0  0  0  0  0  0  0
   28.7679  -25.5294   38.9321 H   0  0  0  0  0  0  0  0  0  0  0  0
   24.4524  -27.2714   41.7691 H   0  0  0  0  0  0  0  0  0  0  0  0
   24.0118  -31.4065   42.5219 H   0  0  0  0  0  0  0  0  0  0  0  0
   26.1274  -31.7554   41.4371 H   0  0  0  0  0  0  0  0  0  0  0  0
   28.3002  -28.9915   40.4140 H   0  0  0  0  0  0  0  0  0  0  0  0
   28.4941  -31.3034   41.8512 H   0  0  0  0  0  0  0  0  0  0  0  0
   30.4581  -30.4756   41.3657 H   0  0  0  0  0  0  0  0  0  0  0  0
   27.4331  -32.7307   39.9481 H   0  0  0  0  0  0  0  0  0  0  0  0
   29.2522  -31.2127   38.0478 H   0  0  0  0  0  0  0  0  0  0  0  0
   29.7671  -33.0362   40.7827 H   0  0  0  0  0  0  0  0  0  0  0  0
   27.4229  -33.0879   37.5089 H   0  0  0  0  0  0  0  0  0  0  0  0
   26.3883  -31.6424   37.3917 H   0  0  0  0  0  0  0  0  0  0  0  0
  1  2  1  0
  1 10  1  0
  1 13  1  0
  2  3  1  0
  2  9  1  0
  3  4  1  0
  3 11  1  0
  4  5  1  0
  4 12  1  0
  5  6  1  0
  5 13  1  0
  6 14  1  0
  7  8  1  0
  7  9  1  0
  7 15  2  0
 10 37  1  0
 16 17  1  0
 16 21  1  0
 24 16  1  0
 17 18  1  0
 17 22  2  0
 18 19  1  0
 19 20  1  0
 19 23  2  0
 20 21  2  0
 24 25  1  0
 24 29  1  0
 25 26  1  0
 25 27  1  0
 27 28  1  0
 27 30  1  0
 28 29  1  0
 28 31  1  0
 31 32  1  0
 32 33  1  0
 33 34  2  0
 33 35  1  6
 33 36  1  0
 36 37  1  0
 37 38  2  0
 37 39  1  6
  1 40  1  6
  2 41  1  1
  3 42  1  6
  4 43  1  1
  5 44  1  6
  6 45  1  0
  6 46  1  0
  8 47  1  0
  8 48  1  0
  8 49  1  0
  9 50  1  0
 11 51  1  0
 12 52  1  0
 14 53  1  0
 18 54  1  0
 20 55  1  0
 21 56  1  0
 24 57  1  6
 25 58  1  1
 26 59  1  0
 27 60  1  1
 28 61  1  6
 30 62  1  0
 31 63  1  0
 31 64  1  0
M  CHG  2  35  -1  39  -1
M  END
>  <filename_input>  (24) 
7TB0_UD1_docked.sdf

>  <pdb_id>  (24) 
7TB0_UD1

>  <pose_rank>  (24) 
23

>  <num_atoms_heavy>  (24) 
39

>  <num_torsions>  (24) 
10

>  <pose>  (24) 
[27.23944355974823, -31.584325229615775, 34.715704345852565, -3.802840407021824, 0.2632473255727842, -3.17792772548056, -0.713952475151804, 1.2040711375765518, -3.4001806483935977, 1.1278486340653766, -12.165396251601042, 0.4254006318743929, 1.2024733015565896, -6.139919712135018, 1.3566473916057515, -1.4715117874387962]

>  <energy>  (24) 
-685.195784441192

>  <inter_energy>  (24) 
-760.0156751113288

>  <intra_energy>  (24) 
71.26297802237805

>  <rmsd>  (24) 
5.46362

>  <sdf_rank>  (24) 
0

$$$$

     RDKit          3D

 64 66  0  0  0  0  0  0  0  0999 V2000
   26.8510  -28.9963   36.2793 C   0  0  1  0  0  0  0  0  0  0  0  0
   25.7647  -27.9133   36.4059 C   0  0  1  0  0  0  0  0  0  0  0  0
   24.5736  -28.2147   35.5038 C   0  0  2  0  0  0  0  0  0  0  0  0
   25.0322  -28.4869   34.0801 C   0  0  1  0  0  0  0  0  0  0  0  0
   26.1463  -29.5426   34.0719 C   0  0  1  0  0  0  0  0  0  0  0  0
   26.7072  -29.7710   32.6827 C   0  0  0  0  0  0  0  0  0  0  0  0
   25.3318  -26.6334   38.4255 C   0  0  0  0  0  0  0  0  0  0  0  0
   24.8741  -26.6706   39.8601 C   0  0  0  0  0  0  0  0  0  0  0  0
   25.3817  -27.7980   37.7946 N   0  0  0  0  0  0  0  0  0  0  0  0
   26.2850  -30.1796   36.7973 O   0  0  0  0  0  0  0  0  0  0  0  0
   23.6130  -27.1470   35.6050 O   0  0  0  0  0  0  0  0  0  0  0  0
   23.9545  -29.0081   33.3000 O   0  0  0  0  0  0  0  0  0  0  0  0
   27.2341  -29.1202   34.9163 O   0  0  0  0  0  0  0  0  0  0  0  0
   26.9145  -28.5639   31.9252 O   0  0  0  0  0  0  0  0  0  0  0  0
   25.5598  -25.5681   37.8165 O   0  0  0  0  0  0  0  0  0  0  0  0
   27.5735  -30.9186   43.1487 N   0  0  0  0  0  0  0  0  0  0  0  0
   27.7905  -29.5657   43.4019 C   0  0  0  0  0  0  0  0  0  0  0  0
   26.6470  -28.7905   43.4550 N   0  0  0  0  0  0  0  0  0  0  0  0
   25.3527  -29.2094   43.2366 C   0  0  0  0  0  0  0  0  0  0  0  0
   25.2187  -30.6147   42.9933 C   0  0  0  0  0  0  0  0  0  0  0  0
   26.3021  -31.3868   42.9446 C   0  0  0  0  0  0  0  0  0  0  0  0
   28.9099  -29.1107   43.5421 O   0  0  0  0  0  0  0  0  0  0  0  0
   24.4161  -28.4022   43.2771 O   0  0  0  0  0  0  0  0  0  0  0  0
   28.7764  -31.7650   42.9959 C   0  0  1  0  0  0  0  0  0  0  0  0
   28.5150  -33.2137   42.6621 C   0  0  2  0  0  0  0  0  0  0  0  0
   29.5835  -33.9466   43.2811 O   0  0  0  0  0  0  0  0  0  0  0  0
   28.8306  -33.2065   41.2025 C   0  0  1  0  0  0  0  0  0  0  0  0
   30.0534  -32.2788   41.1211 C   0  0  2  0  0  0  0  0  0  0  0  0
   29.6804  -31.2323   42.0325 O   0  0  0  0  0  0  0  0  0  0  0  0
   29.2206  -34.5432   40.9925 O   0  0  0  0  0  0  0  0  0  0  0  0
   30.2932  -31.6157   39.7713 C   0  0  0  0  0  0  0  0  0  0  0  0
   29.9090  -30.2391   39.8944 O   0  0  0  0  0  0  0  0  0  0  0  0
   28.5424  -29.6351   39.2605 P   0  0  2  0  0  0  0  0  0  0  0  0
   28.6401  -28.1899   38.8968 O   0  0  0  0  0  0  0  0  0  0  0  0
   27.4223  -30.0085   40.1601 O   0  0  0  0  0  0  0  0  0  0  0  0
   28.4675  -30.4986   37.9140 O   0  0  0  0  0  0  0  0  0  0  0  0
   27.2647  -31.3582   37.3000 P   0  0  1  0  0  0  0  0  0  0  0  0
   26.5783  -32.1962   38.3163 O   0  0  0  0  0  0  0  0  0  0  0  0
   27.7621  -32.0150   36.0466 O   0  0  0  0  0  0  0  0  0  0  0  0
   27.7675  -28.7527   36.8368 H   0  0  0  0  0  0  0  0  0  0  0  0
   26.1657  -26.9462   36.0682 H   0  0  0  0  0  0  0  0  0  0  0  0
   24.0704  -29.1348   35.8359 H   0  0  0  0  0  0  0  0  0  0  0  0
   25.3916  -27.5356   33.6607 H   0  0  0  0  0  0  0  0  0  0  0  0
   25.6966  -30.4774   34.4379 H   0  0  0  0  0  0  0  0  0  0  0  0
   27.6737  -30.2870   32.7812 H   0  0  0  0  0  0  0  0  0  0  0  0
   25.9616  -30.3651   32.1339 H   0  0  0  0  0  0  0  0  0  0  0  0
   25.7472  -26.5996   40.5255 H   0  0  0  0  0  0  0  0  0  0  0  0
   24.1976  -25.8246   40.0512 H   0  0  0  0  0  0  0  0  0  0  0  0
   24.3433  -27.6150   40.0512 H   0  0  0  0  0  0  0  0  0  0  0  0
   25.1383  -28.6535   38.3139 H   0  0  0  0  0  0  0  0  0  0  0  0
   23.4367  -26.9510   36.5592 H   0  0  0  0  0  0  0  0  0  0  0  0
   23.2468  -29.3504   33.9017 H   0  0  0  0  0  0  0  0  0  0  0  0
   27.0450  -27.8034   32.5455 H   0  0  0  0  0  0  0  0  0  0  0  0
   26.7764  -27.7941   43.6819 H   0  0  0  0  0  0  0  0  0  0  0  0
   24.2216  -31.0554   42.8468 H   0  0  0  0  0  0  0  0  0  0  0  0
   26.1695  -32.4574   42.7291 H   0  0  0  0  0  0  0  0  0  0  0  0
   29.2222  -31.7481   44.0014 H   0  0  0  0  0  0  0  0  0  0  0  0
   27.5292  -33.6105   42.9462 H   0  0  0  0  0  0  0  0  0  0  0  0
   29.4973  -33.8875   44.2656 H   0  0  0  0  0  0  0  0  0  0  0  0
   28.0481  -32.8880   40.4981 H   0  0  0  0  0  0  0  0  0  0  0  0
   30.9705  -32.8510   41.3245 H   0  0  0  0  0  0  0  0  0  0  0  0
   29.3510  -34.9901   41.8662 H   0  0  0  0  0  0  0  0  0  0  0  0
   31.3574  -31.6862   39.5017 H   0  0  0  0  0  0  0  0  0  0  0  0
   29.7070  -32.1134   38.9848 H   0  0  0  0  0  0  0  0  0  0  0  0
  1  2  1  0
  1 10  1  0
  1 13  1  0
  2  3  1  0
  2  9  1  0
  3  4  1  0
  3 11  1  0
  4  5  1  0
  4 12  1  0
  5  6  1  0
  5 13  1  0
  6 14  1  0
  7  8  1  0
  7  9  1  0
  7 15  2  0
 10 37  1  0
 16 17  1  0
 16 21  1  0
 24 16  1  0
 17 18  1  0
 17 22  2  0
 18 19  1  0
 19 20  1  0
 19 23  2  0
 20 21  2  0
 24 25  1  0
 24 29  1  0
 25 26  1  0
 25 27  1  0
 27 28  1  0
 27 30  1  0
 28 29  1  0
 28 31  1  0
 31 32  1  0
 32 33  1  0
 33 34  2  0
 33 35  1  1
 33 36  1  0
 36 37  1  0
 37 38  2  0
 37 39  1  6
  1 40  1  1
  2 41  1  6
  3 42  1  1
  4 43  1  6
  5 44  1  1
  6 45  1  0
  6 46  1  0
  8 47  1  0
  8 48  1  0
  8 49  1  0
  9 50  1  0
 11 51  1  0
 12 52  1  0
 14 53  1  0
 18 54  1  0
 20 55  1  0
 21 56  1  0
 24 57  1  1
 25 58  1  6
 26 59  1  0
 27 60  1  6
 28 61  1  1
 30 62  1  0
 31 63  1  0
 31 64  1  0
M  CHG  2  35  -1  39  -1
M  END
>  <filename_input>  (25) 
7TB0_UD1_docked.sdf

>  <pdb_id>  (25) 
7TB0_UD1

>  <pose_rank>  (25) 
24

>  <num_atoms_heavy>  (25) 
39

>  <num_torsions>  (25) 
10

>  <pose>  (25) 
[28.542390263231326, -29.635053763525914, 39.26050459293689, 2.683912148800508, -0.9029801342220587, 3.5789509187737187, 3.7013764386156116, -4.254586696101488, -5.289524378270531, 1.7462062640760898, 0.03183016864163965, -1.5528938168330375, 1.975093793035929, 0.1528032771501879, -5.314383610214178, -0.14997653524245824]

>  <energy>  (25) 
-712.6416851175283

>  <inter_energy>  (25) 
-766.3831978423817

>  <intra_energy>  (25) 
53.1409465628161

>  <rmsd>  (25) 
4.98289

>  <sdf_rank>  (25) 
0

$$$$

     RDKit          3D

 64 66  0  0  0  0  0  0  0  0999 V2000
   25.6850  -28.3210   36.7730 C   0  0  1  0  0  0  0  0  0  0  0  0
   25.7500  -27.0310   35.9360 C   0  0  1  0  0  0  0  0  0  0  0  0
   26.4090  -25.8980   36.7140 C   0  0  2  0  0  0  0  0  0  0  0  0
   25.7600  -25.7340   38.0790 C   0  0  1  0  0  0  0  0  0  0  0  0
   25.7020  -27.0840   38.8070 C   0  0  1  0  0  0  0  0  0  0  0  0
   24.9690  -26.9890   40.1300 C   0  0  0  0  0  0  0  0  0  0  0  0
   25.8750  -27.9950   33.7090 C   0  0  0  0  0  0  0  0  0  0  0  0
   26.7040  -28.1730   32.4640 C   0  0  0  0  0  0  0  0  0  0  0  0
   26.4380  -27.3140   34.6970 N   0  0  0  0  0  0  0  0  0  0  0  0
   27.0210  -28.7310   36.9630 O   0  0  0  0  0  0  0  0  0  0  0  0
   26.3910  -24.6970   35.9200 O   0  0  0  0  0  0  0  0  0  0  0  0
   26.5310  -24.8500   38.8950 O   0  0  0  0  0  0  0  0  0  0  0  0
   25.0120  -28.0540   37.9960 O   0  0  0  0  0  0  0  0  0  0  0  0
   23.6750  -26.3630   40.0430 O   0  0  0  0  0  0  0  0  0  0  0  0
   24.6880  -28.3720   33.7900 O   0  0  0  0  0  0  0  0  0  0  0  0
   29.4320  -33.8750   43.1300 N   0  0  0  0  0  0  0  0  0  0  0  0
   30.1370  -34.9610   43.6450 C   0  0  0  0  0  0  0  0  0  0  0  0
   30.2620  -36.0370   42.7860 N   0  0  0  0  0  0  0  0  0  0  0  0
   29.7260  -36.1530   41.5220 C   0  0  0  0  0  0  0  0  0  0  0  0
   29.0260  -34.9890   41.0670 C   0  0  0  0  0  0  0  0  0  0  0  0
   28.8970  -33.9350   41.8700 C   0  0  0  0  0  0  0  0  0  0  0  0
   30.5850  -34.9570   44.7760 O   0  0  0  0  0  0  0  0  0  0  0  0
   29.8810  -37.1910   40.8670 O   0  0  0  0  0  0  0  0  0  0  0  0
   29.2000  -32.7400   44.0490 C   0  0  1  0  0  0  0  0  0  0  0  0
   30.3440  -31.7640   44.1800 C   0  0  2  0  0  0  0  0  0  0  0  0
   30.2750  -31.2740   45.5280 O   0  0  0  0  0  0  0  0  0  0  0  0
   29.8360  -30.6500   43.3250 C   0  0  1  0  0  0  0  0  0  0  0  0
   28.3370  -30.6150   43.6630 C   0  0  2  0  0  0  0  0  0  0  0  0
   28.0210  -32.0160   43.7100 O   0  0  0  0  0  0  0  0  0  0  0  0
   30.4880  -29.5390   43.8940 O   0  0  0  0  0  0  0  0  0  0  0  0
   27.4330  -30.0000   42.6030 C   0  0  0  0  0  0  0  0  0  0  0  0
   27.7780  -30.5970   41.3450 O   0  0  0  0  0  0  0  0  0  0  0  0
   26.6770  -31.0550   40.2440 P   0  0  2  0  0  0  0  0  0  0  0  0
   25.2660  -30.8650   40.6950 O   0  0  0  0  0  0  0  0  0  0  0  0
   27.0380  -32.4190   39.7830 O   0  0  0  0  0  0  0  0  0  0  0  0
   26.9940  -29.9910   39.0900 O   0  0  0  0  0  0  0  0  0  0  0  0
   27.3090  -30.2110   37.5360 P   0  0  1  0  0  0  0  0  0  0  0  0
   26.3970  -31.1940   36.8970 O   0  0  0  0  0  0  0  0  0  0  0  0
   28.7890  -30.4060   37.3900 O   0  0  0  0  0  0  0  0  0  0  0  0
   25.1204  -29.1255   36.2791 H   0  0  0  0  0  0  0  0  0  0  0  0
   24.7305  -26.6889   35.7043 H   0  0  0  0  0  0  0  0  0  0  0  0
   27.4639  -26.1384   36.9125 H   0  0  0  0  0  0  0  0  0  0  0  0
   24.7486  -25.3324   37.9183 H   0  0  0  0  0  0  0  0  0  0  0  0
   26.7432  -27.3866   38.9920 H   0  0  0  0  0  0  0  0  0  0  0  0
   24.8341  -28.0072   40.5238 H   0  0  0  0  0  0  0  0  0  0  0  0
   25.5832  -26.3563   40.7876 H   0  0  0  0  0  0  0  0  0  0  0  0
   27.7439  -28.3963   32.7447 H   0  0  0  0  0  0  0  0  0  0  0  0
   26.2982  -29.0045   31.8691 H   0  0  0  0  0  0  0  0  0  0  0  0
   26.6753  -27.2482   31.8691 H   0  0  0  0  0  0  0  0  0  0  0  0
   27.4027  -26.9735   34.5771 H   0  0  0  0  0  0  0  0  0  0  0  0
   26.3791  -23.9071   36.5167 H   0  0  0  0  0  0  0  0  0  0  0  0
   26.3587  -25.0475   39.8497 H   0  0  0  0  0  0  0  0  0  0  0  0
   23.3277  -26.1950   40.9547 H   0  0  0  0  0  0  0  0  0  0  0  0
   30.8144  -36.8367   43.1270 H   0  0  0  0  0  0  0  0  0  0  0  0
   28.5954  -34.9660   40.0550 H   0  0  0  0  0  0  0  0  0  0  0  0
   28.3310  -33.0663   41.5025 H   0  0  0  0  0  0  0  0  0  0  0  0
   29.0897  -33.2304   45.0274 H   0  0  0  0  0  0  0  0  0  0  0  0
   31.3451  -32.1489   43.9359 H   0  0  0  0  0  0  0  0  0  0  0  0
   30.3813  -32.0290   46.1594 H   0  0  0  0  0  0  0  0  0  0  0  0
   29.9924  -30.7097   42.2378 H   0  0  0  0  0  0  0  0  0  0  0  0
   28.1718  -30.0082   44.5655 H   0  0  0  0  0  0  0  0  0  0  0  0
   30.4499  -29.6039   44.8811 H   0  0  0  0  0  0  0  0  0  0  0  0
   26.3794  -30.2076   42.8412 H   0  0  0  0  0  0  0  0  0  0  0  0
   27.5668  -28.9089   42.5644 H   0  0  0  0  0  0  0  0  0  0  0  0
  1  2  1  0
  1 10  1  0
  1 13  1  0
  2  3  1  0
  2  9  1  0
  3  4  1  0
  3 11  1  0
  4  5  1  0
  4 12  1  0
  5  6  1  0
  5 13  1  0
  6 14  1  0
  7  8  1  0
  7  9  1  0
  7 15  2  0
 10 37  1  0
 16 17  1  0
 16 21  1  0
 24 16  1  0
 17 18  1  0
 17 22  2  0
 18 19  1  0
 19 20  1  0
 19 23  2  0
 20 21  2  0
 24 25  1  0
 24 29  1  0
 25 26  1  0
 25 27  1  0
 27 28  1  0
 27 30  1  0
 28 29  1  0
 28 31  1  0
 31 32  1  0
 32 33  1  0
 33 34  2  0
 33 35  1  6
 33 36  1  0
 36 37  1  0
 37 38  2  0
 37 39  1  1
  1 40  1  6
  2 41  1  6
  3 42  1  1
  4 43  1  6
  5 44  1  1
  6 45  1  0
  6 46  1  0
  8 47  1  0
  8 48  1  0
  8 49  1  0
  9 50  1  0
 11 51  1  0
 12 52  1  0
 14 53  1  0
 18 54  1  0
 20 55  1  0
 21 56  1  0
 24 57  1  1
 25 58  1  6
 26 59  1  0
 27 60  1  6
 28 61  1  1
 30 62  1  0
 31 63  1  0
 31 64  1  0
M  CHG  2  35  -1  39  -1
M  END
>  <filename_input>  (26) 
7TB0_UD1_docked.sdf

>  <pdb_id>  (26) 
7TB0_UD1

>  <pose_rank>  (26) 
25

>  <num_atoms_heavy>  (26) 
39

>  <num_torsions>  (26) 
10

>  <pose>  (26) 
[26.677, -31.055, 40.244, 1e-06, 1e-06, 1e-06, 0.0, 0.0, 0.0, 0.0, 0.0, 0.0, 0.0, 0.0, 0.0, 0.0]

>  <energy>  (26) 
-939.6447721336178

>  <inter_energy>  (26) 
-969.673468990211

>  <intra_energy>  (26) 
29.311826495305

>  <rmsd>  (26) 
0.0

>  <sdf_rank>  (26) 
0

$$$$
