
     RDKit          3D

 24 24  0  0  0  0  0  0  0  0999 V2000
   24.9234   70.8320    6.7719 C   0  0  0  0  0  0  0  0  0  0  0  0
   25.8601   69.6032    6.3457 C   0  0  0  0  0  0  0  0  0  0  0  0
   26.3822   68.7146    7.3593 C   0  0  2  0  0  0  0  0  0  0  0  0
   25.5786   68.8297    8.7945 C   0  0  2  0  0  0  0  0  0  0  0  0
   25.4554   70.1299    9.2381 C   0  0  1  0  0  0  0  0  0  0  0  0
   24.6702   71.1176    8.1685 C   0  0  0  0  0  0  0  0  0  0  0  0
   24.6271   71.9071    5.7268 C   0  0  0  0  0  0  0  0  0  0  0  0
   27.7330   69.0278    7.5653 O   0  0  0  0  0  0  0  0  0  0  0  0
   26.3453   68.0837    9.7507 O   0  0  0  0  0  0  0  0  0  0  0  0
   24.7071   70.1519   10.4669 O   0  0  0  0  0  0  0  0  0  0  0  0
   23.7626   72.7928    5.9581 O   0  0  0  0  0  0  0  0  0  0  0  0
   25.2524   71.8984    4.6346 O   0  0  0  0  0  0  0  0  0  0  0  0
   28.8666   67.8195    7.6246 P   0  0  2  0  0  0  0  0  0  0  0  0
   28.3792   66.6670    8.4702 O   0  0  0  0  0  0  0  0  0  0  0  0
   30.1181   68.3991    8.2448 O   0  0  0  0  0  0  0  0  0  0  0  0
   29.0946   67.3806    6.2085 O   0  0  0  0  0  0  0  0  0  0  0  0
   26.1047   69.4368    5.2862 H   0  0  0  0  0  0  0  0  0  0  0  0
   26.2515   67.6831    7.0001 H   0  0  0  0  0  0  0  0  0  0  0  0
   24.5569   68.4430    8.6656 H   0  0  0  0  0  0  0  0  0  0  0  0
   26.4816   70.5042    9.3676 H   0  0  0  0  0  0  0  0  0  0  0  0
   24.9836   72.1531    8.3671 H   0  0  0  0  0  0  0  0  0  0  0  0
   23.5949   70.9484    8.3265 H   0  0  0  0  0  0  0  0  0  0  0  0
   26.0758   68.3459   10.6665 H   0  0  0  0  0  0  0  0  0  0  0  0
   25.3322   70.1335   11.2343 H   0  0  0  0  0  0  0  0  0  0  0  0
  1  2  2  0
  1  6  1  0
  1  7  1  0
  2  3  1  0
  3  4  1  0
  3  8  1  0
  4  5  1  0
  4  9  1  0
  5  6  1  0
  5 10  1  0
  7 11  1  0
  7 12  2  0
  8 13  1  0
 13 14  2  0
 13 15  1  1
 13 16  1  0
  2 17  1  0
  3 18  1  6
  4 19  1  6
  5 20  1  1
  6 21  1  0
  6 22  1  0
  9 23  1  0
 10 24  1  0
M  CHG  3  11  -1  15  -1  16  -1
M  END
>  <filename_input>  (1) 
7TBU_S3P_docked.sdf

>  <pdb_id>  (1) 
7TBU_S3P

>  <pose_rank>  (1) 
0

>  <num_atoms_heavy>  (1) 
16

>  <num_torsions>  (1) 
3

>  <pose>  (1) 
[24.92342462192708, 70.83197704201444, 6.771870214538388, -2.8436346842822493, -4.813003291485141, 2.806181509202047, 0.04605712258568871, -0.2015021854256714, -1.8059198861455112]

>  <energy>  (1) 
-454.9646579512798

>  <inter_energy>  (1) 
-472.8374374406714

>  <intra_energy>  (1) 
18.4731716786019

>  <rmsd>  (1) 
0.392042

>  <sdf_rank>  (1) 
0

$$$$

     RDKit          3D

 24 24  0  0  0  0  0  0  0  0999 V2000
   25.2045   69.7248   12.0240 C   0  0  0  0  0  0  0  0  0  0  0  0
   26.1985   68.5135   11.6871 C   0  0  0  0  0  0  0  0  0  0  0  0
   26.6637   67.6511   12.7499 C   0  0  2  0  0  0  0  0  0  0  0  0
   25.7524   67.7656   14.1194 C   0  0  2  0  0  0  0  0  0  0  0  0
   25.5664   69.0681   14.5332 C   0  0  1  0  0  0  0  0  0  0  0  0
   24.8409   70.0225   13.3935 C   0  0  0  0  0  0  0  0  0  0  0  0
   24.9624   70.7788   10.9439 C   0  0  0  0  0  0  0  0  0  0  0  0
   27.9877   67.9995   13.0513 O   0  0  0  0  0  0  0  0  0  0  0  0
   26.4624   67.0509   15.1410 O   0  0  0  0  0  0  0  0  0  0  0  0
   24.7279   69.0881   15.7024 O   0  0  0  0  0  0  0  0  0  0  0  0
   23.8233   71.2983   10.8112 O   0  0  0  0  0  0  0  0  0  0  0  0
   25.9095   71.1208   10.1890 O   0  0  0  0  0  0  0  0  0  0  0  0
   28.3450   69.5307   13.5771 P   0  0  2  0  0  0  0  0  0  0  0  0
   28.4704   69.5661   15.0818 O   0  0  0  0  0  0  0  0  0  0  0  0
   27.2112   70.4353   13.1494 O   0  0  0  0  0  0  0  0  0  0  0  0
   29.6417   69.9117   12.9266 O   0  0  0  0  0  0  0  0  0  0  0  0
   26.5255   68.3392   10.6514 H   0  0  0  0  0  0  0  0  0  0  0  0
   26.5841   66.6122   12.3973 H   0  0  0  0  0  0  0  0  0  0  0  0
   24.7524   67.3527   13.9205 H   0  0  0  0  0  0  0  0  0  0  0  0
   26.5711   69.4687   14.7333 H   0  0  0  0  0  0  0  0  0  0  0  0
   25.1145   71.0678   13.5995 H   0  0  0  0  0  0  0  0  0  0  0  0
   23.7609   69.8295   13.4735 H   0  0  0  0  0  0  0  0  0  0  0  0
   26.1573   67.3580   16.0313 H   0  0  0  0  0  0  0  0  0  0  0  0
   25.2938   69.0746   16.5146 H   0  0  0  0  0  0  0  0  0  0  0  0
  1  2  2  0
  1  6  1  0
  1  7  1  0
  2  3  1  0
  3  4  1  0
  3  8  1  0
  4  5  1  0
  4  9  1  0
  5  6  1  0
  5 10  1  0
  7 11  1  0
  7 12  2  0
  8 13  1  0
 13 14  2  0
 13 15  1  1
 13 16  1  0
  2 17  1  0
  3 18  1  6
  4 19  1  6
  5 20  1  1
  6 21  1  0
  6 22  1  0
  9 23  1  0
 10 24  1  0
M  CHG  3  11  -1  15  -1  16  -1
M  END
>  <filename_input>  (2) 
7TBU_S3P_docked.sdf

>  <pdb_id>  (2) 
7TBU_S3P

>  <pose_rank>  (2) 
1

>  <num_atoms_heavy>  (2) 
16

>  <num_torsions>  (2) 
3

>  <pose>  (2) 
[25.204452304446452, 69.72480913392803, 12.024029671409009, -0.22940416602270167, -12.339874087025622, 2.6372963265386833, -0.42690018402060553, -3.1049401341116702, 0.6896969536485485]

>  <energy>  (2) 
90.68463656948147

>  <inter_energy>  (2) 
-122.21354320356403

>  <intra_energy>  (2) 
218.58257494981797

>  <rmsd>  (2) 
5.99164

>  <sdf_rank>  (2) 
0

$$$$

     RDKit          3D

 24 24  0  0  0  0  0  0  0  0999 V2000
   25.1975   70.9178    6.5349 C   0  0  0  0  0  0  0  0  0  0  0  0
   25.1543   71.0566    8.1311 C   0  0  0  0  0  0  0  0  0  0  0  0
   25.6871   69.9970    8.9574 C   0  0  2  0  0  0  0  0  0  0  0  0
   26.6753   68.9683    8.1302 C   0  0  2  0  0  0  0  0  0  0  0  0
   26.1072   68.4999    6.9639 C   0  0  1  0  0  0  0  0  0  0  0  0
   25.6788   69.7026    5.9122 C   0  0  0  0  0  0  0  0  0  0  0  0
   24.3790   71.9058    5.7043 C   0  0  0  0  0  0  0  0  0  0  0  0
   24.6121   69.2704    9.4881 O   0  0  0  0  0  0  0  0  0  0  0  0
   26.9275   67.8575    9.0025 O   0  0  0  0  0  0  0  0  0  0  0  0
   27.0432   67.6482    6.2791 O   0  0  0  0  0  0  0  0  0  0  0  0
   24.7739   73.0931    5.5635 O   0  0  0  0  0  0  0  0  0  0  0  0
   23.3083   71.5233    5.1647 O   0  0  0  0  0  0  0  0  0  0  0  0
   24.1711   69.4769   11.0729 P   0  0  2  0  0  0  0  0  0  0  0  0
   23.3620   68.2994   11.5629 O   0  0  0  0  0  0  0  0  0  0  0  0
   23.3273   70.7294   11.1513 O   0  0  0  0  0  0  0  0  0  0  0  0
   25.4443   69.6091   11.8547 O   0  0  0  0  0  0  0  0  0  0  0  0
   24.7209   71.9545    8.5958 H   0  0  0  0  0  0  0  0  0  0  0  0
   26.2962   70.4618    9.7468 H   0  0  0  0  0  0  0  0  0  0  0  0
   27.5907   69.5053    7.8408 H   0  0  0  0  0  0  0  0  0  0  0  0
   25.1966   67.9616    7.2655 H   0  0  0  0  0  0  0  0  0  0  0  0
   24.8834   69.3164    5.2580 H   0  0  0  0  0  0  0  0  0  0  0  0
   26.5956   69.9776    5.3701 H   0  0  0  0  0  0  0  0  0  0  0  0
   26.8599   68.1554    9.9442 H   0  0  0  0  0  0  0  0  0  0  0  0
   27.5865   67.1540    6.9430 H   0  0  0  0  0  0  0  0  0  0  0  0
  1  2  2  0
  1  6  1  0
  1  7  1  0
  2  3  1  0
  3  4  1  0
  3  8  1  0
  4  5  1  0
  4  9  1  0
  5  6  1  0
  5 10  1  0
  7 11  1  0
  7 12  2  0
  8 13  1  0
 13 14  2  0
 13 15  1  6
 13 16  1  0
  2 17  1  0
  3 18  1  1
  4 19  1  6
  5 20  1  1
  6 21  1  0
  6 22  1  0
  9 23  1  0
 10 24  1  0
M  CHG  3  11  -1  15  -1  16  -1
M  END
>  <filename_input>  (3) 
7TBU_S3P_docked.sdf

>  <pdb_id>  (3) 
7TBU_S3P

>  <pose_rank>  (3) 
2

>  <num_atoms_heavy>  (3) 
16

>  <num_torsions>  (3) 
3

>  <pose>  (3) 
[25.197493688172344, 70.91784673895788, 6.534908283995101, 1.092027525632477, -1.9557822337420097, 1.8920810668275077, 4.656985899184097, -5.975717058266502, -3.821020482494382]

>  <energy>  (3) 
-448.2822051570243

>  <inter_energy>  (3) 
-427.87667350369975

>  <intra_energy>  (3) 
0.09079750048908357

>  <rmsd>  (3) 
4.12313

>  <sdf_rank>  (3) 
0

$$$$

     RDKit          3D

 24 24  0  0  0  0  0  0  0  0999 V2000
   30.5725   67.2622   14.3005 C   0  0  0  0  0  0  0  0  0  0  0  0
   31.3171   66.8742   12.9353 C   0  0  0  0  0  0  0  0  0  0  0  0
   30.5420   66.4466   11.7925 C   0  0  2  0  0  0  0  0  0  0  0  0
   28.9446   66.8378   11.9132 C   0  0  2  0  0  0  0  0  0  0  0  0
   28.3855   66.4479   13.1122 C   0  0  1  0  0  0  0  0  0  0  0  0
   29.1398   67.1000   14.4320 C   0  0  0  0  0  0  0  0  0  0  0  0
   31.4212   67.4299   15.5605 C   0  0  0  0  0  0  0  0  0  0  0  0
   30.6641   65.0551   11.6741 O   0  0  0  0  0  0  0  0  0  0  0  0
   28.2763   66.1522   10.8446 O   0  0  0  0  0  0  0  0  0  0  0  0
   27.0084   66.8625   13.1602 O   0  0  0  0  0  0  0  0  0  0  0  0
   30.8694   67.5006   16.6900 O   0  0  0  0  0  0  0  0  0  0  0  0
   32.6738   67.4980   15.4590 O   0  0  0  0  0  0  0  0  0  0  0  0
   31.3579   64.3939   10.3212 P   0  0  2  0  0  0  0  0  0  0  0  0
   31.9191   65.4716    9.4243 O   0  0  0  0  0  0  0  0  0  0  0  0
   30.2785   63.6387    9.5786 O   0  0  0  0  0  0  0  0  0  0  0  0
   32.4477   63.4834   10.8041 O   0  0  0  0  0  0  0  0  0  0  0  0
   32.4135   66.9330   12.8682 H   0  0  0  0  0  0  0  0  0  0  0  0
   30.9343   66.9686   10.9073 H   0  0  0  0  0  0  0  0  0  0  0  0
   28.8378   67.9312   11.8569 H   0  0  0  0  0  0  0  0  0  0  0  0
   28.4938   65.3541   13.1554 H   0  0  0  0  0  0  0  0  0  0  0  0
   28.9485   66.4432   15.2934 H   0  0  0  0  0  0  0  0  0  0  0  0
   28.7260   68.1119   14.5536 H   0  0  0  0  0  0  0  0  0  0  0  0
   27.6374   65.4967   11.2217 H   0  0  0  0  0  0  0  0  0  0  0  0
   26.7224   66.9486   14.1040 H   0  0  0  0  0  0  0  0  0  0  0  0
  1  2  2  0
  1  6  1  0
  1  7  1  0
  2  3  1  0
  3  4  1  0
  3  8  1  0
  4  5  1  0
  4  9  1  0
  5  6  1  0
  5 10  1  0
  7 11  1  0
  7 12  2  0
  8 13  1  0
 13 14  2  0
 13 15  1  6
 13 16  1  0
  2 17  1  0
  3 18  1  6
  4 19  1  6
  5 20  1  1
  6 21  1  0
  6 22  1  0
  9 23  1  0
 10 24  1  0
M  CHG  3  11  -1  15  -1  16  -1
M  END
>  <filename_input>  (4) 
7TBU_S3P_docked.sdf

>  <pdb_id>  (4) 
7TBU_S3P

>  <pose_rank>  (4) 
3

>  <num_atoms_heavy>  (4) 
16

>  <num_torsions>  (4) 
3

>  <pose>  (4) 
[30.572483593704362, 67.26222517147008, 14.300526203856519, 1.6524148759895307, -0.9328944709536893, -1.1644021636253472, 6.708514818578199, 0.07035360227993526, 5.361838388110174]

>  <energy>  (4) 
-91.3693188184336

>  <inter_energy>  (4) 
-91.0546668520681

>  <intra_energy>  (4) 
1.370008249793047

>  <rmsd>  (4) 
8.29672

>  <sdf_rank>  (4) 
0

$$$$

     RDKit          3D

 24 24  0  0  0  0  0  0  0  0999 V2000
   25.1606   66.2347    8.7030 C   0  0  0  0  0  0  0  0  0  0  0  0
   24.9766   67.4229    7.6432 C   0  0  0  0  0  0  0  0  0  0  0  0
   26.1289   68.1784    7.2061 C   0  0  2  0  0  0  0  0  0  0  0  0
   27.5577   67.4220    7.5309 C   0  0  2  0  0  0  0  0  0  0  0  0
   27.6592   67.0065    8.8422 C   0  0  1  0  0  0  0  0  0  0  0  0
   26.4535   65.9700    9.2984 C   0  0  0  0  0  0  0  0  0  0  0  0
   23.9074   65.6523    9.3559 C   0  0  0  0  0  0  0  0  0  0  0  0
   26.1118   69.4211    7.8546 O   0  0  0  0  0  0  0  0  0  0  0  0
   28.5936   68.3785    7.2656 O   0  0  0  0  0  0  0  0  0  0  0  0
   28.9083   66.3187    9.0354 O   0  0  0  0  0  0  0  0  0  0  0  0
   23.7023   64.4103    9.3351 O   0  0  0  0  0  0  0  0  0  0  0  0
   23.0832   66.4240    9.9120 O   0  0  0  0  0  0  0  0  0  0  0  0
   24.6793   70.2284    8.0664 P   0  0  2  0  0  0  0  0  0  0  0  0
   23.5692   69.5663    7.2850 O   0  0  0  0  0  0  0  0  0  0  0  0
   24.8727   71.6401    7.5599 O   0  0  0  0  0  0  0  0  0  0  0  0
   24.3865   70.1960    9.5372 O   0  0  0  0  0  0  0  0  0  0  0  0
   23.9776   67.6626    7.2502 H   0  0  0  0  0  0  0  0  0  0  0  0
   26.0640   68.2862    6.1134 H   0  0  0  0  0  0  0  0  0  0  0  0
   27.6353   66.5189    6.9077 H   0  0  0  0  0  0  0  0  0  0  0  0
   27.5850   67.9169    9.4550 H   0  0  0  0  0  0  0  0  0  0  0  0
   26.3450   66.0328   10.3913 H   0  0  0  0  0  0  0  0  0  0  0  0
   26.7558   64.9729    8.9458 H   0  0  0  0  0  0  0  0  0  0  0  0
   28.9586   68.7157    8.1218 H   0  0  0  0  0  0  0  0  0  0  0  0
   29.0850   66.2214   10.0046 H   0  0  0  0  0  0  0  0  0  0  0  0
  1  2  2  0
  1  6  1  0
  1  7  1  0
  2  3  1  0
  3  4  1  0
  3  8  1  0
  4  5  1  0
  4  9  1  0
  5  6  1  0
  5 10  1  0
  7 11  1  0
  7 12  2  0
  8 13  1  0
 13 14  2  0
 13 15  1  6
 13 16  1  0
  2 17  1  0
  3 18  1  6
  4 19  1  6
  5 20  1  1
  6 21  1  0
  6 22  1  0
  9 23  1  0
 10 24  1  0
M  CHG  3  11  -1  15  -1  16  -1
M  END
>  <filename_input>  (5) 
7TBU_S3P_docked.sdf

>  <pdb_id>  (5) 
7TBU_S3P

>  <pose_rank>  (5) 
4

>  <num_atoms_heavy>  (5) 
16

>  <num_torsions>  (5) 
3

>  <pose>  (5) 
[25.160581979840973, 66.23465226428432, 8.7029899251293, 1.1193532867694302, 0.9618783484634309, 1.5479976677049718, -0.707203960981576, 1.427302261817201, -1.1997354364731487]

>  <energy>  (5) 
-242.27703869333817

>  <inter_energy>  (5) 
-280.3148012821837

>  <intra_energy>  (5) 
31.75008228047022

>  <rmsd>  (5) 
5.27645

>  <sdf_rank>  (5) 
0

$$$$

     RDKit          3D

 24 24  0  0  0  0  0  0  0  0999 V2000
   24.9301   71.8658    6.0146 C   0  0  0  0  0  0  0  0  0  0  0  0
   25.7508   70.5323    5.6723 C   0  0  0  0  0  0  0  0  0  0  0  0
   25.8638   69.4858    6.6631 C   0  0  2  0  0  0  0  0  0  0  0  0
   24.7518   69.6201    7.8733 C   0  0  2  0  0  0  0  0  0  0  0  0
   24.7155   70.8808    8.4316 C   0  0  1  0  0  0  0  0  0  0  0  0
   24.3796   72.0748    7.3373 C   0  0  0  0  0  0  0  0  0  0  0  0
   25.0686   73.0586    5.0691 C   0  0  0  0  0  0  0  0  0  0  0  0
   27.1506   69.5413    7.2165 O   0  0  0  0  0  0  0  0  0  0  0  0
   25.1343   68.6759    8.8835 O   0  0  0  0  0  0  0  0  0  0  0  0
   23.6944   70.9311    9.4442 O   0  0  0  0  0  0  0  0  0  0  0  0
   24.4068   73.0975    3.9988 O   0  0  0  0  0  0  0  0  0  0  0  0
   25.8497   73.9990    5.3687 O   0  0  0  0  0  0  0  0  0  0  0  0
   28.2010   68.2759    7.0062 P   0  0  2  0  0  0  0  0  0  0  0  0
   27.9435   67.1897    8.0235 O   0  0  0  0  0  0  0  0  0  0  0  0
   29.6028   68.8118    7.1923 O   0  0  0  0  0  0  0  0  0  0  0  0
   27.9769   67.7643    5.6142 O   0  0  0  0  0  0  0  0  0  0  0  0
   26.2261   70.4139    4.6874 H   0  0  0  0  0  0  0  0  0  0  0  0
   25.6760   68.5260    6.1597 H   0  0  0  0  0  0  0  0  0  0  0  0
   23.7495   69.4290    7.4623 H   0  0  0  0  0  0  0  0  0  0  0  0
   25.7201   71.0590    8.8428 H   0  0  0  0  0  0  0  0  0  0  0  0
   24.7831   73.0201    7.7292 H   0  0  0  0  0  0  0  0  0  0  0  0
   23.2862   72.0827    7.2172 H   0  0  0  0  0  0  0  0  0  0  0  0
   24.9756   69.0678    9.7786 H   0  0  0  0  0  0  0  0  0  0  0  0
   24.1163   70.9103   10.3396 H   0  0  0  0  0  0  0  0  0  0  0  0
  1  2  2  0
  1  6  1  0
  1  7  1  0
  2  3  1  0
  3  4  1  0
  3  8  1  0
  4  5  1  0
  4  9  1  0
  5  6  1  0
  5 10  1  0
  7 11  1  0
  7 12  2  0
  8 13  1  0
 13 14  2  0
 13 15  1  6
 13 16  1  0
  2 17  1  0
  3 18  1  6
  4 19  1  6
  5 20  1  1
  6 21  1  0
  6 22  1  0
  9 23  1  0
 10 24  1  0
M  CHG  3  11  -1  15  -1  16  -1
M  END
>  <filename_input>  (6) 
7TBU_S3P_docked.sdf

>  <pdb_id>  (6) 
7TBU_S3P

>  <pose_rank>  (6) 
5

>  <num_atoms_heavy>  (6) 
16

>  <num_torsions>  (6) 
3

>  <pose>  (6) 
[24.930146871565977, 71.8657760399411, 6.014618791216609, 0.1202456006558087, -0.2255534290951205, -0.17358611933114676, -1.525414437220155, -12.463886982546875, -8.763761817659963]

>  <energy>  (6) 
-408.2232480310504

>  <inter_energy>  (6) 
-412.6200818078452

>  <intra_energy>  (6) 
1.4114456759335483

>  <rmsd>  (6) 
1.43482

>  <sdf_rank>  (6) 
0

$$$$

     RDKit          3D

 24 24  0  0  0  0  0  0  0  0999 V2000
   24.3141   71.1505    5.7321 C   0  0  0  0  0  0  0  0  0  0  0  0
   25.0344   69.7251    5.8669 C   0  0  0  0  0  0  0  0  0  0  0  0
   24.9646   69.0020    7.1166 C   0  0  2  0  0  0  0  0  0  0  0  0
   23.7699   69.5490    8.1129 C   0  0  2  0  0  0  0  0  0  0  0  0
   23.8025   70.9165    8.2898 C   0  0  1  0  0  0  0  0  0  0  0  0
   23.6737   71.7652    6.8758 C   0  0  0  0  0  0  0  0  0  0  0  0
   24.6429   72.0104    4.5121 C   0  0  0  0  0  0  0  0  0  0  0  0
   26.1987   69.1312    7.7689 O   0  0  0  0  0  0  0  0  0  0  0  0
   23.9754   68.9119    9.3819 O   0  0  0  0  0  0  0  0  0  0  0  0
   22.7073   71.3207    9.1309 O   0  0  0  0  0  0  0  0  0  0  0  0
   25.4915   71.6154    3.6700 O   0  0  0  0  0  0  0  0  0  0  0  0
   24.0602   73.1152    4.3578 O   0  0  0  0  0  0  0  0  0  0  0  0
   27.3673   67.9715    7.5738 P   0  0  2  0  0  0  0  0  0  0  0  0
   26.7467   66.6012    7.4391 O   0  0  0  0  0  0  0  0  0  0  0  0
   28.2486   68.0016    8.8023 O   0  0  0  0  0  0  0  0  0  0  0  0
   28.1249   68.3363    6.3316 O   0  0  0  0  0  0  0  0  0  0  0  0
   25.5795   69.2987    5.0119 H   0  0  0  0  0  0  0  0  0  0  0  0
   24.7328   67.9522    6.8839 H   0  0  0  0  0  0  0  0  0  0  0  0
   22.7933   69.3127    7.6653 H   0  0  0  0  0  0  0  0  0  0  0  0
   24.7802   71.1403    8.7414 H   0  0  0  0  0  0  0  0  0  0  0  0
   24.1276   72.7553    7.0297 H   0  0  0  0  0  0  0  0  0  0  0  0
   22.6001   71.8085    6.6403 H   0  0  0  0  0  0  0  0  0  0  0  0
   23.7693   69.5510   10.1093 H   0  0  0  0  0  0  0  0  0  0  0  0
   22.9680   71.2245   10.0811 H   0  0  0  0  0  0  0  0  0  0  0  0
  1  2  2  0
  1  6  1  0
  1  7  1  0
  2  3  1  0
  3  4  1  0
  3  8  1  0
  4  5  1  0
  4  9  1  0
  5  6  1  0
  5 10  1  0
  7 11  1  0
  7 12  2  0
  8 13  1  0
 13 14  2  0
 13 15  1  1
 13 16  1  0
  2 17  1  0
  3 18  1  6
  4 19  1  6
  5 20  1  1
  6 21  1  0
  6 22  1  0
  9 23  1  0
 10 24  1  0
M  CHG  3  11  -1  15  -1  16  -1
M  END
>  <filename_input>  (7) 
7TBU_S3P_docked.sdf

>  <pdb_id>  (7) 
7TBU_S3P

>  <pose_rank>  (7) 
6

>  <num_atoms_heavy>  (7) 
16

>  <num_torsions>  (7) 
3

>  <pose>  (7) 
[24.31407370104077, 71.15052838735677, 5.732074259954611, -0.16666560559185173, -0.35158756196921775, -0.2127507437404999, 9.59135285331537, 6.767040608353873, 17.213968250885927]

>  <energy>  (7) 
-326.2312860577246

>  <inter_energy>  (7) 
-321.9018195792652

>  <intra_energy>  (7) 
0.9717229484283758

>  <rmsd>  (7) 
1.75013

>  <sdf_rank>  (7) 
0

$$$$

     RDKit          3D

 24 24  0  0  0  0  0  0  0  0999 V2000
   25.2148   70.9833    4.9530 C   0  0  0  0  0  0  0  0  0  0  0  0
   25.4031   69.6109    5.7592 C   0  0  0  0  0  0  0  0  0  0  0  0
   25.0820   69.5571    7.1676 C   0  0  2  0  0  0  0  0  0  0  0  0
   24.1401   70.8164    7.6635 C   0  0  2  0  0  0  0  0  0  0  0  0
   24.6373   72.0435    7.2770 C   0  0  1  0  0  0  0  0  0  0  0  0
   24.8159   72.1941    5.6394 C   0  0  0  0  0  0  0  0  0  0  0  0
   25.8259   71.0868    3.5559 C   0  0  0  0  0  0  0  0  0  0  0  0
   26.2816   69.5702    7.8929 O   0  0  0  0  0  0  0  0  0  0  0  0
   24.1069   70.7596    9.0967 O   0  0  0  0  0  0  0  0  0  0  0  0
   23.7410   73.0844    7.7055 O   0  0  0  0  0  0  0  0  0  0  0  0
   25.8994   72.2034    2.9788 O   0  0  0  0  0  0  0  0  0  0  0  0
   26.2527   70.0479    2.9881 O   0  0  0  0  0  0  0  0  0  0  0  0
   26.8256   68.1854    8.6245 P   0  0  2  0  0  0  0  0  0  0  0  0
   26.0060   67.8697    9.8532 O   0  0  0  0  0  0  0  0  0  0  0  0
   28.2634   68.4193    9.0304 O   0  0  0  0  0  0  0  0  0  0  0  0
   26.7016   67.0903    7.6070 O   0  0  0  0  0  0  0  0  0  0  0  0
   25.7750   68.7137    5.2429 H   0  0  0  0  0  0  0  0  0  0  0  0
   24.5066   68.6366    7.3451 H   0  0  0  0  0  0  0  0  0  0  0  0
   23.1445   70.7219    7.2054 H   0  0  0  0  0  0  0  0  0  0  0  0
   25.6297   72.1289    7.7439 H   0  0  0  0  0  0  0  0  0  0  0  0
   25.5801   72.9619    5.4487 H   0  0  0  0  0  0  0  0  0  0  0  0
   23.8234   72.4579    5.2452 H   0  0  0  0  0  0  0  0  0  0  0  0
   24.5692   71.5518    9.4692 H   0  0  0  0  0  0  0  0  0  0  0  0
   23.7169   73.1124    8.6948 H   0  0  0  0  0  0  0  0  0  0  0  0
  1  2  2  0
  1  6  1  0
  1  7  1  0
  2  3  1  0
  3  4  1  0
  3  8  1  0
  4  5  1  0
  4  9  1  0
  5  6  1  0
  5 10  1  0
  7 11  1  0
  7 12  2  0
  8 13  1  0
 13 14  2  0
 13 15  1  1
 13 16  1  0
  2 17  1  0
  3 18  1  6
  4 19  1  6
  5 20  1  1
  6 21  1  0
  6 22  1  0
  9 23  1  0
 10 24  1  0
M  CHG  3  11  -1  15  -1  16  -1
M  END
>  <filename_input>  (8) 
7TBU_S3P_docked.sdf

>  <pdb_id>  (8) 
7TBU_S3P

>  <pose_rank>  (8) 
7

>  <num_atoms_heavy>  (8) 
16

>  <num_torsions>  (8) 
3

>  <pose>  (8) 
[25.214777535271285, 70.98332497628778, 4.953004494645339, -0.6556124096361616, -0.44985396080148243, -0.4800663184874686, 6.697749407221811, 6.551412705772645, 16.52863381044361]

>  <energy>  (8) 
-392.83498600434405

>  <inter_energy>  (8) 
-390.955513958005

>  <intra_energy>  (8) 
1.4145301469767246

>  <rmsd>  (8) 
2.69874

>  <sdf_rank>  (8) 
0

$$$$

     RDKit          3D

 24 24  0  0  0  0  0  0  0  0999 V2000
   25.3254   70.5701    5.8051 C   0  0  0  0  0  0  0  0  0  0  0  0
   25.7687   69.1808    6.4699 C   0  0  0  0  0  0  0  0  0  0  0  0
   25.6536   69.0012    7.8996 C   0  0  2  0  0  0  0  0  0  0  0  0
   24.6606   70.1087    8.6112 C   0  0  2  0  0  0  0  0  0  0  0  0
   24.9658   71.4072    8.2603 C   0  0  1  0  0  0  0  0  0  0  0  0
   24.8987   71.6806    6.6303 C   0  0  0  0  0  0  0  0  0  0  0  0
   25.7224   70.8319    4.3525 C   0  0  0  0  0  0  0  0  0  0  0  0
   26.9338   69.1078    8.4607 O   0  0  0  0  0  0  0  0  0  0  0  0
   24.8326   69.9580   10.0276 O   0  0  0  0  0  0  0  0  0  0  0  0
   24.0318   72.3077    8.8824 O   0  0  0  0  0  0  0  0  0  0  0  0
   25.8620   72.0125    3.9379 O   0  0  0  0  0  0  0  0  0  0  0  0
   25.9067   69.8589    3.5758 O   0  0  0  0  0  0  0  0  0  0  0  0
   27.5051   67.9146    9.4601 P   0  0  2  0  0  0  0  0  0  0  0  0
   26.3709   67.2433   10.1977 O   0  0  0  0  0  0  0  0  0  0  0  0
   28.4351   68.5644   10.4599 O   0  0  0  0  0  0  0  0  0  0  0  0
   28.2233   66.9328    8.5826 O   0  0  0  0  0  0  0  0  0  0  0  0
   26.1591   68.3672    5.8408 H   0  0  0  0  0  0  0  0  0  0  0  0
   25.2097   68.0107    8.0782 H   0  0  0  0  0  0  0  0  0  0  0  0
   23.6269   69.9282    8.2811 H   0  0  0  0  0  0  0  0  0  0  0  0
   25.9985   71.5777    8.5988 H   0  0  0  0  0  0  0  0  0  0  0  0
   25.5429   72.5425    6.4021 H   0  0  0  0  0  0  0  0  0  0  0  0
   23.8387   71.8516    6.3909 H   0  0  0  0  0  0  0  0  0  0  0  0
   24.1791   70.5306   10.5022 H   0  0  0  0  0  0  0  0  0  0  0  0
   24.1081   72.2342    9.8667 H   0  0  0  0  0  0  0  0  0  0  0  0
  1  2  2  0
  1  6  1  0
  1  7  1  0
  2  3  1  0
  3  4  1  0
  3  8  1  0
  4  5  1  0
  4  9  1  0
  5  6  1  0
  5 10  1  0
  7 11  1  0
  7 12  2  0
  8 13  1  0
 13 14  2  0
 13 15  1  1
 13 16  1  0
  2 17  1  0
  3 18  1  6
  4 19  1  1
  5 20  1  1
  6 21  1  0
  6 22  1  0
  9 23  1  0
 10 24  1  0
M  CHG  3  11  -1  15  -1  16  -1
M  END
>  <filename_input>  (9) 
7TBU_S3P_docked.sdf

>  <pdb_id>  (9) 
7TBU_S3P

>  <pose_rank>  (9) 
8

>  <num_atoms_heavy>  (9) 
16

>  <num_torsions>  (9) 
3

>  <pose>  (9) 
[25.325358957516137, 70.5701390006025, 5.805052148560067, -0.5869687999298867, -0.3380131161619987, -0.3416588484503404, 0.671493754186881, -0.10247582205619225, -1.549242766576929]

>  <energy>  (9) 
-400.64072026207157

>  <inter_energy>  (9) 
-400.77024628589226

>  <intra_energy>  (9) 
6.792641746404913

>  <rmsd>  (9) 
2.20894

>  <sdf_rank>  (9) 
0

$$$$

     RDKit          3D

 24 24  0  0  0  0  0  0  0  0999 V2000
   23.1516   68.5557   12.8062 C   0  0  0  0  0  0  0  0  0  0  0  0
   23.5171   69.0790   11.3360 C   0  0  0  0  0  0  0  0  0  0  0  0
   24.7623   69.7786   11.1130 C   0  0  2  0  0  0  0  0  0  0  0  0
   25.8528   69.5591   12.3303 C   0  0  2  0  0  0  0  0  0  0  0  0
   25.3202   69.8040   13.5788 C   0  0  1  0  0  0  0  0  0  0  0  0
   24.0105   68.8574   13.9320 C   0  0  0  0  0  0  0  0  0  0  0  0
   21.7219   68.0825   13.0668 C   0  0  0  0  0  0  0  0  0  0  0  0
   24.4823   71.1468   10.9913 O   0  0  0  0  0  0  0  0  0  0  0  0
   26.9210   70.4865   12.0912 O   0  0  0  0  0  0  0  0  0  0  0  0
   26.3150   69.5486   14.5866 O   0  0  0  0  0  0  0  0  0  0  0  0
   20.8121   68.3285   12.2319 O   0  0  0  0  0  0  0  0  0  0  0  0
   21.4623   67.4475   14.1219 O   0  0  0  0  0  0  0  0  0  0  0  0
   25.0817   72.0066    9.7067 P   0  0  2  0  0  0  0  0  0  0  0  0
   25.6417   71.0793    8.6543 O   0  0  0  0  0  0  0  0  0  0  0  0
   26.1886   72.8944   10.2295 O   0  0  0  0  0  0  0  0  0  0  0  0
   23.9361   72.8040    9.1573 O   0  0  0  0  0  0  0  0  0  0  0  0
   22.8233   68.9065   10.5000 H   0  0  0  0  0  0  0  0  0  0  0  0
   25.2165   69.3708   10.1979 H   0  0  0  0  0  0  0  0  0  0  0  0
   26.1846   68.5103   12.3300 H   0  0  0  0  0  0  0  0  0  0  0  0
   24.9964   70.8553   13.5691 H   0  0  0  0  0  0  0  0  0  0  0  0
   23.4080   69.3780   14.6909 H   0  0  0  0  0  0  0  0  0  0  0  0
   24.4125   67.8939   14.2785 H   0  0  0  0  0  0  0  0  0  0  0  0
   27.2842   70.8018   12.9566 H   0  0  0  0  0  0  0  0  0  0  0  0
   25.9100   69.6526   15.4839 H   0  0  0  0  0  0  0  0  0  0  0  0
  1  2  2  0
  1  6  1  0
  1  7  1  0
  2  3  1  0
  3  4  1  0
  3  8  1  0
  4  5  1  0
  4  9  1  0
  5  6  1  0
  5 10  1  0
  7 11  1  0
  7 12  2  0
  8 13  1  0
 13 14  2  0
 13 15  1  1
 13 16  1  0
  2 17  1  0
  3 18  1  6
  4 19  1  1
  5 20  1  6
  6 21  1  0
  6 22  1  0
  9 23  1  0
 10 24  1  0
M  CHG  3  11  -1  15  -1  16  -1
M  END
>  <filename_input>  (10) 
7TBU_S3P_docked.sdf

>  <pdb_id>  (10) 
7TBU_S3P

>  <pose_rank>  (10) 
9

>  <num_atoms_heavy>  (10) 
16

>  <num_torsions>  (10) 
3

>  <pose>  (10) 
[23.15161695332383, 68.55571271266943, 12.806169250225635, -0.8241327955488476, -2.5287643984083976, -3.631377426109292, -3.1577557296570045, -0.13948461814614632, -0.8202732226287379]

>  <energy>  (10) 
-156.56562534244054

>  <inter_energy>  (10) 
-163.26301995847737

>  <intra_energy>  (10) 
7.637436045701104

>  <rmsd>  (10) 
6.56775

>  <sdf_rank>  (10) 
0

$$$$

     RDKit          3D

 24 24  0  0  0  0  0  0  0  0999 V2000
   31.1556   66.9943    9.9355 C   0  0  0  0  0  0  0  0  0  0  0  0
   31.5301   68.1765   10.9508 C   0  0  0  0  0  0  0  0  0  0  0  0
   30.9161   68.2196   12.2587 C   0  0  2  0  0  0  0  0  0  0  0  0
   30.2325   66.7848   12.6983 C   0  0  2  0  0  0  0  0  0  0  0  0
   29.3925   66.2720   11.7321 C   0  0  1  0  0  0  0  0  0  0  0  0
   30.1394   66.0214   10.2776 C   0  0  0  0  0  0  0  0  0  0  0  0
   31.5926   67.1325    8.4774 C   0  0  0  0  0  0  0  0  0  0  0  0
   29.9269   69.2129   12.2477 O   0  0  0  0  0  0  0  0  0  0  0  0
   29.4703   67.0447   13.8858 O   0  0  0  0  0  0  0  0  0  0  0  0
   28.8725   65.0032   12.1684 O   0  0  0  0  0  0  0  0  0  0  0  0
   30.7306   67.2487    7.5671 O   0  0  0  0  0  0  0  0  0  0  0  0
   32.8191   67.1275    8.1953 O   0  0  0  0  0  0  0  0  0  0  0  0
   30.3169   70.7784   12.6297 P   0  0  2  0  0  0  0  0  0  0  0  0
   31.7870   70.9019   12.9531 O   0  0  0  0  0  0  0  0  0  0  0  0
   29.5044   71.1667   13.8446 O   0  0  0  0  0  0  0  0  0  0  0  0
   29.9646   71.6088   11.4313 O   0  0  0  0  0  0  0  0  0  0  0  0
   32.2514   68.9520   10.6535 H   0  0  0  0  0  0  0  0  0  0  0  0
   31.7061   68.4370   12.9927 H   0  0  0  0  0  0  0  0  0  0  0  0
   31.0278   66.0405   12.8512 H   0  0  0  0  0  0  0  0  0  0  0  0
   28.5999   67.0216   11.5910 H   0  0  0  0  0  0  0  0  0  0  0  0
   29.3703   66.0407    9.4914 H   0  0  0  0  0  0  0  0  0  0  0  0
   30.6559   65.0538   10.3602 H   0  0  0  0  0  0  0  0  0  0  0  0
   30.0261   66.8552   14.6828 H   0  0  0  0  0  0  0  0  0  0  0  0
   28.8606   64.9742   13.1579 H   0  0  0  0  0  0  0  0  0  0  0  0
  1  2  2  0
  1  6  1  0
  1  7  1  0
  2  3  1  0
  3  4  1  0
  3  8  1  0
  4  5  1  0
  4  9  1  0
  5  6  1  0
  5 10  1  0
  7 11  1  0
  7 12  2  0
  8 13  1  0
 13 14  2  0
 13 15  1  1
 13 16  1  0
  2 17  1  0
  3 18  1  1
  4 19  1  1
  5 20  1  6
  6 21  1  0
  6 22  1  0
  9 23  1  0
 10 24  1  0
M  CHG  3  11  -1  15  -1  16  -1
M  END
>  <filename_input>  (11) 
7TBU_S3P_docked.sdf

>  <pdb_id>  (11) 
7TBU_S3P

>  <pose_rank>  (11) 
10

>  <num_atoms_heavy>  (11) 
16

>  <num_torsions>  (11) 
3

>  <pose>  (11) 
[31.155578837815973, 66.99425712674926, 9.935463368338183, -0.5161771079328333, -1.1684822450657903, 1.7836694996497542, 1.355104923663886, -5.705097745490926, -1.029054853449571]

>  <energy>  (11) 
-136.18851138280598

>  <inter_energy>  (11) 
-130.18232019593788

>  <intra_energy>  (11) 
1.3029696964180955

>  <rmsd>  (11) 
7.27575

>  <sdf_rank>  (11) 
0

$$$$

     RDKit          3D

 24 24  0  0  0  0  0  0  0  0999 V2000
   31.3103   67.4206    8.9362 C   0  0  0  0  0  0  0  0  0  0  0  0
   29.8798   67.1229    9.5949 C   0  0  0  0  0  0  0  0  0  0  0  0
   29.3606   65.7738    9.6019 C   0  0  2  0  0  0  0  0  0  0  0  0
   30.5185   64.6352    9.3157 C   0  0  2  0  0  0  0  0  0  0  0  0
   31.2755   64.9089    8.1957 C   0  0  1  0  0  0  0  0  0  0  0  0
   32.0470   66.3705    8.2650 C   0  0  0  0  0  0  0  0  0  0  0  0
   31.6991   68.8778    8.6883 C   0  0  0  0  0  0  0  0  0  0  0  0
   28.3713   65.6782    8.6133 O   0  0  0  0  0  0  0  0  0  0  0  0
   29.8275   63.3937    9.1169 O   0  0  0  0  0  0  0  0  0  0  0  0
   32.2885   63.8991    8.0390 O   0  0  0  0  0  0  0  0  0  0  0  0
   32.8861   69.1739    8.3908 O   0  0  0  0  0  0  0  0  0  0  0  0
   30.8243   69.7774    8.7854 O   0  0  0  0  0  0  0  0  0  0  0  0
   26.7699   65.7963    9.0260 P   0  0  2  0  0  0  0  0  0  0  0  0
   26.6165   66.2590   10.4555 O   0  0  0  0  0  0  0  0  0  0  0  0
   26.1589   64.4209    8.8785 O   0  0  0  0  0  0  0  0  0  0  0  0
   26.1586   66.7855    8.0786 O   0  0  0  0  0  0  0  0  0  0  0  0
   29.2954   67.9418   10.0398 H   0  0  0  0  0  0  0  0  0  0  0  0
   28.9566   65.5755   10.6056 H   0  0  0  0  0  0  0  0  0  0  0  0
   31.2144   64.6094   10.1673 H   0  0  0  0  0  0  0  0  0  0  0  0
   30.5709   64.9278    7.3512 H   0  0  0  0  0  0  0  0  0  0  0  0
   32.2477   66.6995    7.2347 H   0  0  0  0  0  0  0  0  0  0  0  0
   32.9595   66.2083    8.8575 H   0  0  0  0  0  0  0  0  0  0  0  0
   29.6056   62.9951    9.9956 H   0  0  0  0  0  0  0  0  0  0  0  0
   32.5927   63.5958    8.9309 H   0  0  0  0  0  0  0  0  0  0  0  0
  1  2  2  0
  1  6  1  0
  1  7  1  0
  2  3  1  0
  3  4  1  0
  3  8  1  0
  4  5  1  0
  4  9  1  0
  5  6  1  0
  5 10  1  0
  7 11  1  0
  7 12  2  0
  8 13  1  0
 13 14  2  0
 13 15  1  1
 13 16  1  0
  2 17  1  0
  3 18  1  1
  4 19  1  1
  5 20  1  6
  6 21  1  0
  6 22  1  0
  9 23  1  0
 10 24  1  0
M  CHG  3  11  -1  15  -1  16  -1
M  END
>  <filename_input>  (12) 
7TBU_S3P_docked.sdf

>  <pdb_id>  (12) 
7TBU_S3P

>  <pose_rank>  (12) 
11

>  <num_atoms_heavy>  (12) 
16

>  <num_torsions>  (12) 
3

>  <pose>  (12) 
[31.31031848242645, 67.42062594676328, 8.93623184860697, 0.29148992673289703, 2.305800159861159, -1.367574616256244, -0.0043909068853530886, 0.40112642878584054, -0.8446981908284453]

>  <energy>  (12) 
-288.552742684023

>  <inter_energy>  (12) 
-281.7277513800319

>  <intra_energy>  (12) 
0.40614512021029525

>  <rmsd>  (12) 
6.66864

>  <sdf_rank>  (12) 
0

$$$$

     RDKit          3D

 24 24  0  0  0  0  0  0  0  0999 V2000
   30.0426   64.7396   10.2167 C   0  0  0  0  0  0  0  0  0  0  0  0
   29.5918   66.1964    9.7231 C   0  0  0  0  0  0  0  0  0  0  0  0
   28.2441   66.4057    9.2440 C   0  0  2  0  0  0  0  0  0  0  0  0
   27.2083   65.2004    9.6839 C   0  0  2  0  0  0  0  0  0  0  0  0
   27.6903   63.9429    9.3859 C   0  0  1  0  0  0  0  0  0  0  0  0
   29.1444   63.6101   10.1007 C   0  0  0  0  0  0  0  0  0  0  0  0
   31.5328   64.4854   10.4419 C   0  0  0  0  0  0  0  0  0  0  0  0
   28.2824   66.4877    7.8451 O   0  0  0  0  0  0  0  0  0  0  0  0
   25.9953   65.4186    8.9493 O   0  0  0  0  0  0  0  0  0  0  0  0
   26.7550   62.9476    9.8385 O   0  0  0  0  0  0  0  0  0  0  0  0
   32.1731   65.1762   11.2774 O   0  0  0  0  0  0  0  0  0  0  0  0
   32.1132   63.5823    9.7851 O   0  0  0  0  0  0  0  0  0  0  0  0
   28.2420   67.9672    7.0979 P   0  0  2  0  0  0  0  0  0  0  0  0
   29.0448   68.9833    7.8751 O   0  0  0  0  0  0  0  0  0  0  0  0
   26.7971   68.4098    7.0420 O   0  0  0  0  0  0  0  0  0  0  0  0
   28.8203   67.7677    5.7284 O   0  0  0  0  0  0  0  0  0  0  0  0
   30.3050   67.0334    9.7488 H   0  0  0  0  0  0  0  0  0  0  0  0
   27.8675   67.3341    9.6982 H   0  0  0  0  0  0  0  0  0  0  0  0
   27.0635   65.2317   10.7738 H   0  0  0  0  0  0  0  0  0  0  0  0
   27.8268   63.9216    8.2946 H   0  0  0  0  0  0  0  0  0  0  0  0
   29.6475   62.8339    9.5053 H   0  0  0  0  0  0  0  0  0  0  0  0
   28.9158   63.2926   11.1288 H   0  0  0  0  0  0  0  0  0  0  0  0
   25.2460   65.5534    9.5822 H   0  0  0  0  0  0  0  0  0  0  0  0
   26.7416   62.9333   10.8283 H   0  0  0  0  0  0  0  0  0  0  0  0
  1  2  2  0
  1  6  1  0
  1  7  1  0
  2  3  1  0
  3  4  1  0
  3  8  1  0
  4  5  1  0
  4  9  1  0
  5  6  1  0
  5 10  1  0
  7 11  1  0
  7 12  2  0
  8 13  1  0
 13 14  2  0
 13 15  1  6
 13 16  1  0
  2 17  1  0
  3 18  1  1
  4 19  1  1
  5 20  1  6
  6 21  1  0
  6 22  1  0
  9 23  1  0
 10 24  1  0
M  CHG  3  11  -1  15  -1  16  -1
M  END
>  <filename_input>  (13) 
7TBU_S3P_docked.sdf

>  <pdb_id>  (13) 
7TBU_S3P

>  <pose_rank>  (13) 
12

>  <num_atoms_heavy>  (13) 
16

>  <num_torsions>  (13) 
3

>  <pose>  (13) 
[30.0426110414369, 64.73963749662097, 10.21666770709966, 2.0542798079054947, 1.0131657855635308, -1.7990743269875082, -1.8964415570203463, 0.3768523751500245, -0.36804358045148583]

>  <energy>  (13) 
-282.62887108510745

>  <inter_energy>  (13) 
-286.23714598692027

>  <intra_energy>  (13) 
1.3428765218088308

>  <rmsd>  (13) 
6.87344

>  <sdf_rank>  (13) 
0

$$$$

     RDKit          3D

 24 24  0  0  0  0  0  0  0  0999 V2000
   28.0850   68.1827   11.9841 C   0  0  0  0  0  0  0  0  0  0  0  0
   29.3419   67.2950   11.5355 C   0  0  0  0  0  0  0  0  0  0  0  0
   30.2469   66.7764   12.5362 C   0  0  2  0  0  0  0  0  0  0  0  0
   29.6115   66.8044   14.0576 C   0  0  2  0  0  0  0  0  0  0  0  0
   29.0885   68.0342   14.3985 C   0  0  1  0  0  0  0  0  0  0  0  0
   27.8979   68.5494   13.3721 C   0  0  0  0  0  0  0  0  0  0  0  0
   27.3213   68.9469   10.9031 C   0  0  0  0  0  0  0  0  0  0  0  0
   31.4161   67.5497   12.5148 O   0  0  0  0  0  0  0  0  0  0  0  0
   30.6881   66.4933   14.9536 O   0  0  0  0  0  0  0  0  0  0  0  0
   28.5152   67.9665   15.7165 O   0  0  0  0  0  0  0  0  0  0  0  0
   26.4737   68.3519   10.1870 O   0  0  0  0  0  0  0  0  0  0  0  0
   27.5478   70.1734   10.7344 O   0  0  0  0  0  0  0  0  0  0  0  0
   32.4587   67.4444   11.2301 P   0  0  2  0  0  0  0  0  0  0  0  0
   31.8505   68.0615    9.9931 O   0  0  0  0  0  0  0  0  0  0  0  0
   32.7233   65.9771   10.9773 O   0  0  0  0  0  0  0  0  0  0  0  0
   33.7041   68.1772   11.6323 O   0  0  0  0  0  0  0  0  0  0  0  0
   29.5150   67.0813   10.4704 H   0  0  0  0  0  0  0  0  0  0  0  0
   30.4486   65.7230   12.2919 H   0  0  0  0  0  0  0  0  0  0  0  0
   28.7826   66.0834   14.1135 H   0  0  0  0  0  0  0  0  0  0  0  0
   29.9260   68.7452   14.3437 H   0  0  0  0  0  0  0  0  0  0  0  0
   27.8478   69.6467   13.4313 H   0  0  0  0  0  0  0  0  0  0  0  0
   26.9734   68.0513   13.6995 H   0  0  0  0  0  0  0  0  0  0  0  0
   30.3757   66.5835   15.8886 H   0  0  0  0  0  0  0  0  0  0  0  0
   29.2328   68.0513   16.3932 H   0  0  0  0  0  0  0  0  0  0  0  0
  1  2  2  0
  1  6  1  0
  1  7  1  0
  2  3  1  0
  3  4  1  0
  3  8  1  0
  4  5  1  0
  4  9  1  0
  5  6  1  0
  5 10  1  0
  7 11  1  0
  7 12  2  0
  8 13  1  0
 13 14  2  0
 13 15  1  6
 13 16  1  0
  2 17  1  0
  3 18  1  6
  4 19  1  6
  5 20  1  1
  6 21  1  0
  6 22  1  0
  9 23  1  0
 10 24  1  0
M  CHG  3  11  -1  15  -1  16  -1
M  END
>  <filename_input>  (14) 
7TBU_S3P_docked.sdf

>  <pdb_id>  (14) 
7TBU_S3P

>  <pose_rank>  (14) 
13

>  <num_atoms_heavy>  (14) 
16

>  <num_torsions>  (14) 
3

>  <pose>  (14) 
[28.08500660645255, 68.18268501375205, 11.98409956304977, 1.6113333485549166, -2.3325299349170385, -5.172299559036798, 4.7494060423700235, -5.385931363389032, 6.475175255230145]

>  <energy>  (14) 
-58.52543150344182

>  <inter_energy>  (14) 
-67.65442975513598

>  <intra_energy>  (14) 
9.308792402944476

>  <rmsd>  (14) 
6.45602

>  <sdf_rank>  (14) 
0

$$$$

     RDKit          3D

 24 24  0  0  0  0  0  0  0  0999 V2000
   31.3759   64.9294    9.0445 C   0  0  0  0  0  0  0  0  0  0  0  0
   29.8436   64.7635    8.6050 C   0  0  0  0  0  0  0  0  0  0  0  0
   29.1087   65.9101    8.1203 C   0  0  2  0  0  0  0  0  0  0  0  0
   30.0859   67.1590    7.6681 C   0  0  2  0  0  0  0  0  0  0  0  0
   31.0147   67.4903    8.6325 C   0  0  1  0  0  0  0  0  0  0  0  0
   32.0054   66.2332    9.0502 C   0  0  0  0  0  0  0  0  0  0  0  0
   32.0323   63.7829    9.8131 C   0  0  0  0  0  0  0  0  0  0  0  0
   28.2516   66.3464    9.1402 O   0  0  0  0  0  0  0  0  0  0  0  0
   29.2273   68.2863    7.4438 O   0  0  0  0  0  0  0  0  0  0  0  0
   31.8553   68.5529    8.1483 O   0  0  0  0  0  0  0  0  0  0  0  0
   32.1452   63.8440   11.0656 O   0  0  0  0  0  0  0  0  0  0  0  0
   32.4593   62.7800    9.1840 O   0  0  0  0  0  0  0  0  0  0  0  0
   26.6088   66.2223    8.9550 P   0  0  2  0  0  0  0  0  0  0  0  0
   25.8869   66.9546   10.0613 O   0  0  0  0  0  0  0  0  0  0  0  0
   26.2534   64.7537    9.0141 O   0  0  0  0  0  0  0  0  0  0  0  0
   26.2849   66.8239    7.6197 O   0  0  0  0  0  0  0  0  0  0  0  0
   29.3531   63.7812    8.6719 H   0  0  0  0  0  0  0  0  0  0  0  0
   28.5525   65.5972    7.2243 H   0  0  0  0  0  0  0  0  0  0  0  0
   30.6532   66.8646    6.7728 H   0  0  0  0  0  0  0  0  0  0  0  0
   30.4368   67.7869    9.5203 H   0  0  0  0  0  0  0  0  0  0  0  0
   32.3882   66.4229   10.0639 H   0  0  0  0  0  0  0  0  0  0  0  0
   32.7946   66.1967    8.2848 H   0  0  0  0  0  0  0  0  0  0  0  0
   28.9414   68.6617    8.3141 H   0  0  0  0  0  0  0  0  0  0  0  0
   32.2430   69.0430    8.9162 H   0  0  0  0  0  0  0  0  0  0  0  0
  1  2  2  0
  1  6  1  0
  1  7  1  0
  2  3  1  0
  3  4  1  0
  3  8  1  0
  4  5  1  0
  4  9  1  0
  5  6  1  0
  5 10  1  0
  7 11  1  0
  7 12  2  0
  8 13  1  0
 13 14  2  0
 13 15  1  6
 13 16  1  0
  2 17  1  0
  3 18  1  6
  4 19  1  6
  5 20  1  1
  6 21  1  0
  6 22  1  0
  9 23  1  0
 10 24  1  0
M  CHG  3  11  -1  15  -1  16  -1
M  END
>  <filename_input>  (15) 
7TBU_S3P_docked.sdf

>  <pdb_id>  (15) 
7TBU_S3P

>  <pose_rank>  (15) 
14

>  <num_atoms_heavy>  (15) 
16

>  <num_torsions>  (15) 
3

>  <pose>  (15) 
[31.375949122913116, 64.92944600533212, 9.04454229216299, -0.7824240587674138, -1.9376742954972586, -1.9271745775688414, 1.6110781709132171, 0.14698480307231196, 2.2761128411539815]

>  <energy>  (15) 
-264.71921614979334

>  <inter_energy>  (15) 
-259.6175275977974

>  <intra_energy>  (15) 
0.941428516626915

>  <rmsd>  (15) 
7.41519

>  <sdf_rank>  (15) 
0

$$$$

     RDKit          3D

 24 24  0  0  0  0  0  0  0  0999 V2000
   20.6293   63.4595    7.7211 C   0  0  0  0  0  0  0  0  0  0  0  0
   22.0040   64.1069    8.2308 C   0  0  0  0  0  0  0  0  0  0  0  0
   23.2641   63.5368    7.8105 C   0  0  2  0  0  0  0  0  0  0  0  0
   23.1201   62.5511    6.4964 C   0  0  2  0  0  0  0  0  0  0  0  0
   22.1288   61.6032    6.6424 C   0  0  1  0  0  0  0  0  0  0  0  0
   20.6334   62.2536    6.9201 C   0  0  0  0  0  0  0  0  0  0  0  0
   19.3323   63.8965    8.4016 C   0  0  0  0  0  0  0  0  0  0  0  0
   23.7916   62.7993    8.8796 O   0  0  0  0  0  0  0  0  0  0  0  0
   24.3818   61.8842    6.3483 O   0  0  0  0  0  0  0  0  0  0  0  0
   22.0345   60.8145    5.4426 O   0  0  0  0  0  0  0  0  0  0  0  0
   18.9470   65.0923    8.3201 O   0  0  0  0  0  0  0  0  0  0  0  0
   18.6552   63.0523    9.0441 O   0  0  0  0  0  0  0  0  0  0  0  0
   25.3774   62.9948    9.3218 P   0  0  2  0  0  0  0  0  0  0  0  0
   25.6336   62.3924   10.6828 O   0  0  0  0  0  0  0  0  0  0  0  0
   25.6562   64.4802    9.3731 O   0  0  0  0  0  0  0  0  0  0  0  0
   26.1992   62.3065    8.2726 O   0  0  0  0  0  0  0  0  0  0  0  0
   21.9887   64.9815    8.8978 H   0  0  0  0  0  0  0  0  0  0  0  0
   23.9262   64.3655    7.5190 H   0  0  0  0  0  0  0  0  0  0  0  0
   22.8483   63.1583    5.6205 H   0  0  0  0  0  0  0  0  0  0  0  0
   22.4131   60.9999    7.5172 H   0  0  0  0  0  0  0  0  0  0  0  0
   20.0236   61.4983    7.4374 H   0  0  0  0  0  0  0  0  0  0  0  0
   20.2343   62.5377    5.9352 H   0  0  0  0  0  0  0  0  0  0  0  0
   24.7572   61.6858    7.2426 H   0  0  0  0  0  0  0  0  0  0  0  0
   21.9206   59.8609    5.6827 H   0  0  0  0  0  0  0  0  0  0  0  0
  1  2  2  0
  1  6  1  0
  1  7  1  0
  2  3  1  0
  3  4  1  0
  3  8  1  0
  4  5  1  0
  4  9  1  0
  5  6  1  0
  5 10  1  0
  7 11  1  0
  7 12  2  0
  8 13  1  0
 13 14  2  0
 13 15  1  1
 13 16  1  0
  2 17  1  0
  3 18  1  6
  4 19  1  6
  5 20  1  1
  6 21  1  0
  6 22  1  0
  9 23  1  0
 10 24  1  0
M  CHG  3  11  -1  15  -1  16  -1
M  END
>  <filename_input>  (16) 
7TBU_S3P_docked.sdf

>  <pdb_id>  (16) 
7TBU_S3P

>  <pose_rank>  (16) 
15

>  <num_atoms_heavy>  (16) 
16

>  <num_torsions>  (16) 
3

>  <pose>  (16) 
[20.629269117357527, 63.459545637389716, 7.721145165834226, -3.343791049039586, 1.4269194609915323, -1.4270325186328245, -1.82082580884789, -0.18437576987385587, 1.8569732965727936]

>  <energy>  (16) 
-208.67990375126874

>  <inter_energy>  (16) 
-240.6104267744313

>  <intra_energy>  (16) 
22.298455178865098

>  <rmsd>  (16) 
8.11503

>  <sdf_rank>  (16) 
0

$$$$

     RDKit          3D

 24 24  0  0  0  0  0  0  0  0999 V2000
   30.2948   67.5163   10.5362 C   0  0  0  0  0  0  0  0  0  0  0  0
   28.7311   67.7700   10.2926 C   0  0  0  0  0  0  0  0  0  0  0  0
   27.7843   67.4718   11.3434 C   0  0  2  0  0  0  0  0  0  0  0  0
   28.4917   67.3183   12.8250 C   0  0  2  0  0  0  0  0  0  0  0  0
   29.5693   66.4575   12.8189 C   0  0  1  0  0  0  0  0  0  0  0  0
   30.7613   66.9042   11.7626 C   0  0  0  0  0  0  0  0  0  0  0  0
   31.2288   67.5663    9.3274 C   0  0  0  0  0  0  0  0  0  0  0  0
   27.1331   66.2728   11.0213 O   0  0  0  0  0  0  0  0  0  0  0  0
   27.4851   66.7957   13.7038 O   0  0  0  0  0  0  0  0  0  0  0  0
   30.1579   66.4115   14.1311 O   0  0  0  0  0  0  0  0  0  0  0  0
   31.2030   66.6451    8.4696 O   0  0  0  0  0  0  0  0  0  0  0  0
   32.0234   68.5338    9.1983 O   0  0  0  0  0  0  0  0  0  0  0  0
   27.0186   65.7881    9.4400 P   0  0  2  0  0  0  0  0  0  0  0  0
   28.2953   65.1181    8.9901 O   0  0  0  0  0  0  0  0  0  0  0  0
   26.7809   67.0235    8.6009 O   0  0  0  0  0  0  0  0  0  0  0  0
   25.8642   64.8330    9.3707 O   0  0  0  0  0  0  0  0  0  0  0  0
   28.3799   68.1694    9.3298 H   0  0  0  0  0  0  0  0  0  0  0  0
   27.0806   68.3146   11.4095 H   0  0  0  0  0  0  0  0  0  0  0  0
   28.8743   68.2993   13.1433 H   0  0  0  0  0  0  0  0  0  0  0  0
   29.1745   65.4802   12.5041 H   0  0  0  0  0  0  0  0  0  0  0  0
   31.3368   66.0050   11.4976 H   0  0  0  0  0  0  0  0  0  0  0  0
   31.3591   67.6692   12.2796 H   0  0  0  0  0  0  0  0  0  0  0  0
   27.7610   66.9390   14.6438 H   0  0  0  0  0  0  0  0  0  0  0  0
   29.4443   66.4673   14.8150 H   0  0  0  0  0  0  0  0  0  0  0  0
  1  2  2  0
  1  6  1  0
  1  7  1  0
  2  3  1  0
  3  4  1  0
  3  8  1  0
  4  5  1  0
  4  9  1  0
  5  6  1  0
  5 10  1  0
  7 11  1  0
  7 12  2  0
  8 13  1  0
 13 14  2  0
 13 15  1  6
 13 16  1  0
  2 17  1  0
  3 18  1  1
  4 19  1  1
  5 20  1  6
  6 21  1  0
  6 22  1  0
  9 23  1  0
 10 24  1  0
M  CHG  3  11  -1  15  -1  16  -1
M  END
>  <filename_input>  (17) 
7TBU_S3P_docked.sdf

>  <pdb_id>  (17) 
7TBU_S3P

>  <pose_rank>  (17) 
16

>  <num_atoms_heavy>  (17) 
16

>  <num_torsions>  (17) 
3

>  <pose>  (17) 
[30.294837708104392, 67.51631458348254, 10.536212890721607, -0.33256153014823453, -0.9485687989630527, 3.8258492912876525, 2.104462302804693, -4.5943734631448345, -5.8954160541907745]

>  <energy>  (17) 
-121.62507310793

>  <inter_energy>  (17) 
-148.7813545284749

>  <intra_energy>  (17) 
37.40787209358326

>  <rmsd>  (17) 
6.33909

>  <sdf_rank>  (17) 
0

$$$$

     RDKit          3D

 24 24  0  0  0  0  0  0  0  0999 V2000
   32.1038   65.6936    8.7114 C   0  0  0  0  0  0  0  0  0  0  0  0
   30.5127   65.8509    8.5990 C   0  0  0  0  0  0  0  0  0  0  0  0
   29.8371   66.8716    9.3680 C   0  0  2  0  0  0  0  0  0  0  0  0
   30.8587   68.0361    9.9330 C   0  0  2  0  0  0  0  0  0  0  0  0
   31.9567   67.5162   10.5862 C   0  0  1  0  0  0  0  0  0  0  0  0
   32.8613   66.5004    9.6450 C   0  0  0  0  0  0  0  0  0  0  0  0
   32.7466   64.4398    8.1194 C   0  0  0  0  0  0  0  0  0  0  0  0
   29.2012   66.2549   10.4546 O   0  0  0  0  0  0  0  0  0  0  0  0
   30.1003   68.8282   10.8581 O   0  0  0  0  0  0  0  0  0  0  0  0
   32.8194   68.5876   11.0083 O   0  0  0  0  0  0  0  0  0  0  0  0
   33.9626   64.1920    8.3315 O   0  0  0  0  0  0  0  0  0  0  0  0
   32.0513   63.6596    7.4180 O   0  0  0  0  0  0  0  0  0  0  0  0
   27.7499   65.4830   10.2393 P   0  0  2  0  0  0  0  0  0  0  0  0
   26.8029   65.7938   11.3741 O   0  0  0  0  0  0  0  0  0  0  0  0
   28.0245   63.9961   10.2116 O   0  0  0  0  0  0  0  0  0  0  0  0
   27.1961   65.9749    8.9350 O   0  0  0  0  0  0  0  0  0  0  0  0
   29.9372   65.1848    7.9394 H   0  0  0  0  0  0  0  0  0  0  0  0
   29.1176   67.3712    8.7026 H   0  0  0  0  0  0  0  0  0  0  0  0
   31.2446   68.6179    9.0830 H   0  0  0  0  0  0  0  0  0  0  0  0
   31.5594   66.9410   11.4356 H   0  0  0  0  0  0  0  0  0  0  0  0
   33.4157   65.8222   10.3103 H   0  0  0  0  0  0  0  0  0  0  0  0
   33.5127   67.1445    9.0361 H   0  0  0  0  0  0  0  0  0  0  0  0
   30.3421   68.5757   11.7843 H   0  0  0  0  0  0  0  0  0  0  0  0
   32.8456   68.6201   11.9974 H   0  0  0  0  0  0  0  0  0  0  0  0
  1  2  2  0
  1  6  1  0
  1  7  1  0
  2  3  1  0
  3  4  1  0
  3  8  1  0
  4  5  1  0
  4  9  1  0
  5  6  1  0
  5 10  1  0
  7 11  1  0
  7 12  2  0
  8 13  1  0
 13 14  2  0
 13 15  1  6
 13 16  1  0
  2 17  1  0
  3 18  1  6
  4 19  1  6
  5 20  1  1
  6 21  1  0
  6 22  1  0
  9 23  1  0
 10 24  1  0
M  CHG  3  11  -1  15  -1  16  -1
M  END
>  <filename_input>  (18) 
7TBU_S3P_docked.sdf

>  <pdb_id>  (18) 
7TBU_S3P

>  <pose_rank>  (18) 
17

>  <num_atoms_heavy>  (18) 
16

>  <num_torsions>  (18) 
3

>  <pose>  (18) 
[32.10376996444282, 65.69363443939635, 8.71144635090372, -0.6477496057919848, -0.7333547710743354, -2.3114987886484135, 0.36496599374394223, -5.5514602325701095, 2.849843575370301]

>  <energy>  (18) 
-166.1666729952061

>  <inter_energy>  (18) 
-162.49752898694175

>  <intra_energy>  (18) 
2.40843348398608

>  <rmsd>  (18) 
7.5527

>  <sdf_rank>  (18) 
0

$$$$

     RDKit          3D

 24 24  0  0  0  0  0  0  0  0999 V2000
   29.4992   70.4814   10.5103 C   0  0  0  0  0  0  0  0  0  0  0  0
   28.9034   69.1995    9.7548 C   0  0  0  0  0  0  0  0  0  0  0  0
   29.7598   68.4093    8.8994 C   0  0  2  0  0  0  0  0  0  0  0  0
   31.3645   68.6835    9.1620 C   0  0  2  0  0  0  0  0  0  0  0  0
   31.6892   70.0240    9.1491 C   0  0  1  0  0  0  0  0  0  0  0  0
   30.8610   70.9117   10.2726 C   0  0  0  0  0  0  0  0  0  0  0  0
   28.5168   71.4500   11.1681 C   0  0  0  0  0  0  0  0  0  0  0  0
   29.4554   68.7180    7.5663 O   0  0  0  0  0  0  0  0  0  0  0  0
   32.0686   68.0251    8.0994 O   0  0  0  0  0  0  0  0  0  0  0  0
   33.0915   70.1837    9.4290 O   0  0  0  0  0  0  0  0  0  0  0  0
   28.6395   72.6909   10.9939 O   0  0  0  0  0  0  0  0  0  0  0  0
   27.5869   70.9971   11.8852 O   0  0  0  0  0  0  0  0  0  0  0  0
   28.3026   67.8465    6.7538 P   0  0  2  0  0  0  0  0  0  0  0  0
   27.7093   66.7802    7.6437 O   0  0  0  0  0  0  0  0  0  0  0  0
   28.9777   67.1901    5.5705 O   0  0  0  0  0  0  0  0  0  0  0  0
   27.2514   68.8272    6.3260 O   0  0  0  0  0  0  0  0  0  0  0  0
   27.8471   68.9221    9.8868 H   0  0  0  0  0  0  0  0  0  0  0  0
   29.5740   67.3491    9.1266 H   0  0  0  0  0  0  0  0  0  0  0  0
   31.6350   68.3038   10.1583 H   0  0  0  0  0  0  0  0  0  0  0  0
   31.4189   70.3914    8.1481 H   0  0  0  0  0  0  0  0  0  0  0  0
   30.8336   71.9563    9.9293 H   0  0  0  0  0  0  0  0  0  0  0  0
   31.3958   70.7783   11.2245 H   0  0  0  0  0  0  0  0  0  0  0  0
   32.7355   67.4015    8.4821 H   0  0  0  0  0  0  0  0  0  0  0  0
   33.2327   70.1998   10.4087 H   0  0  0  0  0  0  0  0  0  0  0  0
  1  2  2  0
  1  6  1  0
  1  7  1  0
  2  3  1  0
  3  4  1  0
  3  8  1  0
  4  5  1  0
  4  9  1  0
  5  6  1  0
  5 10  1  0
  7 11  1  0
  7 12  2  0
  8 13  1  0
 13 14  2  0
 13 15  1  6
 13 16  1  0
  2 17  1  0
  3 18  1  6
  4 19  1  1
  5 20  1  6
  6 21  1  0
  6 22  1  0
  9 23  1  0
 10 24  1  0
M  CHG  3  11  -1  15  -1  16  -1
M  END
>  <filename_input>  (19) 
7TBU_S3P_docked.sdf

>  <pdb_id>  (19) 
7TBU_S3P

>  <pose_rank>  (19) 
18

>  <num_atoms_heavy>  (19) 
16

>  <num_torsions>  (19) 
3

>  <pose>  (19) 
[29.499166537084236, 70.48138009288577, 10.51025891596411, 0.2004293142906165, -4.33062563994729, -0.14383664297590198, 1.0234365766415476, 0.5431868677311383, -1.0246456776243704]

>  <energy>  (19) 
-250.5931225529357

>  <inter_energy>  (19) 
-235.12382453187672

>  <intra_energy>  (19) 
0.9110892758558544

>  <rmsd>  (19) 
5.46219

>  <sdf_rank>  (19) 
0

$$$$

     RDKit          3D

 24 24  0  0  0  0  0  0  0  0999 V2000
   23.8446   64.4163    8.2692 C   0  0  0  0  0  0  0  0  0  0  0  0
   22.3231   64.2655    8.7503 C   0  0  0  0  0  0  0  0  0  0  0  0
   21.4860   63.2400    8.1696 C   0  0  2  0  0  0  0  0  0  0  0  0
   22.3468   62.0669    7.3938 C   0  0  2  0  0  0  0  0  0  0  0  0
   23.2632   62.5770    6.4980 C   0  0  1  0  0  0  0  0  0  0  0  0
   24.3631   63.5984    7.1930 C   0  0  0  0  0  0  0  0  0  0  0  0
   24.6089   65.6735    8.6832 C   0  0  0  0  0  0  0  0  0  0  0  0
   20.6154   63.8487    7.2549 O   0  0  0  0  0  0  0  0  0  0  0  0
   21.3930   61.2688    6.6784 O   0  0  0  0  0  0  0  0  0  0  0  0
   24.0028   61.4989    5.8973 O   0  0  0  0  0  0  0  0  0  0  0  0
   24.2458   66.3304    9.6940 O   0  0  0  0  0  0  0  0  0  0  0  0
   25.6015   66.0463    8.0051 O   0  0  0  0  0  0  0  0  0  0  0  0
   19.0238   64.0857    7.6538 P   0  0  2  0  0  0  0  0  0  0  0  0
   18.7338   65.5540    7.8562 O   0  0  0  0  0  0  0  0  0  0  0  0
   18.7623   63.3428    8.9448 O   0  0  0  0  0  0  0  0  0  0  0  0
   18.2142   63.5357    6.5171 O   0  0  0  0  0  0  0  0  0  0  0  0
   21.9177   64.9396    9.5192 H   0  0  0  0  0  0  0  0  0  0  0  0
   20.9406   62.7490    8.9890 H   0  0  0  0  0  0  0  0  0  0  0  0
   22.9193   61.4916    8.1363 H   0  0  0  0  0  0  0  0  0  0  0  0
   22.6798   63.1456    5.7588 H   0  0  0  0  0  0  0  0  0  0  0  0
   24.7483   64.2686    6.4103 H   0  0  0  0  0  0  0  0  0  0  0  0
   25.1376   62.9578    7.6398 H   0  0  0  0  0  0  0  0  0  0  0  0
   20.8167   60.7865    7.3229 H   0  0  0  0  0  0  0  0  0  0  0  0
   24.3929   60.9303    6.6077 H   0  0  0  0  0  0  0  0  0  0  0  0
  1  2  2  0
  1  6  1  0
  1  7  1  0
  2  3  1  0
  3  4  1  0
  3  8  1  0
  4  5  1  0
  4  9  1  0
  5  6  1  0
  5 10  1  0
  7 11  1  0
  7 12  2  0
  8 13  1  0
 13 14  2  0
 13 15  1  1
 13 16  1  0
  2 17  1  0
  3 18  1  1
  4 19  1  1
  5 20  1  6
  6 21  1  0
  6 22  1  0
  9 23  1  0
 10 24  1  0
M  CHG  3  11  -1  15  -1  16  -1
M  END
>  <filename_input>  (20) 
7TBU_S3P_docked.sdf

>  <pdb_id>  (20) 
7TBU_S3P

>  <pose_rank>  (20) 
19

>  <num_atoms_heavy>  (20) 
16

>  <num_torsions>  (20) 
3

>  <pose>  (20) 
[23.844562692610214, 64.41633836160652, 8.269189720948097, -0.954438374665713, -3.103467660512988, 1.09632192962143, -2.532511796198094, -5.976819045465148, 0.8884428730742169]

>  <energy>  (20) 
-247.1761954136119

>  <inter_energy>  (20) 
-210.45341929974384

>  <intra_energy>  (20) 
0.0

>  <rmsd>  (20) 
8.58472

>  <sdf_rank>  (20) 
0

$$$$

     RDKit          3D

 24 24  0  0  0  0  0  0  0  0999 V2000
   28.6435   67.1078    9.5193 C   0  0  0  0  0  0  0  0  0  0  0  0
   29.7825   66.0625    9.9420 C   0  0  0  0  0  0  0  0  0  0  0  0
   31.1632   66.4877    9.9913 C   0  0  2  0  0  0  0  0  0  0  0  0
   31.3325   68.1275   10.0277 C   0  0  2  0  0  0  0  0  0  0  0  0
   30.6143   68.7636    9.0369 C   0  0  1  0  0  0  0  0  0  0  0  0
   28.9916   68.4478    9.0956 C   0  0  0  0  0  0  0  0  0  0  0  0
   27.2509   66.5648    9.2004 C   0  0  0  0  0  0  0  0  0  0  0  0
   31.8187   65.9854    8.8584 O   0  0  0  0  0  0  0  0  0  0  0  0
   32.7286   68.3964    9.8345 O   0  0  0  0  0  0  0  0  0  0  0  0
   30.7761   70.1879    9.1618 O   0  0  0  0  0  0  0  0  0  0  0  0
   26.6762   65.7856   10.0052 O   0  0  0  0  0  0  0  0  0  0  0  0
   26.6855   66.9015    8.1276 O   0  0  0  0  0  0  0  0  0  0  0  0
   32.7430   64.6139    8.9729 P   0  0  2  0  0  0  0  0  0  0  0  0
   33.6534   64.4785    7.7755 O   0  0  0  0  0  0  0  0  0  0  0  0
   31.8006   63.4321    9.0193 O   0  0  0  0  0  0  0  0  0  0  0  0
   33.5416   64.7436   10.2359 O   0  0  0  0  0  0  0  0  0  0  0  0
   29.5146   65.0257   10.1937 H   0  0  0  0  0  0  0  0  0  0  0  0
   31.6004   66.0991   10.9229 H   0  0  0  0  0  0  0  0  0  0  0  0
   30.9495   68.5065   10.9867 H   0  0  0  0  0  0  0  0  0  0  0  0
   31.0083   68.3808    8.0839 H   0  0  0  0  0  0  0  0  0  0  0  0
   28.5766   68.6060    8.0893 H   0  0  0  0  0  0  0  0  0  0  0  0
   28.5736   69.1276    9.8526 H   0  0  0  0  0  0  0  0  0  0  0  0
   33.1731   68.4820   10.7149 H   0  0  0  0  0  0  0  0  0  0  0  0
   30.8041   70.4340   10.1204 H   0  0  0  0  0  0  0  0  0  0  0  0
  1  2  2  0
  1  6  1  0
  1  7  1  0
  2  3  1  0
  3  4  1  0
  3  8  1  0
  4  5  1  0
  4  9  1  0
  5  6  1  0
  5 10  1  0
  7 11  1  0
  7 12  2  0
  8 13  1  0
 13 14  2  0
 13 15  1  1
 13 16  1  0
  2 17  1  0
  3 18  1  1
  4 19  1  1
  5 20  1  6
  6 21  1  0
  6 22  1  0
  9 23  1  0
 10 24  1  0
M  CHG  3  11  -1  15  -1  16  -1
M  END
>  <filename_input>  (21) 
7TBU_S3P_docked.sdf

>  <pdb_id>  (21) 
7TBU_S3P

>  <pose_rank>  (21) 
20

>  <num_atoms_heavy>  (21) 
16

>  <num_torsions>  (21) 
3

>  <pose>  (21) 
[28.64347323055892, 67.10783196571879, 9.519251422016065, 3.5938065244717516, -2.586575532698532, -0.22498637159942836, -2.0512986029383833, -5.894182267375548, 8.67811639735537]

>  <energy>  (21) 
-246.85123920159535

>  <inter_energy>  (21) 
-237.4197839195929

>  <intra_energy>  (21) 
0.7549343005589131

>  <rmsd>  (21) 
6.02734

>  <sdf_rank>  (21) 
0

$$$$

     RDKit          3D

 24 24  0  0  0  0  0  0  0  0999 V2000
   18.4815   65.3578    5.7359 C   0  0  0  0  0  0  0  0  0  0  0  0
   19.5059   64.1479    5.9721 C   0  0  0  0  0  0  0  0  0  0  0  0
   19.7002   63.6230    7.3049 C   0  0  2  0  0  0  0  0  0  0  0  0
   18.5011   64.0566    8.3505 C   0  0  2  0  0  0  0  0  0  0  0  0
   18.2470   65.4123    8.3437 C   0  0  1  0  0  0  0  0  0  0  0  0
   17.8186   65.9931    6.8553 C   0  0  0  0  0  0  0  0  0  0  0  0
   18.5115   66.0727    4.3854 C   0  0  0  0  0  0  0  0  0  0  0  0
   20.9254   64.1001    7.7912 O   0  0  0  0  0  0  0  0  0  0  0  0
   18.9456   63.6743    9.6600 O   0  0  0  0  0  0  0  0  0  0  0  0
   17.1632   65.7049    9.2436 O   0  0  0  0  0  0  0  0  0  0  0  0
   19.5526   66.6736    4.0107 O   0  0  0  0  0  0  0  0  0  0  0  0
   17.4879   66.0568    3.6533 O   0  0  0  0  0  0  0  0  0  0  0  0
   22.2910   63.1694    7.6592 P   0  0  2  0  0  0  0  0  0  0  0  0
   21.9793   61.8498    6.9938 O   0  0  0  0  0  0  0  0  0  0  0  0
   22.8049   62.9136    9.0582 O   0  0  0  0  0  0  0  0  0  0  0  0
   23.2670   63.9604    6.8397 O   0  0  0  0  0  0  0  0  0  0  0  0
   20.0587   63.7187    5.1235 H   0  0  0  0  0  0  0  0  0  0  0  0
   19.6861   62.5251    7.2380 H   0  0  0  0  0  0  0  0  0  0  0  0
   17.5666   63.5598    8.0506 H   0  0  0  0  0  0  0  0  0  0  0  0
   19.1857   65.8978    8.6490 H   0  0  0  0  0  0  0  0  0  0  0  0
   18.0552   67.0670    6.8271 H   0  0  0  0  0  0  0  0  0  0  0  0
   16.7460   65.7787    6.7390 H   0  0  0  0  0  0  0  0  0  0  0  0
   18.4020   64.1418   10.3426 H   0  0  0  0  0  0  0  0  0  0  0  0
   17.4782   65.6199   10.1783 H   0  0  0  0  0  0  0  0  0  0  0  0
  1  2  2  0
  1  6  1  0
  1  7  1  0
  2  3  1  0
  3  4  1  0
  3  8  1  0
  4  5  1  0
  4  9  1  0
  5  6  1  0
  5 10  1  0
  7 11  1  0
  7 12  2  0
  8 13  1  0
 13 14  2  0
 13 15  1  1
 13 16  1  0
  2 17  1  0
  3 18  1  6
  4 19  1  6
  5 20  1  1
  6 21  1  0
  6 22  1  0
  9 23  1  0
 10 24  1  0
M  CHG  3  11  -1  15  -1  16  -1
M  END
>  <filename_input>  (22) 
7TBU_S3P_docked.sdf

>  <pdb_id>  (22) 
7TBU_S3P

>  <pose_rank>  (22) 
21

>  <num_atoms_heavy>  (22) 
16

>  <num_torsions>  (22) 
3

>  <pose>  (22) 
[18.481533698877808, 65.3577724911247, 5.735913086625397, 4.096230664970738, 4.1970944572312945, -0.49520488809617624, -4.011932952176081, 0.45082402600522037, -1.036904678608945]

>  <energy>  (22) 
-195.3641288468044

>  <inter_energy>  (22) 
-182.36666731873305

>  <intra_energy>  (22) 
0.15803007802253724

>  <rmsd>  (22) 
8.26943

>  <sdf_rank>  (22) 
0

$$$$

     RDKit          3D

 24 24  0  0  0  0  0  0  0  0999 V2000
   29.4684   67.4846   10.4838 C   0  0  0  0  0  0  0  0  0  0  0  0
   30.4585   66.8122    9.4177 C   0  0  0  0  0  0  0  0  0  0  0  0
   30.1036   65.5517    8.8055 C   0  0  2  0  0  0  0  0  0  0  0  0
   28.5036   65.1854    8.9632 C   0  0  2  0  0  0  0  0  0  0  0  0
   28.0541   65.2916   10.2628 C   0  0  1  0  0  0  0  0  0  0  0  0
   28.2670   66.7986   10.9107 C   0  0  0  0  0  0  0  0  0  0  0  0
   29.9944   68.6528   11.3172 C   0  0  0  0  0  0  0  0  0  0  0  0
   30.8656   64.5405    9.4073 O   0  0  0  0  0  0  0  0  0  0  0  0
   28.3532   63.8260    8.5296 O   0  0  0  0  0  0  0  0  0  0  0  0
   26.6455   65.0018   10.3116 O   0  0  0  0  0  0  0  0  0  0  0  0
   29.2018   69.5338   11.7424 O   0  0  0  0  0  0  0  0  0  0  0  0
   31.2245   68.7269   11.5729 O   0  0  0  0  0  0  0  0  0  0  0  0
   32.1714   63.8991    8.6123 P   0  0  2  0  0  0  0  0  0  0  0  0
   33.4601   64.2807    9.3012 O   0  0  0  0  0  0  0  0  0  0  0  0
   32.1708   64.4609    7.2083 O   0  0  0  0  0  0  0  0  0  0  0  0
   31.9849   62.4108    8.6204 O   0  0  0  0  0  0  0  0  0  0  0  0
   31.4041   67.3078    9.1530 H   0  0  0  0  0  0  0  0  0  0  0  0
   30.3096   65.6328    7.7280 H   0  0  0  0  0  0  0  0  0  0  0  0
   27.9125   65.8958    8.3666 H   0  0  0  0  0  0  0  0  0  0  0  0
   28.6482   64.5747   10.8483 H   0  0  0  0  0  0  0  0  0  0  0  0
   28.3028   66.6973   12.0054 H   0  0  0  0  0  0  0  0  0  0  0  0
   27.4228   67.4078   10.5555 H   0  0  0  0  0  0  0  0  0  0  0  0
   28.2875   63.2330    9.3196 H   0  0  0  0  0  0  0  0  0  0  0  0
   26.3535   64.9417   11.2556 H   0  0  0  0  0  0  0  0  0  0  0  0
  1  2  2  0
  1  6  1  0
  1  7  1  0
  2  3  1  0
  3  4  1  0
  3  8  1  0
  4  5  1  0
  4  9  1  0
  5  6  1  0
  5 10  1  0
  7 11  1  0
  7 12  2  0
  8 13  1  0
 13 14  2  0
 13 15  1  6
 13 16  1  0
  2 17  1  0
  3 18  1  6
  4 19  1  6
  5 20  1  1
  6 21  1  0
  6 22  1  0
  9 23  1  0
 10 24  1  0
M  CHG  3  11  -1  15  -1  16  -1
M  END
>  <filename_input>  (23) 
7TBU_S3P_docked.sdf

>  <pdb_id>  (23) 
7TBU_S3P

>  <pose_rank>  (23) 
22

>  <num_atoms_heavy>  (23) 
16

>  <num_torsions>  (23) 
3

>  <pose>  (23) 
[29.468436461438685, 67.4845872414968, 10.483786077563758, -3.937993961065341, 2.130549753191989, 1.562645437119085, -0.28936459462273684, 0.319905765871324, -5.363817228618525]

>  <energy>  (23) 
-190.40394867881284

>  <inter_energy>  (23) 
-186.8682894409944

>  <intra_energy>  (23) 
0.0

>  <rmsd>  (23) 
6.28232

>  <sdf_rank>  (23) 
0

$$$$

     RDKit          3D

 24 24  0  0  0  0  0  0  0  0999 V2000
   33.6958   68.5755    9.6128 C   0  0  0  0  0  0  0  0  0  0  0  0
   32.6194   68.3818    8.4411 C   0  0  0  0  0  0  0  0  0  0  0  0
   31.2668   68.8574    8.6245 C   0  0  2  0  0  0  0  0  0  0  0  0
   31.1250   69.9389    9.8611 C   0  0  2  0  0  0  0  0  0  0  0  0
   31.6958   69.4910   11.0342 C   0  0  1  0  0  0  0  0  0  0  0  0
   33.3052   69.1373   10.8887 C   0  0  0  0  0  0  0  0  0  0  0  0
   35.0187   67.8174    9.5072 C   0  0  0  0  0  0  0  0  0  0  0  0
   30.4440   67.7530    8.8864 O   0  0  0  0  0  0  0  0  0  0  0  0
   29.7192   70.1319   10.0732 O   0  0  0  0  0  0  0  0  0  0  0  0
   31.5720   70.5037   12.0488 O   0  0  0  0  0  0  0  0  0  0  0  0
   36.1055   68.4048    9.7500 O   0  0  0  0  0  0  0  0  0  0  0  0
   35.0121   66.6036    9.1745 O   0  0  0  0  0  0  0  0  0  0  0  0
   29.1518   67.4269    7.9002 P   0  0  2  0  0  0  0  0  0  0  0  0
   28.5757   68.7016    7.3309 O   0  0  0  0  0  0  0  0  0  0  0  0
   28.1010   66.7358    8.7399 O   0  0  0  0  0  0  0  0  0  0  0  0
   29.6660   66.5404    6.8050 O   0  0  0  0  0  0  0  0  0  0  0  0
   32.9089   67.8889    7.5012 H   0  0  0  0  0  0  0  0  0  0  0  0
   30.9681   69.3810    7.7044 H   0  0  0  0  0  0  0  0  0  0  0  0
   31.6510   70.8659    9.5891 H   0  0  0  0  0  0  0  0  0  0  0  0
   31.1598   68.5675   11.2985 H   0  0  0  0  0  0  0  0  0  0  0  0
   33.5679   68.4139   11.6747 H   0  0  0  0  0  0  0  0  0  0  0  0
   33.8395   70.0945   10.9793 H   0  0  0  0  0  0  0  0  0  0  0  0
   29.5325   70.1576   11.0451 H   0  0  0  0  0  0  0  0  0  0  0  0
   31.6235   70.0826   12.9433 H   0  0  0  0  0  0  0  0  0  0  0  0
  1  2  2  0
  1  6  1  0
  1  7  1  0
  2  3  1  0
  3  4  1  0
  3  8  1  0
  4  5  1  0
  4  9  1  0
  5  6  1  0
  5 10  1  0
  7 11  1  0
  7 12  2  0
  8 13  1  0
 13 14  2  0
 13 15  1  1
 13 16  1  0
  2 17  1  0
  3 18  1  6
  4 19  1  6
  5 20  1  1
  6 21  1  0
  6 22  1  0
  9 23  1  0
 10 24  1  0
M  CHG  3  11  -1  15  -1  16  -1
M  END
>  <filename_input>  (24) 
7TBU_S3P_docked.sdf

>  <pdb_id>  (24) 
7TBU_S3P

>  <pose_rank>  (24) 
23

>  <num_atoms_heavy>  (24) 
16

>  <num_torsions>  (24) 
3

>  <pose>  (24) 
[33.695794492124826, 68.57548008833595, 9.61276424339495, -0.7681562246596922, 1.2348727090875165, 3.62652455214882, 5.707553040424068, -6.283582383478946, -7.862988450179194]

>  <energy>  (24) 
-214.9860930378956

>  <inter_energy>  (24) 
-212.37585348821003

>  <intra_energy>  (24) 
2.7376153471153613

>  <rmsd>  (24) 
7.46988

>  <sdf_rank>  (24) 
0

$$$$

     RDKit          3D

 24 24  0  0  0  0  0  0  0  0999 V2000
   22.2193   62.3853    5.8198 C   0  0  0  0  0  0  0  0  0  0  0  0
   20.7054   62.9109    5.7926 C   0  0  0  0  0  0  0  0  0  0  0  0
   20.1987   63.6946    6.8965 C   0  0  2  0  0  0  0  0  0  0  0  0
   21.3932   64.3191    7.8464 C   0  0  2  0  0  0  0  0  0  0  0  0
   22.3136   63.3717    8.2439 C   0  0  1  0  0  0  0  0  0  0  0  0
   23.0570   62.6068    6.9796 C   0  0  0  0  0  0  0  0  0  0  0  0
   22.6340   61.3324    4.7924 C   0  0  0  0  0  0  0  0  0  0  0  0
   19.3756   62.8723    7.6785 O   0  0  0  0  0  0  0  0  0  0  0  0
   20.7482   64.8563    9.0100 O   0  0  0  0  0  0  0  0  0  0  0  0
   23.3440   63.9990    9.0281 O   0  0  0  0  0  0  0  0  0  0  0  0
   23.4012   61.6423    3.8434 O   0  0  0  0  0  0  0  0  0  0  0  0
   22.2014   60.1556    4.9024 O   0  0  0  0  0  0  0  0  0  0  0  0
   17.7266   62.9777    7.5434 P   0  0  2  0  0  0  0  0  0  0  0  0
   17.2653   62.4777    6.1950 O   0  0  0  0  0  0  0  0  0  0  0  0
   17.3497   64.4347    7.6909 O   0  0  0  0  0  0  0  0  0  0  0  0
   17.1551   62.1367    8.6461 O   0  0  0  0  0  0  0  0  0  0  0  0
   20.0545   62.6761    4.9374 H   0  0  0  0  0  0  0  0  0  0  0  0
   19.6447   64.5468    6.4759 H   0  0  0  0  0  0  0  0  0  0  0  0
   21.9484   65.0762    7.2734 H   0  0  0  0  0  0  0  0  0  0  0  0
   21.7487   62.6233    8.8190 H   0  0  0  0  0  0  0  0  0  0  0  0
   23.4136   61.6287    7.3347 H   0  0  0  0  0  0  0  0  0  0  0  0
   23.8672   63.2742    6.6504 H   0  0  0  0  0  0  0  0  0  0  0  0
   21.1814   64.4955    9.8237 H   0  0  0  0  0  0  0  0  0  0  0  0
   23.1458   63.8783    9.9905 H   0  0  0  0  0  0  0  0  0  0  0  0
  1  2  2  0
  1  6  1  0
  1  7  1  0
  2  3  1  0
  3  4  1  0
  3  8  1  0
  4  5  1  0
  4  9  1  0
  5  6  1  0
  5 10  1  0
  7 11  1  0
  7 12  2  0
  8 13  1  0
 13 14  2  0
 13 15  1  1
 13 16  1  0
  2 17  1  0
  3 18  1  6
  4 19  1  6
  5 20  1  1
  6 21  1  0
  6 22  1  0
  9 23  1  0
 10 24  1  0
M  CHG  3  11  -1  15  -1  16  -1
M  END
>  <filename_input>  (25) 
7TBU_S3P_docked.sdf

>  <pdb_id>  (25) 
7TBU_S3P

>  <pose_rank>  (25) 
24

>  <num_atoms_heavy>  (25) 
16

>  <num_torsions>  (25) 
3

>  <pose>  (25) 
[22.219257794811302, 62.385266245074504, 5.819759291461645, 0.74089242856686, 0.30984920656629167, 3.5612458101409885, -1.035443371146968, 6.635859435099916, 0.15693986036534877]

>  <energy>  (25) 
-209.52143791963766

>  <inter_energy>  (25) 
-197.4927399913613

>  <intra_energy>  (25) 
0.3594769702029099

>  <rmsd>  (25) 
9.83296

>  <sdf_rank>  (25) 
0

$$$$

     RDKit          3D

 24 24  0  0  0  0  0  0  0  0999 V2000
   24.8790   70.5660    6.5380 C   0  0  0  0  0  0  0  0  0  0  0  0
   25.8400   69.3440    6.1480 C   0  0  0  0  0  0  0  0  0  0  0  0
   26.3510   68.4750    7.1840 C   0  0  2  0  0  0  0  0  0  0  0  0
   25.5150   68.5980    8.6000 C   0  0  2  0  0  0  0  0  0  0  0  0
   25.3660   69.9020    9.0240 C   0  0  1  0  0  0  0  0  0  0  0  0
   24.5920   70.8660    7.9250 C   0  0  0  0  0  0  0  0  0  0  0  0
   24.5920   71.6240    5.4730 C   0  0  0  0  0  0  0  0  0  0  0  0
   27.6930   68.8080    7.4150 O   0  0  0  0  0  0  0  0  0  0  0  0
   26.2700   67.8740    9.5820 O   0  0  0  0  0  0  0  0  0  0  0  0
   24.5910   69.9300   10.2360 O   0  0  0  0  0  0  0  0  0  0  0  0
   23.6780   72.4710    5.6530 O   0  0  0  0  0  0  0  0  0  0  0  0
   25.2750   71.6400    4.4160 O   0  0  0  0  0  0  0  0  0  0  0  0
   28.8770   67.6620    7.2320 P   0  0  2  0  0  0  0  0  0  0  0  0
   28.8800   67.1130    5.8250 O   0  0  0  0  0  0  0  0  0  0  0  0
   28.5810   66.5420    8.2040 O   0  0  0  0  0  0  0  0  0  0  0  0
   30.1780   68.3420    7.5400 O   0  0  0  0  0  0  0  0  0  0  0  0
   26.1096   69.1673    5.0963 H   0  0  0  0  0  0  0  0  0  0  0  0
   26.2410   67.4375    6.8355 H   0  0  0  0  0  0  0  0  0  0  0  0
   24.5013   68.1967    8.4541 H   0  0  0  0  0  0  0  0  0  0  0  0
   26.3844   70.2910    9.1708 H   0  0  0  0  0  0  0  0  0  0  0  0
   24.8880   71.9079    8.1170 H   0  0  0  0  0  0  0  0  0  0  0  0
   23.5157   70.6851    8.0620 H   0  0  0  0  0  0  0  0  0  0  0  0
   25.9826   68.1496   10.4884 H   0  0  0  0  0  0  0  0  0  0  0  0
   25.1990   69.9080   11.0170 H   0  0  0  0  0  0  0  0  0  0  0  0
  1  2  2  0
  1  6  1  0
  1  7  1  0
  2  3  1  0
  3  4  1  0
  3  8  1  0
  4  5  1  0
  4  9  1  0
  5  6  1  0
  5 10  1  0
  7 11  1  0
  7 12  2  0
  8 13  1  0
 13 14  2  0
 13 15  1  1
 13 16  1  0
  2 17  1  0
  3 18  1  6
  4 19  1  6
  5 20  1  1
  6 21  1  0
  6 22  1  0
  9 23  1  0
 10 24  1  0
M  CHG  3  11  -1  15  -1  16  -1
M  END
>  <filename_input>  (26) 
7TBU_S3P_docked.sdf

>  <pdb_id>  (26) 
7TBU_S3P

>  <pose_rank>  (26) 
25

>  <num_atoms_heavy>  (26) 
16

>  <num_torsions>  (26) 
3

>  <pose>  (26) 
[24.879, 70.566, 6.538, 1e-06, 1e-06, 1e-06, 0.0, 0.0, 0.0]

>  <energy>  (26) 
-454.4286145224431

>  <inter_energy>  (26) 
-458.3967652540996

>  <intra_energy>  (26) 
7.160579710890612

>  <rmsd>  (26) 
0.0

>  <sdf_rank>  (26) 
0

$$$$
