
     RDKit          3D

 53 54  0  0  0  0  0  0  0  0999 V2000
  -62.6764  -54.3443   34.9752 C   0  0  0  0  0  0  0  0  0  0  0  0
  -60.0619  -56.7749   35.9117 C   0  0  0  0  0  0  0  0  0  0  0  0
  -62.0403  -58.2183   35.9417 C   0  0  0  0  0  0  0  0  0  0  0  0
  -64.5527  -56.6648   40.1627 C   0  0  0  0  0  0  0  0  0  0  0  0
  -62.9322  -54.7951   33.7324 C   0  0  0  0  0  0  0  0  0  0  0  0
  -63.2630  -55.1093   36.1723 C   0  0  1  0  0  0  0  0  0  0  0  0
  -62.1717  -55.8236   37.0163 C   0  0  1  0  0  0  0  0  0  0  0  0
  -64.0337  -54.1254   37.0952 C   0  0  0  0  0  0  0  0  0  0  0  0
  -64.7660  -54.8758   38.2533 C   0  0  0  0  0  0  0  0  0  0  0  0
  -62.7204  -56.4114   38.3260 C   0  0  0  0  0  0  0  0  0  0  0  0
  -61.4348  -56.9585   36.2940 C   0  0  0  0  0  0  0  0  0  0  0  0
  -63.8934  -55.9490   38.9468 C   0  0  0  0  0  0  0  0  0  0  0  0
  -59.9542  -59.0464   34.9185 C   0  0  0  0  0  0  0  0  0  0  0  0
  -59.3481  -57.8017   35.2451 C   0  0  0  0  0  0  0  0  0  0  0  0
  -61.3149  -59.2459   35.2774 C   0  0  0  0  0  0  0  0  0  0  0  0
  -59.1320  -60.1678   34.1915 C   0  0  0  0  0  0  0  0  0  0  0  0
  -61.8087  -53.1079   35.1693 C   0  0  0  0  0  0  0  0  0  0  0  0
  -58.7506  -59.8324   32.7275 C   0  0  0  0  0  0  0  0  0  0  0  0
  -57.3075  -59.3106   32.5497 C   0  0  0  0  0  0  0  0  0  0  0  0
  -57.0250  -58.4613   31.2808 C   0  0  0  0  0  0  0  0  0  0  0  0
  -57.2930  -59.2636   29.9867 C   0  0  0  0  0  0  0  0  0  0  0  0
  -59.4735  -55.5489   36.2355 O   0  0  0  0  0  0  0  0  0  0  0  0
  -63.3617  -58.4101   36.3028 O   0  0  0  0  0  0  0  0  0  0  0  0
  -64.1594  -56.2378   41.0970 H   0  0  0  0  0  0  0  0  0  0  0  0
  -65.6429  -56.5227   40.1249 H   0  0  0  0  0  0  0  0  0  0  0  0
  -64.3216  -57.7396   40.1249 H   0  0  0  0  0  0  0  0  0  0  0  0
  -63.4743  -55.7503   33.7932 H   0  0  0  0  0  0  0  0  0  0  0  0
  -63.5467  -54.0583   33.1944 H   0  0  0  0  0  0  0  0  0  0  0  0
  -61.9845  -54.9450   33.1944 H   0  0  0  0  0  0  0  0  0  0  0  0
  -63.9355  -55.8771   35.7622 H   0  0  0  0  0  0  0  0  0  0  0  0
  -61.4598  -55.0090   37.2155 H   0  0  0  0  0  0  0  0  0  0  0  0
  -63.3198  -53.4097   37.5290 H   0  0  0  0  0  0  0  0  0  0  0  0
  -64.7909  -53.6069   36.4887 H   0  0  0  0  0  0  0  0  0  0  0  0
  -65.0722  -54.1362   39.0077 H   0  0  0  0  0  0  0  0  0  0  0  0
  -65.6245  -55.3984   37.8063 H   0  0  0  0  0  0  0  0  0  0  0  0
  -62.1674  -57.2351   38.8012 H   0  0  0  0  0  0  0  0  0  0  0  0
  -58.2961  -57.6314   34.9726 H   0  0  0  0  0  0  0  0  0  0  0  0
  -61.8094  -60.1995   35.0403 H   0  0  0  0  0  0  0  0  0  0  0  0
  -58.2049  -60.3375   34.7587 H   0  0  0  0  0  0  0  0  0  0  0  0
  -59.7787  -61.0568   34.1525 H   0  0  0  0  0  0  0  0  0  0  0  0
  -61.5981  -52.7375   36.1834 H   0  0  0  0  0  0  0  0  0  0  0  0
  -61.3926  -52.5853   34.2954 H   0  0  0  0  0  0  0  0  0  0  0  0
  -58.8634  -60.7454   32.1244 H   0  0  0  0  0  0  0  0  0  0  0  0
  -59.4205  -59.0216   32.4054 H   0  0  0  0  0  0  0  0  0  0  0  0
  -57.0667  -58.6909   33.4261 H   0  0  0  0  0  0  0  0  0  0  0  0
  -56.6857  -60.2112   32.4394 H   0  0  0  0  0  0  0  0  0  0  0  0
  -57.6762  -57.5749   31.2925 H   0  0  0  0  0  0  0  0  0  0  0  0
  -55.9642  -58.1702   31.2913 H   0  0  0  0  0  0  0  0  0  0  0  0
  -57.6317  -60.2772   30.2471 H   0  0  0  0  0  0  0  0  0  0  0  0
  -58.0709  -58.7576   29.3960 H   0  0  0  0  0  0  0  0  0  0  0  0
  -56.3672  -59.3268   29.3960 H   0  0  0  0  0  0  0  0  0  0  0  0
  -58.5297  -55.3736   35.9935 H   0  0  0  0  0  0  0  0  0  0  0  0
  -63.8171  -59.2606   36.0806 H   0  0  0  0  0  0  0  0  0  0  0  0
  1  5  1  0
  6  1  1  0
  1 17  2  0
  2 11  2  0
  2 14  1  0
  2 22  1  0
  3 11  1  0
  3 15  2  0
  3 23  1  0
  4 12  1  0
  6  7  1  0
  6  8  1  0
  7 10  1  0
  7 11  1  0
  8  9  1  0
  9 12  1  0
 10 12  2  0
 13 14  2  0
 13 15  1  0
 13 16  1  0
 16 18  1  0
 18 19  1  0
 19 20  1  0
 20 21  1  0
  4 24  1  0
  4 25  1  0
  4 26  1  0
  5 27  1  0
  5 28  1  0
  5 29  1  0
  6 30  1  6
  7 31  1  1
  8 32  1  0
  8 33  1  0
  9 34  1  0
  9 35  1  0
 10 36  1  0
 14 37  1  0
 15 38  1  0
 16 39  1  0
 16 40  1  0
 17 41  1  0
 17 42  1  0
 18 43  1  0
 18 44  1  0
 19 45  1  0
 19 46  1  0
 20 47  1  0
 20 48  1  0
 21 49  1  0
 21 50  1  0
 21 51  1  0
 22 52  1  0
 23 53  1  0
M  END
>  <filename_input>  (1) 
7TE8_P0T_docked.sdf

>  <pdb_id>  (1) 
7TE8_P0T

>  <pose_rank>  (1) 
0

>  <num_atoms_heavy>  (1) 
23

>  <num_torsions>  (1) 
6

>  <pose>  (1) 
[-60.06186642260367, -56.77493792732121, 35.91167523801171, -1.0457747263739896, -5.015294249754159, -3.3103883373720717, -12.776362994709093, 0.13064657823656975, -0.6501450558332815, -2.6385547966692227, 0.536942567722145, -5.303884432292143]

>  <energy>  (1) 
-818.8341258263824

>  <inter_energy>  (1) 
-812.4763996978605

>  <intra_energy>  (1) 
17.91232785852996

>  <rmsd>  (1) 
0.638759

>  <sdf_rank>  (1) 
0

$$$$

     RDKit          3D

 53 54  0  0  0  0  0  0  0  0999 V2000
  -62.9308  -54.1233   34.9229 C   0  0  0  0  0  0  0  0  0  0  0  0
  -62.1475  -57.7354   35.4355 C   0  0  0  0  0  0  0  0  0  0  0  0
  -60.0132  -56.6871   36.0221 C   0  0  0  0  0  0  0  0  0  0  0  0
  -64.4746  -56.7673   40.0651 C   0  0  0  0  0  0  0  0  0  0  0  0
  -62.0897  -53.1009   35.1687 C   0  0  0  0  0  0  0  0  0  0  0  0
  -63.4221  -54.9743   36.1048 C   0  0  1  0  0  0  0  0  0  0  0  0
  -62.2552  -55.6289   36.8942 C   0  0  1  0  0  0  0  0  0  0  0  0
  -64.2419  -54.0879   37.0827 C   0  0  0  0  0  0  0  0  0  0  0  0
  -64.8806  -54.9346   38.2298 C   0  0  0  0  0  0  0  0  0  0  0  0
  -62.7195  -56.3043   38.1942 C   0  0  0  0  0  0  0  0  0  0  0  0
  -61.4518  -56.6755   36.1119 C   0  0  0  0  0  0  0  0  0  0  0  0
  -63.9075  -55.9588   38.8608 C   0  0  0  0  0  0  0  0  0  0  0  0
  -60.0199  -58.7079   34.6077 C   0  0  0  0  0  0  0  0  0  0  0  0
  -61.4393  -58.7188   34.7011 C   0  0  0  0  0  0  0  0  0  0  0  0
  -59.3103  -57.6749   35.2780 C   0  0  0  0  0  0  0  0  0  0  0  0
  -59.2667  -59.8042   33.7754 C   0  0  0  0  0  0  0  0  0  0  0  0
  -63.3854  -54.4047   33.4970 C   0  0  0  0  0  0  0  0  0  0  0  0
  -59.0596  -59.4427   32.2828 C   0  0  0  0  0  0  0  0  0  0  0  0
  -57.9129  -58.4405   32.0242 C   0  0  0  0  0  0  0  0  0  0  0  0
  -56.6602  -58.9893   31.2889 C   0  0  0  0  0  0  0  0  0  0  0  0
  -56.0838  -60.2364   31.9980 C   0  0  0  0  0  0  0  0  0  0  0  0
  -63.5420  -57.7397   35.5325 O   0  0  0  0  0  0  0  0  0  0  0  0
  -59.3291  -55.6732   36.6682 O   0  0  0  0  0  0  0  0  0  0  0  0
  -64.1476  -56.3011   41.0062 H   0  0  0  0  0  0  0  0  0  0  0  0
  -65.5737  -56.7701   40.0198 H   0  0  0  0  0  0  0  0  0  0  0  0
  -64.1031  -57.8017   40.0198 H   0  0  0  0  0  0  0  0  0  0  0  0
  -61.9810  -52.9687   36.2553 H   0  0  0  0  0  0  0  0  0  0  0  0
  -61.1070  -53.3200   34.7258 H   0  0  0  0  0  0  0  0  0  0  0  0
  -62.4942  -52.1788   34.7258 H   0  0  0  0  0  0  0  0  0  0  0  0
  -64.0435  -55.7782   35.6831 H   0  0  0  0  0  0  0  0  0  0  0  0
  -61.6042  -54.7679   37.1059 H   0  0  0  0  0  0  0  0  0  0  0  0
  -63.5746  -53.3335   37.5251 H   0  0  0  0  0  0  0  0  0  0  0  0
  -65.0540  -53.6102   36.5150 H   0  0  0  0  0  0  0  0  0  0  0  0
  -65.2229  -54.2487   39.0187 H   0  0  0  0  0  0  0  0  0  0  0  0
  -65.7075  -55.5076   37.7850 H   0  0  0  0  0  0  0  0  0  0  0  0
  -62.0906  -57.0977   38.6244 H   0  0  0  0  0  0  0  0  0  0  0  0
  -62.0028  -59.5127   34.1890 H   0  0  0  0  0  0  0  0  0  0  0  0
  -58.2123  -57.6392   35.2212 H   0  0  0  0  0  0  0  0  0  0  0  0
  -58.2784  -59.9641   34.2313 H   0  0  0  0  0  0  0  0  0  0  0  0
  -59.8984  -60.7045   33.7964 H   0  0  0  0  0  0  0  0  0  0  0  0
  -64.0725  -55.2393   33.2933 H   0  0  0  0  0  0  0  0  0  0  0  0
  -63.0267  -53.7734   32.6707 H   0  0  0  0  0  0  0  0  0  0  0  0
  -58.8385  -60.3687   31.7316 H   0  0  0  0  0  0  0  0  0  0  0  0
  -59.9860  -58.9550   31.9455 H   0  0  0  0  0  0  0  0  0  0  0  0
  -58.3201  -57.6166   31.4197 H   0  0  0  0  0  0  0  0  0  0  0  0
  -57.5563  -58.1451   33.0221 H   0  0  0  0  0  0  0  0  0  0  0  0
  -56.9407  -59.2613   30.2606 H   0  0  0  0  0  0  0  0  0  0  0  0
  -55.8889  -58.2051   31.2918 H   0  0  0  0  0  0  0  0  0  0  0  0
  -56.1467  -60.1004   33.0878 H   0  0  0  0  0  0  0  0  0  0  0  0
  -56.6626  -61.1249   31.7054 H   0  0  0  0  0  0  0  0  0  0  0  0
  -55.0320  -60.3713   31.7054 H   0  0  0  0  0  0  0  0  0  0  0  0
  -64.0672  -58.4491   35.0841 H   0  0  0  0  0  0  0  0  0  0  0  0
  -58.3402  -55.6425   36.6326 H   0  0  0  0  0  0  0  0  0  0  0  0
  1  5  1  0
  6  1  1  0
  1 17  2  0
  2 11  2  0
  2 14  1  0
  2 22  1  0
  3 11  1  0
  3 15  2  0
  3 23  1  0
  4 12  1  0
  6  7  1  0
  6  8  1  0
  7 10  1  0
  7 11  1  0
  8  9  1  0
  9 12  1  0
 10 12  2  0
 13 14  2  0
 13 15  1  0
 13 16  1  0
 16 18  1  0
 18 19  1  0
 19 20  1  0
 20 21  1  0
  4 24  1  0
  4 25  1  0
  4 26  1  0
  5 27  1  0
  5 28  1  0
  5 29  1  0
  6 30  1  6
  7 31  1  1
  8 32  1  0
  8 33  1  0
  9 34  1  0
  9 35  1  0
 10 36  1  0
 14 37  1  0
 15 38  1  0
 16 39  1  0
 16 40  1  0
 17 41  1  0
 17 42  1  0
 18 43  1  0
 18 44  1  0
 19 45  1  0
 19 46  1  0
 20 47  1  0
 20 48  1  0
 21 49  1  0
 21 50  1  0
 21 51  1  0
 22 52  1  0
 23 53  1  0
M  END
>  <filename_input>  (2) 
7TE8_P0T_docked.sdf

>  <pdb_id>  (2) 
7TE8_P0T

>  <pose_rank>  (2) 
1

>  <num_atoms_heavy>  (2) 
23

>  <num_torsions>  (2) 
6

>  <pose>  (2) 
[-62.147476888959964, -57.735425252387316, 35.43547824177959, -1.463061905977568, 2.2222702287636875, 1.3354443331386734, 3.2772582256267095, -2.83216724925745, -4.1802244497781205, -3.0137042283585918, -1.0600161028333404, 1.0972948124762607]

>  <energy>  (2) 
-786.2243741734713

>  <inter_energy>  (2) 
-792.9634750665816

>  <intra_energy>  (2) 
26.11676285234531

>  <rmsd>  (2) 
0.985491

>  <sdf_rank>  (2) 
0

$$$$

     RDKit          3D

 53 54  0  0  0  0  0  0  0  0999 V2000
  -60.5759  -60.2198   35.4163 C   0  0  0  0  0  0  0  0  0  0  0  0
  -61.5874  -57.0317   34.3605 C   0  0  0  0  0  0  0  0  0  0  0  0
  -60.1651  -56.0749   36.1098 C   0  0  0  0  0  0  0  0  0  0  0  0
  -56.9922  -57.5572   31.4309 C   0  0  0  0  0  0  0  0  0  0  0  0
  -59.8341  -60.8491   36.3473 C   0  0  0  0  0  0  0  0  0  0  0  0
  -59.8571  -59.4920   34.2692 C   0  0  1  0  0  0  0  0  0  0  0  0
  -59.2872  -58.1130   34.7021 C   0  0  1  0  0  0  0  0  0  0  0  0
  -58.6844  -60.3675   33.7475 C   0  0  0  0  0  0  0  0  0  0  0  0
  -58.0079  -59.7341   32.4898 C   0  0  0  0  0  0  0  0  0  0  0  0
  -58.3900  -57.4753   33.6297 C   0  0  0  0  0  0  0  0  0  0  0  0
  -60.3431  -57.0660   35.0785 C   0  0  0  0  0  0  0  0  0  0  0  0
  -57.7419  -58.2161   32.6265 C   0  0  0  0  0  0  0  0  0  0  0  0
  -62.4040  -55.1186   35.7134 C   0  0  0  0  0  0  0  0  0  0  0  0
  -62.5873  -56.0803   34.6816 C   0  0  0  0  0  0  0  0  0  0  0  0
  -61.1764  -55.1269   36.4295 C   0  0  0  0  0  0  0  0  0  0  0  0
  -63.5365  -54.0870   36.0529 C   0  0  0  0  0  0  0  0  0  0  0  0
  -62.0956  -60.2531   35.5085 C   0  0  0  0  0  0  0  0  0  0  0  0
  -64.7280  -54.6840   36.8437 C   0  0  0  0  0  0  0  0  0  0  0  0
  -64.5696  -54.6179   38.3789 C   0  0  0  0  0  0  0  0  0  0  0  0
  -63.8553  -55.8177   39.0581 C   0  0  0  0  0  0  0  0  0  0  0  0
  -64.6952  -56.3980   40.2193 C   0  0  0  0  0  0  0  0  0  0  0  0
  -61.7597  -57.9795   33.3476 O   0  0  0  0  0  0  0  0  0  0  0  0
  -58.9723  -56.0948   36.8098 O   0  0  0  0  0  0  0  0  0  0  0  0
  -56.2178  -56.8764   31.8140 H   0  0  0  0  0  0  0  0  0  0  0  0
  -56.5218  -58.3395   30.8171 H   0  0  0  0  0  0  0  0  0  0  0  0
  -57.7077  -56.9903   30.8171 H   0  0  0  0  0  0  0  0  0  0  0  0
  -60.1789  -60.5566   37.3501 H   0  0  0  0  0  0  0  0  0  0  0  0
  -59.9397  -61.9373   36.2262 H   0  0  0  0  0  0  0  0  0  0  0  0
  -58.7776  -60.5676   36.2262 H   0  0  0  0  0  0  0  0  0  0  0  0
  -60.6050  -59.3210   33.4809 H   0  0  0  0  0  0  0  0  0  0  0  0
  -58.7078  -58.3712   35.6007 H   0  0  0  0  0  0  0  0  0  0  0  0
  -57.9326  -60.4685   34.5442 H   0  0  0  0  0  0  0  0  0  0  0  0
  -59.0892  -61.3496   33.4620 H   0  0  0  0  0  0  0  0  0  0  0  0
  -57.0469  -60.2414   32.3195 H   0  0  0  0  0  0  0  0  0  0  0  0
  -58.7052  -59.8644   31.6491 H   0  0  0  0  0  0  0  0  0  0  0  0
  -58.2480  -56.3846   33.6482 H   0  0  0  0  0  0  0  0  0  0  0  0
  -63.5315  -56.0858   34.1172 H   0  0  0  0  0  0  0  0  0  0  0  0
  -61.0074  -54.3968   37.2348 H   0  0  0  0  0  0  0  0  0  0  0  0
  -63.0961  -53.2772   36.6531 H   0  0  0  0  0  0  0  0  0  0  0  0
  -63.9409  -53.7361   35.0920 H   0  0  0  0  0  0  0  0  0  0  0  0
  -62.7041  -59.7398   34.7493 H   0  0  0  0  0  0  0  0  0  0  0  0
  -62.5849  -60.7904   36.3343 H   0  0  0  0  0  0  0  0  0  0  0  0
  -65.6372  -54.1301   36.5671 H   0  0  0  0  0  0  0  0  0  0  0  0
  -64.7794  -55.7503   36.5782 H   0  0  0  0  0  0  0  0  0  0  0  0
  -63.9951  -53.7102   38.6160 H   0  0  0  0  0  0  0  0  0  0  0  0
  -65.5952  -54.6290   38.7764 H   0  0  0  0  0  0  0  0  0  0  0  0
  -63.6905  -56.6057   38.3085 H   0  0  0  0  0  0  0  0  0  0  0  0
  -62.8999  -55.4606   39.4700 H   0  0  0  0  0  0  0  0  0  0  0  0
  -64.2535  -56.0929   41.1794 H   0  0  0  0  0  0  0  0  0  0  0  0
  -65.7253  -56.0181   40.1523 H   0  0  0  0  0  0  0  0  0  0  0  0
  -64.7042  -57.4959   40.1523 H   0  0  0  0  0  0  0  0  0  0  0  0
  -62.5996  -57.9972   32.8238 H   0  0  0  0  0  0  0  0  0  0  0  0
  -58.8079  -55.4322   37.5267 H   0  0  0  0  0  0  0  0  0  0  0  0
  1  5  1  0
  6  1  1  0
  1 17  2  0
  2 11  2  0
  2 14  1  0
  2 22  1  0
  3 11  1  0
  3 15  2  0
  3 23  1  0
  4 12  1  0
  6  7  1  0
  6  8  1  0
  7 10  1  0
  7 11  1  0
  8  9  1  0
  9 12  1  0
 10 12  2  0
 13 14  2  0
 13 15  1  0
 13 16  1  0
 16 18  1  0
 18 19  1  0
 19 20  1  0
 20 21  1  0
  4 24  1  0
  4 25  1  0
  4 26  1  0
  5 27  1  0
  5 28  1  0
  5 29  1  0
  6 30  1  6
  7 31  1  1
  8 32  1  0
  8 33  1  0
  9 34  1  0
  9 35  1  0
 10 36  1  0
 14 37  1  0
 15 38  1  0
 16 39  1  0
 16 40  1  0
 17 41  1  0
 17 42  1  0
 18 43  1  0
 18 44  1  0
 19 45  1  0
 19 46  1  0
 20 47  1  0
 20 48  1  0
 21 49  1  0
 21 50  1  0
 21 51  1  0
 22 52  1  0
 23 53  1  0
M  END
>  <filename_input>  (3) 
7TE8_P0T_docked.sdf

>  <pdb_id>  (3) 
7TE8_P0T

>  <pose_rank>  (3) 
2

>  <num_atoms_heavy>  (3) 
23

>  <num_torsions>  (3) 
6

>  <pose>  (3) 
[-61.58739085489419, -57.031679115929315, 34.36051034004581, 0.4964791766342551, 1.4068520937295714, -2.4389691287311868, 3.5429560817110883, -3.182179937094775, 1.8608130518555923, -2.7984625121445283, 1.7301857646365968, 6.091600895257772]

>  <energy>  (3) 
-696.7372127253963

>  <inter_energy>  (3) 
-743.0089595508996

>  <intra_energy>  (3) 
47.322530421969596

>  <rmsd>  (3) 
7.2959

>  <sdf_rank>  (3) 
0

$$$$

     RDKit          3D

 53 54  0  0  0  0  0  0  0  0999 V2000
  -62.8652  -53.5413   35.4902 C   0  0  0  0  0  0  0  0  0  0  0  0
  -60.1498  -56.5185   36.2723 C   0  0  0  0  0  0  0  0  0  0  0  0
  -62.1589  -57.0801   34.9893 C   0  0  0  0  0  0  0  0  0  0  0  0
  -64.7856  -57.2093   39.8114 C   0  0  0  0  0  0  0  0  0  0  0  0
  -62.0207  -52.6291   36.0078 C   0  0  0  0  0  0  0  0  0  0  0  0
  -63.4543  -54.6127   36.4214 C   0  0  1  0  0  0  0  0  0  0  0  0
  -62.3603  -55.4987   37.0786 C   0  0  1  0  0  0  0  0  0  0  0  0
  -64.2781  -53.9307   37.5484 C   0  0  0  0  0  0  0  0  0  0  0  0
  -65.0124  -54.9814   38.4415 C   0  0  0  0  0  0  0  0  0  0  0  0
  -62.9200  -56.4285   38.1667 C   0  0  0  0  0  0  0  0  0  0  0  0
  -61.5701  -56.3805   36.1036 C   0  0  0  0  0  0  0  0  0  0  0  0
  -64.1217  -56.1784   38.8512 C   0  0  0  0  0  0  0  0  0  0  0  0
  -59.9847  -58.0242   34.3070 C   0  0  0  0  0  0  0  0  0  0  0  0
  -59.3870  -57.3263   35.3928 C   0  0  0  0  0  0  0  0  0  0  0  0
  -61.3867  -57.8936   34.1143 C   0  0  0  0  0  0  0  0  0  0  0  0
  -59.1136  -58.9212   33.3589 C   0  0  0  0  0  0  0  0  0  0  0  0
  -63.2275  -53.4858   34.0121 C   0  0  0  0  0  0  0  0  0  0  0  0
  -58.0918  -59.8241   34.0951 C   0  0  0  0  0  0  0  0  0  0  0  0
  -58.6477  -61.2029   34.5147 C   0  0  0  0  0  0  0  0  0  0  0  0
  -59.5192  -61.2414   35.7993 C   0  0  0  0  0  0  0  0  0  0  0  0
  -60.5191  -62.4203   35.7747 C   0  0  0  0  0  0  0  0  0  0  0  0
  -59.5698  -55.8290   37.3411 O   0  0  0  0  0  0  0  0  0  0  0  0
  -63.5254  -56.9570   34.8134 O   0  0  0  0  0  0  0  0  0  0  0  0
  -64.5957  -56.9144   40.8540 H   0  0  0  0  0  0  0  0  0  0  0  0
  -65.8701  -57.2346   39.6292 H   0  0  0  0  0  0  0  0  0  0  0  0
  -64.3598  -58.2071   39.6292 H   0  0  0  0  0  0  0  0  0  0  0  0
  -62.0616  -52.6733   37.1062 H   0  0  0  0  0  0  0  0  0  0  0  0
  -60.9963  -52.8446   35.6701 H   0  0  0  0  0  0  0  0  0  0  0  0
  -62.3144  -51.6243   35.6701 H   0  0  0  0  0  0  0  0  0  0  0  0
  -64.0917  -55.2599   35.8010 H   0  0  0  0  0  0  0  0  0  0  0  0
  -61.6803  -54.7492   37.5096 H   0  0  0  0  0  0  0  0  0  0  0  0
  -63.5984  -53.3391   38.1792 H   0  0  0  0  0  0  0  0  0  0  0  0
  -65.0375  -53.2884   37.0785 H   0  0  0  0  0  0  0  0  0  0  0  0
  -65.3602  -54.4780   39.3557 H   0  0  0  0  0  0  0  0  0  0  0  0
  -65.8427  -55.3871   37.8449 H   0  0  0  0  0  0  0  0  0  0  0  0
  -62.3518  -57.3349   38.4225 H   0  0  0  0  0  0  0  0  0  0  0  0
  -58.3026  -57.4161   35.5542 H   0  0  0  0  0  0  0  0  0  0  0  0
  -61.8771  -58.4239   33.2847 H   0  0  0  0  0  0  0  0  0  0  0  0
  -59.7894  -59.5675   32.7796 H   0  0  0  0  0  0  0  0  0  0  0  0
  -58.5299  -58.2362   32.7264 H   0  0  0  0  0  0  0  0  0  0  0  0
  -63.9171  -54.2297   33.5866 H   0  0  0  0  0  0  0  0  0  0  0  0
  -62.7997  -52.7018   33.3699 H   0  0  0  0  0  0  0  0  0  0  0  0
  -57.2329  -59.9876   33.4275 H   0  0  0  0  0  0  0  0  0  0  0  0
  -57.8188  -59.2992   35.0225 H   0  0  0  0  0  0  0  0  0  0  0  0
  -59.2613  -61.5818   33.6841 H   0  0  0  0  0  0  0  0  0  0  0  0
  -57.7625  -61.8132   34.7473 H   0  0  0  0  0  0  0  0  0  0  0  0
  -58.8609  -61.3500   36.6739 H   0  0  0  0  0  0  0  0  0  0  0  0
  -60.0934  -60.3047   35.8532 H   0  0  0  0  0  0  0  0  0  0  0  0
  -60.7670  -62.7125   36.8058 H   0  0  0  0  0  0  0  0  0  0  0  0
  -61.4359  -62.1126   35.2503 H   0  0  0  0  0  0  0  0  0  0  0  0
  -60.0660  -63.2745   35.2503 H   0  0  0  0  0  0  0  0  0  0  0  0
  -58.5946  -55.8917   37.4998 H   0  0  0  0  0  0  0  0  0  0  0  0
  -63.9713  -57.4206   34.0609 H   0  0  0  0  0  0  0  0  0  0  0  0
  1  5  1  0
  6  1  1  0
  1 17  2  0
  2 11  2  0
  2 14  1  0
  2 22  1  0
  3 11  1  0
  3 15  2  0
  3 23  1  0
  4 12  1  0
  6  7  1  0
  6  8  1  0
  7 10  1  0
  7 11  1  0
  8  9  1  0
  9 12  1  0
 10 12  2  0
 13 14  2  0
 13 15  1  0
 13 16  1  0
 16 18  1  0
 18 19  1  0
 19 20  1  0
 20 21  1  0
  4 24  1  0
  4 25  1  0
  4 26  1  0
  5 27  1  0
  5 28  1  0
  5 29  1  0
  6 30  1  6
  7 31  1  1
  8 32  1  0
  8 33  1  0
  9 34  1  0
  9 35  1  0
 10 36  1  0
 14 37  1  0
 15 38  1  0
 16 39  1  0
 16 40  1  0
 17 41  1  0
 17 42  1  0
 18 43  1  0
 18 44  1  0
 19 45  1  0
 19 46  1  0
 20 47  1  0
 20 48  1  0
 21 49  1  0
 21 50  1  0
 21 51  1  0
 22 52  1  0
 23 53  1  0
M  END
>  <filename_input>  (4) 
7TE8_P0T_docked.sdf

>  <pdb_id>  (4) 
7TE8_P0T

>  <pose_rank>  (4) 
3

>  <num_atoms_heavy>  (4) 
23

>  <num_torsions>  (4) 
6

>  <pose>  (4) 
[-60.14975611528778, -56.518460954470484, 36.27232645035352, -5.049276888504513, 2.3317102586655163, 1.0936496561437983, 6.5863065902923275, -2.8668010463920144, 1.3161540535952203, -9.109093914192211, -4.392482228862773, -1.5647000988557567]

>  <energy>  (4) 
-730.3197069312388

>  <inter_energy>  (4) 
-742.3353408201182

>  <intra_energy>  (4) 
20.494863800953127

>  <rmsd>  (4) 
2.25544

>  <sdf_rank>  (4) 
0

$$$$

     RDKit          3D

 53 54  0  0  0  0  0  0  0  0999 V2000
  -60.5813  -60.4455   35.4508 C   0  0  0  0  0  0  0  0  0  0  0  0
  -60.1298  -56.4937   36.1801 C   0  0  0  0  0  0  0  0  0  0  0  0
  -61.7145  -57.0742   34.4054 C   0  0  0  0  0  0  0  0  0  0  0  0
  -57.5314  -57.8241   31.0189 C   0  0  0  0  0  0  0  0  0  0  0  0
  -59.7774  -61.2726   36.1457 C   0  0  0  0  0  0  0  0  0  0  0  0
  -60.0133  -59.7331   34.2130 C   0  0  1  0  0  0  0  0  0  0  0  0
  -59.4154  -58.3392   34.5490 C   0  0  1  0  0  0  0  0  0  0  0  0
  -58.8985  -60.6056   33.5727 C   0  0  0  0  0  0  0  0  0  0  0  0
  -58.3844  -59.9904   32.2319 C   0  0  0  0  0  0  0  0  0  0  0  0
  -58.6602  -57.7132   33.3660 C   0  0  0  0  0  0  0  0  0  0  0  0
  -60.4337  -57.2969   35.0280 C   0  0  0  0  0  0  0  0  0  0  0  0
  -58.1251  -58.4669   32.3073 C   0  0  0  0  0  0  0  0  0  0  0  0
  -62.2986  -55.2993   36.0155 C   0  0  0  0  0  0  0  0  0  0  0  0
  -61.0448  -55.5193   36.6504 C   0  0  0  0  0  0  0  0  0  0  0  0
  -62.6251  -56.0900   34.8806 C   0  0  0  0  0  0  0  0  0  0  0  0
  -63.2839  -54.2031   36.5536 C   0  0  0  0  0  0  0  0  0  0  0  0
  -62.0253  -60.2453   35.8910 C   0  0  0  0  0  0  0  0  0  0  0  0
  -63.0913  -53.8506   38.0503 C   0  0  0  0  0  0  0  0  0  0  0  0
  -64.0481  -54.5955   39.0075 C   0  0  0  0  0  0  0  0  0  0  0  0
  -63.8262  -56.1243   39.1642 C   0  0  0  0  0  0  0  0  0  0  0  0
  -64.3777  -56.6452   40.5114 C   0  0  0  0  0  0  0  0  0  0  0  0
  -58.8962  -56.7162   36.7989 O   0  0  0  0  0  0  0  0  0  0  0  0
  -62.0219  -57.8400   33.2951 O   0  0  0  0  0  0  0  0  0  0  0  0
  -56.8095  -57.0425   31.2983 H   0  0  0  0  0  0  0  0  0  0  0  0
  -57.0228  -58.5972   30.4243 H   0  0  0  0  0  0  0  0  0  0  0  0
  -58.3424  -57.3784   30.4243 H   0  0  0  0  0  0  0  0  0  0  0  0
  -59.9315  -61.1141   37.2232 H   0  0  0  0  0  0  0  0  0  0  0  0
  -60.0161  -62.3157   35.8907 H   0  0  0  0  0  0  0  0  0  0  0  0
  -58.7279  -61.0638   35.8907 H   0  0  0  0  0  0  0  0  0  0  0  0
  -60.8515  -59.5870   33.5158 H   0  0  0  0  0  0  0  0  0  0  0  0
  -58.7303  -58.5722   35.3774 H   0  0  0  0  0  0  0  0  0  0  0  0
  -58.0565  -60.6816   34.2764 H   0  0  0  0  0  0  0  0  0  0  0  0
  -59.3207  -61.5980   33.3559 H   0  0  0  0  0  0  0  0  0  0  0  0
  -57.4433  -60.4900   31.9585 H   0  0  0  0  0  0  0  0  0  0  0  0
  -59.1744  -60.1459   31.4823 H   0  0  0  0  0  0  0  0  0  0  0  0
  -58.5322  -56.6209   33.3468 H   0  0  0  0  0  0  0  0  0  0  0  0
  -60.7782  -54.9163   37.5309 H   0  0  0  0  0  0  0  0  0  0  0  0
  -63.5864  -55.9403   34.3672 H   0  0  0  0  0  0  0  0  0  0  0  0
  -63.1363  -53.2873   35.9624 H   0  0  0  0  0  0  0  0  0  0  0  0
  -64.2985  -54.6167   36.4558 H   0  0  0  0  0  0  0  0  0  0  0  0
  -62.6842  -59.5702   35.3252 H   0  0  0  0  0  0  0  0  0  0  0  0
  -62.4095  -60.7757   36.7748 H   0  0  0  0  0  0  0  0  0  0  0  0
  -62.0580  -54.1006   38.3328 H   0  0  0  0  0  0  0  0  0  0  0  0
  -63.3152  -52.7785   38.1526 H   0  0  0  0  0  0  0  0  0  0  0  0
  -63.9449  -54.1398   40.0033 H   0  0  0  0  0  0  0  0  0  0  0  0
  -65.0462  -54.4927   38.5566 H   0  0  0  0  0  0  0  0  0  0  0  0
  -64.3399  -56.6454   38.3429 H   0  0  0  0  0  0  0  0  0  0  0  0
  -62.7439  -56.3190   39.1375 H   0  0  0  0  0  0  0  0  0  0  0  0
  -63.8515  -56.1482   41.3397 H   0  0  0  0  0  0  0  0  0  0  0  0
  -65.4537  -56.4260   40.5764 H   0  0  0  0  0  0  0  0  0  0  0  0
  -64.2203  -57.7319   40.5764 H   0  0  0  0  0  0  0  0  0  0  0  0
  -58.6400  -56.1884   37.5962 H   0  0  0  0  0  0  0  0  0  0  0  0
  -62.8909  -57.7200   32.8362 H   0  0  0  0  0  0  0  0  0  0  0  0
  1  5  1  0
  6  1  1  0
  1 17  2  0
  2 11  2  0
  2 14  1  0
  2 22  1  0
  3 11  1  0
  3 15  2  0
  3 23  1  0
  4 12  1  0
  6  7  1  0
  6  8  1  0
  7 10  1  0
  7 11  1  0
  8  9  1  0
  9 12  1  0
 10 12  2  0
 13 14  2  0
 13 15  1  0
 13 16  1  0
 16 18  1  0
 18 19  1  0
 19 20  1  0
 20 21  1  0
  4 24  1  0
  4 25  1  0
  4 26  1  0
  5 27  1  0
  5 28  1  0
  5 29  1  0
  6 30  1  6
  7 31  1  1
  8 32  1  0
  8 33  1  0
  9 34  1  0
  9 35  1  0
 10 36  1  0
 14 37  1  0
 15 38  1  0
 16 39  1  0
 16 40  1  0
 17 41  1  0
 17 42  1  0
 18 43  1  0
 18 44  1  0
 19 45  1  0
 19 46  1  0
 20 47  1  0
 20 48  1  0
 21 49  1  0
 21 50  1  0
 21 51  1  0
 22 52  1  0
 23 53  1  0
M  END
>  <filename_input>  (5) 
7TE8_P0T_docked.sdf

>  <pdb_id>  (5) 
7TE8_P0T

>  <pose_rank>  (5) 
4

>  <num_atoms_heavy>  (5) 
23

>  <num_torsions>  (5) 
6

>  <pose>  (5) 
[-60.12978688217999, -56.493668455293346, 36.18011737924171, -2.4735829532778872, -1.2571302937482436, -1.3646995558702033, 0.22224432277252534, -3.417702597386133, 0.12198717391578609, 0.22920860171290514, -1.8015988715765767, -1.5246827821664188]

>  <energy>  (5) 
-684.52553368415

>  <inter_energy>  (5) 
-709.1687023364626

>  <intra_energy>  (5) 
23.522340178336727

>  <rmsd>  (5) 
7.32891

>  <sdf_rank>  (5) 
0

$$$$

     RDKit          3D

 53 54  0  0  0  0  0  0  0  0999 V2000
  -58.0326  -59.1475   31.4128 C   0  0  0  0  0  0  0  0  0  0  0  0
  -59.4135  -57.1759   33.7267 C   0  0  0  0  0  0  0  0  0  0  0  0
  -59.8165  -58.9427   35.3742 C   0  0  0  0  0  0  0  0  0  0  0  0
  -54.2452  -57.8771   35.8689 C   0  0  0  0  0  0  0  0  0  0  0  0
  -59.3181  -59.4213   31.7056 C   0  0  0  0  0  0  0  0  0  0  0  0
  -57.1256  -58.5926   32.5227 C   0  0  1  0  0  0  0  0  0  0  0  0
  -57.6121  -58.9882   33.9440 C   0  0  1  0  0  0  0  0  0  0  0  0
  -55.6788  -59.1255   32.3314 C   0  0  0  0  0  0  0  0  0  0  0  0
  -54.6878  -58.4808   33.3527 C   0  0  0  0  0  0  0  0  0  0  0  0
  -56.6034  -58.6205   35.0435 C   0  0  0  0  0  0  0  0  0  0  0  0
  -58.9603  -58.3848   34.3577 C   0  0  0  0  0  0  0  0  0  0  0  0
  -55.2317  -58.4345   34.8005 C   0  0  0  0  0  0  0  0  0  0  0  0
  -61.4967  -57.1618   35.0749 C   0  0  0  0  0  0  0  0  0  0  0  0
  -60.6543  -56.5905   34.0812 C   0  0  0  0  0  0  0  0  0  0  0  0
  -61.0633  -58.3517   35.7201 C   0  0  0  0  0  0  0  0  0  0  0  0
  -62.8710  -56.4957   35.4349 C   0  0  0  0  0  0  0  0  0  0  0  0
  -57.5042  -59.4037   30.0077 C   0  0  0  0  0  0  0  0  0  0  0  0
  -63.1766  -56.4428   36.9532 C   0  0  0  0  0  0  0  0  0  0  0  0
  -63.2693  -55.0144   37.5340 C   0  0  0  0  0  0  0  0  0  0  0  0
  -63.5500  -54.8981   39.0567 C   0  0  0  0  0  0  0  0  0  0  0  0
  -64.8802  -55.5838   39.4451 C   0  0  0  0  0  0  0  0  0  0  0  0
  -58.5799  -56.6203   32.7518 O   0  0  0  0  0  0  0  0  0  0  0  0
  -59.3938  -60.1064   35.9911 O   0  0  0  0  0  0  0  0  0  0  0  0
  -54.6323  -58.0959   36.8750 H   0  0  0  0  0  0  0  0  0  0  0  0
  -53.2613  -58.3528   35.7432 H   0  0  0  0  0  0  0  0  0  0  0  0
  -54.1450  -56.7889   35.7432 H   0  0  0  0  0  0  0  0  0  0  0  0
  -59.4475  -59.4488   32.7976 H   0  0  0  0  0  0  0  0  0  0  0  0
  -59.9655  -58.6408   31.2792 H   0  0  0  0  0  0  0  0  0  0  0  0
  -59.5913  -60.3977   31.2792 H   0  0  0  0  0  0  0  0  0  0  0  0
  -57.1577  -57.4959   32.4429 H   0  0  0  0  0  0  0  0  0  0  0  0
  -57.7236  -60.0792   33.8577 H   0  0  0  0  0  0  0  0  0  0  0  0
  -55.6786  -60.2162   32.4739 H   0  0  0  0  0  0  0  0  0  0  0  0
  -55.3466  -58.8614   31.3166 H   0  0  0  0  0  0  0  0  0  0  0  0
  -53.7564  -59.0659   33.3499 H   0  0  0  0  0  0  0  0  0  0  0  0
  -54.5296  -57.4397   33.0346 H   0  0  0  0  0  0  0  0  0  0  0  0
  -56.9734  -58.4967   36.0720 H   0  0  0  0  0  0  0  0  0  0  0  0
  -60.9751  -55.6687   33.5738 H   0  0  0  0  0  0  0  0  0  0  0  0
  -61.6951  -58.8178   36.4906 H   0  0  0  0  0  0  0  0  0  0  0  0
  -62.8662  -55.4659   35.0485 H   0  0  0  0  0  0  0  0  0  0  0  0
  -63.6527  -57.1206   34.9782 H   0  0  0  0  0  0  0  0  0  0  0  0
  -56.4545  -59.1810   29.7657 H   0  0  0  0  0  0  0  0  0  0  0  0
  -58.1722  -59.8115   29.2347 H   0  0  0  0  0  0  0  0  0  0  0  0
  -64.1373  -56.9490   37.1290 H   0  0  0  0  0  0  0  0  0  0  0  0
  -62.3344  -56.9352   37.4613 H   0  0  0  0  0  0  0  0  0  0  0  0
  -62.3131  -54.5096   37.3318 H   0  0  0  0  0  0  0  0  0  0  0  0
  -64.1419  -54.5586   37.0433 H   0  0  0  0  0  0  0  0  0  0  0  0
  -62.7276  -55.3764   39.6088 H   0  0  0  0  0  0  0  0  0  0  0  0
  -63.6264  -53.8307   39.3116 H   0  0  0  0  0  0  0  0  0  0  0  0
  -64.9642  -55.6270   40.5410 H   0  0  0  0  0  0  0  0  0  0  0  0
  -65.7230  -55.0077   39.0352 H   0  0  0  0  0  0  0  0  0  0  0  0
  -64.9000  -56.6044   39.0352 H   0  0  0  0  0  0  0  0  0  0  0  0
  -58.8474  -55.7876   32.2879 H   0  0  0  0  0  0  0  0  0  0  0  0
  -59.9509  -60.5240   36.6949 H   0  0  0  0  0  0  0  0  0  0  0  0
  1  5  1  0
  6  1  1  0
  1 17  2  0
  2 11  2  0
  2 14  1  0
  2 22  1  0
  3 11  1  0
  3 15  2  0
  3 23  1  0
  4 12  1  0
  6  7  1  0
  6  8  1  0
  7 10  1  0
  7 11  1  0
  8  9  1  0
  9 12  1  0
 10 12  2  0
 13 14  2  0
 13 15  1  0
 13 16  1  0
 16 18  1  0
 18 19  1  0
 19 20  1  0
 20 21  1  0
  4 24  1  0
  4 25  1  0
  4 26  1  0
  5 27  1  0
  5 28  1  0
  5 29  1  0
  6 30  1  1
  7 31  1  6
  8 32  1  0
  8 33  1  0
  9 34  1  0
  9 35  1  0
 10 36  1  0
 14 37  1  0
 15 38  1  0
 16 39  1  0
 16 40  1  0
 17 41  1  0
 17 42  1  0
 18 43  1  0
 18 44  1  0
 19 45  1  0
 19 46  1  0
 20 47  1  0
 20 48  1  0
 21 49  1  0
 21 50  1  0
 21 51  1  0
 22 52  1  0
 23 53  1  0
M  END
>  <filename_input>  (6) 
7TE8_P0T_docked.sdf

>  <pdb_id>  (6) 
7TE8_P0T

>  <pose_rank>  (6) 
5

>  <num_atoms_heavy>  (6) 
23

>  <num_torsions>  (6) 
6

>  <pose>  (6) 
[-59.413499173812596, -57.1758823142001, 33.72670946489012, 1.586696054138441, 2.225439526998839, -0.8081875094681402, 10.034934126759051, -1.3776915374468546, -1.8526505629473309, -2.34722495933435, 0.15530843577825384, 1.0115752853548767]

>  <energy>  (6) 
-576.4553599273663

>  <inter_energy>  (6) 
-691.0613127616849

>  <intra_energy>  (6) 
114.52790402407147

>  <rmsd>  (6) 
7.51297

>  <sdf_rank>  (6) 
0

$$$$

     RDKit          3D

 53 54  0  0  0  0  0  0  0  0999 V2000
  -62.8196  -56.1696   38.5595 C   0  0  0  0  0  0  0  0  0  0  0  0
  -62.3291  -58.4182   35.4258 C   0  0  0  0  0  0  0  0  0  0  0  0
  -60.2849  -57.1240   35.8059 C   0  0  0  0  0  0  0  0  0  0  0  0
  -62.1513  -52.5826   33.8158 C   0  0  0  0  0  0  0  0  0  0  0  0
  -61.9709  -56.3076   39.5958 C   0  0  0  0  0  0  0  0  0  0  0  0
  -62.4126  -55.2601   37.3893 C   0  0  1  0  0  0  0  0  0  0  0  0
  -62.6212  -55.9375   36.0068 C   0  0  1  0  0  0  0  0  0  0  0  0
  -63.2499  -53.9518   37.4278 C   0  0  0  0  0  0  0  0  0  0  0  0
  -62.7779  -52.9337   36.3409 C   0  0  0  0  0  0  0  0  0  0  0  0
  -62.4191  -54.9685   34.8313 C   0  0  0  0  0  0  0  0  0  0  0  0
  -61.7245  -57.1530   35.7402 C   0  0  0  0  0  0  0  0  0  0  0  0
  -62.5416  -53.5736   34.9521 C   0  0  0  0  0  0  0  0  0  0  0  0
  -60.1123  -59.5146   35.2234 C   0  0  0  0  0  0  0  0  0  0  0  0
  -61.5330  -59.5624   35.1712 C   0  0  0  0  0  0  0  0  0  0  0  0
  -59.4928  -58.2761   35.5434 C   0  0  0  0  0  0  0  0  0  0  0  0
  -59.2593  -60.7969   34.9234 C   0  0  0  0  0  0  0  0  0  0  0  0
  -64.1447  -56.9201   38.5600 C   0  0  0  0  0  0  0  0  0  0  0  0
  -58.6229  -60.8244   33.5107 C   0  0  0  0  0  0  0  0  0  0  0  0
  -57.3712  -59.9319   33.3594 C   0  0  0  0  0  0  0  0  0  0  0  0
  -57.4288  -58.8302   32.2666 C   0  0  0  0  0  0  0  0  0  0  0  0
  -57.2208  -59.4189   30.8522 C   0  0  0  0  0  0  0  0  0  0  0  0
  -63.7255  -58.4572   35.3770 O   0  0  0  0  0  0  0  0  0  0  0  0
  -59.6879  -55.9132   36.1077 O   0  0  0  0  0  0  0  0  0  0  0  0
  -61.7822  -51.6453   34.2575 H   0  0  0  0  0  0  0  0  0  0  0  0
  -61.3624  -53.0304   33.1937 H   0  0  0  0  0  0  0  0  0  0  0  0
  -63.0337  -52.3722   33.1937 H   0  0  0  0  0  0  0  0  0  0  0  0
  -62.5276  -56.2171   40.5402 H   0  0  0  0  0  0  0  0  0  0  0  0
  -61.4900  -57.2957   39.5468 H   0  0  0  0  0  0  0  0  0  0  0  0
  -61.2018  -55.5227   39.5468 H   0  0  0  0  0  0  0  0  0  0  0  0
  -61.3399  -55.0475   37.5079 H   0  0  0  0  0  0  0  0  0  0  0  0
  -63.6666  -56.2745   36.0670 H   0  0  0  0  0  0  0  0  0  0  0  0
  -64.3068  -54.1992   37.2499 H   0  0  0  0  0  0  0  0  0  0  0  0
  -63.1157  -53.4868   38.4156 H   0  0  0  0  0  0  0  0  0  0  0  0
  -63.5468  -52.1538   36.2379 H   0  0  0  0  0  0  0  0  0  0  0  0
  -61.8122  -52.5282   36.6772 H   0  0  0  0  0  0  0  0  0  0  0  0
  -62.1660  -55.3875   33.8462 H   0  0  0  0  0  0  0  0  0  0  0  0
  -62.0273  -60.5141   34.9264 H   0  0  0  0  0  0  0  0  0  0  0  0
  -58.3959  -58.2082   35.5883 H   0  0  0  0  0  0  0  0  0  0  0  0
  -58.4503  -60.8541   35.6666 H   0  0  0  0  0  0  0  0  0  0  0  0
  -59.9487  -61.6525   34.9746 H   0  0  0  0  0  0  0  0  0  0  0  0
  -64.8399  -56.8093   37.7147 H   0  0  0  0  0  0  0  0  0  0  0  0
  -64.4066  -57.5731   39.4056 H   0  0  0  0  0  0  0  0  0  0  0  0
  -58.3361  -61.8615   33.2823 H   0  0  0  0  0  0  0  0  0  0  0  0
  -59.3786  -60.4270   32.8172 H   0  0  0  0  0  0  0  0  0  0  0  0
  -57.1975  -59.4347   34.3252 H   0  0  0  0  0  0  0  0  0  0  0  0
  -56.5673  -60.6123   33.0421 H   0  0  0  0  0  0  0  0  0  0  0  0
  -58.4119  -58.3384   32.3073 H   0  0  0  0  0  0  0  0  0  0  0  0
  -56.6204  -58.1102   32.4615 H   0  0  0  0  0  0  0  0  0  0  0  0
  -56.8552  -60.4531   30.9356 H   0  0  0  0  0  0  0  0  0  0  0  0
  -58.1763  -59.4106   30.3074 H   0  0  0  0  0  0  0  0  0  0  0  0
  -56.4827  -58.8120   30.3074 H   0  0  0  0  0  0  0  0  0  0  0  0
  -64.1899  -59.3053   35.1645 H   0  0  0  0  0  0  0  0  0  0  0  0
  -58.7016  -55.8478   36.1632 H   0  0  0  0  0  0  0  0  0  0  0  0
  1  5  1  0
  6  1  1  0
  1 17  2  0
  2 11  2  0
  2 14  1  0
  2 22  1  0
  3 11  1  0
  3 15  2  0
  3 23  1  0
  4 12  1  0
  6  7  1  0
  6  8  1  0
  7 10  1  0
  7 11  1  0
  8  9  1  0
  9 12  1  0
 10 12  2  0
 13 14  2  0
 13 15  1  0
 13 16  1  0
 16 18  1  0
 18 19  1  0
 19 20  1  0
 20 21  1  0
  4 24  1  0
  4 25  1  0
  4 26  1  0
  5 27  1  0
  5 28  1  0
  5 29  1  0
  6 30  1  1
  7 31  1  1
  8 32  1  0
  8 33  1  0
  9 34  1  0
  9 35  1  0
 10 36  1  0
 14 37  1  0
 15 38  1  0
 16 39  1  0
 16 40  1  0
 17 41  1  0
 17 42  1  0
 18 43  1  0
 18 44  1  0
 19 45  1  0
 19 46  1  0
 20 47  1  0
 20 48  1  0
 21 49  1  0
 21 50  1  0
 21 51  1  0
 22 52  1  0
 23 53  1  0
M  END
>  <filename_input>  (7) 
7TE8_P0T_docked.sdf

>  <pdb_id>  (7) 
7TE8_P0T

>  <pose_rank>  (7) 
6

>  <num_atoms_heavy>  (7) 
23

>  <num_torsions>  (7) 
6

>  <pose>  (7) 
[-62.32907122470217, -58.41815001998281, 35.425770595273335, 1.6959772994400624, -2.553220866256189, -0.885158207967809, 0.026082030302034667, 0.4859888197557051, -3.9521584751486873, 3.2635776384270585, 1.1539456146880847, 0.6949613386580069]

>  <energy>  (7) 
-635.8539820188014

>  <inter_energy>  (7) 
-651.3028310810422

>  <intra_energy>  (7) 
17.475586376862044

>  <rmsd>  (7) 
2.91875

>  <sdf_rank>  (7) 
0

$$$$

     RDKit          3D

 53 54  0  0  0  0  0  0  0  0999 V2000
  -63.7235  -58.4479   35.8695 C   0  0  0  0  0  0  0  0  0  0  0  0
  -60.0817  -57.3690   36.1962 C   0  0  0  0  0  0  0  0  0  0  0  0
  -60.8995  -56.2330   34.1866 C   0  0  0  0  0  0  0  0  0  0  0  0
  -62.1316  -54.2127   39.7866 C   0  0  0  0  0  0  0  0  0  0  0  0
  -63.7224  -59.7752   36.0960 C   0  0  0  0  0  0  0  0  0  0  0  0
  -63.1454  -57.5157   36.9460 C   0  0  1  0  0  0  0  0  0  0  0  0
  -62.4046  -56.2919   36.3401 C   0  0  1  0  0  0  0  0  0  0  0  0
  -64.2909  -56.9958   37.8579 C   0  0  0  0  0  0  0  0  0  0  0  0
  -63.7389  -56.1544   39.0529 C   0  0  0  0  0  0  0  0  0  0  0  0
  -62.0088  -55.2504   37.3985 C   0  0  0  0  0  0  0  0  0  0  0  0
  -61.1329  -56.6306   35.5522 C   0  0  0  0  0  0  0  0  0  0  0  0
  -62.6516  -55.1329   38.6428 C   0  0  0  0  0  0  0  0  0  0  0  0
  -58.6842  -57.3170   34.1464 C   0  0  0  0  0  0  0  0  0  0  0  0
  -58.8935  -57.7022   35.4997 C   0  0  0  0  0  0  0  0  0  0  0  0
  -59.7060  -56.5763   33.4928 C   0  0  0  0  0  0  0  0  0  0  0  0
  -57.3624  -57.7132   33.3995 C   0  0  0  0  0  0  0  0  0  0  0  0
  -64.2778  -57.9030   34.5599 C   0  0  0  0  0  0  0  0  0  0  0  0
  -57.5387  -57.9672   31.8810 C   0  0  0  0  0  0  0  0  0  0  0  0
  -57.9505  -59.4120   31.5213 C   0  0  0  0  0  0  0  0  0  0  0  0
  -58.4685  -60.2992   32.6856 C   0  0  0  0  0  0  0  0  0  0  0  0
  -57.5414  -61.5111   32.9348 C   0  0  0  0  0  0  0  0  0  0  0  0
  -60.2946  -57.7433   37.5261 O   0  0  0  0  0  0  0  0  0  0  0  0
  -61.9021  -55.5212   33.5529 O   0  0  0  0  0  0  0  0  0  0  0  0
  -62.3839  -54.6592   40.7598 H   0  0  0  0  0  0  0  0  0  0  0  0
  -61.0399  -54.1063   39.7040 H   0  0  0  0  0  0  0  0  0  0  0  0
  -62.6038  -53.2226   39.7040 H   0  0  0  0  0  0  0  0  0  0  0  0
  -63.7223  -59.9622   37.1800 H   0  0  0  0  0  0  0  0  0  0  0  0
  -64.6202  -60.2247   35.6466 H   0  0  0  0  0  0  0  0  0  0  0  0
  -62.8239  -60.2232   35.6466 H   0  0  0  0  0  0  0  0  0  0  0  0
  -62.4173  -58.1057   37.5220 H   0  0  0  0  0  0  0  0  0  0  0  0
  -63.1543  -55.8853   35.6454 H   0  0  0  0  0  0  0  0  0  0  0  0
  -64.9653  -56.3658   37.2594 H   0  0  0  0  0  0  0  0  0  0  0  0
  -64.8254  -57.8654   38.2678 H   0  0  0  0  0  0  0  0  0  0  0  0
  -64.5767  -55.6061   39.5083 H   0  0  0  0  0  0  0  0  0  0  0  0
  -63.2696  -56.8602   39.7541 H   0  0  0  0  0  0  0  0  0  0  0  0
  -61.1811  -54.5625   37.1708 H   0  0  0  0  0  0  0  0  0  0  0  0
  -58.1113  -58.2745   36.0198 H   0  0  0  0  0  0  0  0  0  0  0  0
  -59.5734  -56.2672   32.4455 H   0  0  0  0  0  0  0  0  0  0  0  0
  -56.6355  -56.8980   33.5301 H   0  0  0  0  0  0  0  0  0  0  0  0
  -57.0245  -58.6627   33.8402 H   0  0  0  0  0  0  0  0  0  0  0  0
  -64.2800  -56.8192   34.3721 H   0  0  0  0  0  0  0  0  0  0  0  0
  -64.6761  -58.5933   33.8017 H   0  0  0  0  0  0  0  0  0  0  0  0
  -58.3148  -57.2842   31.5053 H   0  0  0  0  0  0  0  0  0  0  0  0
  -56.5564  -57.7950   31.4168 H   0  0  0  0  0  0  0  0  0  0  0  0
  -58.7484  -59.3532   30.7664 H   0  0  0  0  0  0  0  0  0  0  0  0
  -57.0265  -59.8987   31.1758 H   0  0  0  0  0  0  0  0  0  0  0  0
  -58.5171  -59.6927   33.6020 H   0  0  0  0  0  0  0  0  0  0  0  0
  -59.4641  -60.6786   32.4118 H   0  0  0  0  0  0  0  0  0  0  0  0
  -57.4231  -61.6658   34.0175 H   0  0  0  0  0  0  0  0  0  0  0  0
  -57.9841  -62.4106   32.4822 H   0  0  0  0  0  0  0  0  0  0  0  0
  -56.5574  -61.3192   32.4822 H   0  0  0  0  0  0  0  0  0  0  0  0
  -59.6004  -58.2534   38.0140 H   0  0  0  0  0  0  0  0  0  0  0  0
  -61.7839  -55.2280   32.6147 H   0  0  0  0  0  0  0  0  0  0  0  0
  1  5  1  0
  6  1  1  0
  1 17  2  0
  2 11  2  0
  2 14  1  0
  2 22  1  0
  3 11  1  0
  3 15  2  0
  3 23  1  0
  4 12  1  0
  6  7  1  0
  6  8  1  0
  7 10  1  0
  7 11  1  0
  8  9  1  0
  9 12  1  0
 10 12  2  0
 13 14  2  0
 13 15  1  0
 13 16  1  0
 16 18  1  0
 18 19  1  0
 19 20  1  0
 20 21  1  0
  4 24  1  0
  4 25  1  0
  4 26  1  0
  5 27  1  0
  5 28  1  0
  5 29  1  0
  6 30  1  1
  7 31  1  6
  8 32  1  0
  8 33  1  0
  9 34  1  0
  9 35  1  0
 10 36  1  0
 14 37  1  0
 15 38  1  0
 16 39  1  0
 16 40  1  0
 17 41  1  0
 17 42  1  0
 18 43  1  0
 18 44  1  0
 19 45  1  0
 19 46  1  0
 20 47  1  0
 20 48  1  0
 21 49  1  0
 21 50  1  0
 21 51  1  0
 22 52  1  0
 23 53  1  0
M  END
>  <filename_input>  (8) 
7TE8_P0T_docked.sdf

>  <pdb_id>  (8) 
7TE8_P0T

>  <pose_rank>  (8) 
7

>  <num_atoms_heavy>  (8) 
23

>  <num_torsions>  (8) 
6

>  <pose>  (8) 
[-60.08169244087693, -57.369026212943965, 36.196235527246714, 1.3374937081884353, -0.8886893247713503, -0.22740604763917432, -3.1021670515488386, 0.7024157891838914, 3.120371676895734, 0.4006918181572872, -2.748067447770611, 0.006103894857403034]

>  <energy>  (8) 
-608.0785703012567

>  <inter_energy>  (8) 
-634.9133893023114

>  <intra_energy>  (8) 
32.80004420678274

>  <rmsd>  (8) 
2.96104

>  <sdf_rank>  (8) 
0

$$$$

     RDKit          3D

 53 54  0  0  0  0  0  0  0  0999 V2000
  -63.1105  -56.6594   38.2585 C   0  0  0  0  0  0  0  0  0  0  0  0
  -60.4013  -57.2296   35.8693 C   0  0  0  0  0  0  0  0  0  0  0  0
  -62.0342  -58.7919   34.9253 C   0  0  0  0  0  0  0  0  0  0  0  0
  -62.7139  -53.0368   33.5114 C   0  0  0  0  0  0  0  0  0  0  0  0
  -64.3999  -56.9758   38.4835 C   0  0  0  0  0  0  0  0  0  0  0  0
  -62.7764  -55.7086   37.0981 C   0  0  1  0  0  0  0  0  0  0  0  0
  -62.8279  -56.4143   35.7150 C   0  0  1  0  0  0  0  0  0  0  0  0
  -63.7831  -54.5252   37.0848 C   0  0  0  0  0  0  0  0  0  0  0  0
  -63.4030  -53.4577   36.0093 C   0  0  0  0  0  0  0  0  0  0  0  0
  -62.7043  -55.4323   34.5394 C   0  0  0  0  0  0  0  0  0  0  0  0
  -61.7643  -57.4988   35.5021 C   0  0  0  0  0  0  0  0  0  0  0  0
  -63.0190  -54.0662   34.6396 C   0  0  0  0  0  0  0  0  0  0  0  0
  -59.6765  -59.4860   35.1341 C   0  0  0  0  0  0  0  0  0  0  0  0
  -59.3919  -58.2077   35.6895 C   0  0  0  0  0  0  0  0  0  0  0  0
  -61.0159  -59.7703   34.7534 C   0  0  0  0  0  0  0  0  0  0  0  0
  -58.5380  -60.5517   34.9604 C   0  0  0  0  0  0  0  0  0  0  0  0
  -62.0219  -57.2314   39.1567 C   0  0  0  0  0  0  0  0  0  0  0  0
  -58.0655  -60.7486   33.4977 C   0  0  0  0  0  0  0  0  0  0  0  0
  -56.7394  -60.0338   33.1559 C   0  0  0  0  0  0  0  0  0  0  0  0
  -56.4543  -58.7011   33.9000 C   0  0  0  0  0  0  0  0  0  0  0  0
  -54.9408  -58.4939   34.1384 C   0  0  0  0  0  0  0  0  0  0  0  0
  -60.1296  -55.9711   36.4138 O   0  0  0  0  0  0  0  0  0  0  0  0
  -63.3416  -59.0660   34.5663 O   0  0  0  0  0  0  0  0  0  0  0  0
  -62.4286  -52.0742   33.9607 H   0  0  0  0  0  0  0  0  0  0  0  0
  -61.8877  -53.4098   32.8883 H   0  0  0  0  0  0  0  0  0  0  0  0
  -63.6099  -52.8994   32.8883 H   0  0  0  0  0  0  0  0  0  0  0  0
  -64.5827  -57.0207   39.5673 H   0  0  0  0  0  0  0  0  0  0  0  0
  -65.0492  -56.2104   38.0335 H   0  0  0  0  0  0  0  0  0  0  0  0
  -64.6210  -57.9549   38.0335 H   0  0  0  0  0  0  0  0  0  0  0  0
  -61.7487  -55.3525   37.2625 H   0  0  0  0  0  0  0  0  0  0  0  0
  -63.8200  -56.8891   35.7317 H   0  0  0  0  0  0  0  0  0  0  0  0
  -64.7878  -54.9140   36.8621 H   0  0  0  0  0  0  0  0  0  0  0  0
  -63.7584  -54.0419   38.0726 H   0  0  0  0  0  0  0  0  0  0  0  0
  -64.2644  -52.7893   35.8635 H   0  0  0  0  0  0  0  0  0  0  0  0
  -62.5173  -52.9240   36.3843 H   0  0  0  0  0  0  0  0  0  0  0  0
  -62.3519  -55.8178   33.5713 H   0  0  0  0  0  0  0  0  0  0  0  0
  -58.3597  -57.9720   35.9877 H   0  0  0  0  0  0  0  0  0  0  0  0
  -61.2664  -60.7514   34.3238 H   0  0  0  0  0  0  0  0  0  0  0  0
  -57.6736  -60.2333   35.5615 H   0  0  0  0  0  0  0  0  0  0  0  0
  -58.9560  -61.5149   35.2884 H   0  0  0  0  0  0  0  0  0  0  0  0
  -60.9678  -56.9746   38.9752 H   0  0  0  0  0  0  0  0  0  0  0  0
  -62.2896  -57.9015   39.9870 H   0  0  0  0  0  0  0  0  0  0  0  0
  -57.9315  -61.8261   33.3211 H   0  0  0  0  0  0  0  0  0  0  0  0
  -58.8384  -60.3027   32.8544 H   0  0  0  0  0  0  0  0  0  0  0  0
  -55.9175  -60.7274   33.3873 H   0  0  0  0  0  0  0  0  0  0  0  0
  -56.8238  -59.7599   32.0939 H   0  0  0  0  0  0  0  0  0  0  0  0
  -56.8379  -57.8659   33.2956 H   0  0  0  0  0  0  0  0  0  0  0  0
  -56.9542  -58.7403   34.8790 H   0  0  0  0  0  0  0  0  0  0  0  0
  -54.7403  -58.4665   35.2196 H   0  0  0  0  0  0  0  0  0  0  0  0
  -54.3808  -59.3238   33.6826 H   0  0  0  0  0  0  0  0  0  0  0  0
  -54.6245  -57.5441   33.6826 H   0  0  0  0  0  0  0  0  0  0  0  0
  -59.2061  -55.7370   36.6829 H   0  0  0  0  0  0  0  0  0  0  0  0
  -63.5719  -59.9420   34.1666 H   0  0  0  0  0  0  0  0  0  0  0  0
  1  5  1  0
  6  1  1  0
  1 17  2  0
  2 11  2  0
  2 14  1  0
  2 22  1  0
  3 11  1  0
  3 15  2  0
  3 23  1  0
  4 12  1  0
  6  7  1  0
  6  8  1  0
  7 10  1  0
  7 11  1  0
  8  9  1  0
  9 12  1  0
 10 12  2  0
 13 14  2  0
 13 15  1  0
 13 16  1  0
 16 18  1  0
 18 19  1  0
 19 20  1  0
 20 21  1  0
  4 24  1  0
  4 25  1  0
  4 26  1  0
  5 27  1  0
  5 28  1  0
  5 29  1  0
  6 30  1  1
  7 31  1  6
  8 32  1  0
  8 33  1  0
  9 34  1  0
  9 35  1  0
 10 36  1  0
 14 37  1  0
 15 38  1  0
 16 39  1  0
 16 40  1  0
 17 41  1  0
 17 42  1  0
 18 43  1  0
 18 44  1  0
 19 45  1  0
 19 46  1  0
 20 47  1  0
 20 48  1  0
 21 49  1  0
 21 50  1  0
 21 51  1  0
 22 52  1  0
 23 53  1  0
M  END
>  <filename_input>  (9) 
7TE8_P0T_docked.sdf

>  <pdb_id>  (9) 
7TE8_P0T

>  <pose_rank>  (9) 
8

>  <num_atoms_heavy>  (9) 
23

>  <num_torsions>  (9) 
6

>  <pose>  (9) 
[-60.401320247537754, -57.22957374848286, 35.869348307830236, 0.18233983959417546, 5.3880774448470214, -2.3102216716514814, 3.3653399599011076, -3.169731114287498, -1.298387154655506, -2.599777316923343, -3.5632869435898606, -1.6649917665625316]

>  <energy>  (9) 
-542.0162968182444

>  <inter_energy>  (9) 
-574.3365565251202

>  <intra_energy>  (9) 
32.89448788451765

>  <rmsd>  (9) 
3.12399

>  <sdf_rank>  (9) 
0

$$$$

     RDKit          3D

 53 54  0  0  0  0  0  0  0  0999 V2000
  -60.3070  -60.9590   35.6293 C   0  0  0  0  0  0  0  0  0  0  0  0
  -59.7686  -57.0347   36.8570 C   0  0  0  0  0  0  0  0  0  0  0  0
  -61.5301  -57.5969   35.2509 C   0  0  0  0  0  0  0  0  0  0  0  0
  -57.4009  -57.6644   31.5654 C   0  0  0  0  0  0  0  0  0  0  0  0
  -59.4209  -61.6394   36.3811 C   0  0  0  0  0  0  0  0  0  0  0  0
  -59.7791  -60.0597   34.5002 C   0  0  1  0  0  0  0  0  0  0  0  0
  -59.1703  -58.7323   35.0302 C   0  0  1  0  0  0  0  0  0  0  0  0
  -58.6857  -60.8164   33.6966 C   0  0  0  0  0  0  0  0  0  0  0  0
  -58.2149  -59.9973   32.4523 C   0  0  0  0  0  0  0  0  0  0  0  0
  -58.4535  -57.9260   33.9358 C   0  0  0  0  0  0  0  0  0  0  0  0
  -60.1724  -57.7823   35.6981 C   0  0  0  0  0  0  0  0  0  0  0  0
  -57.9530  -58.5030   32.7560 C   0  0  0  0  0  0  0  0  0  0  0  0
  -61.9983  -55.9607   37.0364 C   0  0  0  0  0  0  0  0  0  0  0  0
  -60.6661  -56.1458   37.4992 C   0  0  0  0  0  0  0  0  0  0  0  0
  -62.4230  -56.6982   35.8981 C   0  0  0  0  0  0  0  0  0  0  0  0
  -62.9631  -54.9587   37.7625 C   0  0  0  0  0  0  0  0  0  0  0  0
  -61.7987  -61.1032   35.8997 C   0  0  0  0  0  0  0  0  0  0  0  0
  -64.0318  -54.3194   36.8401 C   0  0  0  0  0  0  0  0  0  0  0  0
  -63.5336  -53.0924   36.0447 C   0  0  0  0  0  0  0  0  0  0  0  0
  -62.1315  -53.2101   35.3879 C   0  0  0  0  0  0  0  0  0  0  0  0
  -61.1940  -52.0654   35.8362 C   0  0  0  0  0  0  0  0  0  0  0  0
  -58.4582  -57.2226   37.3060 O   0  0  0  0  0  0  0  0  0  0  0  0
  -61.9340  -58.3099   34.1365 O   0  0  0  0  0  0  0  0  0  0  0  0
  -56.8350  -56.8047   31.9536 H   0  0  0  0  0  0  0  0  0  0  0  0
  -56.7387  -58.2919   30.9508 H   0  0  0  0  0  0  0  0  0  0  0  0
  -58.2391  -57.3042   30.9508 H   0  0  0  0  0  0  0  0  0  0  0  0
  -59.6388  -61.4720   37.4462 H   0  0  0  0  0  0  0  0  0  0  0  0
  -59.4969  -62.7133   36.1556 H   0  0  0  0  0  0  0  0  0  0  0  0
  -58.4030  -61.2885   36.1556 H   0  0  0  0  0  0  0  0  0  0  0  0
  -60.6392  -59.8107   33.8614 H   0  0  0  0  0  0  0  0  0  0  0  0
  -58.4589  -59.0883   35.7899 H   0  0  0  0  0  0  0  0  0  0  0  0
  -57.8214  -60.9971   34.3526 H   0  0  0  0  0  0  0  0  0  0  0  0
  -59.1149  -61.7649   33.3413 H   0  0  0  0  0  0  0  0  0  0  0  0
  -57.2833  -60.4437   32.0746 H   0  0  0  0  0  0  0  0  0  0  0  0
  -59.0287  -60.0379   31.7133 H   0  0  0  0  0  0  0  0  0  0  0  0
  -58.3259  -56.8435   34.0831 H   0  0  0  0  0  0  0  0  0  0  0  0
  -60.3229  -55.5833   38.3800 H   0  0  0  0  0  0  0  0  0  0  0  0
  -63.4468  -56.5735   35.5158 H   0  0  0  0  0  0  0  0  0  0  0  0
  -63.4822  -55.5016   38.5661 H   0  0  0  0  0  0  0  0  0  0  0  0
  -62.3375  -54.1351   38.1372 H   0  0  0  0  0  0  0  0  0  0  0  0
  -62.5248  -60.5486   35.2871 H   0  0  0  0  0  0  0  0  0  0  0  0
  -62.1501  -61.7620   36.7075 H   0  0  0  0  0  0  0  0  0  0  0  0
  -64.3678  -55.0820   36.1221 H   0  0  0  0  0  0  0  0  0  0  0  0
  -64.8404  -53.9628   37.4951 H   0  0  0  0  0  0  0  0  0  0  0  0
  -64.2616  -52.8962   35.2438 H   0  0  0  0  0  0  0  0  0  0  0  0
  -63.4387  -52.2858   36.7866 H   0  0  0  0  0  0  0  0  0  0  0  0
  -61.6825  -54.1723   35.6752 H   0  0  0  0  0  0  0  0  0  0  0  0
  -62.2565  -53.1447   34.2969 H   0  0  0  0  0  0  0  0  0  0  0  0
  -61.1623  -52.0266   36.9351 H   0  0  0  0  0  0  0  0  0  0  0  0
  -60.1816  -52.2466   35.4463 H   0  0  0  0  0  0  0  0  0  0  0  0
  -61.5713  -51.1085   35.4463 H   0  0  0  0  0  0  0  0  0  0  0  0
  -58.1319  -56.7305   38.1006 H   0  0  0  0  0  0  0  0  0  0  0  0
  -62.8581  -58.2128   33.7949 H   0  0  0  0  0  0  0  0  0  0  0  0
  1  5  1  0
  6  1  1  0
  1 17  2  0
  2 11  2  0
  2 14  1  0
  2 22  1  0
  3 11  1  0
  3 15  2  0
  3 23  1  0
  4 12  1  0
  6  7  1  0
  6  8  1  0
  7 10  1  0
  7 11  1  0
  8  9  1  0
  9 12  1  0
 10 12  2  0
 13 14  2  0
 13 15  1  0
 13 16  1  0
 16 18  1  0
 18 19  1  0
 19 20  1  0
 20 21  1  0
  4 24  1  0
  4 25  1  0
  4 26  1  0
  5 27  1  0
  5 28  1  0
  5 29  1  0
  6 30  1  6
  7 31  1  1
  8 32  1  0
  8 33  1  0
  9 34  1  0
  9 35  1  0
 10 36  1  0
 14 37  1  0
 15 38  1  0
 16 39  1  0
 16 40  1  0
 17 41  1  0
 17 42  1  0
 18 43  1  0
 18 44  1  0
 19 45  1  0
 19 46  1  0
 20 47  1  0
 20 48  1  0
 21 49  1  0
 21 50  1  0
 21 51  1  0
 22 52  1  0
 23 53  1  0
M  END
>  <filename_input>  (10) 
7TE8_P0T_docked.sdf

>  <pdb_id>  (10) 
7TE8_P0T

>  <pose_rank>  (10) 
9

>  <num_atoms_heavy>  (10) 
23

>  <num_torsions>  (10) 
6

>  <pose>  (10) 
[-59.768624595682944, -57.03472200213831, 36.85697590175541, 2.705827043421355, 1.3692579268995047, 1.3431190049128634, 0.36123336200781303, -3.13565228470031, -3.1080410891881383, 0.4632486564075671, 4.045443038301683, -0.13163561462653006]

>  <energy>  (10) 
-554.9346642281101

>  <inter_energy>  (10) 
-592.6568499083406

>  <intra_energy>  (10) 
39.05489397999474

>  <rmsd>  (10) 
6.95467

>  <sdf_rank>  (10) 
0

$$$$

     RDKit          3D

 53 54  0  0  0  0  0  0  0  0999 V2000
  -63.3329  -56.4117   39.0837 C   0  0  0  0  0  0  0  0  0  0  0  0
  -61.2284  -55.1061   36.1121 C   0  0  0  0  0  0  0  0  0  0  0  0
  -62.4438  -57.0849   35.3341 C   0  0  0  0  0  0  0  0  0  0  0  0
  -64.9536  -51.5453   36.0004 C   0  0  0  0  0  0  0  0  0  0  0  0
  -63.2896  -56.3864   40.4293 C   0  0  0  0  0  0  0  0  0  0  0  0
  -63.5233  -55.0875   38.3271 C   0  0  1  0  0  0  0  0  0  0  0  0
  -63.6927  -55.2939   36.7967 C   0  0  1  0  0  0  0  0  0  0  0  0
  -64.7812  -54.3526   38.8670 C   0  0  0  0  0  0  0  0  0  0  0  0
  -64.9400  -52.9364   38.2267 C   0  0  0  0  0  0  0  0  0  0  0  0
  -64.0924  -54.0049   36.0616 C   0  0  0  0  0  0  0  0  0  0  0  0
  -62.4571  -55.8505   36.0782 C   0  0  0  0  0  0  0  0  0  0  0  0
  -64.7226  -52.9200   36.6949 C   0  0  0  0  0  0  0  0  0  0  0  0
  -60.0634  -56.8182   34.7451 C   0  0  0  0  0  0  0  0  0  0  0  0
  -60.0658  -55.5897   35.4621 C   0  0  0  0  0  0  0  0  0  0  0  0
  -61.2707  -57.5660   34.6890 C   0  0  0  0  0  0  0  0  0  0  0  0
  -58.7554  -57.3321   34.0472 C   0  0  0  0  0  0  0  0  0  0  0  0
  -63.1798  -57.7347   38.3452 C   0  0  0  0  0  0  0  0  0  0  0  0
  -58.7217  -58.8617   33.8009 C   0  0  0  0  0  0  0  0  0  0  0  0
  -58.2471  -59.2682   32.3882 C   0  0  0  0  0  0  0  0  0  0  0  0
  -57.3063  -58.2733   31.6560 C   0  0  0  0  0  0  0  0  0  0  0  0
  -56.0538  -58.9830   31.0922 C   0  0  0  0  0  0  0  0  0  0  0  0
  -61.2390  -53.8996   36.8181 O   0  0  0  0  0  0  0  0  0  0  0  0
  -63.6192  -57.8129   35.2919 O   0  0  0  0  0  0  0  0  0  0  0  0
  -65.0846  -50.7656   36.7652 H   0  0  0  0  0  0  0  0  0  0  0  0
  -64.0839  -51.3008   35.3728 H   0  0  0  0  0  0  0  0  0  0  0  0
  -65.8554  -51.5985   35.3728 H   0  0  0  0  0  0  0  0  0  0  0  0
  -64.1729  -56.9018   40.8344 H   0  0  0  0  0  0  0  0  0  0  0  0
  -62.3775  -56.8941   40.7763 H   0  0  0  0  0  0  0  0  0  0  0  0
  -63.2828  -55.3426   40.7763 H   0  0  0  0  0  0  0  0  0  0  0  0
  -62.6141  -54.4910   38.4934 H   0  0  0  0  0  0  0  0  0  0  0  0
  -64.4974  -56.0424   36.7495 H   0  0  0  0  0  0  0  0  0  0  0  0
  -65.6730  -54.9523   38.6324 H   0  0  0  0  0  0  0  0  0  0  0  0
  -64.6661  -54.2274   39.9538 H   0  0  0  0  0  0  0  0  0  0  0  0
  -65.9562  -52.5717   38.4374 H   0  0  0  0  0  0  0  0  0  0  0  0
  -64.1642  -52.2941   38.6690 H   0  0  0  0  0  0  0  0  0  0  0  0
  -63.8743  -53.9275   34.9862 H   0  0  0  0  0  0  0  0  0  0  0  0
  -59.1395  -54.9986   35.5134 H   0  0  0  0  0  0  0  0  0  0  0  0
  -61.2982  -58.5212   34.1442 H   0  0  0  0  0  0  0  0  0  0  0  0
  -58.6613  -56.8247   33.0757 H   0  0  0  0  0  0  0  0  0  0  0  0
  -57.9240  -57.1051   34.7308 H   0  0  0  0  0  0  0  0  0  0  0  0
  -63.2148  -57.7583   37.2460 H   0  0  0  0  0  0  0  0  0  0  0  0
  -63.0341  -58.6668   38.9110 H   0  0  0  0  0  0  0  0  0  0  0  0
  -58.0404  -59.3141   34.5366 H   0  0  0  0  0  0  0  0  0  0  0  0
  -59.7572  -59.2194   33.9003 H   0  0  0  0  0  0  0  0  0  0  0  0
  -57.7142  -60.2262   32.4783 H   0  0  0  0  0  0  0  0  0  0  0  0
  -59.1603  -59.3067   31.7761 H   0  0  0  0  0  0  0  0  0  0  0  0
  -57.8567  -57.8074   30.8253 H   0  0  0  0  0  0  0  0  0  0  0  0
  -56.9748  -57.5162   32.3818 H   0  0  0  0  0  0  0  0  0  0  0  0
  -55.4277  -59.3377   31.9242 H   0  0  0  0  0  0  0  0  0  0  0  0
  -56.3640  -59.8395   30.4757 H   0  0  0  0  0  0  0  0  0  0  0  0
  -55.4785  -58.2767   30.4757 H   0  0  0  0  0  0  0  0  0  0  0  0
  -60.4174  -53.3499   36.8710 H   0  0  0  0  0  0  0  0  0  0  0  0
  -63.6549  -58.6668   34.7921 H   0  0  0  0  0  0  0  0  0  0  0  0
  1  5  1  0
  6  1  1  0
  1 17  2  0
  2 11  2  0
  2 14  1  0
  2 22  1  0
  3 11  1  0
  3 15  2  0
  3 23  1  0
  4 12  1  0
  6  7  1  0
  6  8  1  0
  7 10  1  0
  7 11  1  0
  8  9  1  0
  9 12  1  0
 10 12  2  0
 13 14  2  0
 13 15  1  0
 13 16  1  0
 16 18  1  0
 18 19  1  0
 19 20  1  0
 20 21  1  0
  4 24  1  0
  4 25  1  0
  4 26  1  0
  5 27  1  0
  5 28  1  0
  5 29  1  0
  6 30  1  6
  7 31  1  1
  8 32  1  0
  8 33  1  0
  9 34  1  0
  9 35  1  0
 10 36  1  0
 14 37  1  0
 15 38  1  0
 16 39  1  0
 16 40  1  0
 17 41  1  0
 17 42  1  0
 18 43  1  0
 18 44  1  0
 19 45  1  0
 19 46  1  0
 20 47  1  0
 20 48  1  0
 21 49  1  0
 21 50  1  0
 21 51  1  0
 22 52  1  0
 23 53  1  0
M  END
>  <filename_input>  (11) 
7TE8_P0T_docked.sdf

>  <pdb_id>  (11) 
7TE8_P0T

>  <pose_rank>  (11) 
10

>  <num_atoms_heavy>  (11) 
23

>  <num_torsions>  (11) 
6

>  <pose>  (11) 
[-61.228382004681016, -55.10609104278103, 36.11212958841901, -2.4572079107189535, 0.8095815382879461, -5.0952850754803345, -9.45289440820779, 1.424749376765361, -2.993737346148083, -2.0255699854027793, -2.542072594043786, -1.9694111127893987]

>  <energy>  (11) 
-572.0938699523927

>  <inter_energy>  (11) 
-625.5356990615744

>  <intra_energy>  (11) 
61.40109962410788

>  <rmsd>  (11) 
3.15297

>  <sdf_rank>  (11) 
0

$$$$

     RDKit          3D

 53 54  0  0  0  0  0  0  0  0999 V2000
  -60.4425  -56.2824   32.4231 C   0  0  0  0  0  0  0  0  0  0  0  0
  -60.1950  -57.1829   36.1913 C   0  0  0  0  0  0  0  0  0  0  0  0
  -62.3002  -58.0937   35.3331 C   0  0  0  0  0  0  0  0  0  0  0  0
  -56.7810  -60.5851   34.3969 C   0  0  0  0  0  0  0  0  0  0  0  0
  -61.7527  -56.4670   32.6733 C   0  0  0  0  0  0  0  0  0  0  0  0
  -59.4252  -57.2233   33.0880 C   0  0  1  0  0  0  0  0  0  0  0  0
  -60.1056  -58.3520   33.9106 C   0  0  1  0  0  0  0  0  0  0  0  0
  -58.5296  -57.8783   32.0004 C   0  0  0  0  0  0  0  0  0  0  0  0
  -57.3888  -58.7371   32.6342 C   0  0  0  0  0  0  0  0  0  0  0  0
  -59.1103  -59.4149   34.4018 C   0  0  0  0  0  0  0  0  0  0  0  0
  -60.8888  -57.8743   35.1399 C   0  0  0  0  0  0  0  0  0  0  0  0
  -57.8668  -59.6480   33.7898 C   0  0  0  0  0  0  0  0  0  0  0  0
  -62.2822  -56.9342   37.5101 C   0  0  0  0  0  0  0  0  0  0  0  0
  -60.8855  -56.7249   37.3409 C   0  0  0  0  0  0  0  0  0  0  0  0
  -62.9868  -57.6257   36.4877 C   0  0  0  0  0  0  0  0  0  0  0  0
  -63.0194  -56.4028   38.7892 C   0  0  0  0  0  0  0  0  0  0  0  0
  -59.9997  -55.1671   31.4854 C   0  0  0  0  0  0  0  0  0  0  0  0
  -63.9039  -55.1542   38.5439 C   0  0  0  0  0  0  0  0  0  0  0  0
  -63.9304  -54.6717   37.0767 C   0  0  0  0  0  0  0  0  0  0  0  0
  -63.4409  -53.2222   36.8108 C   0  0  0  0  0  0  0  0  0  0  0  0
  -61.9605  -53.1931   36.3659 C   0  0  0  0  0  0  0  0  0  0  0  0
  -58.8226  -56.9816   36.0180 O   0  0  0  0  0  0  0  0  0  0  0  0
  -62.9821  -58.7583   34.3297 O   0  0  0  0  0  0  0  0  0  0  0  0
  -56.8314  -60.5416   35.4949 H   0  0  0  0  0  0  0  0  0  0  0  0
  -56.9591  -61.6177   34.0623 H   0  0  0  0  0  0  0  0  0  0  0  0
  -55.7855  -60.2578   34.0623 H   0  0  0  0  0  0  0  0  0  0  0  0
  -61.9186  -56.4903   33.7605 H   0  0  0  0  0  0  0  0  0  0  0  0
  -62.3301  -55.6413   32.2319 H   0  0  0  0  0  0  0  0  0  0  0  0
  -62.0796  -57.4200   32.2319 H   0  0  0  0  0  0  0  0  0  0  0  0
  -58.8265  -56.6104   33.7778 H   0  0  0  0  0  0  0  0  0  0  0  0
  -60.8126  -58.7776   33.1832 H   0  0  0  0  0  0  0  0  0  0  0  0
  -59.1535  -58.5257   31.3667 H   0  0  0  0  0  0  0  0  0  0  0  0
  -58.0666  -57.0757   31.4074 H   0  0  0  0  0  0  0  0  0  0  0  0
  -56.9542  -59.3721   31.8481 H   0  0  0  0  0  0  0  0  0  0  0  0
  -56.6557  -58.0356   33.0591 H   0  0  0  0  0  0  0  0  0  0  0  0
  -59.3849  -60.0235   35.2760 H   0  0  0  0  0  0  0  0  0  0  0  0
  -60.3258  -56.1926   38.1241 H   0  0  0  0  0  0  0  0  0  0  0  0
  -64.0682  -57.7998   36.5897 H   0  0  0  0  0  0  0  0  0  0  0  0
  -63.6606  -57.2082   39.1767 H   0  0  0  0  0  0  0  0  0  0  0  0
  -62.2368  -56.0992   39.5001 H   0  0  0  0  0  0  0  0  0  0  0  0
  -58.9301  -55.0141   31.2792 H   0  0  0  0  0  0  0  0  0  0  0  0
  -60.7495  -54.5145   31.0144 H   0  0  0  0  0  0  0  0  0  0  0  0
  -64.9336  -55.3969   38.8453 H   0  0  0  0  0  0  0  0  0  0  0  0
  -63.4663  -54.3371   39.1362 H   0  0  0  0  0  0  0  0  0  0  0  0
  -63.2941  -55.3512   36.4907 H   0  0  0  0  0  0  0  0  0  0  0  0
  -64.9924  -54.6756   36.7900 H   0  0  0  0  0  0  0  0  0  0  0  0
  -64.0604  -52.7761   36.0189 H   0  0  0  0  0  0  0  0  0  0  0  0
  -63.5295  -52.6523   37.7475 H   0  0  0  0  0  0  0  0  0  0  0  0
  -61.3110  -53.1804   37.2536 H   0  0  0  0  0  0  0  0  0  0  0  0
  -61.7410  -54.0871   35.7638 H   0  0  0  0  0  0  0  0  0  0  0  0
  -61.7763  -52.2912   35.7638 H   0  0  0  0  0  0  0  0  0  0  0  0
  -58.2996  -56.5103   36.7140 H   0  0  0  0  0  0  0  0  0  0  0  0
  -63.9528  -58.9304   34.4209 H   0  0  0  0  0  0  0  0  0  0  0  0
  1  5  1  0
  6  1  1  0
  1 17  2  0
  2 11  2  0
  2 14  1  0
  2 22  1  0
  3 11  1  0
  3 15  2  0
  3 23  1  0
  4 12  1  0
  6  7  1  0
  6  8  1  0
  7 10  1  0
  7 11  1  0
  8  9  1  0
  9 12  1  0
 10 12  2  0
 13 14  2  0
 13 15  1  0
 13 16  1  0
 16 18  1  0
 18 19  1  0
 19 20  1  0
 20 21  1  0
  4 24  1  0
  4 25  1  0
  4 26  1  0
  5 27  1  0
  5 28  1  0
  5 29  1  0
  6 30  1  1
  7 31  1  6
  8 32  1  0
  8 33  1  0
  9 34  1  0
  9 35  1  0
 10 36  1  0
 14 37  1  0
 15 38  1  0
 16 39  1  0
 16 40  1  0
 17 41  1  0
 17 42  1  0
 18 43  1  0
 18 44  1  0
 19 45  1  0
 19 46  1  0
 20 47  1  0
 20 48  1  0
 21 49  1  0
 21 50  1  0
 21 51  1  0
 22 52  1  0
 23 53  1  0
M  END
>  <filename_input>  (12) 
7TE8_P0T_docked.sdf

>  <pdb_id>  (12) 
7TE8_P0T

>  <pose_rank>  (12) 
11

>  <num_atoms_heavy>  (12) 
23

>  <num_torsions>  (12) 
6

>  <pose>  (12) 
[-60.19502039677096, -57.182850236803354, 36.19132516005148, 3.185036810025688, 1.8187951188269094, 0.9288032395983093, 9.379702702906545, -1.7465806926534875, -3.890419691737101, 1.9381031130322701, 1.174729590646696, -2.5559735792217904]

>  <energy>  (12) 
-454.2323619212499

>  <inter_energy>  (12) 
-530.6118680909201

>  <intra_energy>  (12) 
77.6992910349866

>  <rmsd>  (12) 
6.37661

>  <sdf_rank>  (12) 
0

$$$$

     RDKit          3D

 53 54  0  0  0  0  0  0  0  0999 V2000
  -63.2422  -56.1741   38.7650 C   0  0  0  0  0  0  0  0  0  0  0  0
  -61.0512  -57.4072   35.5628 C   0  0  0  0  0  0  0  0  0  0  0  0
  -63.2849  -58.3864   35.7872 C   0  0  0  0  0  0  0  0  0  0  0  0
  -61.4892  -52.5929   34.3021 C   0  0  0  0  0  0  0  0  0  0  0  0
  -63.9611  -57.2551   38.4075 C   0  0  0  0  0  0  0  0  0  0  0  0
  -62.5710  -55.3379   37.6639 C   0  0  1  0  0  0  0  0  0  0  0  0
  -62.9488  -55.8189   36.2358 C   0  0  1  0  0  0  0  0  0  0  0  0
  -62.9902  -53.8488   37.8088 C   0  0  0  0  0  0  0  0  0  0  0  0
  -62.2263  -52.9344   36.7984 C   0  0  0  0  0  0  0  0  0  0  0  0
  -62.4561  -54.8657   35.1356 C   0  0  0  0  0  0  0  0  0  0  0  0
  -62.4425  -57.2197   35.8699 C   0  0  0  0  0  0  0  0  0  0  0  0
  -62.1677  -53.5091   35.3631 C   0  0  0  0  0  0  0  0  0  0  0  0
  -61.3873  -59.8328   35.1613 C   0  0  0  0  0  0  0  0  0  0  0  0
  -60.5467  -58.6870   35.2228 C   0  0  0  0  0  0  0  0  0  0  0  0
  -62.7692  -59.6687   35.4505 C   0  0  0  0  0  0  0  0  0  0  0  0
  -60.7946  -61.2385   34.7943 C   0  0  0  0  0  0  0  0  0  0  0  0
  -63.1212  -55.7967   40.2354 C   0  0  0  0  0  0  0  0  0  0  0  0
  -61.1252  -62.3570   35.8145 C   0  0  0  0  0  0  0  0  0  0  0  0
  -62.6357  -62.6224   36.0003 C   0  0  0  0  0  0  0  0  0  0  0  0
  -63.0326  -63.6604   37.0848 C   0  0  0  0  0  0  0  0  0  0  0  0
  -64.1694  -64.5879   36.5971 C   0  0  0  0  0  0  0  0  0  0  0  0
  -60.2318  -56.2765   35.6247 O   0  0  0  0  0  0  0  0  0  0  0  0
  -64.6268  -58.2220   36.0797 O   0  0  0  0  0  0  0  0  0  0  0  0
  -60.9089  -51.8095   34.8115 H   0  0  0  0  0  0  0  0  0  0  0  0
  -60.8179  -53.1957   33.6727 H   0  0  0  0  0  0  0  0  0  0  0  0
  -62.2614  -52.1266   33.6727 H   0  0  0  0  0  0  0  0  0  0  0  0
  -64.3093  -57.7787   39.3100 H   0  0  0  0  0  0  0  0  0  0  0  0
  -64.8285  -56.9374   37.8102 H   0  0  0  0  0  0  0  0  0  0  0  0
  -63.3328  -57.9322   37.8102 H   0  0  0  0  0  0  0  0  0  0  0  0
  -61.4847  -55.4576   37.7891 H   0  0  0  0  0  0  0  0  0  0  0  0
  -64.0478  -55.8392   36.2791 H   0  0  0  0  0  0  0  0  0  0  0  0
  -64.0708  -53.7625   37.6217 H   0  0  0  0  0  0  0  0  0  0  0  0
  -62.7400  -53.5190   38.8279 H   0  0  0  0  0  0  0  0  0  0  0  0
  -62.7324  -51.9585   36.7616 H   0  0  0  0  0  0  0  0  0  0  0  0
  -61.1891  -52.8552   37.1563 H   0  0  0  0  0  0  0  0  0  0  0  0
  -62.3226  -55.2651   34.1194 H   0  0  0  0  0  0  0  0  0  0  0  0
  -59.4751  -58.7974   35.0001 H   0  0  0  0  0  0  0  0  0  0  0  0
  -63.4430  -60.5374   35.4137 H   0  0  0  0  0  0  0  0  0  0  0  0
  -61.1962  -61.5363   33.8145 H   0  0  0  0  0  0  0  0  0  0  0  0
  -59.7002  -61.1277   34.7924 H   0  0  0  0  0  0  0  0  0  0  0  0
  -62.5346  -54.9142   40.5303 H   0  0  0  0  0  0  0  0  0  0  0  0
  -63.6205  -56.4067   41.0026 H   0  0  0  0  0  0  0  0  0  0  0  0
  -60.6517  -63.2883   35.4701 H   0  0  0  0  0  0  0  0  0  0  0  0
  -60.7431  -62.0177   36.7886 H   0  0  0  0  0  0  0  0  0  0  0  0
  -63.1122  -61.6665   36.2633 H   0  0  0  0  0  0  0  0  0  0  0  0
  -62.9725  -63.0565   35.0473 H   0  0  0  0  0  0  0  0  0  0  0  0
  -62.1530  -64.2732   37.3311 H   0  0  0  0  0  0  0  0  0  0  0  0
  -63.3910  -63.1133   37.9693 H   0  0  0  0  0  0  0  0  0  0  0  0
  -64.6925  -65.0146   37.4656 H   0  0  0  0  0  0  0  0  0  0  0  0
  -64.8801  -64.0085   35.9894 H   0  0  0  0  0  0  0  0  0  0  0  0
  -63.7445  -65.4003   35.9894 H   0  0  0  0  0  0  0  0  0  0  0  0
  -59.2658  -56.3535   35.4219 H   0  0  0  0  0  0  0  0  0  0  0  0
  -65.2416  -58.9967   36.0355 H   0  0  0  0  0  0  0  0  0  0  0  0
  1  5  1  0
  6  1  1  0
  1 17  2  0
  2 11  2  0
  2 14  1  0
  2 22  1  0
  3 11  1  0
  3 15  2  0
  3 23  1  0
  4 12  1  0
  6  7  1  0
  6  8  1  0
  7 10  1  0
  7 11  1  0
  8  9  1  0
  9 12  1  0
 10 12  2  0
 13 14  2  0
 13 15  1  0
 13 16  1  0
 16 18  1  0
 18 19  1  0
 19 20  1  0
 20 21  1  0
  4 24  1  0
  4 25  1  0
  4 26  1  0
  5 27  1  0
  5 28  1  0
  5 29  1  0
  6 30  1  1
  7 31  1  1
  8 32  1  0
  8 33  1  0
  9 34  1  0
  9 35  1  0
 10 36  1  0
 14 37  1  0
 15 38  1  0
 16 39  1  0
 16 40  1  0
 17 41  1  0
 17 42  1  0
 18 43  1  0
 18 44  1  0
 19 45  1  0
 19 46  1  0
 20 47  1  0
 20 48  1  0
 21 49  1  0
 21 50  1  0
 21 51  1  0
 22 52  1  0
 23 53  1  0
M  END
>  <filename_input>  (13) 
7TE8_P0T_docked.sdf

>  <pdb_id>  (13) 
7TE8_P0T

>  <pose_rank>  (13) 
12

>  <num_atoms_heavy>  (13) 
23

>  <num_torsions>  (13) 
6

>  <pose>  (13) 
[-61.051240600163695, -57.40724092083298, 35.562797401509414, 4.755332574222505, -2.4143845476917756, 2.7945954819093224, 15.42372223675203, -1.7214598007590671, 9.041948201541683, 2.9643874434403052, 0.21274728773667845, -6.655093257051121]

>  <energy>  (13) 
-408.82122720327754

>  <inter_energy>  (13) 
-513.456889843884

>  <intra_energy>  (13) 
123.15188267255414

>  <rmsd>  (13) 
4.58958

>  <sdf_rank>  (13) 
0

$$$$

     RDKit          3D

 53 54  0  0  0  0  0  0  0  0999 V2000
  -63.8335  -56.6816   38.5954 C   0  0  0  0  0  0  0  0  0  0  0  0
  -60.9849  -55.4449   36.2290 C   0  0  0  0  0  0  0  0  0  0  0  0
  -62.4275  -56.9922   34.9949 C   0  0  0  0  0  0  0  0  0  0  0  0
  -63.7764  -51.1478   36.3171 C   0  0  0  0  0  0  0  0  0  0  0  0
  -63.6300  -57.7074   37.7471 C   0  0  0  0  0  0  0  0  0  0  0  0
  -63.5928  -55.2495   38.0916 C   0  0  1  0  0  0  0  0  0  0  0  0
  -63.5150  -55.1675   36.5422 C   0  0  1  0  0  0  0  0  0  0  0  0
  -64.7428  -54.3242   38.5766 C   0  0  0  0  0  0  0  0  0  0  0  0
  -64.4739  -52.8300   38.2081 C   0  0  0  0  0  0  0  0  0  0  0  0
  -63.4866  -53.7216   36.0222 C   0  0  0  0  0  0  0  0  0  0  0  0
  -62.3152  -55.8889   35.9156 C   0  0  0  0  0  0  0  0  0  0  0  0
  -63.9773  -52.6284   36.7567 C   0  0  0  0  0  0  0  0  0  0  0  0
  -59.9783  -57.1868   34.7764 C   0  0  0  0  0  0  0  0  0  0  0  0
  -59.8522  -56.0882   35.6711 C   0  0  0  0  0  0  0  0  0  0  0  0
  -61.2850  -57.6360   34.4436 C   0  0  0  0  0  0  0  0  0  0  0  0
  -58.7033  -57.8856   34.1863 C   0  0  0  0  0  0  0  0  0  0  0  0
  -64.3066  -56.9557   40.0167 C   0  0  0  0  0  0  0  0  0  0  0  0
  -58.3129  -59.2066   34.8961 C   0  0  0  0  0  0  0  0  0  0  0  0
  -58.0445  -60.3883   33.9380 C   0  0  0  0  0  0  0  0  0  0  0  0
  -58.9383  -61.6456   34.1149 C   0  0  0  0  0  0  0  0  0  0  0  0
  -59.9247  -61.4825   35.2942 C   0  0  0  0  0  0  0  0  0  0  0  0
  -60.8693  -54.3644   37.1082 O   0  0  0  0  0  0  0  0  0  0  0  0
  -63.7017  -57.4311   34.6831 O   0  0  0  0  0  0  0  0  0  0  0  0
  -63.6897  -50.5093   37.2086 H   0  0  0  0  0  0  0  0  0  0  0  0
  -62.8588  -51.0650   35.7162 H   0  0  0  0  0  0  0  0  0  0  0  0
  -64.6388  -50.8235   35.7162 H   0  0  0  0  0  0  0  0  0  0  0  0
  -63.4476  -58.6275   38.3216 H   0  0  0  0  0  0  0  0  0  0  0  0
  -64.5192  -57.8410   37.1134 H   0  0  0  0  0  0  0  0  0  0  0  0
  -62.7572  -57.4916   37.1134 H   0  0  0  0  0  0  0  0  0  0  0  0
  -62.6244  -54.9255   38.5006 H   0  0  0  0  0  0  0  0  0  0  0  0
  -64.4378  -55.6810   36.2343 H   0  0  0  0  0  0  0  0  0  0  0  0
  -65.6825  -54.6448   38.1032 H   0  0  0  0  0  0  0  0  0  0  0  0
  -64.8077  -54.4017   39.6719 H   0  0  0  0  0  0  0  0  0  0  0  0
  -65.4099  -52.2665   38.3366 H   0  0  0  0  0  0  0  0  0  0  0  0
  -63.6750  -52.4727   38.8744 H   0  0  0  0  0  0  0  0  0  0  0  0
  -63.0611  -53.5329   35.0256 H   0  0  0  0  0  0  0  0  0  0  0  0
  -58.8475  -55.7279   35.9372 H   0  0  0  0  0  0  0  0  0  0  0  0
  -61.4135  -58.4854   33.7566 H   0  0  0  0  0  0  0  0  0  0  0  0
  -58.8921  -58.1074   33.1255 H   0  0  0  0  0  0  0  0  0  0  0  0
  -57.8653  -57.1888   34.3352 H   0  0  0  0  0  0  0  0  0  0  0  0
  -64.4736  -56.1196   40.7117 H   0  0  0  0  0  0  0  0  0  0  0  0
  -64.4814  -57.9899   40.3483 H   0  0  0  0  0  0  0  0  0  0  0  0
  -57.4006  -59.0254   35.4834 H   0  0  0  0  0  0  0  0  0  0  0  0
  -59.1723  -59.4953   35.5190 H   0  0  0  0  0  0  0  0  0  0  0  0
  -58.1837  -60.0223   32.9100 H   0  0  0  0  0  0  0  0  0  0  0  0
  -57.0234  -60.7240   34.1715 H   0  0  0  0  0  0  0  0  0  0  0  0
  -59.5115  -61.8090   33.1903 H   0  0  0  0  0  0  0  0  0  0  0  0
  -58.2850  -62.5042   34.3295 H   0  0  0  0  0  0  0  0  0  0  0  0
  -59.3781  -61.5729   36.2445 H   0  0  0  0  0  0  0  0  0  0  0  0
  -60.4023  -60.4932   35.2386 H   0  0  0  0  0  0  0  0  0  0  0  0
  -60.6954  -62.2654   35.2386 H   0  0  0  0  0  0  0  0  0  0  0  0
  -59.9743  -54.0210   37.3556 H   0  0  0  0  0  0  0  0  0  0  0  0
  -63.8253  -58.1863   34.0550 H   0  0  0  0  0  0  0  0  0  0  0  0
  1  5  1  0
  6  1  1  0
  1 17  2  0
  2 11  2  0
  2 14  1  0
  2 22  1  0
  3 11  1  0
  3 15  2  0
  3 23  1  0
  4 12  1  0
  6  7  1  0
  6  8  1  0
  7 10  1  0
  7 11  1  0
  8  9  1  0
  9 12  1  0
 10 12  2  0
 13 14  2  0
 13 15  1  0
 13 16  1  0
 16 18  1  0
 18 19  1  0
 19 20  1  0
 20 21  1  0
  4 24  1  0
  4 25  1  0
  4 26  1  0
  5 27  1  0
  5 28  1  0
  5 29  1  0
  6 30  1  1
  7 31  1  6
  8 32  1  0
  8 33  1  0
  9 34  1  0
  9 35  1  0
 10 36  1  0
 14 37  1  0
 15 38  1  0
 16 39  1  0
 16 40  1  0
 17 41  1  0
 17 42  1  0
 18 43  1  0
 18 44  1  0
 19 45  1  0
 19 46  1  0
 20 47  1  0
 20 48  1  0
 21 49  1  0
 21 50  1  0
 21 51  1  0
 22 52  1  0
 23 53  1  0
M  END
>  <filename_input>  (14) 
7TE8_P0T_docked.sdf

>  <pdb_id>  (14) 
7TE8_P0T

>  <pose_rank>  (14) 
13

>  <num_atoms_heavy>  (14) 
23

>  <num_torsions>  (14) 
6

>  <pose>  (14) 
[-60.98486627856516, -55.44492318273601, 36.228965718434765, 4.24484043284195, -3.6489199902566245, 3.8955516190707358, 15.635914712497202, -1.5402110690450725, 8.577796985396269, 4.201960999876917, 1.1772917859990601, -4.282236207491706]

>  <energy>  (14) 
-515.6474190313861

>  <inter_energy>  (14) 
-588.6217254443562

>  <intra_energy>  (14) 
72.20578766338862

>  <rmsd>  (14) 
3.40744

>  <sdf_rank>  (14) 
0

$$$$

     RDKit          3D

 53 54  0  0  0  0  0  0  0  0999 V2000
  -60.2393  -56.8594   33.1067 C   0  0  0  0  0  0  0  0  0  0  0  0
  -63.1166  -58.6077   35.1406 C   0  0  0  0  0  0  0  0  0  0  0  0
  -61.0078  -59.8137   35.4519 C   0  0  0  0  0  0  0  0  0  0  0  0
  -62.5833  -54.4605   38.0632 C   0  0  0  0  0  0  0  0  0  0  0  0
  -59.1791  -56.1651   32.6517 C   0  0  0  0  0  0  0  0  0  0  0  0
  -61.0541  -56.2800   34.2740 C   0  0  1  0  0  0  0  0  0  0  0  0
  -61.0182  -57.1870   35.5347 C   0  0  1  0  0  0  0  0  0  0  0  0
  -60.4968  -54.8814   34.6577 C   0  0  0  0  0  0  0  0  0  0  0  0
  -61.3772  -54.1896   35.7472 C   0  0  0  0  0  0  0  0  0  0  0  0
  -61.6495  -56.5205   36.7672 C   0  0  0  0  0  0  0  0  0  0  0  0
  -61.6990  -58.5516   35.3696 C   0  0  0  0  0  0  0  0  0  0  0  0
  -61.7759  -55.1282   36.9108 C   0  0  0  0  0  0  0  0  0  0  0  0
  -63.0814  -61.0871   35.0483 C   0  0  0  0  0  0  0  0  0  0  0  0
  -63.7798  -59.8497   34.9810 C   0  0  0  0  0  0  0  0  0  0  0  0
  -61.6804  -61.0561   35.2849 C   0  0  0  0  0  0  0  0  0  0  0  0
  -63.8435  -62.4449   34.8542 C   0  0  0  0  0  0  0  0  0  0  0  0
  -60.6151  -58.1831   32.4542 C   0  0  0  0  0  0  0  0  0  0  0  0
  -65.1396  -62.3350   34.0118 C   0  0  0  0  0  0  0  0  0  0  0  0
  -66.2649  -63.2996   34.4471 C   0  0  0  0  0  0  0  0  0  0  0  0
  -65.8855  -64.3893   35.4862 C   0  0  0  0  0  0  0  0  0  0  0  0
  -67.0999  -64.8007   36.3500 C   0  0  0  0  0  0  0  0  0  0  0  0
  -63.7958  -57.3876   35.0765 O   0  0  0  0  0  0  0  0  0  0  0  0
  -59.6427  -59.7763   35.6722 O   0  0  0  0  0  0  0  0  0  0  0  0
  -62.1820  -54.7923   39.0321 H   0  0  0  0  0  0  0  0  0  0  0  0
  -62.4967  -53.3667   37.9857 H   0  0  0  0  0  0  0  0  0  0  0  0
  -63.6414  -54.7510   37.9857 H   0  0  0  0  0  0  0  0  0  0  0  0
  -58.5972  -55.7841   33.5039 H   0  0  0  0  0  0  0  0  0  0  0  0
  -58.5449  -56.8235   32.0397 H   0  0  0  0  0  0  0  0  0  0  0  0
  -59.5290  -55.3207   32.0397 H   0  0  0  0  0  0  0  0  0  0  0  0
  -62.0973  -56.2105   33.9320 H   0  0  0  0  0  0  0  0  0  0  0  0
  -59.9391  -57.3444   35.6788 H   0  0  0  0  0  0  0  0  0  0  0  0
  -59.4746  -54.9990   35.0468 H   0  0  0  0  0  0  0  0  0  0  0  0
  -60.5046  -54.2494   33.7574 H   0  0  0  0  0  0  0  0  0  0  0  0
  -60.8134  -53.3413   36.1625 H   0  0  0  0  0  0  0  0  0  0  0  0
  -62.3087  -53.8729   35.2552 H   0  0  0  0  0  0  0  0  0  0  0  0
  -62.0209  -57.1653   37.5773 H   0  0  0  0  0  0  0  0  0  0  0  0
  -64.8647  -59.8572   34.8000 H   0  0  0  0  0  0  0  0  0  0  0  0
  -61.1134  -61.9972   35.3392 H   0  0  0  0  0  0  0  0  0  0  0  0
  -63.1658  -63.1515   34.3528 H   0  0  0  0  0  0  0  0  0  0  0  0
  -64.1473  -62.7813   35.8565 H   0  0  0  0  0  0  0  0  0  0  0  0
  -61.4807  -58.7524   32.8239 H   0  0  0  0  0  0  0  0  0  0  0  0
  -60.0210  -58.5700   31.6132 H   0  0  0  0  0  0  0  0  0  0  0  0
  -65.5175  -61.3052   34.0941 H   0  0  0  0  0  0  0  0  0  0  0  0
  -64.8698  -62.6105   32.9816 H   0  0  0  0  0  0  0  0  0  0  0  0
  -67.0745  -62.6936   34.8800 H   0  0  0  0  0  0  0  0  0  0  0  0
  -66.5410  -63.8516   33.5367 H   0  0  0  0  0  0  0  0  0  0  0  0
  -65.5102  -65.2753   34.9532 H   0  0  0  0  0  0  0  0  0  0  0  0
  -65.1143  -63.9752   36.1525 H   0  0  0  0  0  0  0  0  0  0  0  0
  -66.8391  -64.7124   37.4150 H   0  0  0  0  0  0  0  0  0  0  0  0
  -67.9505  -64.1406   36.1248 H   0  0  0  0  0  0  0  0  0  0  0  0
  -67.3741  -65.8419   36.1248 H   0  0  0  0  0  0  0  0  0  0  0  0
  -64.7733  -57.3729   34.9205 H   0  0  0  0  0  0  0  0  0  0  0  0
  -59.1283  -60.6197   35.7357 H   0  0  0  0  0  0  0  0  0  0  0  0
  1  5  1  0
  6  1  1  0
  1 17  2  0
  2 11  2  0
  2 14  1  0
  2 22  1  0
  3 11  1  0
  3 15  2  0
  3 23  1  0
  4 12  1  0
  6  7  1  0
  6  8  1  0
  7 10  1  0
  7 11  1  0
  8  9  1  0
  9 12  1  0
 10 12  2  0
 13 14  2  0
 13 15  1  0
 13 16  1  0
 16 18  1  0
 18 19  1  0
 19 20  1  0
 20 21  1  0
  4 24  1  0
  4 25  1  0
  4 26  1  0
  5 27  1  0
  5 28  1  0
  5 29  1  0
  6 30  1  6
  7 31  1  1
  8 32  1  0
  8 33  1  0
  9 34  1  0
  9 35  1  0
 10 36  1  0
 14 37  1  0
 15 38  1  0
 16 39  1  0
 16 40  1  0
 17 41  1  0
 17 42  1  0
 18 43  1  0
 18 44  1  0
 19 45  1  0
 19 46  1  0
 20 47  1  0
 20 48  1  0
 21 49  1  0
 21 50  1  0
 21 51  1  0
 22 52  1  0
 23 53  1  0
M  END
>  <filename_input>  (15) 
7TE8_P0T_docked.sdf

>  <pdb_id>  (15) 
7TE8_P0T

>  <pose_rank>  (15) 
14

>  <num_atoms_heavy>  (15) 
23

>  <num_torsions>  (15) 
6

>  <pose>  (15) 
[-63.11657236146624, -58.607696965876805, 35.14064440364377, 0.12057164508477922, -3.3391168783087006, -0.7009821023238028, -9.532773174097525, 2.4188059036785727, 13.559549369410252, -13.20264445489387, -3.1731633450872128, -1.599138271041898]

>  <energy>  (15) 
-346.86510910523447

>  <inter_energy>  (15) 
-383.4058825539955

>  <intra_energy>  (15) 
42.569289514176454

>  <rmsd>  (15) 
5.35033

>  <sdf_rank>  (15) 
0

$$$$

     RDKit          3D

 53 54  0  0  0  0  0  0  0  0999 V2000
  -60.1369  -57.3447   35.3238 C   0  0  0  0  0  0  0  0  0  0  0  0
  -62.2454  -60.1725   34.5259 C   0  0  0  0  0  0  0  0  0  0  0  0
  -60.1733  -61.4277   34.8851 C   0  0  0  0  0  0  0  0  0  0  0  0
  -57.1198  -60.1666   30.9938 C   0  0  0  0  0  0  0  0  0  0  0  0
  -60.0914  -57.5842   36.6481 C   0  0  0  0  0  0  0  0  0  0  0  0
  -59.2653  -58.1991   34.3897 C   0  0  1  0  0  0  0  0  0  0  0  0
  -60.1030  -59.1805   33.5244 C   0  0  1  0  0  0  0  0  0  0  0  0
  -58.4543  -57.2748   33.4401 C   0  0  0  0  0  0  0  0  0  0  0  0
  -57.4489  -58.0887   32.5641 C   0  0  0  0  0  0  0  0  0  0  0  0
  -59.2678  -59.8844   32.4434 C   0  0  0  0  0  0  0  0  0  0  0  0
  -60.8285  -60.2792   34.3113 C   0  0  0  0  0  0  0  0  0  0  0  0
  -58.0604  -59.3673   31.9435 C   0  0  0  0  0  0  0  0  0  0  0  0
  -62.2923  -62.3058   35.7925 C   0  0  0  0  0  0  0  0  0  0  0  0
  -62.9499  -61.1690   35.2460 C   0  0  0  0  0  0  0  0  0  0  0  0
  -60.8891  -62.4265   35.6019 C   0  0  0  0  0  0  0  0  0  0  0  0
  -63.1039  -63.3981   36.5736 C   0  0  0  0  0  0  0  0  0  0  0  0
  -61.0513  -56.2542   34.7819 C   0  0  0  0  0  0  0  0  0  0  0  0
  -63.8333  -62.8711   37.8352 C   0  0  0  0  0  0  0  0  0  0  0  0
  -63.7644  -63.8196   39.0526 C   0  0  0  0  0  0  0  0  0  0  0  0
  -63.7280  -65.3419   38.7487 C   0  0  0  0  0  0  0  0  0  0  0  0
  -63.2768  -66.1587   39.9814 C   0  0  0  0  0  0  0  0  0  0  0  0
  -62.8843  -59.0523   33.9864 O   0  0  0  0  0  0  0  0  0  0  0  0
  -58.8093  -61.5445   34.6874 O   0  0  0  0  0  0  0  0  0  0  0  0
  -56.4164  -60.7642   31.5921 H   0  0  0  0  0  0  0  0  0  0  0  0
  -57.7208  -60.8344   30.3592 H   0  0  0  0  0  0  0  0  0  0  0  0
  -56.5577  -59.4656   30.3592 H   0  0  0  0  0  0  0  0  0  0  0  0
  -60.2694  -56.6474   37.1965 H   0  0  0  0  0  0  0  0  0  0  0  0
  -60.8661  -58.3181   36.9148 H   0  0  0  0  0  0  0  0  0  0  0  0
  -59.1014  -57.9828   36.9148 H   0  0  0  0  0  0  0  0  0  0  0  0
  -58.5971  -58.7929   35.0306 H   0  0  0  0  0  0  0  0  0  0  0  0
  -60.8526  -58.5134   33.0737 H   0  0  0  0  0  0  0  0  0  0  0  0
  -59.1530  -56.7414   32.7788 H   0  0  0  0  0  0  0  0  0  0  0  0
  -57.8792  -56.5683   34.0566 H   0  0  0  0  0  0  0  0  0  0  0  0
  -57.0954  -57.4411   31.7482 H   0  0  0  0  0  0  0  0  0  0  0  0
  -56.6322  -58.4112   33.2268 H   0  0  0  0  0  0  0  0  0  0  0  0
  -59.6332  -60.8407   32.0409 H   0  0  0  0  0  0  0  0  0  0  0  0
  -64.0355  -61.0605   35.3863 H   0  0  0  0  0  0  0  0  0  0  0  0
  -60.3539  -63.2963   36.0107 H   0  0  0  0  0  0  0  0  0  0  0  0
  -63.8566  -63.8209   35.8920 H   0  0  0  0  0  0  0  0  0  0  0  0
  -62.3739  -64.1441   36.9208 H   0  0  0  0  0  0  0  0  0  0  0  0
  -61.0905  -56.0564   33.7005 H   0  0  0  0  0  0  0  0  0  0  0  0
  -61.6727  -55.6643   35.4717 H   0  0  0  0  0  0  0  0  0  0  0  0
  -63.3783  -61.9111   38.1204 H   0  0  0  0  0  0  0  0  0  0  0  0
  -64.8964  -62.7781   37.5684 H   0  0  0  0  0  0  0  0  0  0  0  0
  -62.8543  -63.5707   39.6181 H   0  0  0  0  0  0  0  0  0  0  0  0
  -64.7043  -63.6563   39.6002 H   0  0  0  0  0  0  0  0  0  0  0  0
  -64.7349  -65.6707   38.4519 H   0  0  0  0  0  0  0  0  0  0  0  0
  -63.0036  -65.5135   37.9388 H   0  0  0  0  0  0  0  0  0  0  0  0
  -63.5696  -65.6286   40.8997 H   0  0  0  0  0  0  0  0  0  0  0  0
  -63.7560  -67.1486   39.9608 H   0  0  0  0  0  0  0  0  0  0  0  0
  -62.1837  -66.2800   39.9608 H   0  0  0  0  0  0  0  0  0  0  0  0
  -63.8597  -58.9329   34.1069 H   0  0  0  0  0  0  0  0  0  0  0  0
  -58.3189  -62.3178   35.0640 H   0  0  0  0  0  0  0  0  0  0  0  0
  1  5  1  0
  6  1  1  0
  1 17  2  0
  2 11  2  0
  2 14  1  0
  2 22  1  0
  3 11  1  0
  3 15  2  0
  3 23  1  0
  4 12  1  0
  6  7  1  0
  6  8  1  0
  7 10  1  0
  7 11  1  0
  8  9  1  0
  9 12  1  0
 10 12  2  0
 13 14  2  0
 13 15  1  0
 13 16  1  0
 16 18  1  0
 18 19  1  0
 19 20  1  0
 20 21  1  0
  4 24  1  0
  4 25  1  0
  4 26  1  0
  5 27  1  0
  5 28  1  0
  5 29  1  0
  6 30  1  1
  7 31  1  6
  8 32  1  0
  8 33  1  0
  9 34  1  0
  9 35  1  0
 10 36  1  0
 14 37  1  0
 15 38  1  0
 16 39  1  0
 16 40  1  0
 17 41  1  0
 17 42  1  0
 18 43  1  0
 18 44  1  0
 19 45  1  0
 19 46  1  0
 20 47  1  0
 20 48  1  0
 21 49  1  0
 21 50  1  0
 21 51  1  0
 22 52  1  0
 23 53  1  0
M  END
>  <filename_input>  (16) 
7TE8_P0T_docked.sdf

>  <pdb_id>  (16) 
7TE8_P0T

>  <pose_rank>  (16) 
15

>  <num_atoms_heavy>  (16) 
23

>  <num_torsions>  (16) 
6

>  <pose>  (16) 
[-62.245396929669454, -60.17246573247507, 34.52589344850263, 0.045383437490631, 3.167577414188674, -0.25268124249782753, 18.55200560106456, 6.3777513217879065, -0.5099000708715301, 18.33746402756774, 8.999299631902955, 4.909037927284458]

>  <energy>  (16) 
-372.0254319304983

>  <inter_energy>  (16) 
-386.8071091120393

>  <intra_energy>  (16) 
22.024119899419347

>  <rmsd>  (16) 
7.19267

>  <sdf_rank>  (16) 
0

$$$$

     RDKit          3D

 53 54  0  0  0  0  0  0  0  0999 V2000
  -63.0092  -54.4005   34.5642 C   0  0  0  0  0  0  0  0  0  0  0  0
  -60.2433  -56.9473   35.8738 C   0  0  0  0  0  0  0  0  0  0  0  0
  -62.3913  -58.0250   35.4013 C   0  0  0  0  0  0  0  0  0  0  0  0
  -64.4846  -56.3001   40.0442 C   0  0  0  0  0  0  0  0  0  0  0  0
  -63.5870  -54.7467   33.3982 C   0  0  0  0  0  0  0  0  0  0  0  0
  -63.5034  -55.0664   35.8583 C   0  0  1  0  0  0  0  0  0  0  0  0
  -62.3519  -55.7230   36.6685 C   0  0  1  0  0  0  0  0  0  0  0  0
  -64.1979  -54.0080   36.7591 C   0  0  0  0  0  0  0  0  0  0  0  0
  -64.8404  -54.6611   38.0245 C   0  0  0  0  0  0  0  0  0  0  0  0
  -62.7991  -56.2038   38.0580 C   0  0  0  0  0  0  0  0  0  0  0  0
  -61.6760  -56.9162   35.9815 C   0  0  0  0  0  0  0  0  0  0  0  0
  -63.9195  -55.6852   38.7296 C   0  0  0  0  0  0  0  0  0  0  0  0
  -60.3023  -59.1297   34.6944 C   0  0  0  0  0  0  0  0  0  0  0  0
  -59.5836  -58.0340   35.2479 C   0  0  0  0  0  0  0  0  0  0  0  0
  -61.7209  -59.1148   34.7796 C   0  0  0  0  0  0  0  0  0  0  0  0
  -59.5407  -60.3241   34.0195 C   0  0  0  0  0  0  0  0  0  0  0  0
  -61.8803  -53.3785   34.5766 C   0  0  0  0  0  0  0  0  0  0  0  0
  -58.0161  -60.3473   34.2964 C   0  0  0  0  0  0  0  0  0  0  0  0
  -57.1414  -60.4735   33.0294 C   0  0  0  0  0  0  0  0  0  0  0  0
  -57.8083  -60.0887   31.6810 C   0  0  0  0  0  0  0  0  0  0  0  0
  -57.1516  -58.8357   31.0573 C   0  0  0  0  0  0  0  0  0  0  0  0
  -59.5443  -55.8668   36.4195 O   0  0  0  0  0  0  0  0  0  0  0  0
  -63.7712  -58.0094   35.4967 O   0  0  0  0  0  0  0  0  0  0  0  0
  -64.0252  -55.8003   40.9098 H   0  0  0  0  0  0  0  0  0  0  0  0
  -65.5751  -56.1593   40.0757 H   0  0  0  0  0  0  0  0  0  0  0  0
  -64.2526  -57.3749   40.0757 H   0  0  0  0  0  0  0  0  0  0  0  0
  -64.5147  -55.3025   33.5995 H   0  0  0  0  0  0  0  0  0  0  0  0
  -63.8208  -53.8398   32.8214 H   0  0  0  0  0  0  0  0  0  0  0  0
  -62.8976  -55.3807   32.8214 H   0  0  0  0  0  0  0  0  0  0  0  0
  -64.2076  -55.8577   35.5617 H   0  0  0  0  0  0  0  0  0  0  0  0
  -61.6247  -54.9016   36.7489 H   0  0  0  0  0  0  0  0  0  0  0  0
  -63.4509  -53.2672   37.0801 H   0  0  0  0  0  0  0  0  0  0  0  0
  -64.9985  -53.5313   36.1744 H   0  0  0  0  0  0  0  0  0  0  0  0
  -65.0855  -53.8632   38.7409 H   0  0  0  0  0  0  0  0  0  0  0  0
  -65.7322  -55.2092   37.6865 H   0  0  0  0  0  0  0  0  0  0  0  0
  -62.2132  -56.9932   38.5514 H   0  0  0  0  0  0  0  0  0  0  0  0
  -58.4852  -58.0302   35.1884 H   0  0  0  0  0  0  0  0  0  0  0  0
  -62.3032  -59.9498   34.3630 H   0  0  0  0  0  0  0  0  0  0  0  0
  -59.9730  -61.2637   34.3939 H   0  0  0  0  0  0  0  0  0  0  0  0
  -59.6613  -60.2005   32.9331 H   0  0  0  0  0  0  0  0  0  0  0  0
  -61.4065  -53.0938   35.5276 H   0  0  0  0  0  0  0  0  0  0  0  0
  -61.5387  -52.9248   33.6345 H   0  0  0  0  0  0  0  0  0  0  0  0
  -57.7452  -59.4133   34.8104 H   0  0  0  0  0  0  0  0  0  0  0  0
  -57.8202  -61.2426   34.9046 H   0  0  0  0  0  0  0  0  0  0  0  0
  -56.2635  -59.8245   33.1643 H   0  0  0  0  0  0  0  0  0  0  0  0
  -56.9108  -61.5455   32.9426 H   0  0  0  0  0  0  0  0  0  0  0  0
  -57.7077  -60.9306   30.9801 H   0  0  0  0  0  0  0  0  0  0  0  0
  -58.8673  -59.8618   31.8737 H   0  0  0  0  0  0  0  0  0  0  0  0
  -56.8016  -58.1680   31.8583 H   0  0  0  0  0  0  0  0  0  0  0  0
  -56.2974  -59.1407   30.4349 H   0  0  0  0  0  0  0  0  0  0  0  0
  -57.8884  -58.3069   30.4349 H   0  0  0  0  0  0  0  0  0  0  0  0
  -58.5558  -55.8413   36.3709 H   0  0  0  0  0  0  0  0  0  0  0  0
  -64.3023  -58.7510   35.1120 H   0  0  0  0  0  0  0  0  0  0  0  0
  1  5  1  0
  6  1  1  0
  1 17  2  0
  2 11  2  0
  2 14  1  0
  2 22  1  0
  3 11  1  0
  3 15  2  0
  3 23  1  0
  4 12  1  0
  6  7  1  0
  6  8  1  0
  7 10  1  0
  7 11  1  0
  8  9  1  0
  9 12  1  0
 10 12  2  0
 13 14  2  0
 13 15  1  0
 13 16  1  0
 16 18  1  0
 18 19  1  0
 19 20  1  0
 20 21  1  0
  4 24  1  0
  4 25  1  0
  4 26  1  0
  5 27  1  0
  5 28  1  0
  5 29  1  0
  6 30  1  6
  7 31  1  1
  8 32  1  0
  8 33  1  0
  9 34  1  0
  9 35  1  0
 10 36  1  0
 14 37  1  0
 15 38  1  0
 16 39  1  0
 16 40  1  0
 17 41  1  0
 17 42  1  0
 18 43  1  0
 18 44  1  0
 19 45  1  0
 19 46  1  0
 20 47  1  0
 20 48  1  0
 21 49  1  0
 21 50  1  0
 21 51  1  0
 22 52  1  0
 23 53  1  0
M  END
>  <filename_input>  (17) 
7TE8_P0T_docked.sdf

>  <pdb_id>  (17) 
7TE8_P0T

>  <pose_rank>  (17) 
16

>  <num_atoms_heavy>  (17) 
23

>  <num_torsions>  (17) 
6

>  <pose>  (17) 
[-60.24332732960889, -56.947318584973054, 35.87378685928888, -5.215190995169452, 2.0232752741956666, 2.538673339798402, 18.991505917152352, 6.667968364083019, 0.7727654530552217, 18.516386829687338, 9.908251539967809, 4.031071388598701]

>  <energy>  (17) 
-773.8952591089666

>  <inter_energy>  (17) 
-787.7100510012817

>  <intra_energy>  (17) 
14.715809202361239

>  <rmsd>  (17) 
0.66475

>  <sdf_rank>  (17) 
0

$$$$

     RDKit          3D

 53 54  0  0  0  0  0  0  0  0999 V2000
  -58.0851  -58.3959   31.3686 C   0  0  0  0  0  0  0  0  0  0  0  0
  -55.9953  -59.6430   33.8697 C   0  0  0  0  0  0  0  0  0  0  0  0
  -56.3922  -57.6065   35.1710 C   0  0  0  0  0  0  0  0  0  0  0  0
  -60.8606  -61.2956   35.8076 C   0  0  0  0  0  0  0  0  0  0  0  0
  -57.5836  -58.9589   30.2530 C   0  0  0  0  0  0  0  0  0  0  0  0
  -58.6327  -59.3120   32.4746 C   0  0  1  0  0  0  0  0  0  0  0  0
  -58.3942  -58.7369   33.8979 C   0  0  1  0  0  0  0  0  0  0  0  0
  -60.1600  -59.5168   32.2759 C   0  0  0  0  0  0  0  0  0  0  0  0
  -60.7396  -60.5513   33.2930 C   0  0  0  0  0  0  0  0  0  0  0  0
  -59.1193  -59.5351   34.9929 C   0  0  0  0  0  0  0  0  0  0  0  0
  -56.9223  -58.6410   34.3186 C   0  0  0  0  0  0  0  0  0  0  0  0
  -60.2439  -60.3402   34.7434 C   0  0  0  0  0  0  0  0  0  0  0  0
  -54.1155  -58.5496   35.0647 C   0  0  0  0  0  0  0  0  0  0  0  0
  -54.6276  -59.5861   34.2361 C   0  0  0  0  0  0  0  0  0  0  0  0
  -55.0166  -57.5537   35.5295 C   0  0  0  0  0  0  0  0  0  0  0  0
  -52.5928  -58.5081   35.4413 C   0  0  0  0  0  0  0  0  0  0  0  0
  -58.0868  -56.8804   31.5178 C   0  0  0  0  0  0  0  0  0  0  0  0
  -52.3091  -58.5832   36.9630 C   0  0  0  0  0  0  0  0  0  0  0  0
  -50.9350  -59.1891   37.3247 C   0  0  0  0  0  0  0  0  0  0  0  0
  -50.8235  -59.8878   38.7069 C   0  0  0  0  0  0  0  0  0  0  0  0
  -52.1529  -59.8120   39.4927 C   0  0  0  0  0  0  0  0  0  0  0  0
  -56.5063  -60.6587   33.0564 O   0  0  0  0  0  0  0  0  0  0  0  0
  -57.2723  -56.6346   35.6116 O   0  0  0  0  0  0  0  0  0  0  0  0
  -60.6215  -60.9251   36.8153 H   0  0  0  0  0  0  0  0  0  0  0  0
  -61.9525  -61.3312   35.6795 H   0  0  0  0  0  0  0  0  0  0  0  0
  -60.4433  -62.3053   35.6795 H   0  0  0  0  0  0  0  0  0  0  0  0
  -56.8755  -59.7538   30.5299 H   0  0  0  0  0  0  0  0  0  0  0  0
  -58.4034  -59.3888   29.6588 H   0  0  0  0  0  0  0  0  0  0  0  0
  -57.0622  -58.1940   29.6588 H   0  0  0  0  0  0  0  0  0  0  0  0
  -58.0915  -60.2665   32.3960 H   0  0  0  0  0  0  0  0  0  0  0  0
  -58.8051  -57.7203   33.8112 H   0  0  0  0  0  0  0  0  0  0  0  0
  -60.6706  -58.5528   32.4174 H   0  0  0  0  0  0  0  0  0  0  0  0
  -60.3255  -59.9040   31.2597 H   0  0  0  0  0  0  0  0  0  0  0  0
  -61.8365  -60.4693   33.2851 H   0  0  0  0  0  0  0  0  0  0  0  0
  -60.3914  -61.5452   32.9751 H   0  0  0  0  0  0  0  0  0  0  0  0
  -58.7392  -59.4732   36.0232 H   0  0  0  0  0  0  0  0  0  0  0  0
  -53.9430  -60.3652   33.8695 H   0  0  0  0  0  0  0  0  0  0  0  0
  -54.6486  -56.7382   36.1695 H   0  0  0  0  0  0  0  0  0  0  0  0
  -52.0947  -59.3602   34.9557 H   0  0  0  0  0  0  0  0  0  0  0  0
  -52.2100  -57.5359   35.0975 H   0  0  0  0  0  0  0  0  0  0  0  0
  -58.4959  -56.4178   32.4282 H   0  0  0  0  0  0  0  0  0  0  0  0
  -57.6790  -56.2483   30.7153 H   0  0  0  0  0  0  0  0  0  0  0  0
  -52.3544  -57.5633   37.3725 H   0  0  0  0  0  0  0  0  0  0  0  0
  -53.0705  -59.2508   37.3926 H   0  0  0  0  0  0  0  0  0  0  0  0
  -50.6853  -59.9331   36.5539 H   0  0  0  0  0  0  0  0  0  0  0  0
  -50.2460  -58.3331   37.3768 H   0  0  0  0  0  0  0  0  0  0  0  0
  -50.5601  -60.9446   38.5523 H   0  0  0  0  0  0  0  0  0  0  0  0
  -50.0486  -59.3708   39.2918 H   0  0  0  0  0  0  0  0  0  0  0  0
  -51.9419  -59.8241   40.5722 H   0  0  0  0  0  0  0  0  0  0  0  0
  -52.6801  -58.8824   39.2325 H   0  0  0  0  0  0  0  0  0  0  0  0
  -52.7824  -60.6758   39.2325 H   0  0  0  0  0  0  0  0  0  0  0  0
  -55.9080  -61.3726   32.7212 H   0  0  0  0  0  0  0  0  0  0  0  0
  -56.9509  -55.9053   36.1989 H   0  0  0  0  0  0  0  0  0  0  0  0
  1  5  1  0
  6  1  1  0
  1 17  2  0
  2 11  2  0
  2 14  1  0
  2 22  1  0
  3 11  1  0
  3 15  2  0
  3 23  1  0
  4 12  1  0
  6  7  1  0
  6  8  1  0
  7 10  1  0
  7 11  1  0
  8  9  1  0
  9 12  1  0
 10 12  2  0
 13 14  2  0
 13 15  1  0
 13 16  1  0
 16 18  1  0
 18 19  1  0
 19 20  1  0
 20 21  1  0
  4 24  1  0
  4 25  1  0
  4 26  1  0
  5 27  1  0
  5 28  1  0
  5 29  1  0
  6 30  1  1
  7 31  1  6
  8 32  1  0
  8 33  1  0
  9 34  1  0
  9 35  1  0
 10 36  1  0
 14 37  1  0
 15 38  1  0
 16 39  1  0
 16 40  1  0
 17 41  1  0
 17 42  1  0
 18 43  1  0
 18 44  1  0
 19 45  1  0
 19 46  1  0
 20 47  1  0
 20 48  1  0
 21 49  1  0
 21 50  1  0
 21 51  1  0
 22 52  1  0
 23 53  1  0
M  END
>  <filename_input>  (18) 
7TE8_P0T_docked.sdf

>  <pdb_id>  (18) 
7TE8_P0T

>  <pose_rank>  (18) 
17

>  <num_atoms_heavy>  (18) 
23

>  <num_torsions>  (18) 
6

>  <pose>  (18) 
[-55.995270966751384, -59.64303776308124, 33.86971953850963, -2.5419506791001294, 1.099844339626106, 0.46480576411867003, -2.7188977825578764, 0.7347634687268744, -1.5491917647734914, -1.6993772764443114, 0.6129246375941476, 2.0178526929726837]

>  <energy>  (18) 
-258.1768141577175

>  <inter_energy>  (18) 
-292.5027337008803

>  <intra_energy>  (18) 
42.242964501982776

>  <rmsd>  (18) 
6.89904

>  <sdf_rank>  (18) 
0

$$$$

     RDKit          3D

 53 54  0  0  0  0  0  0  0  0999 V2000
  -59.4178  -62.9164   42.8557 C   0  0  0  0  0  0  0  0  0  0  0  0
  -60.8143  -65.1749   40.2241 C   0  0  0  0  0  0  0  0  0  0  0  0
  -62.8338  -64.2741   41.2768 C   0  0  0  0  0  0  0  0  0  0  0  0
  -62.8671  -66.8312   45.7869 C   0  0  0  0  0  0  0  0  0  0  0  0
  -58.1874  -63.4352   42.6818 C   0  0  0  0  0  0  0  0  0  0  0  0
  -60.4823  -63.7661   43.5679 C   0  0  1  0  0  0  0  0  0  0  0  0
  -60.8319  -65.0622   42.7861 C   0  0  1  0  0  0  0  0  0  0  0  0
  -59.9739  -64.1653   44.9807 C   0  0  0  0  0  0  0  0  0  0  0  0
  -61.0747  -64.9131   45.7990 C   0  0  0  0  0  0  0  0  0  0  0  0
  -61.7325  -66.0166   43.5859 C   0  0  0  0  0  0  0  0  0  0  0  0
  -61.5156  -64.8363   41.4317 C   0  0  0  0  0  0  0  0  0  0  0  0
  -61.8184  -66.0014   44.9887 C   0  0  0  0  0  0  0  0  0  0  0  0
  -62.7231  -64.4417   38.8184 C   0  0  0  0  0  0  0  0  0  0  0  0
  -61.4146  -64.9824   38.9550 C   0  0  0  0  0  0  0  0  0  0  0  0
  -63.4313  -64.0892   39.9991 C   0  0  0  0  0  0  0  0  0  0  0  0
  -63.3643  -64.2533   37.3987 C   0  0  0  0  0  0  0  0  0  0  0  0
  -59.7234  -61.5085   42.3622 C   0  0  0  0  0  0  0  0  0  0  0  0
  -64.0532  -62.8816   37.1861 C   0  0  0  0  0  0  0  0  0  0  0  0
  -63.5545  -62.1046   35.9476 C   0  0  0  0  0  0  0  0  0  0  0  0
  -63.9753  -60.6135   35.8444 C   0  0  0  0  0  0  0  0  0  0  0  0
  -62.7510  -59.6868   35.6639 C   0  0  0  0  0  0  0  0  0  0  0  0
  -59.5287  -65.7051   40.3666 O   0  0  0  0  0  0  0  0  0  0  0  0
  -63.5217  -63.9426   42.4302 O   0  0  0  0  0  0  0  0  0  0  0  0
  -62.6971  -66.6968   46.8654 H   0  0  0  0  0  0  0  0  0  0  0  0
  -63.8797  -66.4873   45.5296 H   0  0  0  0  0  0  0  0  0  0  0  0
  -62.7650  -67.8958   45.5296 H   0  0  0  0  0  0  0  0  0  0  0  0
  -57.7290  -63.6285   43.6628 H   0  0  0  0  0  0  0  0  0  0  0  0
  -58.2631  -64.3780   42.1202 H   0  0  0  0  0  0  0  0  0  0  0  0
  -57.5652  -62.7228   42.1202 H   0  0  0  0  0  0  0  0  0  0  0  0
  -61.3914  -63.1502   43.6334 H   0  0  0  0  0  0  0  0  0  0  0  0
  -59.8402  -65.5055   42.6130 H   0  0  0  0  0  0  0  0  0  0  0  0
  -59.1001  -64.8247   44.8723 H   0  0  0  0  0  0  0  0  0  0  0  0
  -59.7078  -63.2459   45.5228 H   0  0  0  0  0  0  0  0  0  0  0  0
  -60.5978  -65.3914   46.6671 H   0  0  0  0  0  0  0  0  0  0  0  0
  -61.8232  -64.1625   46.0928 H   0  0  0  0  0  0  0  0  0  0  0  0
  -62.3401  -66.7481   43.0331 H   0  0  0  0  0  0  0  0  0  0  0  0
  -60.8530  -65.2587   38.0504 H   0  0  0  0  0  0  0  0  0  0  0  0
  -64.4462  -63.6716   39.9247 H   0  0  0  0  0  0  0  0  0  0  0  0
  -62.5701  -64.3603   36.6452 H   0  0  0  0  0  0  0  0  0  0  0  0
  -64.1497  -65.0178   37.3043 H   0  0  0  0  0  0  0  0  0  0  0  0
  -60.7277  -61.0822   42.5029 H   0  0  0  0  0  0  0  0  0  0  0  0
  -58.9399  -60.9178   41.8649 H   0  0  0  0  0  0  0  0  0  0  0  0
  -65.1339  -63.0526   37.0732 H   0  0  0  0  0  0  0  0  0  0  0  0
  -63.8069  -62.2662   38.0640 H   0  0  0  0  0  0  0  0  0  0  0  0
  -62.4551  -62.1412   35.9514 H   0  0  0  0  0  0  0  0  0  0  0  0
  -64.0274  -62.5989   35.0862 H   0  0  0  0  0  0  0  0  0  0  0  0
  -64.6460  -60.4909   34.9812 H   0  0  0  0  0  0  0  0  0  0  0  0
  -64.4829  -60.3341   36.7795 H   0  0  0  0  0  0  0  0  0  0  0  0
  -62.3641  -59.3939   36.6511 H   0  0  0  0  0  0  0  0  0  0  0  0
  -61.9669  -60.2197   35.1061 H   0  0  0  0  0  0  0  0  0  0  0  0
  -63.0509  -58.7874   35.1061 H   0  0  0  0  0  0  0  0  0  0  0  0
  -59.0044  -65.9544   39.5647 H   0  0  0  0  0  0  0  0  0  0  0  0
  -64.4302  -63.5537   42.3703 H   0  0  0  0  0  0  0  0  0  0  0  0
  1  5  1  0
  6  1  1  0
  1 17  2  0
  2 11  2  0
  2 14  1  0
  2 22  1  0
  3 11  1  0
  3 15  2  0
  3 23  1  0
  4 12  1  0
  6  7  1  0
  6  8  1  0
  7 10  1  0
  7 11  1  0
  8  9  1  0
  9 12  1  0
 10 12  2  0
 13 14  2  0
 13 15  1  0
 13 16  1  0
 16 18  1  0
 18 19  1  0
 19 20  1  0
 20 21  1  0
  4 24  1  0
  4 25  1  0
  4 26  1  0
  5 27  1  0
  5 28  1  0
  5 29  1  0
  6 30  1  1
  7 31  1  6
  8 32  1  0
  8 33  1  0
  9 34  1  0
  9 35  1  0
 10 36  1  0
 14 37  1  0
 15 38  1  0
 16 39  1  0
 16 40  1  0
 17 41  1  0
 17 42  1  0
 18 43  1  0
 18 44  1  0
 19 45  1  0
 19 46  1  0
 20 47  1  0
 20 48  1  0
 21 49  1  0
 21 50  1  0
 21 51  1  0
 22 52  1  0
 23 53  1  0
M  END
>  <filename_input>  (19) 
7TE8_P0T_docked.sdf

>  <pdb_id>  (19) 
7TE8_P0T

>  <pose_rank>  (19) 
18

>  <num_atoms_heavy>  (19) 
23

>  <num_torsions>  (19) 
6

>  <pose>  (19) 
[-60.81429244567997, -65.17493243922098, 40.22409146627812, -3.261591743857611, -1.6054685916149953, 2.866966811151693, -0.15325292905904506, -2.918781754591235, -1.7995497803034322, -2.1752715677077346, 0.35728536879406203, -2.049566071502828]

>  <energy>  (19) 
-193.1041268926697

>  <inter_energy>  (19) 
-201.22752988742332

>  <intra_energy>  (19) 
15.830068959005423

>  <rmsd>  (19) 
10.1968

>  <sdf_rank>  (19) 
0

$$$$

     RDKit          3D

 53 54  0  0  0  0  0  0  0  0999 V2000
  -61.1075  -64.9492   43.4379 C   0  0  0  0  0  0  0  0  0  0  0  0
  -57.9424  -64.1586   41.1637 C   0  0  0  0  0  0  0  0  0  0  0  0
  -59.3129  -62.1779   41.6071 C   0  0  0  0  0  0  0  0  0  0  0  0
  -62.9299  -63.6043   37.8985 C   0  0  0  0  0  0  0  0  0  0  0  0
  -60.5901  -66.1921   43.4644 C   0  0  0  0  0  0  0  0  0  0  0  0
  -61.5811  -64.3762   42.0927 C   0  0  1  0  0  0  0  0  0  0  0  0
  -60.4848  -64.4490   40.9944 C   0  0  1  0  0  0  0  0  0  0  0  0
  -62.8263  -65.1629   41.5982 C   0  0  0  0  0  0  0  0  0  0  0  0
  -63.4300  -64.5308   40.3033 C   0  0  0  0  0  0  0  0  0  0  0  0
  -61.0121  -64.0765   39.5998 C   0  0  0  0  0  0  0  0  0  0  0  0
  -59.2519  -63.5735   41.2519 C   0  0  0  0  0  0  0  0  0  0  0  0
  -62.3683  -64.1599   39.2407 C   0  0  0  0  0  0  0  0  0  0  0  0
  -56.8556  -62.0000   41.7264 C   0  0  0  0  0  0  0  0  0  0  0  0
  -56.7803  -63.3808   41.3928 C   0  0  0  0  0  0  0  0  0  0  0  0
  -58.1411  -61.4028   41.8300 C   0  0  0  0  0  0  0  0  0  0  0  0
  -55.5489  -61.1636   41.9610 C   0  0  0  0  0  0  0  0  0  0  0  0
  -61.2257  -64.1499   44.7287 C   0  0  0  0  0  0  0  0  0  0  0  0
  -54.7139  -61.6139   43.1863 C   0  0  0  0  0  0  0  0  0  0  0  0
  -54.7676  -60.6411   44.3850 C   0  0  0  0  0  0  0  0  0  0  0  0
  -55.4954  -59.2891   44.1532 C   0  0  0  0  0  0  0  0  0  0  0  0
  -56.8448  -59.2318   44.9055 C   0  0  0  0  0  0  0  0  0  0  0  0
  -57.8768  -65.5160   40.8361 O   0  0  0  0  0  0  0  0  0  0  0  0
  -60.5666  -61.6001   41.6962 O   0  0  0  0  0  0  0  0  0  0  0  0
  -63.6974  -62.8448   38.1085 H   0  0  0  0  0  0  0  0  0  0  0  0
  -62.1127  -63.1493   37.3195 H   0  0  0  0  0  0  0  0  0  0  0  0
  -63.3761  -64.4262   37.3195 H   0  0  0  0  0  0  0  0  0  0  0  0
  -60.4570  -66.5118   44.5085 H   0  0  0  0  0  0  0  0  0  0  0  0
  -61.2744  -66.8852   42.9531 H   0  0  0  0  0  0  0  0  0  0  0  0
  -59.6161  -66.1948   42.9531 H   0  0  0  0  0  0  0  0  0  0  0  0
  -61.8239  -63.3172   42.2642 H   0  0  0  0  0  0  0  0  0  0  0  0
  -60.1835  -65.5062   41.0344 H   0  0  0  0  0  0  0  0  0  0  0  0
  -62.5311  -66.2007   41.3844 H   0  0  0  0  0  0  0  0  0  0  0  0
  -63.5917  -65.1263   42.3875 H   0  0  0  0  0  0  0  0  0  0  0  0
  -64.1300  -65.2530   39.8578 H   0  0  0  0  0  0  0  0  0  0  0  0
  -63.9265  -63.5960   40.6025 H   0  0  0  0  0  0  0  0  0  0  0  0
  -60.2922  -63.7271   38.8450 H   0  0  0  0  0  0  0  0  0  0  0  0
  -55.7926  -63.8579   41.3103 H   0  0  0  0  0  0  0  0  0  0  0  0
  -58.2303  -60.3361   42.0836 H   0  0  0  0  0  0  0  0  0  0  0  0
  -54.9185  -61.2507   41.0638 H   0  0  0  0  0  0  0  0  0  0  0  0
  -55.8686  -60.1301   42.1608 H   0  0  0  0  0  0  0  0  0  0  0  0
  -61.6480  -63.1343   44.7100 H   0  0  0  0  0  0  0  0  0  0  0  0
  -60.8888  -64.5880   45.6798 H   0  0  0  0  0  0  0  0  0  0  0  0
  -55.0910  -62.5921   43.5194 H   0  0  0  0  0  0  0  0  0  0  0  0
  -53.6650  -61.6496   42.8565 H   0  0  0  0  0  0  0  0  0  0  0  0
  -55.2788  -61.1575   45.2109 H   0  0  0  0  0  0  0  0  0  0  0  0
  -53.7200  -60.3746   44.5886 H   0  0  0  0  0  0  0  0  0  0  0  0
  -54.8522  -58.4717   44.5112 H   0  0  0  0  0  0  0  0  0  0  0  0
  -55.6975  -59.1878   43.0767 H   0  0  0  0  0  0  0  0  0  0  0  0
  -56.6606  -59.2396   45.9900 H   0  0  0  0  0  0  0  0  0  0  0  0
  -57.3788  -58.3102   44.6309 H   0  0  0  0  0  0  0  0  0  0  0  0
  -57.4551  -60.1048   44.6309 H   0  0  0  0  0  0  0  0  0  0  0  0
  -56.9978  -65.9656   40.7631 H   0  0  0  0  0  0  0  0  0  0  0  0
  -60.6550  -60.6440   41.9374 H   0  0  0  0  0  0  0  0  0  0  0  0
  1  5  1  0
  6  1  1  0
  1 17  2  0
  2 11  2  0
  2 14  1  0
  2 22  1  0
  3 11  1  0
  3 15  2  0
  3 23  1  0
  4 12  1  0
  6  7  1  0
  6  8  1  0
  7 10  1  0
  7 11  1  0
  8  9  1  0
  9 12  1  0
 10 12  2  0
 13 14  2  0
 13 15  1  0
 13 16  1  0
 16 18  1  0
 18 19  1  0
 19 20  1  0
 20 21  1  0
  4 24  1  0
  4 25  1  0
  4 26  1  0
  5 27  1  0
  5 28  1  0
  5 29  1  0
  6 30  1  1
  7 31  1  6
  8 32  1  0
  8 33  1  0
  9 34  1  0
  9 35  1  0
 10 36  1  0
 14 37  1  0
 15 38  1  0
 16 39  1  0
 16 40  1  0
 17 41  1  0
 17 42  1  0
 18 43  1  0
 18 44  1  0
 19 45  1  0
 19 46  1  0
 20 47  1  0
 20 48  1  0
 21 49  1  0
 21 50  1  0
 21 51  1  0
 22 52  1  0
 23 53  1  0
M  END
>  <filename_input>  (20) 
7TE8_P0T_docked.sdf

>  <pdb_id>  (20) 
7TE8_P0T

>  <pose_rank>  (20) 
19

>  <num_atoms_heavy>  (20) 
23

>  <num_torsions>  (20) 
6

>  <pose>  (20) 
[-57.94238827623124, -64.15863333095105, 41.163708540134735, -3.1593822603598998, 0.6404330388506417, 0.339568265427353, 0.13627446691463335, -2.7448181600602926, -0.5837173077498216, 0.03400515927538559, 3.1586270456048178, -2.3476173554100863]

>  <energy>  (20) 
-209.3109547194522

>  <inter_energy>  (20) 
-220.64667197125175

>  <intra_energy>  (20) 
15.138154604373161

>  <rmsd>  (20) 
10.5671

>  <sdf_rank>  (20) 
0

$$$$

     RDKit          3D

 53 54  0  0  0  0  0  0  0  0999 V2000
  -54.8282  -64.0936   41.1142 C   0  0  0  0  0  0  0  0  0  0  0  0
  -55.0334  -60.2119   40.9871 C   0  0  0  0  0  0  0  0  0  0  0  0
  -55.0853  -60.9387   43.3253 C   0  0  0  0  0  0  0  0  0  0  0  0
  -60.1594  -62.4653   43.2918 C   0  0  0  0  0  0  0  0  0  0  0  0
  -54.8923  -64.1802   39.7719 C   0  0  0  0  0  0  0  0  0  0  0  0
  -56.0861  -63.6649   41.8863 C   0  0  1  0  0  0  0  0  0  0  0  0
  -56.5324  -62.2171   41.5426 C   0  0  1  0  0  0  0  0  0  0  0  0
  -57.2567  -64.6321   41.5577 C   0  0  0  0  0  0  0  0  0  0  0  0
  -58.5199  -64.3226   42.4233 C   0  0  0  0  0  0  0  0  0  0  0  0
  -57.8996  -61.8558   42.1443 C   0  0  0  0  0  0  0  0  0  0  0  0
  -55.5526  -61.1185   41.9737 C   0  0  0  0  0  0  0  0  0  0  0  0
  -58.8594  -62.8155   42.5090 C   0  0  0  0  0  0  0  0  0  0  0  0
  -53.6886  -59.0076   42.6896 C   0  0  0  0  0  0  0  0  0  0  0  0
  -54.1282  -59.1832   41.3482 C   0  0  0  0  0  0  0  0  0  0  0  0
  -54.1807  -59.8999   43.6804 C   0  0  0  0  0  0  0  0  0  0  0  0
  -52.6955  -57.8501   43.0587 C   0  0  0  0  0  0  0  0  0  0  0  0
  -53.5297  -64.4322   41.8343 C   0  0  0  0  0  0  0  0  0  0  0  0
  -53.3103  -56.4301   42.9741 C   0  0  0  0  0  0  0  0  0  0  0  0
  -54.4842  -56.1861   43.9481 C   0  0  0  0  0  0  0  0  0  0  0  0
  -54.7335  -54.7170   44.3848 C   0  0  0  0  0  0  0  0  0  0  0  0
  -55.6416  -54.6398   45.6337 C   0  0  0  0  0  0  0  0  0  0  0  0
  -55.4696  -60.3913   39.6712 O   0  0  0  0  0  0  0  0  0  0  0  0
  -55.5759  -61.8040   44.2866 O   0  0  0  0  0  0  0  0  0  0  0  0
  -59.9621  -62.5185   44.3727 H   0  0  0  0  0  0  0  0  0  0  0  0
  -60.4836  -61.4479   43.0278 H   0  0  0  0  0  0  0  0  0  0  0  0
  -60.9508  -63.1824   43.0278 H   0  0  0  0  0  0  0  0  0  0  0  0
  -55.5255  -65.0341   39.4894 H   0  0  0  0  0  0  0  0  0  0  0  0
  -55.3234  -63.2536   39.3650 H   0  0  0  0  0  0  0  0  0  0  0  0
  -53.8805  -64.3234   39.3650 H   0  0  0  0  0  0  0  0  0  0  0  0
  -55.8317  -63.6998   42.9560 H   0  0  0  0  0  0  0  0  0  0  0  0
  -56.5772  -62.2410   40.4438 H   0  0  0  0  0  0  0  0  0  0  0  0
  -57.5184  -64.5273   40.4944 H   0  0  0  0  0  0  0  0  0  0  0  0
  -56.9287  -65.6577   41.7827 H   0  0  0  0  0  0  0  0  0  0  0  0
  -59.3801  -64.8482   41.9831 H   0  0  0  0  0  0  0  0  0  0  0  0
  -58.3003  -64.6620   43.4463 H   0  0  0  0  0  0  0  0  0  0  0  0
  -58.1388  -60.7931   42.2972 H   0  0  0  0  0  0  0  0  0  0  0  0
  -53.7551  -58.5016   40.5697 H   0  0  0  0  0  0  0  0  0  0  0  0
  -53.8605  -59.7866   44.7267 H   0  0  0  0  0  0  0  0  0  0  0  0
  -52.3447  -58.0127   44.0885 H   0  0  0  0  0  0  0  0  0  0  0  0
  -51.8822  -57.8855   42.3189 H   0  0  0  0  0  0  0  0  0  0  0  0
  -53.4745  -64.3624   42.9307 H   0  0  0  0  0  0  0  0  0  0  0  0
  -52.6471  -64.7467   41.2580 H   0  0  0  0  0  0  0  0  0  0  0  0
  -52.5196  -55.6987   43.1975 H   0  0  0  0  0  0  0  0  0  0  0  0
  -53.7171  -56.3232   41.9577 H   0  0  0  0  0  0  0  0  0  0  0  0
  -55.4016  -56.5498   43.4623 H   0  0  0  0  0  0  0  0  0  0  0  0
  -54.2105  -56.7196   44.8704 H   0  0  0  0  0  0  0  0  0  0  0  0
  -53.7674  -54.2447   44.6164 H   0  0  0  0  0  0  0  0  0  0  0  0
  -55.2390  -54.1942   43.5595 H   0  0  0  0  0  0  0  0  0  0  0  0
  -55.0222  -54.6925   46.5412 H   0  0  0  0  0  0  0  0  0  0  0  0
  -56.1983  -53.6912   45.6242 H   0  0  0  0  0  0  0  0  0  0  0  0
  -56.3504  -55.4810   45.6242 H   0  0  0  0  0  0  0  0  0  0  0  0
  -55.1409  -59.7924   38.9547 H   0  0  0  0  0  0  0  0  0  0  0  0
  -55.2817  -61.7164   45.2278 H   0  0  0  0  0  0  0  0  0  0  0  0
  1  5  1  0
  6  1  1  0
  1 17  2  0
  2 11  2  0
  2 14  1  0
  2 22  1  0
  3 11  1  0
  3 15  2  0
  3 23  1  0
  4 12  1  0
  6  7  1  0
  6  8  1  0
  7 10  1  0
  7 11  1  0
  8  9  1  0
  9 12  1  0
 10 12  2  0
 13 14  2  0
 13 15  1  0
 13 16  1  0
 16 18  1  0
 18 19  1  0
 19 20  1  0
 20 21  1  0
  4 24  1  0
  4 25  1  0
  4 26  1  0
  5 27  1  0
  5 28  1  0
  5 29  1  0
  6 30  1  1
  7 31  1  6
  8 32  1  0
  8 33  1  0
  9 34  1  0
  9 35  1  0
 10 36  1  0
 14 37  1  0
 15 38  1  0
 16 39  1  0
 16 40  1  0
 17 41  1  0
 17 42  1  0
 18 43  1  0
 18 44  1  0
 19 45  1  0
 19 46  1  0
 20 47  1  0
 20 48  1  0
 21 49  1  0
 21 50  1  0
 21 51  1  0
 22 52  1  0
 23 53  1  0
M  END
>  <filename_input>  (21) 
7TE8_P0T_docked.sdf

>  <pdb_id>  (21) 
7TE8_P0T

>  <pose_rank>  (21) 
20

>  <num_atoms_heavy>  (21) 
23

>  <num_torsions>  (21) 
6

>  <pose>  (21) 
[-55.03339212256827, -60.211862432637005, 40.98711107196607, 2.9471975383355264, 0.7441170408821294, -2.4906275490373107, 0.02759450616440792, 3.3554816337101587, 1.7652166254191006, -3.2810152243801793, -0.31990916241526385, -0.8216686567502359]

>  <energy>  (21) 
-208.66751608241265

>  <inter_energy>  (21) 
-198.97434073445726

>  <intra_energy>  (21) 
14.027419163277585

>  <rmsd>  (21) 
11.3533

>  <sdf_rank>  (21) 
0

$$$$

     RDKit          3D

 53 54  0  0  0  0  0  0  0  0999 V2000
  -55.9861  -60.5065   43.9999 C   0  0  0  0  0  0  0  0  0  0  0  0
  -58.6121  -62.2144   41.6539 C   0  0  0  0  0  0  0  0  0  0  0  0
  -57.5105  -63.8980   43.0504 C   0  0  0  0  0  0  0  0  0  0  0  0
  -53.0536  -64.0274   40.1503 C   0  0  0  0  0  0  0  0  0  0  0  0
  -56.2785  -60.7670   45.2882 C   0  0  0  0  0  0  0  0  0  0  0  0
  -55.2633  -61.5837   43.1755 C   0  0  1  0  0  0  0  0  0  0  0  0
  -56.0693  -62.0140   41.9191 C   0  0  1  0  0  0  0  0  0  0  0  0
  -53.8799  -61.0483   42.7134 C   0  0  0  0  0  0  0  0  0  0  0  0
  -53.0470  -62.1540   41.9893 C   0  0  0  0  0  0  0  0  0  0  0  0
  -55.2672  -62.9293   40.9806 C   0  0  0  0  0  0  0  0  0  0  0  0
  -57.3933  -62.7301   42.2138 C   0  0  0  0  0  0  0  0  0  0  0  0
  -53.8625  -62.9697   40.9580 C   0  0  0  0  0  0  0  0  0  0  0  0
  -59.9518  -64.0124   42.7168 C   0  0  0  0  0  0  0  0  0  0  0  0
  -59.8538  -62.8504   41.9023 C   0  0  0  0  0  0  0  0  0  0  0  0
  -58.7604  -64.5337   43.2901 C   0  0  0  0  0  0  0  0  0  0  0  0
  -61.3406  -64.7004   42.9615 C   0  0  0  0  0  0  0  0  0  0  0  0
  -56.3855  -59.1708   43.3872 C   0  0  0  0  0  0  0  0  0  0  0  0
  -62.5427  -63.7227   42.9825 C   0  0  0  0  0  0  0  0  0  0  0  0
  -63.9243  -64.4135   42.9991 C   0  0  0  0  0  0  0  0  0  0  0  0
  -64.2906  -65.2691   41.7562 C   0  0  0  0  0  0  0  0  0  0  0  0
  -63.7779  -64.6231   40.4484 C   0  0  0  0  0  0  0  0  0  0  0  0
  -58.5077  -61.0720   40.8552 O   0  0  0  0  0  0  0  0  0  0  0  0
  -56.3459  -64.4064   43.5970 O   0  0  0  0  0  0  0  0  0  0  0  0
  -52.5364  -64.7037   40.8468 H   0  0  0  0  0  0  0  0  0  0  0  0
  -53.7400  -64.6084   39.5167 H   0  0  0  0  0  0  0  0  0  0  0  0
  -52.3131  -63.5172   39.5167 H   0  0  0  0  0  0  0  0  0  0  0  0
  -55.6172  -60.1779   45.9406 H   0  0  0  0  0  0  0  0  0  0  0  0
  -57.3260  -60.4974   45.4882 H   0  0  0  0  0  0  0  0  0  0  0  0
  -56.1311  -61.8386   45.4882 H   0  0  0  0  0  0  0  0  0  0  0  0
  -55.1504  -62.4626   43.8273 H   0  0  0  0  0  0  0  0  0  0  0  0
  -56.2875  -61.0485   41.4393 H   0  0  0  0  0  0  0  0  0  0  0  0
  -54.0356  -60.2079   42.0210 H   0  0  0  0  0  0  0  0  0  0  0  0
  -53.3213  -60.7254   43.6043 H   0  0  0  0  0  0  0  0  0  0  0  0
  -52.2089  -61.6708   41.4657 H   0  0  0  0  0  0  0  0  0  0  0  0
  -52.7075  -62.8594   42.7620 H   0  0  0  0  0  0  0  0  0  0  0  0
  -55.8200  -63.5854   40.2922 H   0  0  0  0  0  0  0  0  0  0  0  0
  -60.7673  -62.4340   41.4526 H   0  0  0  0  0  0  0  0  0  0  0  0
  -58.8049  -65.4329   43.9221 H   0  0  0  0  0  0  0  0  0  0  0  0
  -61.5075  -65.4341   42.1591 H   0  0  0  0  0  0  0  0  0  0  0  0
  -61.2921  -65.1610   43.9593 H   0  0  0  0  0  0  0  0  0  0  0  0
  -56.1479  -58.9553   42.3350 H   0  0  0  0  0  0  0  0  0  0  0  0
  -56.9116  -58.4214   43.9968 H   0  0  0  0  0  0  0  0  0  0  0  0
  -62.4606  -63.0952   43.8822 H   0  0  0  0  0  0  0  0  0  0  0  0
  -62.4924  -63.1418   42.0498 H   0  0  0  0  0  0  0  0  0  0  0  0
  -63.9569  -65.0729   43.8791 H   0  0  0  0  0  0  0  0  0  0  0  0
  -64.6576  -63.5937   43.0124 H   0  0  0  0  0  0  0  0  0  0  0  0
  -63.8379  -66.2659   41.8631 H   0  0  0  0  0  0  0  0  0  0  0  0
  -65.3869  -65.3391   41.6981 H   0  0  0  0  0  0  0  0  0  0  0  0
  -63.1110  -63.7828   40.6914 H   0  0  0  0  0  0  0  0  0  0  0  0
  -63.2255  -65.3718   39.8617 H   0  0  0  0  0  0  0  0  0  0  0  0
  -64.6325  -64.2551   39.8617 H   0  0  0  0  0  0  0  0  0  0  0  0
  -59.3187  -60.6780   40.4464 H   0  0  0  0  0  0  0  0  0  0  0  0
  -56.3802  -65.2074   44.1777 H   0  0  0  0  0  0  0  0  0  0  0  0
  1  5  1  0
  6  1  1  0
  1 17  2  0
  2 11  2  0
  2 14  1  0
  2 22  1  0
  3 11  1  0
  3 15  2  0
  3 23  1  0
  4 12  1  0
  6  7  1  0
  6  8  1  0
  7 10  1  0
  7 11  1  0
  8  9  1  0
  9 12  1  0
 10 12  2  0
 13 14  2  0
 13 15  1  0
 13 16  1  0
 16 18  1  0
 18 19  1  0
 19 20  1  0
 20 21  1  0
  4 24  1  0
  4 25  1  0
  4 26  1  0
  5 27  1  0
  5 28  1  0
  5 29  1  0
  6 30  1  1
  7 31  1  6
  8 32  1  0
  8 33  1  0
  9 34  1  0
  9 35  1  0
 10 36  1  0
 14 37  1  0
 15 38  1  0
 16 39  1  0
 16 40  1  0
 17 41  1  0
 17 42  1  0
 18 43  1  0
 18 44  1  0
 19 45  1  0
 19 46  1  0
 20 47  1  0
 20 48  1  0
 21 49  1  0
 21 50  1  0
 21 51  1  0
 22 52  1  0
 23 53  1  0
M  END
>  <filename_input>  (22) 
7TE8_P0T_docked.sdf

>  <pdb_id>  (22) 
7TE8_P0T

>  <pose_rank>  (22) 
21

>  <num_atoms_heavy>  (22) 
23

>  <num_torsions>  (22) 
6

>  <pose>  (22) 
[-58.61213898571065, -62.21440280011194, 41.653910241786264, 0.5164072249992511, 2.5902308695934777, -0.3127373074045226, 0.05748757650045847, 0.30541259347851, -0.016104714896727084, 4.896044227185831, -4.116223626454145, 1.3823431232683048]

>  <energy>  (22) 
-204.19706460346268

>  <inter_energy>  (22) 
-204.776241470252

>  <intra_energy>  (22) 
16.649719800008345

>  <rmsd>  (22) 
11.4949

>  <sdf_rank>  (22) 
0

$$$$

     RDKit          3D

 53 54  0  0  0  0  0  0  0  0999 V2000
  -57.9186  -62.6967   42.6458 C   0  0  0  0  0  0  0  0  0  0  0  0
  -55.7563  -59.5988   42.2870 C   0  0  0  0  0  0  0  0  0  0  0  0
  -55.3094  -60.3830   44.5637 C   0  0  0  0  0  0  0  0  0  0  0  0
  -52.6963  -62.9656   39.7353 C   0  0  0  0  0  0  0  0  0  0  0  0
  -57.9024  -63.5431   43.6930 C   0  0  0  0  0  0  0  0  0  0  0  0
  -56.6556  -62.5724   41.7788 C   0  0  1  0  0  0  0  0  0  0  0  0
  -55.4134  -62.1215   42.5956 C   0  0  1  0  0  0  0  0  0  0  0  0
  -56.3388  -63.9416   41.1164 C   0  0  0  0  0  0  0  0  0  0  0  0
  -55.1443  -63.8345   40.1153 C   0  0  0  0  0  0  0  0  0  0  0  0
  -54.1085  -62.1978   41.7875 C   0  0  0  0  0  0  0  0  0  0  0  0
  -55.4978  -60.7020   43.1707 C   0  0  0  0  0  0  0  0  0  0  0  0
  -53.9439  -63.0280   40.6654 C   0  0  0  0  0  0  0  0  0  0  0  0
  -55.6716  -57.9764   44.1626 C   0  0  0  0  0  0  0  0  0  0  0  0
  -55.8434  -58.2740   42.7822 C   0  0  0  0  0  0  0  0  0  0  0  0
  -55.4040  -59.0508   45.0535 C   0  0  0  0  0  0  0  0  0  0  0  0
  -55.7873  -56.4998   44.6807 C   0  0  0  0  0  0  0  0  0  0  0  0
  -59.1781  -61.8990   42.3355 C   0  0  0  0  0  0  0  0  0  0  0  0
  -55.0611  -55.4542   43.7971 C   0  0  0  0  0  0  0  0  0  0  0  0
  -53.5214  -55.4777   43.9191 C   0  0  0  0  0  0  0  0  0  0  0  0
  -52.9384  -55.7220   45.3374 C   0  0  0  0  0  0  0  0  0  0  0  0
  -51.9779  -54.5874   45.7622 C   0  0  0  0  0  0  0  0  0  0  0  0
  -55.9233  -59.8993   40.9320 O   0  0  0  0  0  0  0  0  0  0  0  0
  -55.0594  -61.4344   45.4271 O   0  0  0  0  0  0  0  0  0  0  0  0
  -51.7840  -62.9200   40.3481 H   0  0  0  0  0  0  0  0  0  0  0  0
  -52.6671  -63.8634   39.1004 H   0  0  0  0  0  0  0  0  0  0  0  0
  -52.7568  -62.0694   39.1004 H   0  0  0  0  0  0  0  0  0  0  0  0
  -57.9134  -62.9671   44.6301 H   0  0  0  0  0  0  0  0  0  0  0  0
  -58.7883  -64.1939   43.6522 H   0  0  0  0  0  0  0  0  0  0  0  0
  -56.9923  -64.1596   43.6522 H   0  0  0  0  0  0  0  0  0  0  0  0
  -56.8635  -61.8038   41.0198 H   0  0  0  0  0  0  0  0  0  0  0  0
  -55.4068  -62.8412   43.4274 H   0  0  0  0  0  0  0  0  0  0  0  0
  -56.0818  -64.6672   41.9023 H   0  0  0  0  0  0  0  0  0  0  0  0
  -57.2282  -64.2667   40.5567 H   0  0  0  0  0  0  0  0  0  0  0  0
  -54.7993  -64.8512   39.8757 H   0  0  0  0  0  0  0  0  0  0  0  0
  -55.5139  -63.2978   39.2291 H   0  0  0  0  0  0  0  0  0  0  0  0
  -53.2610  -61.5716   42.1030 H   0  0  0  0  0  0  0  0  0  0  0  0
  -56.0496  -57.4530   42.0798 H   0  0  0  0  0  0  0  0  0  0  0  0
  -55.2695  -58.8514   46.1269 H   0  0  0  0  0  0  0  0  0  0  0  0
  -56.8535  -56.2328   44.7244 H   0  0  0  0  0  0  0  0  0  0  0  0
  -55.2986  -56.4729   45.6659 H   0  0  0  0  0  0  0  0  0  0  0  0
  -59.1941  -61.2069   41.4806 H   0  0  0  0  0  0  0  0  0  0  0  0
  -60.0719  -62.0149   42.9661 H   0  0  0  0  0  0  0  0  0  0  0  0
  -55.3264  -55.6470   42.7471 H   0  0  0  0  0  0  0  0  0  0  0  0
  -55.3896  -54.4643   44.1464 H   0  0  0  0  0  0  0  0  0  0  0  0
  -53.1470  -56.2769   43.2626 H   0  0  0  0  0  0  0  0  0  0  0  0
  -53.1937  -54.4648   43.6422 H   0  0  0  0  0  0  0  0  0  0  0  0
  -53.7668  -55.7771   46.0591 H   0  0  0  0  0  0  0  0  0  0  0  0
  -52.3704  -56.6639   45.3180 H   0  0  0  0  0  0  0  0  0  0  0  0
  -51.9342  -54.5358   46.8601 H   0  0  0  0  0  0  0  0  0  0  0  0
  -50.9726  -54.7899   45.3643 H   0  0  0  0  0  0  0  0  0  0  0  0
  -52.3436  -53.6293   45.3643 H   0  0  0  0  0  0  0  0  0  0  0  0
  -56.1034  -59.1741   40.2827 H   0  0  0  0  0  0  0  0  0  0  0  0
  -54.9239  -61.2608   46.3923 H   0  0  0  0  0  0  0  0  0  0  0  0
  1  5  1  0
  6  1  1  0
  1 17  2  0
  2 11  2  0
  2 14  1  0
  2 22  1  0
  3 11  1  0
  3 15  2  0
  3 23  1  0
  4 12  1  0
  6  7  1  0
  6  8  1  0
  7 10  1  0
  7 11  1  0
  8  9  1  0
  9 12  1  0
 10 12  2  0
 13 14  2  0
 13 15  1  0
 13 16  1  0
 16 18  1  0
 18 19  1  0
 19 20  1  0
 20 21  1  0
  4 24  1  0
  4 25  1  0
  4 26  1  0
  5 27  1  0
  5 28  1  0
  5 29  1  0
  6 30  1  6
  7 31  1  1
  8 32  1  0
  8 33  1  0
  9 34  1  0
  9 35  1  0
 10 36  1  0
 14 37  1  0
 15 38  1  0
 16 39  1  0
 16 40  1  0
 17 41  1  0
 17 42  1  0
 18 43  1  0
 18 44  1  0
 19 45  1  0
 19 46  1  0
 20 47  1  0
 20 48  1  0
 21 49  1  0
 21 50  1  0
 21 51  1  0
 22 52  1  0
 23 53  1  0
M  END
>  <filename_input>  (23) 
7TE8_P0T_docked.sdf

>  <pdb_id>  (23) 
7TE8_P0T

>  <pose_rank>  (23) 
22

>  <num_atoms_heavy>  (23) 
23

>  <num_torsions>  (23) 
6

>  <pose>  (23) 
[-55.75630254157057, -59.59880413072162, 42.28697343188183, 1.9987823917867917, 1.6119634064100288, -2.317887382247786, -3.081371196627709, -2.840766314973567, -0.2202915577012537, 0.6261142687020045, -3.6785084805411916, -0.1250042142050573]

>  <energy>  (23) 
-170.29625782624078

>  <inter_energy>  (23) 
-192.76653877068338

>  <intra_energy>  (23) 
24.013684402217194

>  <rmsd>  (23) 
11.8693

>  <sdf_rank>  (23) 
0

$$$$

     RDKit          3D

 53 54  0  0  0  0  0  0  0  0999 V2000
  -53.0641  -59.5124   44.5294 C   0  0  0  0  0  0  0  0  0  0  0  0
  -57.1120  -59.0765   44.6023 C   0  0  0  0  0  0  0  0  0  0  0  0
  -56.0868  -59.5756   42.4348 C   0  0  0  0  0  0  0  0  0  0  0  0
  -54.7132  -54.3018   42.0911 C   0  0  0  0  0  0  0  0  0  0  0  0
  -53.3407  -59.5257   45.8472 C   0  0  0  0  0  0  0  0  0  0  0  0
  -53.5008  -58.2966   43.6966 C   0  0  1  0  0  0  0  0  0  0  0  0
  -54.9440  -57.8304   44.0332 C   0  0  1  0  0  0  0  0  0  0  0  0
  -52.5287  -57.1117   43.9512 C   0  0  0  0  0  0  0  0  0  0  0  0
  -52.8473  -55.8958   43.0235 C   0  0  0  0  0  0  0  0  0  0  0  0
  -55.3112  -56.4966   43.3641 C   0  0  0  0  0  0  0  0  0  0  0  0
  -56.0485  -58.8300   43.6678 C   0  0  0  0  0  0  0  0  0  0  0  0
  -54.3550  -55.5590   42.9377 C   0  0  0  0  0  0  0  0  0  0  0  0
  -58.1841  -60.7077   43.0703 C   0  0  0  0  0  0  0  0  0  0  0  0
  -58.1508  -59.9912   44.2986 C   0  0  0  0  0  0  0  0  0  0  0  0
  -57.1364  -60.4879   42.1354 C   0  0  0  0  0  0  0  0  0  0  0  0
  -59.3558  -61.7038   42.7592 C   0  0  0  0  0  0  0  0  0  0  0  0
  -52.3198  -60.6821   43.8993 C   0  0  0  0  0  0  0  0  0  0  0  0
  -59.3466  -62.2701   41.3167 C   0  0  0  0  0  0  0  0  0  0  0  0
  -60.0542  -63.6348   41.1646 C   0  0  0  0  0  0  0  0  0  0  0  0
  -60.9286  -63.8288   39.8961 C   0  0  0  0  0  0  0  0  0  0  0  0
  -60.9000  -65.2937   39.4026 C   0  0  0  0  0  0  0  0  0  0  0  0
  -57.0719  -58.3691   45.8073 O   0  0  0  0  0  0  0  0  0  0  0  0
  -55.0697  -59.3495   41.5249 O   0  0  0  0  0  0  0  0  0  0  0  0
  -54.9520  -53.4636   42.7623 H   0  0  0  0  0  0  0  0  0  0  0  0
  -53.8565  -54.0308   41.4565 H   0  0  0  0  0  0  0  0  0  0  0  0
  -55.5841  -54.5230   41.4565 H   0  0  0  0  0  0  0  0  0  0  0  0
  -52.4023  -59.4806   46.4192 H   0  0  0  0  0  0  0  0  0  0  0  0
  -53.9661  -58.6567   46.0994 H   0  0  0  0  0  0  0  0  0  0  0  0
  -53.8797  -60.4509   46.0994 H   0  0  0  0  0  0  0  0  0  0  0  0
  -53.4788  -58.6075   42.6417 H   0  0  0  0  0  0  0  0  0  0  0  0
  -54.9071  -57.7274   45.1278 H   0  0  0  0  0  0  0  0  0  0  0  0
  -52.6206  -56.7938   45.0003 H   0  0  0  0  0  0  0  0  0  0  0  0
  -51.5062  -57.4528   43.7318 H   0  0  0  0  0  0  0  0  0  0  0  0
  -52.3157  -55.0142   43.4111 H   0  0  0  0  0  0  0  0  0  0  0  0
  -52.5203  -56.1699   42.0096 H   0  0  0  0  0  0  0  0  0  0  0  0
  -56.3754  -56.2641   43.2112 H   0  0  0  0  0  0  0  0  0  0  0  0
  -58.9537  -60.1516   45.0332 H   0  0  0  0  0  0  0  0  0  0  0  0
  -57.1372  -61.0257   41.1759 H   0  0  0  0  0  0  0  0  0  0  0  0
  -59.2856  -62.5480   43.4610 H   0  0  0  0  0  0  0  0  0  0  0  0
  -60.2904  -61.1339   42.8675 H   0  0  0  0  0  0  0  0  0  0  0  0
  -52.0926  -60.6739   42.8231 H   0  0  0  0  0  0  0  0  0  0  0  0
  -52.0094  -61.5352   44.5205 H   0  0  0  0  0  0  0  0  0  0  0  0
  -59.8498  -61.5460   40.6592 H   0  0  0  0  0  0  0  0  0  0  0  0
  -58.2920  -62.4306   41.0483 H   0  0  0  0  0  0  0  0  0  0  0  0
  -59.2777  -64.4139   41.1566 H   0  0  0  0  0  0  0  0  0  0  0  0
  -60.7548  -63.6934   42.0106 H   0  0  0  0  0  0  0  0  0  0  0  0
  -61.9666  -63.5521   40.1325 H   0  0  0  0  0  0  0  0  0  0  0  0
  -60.5231  -63.1894   39.0981 H   0  0  0  0  0  0  0  0  0  0  0  0
  -60.8867  -65.9721   40.2685 H   0  0  0  0  0  0  0  0  0  0  0  0
  -61.7944  -65.4932   38.7942 H   0  0  0  0  0  0  0  0  0  0  0  0
  -59.9985  -65.4581   38.7942 H   0  0  0  0  0  0  0  0  0  0  0  0
  -57.7816  -58.5038   46.4842 H   0  0  0  0  0  0  0  0  0  0  0  0
  -55.0567  -59.8400   40.6651 H   0  0  0  0  0  0  0  0  0  0  0  0
  1  5  1  0
  6  1  1  0
  1 17  2  0
  2 11  2  0
  2 14  1  0
  2 22  1  0
  3 11  1  0
  3 15  2  0
  3 23  1  0
  4 12  1  0
  6  7  1  0
  6  8  1  0
  7 10  1  0
  7 11  1  0
  8  9  1  0
  9 12  1  0
 10 12  2  0
 13 14  2  0
 13 15  1  0
 13 16  1  0
 16 18  1  0
 18 19  1  0
 19 20  1  0
 20 21  1  0
  4 24  1  0
  4 25  1  0
  4 26  1  0
  5 27  1  0
  5 28  1  0
  5 29  1  0
  6 30  1  6
  7 31  1  1
  8 32  1  0
  8 33  1  0
  9 34  1  0
  9 35  1  0
 10 36  1  0
 14 37  1  0
 15 38  1  0
 16 39  1  0
 16 40  1  0
 17 41  1  0
 17 42  1  0
 18 43  1  0
 18 44  1  0
 19 45  1  0
 19 46  1  0
 20 47  1  0
 20 48  1  0
 21 49  1  0
 21 50  1  0
 21 51  1  0
 22 52  1  0
 23 53  1  0
M  END
>  <filename_input>  (24) 
7TE8_P0T_docked.sdf

>  <pdb_id>  (24) 
7TE8_P0T

>  <pose_rank>  (24) 
23

>  <num_atoms_heavy>  (24) 
23

>  <num_torsions>  (24) 
6

>  <pose>  (24) 
[-57.11196485633808, -59.076540776045015, 44.60232421020557, 0.618642382239391, 2.9673220942373533, 2.1429056851595947, 0.2590822734780675, -2.581034756778045, -2.722679234036802, -1.6626822016080325, -0.5715631638566949, -1.6832112784092679]

>  <energy>  (24) 
-177.09395408608816

>  <inter_energy>  (24) 
-180.1313866243135

>  <intra_energy>  (24) 
19.26295851213328

>  <rmsd>  (24) 
10.8183

>  <sdf_rank>  (24) 
0

$$$$

     RDKit          3D

 53 54  0  0  0  0  0  0  0  0999 V2000
  -54.8445  -51.0707   27.0627 C   0  0  0  0  0  0  0  0  0  0  0  0
  -55.7664  -49.2147   30.2244 C   0  0  0  0  0  0  0  0  0  0  0  0
  -54.3260  -47.6347   29.0299 C   0  0  0  0  0  0  0  0  0  0  0  0
  -60.1471  -48.3324   27.5093 C   0  0  0  0  0  0  0  0  0  0  0  0
  -54.0995  -51.5648   28.0697 C   0  0  0  0  0  0  0  0  0  0  0  0
  -56.2261  -50.4813   27.3883 C   0  0  1  0  0  0  0  0  0  0  0  0
  -56.1668  -48.9613   27.7041 C   0  0  1  0  0  0  0  0  0  0  0  0
  -57.1839  -50.6970   26.1841 C   0  0  0  0  0  0  0  0  0  0  0  0
  -58.6400  -50.2393   26.5172 C   0  0  0  0  0  0  0  0  0  0  0  0
  -57.5593  -48.3220   27.8224 C   0  0  0  0  0  0  0  0  0  0  0  0
  -55.3996  -48.5953   28.9808 C   0  0  0  0  0  0  0  0  0  0  0  0
  -58.7116  -48.8692   27.2326 C   0  0  0  0  0  0  0  0  0  0  0  0
  -54.0102  -47.9652   31.4538 C   0  0  0  0  0  0  0  0  0  0  0  0
  -55.0790  -48.9033   31.4237 C   0  0  0  0  0  0  0  0  0  0  0  0
  -53.6374  -47.3319   30.2373 C   0  0  0  0  0  0  0  0  0  0  0  0
  -53.2608  -47.6523   32.7964 C   0  0  0  0  0  0  0  0  0  0  0  0
  -54.3042  -51.0918   25.6391 C   0  0  0  0  0  0  0  0  0  0  0  0
  -52.7170  -48.9038   33.5309 C   0  0  0  0  0  0  0  0  0  0  0  0
  -53.4205  -49.2103   34.8716 C   0  0  0  0  0  0  0  0  0  0  0  0
  -52.9308  -48.4163   36.1129 C   0  0  0  0  0  0  0  0  0  0  0  0
  -54.0747  -47.5963   36.7528 C   0  0  0  0  0  0  0  0  0  0  0  0
  -56.8181  -50.1349   30.1868 O   0  0  0  0  0  0  0  0  0  0  0  0
  -53.9613  -47.0295   27.8407 O   0  0  0  0  0  0  0  0  0  0  0  0
  -60.3125  -48.2706   28.5950 H   0  0  0  0  0  0  0  0  0  0  0  0
  -60.2568  -47.3325   27.0641 H   0  0  0  0  0  0  0  0  0  0  0  0
  -60.8860  -49.0150   27.0641 H   0  0  0  0  0  0  0  0  0  0  0  0
  -54.5429  -51.2707   29.0324 H   0  0  0  0  0  0  0  0  0  0  0  0
  -54.0698  -52.6621   27.9996 H   0  0  0  0  0  0  0  0  0  0  0  0
  -53.0770  -51.1651   27.9996 H   0  0  0  0  0  0  0  0  0  0  0  0
  -56.5929  -51.0030   28.2846 H   0  0  0  0  0  0  0  0  0  0  0  0
  -55.6209  -48.5634   26.8359 H   0  0  0  0  0  0  0  0  0  0  0  0
  -56.8148  -50.1160   25.3261 H   0  0  0  0  0  0  0  0  0  0  0  0
  -57.2063  -51.7717   25.9510 H   0  0  0  0  0  0  0  0  0  0  0  0
  -59.2063  -50.1703   25.5767 H   0  0  0  0  0  0  0  0  0  0  0  0
  -59.0623  -50.9851   27.2067 H   0  0  0  0  0  0  0  0  0  0  0  0
  -57.6591  -47.3896   28.3975 H   0  0  0  0  0  0  0  0  0  0  0  0
  -55.3804  -49.4007   32.3574 H   0  0  0  0  0  0  0  0  0  0  0  0
  -52.8125  -46.6042   30.2293 H   0  0  0  0  0  0  0  0  0  0  0  0
  -52.4123  -46.9896   32.5708 H   0  0  0  0  0  0  0  0  0  0  0  0
  -53.9987  -47.1891   33.4680 H   0  0  0  0  0  0  0  0  0  0  0  0
  -54.9107  -50.6889   24.8146 H   0  0  0  0  0  0  0  0  0  0  0  0
  -53.3074  -51.5100   25.4353 H   0  0  0  0  0  0  0  0  0  0  0  0
  -52.8431  -49.7734   32.8691 H   0  0  0  0  0  0  0  0  0  0  0  0
  -51.6632  -48.6963   33.7685 H   0  0  0  0  0  0  0  0  0  0  0  0
  -54.4921  -48.9985   34.7419 H   0  0  0  0  0  0  0  0  0  0  0  0
  -53.1834  -50.2622   35.0889 H   0  0  0  0  0  0  0  0  0  0  0  0
  -52.5396  -49.1247   36.8580 H   0  0  0  0  0  0  0  0  0  0  0  0
  -52.1474  -47.7166   35.7863 H   0  0  0  0  0  0  0  0  0  0  0  0
  -53.9972  -47.6518   37.8486 H   0  0  0  0  0  0  0  0  0  0  0  0
  -53.9971  -46.5468   36.4324 H   0  0  0  0  0  0  0  0  0  0  0  0
  -55.0437  -48.0067   36.4324 H   0  0  0  0  0  0  0  0  0  0  0  0
  -57.1086  -50.5888   31.0172 H   0  0  0  0  0  0  0  0  0  0  0  0
  -53.2288  -46.3636   27.8285 H   0  0  0  0  0  0  0  0  0  0  0  0
  1  5  1  0
  6  1  1  0
  1 17  2  0
  2 11  2  0
  2 14  1  0
  2 22  1  0
  3 11  1  0
  3 15  2  0
  3 23  1  0
  4 12  1  0
  6  7  1  0
  6  8  1  0
  7 10  1  0
  7 11  1  0
  8  9  1  0
  9 12  1  0
 10 12  2  0
 13 14  2  0
 13 15  1  0
 13 16  1  0
 16 18  1  0
 18 19  1  0
 19 20  1  0
 20 21  1  0
  4 24  1  0
  4 25  1  0
  4 26  1  0
  5 27  1  0
  5 28  1  0
  5 29  1  0
  6 30  1  1
  7 31  1  6
  8 32  1  0
  8 33  1  0
  9 34  1  0
  9 35  1  0
 10 36  1  0
 14 37  1  0
 15 38  1  0
 16 39  1  0
 16 40  1  0
 17 41  1  0
 17 42  1  0
 18 43  1  0
 18 44  1  0
 19 45  1  0
 19 46  1  0
 20 47  1  0
 20 48  1  0
 21 49  1  0
 21 50  1  0
 21 51  1  0
 22 52  1  0
 23 53  1  0
M  END
>  <filename_input>  (25) 
7TE8_P0T_docked.sdf

>  <pdb_id>  (25) 
7TE8_P0T

>  <pose_rank>  (25) 
24

>  <num_atoms_heavy>  (25) 
23

>  <num_torsions>  (25) 
6

>  <pose>  (25) 
[-55.766429005020356, -49.214745205444984, 30.224400328476985, -2.1819068877648604, 2.131262446622255, -1.7754915176585897, 3.219260892962, -0.24236025958501392, 1.4773205602527415, -0.046534950541166194, 1.841892231559396, -2.1357936022920265]

>  <energy>  (25) 
-161.6069975723599

>  <inter_energy>  (25) 
-190.6658193202075

>  <intra_energy>  (25) 
30.774028012894505

>  <rmsd>  (25) 
12.8472

>  <sdf_rank>  (25) 
0

$$$$

     RDKit          3D

 53 54  0  0  0  0  0  0  0  0999 V2000
  -62.4800  -54.4390   34.7190 C   0  0  0  0  0  0  0  0  0  0  0  0
  -59.8230  -56.8370   36.1820 C   0  0  0  0  0  0  0  0  0  0  0  0
  -61.9200  -58.0800   35.9460 C   0  0  0  0  0  0  0  0  0  0  0  0
  -64.3180  -56.0390   40.1850 C   0  0  0  0  0  0  0  0  0  0  0  0
  -62.6250  -55.1260   33.5700 C   0  0  0  0  0  0  0  0  0  0  0  0
  -63.0600  -55.0340   36.0120 C   0  0  1  0  0  0  0  0  0  0  0  0
  -61.9660  -55.6440   36.9310 C   0  0  1  0  0  0  0  0  0  0  0  0
  -63.8100  -53.9290   36.8060 C   0  0  0  0  0  0  0  0  0  0  0  0
  -64.5360  -54.5130   38.0600 C   0  0  0  0  0  0  0  0  0  0  0  0
  -62.5050  -56.0490   38.3120 C   0  0  0  0  0  0  0  0  0  0  0  0
  -61.2490  -56.8720   36.3560 C   0  0  0  0  0  0  0  0  0  0  0  0
  -63.6660  -55.4960   38.8790 C   0  0  0  0  0  0  0  0  0  0  0  0
  -59.8000  -59.1450   35.2710 C   0  0  0  0  0  0  0  0  0  0  0  0
  -59.1260  -57.9530   35.6560 C   0  0  0  0  0  0  0  0  0  0  0  0
  -61.2120  -59.1980   35.4240 C   0  0  0  0  0  0  0  0  0  0  0  0
  -58.9970  -60.3680   34.7040 C   0  0  0  0  0  0  0  0  0  0  0  0
  -61.7400  -53.1080   34.7180 C   0  0  0  0  0  0  0  0  0  0  0  0
  -57.7200  -59.9830   33.9150 C   0  0  0  0  0  0  0  0  0  0  0  0
  -57.8140  -60.2300   32.3930 C   0  0  0  0  0  0  0  0  0  0  0  0
  -56.6440  -59.6910   31.5260 C   0  0  0  0  0  0  0  0  0  0  0  0
  -57.1230  -58.6080   30.5320 C   0  0  0  0  0  0  0  0  0  0  0  0
  -59.1680  -55.6620   36.5620 O   0  0  0  0  0  0  0  0  0  0  0  0
  -63.2930  -58.1290   36.1070 O   0  0  0  0  0  0  0  0  0  0  0  0
  -63.8032  -55.6103   41.0575 H   0  0  0  0  0  0  0  0  0  0  0  0
  -65.3804  -55.7550   40.2100 H   0  0  0  0  0  0  0  0  0  0  0  0
  -64.2309  -57.1353   40.2100 H   0  0  0  0  0  0  0  0  0  0  0  0
  -62.8472  -56.1789   33.7979 H   0  0  0  0  0  0  0  0  0  0  0  0
  -63.4519  -54.6947   32.9867 H   0  0  0  0  0  0  0  0  0  0  0  0
  -61.6943  -55.0656   32.9867 H   0  0  0  0  0  0  0  0  0  0  0  0
  -63.7450  -55.8412   35.7131 H   0  0  0  0  0  0  0  0  0  0  0  0
  -61.2438  -54.8185   37.0143 H   0  0  0  0  0  0  0  0  0  0  0  0
  -63.0840  -53.1708   37.1349 H   0  0  0  0  0  0  0  0  0  0  0  0
  -64.5691  -53.4858   36.1447 H   0  0  0  0  0  0  0  0  0  0  0  0
  -64.8259  -53.6776   38.7142 H   0  0  0  0  0  0  0  0  0  0  0  0
  -65.4049  -55.0798   37.6943 H   0  0  0  0  0  0  0  0  0  0  0  0
  -61.9547  -56.8096   38.8853 H   0  0  0  0  0  0  0  0  0  0  0  0
  -58.0334  -57.8960   35.5422 H   0  0  0  0  0  0  0  0  0  0  0  0
  -61.7599  -60.1078   35.1374 H   0  0  0  0  0  0  0  0  0  0  0  0
  -58.7002  -61.0067   35.5490 H   0  0  0  0  0  0  0  0  0  0  0  0
  -59.6632  -60.8799   33.9940 H   0  0  0  0  0  0  0  0  0  0  0  0
  -61.6201  -52.5447   35.6552 H   0  0  0  0  0  0  0  0  0  0  0  0
  -61.3254  -52.7099   33.7801 H   0  0  0  0  0  0  0  0  0  0  0  0
  -57.5234  -58.9132   34.0788 H   0  0  0  0  0  0  0  0  0  0  0  0
  -56.9120  -60.6287   34.2894 H   0  0  0  0  0  0  0  0  0  0  0  0
  -57.8731  -61.3169   32.2346 H   0  0  0  0  0  0  0  0  0  0  0  0
  -58.7008  -59.6690   32.0631 H   0  0  0  0  0  0  0  0  0  0  0  0
  -55.8808  -59.2555   32.1877 H   0  0  0  0  0  0  0  0  0  0  0  0
  -56.2303  -60.5299   30.9472 H   0  0  0  0  0  0  0  0  0  0  0  0
  -57.5063  -57.7414   31.0906 H   0  0  0  0  0  0  0  0  0  0  0  0
  -56.2804  -58.2927   29.8991 H   0  0  0  0  0  0  0  0  0  0  0  0
  -57.9231  -59.0193   29.8991 H   0  0  0  0  0  0  0  0  0  0  0  0
  -58.1858  -55.5882   36.4619 H   0  0  0  0  0  0  0  0  0  0  0  0
  -63.7942  -58.9395   35.8387 H   0  0  0  0  0  0  0  0  0  0  0  0
  1  5  1  0
  6  1  1  0
  1 17  2  0
  2 11  2  0
  2 14  1  0
  2 22  1  0
  3 11  1  0
  3 15  2  0
  3 23  1  0
  4 12  1  0
  6  7  1  0
  6  8  1  0
  7 10  1  0
  7 11  1  0
  8  9  1  0
  9 12  1  0
 10 12  2  0
 13 14  2  0
 13 15  1  0
 13 16  1  0
 16 18  1  0
 18 19  1  0
 19 20  1  0
 20 21  1  0
  4 24  1  0
  4 25  1  0
  4 26  1  0
  5 27  1  0
  5 28  1  0
  5 29  1  0
  6 30  1  6
  7 31  1  1
  8 32  1  0
  8 33  1  0
  9 34  1  0
  9 35  1  0
 10 36  1  0
 14 37  1  0
 15 38  1  0
 16 39  1  0
 16 40  1  0
 17 41  1  0
 17 42  1  0
 18 43  1  0
 18 44  1  0
 19 45  1  0
 19 46  1  0
 20 47  1  0
 20 48  1  0
 21 49  1  0
 21 50  1  0
 21 51  1  0
 22 52  1  0
 23 53  1  0
M  END
>  <filename_input>  (26) 
7TE8_P0T_docked.sdf

>  <pdb_id>  (26) 
7TE8_P0T

>  <pose_rank>  (26) 
25

>  <num_atoms_heavy>  (26) 
23

>  <num_torsions>  (26) 
6

>  <pose>  (26) 
[-59.823, -56.837, 36.182, 1e-06, 1e-06, 1e-06, 0.0, 0.0, 0.0, 0.0, 0.0, 0.0]

>  <energy>  (26) 
-744.6715756880451

>  <inter_energy>  (26) 
-761.5813994035526

>  <intra_energy>  (26) 
15.583153243030996

>  <rmsd>  (26) 
0.0

>  <sdf_rank>  (26) 
0

$$$$
