
     RDKit          3D

 55 57  0  0  0  0  0  0  0  0999 V2000
   26.8134    5.8287    6.5444 N   0  0  0  0  0  0  0  0  0  0  0  0
   28.1035    5.6628    6.7362 C   0  0  0  0  0  0  0  0  0  0  0  0
   28.9386    5.4218    5.7123 N   0  0  0  0  0  0  0  0  0  0  0  0
   28.6755    5.8608    7.9728 N   0  0  0  0  0  0  0  0  0  0  0  0
   27.9346    6.0955    9.1079 C   0  0  0  0  0  0  0  0  0  0  0  0
   28.5530    6.3013   10.1823 O   0  0  0  0  0  0  0  0  0  0  0  0
   26.5518    6.1586    8.9294 C   0  0  0  0  0  0  0  0  0  0  0  0
   25.6024    6.3620    9.9746 N   0  0  0  0  0  0  0  0  0  0  0  0
   24.4110    7.1780    9.6574 C   0  0  2  0  0  0  0  0  0  0  0  0
   23.7338    6.5782    8.4291 C   0  0  0  0  0  0  0  0  0  0  0  0
   24.7002    6.2389    7.3928 N   0  0  0  0  0  0  0  0  0  0  0  0
   26.0154    6.0838    7.6061 C   0  0  0  0  0  0  0  0  0  0  0  0
   24.8002    8.6355    9.4547 C   0  0  0  0  0  0  0  0  0  0  0  0
   25.3715    9.1828   10.6815 N   0  0  0  0  0  0  0  0  0  0  0  0
   25.3205   13.1821   11.8123 C   0  0  0  0  0  0  0  0  0  0  0  0
   25.9580   12.2241   12.5961 C   0  0  0  0  0  0  0  0  0  0  0  0
   25.9919   10.9132   12.1996 C   0  0  0  0  0  0  0  0  0  0  0  0
   25.3378   10.5270   11.0301 C   0  0  0  0  0  0  0  0  0  0  0  0
   24.7095   11.4784   10.2372 C   0  0  0  0  0  0  0  0  0  0  0  0
   24.7091   12.7947   10.6298 C   0  0  0  0  0  0  0  0  0  0  0  0
   25.3115   14.6409   12.1858 C   0  0  0  0  0  0  0  0  0  0  0  0
   25.3089   15.4910   11.3050 O   0  0  0  0  0  0  0  0  0  0  0  0
   25.2755   14.9496   13.4946 N   0  0  0  0  0  0  0  0  0  0  0  0
   25.4639   16.3144   13.9654 C   0  0  1  0  0  0  0  0  0  0  0  0
   26.8723   16.8093   13.6120 C   0  0  0  0  0  0  0  0  0  0  0  0
   27.8999   16.2827   14.5995 C   0  0  0  0  0  0  0  0  0  0  0  0
   28.7145   17.3171   15.3549 C   0  0  0  0  0  0  0  0  0  0  0  0
   29.8390   17.6251   14.8999 O   0  0  0  0  0  0  0  0  0  0  0  0
   28.2119   17.8270   16.3886 O   0  0  0  0  0  0  0  0  0  0  0  0
   24.3560   17.2310   13.4248 C   0  0  0  0  0  0  0  0  0  0  0  0
   23.1103   16.8555   13.5240 O   0  0  0  0  0  0  0  0  0  0  0  0
   24.7666   18.2963   12.9456 O   0  0  0  0  0  0  0  0  0  0  0  0
   25.6221    5.5794   11.0781 C   0  0  0  0  0  0  0  0  0  0  0  0
   26.5754    4.8069   11.3222 O   0  0  0  0  0  0  0  0  0  0  0  0
   29.9456    5.2953    5.8878 H   0  0  0  0  0  0  0  0  0  0  0  0
   28.5720    5.3633    4.7515 H   0  0  0  0  0  0  0  0  0  0  0  0
   29.7021    5.8318    8.0514 H   0  0  0  0  0  0  0  0  0  0  0  0
   23.6970    7.1636   10.4941 H   0  0  0  0  0  0  0  0  0  0  0  0
   23.1966    5.6660    8.7280 H   0  0  0  0  0  0  0  0  0  0  0  0
   23.0405    7.3275    8.0195 H   0  0  0  0  0  0  0  0  0  0  0  0
   24.3503    6.1097    6.4327 H   0  0  0  0  0  0  0  0  0  0  0  0
   25.5434    8.7035    8.6465 H   0  0  0  0  0  0  0  0  0  0  0  0
   23.9017    9.2122    9.1901 H   0  0  0  0  0  0  0  0  0  0  0  0
   25.8302    8.5289   11.3318 H   0  0  0  0  0  0  0  0  0  0  0  0
   26.4376   12.5218   13.5401 H   0  0  0  0  0  0  0  0  0  0  0  0
   26.5331   10.1682   12.8013 H   0  0  0  0  0  0  0  0  0  0  0  0
   24.2153   11.1799    9.3009 H   0  0  0  0  0  0  0  0  0  0  0  0
   24.2181   13.5502    9.9988 H   0  0  0  0  0  0  0  0  0  0  0  0
   25.1103   14.2005   14.1819 H   0  0  0  0  0  0  0  0  0  0  0  0
   25.3822   16.3364   15.0621 H   0  0  0  0  0  0  0  0  0  0  0  0
   27.1329   16.4605   12.6018 H   0  0  0  0  0  0  0  0  0  0  0  0
   26.8777   17.9085   13.6543 H   0  0  0  0  0  0  0  0  0  0  0  0
   27.3655   15.6724   15.3424 H   0  0  0  0  0  0  0  0  0  0  0  0
   28.6297   15.7307   13.9892 H   0  0  0  0  0  0  0  0  0  0  0  0
   24.7765    5.6235   11.7801 H   0  0  0  0  0  0  0  0  0  0  0  0
  1  2  2  0
  1 12  1  0
  2  3  1  0
  2  4  1  0
  4  5  1  0
  5  6  2  0
  5  7  1  0
  7  8  1  0
  7 12  2  0
  8  9  1  0
  8 33  1  0
  9 10  1  0
  9 13  1  0
 10 11  1  0
 11 12  1  0
 13 14  1  0
 14 18  1  0
 15 16  2  0
 15 20  1  0
 15 21  1  0
 16 17  1  0
 17 18  2  0
 18 19  1  0
 19 20  2  0
 21 22  2  0
 21 23  1  0
 23 24  1  0
 24 25  1  0
 24 30  1  0
 25 26  1  0
 26 27  1  0
 27 28  2  0
 27 29  1  0
 30 31  2  0
 30 32  1  0
 33 34  2  0
  3 35  1  0
  3 36  1  0
  4 37  1  0
  9 38  1  1
 10 39  1  0
 10 40  1  0
 11 41  1  0
 13 42  1  0
 13 43  1  0
 14 44  1  0
 16 45  1  0
 17 46  1  0
 19 47  1  0
 20 48  1  0
 23 49  1  0
 24 50  1  1
 25 51  1  0
 25 52  1  0
 26 53  1  0
 26 54  1  0
 33 55  1  0
M  CHG  2  29  -1  32  -1
M  END
>  <filename_input>  (1) 
7TH4_FFO_docked.sdf

>  <pdb_id>  (1) 
7TH4_FFO

>  <pose_rank>  (1) 
0

>  <num_atoms_heavy>  (1) 
34

>  <num_torsions>  (1) 
9

>  <pose>  (1) 
[25.32051853098362, 13.182071918247463, 11.812305864330623, 5.27169622310938, 1.9651268374057531, 3.0713803101181316, -1.1233648414006359, -3.834150380542451, -5.025991530868912, 6.403948897737873, 1.1675615418900251, -2.126154707357872, -0.03897980356979312, 0.3023664873595409, 6.054904984442143]

>  <energy>  (1) 
-568.9822841572732

>  <inter_energy>  (1) 
-595.1451683205431

>  <intra_energy>  (1) 
24.28665849247306

>  <rmsd>  (1) 
2.1193

>  <sdf_rank>  (1) 
0

$$$$

     RDKit          3D

 55 57  0  0  0  0  0  0  0  0999 V2000
   26.0497    5.3995    6.0884 N   0  0  0  0  0  0  0  0  0  0  0  0
   27.3582    5.5268    6.0652 C   0  0  0  0  0  0  0  0  0  0  0  0
   28.0567    5.3746    4.9282 N   0  0  0  0  0  0  0  0  0  0  0  0
   28.0566    5.9521    7.1728 N   0  0  0  0  0  0  0  0  0  0  0  0
   27.4674    6.1280    8.4034 C   0  0  0  0  0  0  0  0  0  0  0  0
   28.1835    6.5559    9.3431 O   0  0  0  0  0  0  0  0  0  0  0  0
   26.0947    5.8825    8.4612 C   0  0  0  0  0  0  0  0  0  0  0  0
   25.2977    5.9759    9.6408 N   0  0  0  0  0  0  0  0  0  0  0  0
   23.9203    6.4908    9.4880 C   0  0  2  0  0  0  0  0  0  0  0  0
   23.2113    5.6530    8.4287 C   0  0  0  0  0  0  0  0  0  0  0  0
   24.0561    5.4317    7.2623 N   0  0  0  0  0  0  0  0  0  0  0  0
   25.3897    5.5766    7.2554 C   0  0  0  0  0  0  0  0  0  0  0  0
   23.9394    7.9730    9.1420 C   0  0  0  0  0  0  0  0  0  0  0  0
   24.6125    8.7302   10.1930 N   0  0  0  0  0  0  0  0  0  0  0  0
   25.0337   12.8632   10.3202 C   0  0  0  0  0  0  0  0  0  0  0  0
   25.5162   12.0619   11.3515 C   0  0  0  0  0  0  0  0  0  0  0  0
   25.3961   10.6988   11.2859 C   0  0  0  0  0  0  0  0  0  0  0  0
   24.7387   10.1134   10.2042 C   0  0  0  0  0  0  0  0  0  0  0  0
   24.2647   10.9052    9.1663 C   0  0  0  0  0  0  0  0  0  0  0  0
   24.4189   12.2686    9.2291 C   0  0  0  0  0  0  0  0  0  0  0  0
   25.1982   14.3601   10.3295 C   0  0  0  0  0  0  0  0  0  0  0  0
   25.9239   14.8942    9.5009 O   0  0  0  0  0  0  0  0  0  0  0  0
   24.5037   15.0583   11.2458 N   0  0  0  0  0  0  0  0  0  0  0  0
   24.7411   16.4774   11.4692 C   0  0  1  0  0  0  0  0  0  0  0  0
   24.3165   16.8704   12.8900 C   0  0  0  0  0  0  0  0  0  0  0  0
   24.0062   15.6409   13.7269 C   0  0  0  0  0  0  0  0  0  0  0  0
   23.5035   15.8840   15.1384 C   0  0  0  0  0  0  0  0  0  0  0  0
   22.6040   15.1332   15.5785 O   0  0  0  0  0  0  0  0  0  0  0  0
   24.0285   16.8141   15.8020 O   0  0  0  0  0  0  0  0  0  0  0  0
   26.2029   16.8362   11.1623 C   0  0  0  0  0  0  0  0  0  0  0  0
   26.4771   17.5557   10.1088 O   0  0  0  0  0  0  0  0  0  0  0  0
   27.0160   16.4092   11.9927 O   0  0  0  0  0  0  0  0  0  0  0  0
   25.6620    5.3185   10.7659 C   0  0  0  0  0  0  0  0  0  0  0  0
   26.7892    4.7892   10.8851 O   0  0  0  0  0  0  0  0  0  0  0  0
   29.0814    5.4792    4.9354 H   0  0  0  0  0  0  0  0  0  0  0  0
   27.5678    5.1533    4.0491 H   0  0  0  0  0  0  0  0  0  0  0  0
   29.0633    6.1469    7.0760 H   0  0  0  0  0  0  0  0  0  0  0  0
   23.3661    6.4028   10.4341 H   0  0  0  0  0  0  0  0  0  0  0  0
   22.9435    4.6792    8.8647 H   0  0  0  0  0  0  0  0  0  0  0  0
   22.3138    6.1994    8.1033 H   0  0  0  0  0  0  0  0  0  0  0  0
   23.5991    5.1451    6.3849 H   0  0  0  0  0  0  0  0  0  0  0  0
   24.4745    8.1168    8.1917 H   0  0  0  0  0  0  0  0  0  0  0  0
   22.9038    8.3322    9.0496 H   0  0  0  0  0  0  0  0  0  0  0  0
   25.0210    8.2038   10.9784 H   0  0  0  0  0  0  0  0  0  0  0  0
   25.9971   12.5264   12.2249 H   0  0  0  0  0  0  0  0  0  0  0  0
   25.8166   10.0684   12.0833 H   0  0  0  0  0  0  0  0  0  0  0  0
   23.7691   10.4434    8.2997 H   0  0  0  0  0  0  0  0  0  0  0  0
   24.0504   12.8960    8.4041 H   0  0  0  0  0  0  0  0  0  0  0  0
   23.7848   14.5763   11.8041 H   0  0  0  0  0  0  0  0  0  0  0  0
   24.1214   17.0645   10.7755 H   0  0  0  0  0  0  0  0  0  0  0  0
   25.1330   17.4328   13.3665 H   0  0  0  0  0  0  0  0  0  0  0  0
   23.4085   17.4879   12.8255 H   0  0  0  0  0  0  0  0  0  0  0  0
   23.2374   15.0613   13.1949 H   0  0  0  0  0  0  0  0  0  0  0  0
   24.9698   15.1245   13.8490 H   0  0  0  0  0  0  0  0  0  0  0  0
   24.9471    5.2475   11.5989 H   0  0  0  0  0  0  0  0  0  0  0  0
  1  2  2  0
  1 12  1  0
  2  3  1  0
  2  4  1  0
  4  5  1  0
  5  6  2  0
  5  7  1  0
  7  8  1  0
  7 12  2  0
  8  9  1  0
  8 33  1  0
  9 10  1  0
  9 13  1  0
 10 11  1  0
 11 12  1  0
 13 14  1  0
 14 18  1  0
 15 16  2  0
 15 20  1  0
 15 21  1  0
 16 17  1  0
 17 18  2  0
 18 19  1  0
 19 20  2  0
 21 22  2  0
 21 23  1  0
 23 24  1  0
 24 25  1  0
 24 30  1  0
 25 26  1  0
 26 27  1  0
 27 28  2  0
 27 29  1  0
 30 31  2  0
 30 32  1  0
 33 34  2  0
  3 35  1  0
  3 36  1  0
  4 37  1  0
  9 38  1  1
 10 39  1  0
 10 40  1  0
 11 41  1  0
 13 42  1  0
 13 43  1  0
 14 44  1  0
 16 45  1  0
 17 46  1  0
 19 47  1  0
 20 48  1  0
 23 49  1  0
 24 50  1  6
 25 51  1  0
 25 52  1  0
 26 53  1  0
 26 54  1  0
 33 55  1  0
M  CHG  2  29  -1  32  -1
M  END
>  <filename_input>  (2) 
7TH4_FFO_docked.sdf

>  <pdb_id>  (2) 
7TH4_FFO

>  <pose_rank>  (2) 
1

>  <num_atoms_heavy>  (2) 
34

>  <num_torsions>  (2) 
9

>  <pose>  (2) 
[25.033676011488385, 12.863200564440373, 10.320249855283729, -0.14238969174063668, -0.010503522951911608, -0.06468407332991749, -1.730249725118603, 0.8460622934240183, 2.326631255813897, 1.6916352027013322, 0.2001625316155281, 2.0044461353270315, -0.11356693365308847, -0.1104633707507071, -0.18318803031784606]

>  <energy>  (2) 
-663.4072625147298

>  <inter_energy>  (2) 
-702.3652222420014

>  <intra_energy>  (2) 
51.275690964843356

>  <rmsd>  (2) 
1.74039

>  <sdf_rank>  (2) 
0

$$$$

     RDKit          3D

 55 57  0  0  0  0  0  0  0  0999 V2000
   26.7472    5.5690    6.4951 N   0  0  0  0  0  0  0  0  0  0  0  0
   28.0593    5.6110    6.5693 C   0  0  0  0  0  0  0  0  0  0  0  0
   28.8308    5.2939    5.5167 N   0  0  0  0  0  0  0  0  0  0  0  0
   28.6986    6.1086    7.6825 N   0  0  0  0  0  0  0  0  0  0  0  0
   28.0302    6.4525    8.8346 C   0  0  0  0  0  0  0  0  0  0  0  0
   28.7003    6.9335    9.7826 O   0  0  0  0  0  0  0  0  0  0  0  0
   26.6432    6.3009    8.8015 C   0  0  0  0  0  0  0  0  0  0  0  0
   25.7663    6.5704    9.8940 N   0  0  0  0  0  0  0  0  0  0  0  0
   24.4448    7.1510    9.5740 C   0  0  2  0  0  0  0  0  0  0  0  0
   23.7619    6.2499    8.5499 C   0  0  0  0  0  0  0  0  0  0  0  0
   24.6763    5.8520    7.4876 N   0  0  0  0  0  0  0  0  0  0  0  0
   26.0134    5.9116    7.5782 C   0  0  0  0  0  0  0  0  0  0  0  0
   24.5958    8.5832    9.0810 C   0  0  0  0  0  0  0  0  0  0  0  0
   23.9612    9.5098   10.0136 N   0  0  0  0  0  0  0  0  0  0  0  0
   24.8909   13.5453   10.3672 C   0  0  0  0  0  0  0  0  0  0  0  0
   25.1664   12.6535   11.4003 C   0  0  0  0  0  0  0  0  0  0  0  0
   24.8806   11.3209   11.2618 C   0  0  0  0  0  0  0  0  0  0  0  0
   24.2608   10.8634   10.0994 C   0  0  0  0  0  0  0  0  0  0  0  0
   23.9931   11.7448    9.0600 C   0  0  0  0  0  0  0  0  0  0  0  0
   24.3130   13.0734    9.1987 C   0  0  0  0  0  0  0  0  0  0  0  0
   25.2430   15.0066   10.4597 C   0  0  0  0  0  0  0  0  0  0  0  0
   24.3621   15.8494   10.3500 O   0  0  0  0  0  0  0  0  0  0  0  0
   26.5289   15.3248   10.6935 N   0  0  0  0  0  0  0  0  0  0  0  0
   27.0073   16.6971   10.6033 C   0  0  1  0  0  0  0  0  0  0  0  0
   27.5411   17.1647   11.9633 C   0  0  0  0  0  0  0  0  0  0  0  0
   27.9782   15.9838   12.8136 C   0  0  0  0  0  0  0  0  0  0  0  0
   28.3723   16.2836   14.2486 C   0  0  0  0  0  0  0  0  0  0  0  0
   29.5034   15.9135   14.6360 O   0  0  0  0  0  0  0  0  0  0  0  0
   27.5517   16.9052   14.9705 O   0  0  0  0  0  0  0  0  0  0  0  0
   28.0415   16.8365    9.4761 C   0  0  0  0  0  0  0  0  0  0  0  0
   28.9587   17.7608    9.5604 O   0  0  0  0  0  0  0  0  0  0  0  0
   27.9151   16.0074    8.5651 O   0  0  0  0  0  0  0  0  0  0  0  0
   25.9951    6.0165   11.1070 C   0  0  0  0  0  0  0  0  0  0  0  0
   27.0693    5.4337   11.3743 O   0  0  0  0  0  0  0  0  0  0  0  0
   29.8567    5.3344    5.5994 H   0  0  0  0  0  0  0  0  0  0  0  0
   28.3967    5.0103    4.6268 H   0  0  0  0  0  0  0  0  0  0  0  0
   29.7211    6.2285    7.6513 H   0  0  0  0  0  0  0  0  0  0  0  0
   23.8144    7.2002   10.4741 H   0  0  0  0  0  0  0  0  0  0  0  0
   23.3928    5.3475    9.0592 H   0  0  0  0  0  0  0  0  0  0  0  0
   22.9333    6.8132    8.0960 H   0  0  0  0  0  0  0  0  0  0  0  0
   24.2691    5.5017    6.6088 H   0  0  0  0  0  0  0  0  0  0  0  0
   25.6651    8.8275    8.9980 H   0  0  0  0  0  0  0  0  0  0  0  0
   24.1104    8.6763    8.0983 H   0  0  0  0  0  0  0  0  0  0  0  0
   23.2435    9.1349   10.6503 H   0  0  0  0  0  0  0  0  0  0  0  0
   25.6166   13.0215   12.3340 H   0  0  0  0  0  0  0  0  0  0  0  0
   25.1390   10.6145   12.0644 H   0  0  0  0  0  0  0  0  0  0  0  0
   23.5281   11.3813    8.1318 H   0  0  0  0  0  0  0  0  0  0  0  0
   24.1081   13.7710    8.3732 H   0  0  0  0  0  0  0  0  0  0  0  0
   27.1928   14.5779   10.9430 H   0  0  0  0  0  0  0  0  0  0  0  0
   26.1683   17.3594   10.3433 H   0  0  0  0  0  0  0  0  0  0  0  0
   28.4024   17.8297   11.8020 H   0  0  0  0  0  0  0  0  0  0  0  0
   26.7359   17.6968   12.4911 H   0  0  0  0  0  0  0  0  0  0  0  0
   27.1449   15.2662   12.8402 H   0  0  0  0  0  0  0  0  0  0  0  0
   28.8946   15.6078   12.3355 H   0  0  0  0  0  0  0  0  0  0  0  0
   25.2148    6.0805   11.8798 H   0  0  0  0  0  0  0  0  0  0  0  0
  1  2  2  0
  1 12  1  0
  2  3  1  0
  2  4  1  0
  4  5  1  0
  5  6  2  0
  5  7  1  0
  7  8  1  0
  7 12  2  0
  8  9  1  0
  8 33  1  0
  9 10  1  0
  9 13  1  0
 10 11  1  0
 11 12  1  0
 13 14  1  0
 14 18  1  0
 15 16  2  0
 15 20  1  0
 15 21  1  0
 16 17  1  0
 17 18  2  0
 18 19  1  0
 19 20  2  0
 21 22  2  0
 21 23  1  0
 23 24  1  0
 24 25  1  0
 24 30  1  0
 25 26  1  0
 26 27  1  0
 27 28  2  0
 27 29  1  0
 30 31  2  0
 30 32  1  0
 33 34  2  0
  3 35  1  0
  3 36  1  0
  4 37  1  0
  9 38  1  1
 10 39  1  0
 10 40  1  0
 11 41  1  0
 13 42  1  0
 13 43  1  0
 14 44  1  0
 16 45  1  0
 17 46  1  0
 19 47  1  0
 20 48  1  0
 23 49  1  0
 24 50  1  6
 25 51  1  0
 25 52  1  0
 26 53  1  0
 26 54  1  0
 33 55  1  0
M  CHG  2  29  -1  32  -1
M  END
>  <filename_input>  (3) 
7TH4_FFO_docked.sdf

>  <pdb_id>  (3) 
7TH4_FFO

>  <pose_rank>  (3) 
2

>  <num_atoms_heavy>  (3) 
34

>  <num_torsions>  (3) 
9

>  <pose>  (3) 
[24.890938860995394, 13.545328982647472, 10.367204561734784, 2.4844289659107774, 2.322241384597243, 4.9916270948325705, 0.45975105076568396, -0.6653101962891516, -2.2451730045237386, 1.9428039097405827, 0.2719742796610462, 3.642030415505138, 1.0706833616783404, -0.5335700301206915, -1.1594386151984168]

>  <energy>  (3) 
-721.3916329743353

>  <inter_energy>  (3) 
-721.1746779150178

>  <intra_energy>  (3) 
1.031386872124345

>  <rmsd>  (3) 
1.44649

>  <sdf_rank>  (3) 
0

$$$$

     RDKit          3D

 55 57  0  0  0  0  0  0  0  0999 V2000
   26.8885    6.2064    6.1024 N   0  0  0  0  0  0  0  0  0  0  0  0
   28.0856    5.7015    6.3048 C   0  0  0  0  0  0  0  0  0  0  0  0
   28.8873    5.3676    5.2804 N   0  0  0  0  0  0  0  0  0  0  0  0
   28.6231    5.6169    7.5694 N   0  0  0  0  0  0  0  0  0  0  0  0
   27.9051    5.9093    8.7059 C   0  0  0  0  0  0  0  0  0  0  0  0
   28.4980    5.8376    9.8114 O   0  0  0  0  0  0  0  0  0  0  0  0
   26.5923    6.3372    8.5026 C   0  0  0  0  0  0  0  0  0  0  0  0
   25.6694    6.6615    9.5410 N   0  0  0  0  0  0  0  0  0  0  0  0
   24.7355    7.7801    9.2916 C   0  0  2  0  0  0  0  0  0  0  0  0
   23.9961    7.5038    7.9862 C   0  0  0  0  0  0  0  0  0  0  0  0
   24.9013    7.0436    6.9412 N   0  0  0  0  0  0  0  0  0  0  0  0
   26.1241    6.5405    7.1669 C   0  0  0  0  0  0  0  0  0  0  0  0
   25.4836    9.1055    9.2682 C   0  0  0  0  0  0  0  0  0  0  0  0
   24.5416   10.2200    9.3061 N   0  0  0  0  0  0  0  0  0  0  0  0
   25.3025   13.8013   11.2735 C   0  0  0  0  0  0  0  0  0  0  0  0
   25.4789   12.5791   11.9166 C   0  0  0  0  0  0  0  0  0  0  0  0
   25.2513   11.4044   11.2496 C   0  0  0  0  0  0  0  0  0  0  0  0
   24.7886   11.4339    9.9344 C   0  0  0  0  0  0  0  0  0  0  0  0
   24.6210   12.6487    9.2826 C   0  0  0  0  0  0  0  0  0  0  0  0
   24.8825   13.8191    9.9524 C   0  0  0  0  0  0  0  0  0  0  0  0
   25.5976   15.1112   11.9552 C   0  0  0  0  0  0  0  0  0  0  0  0
   26.5889   15.7522   11.6311 O   0  0  0  0  0  0  0  0  0  0  0  0
   24.7260   15.5407   12.8854 N   0  0  0  0  0  0  0  0  0  0  0  0
   25.0173   16.6840   13.7387 C   0  0  1  0  0  0  0  0  0  0  0  0
   23.9148   17.7421   13.6048 C   0  0  0  0  0  0  0  0  0  0  0  0
   24.0883   18.8449   14.6355 C   0  0  0  0  0  0  0  0  0  0  0  0
   22.8582   19.2315   15.4364 C   0  0  0  0  0  0  0  0  0  0  0  0
   22.2999   20.3186   15.1663 O   0  0  0  0  0  0  0  0  0  0  0  0
   22.4501   18.4326   16.3175 O   0  0  0  0  0  0  0  0  0  0  0  0
   25.2389   16.2330   15.1903 C   0  0  0  0  0  0  0  0  0  0  0  0
   24.2599   15.6658   15.8402 O   0  0  0  0  0  0  0  0  0  0  0  0
   26.3827   16.4390   15.6174 O   0  0  0  0  0  0  0  0  0  0  0  0
   25.4370    5.7868   10.5468 C   0  0  0  0  0  0  0  0  0  0  0  0
   26.1552    4.7778   10.7229 O   0  0  0  0  0  0  0  0  0  0  0  0
   29.8210    4.9737    5.4644 H   0  0  0  0  0  0  0  0  0  0  0  0
   28.5685    5.5054    4.3107 H   0  0  0  0  0  0  0  0  0  0  0  0
   29.6050    5.3221    7.6690 H   0  0  0  0  0  0  0  0  0  0  0  0
   23.9974    7.8576   10.1035 H   0  0  0  0  0  0  0  0  0  0  0  0
   23.2349    6.7300    8.1646 H   0  0  0  0  0  0  0  0  0  0  0  0
   23.5324    8.4426    7.6493 H   0  0  0  0  0  0  0  0  0  0  0  0
   24.5810    7.1091    5.9645 H   0  0  0  0  0  0  0  0  0  0  0  0
   26.1484    9.1624   10.1427 H   0  0  0  0  0  0  0  0  0  0  0  0
   26.0734    9.1670    8.3417 H   0  0  0  0  0  0  0  0  0  0  0  0
   23.6335   10.0981    8.8357 H   0  0  0  0  0  0  0  0  0  0  0  0
   25.8033   12.5567   12.9674 H   0  0  0  0  0  0  0  0  0  0  0  0
   25.4329   10.4415   11.7495 H   0  0  0  0  0  0  0  0  0  0  0  0
   24.2811   12.6735    8.2367 H   0  0  0  0  0  0  0  0  0  0  0  0
   24.7571   14.7815    9.4346 H   0  0  0  0  0  0  0  0  0  0  0  0
   23.8286   15.0477   12.9970 H   0  0  0  0  0  0  0  0  0  0  0  0
   25.9554   17.1549   13.4096 H   0  0  0  0  0  0  0  0  0  0  0  0
   23.9587   18.1816   12.5974 H   0  0  0  0  0  0  0  0  0  0  0  0
   22.9419   17.2568   13.7723 H   0  0  0  0  0  0  0  0  0  0  0  0
   24.8597   18.5166   15.3477 H   0  0  0  0  0  0  0  0  0  0  0  0
   24.3489   19.7427   14.0560 H   0  0  0  0  0  0  0  0  0  0  0  0
   24.5930    5.9681   11.2286 H   0  0  0  0  0  0  0  0  0  0  0  0
  1  2  2  0
  1 12  1  0
  2  3  1  0
  2  4  1  0
  4  5  1  0
  5  6  2  0
  5  7  1  0
  7  8  1  0
  7 12  2  0
  8  9  1  0
  8 33  1  0
  9 10  1  0
  9 13  1  0
 10 11  1  0
 11 12  1  0
 13 14  1  0
 14 18  1  0
 15 16  2  0
 15 20  1  0
 15 21  1  0
 16 17  1  0
 17 18  2  0
 18 19  1  0
 19 20  2  0
 21 22  2  0
 21 23  1  0
 23 24  1  0
 24 25  1  0
 24 30  1  0
 25 26  1  0
 26 27  1  0
 27 28  2  0
 27 29  1  0
 30 31  2  0
 30 32  1  0
 33 34  2  0
  3 35  1  0
  3 36  1  0
  4 37  1  0
  9 38  1  1
 10 39  1  0
 10 40  1  0
 11 41  1  0
 13 42  1  0
 13 43  1  0
 14 44  1  0
 16 45  1  0
 17 46  1  0
 19 47  1  0
 20 48  1  0
 23 49  1  0
 24 50  1  6
 25 51  1  0
 25 52  1  0
 26 53  1  0
 26 54  1  0
 33 55  1  0
M  CHG  2  29  -1  32  -1
M  END
>  <filename_input>  (4) 
7TH4_FFO_docked.sdf

>  <pdb_id>  (4) 
7TH4_FFO

>  <pose_rank>  (4) 
3

>  <num_atoms_heavy>  (4) 
34

>  <num_torsions>  (4) 
9

>  <pose>  (4) 
[25.30252001695553, 13.801294746098511, 11.273490030133686, 0.3017267616607773, -0.1762285222534838, -0.21617823281353307, -1.8281287722219917, 5.715488849620174, -0.6852173472196085, -1.7727493001947128, 0.9968936516655171, -2.3162598451492133, -10.39780335396951, -13.31687942904048, -8.360048757552866]

>  <energy>  (4) 
-621.6515483231316

>  <inter_energy>  (4) 
-621.925911895273

>  <intra_energy>  (4) 
1.7934581924109598

>  <rmsd>  (4) 
3.08904

>  <sdf_rank>  (4) 
0

$$$$

     RDKit          3D

 55 57  0  0  0  0  0  0  0  0999 V2000
   29.1851    4.9205   10.2852 N   0  0  0  0  0  0  0  0  0  0  0  0
   28.8913    4.7970   11.5608 C   0  0  0  0  0  0  0  0  0  0  0  0
   29.8477    4.6096   12.4849 N   0  0  0  0  0  0  0  0  0  0  0  0
   27.6082    4.9873   12.0224 N   0  0  0  0  0  0  0  0  0  0  0  0
   26.5334    5.1693   11.1833 C   0  0  0  0  0  0  0  0  0  0  0  0
   25.4080    5.3728   11.7040 O   0  0  0  0  0  0  0  0  0  0  0  0
   26.8235    5.1865    9.8183 C   0  0  0  0  0  0  0  0  0  0  0  0
   25.8560    5.3317    8.7799 N   0  0  0  0  0  0  0  0  0  0  0  0
   26.2539    6.1111    7.5882 C   0  0  2  0  0  0  0  0  0  0  0  0
   27.5452    5.5152    7.0364 C   0  0  0  0  0  0  0  0  0  0  0  0
   28.5051    5.2348    8.0960 N   0  0  0  0  0  0  0  0  0  0  0  0
   28.1876    5.1224    9.3945 C   0  0  0  0  0  0  0  0  0  0  0  0
   26.3952    7.5859    7.9373 C   0  0  0  0  0  0  0  0  0  0  0  0
   25.2138    8.0518    8.6570 N   0  0  0  0  0  0  0  0  0  0  0  0
   24.7205   11.9470   10.0208 C   0  0  0  0  0  0  0  0  0  0  0  0
   25.7094   11.1224   10.5504 C   0  0  0  0  0  0  0  0  0  0  0  0
   25.8806    9.8494   10.0741 C   0  0  0  0  0  0  0  0  0  0  0  0
   25.0240    9.3582    9.0893 C   0  0  0  0  0  0  0  0  0  0  0  0
   24.0425   10.1783    8.5482 C   0  0  0  0  0  0  0  0  0  0  0  0
   23.9011   11.4633    9.0125 C   0  0  0  0  0  0  0  0  0  0  0  0
   24.5394   13.3703   10.4782 C   0  0  0  0  0  0  0  0  0  0  0  0
   23.4135   13.7951   10.7025 O   0  0  0  0  0  0  0  0  0  0  0  0
   25.6458   14.1152   10.6521 N   0  0  0  0  0  0  0  0  0  0  0  0
   25.5737   15.5488   10.8968 C   0  0  1  0  0  0  0  0  0  0  0  0
   25.8030   15.8466   12.3841 C   0  0  0  0  0  0  0  0  0  0  0  0
   27.2091   15.4578   12.8084 C   0  0  0  0  0  0  0  0  0  0  0  0
   27.3401   14.2405   13.7059 C   0  0  0  0  0  0  0  0  0  0  0  0
   28.4914   13.8711   14.0294 O   0  0  0  0  0  0  0  0  0  0  0  0
   26.2863   13.6757   14.0952 O   0  0  0  0  0  0  0  0  0  0  0  0
   26.5478   16.3038    9.9798 C   0  0  0  0  0  0  0  0  0  0  0  0
   27.2253   15.6412    9.0828 O   0  0  0  0  0  0  0  0  0  0  0  0
   26.5823   17.5265   10.1719 O   0  0  0  0  0  0  0  0  0  0  0  0
   24.7703    4.5254    8.7395 C   0  0  0  0  0  0  0  0  0  0  0  0
   24.4639    3.7825    9.6983 O   0  0  0  0  0  0  0  0  0  0  0  0
   29.5925    4.5156   13.4784 H   0  0  0  0  0  0  0  0  0  0  0  0
   30.8363    4.5598   12.2001 H   0  0  0  0  0  0  0  0  0  0  0  0
   27.4461    4.9936   13.0395 H   0  0  0  0  0  0  0  0  0  0  0  0
   25.4791    6.0519    6.8096 H   0  0  0  0  0  0  0  0  0  0  0  0
   27.3094    4.5777    6.5116 H   0  0  0  0  0  0  0  0  0  0  0  0
   27.9955    6.2482    6.3508 H   0  0  0  0  0  0  0  0  0  0  0  0
   29.4931    5.1148    7.8305 H   0  0  0  0  0  0  0  0  0  0  0  0
   27.2841    7.7254    8.5701 H   0  0  0  0  0  0  0  0  0  0  0  0
   26.4994    8.1650    7.0079 H   0  0  0  0  0  0  0  0  0  0  0  0
   24.4716    7.3664    8.8577 H   0  0  0  0  0  0  0  0  0  0  0  0
   26.3577   11.4956   11.3569 H   0  0  0  0  0  0  0  0  0  0  0  0
   26.6905    9.2171   10.4668 H   0  0  0  0  0  0  0  0  0  0  0  0
   23.3827    9.8013    7.7529 H   0  0  0  0  0  0  0  0  0  0  0  0
   23.1289   12.1160    8.5794 H   0  0  0  0  0  0  0  0  0  0  0  0
   26.5686   13.6595   10.6111 H   0  0  0  0  0  0  0  0  0  0  0  0
   24.5650   15.9107   10.6492 H   0  0  0  0  0  0  0  0  0  0  0  0
   25.6586   16.9226   12.5616 H   0  0  0  0  0  0  0  0  0  0  0  0
   25.0844   15.2582   12.9735 H   0  0  0  0  0  0  0  0  0  0  0  0
   27.7904   15.2623   11.8953 H   0  0  0  0  0  0  0  0  0  0  0  0
   27.5716   16.3021   13.4131 H   0  0  0  0  0  0  0  0  0  0  0  0
   24.1393    4.5230    7.8384 H   0  0  0  0  0  0  0  0  0  0  0  0
  1  2  2  0
  1 12  1  0
  2  3  1  0
  2  4  1  0
  4  5  1  0
  5  6  2  0
  5  7  1  0
  7  8  1  0
  7 12  2  0
  8  9  1  0
  8 33  1  0
  9 10  1  0
  9 13  1  0
 10 11  1  0
 11 12  1  0
 13 14  1  0
 14 18  1  0
 15 16  2  0
 15 20  1  0
 15 21  1  0
 16 17  1  0
 17 18  2  0
 18 19  1  0
 19 20  2  0
 21 22  2  0
 21 23  1  0
 23 24  1  0
 24 25  1  0
 24 30  1  0
 25 26  1  0
 26 27  1  0
 27 28  2  0
 27 29  1  0
 30 31  2  0
 30 32  1  0
 33 34  2  0
  3 35  1  0
  3 36  1  0
  4 37  1  0
  9 38  1  6
 10 39  1  0
 10 40  1  0
 11 41  1  0
 13 42  1  0
 13 43  1  0
 14 44  1  0
 16 45  1  0
 17 46  1  0
 19 47  1  0
 20 48  1  0
 23 49  1  0
 24 50  1  6
 25 51  1  0
 25 52  1  0
 26 53  1  0
 26 54  1  0
 33 55  1  0
M  CHG  2  29  -1  32  -1
M  END
>  <filename_input>  (5) 
7TH4_FFO_docked.sdf

>  <pdb_id>  (5) 
7TH4_FFO

>  <pose_rank>  (5) 
4

>  <num_atoms_heavy>  (5) 
34

>  <num_torsions>  (5) 
9

>  <pose>  (5) 
[24.7205278987907, 11.946979991256963, 10.02083766130182, -2.0498755316088473, -4.343404331989288, -3.358051798393395, 0.21717540116658232, -0.9377382007020615, 0.4838882948829856, -3.6384529091924787, 1.390080251286057, 2.6368886372802596, 1.8938189470967561, -0.14017079943287986, -6.293414677548371]

>  <energy>  (5) 
-714.9321638133925

>  <inter_energy>  (5) 
-692.9420379604543

>  <intra_energy>  (5) 
4.390935233095715

>  <rmsd>  (5) 
2.58025

>  <sdf_rank>  (5) 
0

$$$$

     RDKit          3D

 55 57  0  0  0  0  0  0  0  0999 V2000
   24.6068   19.1035   11.8041 N   0  0  0  0  0  0  0  0  0  0  0  0
   24.0185   19.4794   12.9183 C   0  0  0  0  0  0  0  0  0  0  0  0
   23.5053   20.7126   13.0579 N   0  0  0  0  0  0  0  0  0  0  0  0
   23.7832   18.5876   13.9405 N   0  0  0  0  0  0  0  0  0  0  0  0
   24.2690   17.3006   13.9337 C   0  0  0  0  0  0  0  0  0  0  0  0
   23.9668   16.5523   14.8968 O   0  0  0  0  0  0  0  0  0  0  0  0
   24.9949   16.9305   12.8006 C   0  0  0  0  0  0  0  0  0  0  0  0
   25.6092   15.6579   12.6044 N   0  0  0  0  0  0  0  0  0  0  0  0
   25.6049   15.1086   11.2318 C   0  0  2  0  0  0  0  0  0  0  0  0
   26.2183   16.1480   10.2988 C   0  0  0  0  0  0  0  0  0  0  0  0
   25.7021   17.4839   10.5668 N   0  0  0  0  0  0  0  0  0  0  0  0
   25.0951   17.8461   11.7069 C   0  0  0  0  0  0  0  0  0  0  0  0
   24.1938   14.7151   10.8184 C   0  0  0  0  0  0  0  0  0  0  0  0
   23.8176   13.4494   11.4409 N   0  0  0  0  0  0  0  0  0  0  0  0
   25.6539    9.7930   10.7103 C   0  0  0  0  0  0  0  0  0  0  0  0
   25.6186   10.3332   11.9929 C   0  0  0  0  0  0  0  0  0  0  0  0
   24.9866   11.5260   12.2268 C   0  0  0  0  0  0  0  0  0  0  0  0
   24.4215   12.2296   11.1636 C   0  0  0  0  0  0  0  0  0  0  0  0
   24.4429   11.6920    9.8833 C   0  0  0  0  0  0  0  0  0  0  0  0
   25.0524   10.4802    9.6672 C   0  0  0  0  0  0  0  0  0  0  0  0
   26.2886    8.4576   10.4244 C   0  0  0  0  0  0  0  0  0  0  0  0
   26.6154    7.7315   11.3542 O   0  0  0  0  0  0  0  0  0  0  0  0
   26.4430    8.1032    9.1360 N   0  0  0  0  0  0  0  0  0  0  0  0
   27.2192    6.9332    8.7508 C   0  0  1  0  0  0  0  0  0  0  0  0
   26.4765    6.1335    7.6728 C   0  0  0  0  0  0  0  0  0  0  0  0
   25.0281    5.8993    8.0675 C   0  0  0  0  0  0  0  0  0  0  0  0
   24.7631    4.7874    9.0663 C   0  0  0  0  0  0  0  0  0  0  0  0
   25.6195    4.5808    9.9554 O   0  0  0  0  0  0  0  0  0  0  0  0
   23.6887    4.1424    8.9631 O   0  0  0  0  0  0  0  0  0  0  0  0
   28.6363    7.3416    8.3209 C   0  0  0  0  0  0  0  0  0  0  0  0
   29.2932    6.5864    7.4838 O   0  0  0  0  0  0  0  0  0  0  0  0
   29.0293    8.4075    8.8135 O   0  0  0  0  0  0  0  0  0  0  0  0
   26.4380   15.1468   13.5437 C   0  0  0  0  0  0  0  0  0  0  0  0
   26.5331   15.6510   14.6847 O   0  0  0  0  0  0  0  0  0  0  0  0
   23.0490   20.9836   13.9406 H   0  0  0  0  0  0  0  0  0  0  0  0
   23.5679   21.3873   12.2822 H   0  0  0  0  0  0  0  0  0  0  0  0
   23.2191   18.8973   14.7447 H   0  0  0  0  0  0  0  0  0  0  0  0
   26.2082   14.1903   11.1795 H   0  0  0  0  0  0  0  0  0  0  0  0
   27.3093   16.1527   10.4385 H   0  0  0  0  0  0  0  0  0  0  0  0
   25.9544   15.8793    9.2653 H   0  0  0  0  0  0  0  0  0  0  0  0
   25.8105   18.1976    9.8320 H   0  0  0  0  0  0  0  0  0  0  0  0
   23.4906   15.4990   11.1364 H   0  0  0  0  0  0  0  0  0  0  0  0
   24.1604   14.5998    9.7249 H   0  0  0  0  0  0  0  0  0  0  0  0
   23.0536   13.4617   12.1316 H   0  0  0  0  0  0  0  0  0  0  0  0
   26.1013    9.7987   12.8243 H   0  0  0  0  0  0  0  0  0  0  0  0
   24.9253   11.9272   13.2492 H   0  0  0  0  0  0  0  0  0  0  0  0
   23.9747   12.2330    9.0478 H   0  0  0  0  0  0  0  0  0  0  0  0
   25.0634   10.0500    8.6548 H   0  0  0  0  0  0  0  0  0  0  0  0
   26.0002    8.6748    8.4024 H   0  0  0  0  0  0  0  0  0  0  0  0
   27.3341    6.2693    9.6204 H   0  0  0  0  0  0  0  0  0  0  0  0
   26.5051    6.6933    6.7263 H   0  0  0  0  0  0  0  0  0  0  0  0
   26.9703    5.1571    7.5591 H   0  0  0  0  0  0  0  0  0  0  0  0
   24.6458    6.8349    8.5016 H   0  0  0  0  0  0  0  0  0  0  0  0
   24.5249    5.5817    7.1423 H   0  0  0  0  0  0  0  0  0  0  0  0
   27.0451   14.2632   13.2974 H   0  0  0  0  0  0  0  0  0  0  0  0
  1  2  2  0
  1 12  1  0
  2  3  1  0
  2  4  1  0
  4  5  1  0
  5  6  2  0
  5  7  1  0
  7  8  1  0
  7 12  2  0
  8  9  1  0
  8 33  1  0
  9 10  1  0
  9 13  1  0
 10 11  1  0
 11 12  1  0
 13 14  1  0
 14 18  1  0
 15 16  2  0
 15 20  1  0
 15 21  1  0
 16 17  1  0
 17 18  2  0
 18 19  1  0
 19 20  2  0
 21 22  2  0
 21 23  1  0
 23 24  1  0
 24 25  1  0
 24 30  1  0
 25 26  1  0
 26 27  1  0
 27 28  2  0
 27 29  1  0
 30 31  2  0
 30 32  1  0
 33 34  2  0
  3 35  1  0
  3 36  1  0
  4 37  1  0
  9 38  1  1
 10 39  1  0
 10 40  1  0
 11 41  1  0
 13 42  1  0
 13 43  1  0
 14 44  1  0
 16 45  1  0
 17 46  1  0
 19 47  1  0
 20 48  1  0
 23 49  1  0
 24 50  1  1
 25 51  1  0
 25 52  1  0
 26 53  1  0
 26 54  1  0
 33 55  1  0
M  CHG  2  29  -1  32  -1
M  END
>  <filename_input>  (6) 
7TH4_FFO_docked.sdf

>  <pdb_id>  (6) 
7TH4_FFO

>  <pose_rank>  (6) 
5

>  <num_atoms_heavy>  (6) 
34

>  <num_torsions>  (6) 
9

>  <pose>  (6) 
[25.653949401042656, 9.792999922484386, 10.710272896400946, 1.3507598846391538, -0.32746967673295746, 3.331771765640809, 2.770549857031171, 5.9268615073813695, -2.2686635575593272, -5.615948721621471, 1.908883405931223, 0.13413427305226933, -1.1003505181528268, -23.30460534868658, -25.6238055159895]

>  <energy>  (6) 
-567.9546090717204

>  <inter_energy>  (6) 
-583.88638854321

>  <intra_energy>  (6) 
13.459638117869648

>  <rmsd>  (6) 
10.7075

>  <sdf_rank>  (6) 
0

$$$$

     RDKit          3D

 55 57  0  0  0  0  0  0  0  0999 V2000
   28.6780   16.1247   11.7979 N   0  0  0  0  0  0  0  0  0  0  0  0
   29.1203   17.1371   11.0849 C   0  0  0  0  0  0  0  0  0  0  0  0
   30.4241   17.4582   11.0579 N   0  0  0  0  0  0  0  0  0  0  0  0
   28.2909   17.8289   10.2312 N   0  0  0  0  0  0  0  0  0  0  0  0
   26.9334   17.6137   10.1734 C   0  0  0  0  0  0  0  0  0  0  0  0
   26.2686   18.2704    9.3332 O   0  0  0  0  0  0  0  0  0  0  0  0
   26.4394   16.6156   11.0146 C   0  0  0  0  0  0  0  0  0  0  0  0
   25.0645   16.2540   11.1324 N   0  0  0  0  0  0  0  0  0  0  0  0
   24.7563   14.8231   11.3405 C   0  0  2  0  0  0  0  0  0  0  0  0
   25.5431   14.3360   12.5533 C   0  0  0  0  0  0  0  0  0  0  0  0
   26.9231   14.8028   12.5233 N   0  0  0  0  0  0  0  0  0  0  0  0
   27.3578   15.8321   11.7809 C   0  0  0  0  0  0  0  0  0  0  0  0
   25.0668   14.0216   10.0843 C   0  0  0  0  0  0  0  0  0  0  0  0
   23.9417   13.1557    9.7446 N   0  0  0  0  0  0  0  0  0  0  0  0
   24.0749    9.0023    9.6630 C   0  0  0  0  0  0  0  0  0  0  0  0
   23.9443    9.7380    8.4883 C   0  0  0  0  0  0  0  0  0  0  0  0
   23.9291   11.1074    8.5247 C   0  0  0  0  0  0  0  0  0  0  0  0
   23.9911   11.7675    9.7516 C   0  0  0  0  0  0  0  0  0  0  0  0
   24.1327   11.0410   10.9266 C   0  0  0  0  0  0  0  0  0  0  0  0
   24.1781    9.6692   10.8740 C   0  0  0  0  0  0  0  0  0  0  0  0
   24.1533    7.4984    9.6577 C   0  0  0  0  0  0  0  0  0  0  0  0
   23.1224    6.8387    9.6821 O   0  0  0  0  0  0  0  0  0  0  0  0
   25.3743    6.9376    9.5946 N   0  0  0  0  0  0  0  0  0  0  0  0
   25.5713    5.5073    9.7836 C   0  0  1  0  0  0  0  0  0  0  0  0
   25.9786    4.8471    8.4602 C   0  0  0  0  0  0  0  0  0  0  0  0
   26.3875    5.8894    7.4331 C   0  0  0  0  0  0  0  0  0  0  0  0
   27.7096    5.6659    6.7216 C   0  0  0  0  0  0  0  0  0  0  0  0
   27.8276    4.6429    6.0102 O   0  0  0  0  0  0  0  0  0  0  0  0
   28.6131    6.5282    6.8663 O   0  0  0  0  0  0  0  0  0  0  0  0
   26.5757    5.2446   10.9158 C   0  0  0  0  0  0  0  0  0  0  0  0
   27.2301    4.1159   10.9410 O   0  0  0  0  0  0  0  0  0  0  0  0
   26.6910    6.1791   11.7198 O   0  0  0  0  0  0  0  0  0  0  0  0
   24.1277   17.1988   11.3781 C   0  0  0  0  0  0  0  0  0  0  0  0
   24.3869   18.4203   11.3030 O   0  0  0  0  0  0  0  0  0  0  0  0
   30.7465   18.2559   10.4916 H   0  0  0  0  0  0  0  0  0  0  0  0
   31.1017   16.9067   11.6035 H   0  0  0  0  0  0  0  0  0  0  0  0
   28.7045   18.5381    9.6091 H   0  0  0  0  0  0  0  0  0  0  0  0
   23.6835   14.6820   11.5383 H   0  0  0  0  0  0  0  0  0  0  0  0
   25.0593   14.7122   13.4667 H   0  0  0  0  0  0  0  0  0  0  0  0
   25.5528   13.2361   12.5367 H   0  0  0  0  0  0  0  0  0  0  0  0
   27.6103   14.3098   13.1111 H   0  0  0  0  0  0  0  0  0  0  0  0
   25.2570   14.7133    9.2504 H   0  0  0  0  0  0  0  0  0  0  0  0
   25.9548   13.3989   10.2676 H   0  0  0  0  0  0  0  0  0  0  0  0
   23.0522   13.6038    9.4823 H   0  0  0  0  0  0  0  0  0  0  0  0
   23.8528    9.2162    7.5242 H   0  0  0  0  0  0  0  0  0  0  0  0
   23.8682   11.6840    7.5899 H   0  0  0  0  0  0  0  0  0  0  0  0
   24.2081   11.5608   11.8931 H   0  0  0  0  0  0  0  0  0  0  0  0
   24.2977    9.0931   11.8035 H   0  0  0  0  0  0  0  0  0  0  0  0
   26.1916    7.5358    9.4076 H   0  0  0  0  0  0  0  0  0  0  0  0
   24.6218    5.0462   10.0930 H   0  0  0  0  0  0  0  0  0  0  0  0
   26.8262    4.1700    8.6422 H   0  0  0  0  0  0  0  0  0  0  0  0
   25.1159    4.2889    8.0677 H   0  0  0  0  0  0  0  0  0  0  0  0
   25.5994    5.9288    6.6668 H   0  0  0  0  0  0  0  0  0  0  0  0
   26.5212    6.8200    8.0043 H   0  0  0  0  0  0  0  0  0  0  0  0
   23.1097   16.8841   11.6515 H   0  0  0  0  0  0  0  0  0  0  0  0
  1  2  2  0
  1 12  1  0
  2  3  1  0
  2  4  1  0
  4  5  1  0
  5  6  2  0
  5  7  1  0
  7  8  1  0
  7 12  2  0
  8  9  1  0
  8 33  1  0
  9 10  1  0
  9 13  1  0
 10 11  1  0
 11 12  1  0
 13 14  1  0
 14 18  1  0
 15 16  2  0
 15 20  1  0
 15 21  1  0
 16 17  1  0
 17 18  2  0
 18 19  1  0
 19 20  2  0
 21 22  2  0
 21 23  1  0
 23 24  1  0
 24 25  1  0
 24 30  1  0
 25 26  1  0
 26 27  1  0
 27 28  2  0
 27 29  1  0
 30 31  2  0
 30 32  1  0
 33 34  2  0
  3 35  1  0
  3 36  1  0
  4 37  1  0
  9 38  1  1
 10 39  1  0
 10 40  1  0
 11 41  1  0
 13 42  1  0
 13 43  1  0
 14 44  1  0
 16 45  1  0
 17 46  1  0
 19 47  1  0
 20 48  1  0
 23 49  1  0
 24 50  1  1
 25 51  1  0
 25 52  1  0
 26 53  1  0
 26 54  1  0
 33 55  1  0
M  CHG  2  29  -1  32  -1
M  END
>  <filename_input>  (7) 
7TH4_FFO_docked.sdf

>  <pdb_id>  (7) 
7TH4_FFO

>  <pose_rank>  (7) 
6

>  <num_atoms_heavy>  (7) 
34

>  <num_torsions>  (7) 
9

>  <pose>  (7) 
[24.074893333371893, 9.002261848178243, 9.662965130651347, 2.844446067518399, 0.07467280143404263, -0.8695215134276879, 1.067223635812024, -0.8001292258302467, -2.317176016790418, 1.7593621714464796, -0.7225843554069842, 0.6333310443410888, 1.1116093937979468, 0.9601472664601173, 4.846726741165127]

>  <energy>  (7) 
-696.6807236139518

>  <inter_energy>  (7) 
-679.9428662890322

>  <intra_energy>  (7) 
2.197262819601331

>  <rmsd>  (7) 
10.3781

>  <sdf_rank>  (7) 
0

$$$$

     RDKit          3D

 55 57  0  0  0  0  0  0  0  0999 V2000
   29.0355    5.5556    9.7066 N   0  0  0  0  0  0  0  0  0  0  0  0
   29.1715    5.6849   11.0080 C   0  0  0  0  0  0  0  0  0  0  0  0
   30.3837    5.7424   11.5833 N   0  0  0  0  0  0  0  0  0  0  0  0
   28.0841    5.9013   11.8242 N   0  0  0  0  0  0  0  0  0  0  0  0
   26.7874    5.8501   11.3677 C   0  0  0  0  0  0  0  0  0  0  0  0
   25.8656    6.0997   12.1844 O   0  0  0  0  0  0  0  0  0  0  0  0
   26.6322    5.5983   10.0037 C   0  0  0  0  0  0  0  0  0  0  0  0
   25.3788    5.4753    9.3338 N   0  0  0  0  0  0  0  0  0  0  0  0
   25.2913    6.0095    7.9580 C   0  0  2  0  0  0  0  0  0  0  0  0
   26.4052    5.3787    7.1283 C   0  0  0  0  0  0  0  0  0  0  0  0
   27.6739    5.3736    7.8448 N   0  0  0  0  0  0  0  0  0  0  0  0
   27.7934    5.5172    9.1732 C   0  0  0  0  0  0  0  0  0  0  0  0
   25.3631    7.5299    7.9698 C   0  0  0  0  0  0  0  0  0  0  0  0
   24.3609    8.0777    8.8788 N   0  0  0  0  0  0  0  0  0  0  0  0
   24.8334   11.6310   10.9826 C   0  0  0  0  0  0  0  0  0  0  0  0
   24.5641   11.6376    9.6167 C   0  0  0  0  0  0  0  0  0  0  0  0
   24.3831   10.4608    8.9389 C   0  0  0  0  0  0  0  0  0  0  0  0
   24.5225    9.2469    9.6110 C   0  0  0  0  0  0  0  0  0  0  0  0
   24.7799    9.2323   10.9757 C   0  0  0  0  0  0  0  0  0  0  0  0
   24.9284   10.4196   11.6502 C   0  0  0  0  0  0  0  0  0  0  0  0
   24.9815   12.9045   11.7726 C   0  0  0  0  0  0  0  0  0  0  0  0
   24.7828   13.9819   11.2264 O   0  0  0  0  0  0  0  0  0  0  0  0
   25.3016   12.7973   13.0746 N   0  0  0  0  0  0  0  0  0  0  0  0
   25.6617   13.9601   13.8735 C   0  0  1  0  0  0  0  0  0  0  0  0
   26.5724   14.8966   13.0691 C   0  0  0  0  0  0  0  0  0  0  0  0
   27.9522   14.9897   13.6984 C   0  0  0  0  0  0  0  0  0  0  0  0
   28.3025   16.2962   14.3872 C   0  0  0  0  0  0  0  0  0  0  0  0
   28.1835   16.3539   15.6318 O   0  0  0  0  0  0  0  0  0  0  0  0
   28.7128   17.2489   13.6764 O   0  0  0  0  0  0  0  0  0  0  0  0
   24.4029   14.6625   14.4044 C   0  0  0  0  0  0  0  0  0  0  0  0
   24.3115   15.9614   14.3198 O   0  0  0  0  0  0  0  0  0  0  0  0
   23.5468   13.8937   14.8619 O   0  0  0  0  0  0  0  0  0  0  0  0
   24.4356    4.6239    9.7988 C   0  0  0  0  0  0  0  0  0  0  0  0
   24.5324    4.0817   10.9221 O   0  0  0  0  0  0  0  0  0  0  0  0
   30.4646    5.8438   12.6051 H   0  0  0  0  0  0  0  0  0  0  0  0
   31.2326    5.6850   11.0027 H   0  0  0  0  0  0  0  0  0  0  0  0
   28.2485    6.1104   12.8193 H   0  0  0  0  0  0  0  0  0  0  0  0
   24.3243    5.7506    7.5021 H   0  0  0  0  0  0  0  0  0  0  0  0
   26.1272    4.3418    6.8881 H   0  0  0  0  0  0  0  0  0  0  0  0
   26.5308    5.9753    6.2128 H   0  0  0  0  0  0  0  0  0  0  0  0
   28.5362    5.2516    7.2949 H   0  0  0  0  0  0  0  0  0  0  0  0
   26.3639    7.8433    8.3017 H   0  0  0  0  0  0  0  0  0  0  0  0
   25.1682    7.9051    6.9543 H   0  0  0  0  0  0  0  0  0  0  0  0
   23.4750    7.5629    8.9843 H   0  0  0  0  0  0  0  0  0  0  0  0
   24.4961   12.5942    9.0779 H   0  0  0  0  0  0  0  0  0  0  0  0
   24.1289   10.4735    7.8688 H   0  0  0  0  0  0  0  0  0  0  0  0
   24.8642    8.2761   11.5129 H   0  0  0  0  0  0  0  0  0  0  0  0
   25.1249   10.4092   12.7324 H   0  0  0  0  0  0  0  0  0  0  0  0
   25.2919   11.8678   13.5184 H   0  0  0  0  0  0  0  0  0  0  0  0
   26.2345   13.6344   14.7542 H   0  0  0  0  0  0  0  0  0  0  0  0
   26.6702   14.5098   12.0440 H   0  0  0  0  0  0  0  0  0  0  0  0
   26.1228   15.9005   13.0618 H   0  0  0  0  0  0  0  0  0  0  0  0
   28.0318   14.1871   14.4465 H   0  0  0  0  0  0  0  0  0  0  0  0
   28.6581   14.9082   12.8587 H   0  0  0  0  0  0  0  0  0  0  0  0
   23.5594    4.4024    9.1718 H   0  0  0  0  0  0  0  0  0  0  0  0
  1  2  2  0
  1 12  1  0
  2  3  1  0
  2  4  1  0
  4  5  1  0
  5  6  2  0
  5  7  1  0
  7  8  1  0
  7 12  2  0
  8  9  1  0
  8 33  1  0
  9 10  1  0
  9 13  1  0
 10 11  1  0
 11 12  1  0
 13 14  1  0
 14 18  1  0
 15 16  2  0
 15 20  1  0
 15 21  1  0
 16 17  1  0
 17 18  2  0
 18 19  1  0
 19 20  2  0
 21 22  2  0
 21 23  1  0
 23 24  1  0
 24 25  1  0
 24 30  1  0
 25 26  1  0
 26 27  1  0
 27 28  2  0
 27 29  1  0
 30 31  2  0
 30 32  1  0
 33 34  2  0
  3 35  1  0
  3 36  1  0
  4 37  1  0
  9 38  1  6
 10 39  1  0
 10 40  1  0
 11 41  1  0
 13 42  1  0
 13 43  1  0
 14 44  1  0
 16 45  1  0
 17 46  1  0
 19 47  1  0
 20 48  1  0
 23 49  1  0
 24 50  1  1
 25 51  1  0
 25 52  1  0
 26 53  1  0
 26 54  1  0
 33 55  1  0
M  CHG  2  29  -1  32  -1
M  END
>  <filename_input>  (8) 
7TH4_FFO_docked.sdf

>  <pdb_id>  (8) 
7TH4_FFO

>  <pose_rank>  (8) 
7

>  <num_atoms_heavy>  (8) 
34

>  <num_torsions>  (8) 
9

>  <pose>  (8) 
[24.833414254254627, 11.63098944785009, 10.982588469564467, 0.29949968780030095, 2.647268996615307, 0.9564428464754957, -3.620325183413012, 2.8312118969306783, -1.9316398262393935, -0.4976989692582672, 1.3975174302365072, 1.2597600139779161, -1.9042028581085666, -0.7291350805947483, -0.0738172874922261]

>  <energy>  (8) 
-529.7248688733773

>  <inter_energy>  (8) 
-552.240058728606

>  <intra_energy>  (8) 
27.52300233757167

>  <rmsd>  (8) 
2.85446

>  <sdf_rank>  (8) 
0

$$$$

     RDKit          3D

 55 57  0  0  0  0  0  0  0  0999 V2000
   24.1091    4.6234    7.8386 N   0  0  0  0  0  0  0  0  0  0  0  0
   24.1610    5.2755    6.6981 C   0  0  0  0  0  0  0  0  0  0  0  0
   23.2748    5.0415    5.7165 N   0  0  0  0  0  0  0  0  0  0  0  0
   25.0393    6.3187    6.5083 N   0  0  0  0  0  0  0  0  0  0  0  0
   26.0099    6.6521    7.4244 C   0  0  0  0  0  0  0  0  0  0  0  0
   26.7381    7.6453    7.1753 O   0  0  0  0  0  0  0  0  0  0  0  0
   26.0338    5.8864    8.5911 C   0  0  0  0  0  0  0  0  0  0  0  0
   26.9740    6.0449    9.6523 N   0  0  0  0  0  0  0  0  0  0  0  0
   26.4808    5.8364   11.0303 C   0  0  2  0  0  0  0  0  0  0  0  0
   25.8226    4.4620   11.0999 C   0  0  0  0  0  0  0  0  0  0  0  0
   24.9541    4.2219    9.9549 N   0  0  0  0  0  0  0  0  0  0  0  0
   25.0154    4.9052    8.8021 C   0  0  0  0  0  0  0  0  0  0  0  0
   25.5333    6.9572   11.4339 C   0  0  0  0  0  0  0  0  0  0  0  0
   26.2890    8.1397   11.8358 N   0  0  0  0  0  0  0  0  0  0  0  0
   25.4724   12.0443   10.6684 C   0  0  0  0  0  0  0  0  0  0  0  0
   26.1096   11.7763   11.8769 C   0  0  0  0  0  0  0  0  0  0  0  0
   26.3983   10.4869   12.2387 C   0  0  0  0  0  0  0  0  0  0  0  0
   26.0033    9.4326   11.4158 C   0  0  0  0  0  0  0  0  0  0  0  0
   25.3774    9.6923   10.2036 C   0  0  0  0  0  0  0  0  0  0  0  0
   25.1214   10.9913    9.8377 C   0  0  0  0  0  0  0  0  0  0  0  0
   25.1901   13.4507   10.2102 C   0  0  0  0  0  0  0  0  0  0  0  0
   24.3552   13.6465    9.3365 O   0  0  0  0  0  0  0  0  0  0  0  0
   25.8587   14.4496   10.8141 N   0  0  0  0  0  0  0  0  0  0  0  0
   25.8088   15.8166   10.3150 C   0  0  1  0  0  0  0  0  0  0  0  0
   25.1065   16.7279   11.3297 C   0  0  0  0  0  0  0  0  0  0  0  0
   24.7792   18.0785   10.7156 C   0  0  0  0  0  0  0  0  0  0  0  0
   24.2292   19.1396   11.6514 C   0  0  0  0  0  0  0  0  0  0  0  0
   24.9684   20.1072   11.9407 O   0  0  0  0  0  0  0  0  0  0  0  0
   23.0527   19.0041   12.0740 O   0  0  0  0  0  0  0  0  0  0  0  0
   27.2160   16.3088    9.9445 C   0  0  0  0  0  0  0  0  0  0  0  0
   27.9660   16.8523   10.8636 O   0  0  0  0  0  0  0  0  0  0  0  0
   27.5274   16.1140    8.7620 O   0  0  0  0  0  0  0  0  0  0  0  0
   28.3021    6.0502    9.3939 C   0  0  0  0  0  0  0  0  0  0  0  0
   28.7471    6.1288    8.2274 O   0  0  0  0  0  0  0  0  0  0  0  0
   23.3359    5.5653    4.8317 H   0  0  0  0  0  0  0  0  0  0  0  0
   22.5339    4.3382    5.8484 H   0  0  0  0  0  0  0  0  0  0  0  0
   24.9665    6.8732    5.6434 H   0  0  0  0  0  0  0  0  0  0  0  0
   27.3134    5.8637   11.7487 H   0  0  0  0  0  0  0  0  0  0  0  0
   26.6075    3.6915   11.1197 H   0  0  0  0  0  0  0  0  0  0  0  0
   25.2077    4.4219   12.0111 H   0  0  0  0  0  0  0  0  0  0  0  0
   24.2461    3.4782   10.0360 H   0  0  0  0  0  0  0  0  0  0  0  0
   24.8880    7.2119   10.5801 H   0  0  0  0  0  0  0  0  0  0  0  0
   24.9200    6.6192   12.2822 H   0  0  0  0  0  0  0  0  0  0  0  0
   27.0871    8.0065   12.4731 H   0  0  0  0  0  0  0  0  0  0  0  0
   26.3833   12.6056   12.5458 H   0  0  0  0  0  0  0  0  0  0  0  0
   26.9395   10.2841   13.1746 H   0  0  0  0  0  0  0  0  0  0  0  0
   25.0885    8.8633    9.5409 H   0  0  0  0  0  0  0  0  0  0  0  0
   24.6323   11.1984    8.8744 H   0  0  0  0  0  0  0  0  0  0  0  0
   26.4208   14.2420   11.6518 H   0  0  0  0  0  0  0  0  0  0  0  0
   25.2126   15.8460    9.3911 H   0  0  0  0  0  0  0  0  0  0  0  0
   24.1734   16.2472   11.6590 H   0  0  0  0  0  0  0  0  0  0  0  0
   25.7815   16.8862   12.1836 H   0  0  0  0  0  0  0  0  0  0  0  0
   25.7036   18.4744   10.2699 H   0  0  0  0  0  0  0  0  0  0  0  0
   23.9700   17.8801    9.9973 H   0  0  0  0  0  0  0  0  0  0  0  0
   29.0103    5.9835   10.2330 H   0  0  0  0  0  0  0  0  0  0  0  0
  1  2  2  0
  1 12  1  0
  2  3  1  0
  2  4  1  0
  4  5  1  0
  5  6  2  0
  5  7  1  0
  7  8  1  0
  7 12  2  0
  8  9  1  0
  8 33  1  0
  9 10  1  0
  9 13  1  0
 10 11  1  0
 11 12  1  0
 13 14  1  0
 14 18  1  0
 15 16  2  0
 15 20  1  0
 15 21  1  0
 16 17  1  0
 17 18  2  0
 18 19  1  0
 19 20  2  0
 21 22  2  0
 21 23  1  0
 23 24  1  0
 24 25  1  0
 24 30  1  0
 25 26  1  0
 26 27  1  0
 27 28  2  0
 27 29  1  0
 30 31  2  0
 30 32  1  0
 33 34  2  0
  3 35  1  0
  3 36  1  0
  4 37  1  0
  9 38  1  1
 10 39  1  0
 10 40  1  0
 11 41  1  0
 13 42  1  0
 13 43  1  0
 14 44  1  0
 16 45  1  0
 17 46  1  0
 19 47  1  0
 20 48  1  0
 23 49  1  0
 24 50  1  6
 25 51  1  0
 25 52  1  0
 26 53  1  0
 26 54  1  0
 33 55  1  0
M  CHG  2  29  -1  32  -1
M  END
>  <filename_input>  (9) 
7TH4_FFO_docked.sdf

>  <pdb_id>  (9) 
7TH4_FFO

>  <pose_rank>  (9) 
8

>  <num_atoms_heavy>  (9) 
34

>  <num_torsions>  (9) 
9

>  <pose>  (9) 
[25.47235378231702, 12.04428601553701, 10.668396824924791, -0.4550116529951645, -0.05156926200585521, 0.24148416758164173, 6.043481714650528, -0.732907834944508, -1.1066104516921167, -1.4131143900619203, 0.26895637226713437, 1.4405318001686336, 5.734597249956801, -0.9692468993625197, 5.742541818514052]

>  <energy>  (9) 
-683.1599784332974

>  <inter_energy>  (9) 
-668.3494195641628

>  <intra_energy>  (9) 
0.9960218280505656

>  <rmsd>  (9) 
3.19375

>  <sdf_rank>  (9) 
0

$$$$

     RDKit          3D

 55 57  0  0  0  0  0  0  0  0999 V2000
   25.5404    4.6597    8.0742 N   0  0  0  0  0  0  0  0  0  0  0  0
   24.7773    5.4074    7.3077 C   0  0  0  0  0  0  0  0  0  0  0  0
   23.8511    4.8658    6.4999 N   0  0  0  0  0  0  0  0  0  0  0  0
   24.7997    6.7812    7.3962 N   0  0  0  0  0  0  0  0  0  0  0  0
   25.7097    7.4637    8.1698 C   0  0  0  0  0  0  0  0  0  0  0  0
   25.6231    8.7166    8.2130 O   0  0  0  0  0  0  0  0  0  0  0  0
   26.6004    6.6750    8.8995 C   0  0  0  0  0  0  0  0  0  0  0  0
   27.6388    7.1789    9.7379 N   0  0  0  0  0  0  0  0  0  0  0  0
   27.9300    6.4303   10.9791 C   0  0  2  0  0  0  0  0  0  0  0  0
   28.2011    4.9757   10.6077 C   0  0  0  0  0  0  0  0  0  0  0  0
   27.2264    4.4740    9.6479 N   0  0  0  0  0  0  0  0  0  0  0  0
   26.4488    5.2533    8.8814 C   0  0  0  0  0  0  0  0  0  0  0  0
   26.7846    6.5746   11.9711 C   0  0  0  0  0  0  0  0  0  0  0  0
   27.1843    7.4279   13.0861 N   0  0  0  0  0  0  0  0  0  0  0  0
   26.0642   11.3937   13.6270 C   0  0  0  0  0  0  0  0  0  0  0  0
   26.5660   10.6404   14.6849 C   0  0  0  0  0  0  0  0  0  0  0  0
   26.9577    9.3424   14.4885 C   0  0  0  0  0  0  0  0  0  0  0  0
   26.8027    8.7554   13.2331 C   0  0  0  0  0  0  0  0  0  0  0  0
   26.3135    9.5036   12.1703 C   0  0  0  0  0  0  0  0  0  0  0  0
   25.9534   10.8136   12.3727 C   0  0  0  0  0  0  0  0  0  0  0  0
   25.6774   12.8399   13.7906 C   0  0  0  0  0  0  0  0  0  0  0  0
   25.2611   13.2364   14.8713 O   0  0  0  0  0  0  0  0  0  0  0  0
   25.8383   13.6524   12.7307 N   0  0  0  0  0  0  0  0  0  0  0  0
   25.3135   15.0106   12.7197 C   0  0  1  0  0  0  0  0  0  0  0  0
   26.4308   16.0098   12.3934 C   0  0  0  0  0  0  0  0  0  0  0  0
   27.2179   15.5687   11.1709 C   0  0  0  0  0  0  0  0  0  0  0  0
   27.0198   16.3778    9.9020 C   0  0  0  0  0  0  0  0  0  0  0  0
   26.0267   17.1370    9.8391 O   0  0  0  0  0  0  0  0  0  0  0  0
   27.8725   16.2601    8.9854 O   0  0  0  0  0  0  0  0  0  0  0  0
   24.1165   15.1203   11.7633 C   0  0  0  0  0  0  0  0  0  0  0  0
   23.3007   16.1327   11.8734 O   0  0  0  0  0  0  0  0  0  0  0  0
   24.0491   14.2096   10.9271 O   0  0  0  0  0  0  0  0  0  0  0  0
   28.5241    8.0841    9.2607 C   0  0  0  0  0  0  0  0  0  0  0  0
   28.3504    8.6628    8.1653 O   0  0  0  0  0  0  0  0  0  0  0  0
   23.2652    5.4725    5.9087 H   0  0  0  0  0  0  0  0  0  0  0  0
   23.7267    3.8437    6.4716 H   0  0  0  0  0  0  0  0  0  0  0  0
   24.1053    7.3210    6.8602 H   0  0  0  0  0  0  0  0  0  0  0  0
   28.8220    6.8375   11.4775 H   0  0  0  0  0  0  0  0  0  0  0  0
   29.2062    4.9017   10.1669 H   0  0  0  0  0  0  0  0  0  0  0  0
   28.1260    4.3687   11.5219 H   0  0  0  0  0  0  0  0  0  0  0  0
   27.1278    3.4533    9.5516 H   0  0  0  0  0  0  0  0  0  0  0  0
   25.9187    7.0238   11.4627 H   0  0  0  0  0  0  0  0  0  0  0  0
   26.5198    5.5799   12.3589 H   0  0  0  0  0  0  0  0  0  0  0  0
   27.7894    7.0183   13.8120 H   0  0  0  0  0  0  0  0  0  0  0  0
   26.6486   11.0905   15.6851 H   0  0  0  0  0  0  0  0  0  0  0  0
   27.3927    8.7654   15.3180 H   0  0  0  0  0  0  0  0  0  0  0  0
   26.2150    9.0501   11.1730 H   0  0  0  0  0  0  0  0  0  0  0  0
   25.5727   11.4092   11.5299 H   0  0  0  0  0  0  0  0  0  0  0  0
   26.3463   13.3046   11.9050 H   0  0  0  0  0  0  0  0  0  0  0  0
   24.9388   15.2648   13.7222 H   0  0  0  0  0  0  0  0  0  0  0  0
   25.9850   16.9961   12.1972 H   0  0  0  0  0  0  0  0  0  0  0  0
   27.1169   16.0600   13.2517 H   0  0  0  0  0  0  0  0  0  0  0  0
   28.2862   15.6113   11.4296 H   0  0  0  0  0  0  0  0  0  0  0  0
   26.8414   14.5628   10.9332 H   0  0  0  0  0  0  0  0  0  0  0  0
   29.4215    8.3176    9.8524 H   0  0  0  0  0  0  0  0  0  0  0  0
  1  2  2  0
  1 12  1  0
  2  3  1  0
  2  4  1  0
  4  5  1  0
  5  6  2  0
  5  7  1  0
  7  8  1  0
  7 12  2  0
  8  9  1  0
  8 33  1  0
  9 10  1  0
  9 13  1  0
 10 11  1  0
 11 12  1  0
 13 14  1  0
 14 18  1  0
 15 16  2  0
 15 20  1  0
 15 21  1  0
 16 17  1  0
 17 18  2  0
 18 19  1  0
 19 20  2  0
 21 22  2  0
 21 23  1  0
 23 24  1  0
 24 25  1  0
 24 30  1  0
 25 26  1  0
 26 27  1  0
 27 28  2  0
 27 29  1  0
 30 31  2  0
 30 32  1  0
 33 34  2  0
  3 35  1  0
  3 36  1  0
  4 37  1  0
  9 38  1  1
 10 39  1  0
 10 40  1  0
 11 41  1  0
 13 42  1  0
 13 43  1  0
 14 44  1  0
 16 45  1  0
 17 46  1  0
 19 47  1  0
 20 48  1  0
 23 49  1  0
 24 50  1  1
 25 51  1  0
 25 52  1  0
 26 53  1  0
 26 54  1  0
 33 55  1  0
M  CHG  2  29  -1  32  -1
M  END
>  <filename_input>  (10) 
7TH4_FFO_docked.sdf

>  <pdb_id>  (10) 
7TH4_FFO

>  <pose_rank>  (10) 
9

>  <num_atoms_heavy>  (10) 
34

>  <num_torsions>  (10) 
9

>  <pose>  (10) 
[26.064174407420484, 11.393721390071827, 13.62702595182212, 0.13478567210522557, 4.204403209027036, -4.132552941514584, -4.2320013216956704, 5.750002799685491, -3.0442394245879645, 8.653011014726236, -1.0956231053970376, -0.740806029414776, -6.668900927065197, 4.768777506760069, -7.319271048426151]

>  <energy>  (10) 
-618.2960041396473

>  <inter_energy>  (10) 
-625.8123242325446

>  <intra_energy>  (10) 
3.3201465658133995

>  <rmsd>  (10) 
4.03673

>  <sdf_rank>  (10) 
0

$$$$

     RDKit          3D

 55 57  0  0  0  0  0  0  0  0999 V2000
   24.1060    9.2370    8.5704 N   0  0  0  0  0  0  0  0  0  0  0  0
   24.9720   10.0202    9.1749 C   0  0  0  0  0  0  0  0  0  0  0  0
   24.6380   11.2589    9.5722 N   0  0  0  0  0  0  0  0  0  0  0  0
   26.2154    9.5610    9.5472 N   0  0  0  0  0  0  0  0  0  0  0  0
   26.6899    8.3204    9.1891 C   0  0  0  0  0  0  0  0  0  0  0  0
   27.8234    7.9795    9.6110 O   0  0  0  0  0  0  0  0  0  0  0  0
   25.8154    7.5258    8.4464 C   0  0  0  0  0  0  0  0  0  0  0  0
   26.1182    6.2232    7.9496 N   0  0  0  0  0  0  0  0  0  0  0  0
   25.0218    5.2315    7.9380 C   0  0  2  0  0  0  0  0  0  0  0  0
   23.8419    5.8319    7.1801 C   0  0  0  0  0  0  0  0  0  0  0  0
   23.5925    7.2115    7.5768 N   0  0  0  0  0  0  0  0  0  0  0  0
   24.4860    7.9923    8.2024 C   0  0  0  0  0  0  0  0  0  0  0  0
   24.6554    4.8236    9.3580 C   0  0  0  0  0  0  0  0  0  0  0  0
   25.7738    4.1311    9.9910 N   0  0  0  0  0  0  0  0  0  0  0  0
   28.7644    5.9553   12.2279 C   0  0  0  0  0  0  0  0  0  0  0  0
   29.0748    5.1808   11.1134 C   0  0  0  0  0  0  0  0  0  0  0  0
   28.0793    4.6068   10.3676 C   0  0  0  0  0  0  0  0  0  0  0  0
   26.7489    4.7553   10.7584 C   0  0  0  0  0  0  0  0  0  0  0  0
   26.4306    5.5355   11.8622 C   0  0  0  0  0  0  0  0  0  0  0  0
   27.4361    6.1315   12.5837 C   0  0  0  0  0  0  0  0  0  0  0  0
   29.8273    6.6489   13.0383 C   0  0  0  0  0  0  0  0  0  0  0  0
   29.6198    6.9024   14.2178 O   0  0  0  0  0  0  0  0  0  0  0  0
   30.9900    6.9369   12.4262 N   0  0  0  0  0  0  0  0  0  0  0  0
   31.9995    7.7768   13.0550 C   0  0  1  0  0  0  0  0  0  0  0  0
   33.2632    6.9588   13.3505 C   0  0  0  0  0  0  0  0  0  0  0  0
   33.9887    6.5920   12.0669 C   0  0  0  0  0  0  0  0  0  0  0  0
   35.5047    6.6635   12.0945 C   0  0  0  0  0  0  0  0  0  0  0  0
   36.0370    7.5791   12.7615 O   0  0  0  0  0  0  0  0  0  0  0  0
   36.1503    5.7891   11.4624 O   0  0  0  0  0  0  0  0  0  0  0  0
   32.2801    9.0197   12.1969 C   0  0  0  0  0  0  0  0  0  0  0  0
   33.1090    9.9265   12.6366 O   0  0  0  0  0  0  0  0  0  0  0  0
   31.6844    9.0328   11.1115 O   0  0  0  0  0  0  0  0  0  0  0  0
   27.2398    6.0122    7.2230 C   0  0  0  0  0  0  0  0  0  0  0  0
   28.1423    6.8744    7.1371 O   0  0  0  0  0  0  0  0  0  0  0  0
   25.3341   11.8537   10.0439 H   0  0  0  0  0  0  0  0  0  0  0  0
   23.6857   11.6140    9.4052 H   0  0  0  0  0  0  0  0  0  0  0  0
   26.8160   10.1725   10.1184 H   0  0  0  0  0  0  0  0  0  0  0  0
   25.3368    4.3109    7.4249 H   0  0  0  0  0  0  0  0  0  0  0  0
   24.0596    5.8046    6.1022 H   0  0  0  0  0  0  0  0  0  0  0  0
   22.9455    5.2397    7.4163 H   0  0  0  0  0  0  0  0  0  0  0  0
   22.6689    7.6140    7.3625 H   0  0  0  0  0  0  0  0  0  0  0  0
   24.4083    5.7227    9.9415 H   0  0  0  0  0  0  0  0  0  0  0  0
   23.7890    4.1467    9.3234 H   0  0  0  0  0  0  0  0  0  0  0  0
   25.8445    3.1119    9.8598 H   0  0  0  0  0  0  0  0  0  0  0  0
   30.1267    5.0287   10.8297 H   0  0  0  0  0  0  0  0  0  0  0  0
   28.3284    4.0310    9.4640 H   0  0  0  0  0  0  0  0  0  0  0  0
   25.3800    5.6754   12.1569 H   0  0  0  0  0  0  0  0  0  0  0  0
   27.1845    6.7557   13.4538 H   0  0  0  0  0  0  0  0  0  0  0  0
   31.1709    6.5529   11.4877 H   0  0  0  0  0  0  0  0  0  0  0  0
   31.6204    8.1414   14.0211 H   0  0  0  0  0  0  0  0  0  0  0  0
   33.9357    7.5533   13.9863 H   0  0  0  0  0  0  0  0  0  0  0  0
   32.9676    6.0312   13.8625 H   0  0  0  0  0  0  0  0  0  0  0  0
   33.7087    5.5599   11.8094 H   0  0  0  0  0  0  0  0  0  0  0  0
   33.6776    7.3502   11.3332 H   0  0  0  0  0  0  0  0  0  0  0  0
   27.3616    5.0561    6.6930 H   0  0  0  0  0  0  0  0  0  0  0  0
  1  2  2  0
  1 12  1  0
  2  3  1  0
  2  4  1  0
  4  5  1  0
  5  6  2  0
  5  7  1  0
  7  8  1  0
  7 12  2  0
  8  9  1  0
  8 33  1  0
  9 10  1  0
  9 13  1  0
 10 11  1  0
 11 12  1  0
 13 14  1  0
 14 18  1  0
 15 16  2  0
 15 20  1  0
 15 21  1  0
 16 17  1  0
 17 18  2  0
 18 19  1  0
 19 20  2  0
 21 22  2  0
 21 23  1  0
 23 24  1  0
 24 25  1  0
 24 30  1  0
 25 26  1  0
 26 27  1  0
 27 28  2  0
 27 29  1  0
 30 31  2  0
 30 32  1  0
 33 34  2  0
  3 35  1  0
  3 36  1  0
  4 37  1  0
  9 38  1  6
 10 39  1  0
 10 40  1  0
 11 41  1  0
 13 42  1  0
 13 43  1  0
 14 44  1  0
 16 45  1  0
 17 46  1  0
 19 47  1  0
 20 48  1  0
 23 49  1  0
 24 50  1  1
 25 51  1  0
 25 52  1  0
 26 53  1  0
 26 54  1  0
 33 55  1  0
M  CHG  2  29  -1  32  -1
M  END
>  <filename_input>  (11) 
7TH4_FFO_docked.sdf

>  <pdb_id>  (11) 
7TH4_FFO

>  <pose_rank>  (11) 
10

>  <num_atoms_heavy>  (11) 
34

>  <num_torsions>  (11) 
9

>  <pose>  (11) 
[28.76439420463793, 5.955276467384286, 12.227880756886222, 1.0920103215075723, 1.3355517207483913, -0.04152395969201782, -0.10218302320881138, -0.7333426319532357, -2.7921077541295123, 2.74119903377912, -0.5488981830028583, -1.0954974273381584, 0.8962915297903985, 4.585762989028582, -0.2733104202372548]

>  <energy>  (11) 
-645.980618302881

>  <inter_energy>  (11) 
-642.4931766541519

>  <intra_energy>  (11) 
13.109478344845558

>  <rmsd>  (11) 
7.55948

>  <sdf_rank>  (11) 
0

$$$$

     RDKit          3D

 55 57  0  0  0  0  0  0  0  0999 V2000
   23.7470   18.2483   11.0021 N   0  0  0  0  0  0  0  0  0  0  0  0
   23.0119   18.8580   11.9059 C   0  0  0  0  0  0  0  0  0  0  0  0
   22.1898   19.8672   11.5754 N   0  0  0  0  0  0  0  0  0  0  0  0
   22.9501   18.4042   13.2042 N   0  0  0  0  0  0  0  0  0  0  0  0
   23.7512   17.3916   13.6790 C   0  0  0  0  0  0  0  0  0  0  0  0
   23.5917   17.0243   14.8701 O   0  0  0  0  0  0  0  0  0  0  0  0
   24.6187   16.8158   12.7497 C   0  0  0  0  0  0  0  0  0  0  0  0
   25.5520   15.7764   13.0390 N   0  0  0  0  0  0  0  0  0  0  0  0
   25.7771   14.7578   11.9913 C   0  0  2  0  0  0  0  0  0  0  0  0
   26.1594   15.4758   10.7008 C   0  0  0  0  0  0  0  0  0  0  0  0
   25.2998   16.6249   10.4484 N   0  0  0  0  0  0  0  0  0  0  0  0
   24.5486   17.2275   11.3821 C   0  0  0  0  0  0  0  0  0  0  0  0
   24.5447   13.8797   11.8264 C   0  0  0  0  0  0  0  0  0  0  0  0
   24.4250   13.4289   10.4432 N   0  0  0  0  0  0  0  0  0  0  0  0
   24.8294    9.4505    9.3099 C   0  0  0  0  0  0  0  0  0  0  0  0
   25.4321    9.9298   10.4698 C   0  0  0  0  0  0  0  0  0  0  0  0
   25.2693   11.2364   10.8479 C   0  0  0  0  0  0  0  0  0  0  0  0
   24.5392   12.1053   10.0375 C   0  0  0  0  0  0  0  0  0  0  0  0
   23.9257   11.6321    8.8850 C   0  0  0  0  0  0  0  0  0  0  0  0
   24.0706   10.3123    8.5330 C   0  0  0  0  0  0  0  0  0  0  0  0
   24.9379    8.0077    8.8922 C   0  0  0  0  0  0  0  0  0  0  0  0
   23.9356    7.3050    8.8776 O   0  0  0  0  0  0  0  0  0  0  0  0
   26.1483    7.5559    8.5180 N   0  0  0  0  0  0  0  0  0  0  0  0
   26.4008    6.1403    8.2895 C   0  0  1  0  0  0  0  0  0  0  0  0
   25.3995    5.2873    9.0789 C   0  0  0  0  0  0  0  0  0  0  0  0
   26.1042    4.4627   10.1427 C   0  0  0  0  0  0  0  0  0  0  0  0
   27.3795    5.0446   10.7251 C   0  0  0  0  0  0  0  0  0  0  0  0
   28.4704    4.5553   10.3547 O   0  0  0  0  0  0  0  0  0  0  0  0
   27.2781    6.0010   11.5350 O   0  0  0  0  0  0  0  0  0  0  0  0
   26.3976    5.8260    6.7858 C   0  0  0  0  0  0  0  0  0  0  0  0
   26.9886    6.6453    5.9600 O   0  0  0  0  0  0  0  0  0  0  0  0
   25.8291    4.7667    6.4894 O   0  0  0  0  0  0  0  0  0  0  0  0
   26.4230   15.9061   14.0661 C   0  0  0  0  0  0  0  0  0  0  0  0
   26.3118   16.8187   14.9145 O   0  0  0  0  0  0  0  0  0  0  0  0
   21.6238   20.3292   12.3014 H   0  0  0  0  0  0  0  0  0  0  0  0
   22.1253   20.1793   10.5959 H   0  0  0  0  0  0  0  0  0  0  0  0
   22.2752   18.8417   13.8477 H   0  0  0  0  0  0  0  0  0  0  0  0
   26.5991   14.0844   12.2752 H   0  0  0  0  0  0  0  0  0  0  0  0
   27.2011   15.8203   10.7797 H   0  0  0  0  0  0  0  0  0  0  0  0
   26.0403   14.7686    9.8667 H   0  0  0  0  0  0  0  0  0  0  0  0
   25.2668   16.9993    9.4894 H   0  0  0  0  0  0  0  0  0  0  0  0
   24.6318   13.0045   12.4870 H   0  0  0  0  0  0  0  0  0  0  0  0
   23.6511   14.4641   12.0908 H   0  0  0  0  0  0  0  0  0  0  0  0
   24.2438   14.1394    9.7199 H   0  0  0  0  0  0  0  0  0  0  0  0
   26.0432    9.2546   11.0869 H   0  0  0  0  0  0  0  0  0  0  0  0
   25.7128   11.5988   11.7871 H   0  0  0  0  0  0  0  0  0  0  0  0
   23.3276   12.3098    8.2581 H   0  0  0  0  0  0  0  0  0  0  0  0
   23.5789    9.9349    7.6242 H   0  0  0  0  0  0  0  0  0  0  0  0
   26.9171    8.2293    8.3897 H   0  0  0  0  0  0  0  0  0  0  0  0
   27.4037    5.8840    8.6616 H   0  0  0  0  0  0  0  0  0  0  0  0
   24.6671    5.9494    9.5639 H   0  0  0  0  0  0  0  0  0  0  0  0
   24.8972    4.6016    8.3806 H   0  0  0  0  0  0  0  0  0  0  0  0
   25.3968    4.3145   10.9720 H   0  0  0  0  0  0  0  0  0  0  0  0
   26.4154    3.5392    9.6325 H   0  0  0  0  0  0  0  0  0  0  0  0
   27.2522   15.1890   14.1578 H   0  0  0  0  0  0  0  0  0  0  0  0
  1  2  2  0
  1 12  1  0
  2  3  1  0
  2  4  1  0
  4  5  1  0
  5  6  2  0
  5  7  1  0
  7  8  1  0
  7 12  2  0
  8  9  1  0
  8 33  1  0
  9 10  1  0
  9 13  1  0
 10 11  1  0
 11 12  1  0
 13 14  1  0
 14 18  1  0
 15 16  2  0
 15 20  1  0
 15 21  1  0
 16 17  1  0
 17 18  2  0
 18 19  1  0
 19 20  2  0
 21 22  2  0
 21 23  1  0
 23 24  1  0
 24 25  1  0
 24 30  1  0
 25 26  1  0
 26 27  1  0
 27 28  2  0
 27 29  1  0
 30 31  2  0
 30 32  1  0
 33 34  2  0
  3 35  1  0
  3 36  1  0
  4 37  1  0
  9 38  1  1
 10 39  1  0
 10 40  1  0
 11 41  1  0
 13 42  1  0
 13 43  1  0
 14 44  1  0
 16 45  1  0
 17 46  1  0
 19 47  1  0
 20 48  1  0
 23 49  1  0
 24 50  1  1
 25 51  1  0
 25 52  1  0
 26 53  1  0
 26 54  1  0
 33 55  1  0
M  CHG  2  29  -1  32  -1
M  END
>  <filename_input>  (12) 
7TH4_FFO_docked.sdf

>  <pdb_id>  (12) 
7TH4_FFO

>  <pose_rank>  (12) 
11

>  <num_atoms_heavy>  (12) 
34

>  <num_torsions>  (12) 
9

>  <pose>  (12) 
[24.82939396025581, 9.450497501273981, 9.309878972315985, -1.5527591274795767, 0.5192832397888917, -2.478915146644974, -1.7082503786950816, 3.1292585165347915, 1.1467788966936592, -0.49454860982727994, -2.4809263993523114, 3.9982699889371274, 2.614735112217468, -1.3118161653451803, -2.8327290449152125]

>  <energy>  (12) 
-606.5663901131368

>  <inter_energy>  (12) 
-646.8765970073257

>  <intra_energy>  (12) 
43.36112004197487

>  <rmsd>  (12) 
10.6845

>  <sdf_rank>  (12) 
0

$$$$

     RDKit          3D

 55 57  0  0  0  0  0  0  0  0999 V2000
   27.6070    9.1492   11.0670 N   0  0  0  0  0  0  0  0  0  0  0  0
   27.6027    8.9276   12.3631 C   0  0  0  0  0  0  0  0  0  0  0  0
   27.6794    9.9364   13.2463 N   0  0  0  0  0  0  0  0  0  0  0  0
   27.3850    7.6678   12.8740 N   0  0  0  0  0  0  0  0  0  0  0  0
   27.3067    6.5455   12.0823 C   0  0  0  0  0  0  0  0  0  0  0  0
   27.0675    5.4461   12.6418 O   0  0  0  0  0  0  0  0  0  0  0  0
   27.4261    6.7607   10.7085 C   0  0  0  0  0  0  0  0  0  0  0  0
   27.4033    5.7356    9.7167 N   0  0  0  0  0  0  0  0  0  0  0  0
   26.7451    6.0519    8.4312 C   0  0  2  0  0  0  0  0  0  0  0  0
   27.3752    7.3235    7.8716 C   0  0  0  0  0  0  0  0  0  0  0  0
   27.5305    8.3451    8.8988 N   0  0  0  0  0  0  0  0  0  0  0  0
   27.5131    8.1009   10.2177 C   0  0  0  0  0  0  0  0  0  0  0  0
   25.2402    6.1814    8.6193 C   0  0  0  0  0  0  0  0  0  0  0  0
   24.7444    7.3714    7.9344 N   0  0  0  0  0  0  0  0  0  0  0  0
   24.4759   11.1759    9.5865 C   0  0  0  0  0  0  0  0  0  0  0  0
   24.6707   11.0008    8.2191 C   0  0  0  0  0  0  0  0  0  0  0  0
   24.7303    9.7420    7.6818 C   0  0  0  0  0  0  0  0  0  0  0  0
   24.6486    8.6285    8.5174 C   0  0  0  0  0  0  0  0  0  0  0  0
   24.4430    8.7949    9.8808 C   0  0  0  0  0  0  0  0  0  0  0  0
   24.3538   10.0622   10.4031 C   0  0  0  0  0  0  0  0  0  0  0  0
   24.3477   12.5427   10.2054 C   0  0  0  0  0  0  0  0  0  0  0  0
   23.2810   12.8863   10.6980 O   0  0  0  0  0  0  0  0  0  0  0  0
   25.4401   13.3276   10.2162 N   0  0  0  0  0  0  0  0  0  0  0  0
   25.3731   14.7288   10.6064 C   0  0  1  0  0  0  0  0  0  0  0  0
   25.7013   14.8821   12.0970 C   0  0  0  0  0  0  0  0  0  0  0  0
   24.5797   15.5958   12.8325 C   0  0  0  0  0  0  0  0  0  0  0  0
   24.9596   16.8374   13.6187 C   0  0  0  0  0  0  0  0  0  0  0  0
   24.4002   17.0273   14.7222 O   0  0  0  0  0  0  0  0  0  0  0  0
   25.8304   17.6029   13.1323 O   0  0  0  0  0  0  0  0  0  0  0  0
   26.2757   15.5850    9.7053 C   0  0  0  0  0  0  0  0  0  0  0  0
   26.8388   15.0404    8.6617 O   0  0  0  0  0  0  0  0  0  0  0  0
   26.3693   16.7684   10.0573 O   0  0  0  0  0  0  0  0  0  0  0  0
   28.2257    4.6661    9.8198 C   0  0  0  0  0  0  0  0  0  0  0  0
   28.8702    4.4277   10.8652 O   0  0  0  0  0  0  0  0  0  0  0  0
   27.6742    9.7376   14.2569 H   0  0  0  0  0  0  0  0  0  0  0  0
   27.7434   10.9089   12.9131 H   0  0  0  0  0  0  0  0  0  0  0  0
   27.2762    7.5611   13.8927 H   0  0  0  0  0  0  0  0  0  0  0  0
   26.8959    5.2374    7.7074 H   0  0  0  0  0  0  0  0  0  0  0  0
   28.3654    7.0790    7.4593 H   0  0  0  0  0  0  0  0  0  0  0  0
   26.7102    7.7207    7.0905 H   0  0  0  0  0  0  0  0  0  0  0  0
   27.6624    9.3194    8.5919 H   0  0  0  0  0  0  0  0  0  0  0  0
   24.7448    5.2912    8.2045 H   0  0  0  0  0  0  0  0  0  0  0  0
   25.0202    6.2692    9.6934 H   0  0  0  0  0  0  0  0  0  0  0  0
   24.4457    7.2723    6.9537 H   0  0  0  0  0  0  0  0  0  0  0  0
   24.7776   11.8792    7.5657 H   0  0  0  0  0  0  0  0  0  0  0  0
   24.8421    9.6101    6.5955 H   0  0  0  0  0  0  0  0  0  0  0  0
   24.3521    7.9175   10.5381 H   0  0  0  0  0  0  0  0  0  0  0  0
   24.1835   10.1949   11.4817 H   0  0  0  0  0  0  0  0  0  0  0  0
   26.3482   12.9266    9.9412 H   0  0  0  0  0  0  0  0  0  0  0  0
   24.3468   15.0981   10.4644 H   0  0  0  0  0  0  0  0  0  0  0  0
   25.8428   13.8845   12.5384 H   0  0  0  0  0  0  0  0  0  0  0  0
   26.6192   15.4806   12.1933 H   0  0  0  0  0  0  0  0  0  0  0  0
   23.8275   15.8914   12.0863 H   0  0  0  0  0  0  0  0  0  0  0  0
   24.2242   14.8759   13.5845 H   0  0  0  0  0  0  0  0  0  0  0  0
   28.3305    3.9874    8.9605 H   0  0  0  0  0  0  0  0  0  0  0  0
  1  2  2  0
  1 12  1  0
  2  3  1  0
  2  4  1  0
  4  5  1  0
  5  6  2  0
  5  7  1  0
  7  8  1  0
  7 12  2  0
  8  9  1  0
  8 33  1  0
  9 10  1  0
  9 13  1  0
 10 11  1  0
 11 12  1  0
 13 14  1  0
 14 18  1  0
 15 16  2  0
 15 20  1  0
 15 21  1  0
 16 17  1  0
 17 18  2  0
 18 19  1  0
 19 20  2  0
 21 22  2  0
 21 23  1  0
 23 24  1  0
 24 25  1  0
 24 30  1  0
 25 26  1  0
 26 27  1  0
 27 28  2  0
 27 29  1  0
 30 31  2  0
 30 32  1  0
 33 34  2  0
  3 35  1  0
  3 36  1  0
  4 37  1  0
  9 38  1  6
 10 39  1  0
 10 40  1  0
 11 41  1  0
 13 42  1  0
 13 43  1  0
 14 44  1  0
 16 45  1  0
 17 46  1  0
 19 47  1  0
 20 48  1  0
 23 49  1  0
 24 50  1  1
 25 51  1  0
 25 52  1  0
 26 53  1  0
 26 54  1  0
 33 55  1  0
M  CHG  2  29  -1  32  -1
M  END
>  <filename_input>  (13) 
7TH4_FFO_docked.sdf

>  <pdb_id>  (13) 
7TH4_FFO

>  <pose_rank>  (13) 
12

>  <num_atoms_heavy>  (13) 
34

>  <num_torsions>  (13) 
9

>  <pose>  (13) 
[24.475879594787585, 11.175867163459854, 9.586505666473846, -0.09556140505791798, -3.589693806432027, -1.1402761484169046, -1.7222972605970417, -1.084724635399732, 0.5473977075080068, -0.6492625949425063, 1.1090929678889956, -2.9290827459934135, 5.705728333122798, 1.4039200252769872, -3.085730554381765]

>  <energy>  (13) 
-550.3071494692401

>  <inter_energy>  (13) 
-613.5062380340461

>  <intra_energy>  (13) 
75.74015615043857

>  <rmsd>  (13) 
3.36812

>  <sdf_rank>  (13) 
0

$$$$

     RDKit          3D

 55 57  0  0  0  0  0  0  0  0999 V2000
   28.2339   15.9995   11.1505 N   0  0  0  0  0  0  0  0  0  0  0  0
   28.3436   16.7295   10.0625 C   0  0  0  0  0  0  0  0  0  0  0  0
   29.4808   16.7560    9.3485 N   0  0  0  0  0  0  0  0  0  0  0  0
   27.2600   17.3930    9.5324 N   0  0  0  0  0  0  0  0  0  0  0  0
   26.0430   17.4619   10.1701 C   0  0  0  0  0  0  0  0  0  0  0  0
   25.1051   18.0596    9.5853 O   0  0  0  0  0  0  0  0  0  0  0  0
   25.9541   16.7823   11.3859 C   0  0  0  0  0  0  0  0  0  0  0  0
   24.7975   16.7505   12.2205 N   0  0  0  0  0  0  0  0  0  0  0  0
   24.5158   15.4894   12.9390 C   0  0  2  0  0  0  0  0  0  0  0  0
   25.7594   15.1037   13.7336 C   0  0  0  0  0  0  0  0  0  0  0  0
   26.9730   15.2529   12.9411 N   0  0  0  0  0  0  0  0  0  0  0  0
   27.0629   15.9947   11.8272 C   0  0  0  0  0  0  0  0  0  0  0  0
   24.0876   14.4028   11.9629 C   0  0  0  0  0  0  0  0  0  0  0  0
   24.9752   13.2486   12.0682 N   0  0  0  0  0  0  0  0  0  0  0  0
   24.8705   10.0563    9.4086 C   0  0  0  0  0  0  0  0  0  0  0  0
   24.5155   11.3396    9.0017 C   0  0  0  0  0  0  0  0  0  0  0  0
   24.5800   12.3891    9.8798 C   0  0  0  0  0  0  0  0  0  0  0  0
   24.9527   12.1612   11.2042 C   0  0  0  0  0  0  0  0  0  0  0  0
   25.3190   10.8860   11.6147 C   0  0  0  0  0  0  0  0  0  0  0  0
   25.2800    9.8475   10.7166 C   0  0  0  0  0  0  0  0  0  0  0  0
   24.8674    8.8886    8.4577 C   0  0  0  0  0  0  0  0  0  0  0  0
   24.2934    8.9866    7.3809 O   0  0  0  0  0  0  0  0  0  0  0  0
   25.5337    7.7804    8.8283 N   0  0  0  0  0  0  0  0  0  0  0  0
   25.4279    6.5362    8.0795 C   0  0  1  0  0  0  0  0  0  0  0  0
   26.7083    5.7071    8.2422 C   0  0  0  0  0  0  0  0  0  0  0  0
   27.3905    6.0100    9.5655 C   0  0  0  0  0  0  0  0  0  0  0  0
   27.0571    5.0965   10.7311 C   0  0  0  0  0  0  0  0  0  0  0  0
   27.5904    5.3382   11.8373 O   0  0  0  0  0  0  0  0  0  0  0  0
   26.2477    4.1550   10.5329 O   0  0  0  0  0  0  0  0  0  0  0  0
   24.1624    5.7661    8.4859 C   0  0  0  0  0  0  0  0  0  0  0  0
   23.4558    6.1864    9.4991 O   0  0  0  0  0  0  0  0  0  0  0  0
   23.9092    4.7897    7.7678 O   0  0  0  0  0  0  0  0  0  0  0  0
   24.1925   17.9014   12.5946 C   0  0  0  0  0  0  0  0  0  0  0  0
   24.4811   18.9995   12.0694 O   0  0  0  0  0  0  0  0  0  0  0  0
   29.5425   17.3359    8.4995 H   0  0  0  0  0  0  0  0  0  0  0  0
   30.2913   16.1964    9.6499 H   0  0  0  0  0  0  0  0  0  0  0  0
   27.3649   17.8576    8.6192 H   0  0  0  0  0  0  0  0  0  0  0  0
   23.6782   15.6210   13.6398 H   0  0  0  0  0  0  0  0  0  0  0  0
   25.8309   15.7507   14.6203 H   0  0  0  0  0  0  0  0  0  0  0  0
   25.6670   14.0466   14.0235 H   0  0  0  0  0  0  0  0  0  0  0  0
   27.8179   14.7557   13.2572 H   0  0  0  0  0  0  0  0  0  0  0  0
   23.0585   14.0914   12.1951 H   0  0  0  0  0  0  0  0  0  0  0  0
   24.1390   14.8013   10.9389 H   0  0  0  0  0  0  0  0  0  0  0  0
   25.6639   13.2400   12.8340 H   0  0  0  0  0  0  0  0  0  0  0  0
   24.1808   11.5119    7.9682 H   0  0  0  0  0  0  0  0  0  0  0  0
   24.3389   13.4076    9.5416 H   0  0  0  0  0  0  0  0  0  0  0  0
   25.6384   10.7089   12.6523 H   0  0  0  0  0  0  0  0  0  0  0  0
   25.5770    8.8386   11.0388 H   0  0  0  0  0  0  0  0  0  0  0  0
   26.1348    7.8129    9.6641 H   0  0  0  0  0  0  0  0  0  0  0  0
   25.3268    6.7630    7.0079 H   0  0  0  0  0  0  0  0  0  0  0  0
   26.4513    4.6381    8.2067 H   0  0  0  0  0  0  0  0  0  0  0  0
   27.3985    5.9655    7.4256 H   0  0  0  0  0  0  0  0  0  0  0  0
   28.4767    5.9559    9.4002 H   0  0  0  0  0  0  0  0  0  0  0  0
   27.0186    7.0021    9.8611 H   0  0  0  0  0  0  0  0  0  0  0  0
   23.4254   17.8707   13.3824 H   0  0  0  0  0  0  0  0  0  0  0  0
  1  2  2  0
  1 12  1  0
  2  3  1  0
  2  4  1  0
  4  5  1  0
  5  6  2  0
  5  7  1  0
  7  8  1  0
  7 12  2  0
  8  9  1  0
  8 33  1  0
  9 10  1  0
  9 13  1  0
 10 11  1  0
 11 12  1  0
 13 14  1  0
 14 18  1  0
 15 16  2  0
 15 20  1  0
 15 21  1  0
 16 17  1  0
 17 18  2  0
 18 19  1  0
 19 20  2  0
 21 22  2  0
 21 23  1  0
 23 24  1  0
 24 25  1  0
 24 30  1  0
 25 26  1  0
 26 27  1  0
 27 28  2  0
 27 29  1  0
 30 31  2  0
 30 32  1  0
 33 34  2  0
  3 35  1  0
  3 36  1  0
  4 37  1  0
  9 38  1  1
 10 39  1  0
 10 40  1  0
 11 41  1  0
 13 42  1  0
 13 43  1  0
 14 44  1  0
 16 45  1  0
 17 46  1  0
 19 47  1  0
 20 48  1  0
 23 49  1  0
 24 50  1  6
 25 51  1  0
 25 52  1  0
 26 53  1  0
 26 54  1  0
 33 55  1  0
M  CHG  2  29  -1  32  -1
M  END
>  <filename_input>  (14) 
7TH4_FFO_docked.sdf

>  <pdb_id>  (14) 
7TH4_FFO

>  <pose_rank>  (14) 
13

>  <num_atoms_heavy>  (14) 
34

>  <num_torsions>  (14) 
9

>  <pose>  (14) 
[24.87047744612183, 10.056272805021752, 9.408568088882905, 3.293907400940761, 0.5250016396157152, -1.3923107358273388, 2.3231837068722805, 12.495017106215613, 0.2721400211347092, 27.132164150317756, -7.632571964456433, -9.865885990759953, -2.6957505666069053, -6.306251672998262, -3.2893202929362437]

>  <energy>  (14) 
-656.528984122396

>  <inter_energy>  (14) 
-667.8481821116725

>  <intra_energy>  (14) 
22.02631219088065

>  <rmsd>  (14) 
10.1575

>  <sdf_rank>  (14) 
0

$$$$

     RDKit          3D

 55 57  0  0  0  0  0  0  0  0999 V2000
   27.1736    6.1227    6.4915 N   0  0  0  0  0  0  0  0  0  0  0  0
   28.3523    5.6489    6.8308 C   0  0  0  0  0  0  0  0  0  0  0  0
   29.3427    5.5253    5.9322 N   0  0  0  0  0  0  0  0  0  0  0  0
   28.6671    5.3843    8.1447 N   0  0  0  0  0  0  0  0  0  0  0  0
   27.7426    5.4526    9.1612 C   0  0  0  0  0  0  0  0  0  0  0  0
   28.1384    5.2294   10.3327 O   0  0  0  0  0  0  0  0  0  0  0  0
   26.4564    5.8453    8.7881 C   0  0  0  0  0  0  0  0  0  0  0  0
   25.3453    5.9513    9.6767 N   0  0  0  0  0  0  0  0  0  0  0  0
   24.3865    7.0501    9.4335 C   0  0  2  0  0  0  0  0  0  0  0  0
   23.9081    6.9560    7.9880 C   0  0  0  0  0  0  0  0  0  0  0  0
   25.0132    6.7164    7.0692 N   0  0  0  0  0  0  0  0  0  0  0  0
   26.2130    6.2416    7.4360 C   0  0  0  0  0  0  0  0  0  0  0  0
   25.0244    8.3954    9.7498 C   0  0  0  0  0  0  0  0  0  0  0  0
   24.2810    9.4731    9.1041 N   0  0  0  0  0  0  0  0  0  0  0  0
   24.8385   13.4826   10.0468 C   0  0  0  0  0  0  0  0  0  0  0  0
   25.5772   12.4879   10.6819 C   0  0  0  0  0  0  0  0  0  0  0  0
   25.4044   11.1717   10.3436 C   0  0  0  0  0  0  0  0  0  0  0  0
   24.4443   10.8216    9.3947 C   0  0  0  0  0  0  0  0  0  0  0  0
   23.7116   11.8087    8.7488 C   0  0  0  0  0  0  0  0  0  0  0  0
   23.9161   13.1273    9.0746 C   0  0  0  0  0  0  0  0  0  0  0  0
   25.0412   14.9435   10.3505 C   0  0  0  0  0  0  0  0  0  0  0  0
   25.7723   15.6148    9.6340 O   0  0  0  0  0  0  0  0  0  0  0  0
   24.3735   15.4616   11.3970 N   0  0  0  0  0  0  0  0  0  0  0  0
   24.6491   16.8021   11.8942 C   0  0  1  0  0  0  0  0  0  0  0  0
   23.4345   17.3467   12.6569 C   0  0  0  0  0  0  0  0  0  0  0  0
   22.7481   16.2460   13.4479 C   0  0  0  0  0  0  0  0  0  0  0  0
   21.5348   16.6478   14.2668 C   0  0  0  0  0  0  0  0  0  0  0  0
   20.7885   17.5425   13.8098 O   0  0  0  0  0  0  0  0  0  0  0  0
   21.3292   16.0492   15.3533 O   0  0  0  0  0  0  0  0  0  0  0  0
   25.9355   16.8139   12.7337 C   0  0  0  0  0  0  0  0  0  0  0  0
   26.1887   15.8116   13.5299 O   0  0  0  0  0  0  0  0  0  0  0  0
   26.6529   17.8063   12.5503 O   0  0  0  0  0  0  0  0  0  0  0  0
   25.0091    4.9140   10.4777 C   0  0  0  0  0  0  0  0  0  0  0  0
   25.7604    3.9249   10.6268 O   0  0  0  0  0  0  0  0  0  0  0  0
   30.2575    5.1513    6.2222 H   0  0  0  0  0  0  0  0  0  0  0  0
   29.1874    5.8045    4.9530 H   0  0  0  0  0  0  0  0  0  0  0  0
   29.6363    5.1241    8.3766 H   0  0  0  0  0  0  0  0  0  0  0  0
   23.5150    6.9587   10.0984 H   0  0  0  0  0  0  0  0  0  0  0  0
   23.1885    6.1283    7.9038 H   0  0  0  0  0  0  0  0  0  0  0  0
   23.4399    7.9143    7.7187 H   0  0  0  0  0  0  0  0  0  0  0  0
   24.8632    6.9253    6.0718 H   0  0  0  0  0  0  0  0  0  0  0  0
   25.0190    8.5525   10.8385 H   0  0  0  0  0  0  0  0  0  0  0  0
   26.0580    8.3985    9.3735 H   0  0  0  0  0  0  0  0  0  0  0  0
   23.5894    9.2166    8.3852 H   0  0  0  0  0  0  0  0  0  0  0  0
   26.3045   12.7608   11.4607 H   0  0  0  0  0  0  0  0  0  0  0  0
   26.0207   10.3941   10.8185 H   0  0  0  0  0  0  0  0  0  0  0  0
   22.9722   11.5364    7.9812 H   0  0  0  0  0  0  0  0  0  0  0  0
   23.3415   13.9104    8.5583 H   0  0  0  0  0  0  0  0  0  0  0  0
   23.6479   14.8950   11.8590 H   0  0  0  0  0  0  0  0  0  0  0  0
   24.8230   17.4779   11.0438 H   0  0  0  0  0  0  0  0  0  0  0  0
   23.7683   18.1329   13.3500 H   0  0  0  0  0  0  0  0  0  0  0  0
   22.7175   17.7531   11.9284 H   0  0  0  0  0  0  0  0  0  0  0  0
   22.4269   15.4735   12.7337 H   0  0  0  0  0  0  0  0  0  0  0  0
   23.4944   15.9113   14.1834 H   0  0  0  0  0  0  0  0  0  0  0  0
   24.0483    4.9411   11.0126 H   0  0  0  0  0  0  0  0  0  0  0  0
  1  2  2  0
  1 12  1  0
  2  3  1  0
  2  4  1  0
  4  5  1  0
  5  6  2  0
  5  7  1  0
  7  8  1  0
  7 12  2  0
  8  9  1  0
  8 33  1  0
  9 10  1  0
  9 13  1  0
 10 11  1  0
 11 12  1  0
 13 14  1  0
 14 18  1  0
 15 16  2  0
 15 20  1  0
 15 21  1  0
 16 17  1  0
 17 18  2  0
 18 19  1  0
 19 20  2  0
 21 22  2  0
 21 23  1  0
 23 24  1  0
 24 25  1  0
 24 30  1  0
 25 26  1  0
 26 27  1  0
 27 28  2  0
 27 29  1  0
 30 31  2  0
 30 32  1  0
 33 34  2  0
  3 35  1  0
  3 36  1  0
  4 37  1  0
  9 38  1  1
 10 39  1  0
 10 40  1  0
 11 41  1  0
 13 42  1  0
 13 43  1  0
 14 44  1  0
 16 45  1  0
 17 46  1  0
 19 47  1  0
 20 48  1  0
 23 49  1  0
 24 50  1  6
 25 51  1  0
 25 52  1  0
 26 53  1  0
 26 54  1  0
 33 55  1  0
M  CHG  2  29  -1  32  -1
M  END
>  <filename_input>  (15) 
7TH4_FFO_docked.sdf

>  <pdb_id>  (15) 
7TH4_FFO

>  <pose_rank>  (15) 
14

>  <num_atoms_heavy>  (15) 
34

>  <num_torsions>  (15) 
9

>  <pose>  (15) 
[24.838514181910504, 13.482574742132842, 10.046796038925356, -1.611868385500037, -5.707699552907489, 0.7389315202248836, -2.018644807390391, 6.29532286547594, -0.26745332343285333, 2.162598391042486, 0.13547172581822292, 0.14255619682098433, -15.780820852707926, -6.672847662313112, 3.6644204202233075]

>  <energy>  (15) 
-671.590071335221

>  <inter_energy>  (15) 
-662.8111998805374

>  <intra_energy>  (15) 
3.3844405391997507

>  <rmsd>  (15) 
2.58714

>  <sdf_rank>  (15) 
0

$$$$

     RDKit          3D

 55 57  0  0  0  0  0  0  0  0999 V2000
   25.6803   18.1969   12.6420 N   0  0  0  0  0  0  0  0  0  0  0  0
   24.7143   19.0003   13.0297 C   0  0  0  0  0  0  0  0  0  0  0  0
   24.8802   20.3327   13.0577 N   0  0  0  0  0  0  0  0  0  0  0  0
   23.4500   18.5245   13.2956 N   0  0  0  0  0  0  0  0  0  0  0  0
   23.1482   17.1826   13.3199 C   0  0  0  0  0  0  0  0  0  0  0  0
   21.9553   16.8514   13.5353 O   0  0  0  0  0  0  0  0  0  0  0  0
   24.2012   16.3168   13.0208 C   0  0  0  0  0  0  0  0  0  0  0  0
   24.1121   14.8930   13.0195 N   0  0  0  0  0  0  0  0  0  0  0  0
   24.8910   14.1670   11.9938 C   0  0  2  0  0  0  0  0  0  0  0  0
   26.3467   14.6115   12.0954 C   0  0  0  0  0  0  0  0  0  0  0  0
   26.4603   16.0579   12.2298 N   0  0  0  0  0  0  0  0  0  0  0  0
   25.4596   16.8628   12.6172 C   0  0  0  0  0  0  0  0  0  0  0  0
   24.3042   14.4052   10.6096 C   0  0  0  0  0  0  0  0  0  0  0  0
   23.5145   13.2520   10.1885 N   0  0  0  0  0  0  0  0  0  0  0  0
   24.8958    9.3325   10.2587 C   0  0  0  0  0  0  0  0  0  0  0  0
   24.4076    9.9408   11.4120 C   0  0  0  0  0  0  0  0  0  0  0  0
   23.9296   11.2240   11.3711 C   0  0  0  0  0  0  0  0  0  0  0  0
   23.9816   11.9439   10.1779 C   0  0  0  0  0  0  0  0  0  0  0  0
   24.4566   11.3404    9.0208 C   0  0  0  0  0  0  0  0  0  0  0  0
   24.9043   10.0426    9.0680 C   0  0  0  0  0  0  0  0  0  0  0  0
   25.3761    7.9053   10.2519 C   0  0  0  0  0  0  0  0  0  0  0  0
   24.5641    6.9940   10.1590 O   0  0  0  0  0  0  0  0  0  0  0  0
   26.7027    7.6932   10.3187 N   0  0  0  0  0  0  0  0  0  0  0  0
   27.2567    6.3615   10.5185 C   0  0  1  0  0  0  0  0  0  0  0  0
   27.7358    5.7790    9.1827 C   0  0  0  0  0  0  0  0  0  0  0  0
   26.7362    4.7743    8.6352 C   0  0  0  0  0  0  0  0  0  0  0  0
   26.1533    5.0676    7.2647 C   0  0  0  0  0  0  0  0  0  0  0  0
   26.9470    5.2089    6.3073 O   0  0  0  0  0  0  0  0  0  0  0  0
   24.9025    5.1349    7.1553 O   0  0  0  0  0  0  0  0  0  0  0  0
   28.3595    6.3891   11.5875 C   0  0  0  0  0  0  0  0  0  0  0  0
   29.1277    7.4392   11.6868 O   0  0  0  0  0  0  0  0  0  0  0  0
   28.4021    5.3772   12.2998 O   0  0  0  0  0  0  0  0  0  0  0  0
   23.6192   14.2378   14.0958 C   0  0  0  0  0  0  0  0  0  0  0  0
   23.0392   14.8401   15.0263 O   0  0  0  0  0  0  0  0  0  0  0  0
   24.1084   20.9414   13.3652 H   0  0  0  0  0  0  0  0  0  0  0  0
   25.7793   20.7458   12.7716 H   0  0  0  0  0  0  0  0  0  0  0  0
   22.6978   19.2024   13.4843 H   0  0  0  0  0  0  0  0  0  0  0  0
   24.8425   13.0817   12.1660 H   0  0  0  0  0  0  0  0  0  0  0  0
   26.8045   14.1347   12.9746 H   0  0  0  0  0  0  0  0  0  0  0  0
   26.8622   14.3114   11.1712 H   0  0  0  0  0  0  0  0  0  0  0  0
   27.3693   16.4910   12.0130 H   0  0  0  0  0  0  0  0  0  0  0  0
   23.6594   15.2960   10.6373 H   0  0  0  0  0  0  0  0  0  0  0  0
   25.1258   14.5567    9.8941 H   0  0  0  0  0  0  0  0  0  0  0  0
   22.5466   13.4194    9.8787 H   0  0  0  0  0  0  0  0  0  0  0  0
   24.4058    9.3873   12.3626 H   0  0  0  0  0  0  0  0  0  0  0  0
   23.5063   11.6846   12.2759 H   0  0  0  0  0  0  0  0  0  0  0  0
   24.4742   11.8979    8.0728 H   0  0  0  0  0  0  0  0  0  0  0  0
   25.2739    9.5613    8.1506 H   0  0  0  0  0  0  0  0  0  0  0  0
   27.3437    8.4941   10.2262 H   0  0  0  0  0  0  0  0  0  0  0  0
   26.4699    5.6921   10.8964 H   0  0  0  0  0  0  0  0  0  0  0  0
   27.8577    6.5967    8.4570 H   0  0  0  0  0  0  0  0  0  0  0  0
   28.6937    5.2643    9.3490 H   0  0  0  0  0  0  0  0  0  0  0  0
   27.2408    3.7984    8.5805 H   0  0  0  0  0  0  0  0  0  0  0  0
   25.8812    4.8125    9.3263 H   0  0  0  0  0  0  0  0  0  0  0  0
   23.7317   13.1451   14.1542 H   0  0  0  0  0  0  0  0  0  0  0  0
  1  2  2  0
  1 12  1  0
  2  3  1  0
  2  4  1  0
  4  5  1  0
  5  6  2  0
  5  7  1  0
  7  8  1  0
  7 12  2  0
  8  9  1  0
  8 33  1  0
  9 10  1  0
  9 13  1  0
 10 11  1  0
 11 12  1  0
 13 14  1  0
 14 18  1  0
 15 16  2  0
 15 20  1  0
 15 21  1  0
 16 17  1  0
 17 18  2  0
 18 19  1  0
 19 20  2  0
 21 22  2  0
 21 23  1  0
 23 24  1  0
 24 25  1  0
 24 30  1  0
 25 26  1  0
 26 27  1  0
 27 28  2  0
 27 29  1  0
 30 31  2  0
 30 32  1  0
 33 34  2  0
  3 35  1  0
  3 36  1  0
  4 37  1  0
  9 38  1  1
 10 39  1  0
 10 40  1  0
 11 41  1  0
 13 42  1  0
 13 43  1  0
 14 44  1  0
 16 45  1  0
 17 46  1  0
 19 47  1  0
 20 48  1  0
 23 49  1  0
 24 50  1  1
 25 51  1  0
 25 52  1  0
 26 53  1  0
 26 54  1  0
 33 55  1  0
M  CHG  2  29  -1  32  -1
M  END
>  <filename_input>  (16) 
7TH4_FFO_docked.sdf

>  <pdb_id>  (16) 
7TH4_FFO

>  <pose_rank>  (16) 
15

>  <num_atoms_heavy>  (16) 
34

>  <num_torsions>  (16) 
9

>  <pose>  (16) 
[24.895788150012088, 9.332508716352196, 10.25871997028316, 0.5472914208605416, -0.19151228304120246, 3.438128344880083, -2.2722233300879013, -0.9776410704963445, -0.18637282183571435, -0.26113103530768067, -0.8795202428884759, 0.5378456450411292, -1.7843808313123108, 2.0511039708206105, -0.9226248472264376]

>  <energy>  (16) 
-553.2729344221827

>  <inter_energy>  (16) 
-556.5038862359719

>  <intra_energy>  (16) 
13.100692633263368

>  <rmsd>  (16) 
10.6725

>  <sdf_rank>  (16) 
0

$$$$

     RDKit          3D

 55 57  0  0  0  0  0  0  0  0999 V2000
   23.9962    8.1839    8.5998 N   0  0  0  0  0  0  0  0  0  0  0  0
   24.8034    9.2201    8.6611 C   0  0  0  0  0  0  0  0  0  0  0  0
   24.3316   10.4668    8.8247 N   0  0  0  0  0  0  0  0  0  0  0  0
   26.1707    9.0623    8.6951 N   0  0  0  0  0  0  0  0  0  0  0  0
   26.7852    7.8439    8.5202 C   0  0  0  0  0  0  0  0  0  0  0  0
   28.0379    7.7988    8.6066 O   0  0  0  0  0  0  0  0  0  0  0  0
   25.9331    6.7534    8.3392 C   0  0  0  0  0  0  0  0  0  0  0  0
   26.3615    5.4118    8.1118 N   0  0  0  0  0  0  0  0  0  0  0  0
   25.5547    4.3316    8.7185 C   0  0  2  0  0  0  0  0  0  0  0  0
   24.1054    4.5121    8.2778 C   0  0  0  0  0  0  0  0  0  0  0  0
   23.6813    5.9026    8.3770 N   0  0  0  0  0  0  0  0  0  0  0  0
   24.5206    6.9465    8.4489 C   0  0  0  0  0  0  0  0  0  0  0  0
   25.7081    4.3364   10.2328 C   0  0  0  0  0  0  0  0  0  0  0  0
   27.0936    4.6116   10.6010 N   0  0  0  0  0  0  0  0  0  0  0  0
   28.1808    7.0974   13.7497 C   0  0  0  0  0  0  0  0  0  0  0  0
   27.2717    7.5205   12.7839 C   0  0  0  0  0  0  0  0  0  0  0  0
   26.8999    6.6827   11.7658 C   0  0  0  0  0  0  0  0  0  0  0  0
   27.4764    5.4168   11.6662 C   0  0  0  0  0  0  0  0  0  0  0  0
   28.3754    4.9833   12.6319 C   0  0  0  0  0  0  0  0  0  0  0  0
   28.7165    5.8214   13.6653 C   0  0  0  0  0  0  0  0  0  0  0  0
   28.5699    7.9683   14.9150 C   0  0  0  0  0  0  0  0  0  0  0  0
   29.2059    8.9953   14.7170 O   0  0  0  0  0  0  0  0  0  0  0  0
   28.1673    7.5871   16.1406 N   0  0  0  0  0  0  0  0  0  0  0  0
   28.6542    8.2434   17.3457 C   0  0  1  0  0  0  0  0  0  0  0  0
   27.7124    9.3861   17.7465 C   0  0  0  0  0  0  0  0  0  0  0  0
   26.4250    9.3406   16.9409 C   0  0  0  0  0  0  0  0  0  0  0  0
   26.1125   10.5531   16.0828 C   0  0  0  0  0  0  0  0  0  0  0  0
   26.7369   11.6128   16.3147 O   0  0  0  0  0  0  0  0  0  0  0  0
   25.2568   10.4280   15.1701 O   0  0  0  0  0  0  0  0  0  0  0  0
   28.8642    7.2200   18.4718 C   0  0  0  0  0  0  0  0  0  0  0  0
   28.0652    7.2314   19.5034 O   0  0  0  0  0  0  0  0  0  0  0  0
   29.7987    6.4320   18.2746 O   0  0  0  0  0  0  0  0  0  0  0  0
   27.2470    5.1344    7.1271 C   0  0  0  0  0  0  0  0  0  0  0  0
   27.8737    6.0373    6.5297 O   0  0  0  0  0  0  0  0  0  0  0  0
   24.9840   11.2625    8.8697 H   0  0  0  0  0  0  0  0  0  0  0  0
   23.3174   10.6272    8.9051 H   0  0  0  0  0  0  0  0  0  0  0  0
   26.7587    9.8920    8.8584 H   0  0  0  0  0  0  0  0  0  0  0  0
   25.9055    3.3467    8.3767 H   0  0  0  0  0  0  0  0  0  0  0  0
   24.0070    4.1831    7.2328 H   0  0  0  0  0  0  0  0  0  0  0  0
   23.4675    3.9107    8.9422 H   0  0  0  0  0  0  0  0  0  0  0  0
   22.6699    6.0968    8.3931 H   0  0  0  0  0  0  0  0  0  0  0  0
   25.0577    5.1134   10.6610 H   0  0  0  0  0  0  0  0  0  0  0  0
   25.4234    3.3487   10.6244 H   0  0  0  0  0  0  0  0  0  0  0  0
   27.8368    4.1800   10.0333 H   0  0  0  0  0  0  0  0  0  0  0  0
   26.8490    8.5346   12.8388 H   0  0  0  0  0  0  0  0  0  0  0  0
   26.1496    7.0072   11.0298 H   0  0  0  0  0  0  0  0  0  0  0  0
   28.8115    3.9754   12.5696 H   0  0  0  0  0  0  0  0  0  0  0  0
   29.4228    5.4763   14.4347 H   0  0  0  0  0  0  0  0  0  0  0  0
   27.4967    6.8103   16.2289 H   0  0  0  0  0  0  0  0  0  0  0  0
   29.6371    8.6941   17.1437 H   0  0  0  0  0  0  0  0  0  0  0  0
   27.4707    9.2944   18.8157 H   0  0  0  0  0  0  0  0  0  0  0  0
   28.2173   10.3424   17.5454 H   0  0  0  0  0  0  0  0  0  0  0  0
   26.4795    8.4667   16.2751 H   0  0  0  0  0  0  0  0  0  0  0  0
   25.6187    9.3006   17.6880 H   0  0  0  0  0  0  0  0  0  0  0  0
   27.4205    4.0857    6.8439 H   0  0  0  0  0  0  0  0  0  0  0  0
  1  2  2  0
  1 12  1  0
  2  3  1  0
  2  4  1  0
  4  5  1  0
  5  6  2  0
  5  7  1  0
  7  8  1  0
  7 12  2  0
  8  9  1  0
  8 33  1  0
  9 10  1  0
  9 13  1  0
 10 11  1  0
 11 12  1  0
 13 14  1  0
 14 18  1  0
 15 16  2  0
 15 20  1  0
 15 21  1  0
 16 17  1  0
 17 18  2  0
 18 19  1  0
 19 20  2  0
 21 22  2  0
 21 23  1  0
 23 24  1  0
 24 25  1  0
 24 30  1  0
 25 26  1  0
 26 27  1  0
 27 28  2  0
 27 29  1  0
 30 31  2  0
 30 32  1  0
 33 34  2  0
  3 35  1  0
  3 36  1  0
  4 37  1  0
  9 38  1  6
 10 39  1  0
 10 40  1  0
 11 41  1  0
 13 42  1  0
 13 43  1  0
 14 44  1  0
 16 45  1  0
 17 46  1  0
 19 47  1  0
 20 48  1  0
 23 49  1  0
 24 50  1  6
 25 51  1  0
 25 52  1  0
 26 53  1  0
 26 54  1  0
 33 55  1  0
M  CHG  2  29  -1  32  -1
M  END
>  <filename_input>  (17) 
7TH4_FFO_docked.sdf

>  <pdb_id>  (17) 
7TH4_FFO

>  <pose_rank>  (17) 
16

>  <num_atoms_heavy>  (17) 
34

>  <num_torsions>  (17) 
9

>  <pose>  (17) 
[28.180785429734748, 7.097365948105374, 13.749742859027869, -0.31778956656090446, -2.437997780206285, -1.485434215308554, 1.4179513888755637, -1.1213425231772773, -1.510386018770015, 1.7029138118085736, 1.201303931055593, -0.742778603407356, -4.119254738136857, -0.856548438116714, 0.160280715274284]

>  <energy>  (17) 
-594.1875019043098

>  <inter_energy>  (17) 
-624.2042156953023

>  <intra_energy>  (17) 
21.246251057747017

>  <rmsd>  (17) 
6.63372

>  <sdf_rank>  (17) 
0

$$$$

     RDKit          3D

 55 57  0  0  0  0  0  0  0  0999 V2000
   28.7779    6.5712    9.8262 N   0  0  0  0  0  0  0  0  0  0  0  0
   28.7721    5.4696   10.5440 C   0  0  0  0  0  0  0  0  0  0  0  0
   29.8710    5.0500   11.1919 N   0  0  0  0  0  0  0  0  0  0  0  0
   27.6088    4.7698   10.7732 N   0  0  0  0  0  0  0  0  0  0  0  0
   26.4181    5.0809   10.1583 C   0  0  0  0  0  0  0  0  0  0  0  0
   25.4038    4.4049   10.4635 O   0  0  0  0  0  0  0  0  0  0  0  0
   26.4451    6.1835    9.3032 C   0  0  0  0  0  0  0  0  0  0  0  0
   25.3324    6.6568    8.5461 N   0  0  0  0  0  0  0  0  0  0  0  0
   25.2028    8.1196    8.3754 C   0  0  2  0  0  0  0  0  0  0  0  0
   26.5095    8.6508    7.7945 C   0  0  0  0  0  0  0  0  0  0  0  0
   27.6694    8.0804    8.4670 N   0  0  0  0  0  0  0  0  0  0  0  0
   27.6417    6.9600    9.2041 C   0  0  0  0  0  0  0  0  0  0  0  0
   24.8412    8.7817    9.6974 C   0  0  0  0  0  0  0  0  0  0  0  0
   24.0070    9.9568    9.4643 N   0  0  0  0  0  0  0  0  0  0  0  0
   25.1561   13.8293   10.4434 C   0  0  0  0  0  0  0  0  0  0  0  0
   25.0960   12.8329   11.4139 C   0  0  0  0  0  0  0  0  0  0  0  0
   24.7424   11.5536   11.0746 C   0  0  0  0  0  0  0  0  0  0  0  0
   24.3886   11.2597    9.7581 C   0  0  0  0  0  0  0  0  0  0  0  0
   24.4568   12.2455    8.7823 C   0  0  0  0  0  0  0  0  0  0  0  0
   24.8430   13.5171    9.1293 C   0  0  0  0  0  0  0  0  0  0  0  0
   25.5957   15.2327   10.7672 C   0  0  0  0  0  0  0  0  0  0  0  0
   26.1772   15.8957    9.9182 O   0  0  0  0  0  0  0  0  0  0  0  0
   25.2972   15.7141   11.9873 N   0  0  0  0  0  0  0  0  0  0  0  0
   25.8452   16.9741   12.4690 C   0  0  1  0  0  0  0  0  0  0  0  0
   27.3120   17.1140   12.0420 C   0  0  0  0  0  0  0  0  0  0  0  0
   28.1529   17.7030   13.1620 C   0  0  0  0  0  0  0  0  0  0  0  0
   29.6459   17.8126   12.9105 C   0  0  0  0  0  0  0  0  0  0  0  0
   30.4172   17.6734   13.8863 O   0  0  0  0  0  0  0  0  0  0  0  0
   30.0344   18.0184   11.7324 O   0  0  0  0  0  0  0  0  0  0  0  0
   24.9747   18.1535   12.0097 C   0  0  0  0  0  0  0  0  0  0  0  0
   25.3748   18.8932   11.0119 O   0  0  0  0  0  0  0  0  0  0  0  0
   23.9185   18.2823   12.6429 O   0  0  0  0  0  0  0  0  0  0  0  0
   24.6355    5.8106    7.7530 C   0  0  0  0  0  0  0  0  0  0  0  0
   24.7954    4.5711    7.8092 O   0  0  0  0  0  0  0  0  0  0  0  0
   29.8417    4.1835   11.7481 H   0  0  0  0  0  0  0  0  0  0  0  0
   30.7433    5.5946   11.1327 H   0  0  0  0  0  0  0  0  0  0  0  0
   27.6309    3.9795   11.4334 H   0  0  0  0  0  0  0  0  0  0  0  0
   24.3861    8.3580    7.6782 H   0  0  0  0  0  0  0  0  0  0  0  0
   26.5550    8.3940    6.7259 H   0  0  0  0  0  0  0  0  0  0  0  0
   26.5310    9.7411    7.9392 H   0  0  0  0  0  0  0  0  0  0  0  0
   28.5704    8.5700    8.3700 H   0  0  0  0  0  0  0  0  0  0  0  0
   24.2906    8.0644   10.3238 H   0  0  0  0  0  0  0  0  0  0  0  0
   25.7653    9.0943   10.2056 H   0  0  0  0  0  0  0  0  0  0  0  0
   23.0734    9.8100    9.0547 H   0  0  0  0  0  0  0  0  0  0  0  0
   25.3342   13.0745   12.4602 H   0  0  0  0  0  0  0  0  0  0  0  0
   24.7375   10.7613   11.8377 H   0  0  0  0  0  0  0  0  0  0  0  0
   24.2033   12.0094    7.7382 H   0  0  0  0  0  0  0  0  0  0  0  0
   24.9045   14.2968    8.3558 H   0  0  0  0  0  0  0  0  0  0  0  0
   24.6641   15.1771   12.5969 H   0  0  0  0  0  0  0  0  0  0  0  0
   25.8294   16.9819   13.5689 H   0  0  0  0  0  0  0  0  0  0  0  0
   27.7065   16.1210   11.7804 H   0  0  0  0  0  0  0  0  0  0  0  0
   27.3611   17.7896   11.1753 H   0  0  0  0  0  0  0  0  0  0  0  0
   27.7743   18.7155   13.3655 H   0  0  0  0  0  0  0  0  0  0  0  0
   28.0528   16.9969   13.9995 H   0  0  0  0  0  0  0  0  0  0  0  0
   23.9081    6.2241    7.0390 H   0  0  0  0  0  0  0  0  0  0  0  0
  1  2  2  0
  1 12  1  0
  2  3  1  0
  2  4  1  0
  4  5  1  0
  5  6  2  0
  5  7  1  0
  7  8  1  0
  7 12  2  0
  8  9  1  0
  8 33  1  0
  9 10  1  0
  9 13  1  0
 10 11  1  0
 11 12  1  0
 13 14  1  0
 14 18  1  0
 15 16  2  0
 15 20  1  0
 15 21  1  0
 16 17  1  0
 17 18  2  0
 18 19  1  0
 19 20  2  0
 21 22  2  0
 21 23  1  0
 23 24  1  0
 24 25  1  0
 24 30  1  0
 25 26  1  0
 26 27  1  0
 27 28  2  0
 27 29  1  0
 30 31  2  0
 30 32  1  0
 33 34  2  0
  3 35  1  0
  3 36  1  0
  4 37  1  0
  9 38  1  6
 10 39  1  0
 10 40  1  0
 11 41  1  0
 13 42  1  0
 13 43  1  0
 14 44  1  0
 16 45  1  0
 17 46  1  0
 19 47  1  0
 20 48  1  0
 23 49  1  0
 24 50  1  1
 25 51  1  0
 25 52  1  0
 26 53  1  0
 26 54  1  0
 33 55  1  0
M  CHG  2  29  -1  32  -1
M  END
>  <filename_input>  (18) 
7TH4_FFO_docked.sdf

>  <pdb_id>  (18) 
7TH4_FFO

>  <pose_rank>  (18) 
17

>  <num_atoms_heavy>  (18) 
34

>  <num_torsions>  (18) 
9

>  <pose>  (18) 
[25.156078908371832, 13.829288919596937, 10.443359379127543, -0.1760370338856889, 4.17728314623386, 4.070469003840523, -1.1036886006177107, 2.8642660158741493, -1.3818537106903441, -0.9130586741484316, 0.0788768429143483, 3.2569563973747777, 2.033280363536708, -5.318954024727105, 4.559528562636141]

>  <energy>  (18) 
-591.167747369912

>  <inter_energy>  (18) 
-617.5913634475726

>  <intra_energy>  (18) 
27.363558363640198

>  <rmsd>  (18) 
3.11475

>  <sdf_rank>  (18) 
0

$$$$

     RDKit          3D

 55 57  0  0  0  0  0  0  0  0999 V2000
   29.4750   16.6269   11.9047 N   0  0  0  0  0  0  0  0  0  0  0  0
   29.8413   16.6829   10.6431 C   0  0  0  0  0  0  0  0  0  0  0  0
   31.1284   16.8410   10.2938 N   0  0  0  0  0  0  0  0  0  0  0  0
   28.9442   16.4487    9.6254 N   0  0  0  0  0  0  0  0  0  0  0  0
   27.5950   16.2899    9.8426 C   0  0  0  0  0  0  0  0  0  0  0  0
   26.8643   16.0423    8.8508 O   0  0  0  0  0  0  0  0  0  0  0  0
   27.1830   16.3443   11.1749 C   0  0  0  0  0  0  0  0  0  0  0  0
   25.8309   16.2338   11.6163 N   0  0  0  0  0  0  0  0  0  0  0  0
   25.5903   15.5204   12.8887 C   0  0  2  0  0  0  0  0  0  0  0  0
   26.4544   16.1641   13.9685 C   0  0  0  0  0  0  0  0  0  0  0  0
   27.8116   16.4085   13.4981 N   0  0  0  0  0  0  0  0  0  0  0  0
   28.1681   16.4520   12.2056 C   0  0  0  0  0  0  0  0  0  0  0  0
   25.8703   14.0328   12.7282 C   0  0  0  0  0  0  0  0  0  0  0  0
   25.0498   13.4753   11.6573 N   0  0  0  0  0  0  0  0  0  0  0  0
   25.5387    9.6072   10.2172 C   0  0  0  0  0  0  0  0  0  0  0  0
   26.2721   10.0630   11.3093 C   0  0  0  0  0  0  0  0  0  0  0  0
   26.0828   11.3309   11.7924 C   0  0  0  0  0  0  0  0  0  0  0  0
   25.1882   12.1885   11.1528 C   0  0  0  0  0  0  0  0  0  0  0  0
   24.4448   11.7375   10.0700 C   0  0  0  0  0  0  0  0  0  0  0  0
   24.6211   10.4538    9.6143 C   0  0  0  0  0  0  0  0  0  0  0  0
   25.6773    8.2020    9.6938 C   0  0  0  0  0  0  0  0  0  0  0  0
   25.4045    7.2557   10.4209 O   0  0  0  0  0  0  0  0  0  0  0  0
   26.0730    8.0479    8.4174 N   0  0  0  0  0  0  0  0  0  0  0  0
   26.4281    6.7432    7.8774 C   0  0  1  0  0  0  0  0  0  0  0  0
   25.3890    6.2956    6.8414 C   0  0  0  0  0  0  0  0  0  0  0  0
   24.5130    5.1831    7.3922 C   0  0  0  0  0  0  0  0  0  0  0  0
   23.4545    5.5840    8.4037 C   0  0  0  0  0  0  0  0  0  0  0  0
   22.6303    6.4656    8.0724 O   0  0  0  0  0  0  0  0  0  0  0  0
   23.4462    4.9976    9.5159 O   0  0  0  0  0  0  0  0  0  0  0  0
   27.8590    6.7601    7.3188 C   0  0  0  0  0  0  0  0  0  0  0  0
   28.8431    7.1286    8.0924 O   0  0  0  0  0  0  0  0  0  0  0  0
   27.9498    6.3841    6.1426 O   0  0  0  0  0  0  0  0  0  0  0  0
   24.8705   17.0228   11.0816 C   0  0  0  0  0  0  0  0  0  0  0  0
   25.0771   17.7126   10.0587 O   0  0  0  0  0  0  0  0  0  0  0  0
   31.3907   16.8820    9.2986 H   0  0  0  0  0  0  0  0  0  0  0  0
   31.8533   16.9212   11.0212 H   0  0  0  0  0  0  0  0  0  0  0  0
   29.2983   16.3900    8.6599 H   0  0  0  0  0  0  0  0  0  0  0  0
   24.5349   15.6045   13.1871 H   0  0  0  0  0  0  0  0  0  0  0  0
   26.0014   17.1221   14.2636 H   0  0  0  0  0  0  0  0  0  0  0  0
   26.5068   15.4732   14.8229 H   0  0  0  0  0  0  0  0  0  0  0  0
   28.5459   16.5579   14.2047 H   0  0  0  0  0  0  0  0  0  0  0  0
   26.9331   13.8880   12.4840 H   0  0  0  0  0  0  0  0  0  0  0  0
   25.6266   13.5193   13.6700 H   0  0  0  0  0  0  0  0  0  0  0  0
   24.3197   14.0759   11.2486 H   0  0  0  0  0  0  0  0  0  0  0  0
   27.0086    9.4005   11.7876 H   0  0  0  0  0  0  0  0  0  0  0  0
   26.6343   11.6711   12.6812 H   0  0  0  0  0  0  0  0  0  0  0  0
   23.7196   12.4041    9.5803 H   0  0  0  0  0  0  0  0  0  0  0  0
   24.0274   10.0933    8.7613 H   0  0  0  0  0  0  0  0  0  0  0  0
   26.1261    8.8749    7.8057 H   0  0  0  0  0  0  0  0  0  0  0  0
   26.4157    5.9980    8.6865 H   0  0  0  0  0  0  0  0  0  0  0  0
   24.7548    7.1538    6.5745 H   0  0  0  0  0  0  0  0  0  0  0  0
   25.9193    5.9170    5.9552 H   0  0  0  0  0  0  0  0  0  0  0  0
   23.9990    4.7119    6.5414 H   0  0  0  0  0  0  0  0  0  0  0  0
   25.1990    4.5204    7.9401 H   0  0  0  0  0  0  0  0  0  0  0  0
   23.8805   17.0586   11.5597 H   0  0  0  0  0  0  0  0  0  0  0  0
  1  2  2  0
  1 12  1  0
  2  3  1  0
  2  4  1  0
  4  5  1  0
  5  6  2  0
  5  7  1  0
  7  8  1  0
  7 12  2  0
  8  9  1  0
  8 33  1  0
  9 10  1  0
  9 13  1  0
 10 11  1  0
 11 12  1  0
 13 14  1  0
 14 18  1  0
 15 16  2  0
 15 20  1  0
 15 21  1  0
 16 17  1  0
 17 18  2  0
 18 19  1  0
 19 20  2  0
 21 22  2  0
 21 23  1  0
 23 24  1  0
 24 25  1  0
 24 30  1  0
 25 26  1  0
 26 27  1  0
 27 28  2  0
 27 29  1  0
 30 31  2  0
 30 32  1  0
 33 34  2  0
  3 35  1  0
  3 36  1  0
  4 37  1  0
  9 38  1  1
 10 39  1  0
 10 40  1  0
 11 41  1  0
 13 42  1  0
 13 43  1  0
 14 44  1  0
 16 45  1  0
 17 46  1  0
 19 47  1  0
 20 48  1  0
 23 49  1  0
 24 50  1  1
 25 51  1  0
 25 52  1  0
 26 53  1  0
 26 54  1  0
 33 55  1  0
M  CHG  2  29  -1  32  -1
M  END
>  <filename_input>  (19) 
7TH4_FFO_docked.sdf

>  <pdb_id>  (19) 
7TH4_FFO

>  <pose_rank>  (19) 
18

>  <num_atoms_heavy>  (19) 
34

>  <num_torsions>  (19) 
9

>  <pose>  (19) 
[25.538683624979644, 9.60715456276554, 10.217198569562205, -1.7040407190507558, 0.5483642143448351, -2.2905020556866145, 3.6498371654258137, -0.7812562355890775, -4.9018872616425275, -0.3509124203849088, -1.6862101579386095, 0.5139614493535777, -3.1326456822874875, -0.3113641650784684, -0.13995879192869928]

>  <energy>  (19) 
-633.4928312962633

>  <inter_energy>  (19) 
-638.066881944042

>  <intra_energy>  (19) 
7.062898762187743

>  <rmsd>  (19) 
10.1479

>  <sdf_rank>  (19) 
0

$$$$

     RDKit          3D

 55 57  0  0  0  0  0  0  0  0999 V2000
   24.5118    8.5855    7.3186 N   0  0  0  0  0  0  0  0  0  0  0  0
   25.2327    9.6837    7.3727 C   0  0  0  0  0  0  0  0  0  0  0  0
   24.6790   10.8945    7.1970 N   0  0  0  0  0  0  0  0  0  0  0  0
   26.5583    9.6531    7.7435 N   0  0  0  0  0  0  0  0  0  0  0  0
   27.2519    8.4807    7.9356 C   0  0  0  0  0  0  0  0  0  0  0  0
   28.4487    8.5595    8.3102 O   0  0  0  0  0  0  0  0  0  0  0  0
   26.5184    7.3055    7.7665 C   0  0  0  0  0  0  0  0  0  0  0  0
   27.0496    5.9871    7.8886 N   0  0  0  0  0  0  0  0  0  0  0  0
   26.1718    4.9558    8.4817 C   0  0  2  0  0  0  0  0  0  0  0  0
   24.8626    4.9345    7.6991 C   0  0  0  0  0  0  0  0  0  0  0  0
   24.3638    6.2800    7.4465 N   0  0  0  0  0  0  0  0  0  0  0  0
   25.1131    7.3904    7.5167 C   0  0  0  0  0  0  0  0  0  0  0  0
   25.9596    5.2238    9.9650 C   0  0  0  0  0  0  0  0  0  0  0  0
   27.1011    4.7402   10.7358 N   0  0  0  0  0  0  0  0  0  0  0  0
   29.6999    7.1240   12.9356 C   0  0  0  0  0  0  0  0  0  0  0  0
   30.1835    6.1771   12.0368 C   0  0  0  0  0  0  0  0  0  0  0  0
   29.3174    5.4160   11.2971 C   0  0  0  0  0  0  0  0  0  0  0  0
   27.9424    5.5533   11.4845 C   0  0  0  0  0  0  0  0  0  0  0  0
   27.4521    6.5034   12.3709 C   0  0  0  0  0  0  0  0  0  0  0  0
   28.3305    7.2822   13.0840 C   0  0  0  0  0  0  0  0  0  0  0  0
   30.6198    8.0185   13.7238 C   0  0  0  0  0  0  0  0  0  0  0  0
   31.5037    7.5230   14.4107 O   0  0  0  0  0  0  0  0  0  0  0  0
   30.4448    9.3475   13.6117 N   0  0  0  0  0  0  0  0  0  0  0  0
   31.1428   10.2880   14.4767 C   0  0  1  0  0  0  0  0  0  0  0  0
   30.6543   10.1431   15.9236 C   0  0  0  0  0  0  0  0  0  0  0  0
   29.1478   10.3192   16.0115 C   0  0  0  0  0  0  0  0  0  0  0  0
   28.6202   11.7405   15.9342 C   0  0  0  0  0  0  0  0  0  0  0  0
   28.6465   12.4337   16.9759 O   0  0  0  0  0  0  0  0  0  0  0  0
   28.2011   12.1569   14.8243 O   0  0  0  0  0  0  0  0  0  0  0  0
   32.6639   10.1217   14.3407 C   0  0  0  0  0  0  0  0  0  0  0  0
   33.2112   10.1882   13.1581 O   0  0  0  0  0  0  0  0  0  0  0  0
   33.2550    9.9558   15.4160 O   0  0  0  0  0  0  0  0  0  0  0  0
   28.1559    5.6290    7.1969 C   0  0  0  0  0  0  0  0  0  0  0  0
   28.8650    6.4719    6.6038 O   0  0  0  0  0  0  0  0  0  0  0  0
   25.2647   11.7405    7.2440 H   0  0  0  0  0  0  0  0  0  0  0  0
   23.6685   10.9772    7.0152 H   0  0  0  0  0  0  0  0  0  0  0  0
   27.0519   10.5464    7.8829 H   0  0  0  0  0  0  0  0  0  0  0  0
   26.6387    3.9623    8.4122 H   0  0  0  0  0  0  0  0  0  0  0  0
   25.0312    4.4302    6.7361 H   0  0  0  0  0  0  0  0  0  0  0  0
   24.1130    4.3978    8.2992 H   0  0  0  0  0  0  0  0  0  0  0  0
   23.3699    6.3855    7.1977 H   0  0  0  0  0  0  0  0  0  0  0  0
   25.8458    6.3061   10.1255 H   0  0  0  0  0  0  0  0  0  0  0  0
   25.0538    4.6960   10.2979 H   0  0  0  0  0  0  0  0  0  0  0  0
   27.2956    3.7288   10.7237 H   0  0  0  0  0  0  0  0  0  0  0  0
   31.2686    6.0392   11.9199 H   0  0  0  0  0  0  0  0  0  0  0  0
   29.7051    4.6993   10.5581 H   0  0  0  0  0  0  0  0  0  0  0  0
   26.3673    6.6314   12.5010 H   0  0  0  0  0  0  0  0  0  0  0  0
   27.9431    8.0400   13.7808 H   0  0  0  0  0  0  0  0  0  0  0  0
   29.7998    9.7095   12.8948 H   0  0  0  0  0  0  0  0  0  0  0  0
   30.9099   11.3157   14.1611 H   0  0  0  0  0  0  0  0  0  0  0  0
   30.9215    9.1427   16.2947 H   0  0  0  0  0  0  0  0  0  0  0  0
   31.1338   10.9223   16.5344 H   0  0  0  0  0  0  0  0  0  0  0  0
   28.6973    9.7513   15.1842 H   0  0  0  0  0  0  0  0  0  0  0  0
   28.8742    9.9644   17.0162 H   0  0  0  0  0  0  0  0  0  0  0  0
   28.4398    4.5671    7.1548 H   0  0  0  0  0  0  0  0  0  0  0  0
  1  2  2  0
  1 12  1  0
  2  3  1  0
  2  4  1  0
  4  5  1  0
  5  6  2  0
  5  7  1  0
  7  8  1  0
  7 12  2  0
  8  9  1  0
  8 33  1  0
  9 10  1  0
  9 13  1  0
 10 11  1  0
 11 12  1  0
 13 14  1  0
 14 18  1  0
 15 16  2  0
 15 20  1  0
 15 21  1  0
 16 17  1  0
 17 18  2  0
 18 19  1  0
 19 20  2  0
 21 22  2  0
 21 23  1  0
 23 24  1  0
 24 25  1  0
 24 30  1  0
 25 26  1  0
 26 27  1  0
 27 28  2  0
 27 29  1  0
 30 31  2  0
 30 32  1  0
 33 34  2  0
  3 35  1  0
  3 36  1  0
  4 37  1  0
  9 38  1  1
 10 39  1  0
 10 40  1  0
 11 41  1  0
 13 42  1  0
 13 43  1  0
 14 44  1  0
 16 45  1  0
 17 46  1  0
 19 47  1  0
 20 48  1  0
 23 49  1  0
 24 50  1  6
 25 51  1  0
 25 52  1  0
 26 53  1  0
 26 54  1  0
 33 55  1  0
M  CHG  2  29  -1  32  -1
M  END
>  <filename_input>  (20) 
7TH4_FFO_docked.sdf

>  <pdb_id>  (20) 
7TH4_FFO

>  <pose_rank>  (20) 
19

>  <num_atoms_heavy>  (20) 
34

>  <num_torsions>  (20) 
9

>  <pose>  (20) 
[29.699864666330203, 7.123994956831874, 12.935638483680904, -2.8144171057925527, -3.8559416544012053, 0.18789240964088266, 1.6296364946476805, -3.8951695011365057, -4.92506745373041, 0.5415938767611227, 1.9454019819603685, -1.8787796509233097, 7.05552644651744, -7.553345165197719, -13.117392958490775]

>  <energy>  (20) 
-478.3241697339323

>  <inter_energy>  (20) 
-515.3822442723841

>  <intra_energy>  (20) 
27.877109582968075

>  <rmsd>  (20) 
6.0566

>  <sdf_rank>  (20) 
0

$$$$

     RDKit          3D

 55 57  0  0  0  0  0  0  0  0999 V2000
   24.6570    4.7422    8.8394 N   0  0  0  0  0  0  0  0  0  0  0  0
   25.0447    4.6496    7.5865 C   0  0  0  0  0  0  0  0  0  0  0  0
   24.3289    3.9634    6.6806 N   0  0  0  0  0  0  0  0  0  0  0  0
   26.1265    5.3599    7.1167 N   0  0  0  0  0  0  0  0  0  0  0  0
   26.9549    6.0875    7.9395 C   0  0  0  0  0  0  0  0  0  0  0  0
   27.8935    6.7323    7.4084 O   0  0  0  0  0  0  0  0  0  0  0  0
   26.6135    6.0958    9.2927 C   0  0  0  0  0  0  0  0  0  0  0  0
   27.3520    6.7601   10.3168 N   0  0  0  0  0  0  0  0  0  0  0  0
   26.5797    7.3785   11.4154 C   0  0  2  0  0  0  0  0  0  0  0  0
   25.6689    6.3136   12.0182 C   0  0  0  0  0  0  0  0  0  0  0  0
   24.9995    5.5309   10.9875 N   0  0  0  0  0  0  0  0  0  0  0  0
   25.4046    5.4568    9.7109 C   0  0  0  0  0  0  0  0  0  0  0  0
   25.8066    8.5883   10.9099 C   0  0  0  0  0  0  0  0  0  0  0  0
   25.4168    9.4437   12.0267 N   0  0  0  0  0  0  0  0  0  0  0  0
   26.0000   13.5550   12.2064 C   0  0  0  0  0  0  0  0  0  0  0  0
   26.5850   12.7068   13.1428 C   0  0  0  0  0  0  0  0  0  0  0  0
   26.4082   11.3510   13.0576 C   0  0  0  0  0  0  0  0  0  0  0  0
   25.5933   10.8211   12.0577 C   0  0  0  0  0  0  0  0  0  0  0  0
   25.0155   11.6595   11.1134 C   0  0  0  0  0  0  0  0  0  0  0  0
   25.2257   13.0147   11.1911 C   0  0  0  0  0  0  0  0  0  0  0  0
   26.2183   15.0447   12.2334 C   0  0  0  0  0  0  0  0  0  0  0  0
   26.9821   15.5295   13.0580 O   0  0  0  0  0  0  0  0  0  0  0  0
   25.5755   15.7862   11.3134 N   0  0  0  0  0  0  0  0  0  0  0  0
   25.5598   17.2408   11.3763 C   0  0  1  0  0  0  0  0  0  0  0  0
   26.2050   17.8345   10.1175 C   0  0  0  0  0  0  0  0  0  0  0  0
   26.9333   16.7651    9.3210 C   0  0  0  0  0  0  0  0  0  0  0  0
   28.4481   16.8544    9.2825 C   0  0  0  0  0  0  0  0  0  0  0  0
   29.0485   17.1058   10.3515 O   0  0  0  0  0  0  0  0  0  0  0  0
   29.0254   16.6527    8.1839 O   0  0  0  0  0  0  0  0  0  0  0  0
   24.1328   17.7566   11.6156 C   0  0  0  0  0  0  0  0  0  0  0  0
   23.1177   17.0152   11.2655 O   0  0  0  0  0  0  0  0  0  0  0  0
   24.0786   18.8660   12.1628 O   0  0  0  0  0  0  0  0  0  0  0  0
   28.6808    6.5441   10.4511 C   0  0  0  0  0  0  0  0  0  0  0  0
   29.3422    5.9377    9.5794 O   0  0  0  0  0  0  0  0  0  0  0  0
   24.6533    3.9052    5.7048 H   0  0  0  0  0  0  0  0  0  0  0  0
   23.4556    3.4953    6.9618 H   0  0  0  0  0  0  0  0  0  0  0  0
   26.3240    5.3461    6.1059 H   0  0  0  0  0  0  0  0  0  0  0  0
   27.2533    7.7503   12.2016 H   0  0  0  0  0  0  0  0  0  0  0  0
   26.2737    5.6387   12.6418 H   0  0  0  0  0  0  0  0  0  0  0  0
   24.8989    6.8205   12.6182 H   0  0  0  0  0  0  0  0  0  0  0  0
   24.1595    4.9992   11.2570 H   0  0  0  0  0  0  0  0  0  0  0  0
   26.4414    9.1614   10.2182 H   0  0  0  0  0  0  0  0  0  0  0  0
   24.9004    8.2424   10.3910 H   0  0  0  0  0  0  0  0  0  0  0  0
   24.9821    8.9961   12.8462 H   0  0  0  0  0  0  0  0  0  0  0  0
   27.1934   13.1283   13.9566 H   0  0  0  0  0  0  0  0  0  0  0  0
   26.9072   10.6830   13.7751 H   0  0  0  0  0  0  0  0  0  0  0  0
   24.3935   11.2411   10.3083 H   0  0  0  0  0  0  0  0  0  0  0  0
   24.7746   13.6790   10.4393 H   0  0  0  0  0  0  0  0  0  0  0  0
   25.0812   15.3124   10.5439 H   0  0  0  0  0  0  0  0  0  0  0  0
   26.1624   17.5752   12.2336 H   0  0  0  0  0  0  0  0  0  0  0  0
   25.4209   18.2803    9.4878 H   0  0  0  0  0  0  0  0  0  0  0  0
   26.9340   18.5987   10.4253 H   0  0  0  0  0  0  0  0  0  0  0  0
   26.6681   15.7892    9.7537 H   0  0  0  0  0  0  0  0  0  0  0  0
   26.6094   16.9105    8.2798 H   0  0  0  0  0  0  0  0  0  0  0  0
   29.1939    6.9119   11.3519 H   0  0  0  0  0  0  0  0  0  0  0  0
  1  2  2  0
  1 12  1  0
  2  3  1  0
  2  4  1  0
  4  5  1  0
  5  6  2  0
  5  7  1  0
  7  8  1  0
  7 12  2  0
  8  9  1  0
  8 33  1  0
  9 10  1  0
  9 13  1  0
 10 11  1  0
 11 12  1  0
 13 14  1  0
 14 18  1  0
 15 16  2  0
 15 20  1  0
 15 21  1  0
 16 17  1  0
 17 18  2  0
 18 19  1  0
 19 20  2  0
 21 22  2  0
 21 23  1  0
 23 24  1  0
 24 25  1  0
 24 30  1  0
 25 26  1  0
 26 27  1  0
 27 28  2  0
 27 29  1  0
 30 31  2  0
 30 32  1  0
 33 34  2  0
  3 35  1  0
  3 36  1  0
  4 37  1  0
  9 38  1  1
 10 39  1  0
 10 40  1  0
 11 41  1  0
 13 42  1  0
 13 43  1  0
 14 44  1  0
 16 45  1  0
 17 46  1  0
 19 47  1  0
 20 48  1  0
 23 49  1  0
 24 50  1  1
 25 51  1  0
 25 52  1  0
 26 53  1  0
 26 54  1  0
 33 55  1  0
M  CHG  2  29  -1  32  -1
M  END
>  <filename_input>  (21) 
7TH4_FFO_docked.sdf

>  <pdb_id>  (21) 
7TH4_FFO

>  <pose_rank>  (21) 
20

>  <num_atoms_heavy>  (21) 
34

>  <num_torsions>  (21) 
9

>  <pose>  (21) 
[26.000049927391245, 13.554968054309695, 12.206370673191877, 3.699136222497461, -3.9367517577254914, 2.81028259955212, 2.6485118983187337, -0.6443371337792344, -0.012585551010914837, 1.3042588725397763, 1.3480679498327932, 0.3022686020352924, 0.967607920668537, -0.9993835963378422, -1.9573298844299327]

>  <energy>  (21) 
-597.4745020078138

>  <inter_energy>  (21) 
-593.8368584037283

>  <intra_energy>  (21) 
3.5393280557378555

>  <rmsd>  (21) 
3.78265

>  <sdf_rank>  (21) 
0

$$$$

     RDKit          3D

 55 57  0  0  0  0  0  0  0  0999 V2000
   27.2171    5.6169    6.6633 N   0  0  0  0  0  0  0  0  0  0  0  0
   28.3801    5.4747    7.2601 C   0  0  0  0  0  0  0  0  0  0  0  0
   29.4732    5.0899    6.5814 N   0  0  0  0  0  0  0  0  0  0  0  0
   28.5604    5.8414    8.5748 N   0  0  0  0  0  0  0  0  0  0  0  0
   27.5230    6.2352    9.3880 C   0  0  0  0  0  0  0  0  0  0  0  0
   27.7969    6.5867   10.5629 O   0  0  0  0  0  0  0  0  0  0  0  0
   26.2632    6.2779    8.7890 C   0  0  0  0  0  0  0  0  0  0  0  0
   25.0529    6.6288    9.4578 N   0  0  0  0  0  0  0  0  0  0  0  0
   24.0519    7.3968    8.6872 C   0  0  2  0  0  0  0  0  0  0  0  0
   23.7502    6.6338    7.4012 C   0  0  0  0  0  0  0  0  0  0  0  0
   24.9677    6.1495    6.7638 N   0  0  0  0  0  0  0  0  0  0  0  0
   26.1485    6.0208    7.3871 C   0  0  0  0  0  0  0  0  0  0  0  0
   24.5510    8.8102    8.4226 C   0  0  0  0  0  0  0  0  0  0  0  0
   23.7926    9.7725    9.2162 N   0  0  0  0  0  0  0  0  0  0  0  0
   25.1139   13.6299   10.0221 C   0  0  0  0  0  0  0  0  0  0  0  0
   25.9365   12.5294   10.2467 C   0  0  0  0  0  0  0  0  0  0  0  0
   25.5002   11.2647    9.9517 C   0  0  0  0  0  0  0  0  0  0  0  0
   24.2042   11.0740    9.4733 C   0  0  0  0  0  0  0  0  0  0  0  0
   23.3818   12.1675    9.2360 C   0  0  0  0  0  0  0  0  0  0  0  0
   23.8420   13.4331    9.5066 C   0  0  0  0  0  0  0  0  0  0  0  0
   25.5786   15.0389   10.2798 C   0  0  0  0  0  0  0  0  0  0  0  0
   26.6879   15.3895    9.8989 O   0  0  0  0  0  0  0  0  0  0  0  0
   24.7261   15.8731   10.9017 N   0  0  0  0  0  0  0  0  0  0  0  0
   25.1452   17.1854   11.3734 C   0  0  1  0  0  0  0  0  0  0  0  0
   24.0878   18.2396   11.0215 C   0  0  0  0  0  0  0  0  0  0  0  0
   22.7786   17.9611   11.7404 C   0  0  0  0  0  0  0  0  0  0  0  0
   21.7037   19.0283   11.6408 C   0  0  0  0  0  0  0  0  0  0  0  0
   21.9117   20.0017   10.8821 O   0  0  0  0  0  0  0  0  0  0  0  0
   20.6505   18.8721   12.3097 O   0  0  0  0  0  0  0  0  0  0  0  0
   25.4691   17.1426   12.8744 C   0  0  0  0  0  0  0  0  0  0  0  0
   24.7885   16.3469   13.6531 O   0  0  0  0  0  0  0  0  0  0  0  0
   26.4014   17.8832   13.2143 O   0  0  0  0  0  0  0  0  0  0  0  0
   24.7024    6.0080   10.6077 C   0  0  0  0  0  0  0  0  0  0  0  0
   25.5007    5.2737   11.2310 O   0  0  0  0  0  0  0  0  0  0  0  0
   30.3733    4.9855    7.0712 H   0  0  0  0  0  0  0  0  0  0  0  0
   29.4115    4.8991    5.5711 H   0  0  0  0  0  0  0  0  0  0  0  0
   29.5128    5.8199    8.9663 H   0  0  0  0  0  0  0  0  0  0  0  0
   23.1187    7.5022    9.2600 H   0  0  0  0  0  0  0  0  0  0  0  0
   23.1064    5.7743    7.6393 H   0  0  0  0  0  0  0  0  0  0  0  0
   23.2484    7.3211    6.7042 H   0  0  0  0  0  0  0  0  0  0  0  0
   24.9184    5.8887    5.7686 H   0  0  0  0  0  0  0  0  0  0  0  0
   25.6153    8.8757    8.6929 H   0  0  0  0  0  0  0  0  0  0  0  0
   24.4181    9.0427    7.3557 H   0  0  0  0  0  0  0  0  0  0  0  0
   22.8923    9.4660    9.6118 H   0  0  0  0  0  0  0  0  0  0  0  0
   26.9436   12.6763   10.6640 H   0  0  0  0  0  0  0  0  0  0  0  0
   26.1695   10.4031   10.0916 H   0  0  0  0  0  0  0  0  0  0  0  0
   22.3684   12.0212    8.8339 H   0  0  0  0  0  0  0  0  0  0  0  0
   23.1940   14.3005    9.3120 H   0  0  0  0  0  0  0  0  0  0  0  0
   23.7509   15.5757   11.0481 H   0  0  0  0  0  0  0  0  0  0  0  0
   26.0730   17.4782   10.8603 H   0  0  0  0  0  0  0  0  0  0  0  0
   24.4571   19.2322   11.3189 H   0  0  0  0  0  0  0  0  0  0  0  0
   23.9059   18.2042    9.9372 H   0  0  0  0  0  0  0  0  0  0  0  0
   22.3631   17.0303   11.3269 H   0  0  0  0  0  0  0  0  0  0  0  0
   23.0402   17.9142   12.8079 H   0  0  0  0  0  0  0  0  0  0  0  0
   23.6872    6.1529   11.0057 H   0  0  0  0  0  0  0  0  0  0  0  0
  1  2  2  0
  1 12  1  0
  2  3  1  0
  2  4  1  0
  4  5  1  0
  5  6  2  0
  5  7  1  0
  7  8  1  0
  7 12  2  0
  8  9  1  0
  8 33  1  0
  9 10  1  0
  9 13  1  0
 10 11  1  0
 11 12  1  0
 13 14  1  0
 14 18  1  0
 15 16  2  0
 15 20  1  0
 15 21  1  0
 16 17  1  0
 17 18  2  0
 18 19  1  0
 19 20  2  0
 21 22  2  0
 21 23  1  0
 23 24  1  0
 24 25  1  0
 24 30  1  0
 25 26  1  0
 26 27  1  0
 27 28  2  0
 27 29  1  0
 30 31  2  0
 30 32  1  0
 33 34  2  0
  3 35  1  0
  3 36  1  0
  4 37  1  0
  9 38  1  1
 10 39  1  0
 10 40  1  0
 11 41  1  0
 13 42  1  0
 13 43  1  0
 14 44  1  0
 16 45  1  0
 17 46  1  0
 19 47  1  0
 20 48  1  0
 23 49  1  0
 24 50  1  6
 25 51  1  0
 25 52  1  0
 26 53  1  0
 26 54  1  0
 33 55  1  0
M  CHG  2  29  -1  32  -1
M  END
>  <filename_input>  (22) 
7TH4_FFO_docked.sdf

>  <pdb_id>  (22) 
7TH4_FFO

>  <pose_rank>  (22) 
21

>  <num_atoms_heavy>  (22) 
34

>  <num_torsions>  (22) 
9

>  <pose>  (22) 
[25.113881886155387, 13.629933849425866, 10.022084572434174, -1.157661311679211, -5.31068072162862, 1.0531469661895916, -2.9115705469415434, 5.930649033568982, -0.17576982648099088, 2.633251048125806, 0.0022762117241372642, -0.3483832448249747, -16.68031761898385, -6.750896892090031, 5.23304496190443]

>  <energy>  (22) 
-628.6229516441908

>  <inter_energy>  (22) 
-629.1242680726396

>  <intra_energy>  (22) 
4.56477536544402

>  <rmsd>  (22) 
3.10853

>  <sdf_rank>  (22) 
0

$$$$

     RDKit          3D

 55 57  0  0  0  0  0  0  0  0999 V2000
   27.1940    5.5431    5.7579 N   0  0  0  0  0  0  0  0  0  0  0  0
   28.4822    5.4772    6.0129 C   0  0  0  0  0  0  0  0  0  0  0  0
   29.3893    5.4107    5.0247 N   0  0  0  0  0  0  0  0  0  0  0  0
   28.9666    5.6079    7.2950 N   0  0  0  0  0  0  0  0  0  0  0  0
   28.1479    5.6661    8.3990 C   0  0  0  0  0  0  0  0  0  0  0  0
   28.6862    5.8242    9.5233 O   0  0  0  0  0  0  0  0  0  0  0  0
   26.7768    5.6206    8.1424 C   0  0  0  0  0  0  0  0  0  0  0  0
   25.7584    5.6373    9.1414 N   0  0  0  0  0  0  0  0  0  0  0  0
   24.5128    6.3685    8.8259 C   0  0  2  0  0  0  0  0  0  0  0  0
   23.9618    5.8290    7.5097 C   0  0  0  0  0  0  0  0  0  0  0  0
   25.0095    5.6783    6.5084 N   0  0  0  0  0  0  0  0  0  0  0  0
   26.3205    5.6232    6.7873 C   0  0  0  0  0  0  0  0  0  0  0  0
   24.7709    7.8679    8.7786 C   0  0  0  0  0  0  0  0  0  0  0  0
   25.9458    8.2053    9.5765 N   0  0  0  0  0  0  0  0  0  0  0  0
   25.8861    9.2183   13.6071 C   0  0  0  0  0  0  0  0  0  0  0  0
   26.6642    8.1599   13.1459 C   0  0  0  0  0  0  0  0  0  0  0  0
   26.6973    7.8524   11.8114 C   0  0  0  0  0  0  0  0  0  0  0  0
   25.9050    8.5704   10.9161 C   0  0  0  0  0  0  0  0  0  0  0  0
   25.1349    9.6346   11.3668 C   0  0  0  0  0  0  0  0  0  0  0  0
   25.1343    9.9528   12.7030 C   0  0  0  0  0  0  0  0  0  0  0  0
   25.8684    9.6225   15.0577 C   0  0  0  0  0  0  0  0  0  0  0  0
   25.1263   10.5238   15.4257 O   0  0  0  0  0  0  0  0  0  0  0  0
   26.6615    8.9419   15.9046 N   0  0  0  0  0  0  0  0  0  0  0  0
   26.8682    9.3779   17.2784 C   0  0  1  0  0  0  0  0  0  0  0  0
   26.9299    8.1664   18.2173 C   0  0  0  0  0  0  0  0  0  0  0  0
   27.2765    6.9000   17.4526 C   0  0  0  0  0  0  0  0  0  0  0  0
   28.6778    6.3484   17.6434 C   0  0  0  0  0  0  0  0  0  0  0  0
   29.0429    6.0632   18.8061 O   0  0  0  0  0  0  0  0  0  0  0  0
   29.3947    6.1873   16.6231 O   0  0  0  0  0  0  0  0  0  0  0  0
   28.1107   10.2756   17.3799 C   0  0  0  0  0  0  0  0  0  0  0  0
   28.0219   11.4232   17.9945 O   0  0  0  0  0  0  0  0  0  0  0  0
   29.1290    9.7937   16.8661 O   0  0  0  0  0  0  0  0  0  0  0  0
   25.7948    4.7586   10.1696 C   0  0  0  0  0  0  0  0  0  0  0  0
   26.8034    4.0559   10.4016 O   0  0  0  0  0  0  0  0  0  0  0  0
   30.3932    5.3598    5.2497 H   0  0  0  0  0  0  0  0  0  0  0  0
   29.0812    5.4107    4.0419 H   0  0  0  0  0  0  0  0  0  0  0  0
   29.9857    5.6646    7.4335 H   0  0  0  0  0  0  0  0  0  0  0  0
   23.7603    6.2105    9.6126 H   0  0  0  0  0  0  0  0  0  0  0  0
   23.4994    4.8478    7.6923 H   0  0  0  0  0  0  0  0  0  0  0  0
   23.2225    6.5480    7.1270 H   0  0  0  0  0  0  0  0  0  0  0  0
   24.7247    5.6095    5.5210 H   0  0  0  0  0  0  0  0  0  0  0  0
   24.9404    8.1741    7.7358 H   0  0  0  0  0  0  0  0  0  0  0  0
   23.8966    8.3945    9.1888 H   0  0  0  0  0  0  0  0  0  0  0  0
   26.8662    8.1704    9.1156 H   0  0  0  0  0  0  0  0  0  0  0  0
   27.2565    7.5665   13.8580 H   0  0  0  0  0  0  0  0  0  0  0  0
   27.3463    7.0423   11.4473 H   0  0  0  0  0  0  0  0  0  0  0  0
   24.5293   10.2189   10.6583 H   0  0  0  0  0  0  0  0  0  0  0  0
   24.5304   10.8001   13.0599 H   0  0  0  0  0  0  0  0  0  0  0  0
   27.1350    8.0897   15.5725 H   0  0  0  0  0  0  0  0  0  0  0  0
   26.0121    9.9893   17.5997 H   0  0  0  0  0  0  0  0  0  0  0  0
   27.6979    8.3447   18.9843 H   0  0  0  0  0  0  0  0  0  0  0  0
   25.9422    8.0343   18.6833 H   0  0  0  0  0  0  0  0  0  0  0  0
   26.5663    6.1192   17.7622 H   0  0  0  0  0  0  0  0  0  0  0  0
   27.2190    7.1799   16.3904 H   0  0  0  0  0  0  0  0  0  0  0  0
   24.9129    4.6594   10.8195 H   0  0  0  0  0  0  0  0  0  0  0  0
  1  2  2  0
  1 12  1  0
  2  3  1  0
  2  4  1  0
  4  5  1  0
  5  6  2  0
  5  7  1  0
  7  8  1  0
  7 12  2  0
  8  9  1  0
  8 33  1  0
  9 10  1  0
  9 13  1  0
 10 11  1  0
 11 12  1  0
 13 14  1  0
 14 18  1  0
 15 16  2  0
 15 20  1  0
 15 21  1  0
 16 17  1  0
 17 18  2  0
 18 19  1  0
 19 20  2  0
 21 22  2  0
 21 23  1  0
 23 24  1  0
 24 25  1  0
 24 30  1  0
 25 26  1  0
 26 27  1  0
 27 28  2  0
 27 29  1  0
 30 31  2  0
 30 32  1  0
 33 34  2  0
  3 35  1  0
  3 36  1  0
  4 37  1  0
  9 38  1  1
 10 39  1  0
 10 40  1  0
 11 41  1  0
 13 42  1  0
 13 43  1  0
 14 44  1  0
 16 45  1  0
 17 46  1  0
 19 47  1  0
 20 48  1  0
 23 49  1  0
 24 50  1  1
 25 51  1  0
 25 52  1  0
 26 53  1  0
 26 54  1  0
 33 55  1  0
M  CHG  2  29  -1  32  -1
M  END
>  <filename_input>  (23) 
7TH4_FFO_docked.sdf

>  <pdb_id>  (23) 
7TH4_FFO

>  <pose_rank>  (23) 
22

>  <num_atoms_heavy>  (23) 
34

>  <num_torsions>  (23) 
9

>  <pose>  (23) 
[25.88605754103665, 9.218268161311753, 13.607141079717884, 1.1507655517192208, 0.1137055022865214, 0.1812907580010905, -0.5038976710405509, -0.2538953788840573, 2.6825208100982025, 1.8855736775505696, -1.1321216483777332, 0.5457462931457071, -1.0489378797879845, 1.3691228613282602, -5.846035174468552]

>  <energy>  (23) 
-615.0117754667527

>  <inter_energy>  (23) 
-627.0291799114933

>  <intra_energy>  (23) 
17.619511905418587

>  <rmsd>  (23) 
5.58025

>  <sdf_rank>  (23) 
0

$$$$

     RDKit          3D

 55 57  0  0  0  0  0  0  0  0999 V2000
   28.3834   17.3588   10.7648 N   0  0  0  0  0  0  0  0  0  0  0  0
   28.3983   17.1204    9.4718 C   0  0  0  0  0  0  0  0  0  0  0  0
   29.2320   17.7764    8.6482 N   0  0  0  0  0  0  0  0  0  0  0  0
   27.6583   16.0972    8.9232 N   0  0  0  0  0  0  0  0  0  0  0  0
   26.7526   15.3594    9.6498 C   0  0  0  0  0  0  0  0  0  0  0  0
   26.1542   14.4214    9.0658 O   0  0  0  0  0  0  0  0  0  0  0  0
   26.6484   15.6857   11.0028 C   0  0  0  0  0  0  0  0  0  0  0  0
   25.7527   15.0673   11.9249 N   0  0  0  0  0  0  0  0  0  0  0  0
   26.2361   14.8678   13.3078 C   0  0  2  0  0  0  0  0  0  0  0  0
   26.7134   16.2129   13.8463 C   0  0  0  0  0  0  0  0  0  0  0  0
   27.5263   16.9263   12.8700 N   0  0  0  0  0  0  0  0  0  0  0  0
   27.5356   16.6617   11.5550 C   0  0  0  0  0  0  0  0  0  0  0  0
   27.3257   13.8055   13.3448 C   0  0  0  0  0  0  0  0  0  0  0  0
   26.7794   12.5351   13.8122 N   0  0  0  0  0  0  0  0  0  0  0  0
   26.5005    9.1163   11.4651 C   0  0  0  0  0  0  0  0  0  0  0  0
   25.6224   10.1817   11.2860 C   0  0  0  0  0  0  0  0  0  0  0  0
   25.7410   11.3147   12.0470 C   0  0  0  0  0  0  0  0  0  0  0  0
   26.7141   11.3798   13.0438 C   0  0  0  0  0  0  0  0  0  0  0  0
   27.6008   10.3258   13.2210 C   0  0  0  0  0  0  0  0  0  0  0  0
   27.4912    9.2077   12.4306 C   0  0  0  0  0  0  0  0  0  0  0  0
   26.4378    7.8785   10.6097 C   0  0  0  0  0  0  0  0  0  0  0  0
   26.5969    6.7790   11.1237 O   0  0  0  0  0  0  0  0  0  0  0  0
   26.1748    8.0379    9.3001 N   0  0  0  0  0  0  0  0  0  0  0  0
   26.2885    6.9353    8.3560 C   0  0  1  0  0  0  0  0  0  0  0  0
   25.2097    7.0505    7.2714 C   0  0  0  0  0  0  0  0  0  0  0  0
   24.0205    6.1593    7.5874 C   0  0  0  0  0  0  0  0  0  0  0  0
   24.2731    4.6625    7.6029 C   0  0  0  0  0  0  0  0  0  0  0  0
   24.4752    4.1129    8.7090 O   0  0  0  0  0  0  0  0  0  0  0  0
   24.2477    4.0464    6.5071 O   0  0  0  0  0  0  0  0  0  0  0  0
   27.7101    6.8620    7.7785 C   0  0  0  0  0  0  0  0  0  0  0  0
   28.4831    5.8635    8.1070 O   0  0  0  0  0  0  0  0  0  0  0  0
   27.9921    7.7861    7.0040 O   0  0  0  0  0  0  0  0  0  0  0  0
   24.4325   14.9804   11.6420 C   0  0  0  0  0  0  0  0  0  0  0  0
   23.9834   15.2374   10.5029 O   0  0  0  0  0  0  0  0  0  0  0  0
   29.2251   17.5721    7.6387 H   0  0  0  0  0  0  0  0  0  0  0  0
   29.8784   18.4837    9.0261 H   0  0  0  0  0  0  0  0  0  0  0  0
   27.7885   15.8745    7.9260 H   0  0  0  0  0  0  0  0  0  0  0  0
   25.4249   14.4992   13.9529 H   0  0  0  0  0  0  0  0  0  0  0  0
   25.8365   16.8277   14.0975 H   0  0  0  0  0  0  0  0  0  0  0  0
   27.3318   16.0259   14.7365 H   0  0  0  0  0  0  0  0  0  0  0  0
   28.1342   17.6841   13.2123 H   0  0  0  0  0  0  0  0  0  0  0  0
   27.7377   13.6731   12.3335 H   0  0  0  0  0  0  0  0  0  0  0  0
   28.1181   14.1299   14.0353 H   0  0  0  0  0  0  0  0  0  0  0  0
   26.4183   12.4926   14.7759 H   0  0  0  0  0  0  0  0  0  0  0  0
   24.8279   10.1134   10.5283 H   0  0  0  0  0  0  0  0  0  0  0  0
   25.0714   12.1698   11.8723 H   0  0  0  0  0  0  0  0  0  0  0  0
   28.3857   10.3859   13.9893 H   0  0  0  0  0  0  0  0  0  0  0  0
   28.1977    8.3754   12.5652 H   0  0  0  0  0  0  0  0  0  0  0  0
   25.8852    8.9646    8.9562 H   0  0  0  0  0  0  0  0  0  0  0  0
   26.1140    5.9852    8.8821 H   0  0  0  0  0  0  0  0  0  0  0  0
   24.8702    8.0951    7.2116 H   0  0  0  0  0  0  0  0  0  0  0  0
   25.6423    6.7295    6.3123 H   0  0  0  0  0  0  0  0  0  0  0  0
   23.6459    6.4440    8.5817 H   0  0  0  0  0  0  0  0  0  0  0  0
   23.3103    6.3233    6.7635 H   0  0  0  0  0  0  0  0  0  0  0  0
   23.7345   14.6754   12.4356 H   0  0  0  0  0  0  0  0  0  0  0  0
  1  2  2  0
  1 12  1  0
  2  3  1  0
  2  4  1  0
  4  5  1  0
  5  6  2  0
  5  7  1  0
  7  8  1  0
  7 12  2  0
  8  9  1  0
  8 33  1  0
  9 10  1  0
  9 13  1  0
 10 11  1  0
 11 12  1  0
 13 14  1  0
 14 18  1  0
 15 16  2  0
 15 20  1  0
 15 21  1  0
 16 17  1  0
 17 18  2  0
 18 19  1  0
 19 20  2  0
 21 22  2  0
 21 23  1  0
 23 24  1  0
 24 25  1  0
 24 30  1  0
 25 26  1  0
 26 27  1  0
 27 28  2  0
 27 29  1  0
 30 31  2  0
 30 32  1  0
 33 34  2  0
  3 35  1  0
  3 36  1  0
  4 37  1  0
  9 38  1  1
 10 39  1  0
 10 40  1  0
 11 41  1  0
 13 42  1  0
 13 43  1  0
 14 44  1  0
 16 45  1  0
 17 46  1  0
 19 47  1  0
 20 48  1  0
 23 49  1  0
 24 50  1  1
 25 51  1  0
 25 52  1  0
 26 53  1  0
 26 54  1  0
 33 55  1  0
M  CHG  2  29  -1  32  -1
M  END
>  <filename_input>  (24) 
7TH4_FFO_docked.sdf

>  <pdb_id>  (24) 
7TH4_FFO

>  <pose_rank>  (24) 
23

>  <num_atoms_heavy>  (24) 
34

>  <num_torsions>  (24) 
9

>  <pose>  (24) 
[26.50048008971263, 9.1162581231228, 11.46513590433801, 2.6417963892177125, 0.7249524833970333, -2.1587825746624234, 0.1482679641762838, -0.1993449932647582, 2.3459422828223047, -0.1952240363265268, 2.1651098844432823, 1.2427180371454931, 1.734525133660771, -1.2853285365171445, -0.9128560141032247]

>  <energy>  (24) 
-597.4564540741727

>  <inter_energy>  (24) 
-601.0053394845122

>  <intra_energy>  (24) 
1.7045232888666906

>  <rmsd>  (24) 
10.0602

>  <sdf_rank>  (24) 
0

$$$$

     RDKit          3D

 55 57  0  0  0  0  0  0  0  0999 V2000
   28.3486    4.9050    9.6219 N   0  0  0  0  0  0  0  0  0  0  0  0
   28.2135    5.0060   10.9259 C   0  0  0  0  0  0  0  0  0  0  0  0
   29.2705    4.9122   11.7490 N   0  0  0  0  0  0  0  0  0  0  0  0
   27.0075    5.3449   11.4973 N   0  0  0  0  0  0  0  0  0  0  0  0
   25.8436    5.4541   10.7722 C   0  0  0  0  0  0  0  0  0  0  0  0
   24.8020    5.8060   11.3807 O   0  0  0  0  0  0  0  0  0  0  0  0
   25.9595    5.2342    9.3989 C   0  0  0  0  0  0  0  0  0  0  0  0
   24.8754    5.2687    8.4723 N   0  0  0  0  0  0  0  0  0  0  0  0
   25.1505    5.8211    7.1288 C   0  0  2  0  0  0  0  0  0  0  0  0
   26.3370    5.0677    6.5358 C   0  0  0  0  0  0  0  0  0  0  0  0
   27.4110    4.9038    7.5067 N   0  0  0  0  0  0  0  0  0  0  0  0
   27.2556    5.0209    8.8339 C   0  0  0  0  0  0  0  0  0  0  0  0
   25.3936    7.3216    7.2077 C   0  0  0  0  0  0  0  0  0  0  0  0
   24.4056    7.9500    8.0795 N   0  0  0  0  0  0  0  0  0  0  0  0
   25.0629   11.4661   10.1961 C   0  0  0  0  0  0  0  0  0  0  0  0
   25.5783   10.2530   10.6446 C   0  0  0  0  0  0  0  0  0  0  0  0
   25.3785    9.1050    9.9243 C   0  0  0  0  0  0  0  0  0  0  0  0
   24.6085    9.1426    8.7622 C   0  0  0  0  0  0  0  0  0  0  0  0
   24.1005   10.3506    8.3025 C   0  0  0  0  0  0  0  0  0  0  0  0
   24.3341   11.5000    9.0172 C   0  0  0  0  0  0  0  0  0  0  0  0
   25.3100   12.7578   10.9298 C   0  0  0  0  0  0  0  0  0  0  0  0
   26.4485   13.2008   11.0084 O   0  0  0  0  0  0  0  0  0  0  0  0
   24.2447   13.3939   11.4493 N   0  0  0  0  0  0  0  0  0  0  0  0
   24.3935   14.5352   12.3410 C   0  0  1  0  0  0  0  0  0  0  0  0
   25.3427   14.1882   13.4951 C   0  0  0  0  0  0  0  0  0  0  0  0
   24.6301   13.3751   14.5625 C   0  0  0  0  0  0  0  0  0  0  0  0
   25.2291   12.0231   14.9053 C   0  0  0  0  0  0  0  0  0  0  0  0
   25.4180   11.7541   16.1130 O   0  0  0  0  0  0  0  0  0  0  0  0
   25.4877   11.2336   13.9615 O   0  0  0  0  0  0  0  0  0  0  0  0
   24.8366   15.7799   11.5574 C   0  0  0  0  0  0  0  0  0  0  0  0
   25.7028   16.5969   12.0912 O   0  0  0  0  0  0  0  0  0  0  0  0
   24.3245   15.8824   10.4347 O   0  0  0  0  0  0  0  0  0  0  0  0
   23.7618    4.5333    8.6952 C   0  0  0  0  0  0  0  0  0  0  0  0
   23.5494    3.9739    9.7939 O   0  0  0  0  0  0  0  0  0  0  0  0
   29.1393    4.9947   12.7673 H   0  0  0  0  0  0  0  0  0  0  0  0
   30.2125    4.7579   11.3620 H   0  0  0  0  0  0  0  0  0  0  0  0
   26.9755    5.5244   12.5110 H   0  0  0  0  0  0  0  0  0  0  0  0
   24.2819    5.6844    6.4678 H   0  0  0  0  0  0  0  0  0  0  0  0
   25.9996    4.0739    6.2063 H   0  0  0  0  0  0  0  0  0  0  0  0
   26.7262    5.6525    5.6893 H   0  0  0  0  0  0  0  0  0  0  0  0
   28.3519    4.6835    7.1503 H   0  0  0  0  0  0  0  0  0  0  0  0
   26.4010    7.5053    7.6094 H   0  0  0  0  0  0  0  0  0  0  0  0
   25.3058    7.7518    6.1991 H   0  0  0  0  0  0  0  0  0  0  0  0
   23.4978    7.4777    8.1961 H   0  0  0  0  0  0  0  0  0  0  0  0
   26.1499   10.2161   11.5837 H   0  0  0  0  0  0  0  0  0  0  0  0
   25.8236    8.1572   10.2612 H   0  0  0  0  0  0  0  0  0  0  0  0
   23.5149   10.3866    7.3720 H   0  0  0  0  0  0  0  0  0  0  0  0
   23.9384   12.4585    8.6500 H   0  0  0  0  0  0  0  0  0  0  0  0
   23.2985   13.0648   11.2099 H   0  0  0  0  0  0  0  0  0  0  0  0
   23.4186   14.7772   12.7895 H   0  0  0  0  0  0  0  0  0  0  0  0
   26.1876   13.6036   13.1022 H   0  0  0  0  0  0  0  0  0  0  0  0
   25.6990   15.1249   13.9486 H   0  0  0  0  0  0  0  0  0  0  0  0
   24.6149   13.9758   15.4839 H   0  0  0  0  0  0  0  0  0  0  0  0
   23.6385   13.1527   14.1415 H   0  0  0  0  0  0  0  0  0  0  0  0
   23.0226    4.4241    7.8880 H   0  0  0  0  0  0  0  0  0  0  0  0
  1  2  2  0
  1 12  1  0
  2  3  1  0
  2  4  1  0
  4  5  1  0
  5  6  2  0
  5  7  1  0
  7  8  1  0
  7 12  2  0
  8  9  1  0
  8 33  1  0
  9 10  1  0
  9 13  1  0
 10 11  1  0
 11 12  1  0
 13 14  1  0
 14 18  1  0
 15 16  2  0
 15 20  1  0
 15 21  1  0
 16 17  1  0
 17 18  2  0
 18 19  1  0
 19 20  2  0
 21 22  2  0
 21 23  1  0
 23 24  1  0
 24 25  1  0
 24 30  1  0
 25 26  1  0
 26 27  1  0
 27 28  2  0
 27 29  1  0
 30 31  2  0
 30 32  1  0
 33 34  2  0
  3 35  1  0
  3 36  1  0
  4 37  1  0
  9 38  1  6
 10 39  1  0
 10 40  1  0
 11 41  1  0
 13 42  1  0
 13 43  1  0
 14 44  1  0
 16 45  1  0
 17 46  1  0
 19 47  1  0
 20 48  1  0
 23 49  1  0
 24 50  1  1
 25 51  1  0
 25 52  1  0
 26 53  1  0
 26 54  1  0
 33 55  1  0
M  CHG  2  29  -1  32  -1
M  END
>  <filename_input>  (25) 
7TH4_FFO_docked.sdf

>  <pdb_id>  (25) 
7TH4_FFO

>  <pose_rank>  (25) 
24

>  <num_atoms_heavy>  (25) 
34

>  <num_torsions>  (25) 
9

>  <pose>  (25) 
[25.062895781902327, 11.466100518531798, 10.196147704896024, -5.537127506023995, -1.445591271744364, 1.370447639776058, -2.5636585202409337, -3.6385321697416697, -2.0540501400974067, 6.4155117919963685, -0.847512356201876, 1.8154793912527791, -4.60431912934863, -0.6092656731370929, 0.0846891664442711]

>  <energy>  (25) 
-621.4658199146124

>  <inter_energy>  (25) 
-648.2361101650572

>  <intra_energy>  (25) 
30.701386960813224

>  <rmsd>  (25) 
2.93249

>  <sdf_rank>  (25) 
0

$$$$

     RDKit          3D

 55 57  0  0  0  0  0  0  0  0999 V2000
   27.2830    5.0760    6.1530 N   0  0  0  0  0  0  0  0  0  0  0  0
   28.5240    5.1910    6.5720 C   0  0  0  0  0  0  0  0  0  0  0  0
   29.5600    5.1240    5.7200 N   0  0  0  0  0  0  0  0  0  0  0  0
   28.8120    5.5180    7.8780 N   0  0  0  0  0  0  0  0  0  0  0  0
   27.8480    5.6000    8.8560 C   0  0  0  0  0  0  0  0  0  0  0  0
   28.2080    5.9430   10.0100 O   0  0  0  0  0  0  0  0  0  0  0  0
   26.5370    5.3650    8.4390 C   0  0  0  0  0  0  0  0  0  0  0  0
   25.3950    5.3710    9.2940 N   0  0  0  0  0  0  0  0  0  0  0  0
   24.1360    5.9110    8.7380 C   0  0  2  0  0  0  0  0  0  0  0  0
   23.8290    5.1690    7.4410 C   0  0  0  0  0  0  0  0  0  0  0  0
   25.0140    5.0340    6.6040 N   0  0  0  0  0  0  0  0  0  0  0  0
   26.2730    5.1650    7.0480 C   0  0  0  0  0  0  0  0  0  0  0  0
   24.2430    7.4160    8.5370 C   0  0  0  0  0  0  0  0  0  0  0  0
   24.7610    8.0530    9.7440 N   0  0  0  0  0  0  0  0  0  0  0  0
   24.9200   12.1450   10.4550 C   0  0  0  0  0  0  0  0  0  0  0  0
   25.4680   11.2390   11.3590 C   0  0  0  0  0  0  0  0  0  0  0  0
   25.4340    9.8940   11.1010 C   0  0  0  0  0  0  0  0  0  0  0  0
   24.7990    9.4260    9.9510 C   0  0  0  0  0  0  0  0  0  0  0  0
   24.2600   10.3240    9.0390 C   0  0  0  0  0  0  0  0  0  0  0  0
   24.3280   11.6720    9.2940 C   0  0  0  0  0  0  0  0  0  0  0  0
   24.9890   13.6330   10.6760 C   0  0  0  0  0  0  0  0  0  0  0  0
   24.0830   14.3480   10.2680 O   0  0  0  0  0  0  0  0  0  0  0  0
   26.0480   14.1150   11.3510 N   0  0  0  0  0  0  0  0  0  0  0  0
   26.3110   15.5440   11.4450 C   0  0  1  0  0  0  0  0  0  0  0  0
   27.1600   15.8480   12.6860 C   0  0  0  0  0  0  0  0  0  0  0  0
   26.2840   16.0490   13.9110 C   0  0  0  0  0  0  0  0  0  0  0  0
   26.9940   16.1610   15.2480 C   0  0  0  0  0  0  0  0  0  0  0  0
   28.1730   16.5810   15.2530 O   0  0  0  0  0  0  0  0  0  0  0  0
   26.3570   15.8450   16.2850 O   0  0  0  0  0  0  0  0  0  0  0  0
   26.9450   16.0640   10.1460 C   0  0  0  0  0  0  0  0  0  0  0  0
   27.5840   15.2330    9.3690 O   0  0  0  0  0  0  0  0  0  0  0  0
   26.7620   17.2710    9.9390 O   0  0  0  0  0  0  0  0  0  0  0  0
   25.3800    4.6210   10.4200 C   0  0  0  0  0  0  0  0  0  0  0  0
   26.4140    4.0720   10.8610 O   0  0  0  0  0  0  0  0  0  0  0  0
   30.5234    5.2170    6.0723 H   0  0  0  0  0  0  0  0  0  0  0  0
   29.3912    4.9797    4.7142 H   0  0  0  0  0  0  0  0  0  0  0  0
   29.7912    5.7095    8.1338 H   0  0  0  0  0  0  0  0  0  0  0  0
   23.3030    5.7525    9.4387 H   0  0  0  0  0  0  0  0  0  0  0  0
   23.4490    4.1661    7.6854 H   0  0  0  0  0  0  0  0  0  0  0  0
   23.0794    5.7493    6.8831 H   0  0  0  0  0  0  0  0  0  0  0  0
   24.8758    4.8241    5.6051 H   0  0  0  0  0  0  0  0  0  0  0  0
   24.9230    7.6225    7.6974 H   0  0  0  0  0  0  0  0  0  0  0  0
   23.2431    7.8199    8.3203 H   0  0  0  0  0  0  0  0  0  0  0  0
   25.1223    7.4439   10.4919 H   0  0  0  0  0  0  0  0  0  0  0  0
   25.9315   11.6057   12.2868 H   0  0  0  0  0  0  0  0  0  0  0  0
   25.9057    9.1859   11.7982 H   0  0  0  0  0  0  0  0  0  0  0  0
   23.7817    9.9582    8.1184 H   0  0  0  0  0  0  0  0  0  0  0  0
   23.9079   12.3844    8.5687 H   0  0  0  0  0  0  0  0  0  0  0  0
   26.6899   13.4556   11.8137 H   0  0  0  0  0  0  0  0  0  0  0  0
   25.3597   16.0826   11.5676 H   0  0  0  0  0  0  0  0  0  0  0  0
   27.8448   15.0066   12.8679 H   0  0  0  0  0  0  0  0  0  0  0  0
   27.7256   16.7739   12.5047 H   0  0  0  0  0  0  0  0  0  0  0  0
   25.7089   16.9746   13.7608 H   0  0  0  0  0  0  0  0  0  0  0  0
   25.6755   15.1355   13.9833 H   0  0  0  0  0  0  0  0  0  0  0  0
   24.4322    4.4903   10.9628 H   0  0  0  0  0  0  0  0  0  0  0  0
  1  2  2  0
  1 12  1  0
  2  3  1  0
  2  4  1  0
  4  5  1  0
  5  6  2  0
  5  7  1  0
  7  8  1  0
  7 12  2  0
  8  9  1  0
  8 33  1  0
  9 10  1  0
  9 13  1  0
 10 11  1  0
 11 12  1  0
 13 14  1  0
 14 18  1  0
 15 16  2  0
 15 20  1  0
 15 21  1  0
 16 17  1  0
 17 18  2  0
 18 19  1  0
 19 20  2  0
 21 22  2  0
 21 23  1  0
 23 24  1  0
 24 25  1  0
 24 30  1  0
 25 26  1  0
 26 27  1  0
 27 28  2  0
 27 29  1  0
 30 31  2  0
 30 32  1  0
 33 34  2  0
  3 35  1  0
  3 36  1  0
  4 37  1  0
  9 38  1  1
 10 39  1  0
 10 40  1  0
 11 41  1  0
 13 42  1  0
 13 43  1  0
 14 44  1  0
 16 45  1  0
 17 46  1  0
 19 47  1  0
 20 48  1  0
 23 49  1  0
 24 50  1  1
 25 51  1  0
 25 52  1  0
 26 53  1  0
 26 54  1  0
 33 55  1  0
M  CHG  2  29  -1  32  -1
M  END
>  <filename_input>  (26) 
7TH4_FFO_docked.sdf

>  <pdb_id>  (26) 
7TH4_FFO

>  <pose_rank>  (26) 
25

>  <num_atoms_heavy>  (26) 
34

>  <num_torsions>  (26) 
9

>  <pose>  (26) 
[24.92, 12.145, 10.455, 1e-06, 1e-06, 1e-06, 0.0, 0.0, 0.0, 0.0, 0.0, 0.0, 0.0, 0.0, 0.0]

>  <energy>  (26) 
-666.6679611658814

>  <inter_energy>  (26) 
-676.5106728940646

>  <intra_energy>  (26) 
6.602844448277497

>  <rmsd>  (26) 
0.0

>  <sdf_rank>  (26) 
0

$$$$
