
     RDKit          3D

 11 10  0  0  0  0  0  0  0  0999 V2000
   37.0723   34.6415  116.1808 P   0  0  1  0  0  0  0  0  0  0  0  0
   38.0661   35.4590  115.2078 O   0  0  0  0  0  0  0  0  0  0  0  0
   35.6377   35.0439  115.9619 O   0  0  0  0  0  0  0  0  0  0  0  0
   37.3152   33.2302  115.7391 O   0  0  0  0  0  0  0  0  0  0  0  0
   37.4705   34.9101  117.6150 O   0  0  0  0  0  0  0  0  0  0  0  0
   37.7813   35.8324  113.8639 C   0  0  0  0  0  0  0  0  0  0  0  0
   38.4708   37.1523  113.6035 C   0  0  0  0  0  0  0  0  0  0  0  0
   37.9241   38.0080  112.8963 O   0  0  0  0  0  0  0  0  0  0  0  0
   39.5702   37.4351  114.1118 O   0  0  0  0  0  0  0  0  0  0  0  0
   38.1626   35.0666  113.1724 H   0  0  0  0  0  0  0  0  0  0  0  0
   36.6962   35.9249  113.7090 H   0  0  0  0  0  0  0  0  0  0  0  0
  1  2  1  0
  1  3  2  0
  1  4  1  6
  1  5  1  0
  2  6  1  0
  6  7  1  0
  7  8  2  0
  7  9  1  0
  6 10  1  0
  6 11  1  0
M  CHG  3   4  -1   5  -1   9  -1
M  END
>  <filename_input>  (1) 
7THI_PGA_docked.sdf

>  <pdb_id>  (1) 
7THI_PGA

>  <pose_rank>  (1) 
0

>  <num_atoms_heavy>  (1) 
9

>  <num_torsions>  (1) 
3

>  <pose>  (1) 
[38.06606058508924, 35.458981825717004, 115.2078103555221, 1.0009573997493213, 4.547063789704317, -4.120612036008246, 4.63240349047187, -0.3757602840687622, -0.25103063159605316]

>  <energy>  (1) 
-537.4621663913338

>  <inter_energy>  (1) 
-504.8797703029324

>  <intra_energy>  (1) 
0.0

>  <rmsd>  (1) 
0.65026

>  <sdf_rank>  (1) 
0

$$$$

     RDKit          3D

 11 10  0  0  0  0  0  0  0  0999 V2000
   37.0197   34.7184  115.9631 P   0  0  1  0  0  0  0  0  0  0  0  0
   37.8803   35.4178  114.7914 O   0  0  0  0  0  0  0  0  0  0  0  0
   36.4685   33.3892  115.5191 O   0  0  0  0  0  0  0  0  0  0  0  0
   38.0547   34.5484  117.0335 O   0  0  0  0  0  0  0  0  0  0  0  0
   35.8873   35.6436  116.3494 O   0  0  0  0  0  0  0  0  0  0  0  0
   37.3500   36.2415  113.7585 C   0  0  0  0  0  0  0  0  0  0  0  0
   38.4695   37.1303  113.2666 C   0  0  0  0  0  0  0  0  0  0  0  0
   38.6620   37.2694  112.0521 O   0  0  0  0  0  0  0  0  0  0  0  0
   39.1962   37.7707  114.0468 O   0  0  0  0  0  0  0  0  0  0  0  0
   36.9767   35.6164  112.9339 H   0  0  0  0  0  0  0  0  0  0  0  0
   36.5127   36.8464  114.1367 H   0  0  0  0  0  0  0  0  0  0  0  0
  1  2  1  0
  1  3  2  0
  1  4  1  1
  1  5  1  0
  2  6  1  0
  6  7  1  0
  7  8  2  0
  7  9  1  0
  6 10  1  0
  6 11  1  0
M  CHG  3   4  -1   5  -1   9  -1
M  END
>  <filename_input>  (2) 
7THI_PGA_docked.sdf

>  <pdb_id>  (2) 
7THI_PGA

>  <pose_rank>  (2) 
1

>  <num_atoms_heavy>  (2) 
9

>  <num_torsions>  (2) 
3

>  <pose>  (2) 
[37.880290897243405, 35.417792226648054, 114.79136637290122, -2.3396809542999093, -3.678907130882435, 3.7355240193595267, 6.778531535839753, -6.4984669720630945, -14.275097102427425]

>  <energy>  (2) 
-531.7178182267273

>  <inter_energy>  (2) 
-498.5699876698285

>  <intra_energy>  (2) 
0.0

>  <rmsd>  (2) 
0.682817

>  <sdf_rank>  (2) 
0

$$$$

     RDKit          3D

 11 10  0  0  0  0  0  0  0  0999 V2000
   37.0551   34.7105  116.2246 P   0  0  1  0  0  0  0  0  0  0  0  0
   38.0261   35.4508  115.1701 O   0  0  0  0  0  0  0  0  0  0  0  0
   37.4595   35.0087  117.6443 O   0  0  0  0  0  0  0  0  0  0  0  0
   35.7299   35.3276  115.8951 O   0  0  0  0  0  0  0  0  0  0  0  0
   37.1149   33.2203  115.9732 O   0  0  0  0  0  0  0  0  0  0  0  0
   37.6414   35.9148  113.8804 C   0  0  0  0  0  0  0  0  0  0  0  0
   38.4648   37.1455  113.5763 C   0  0  0  0  0  0  0  0  0  0  0  0
   38.2478   37.7975  112.5471 O   0  0  0  0  0  0  0  0  0  0  0  0
   39.3440   37.5606  114.3520 O   0  0  0  0  0  0  0  0  0  0  0  0
   37.8366   35.1368  113.1277 H   0  0  0  0  0  0  0  0  0  0  0  0
   36.5674   36.1519  113.8583 H   0  0  0  0  0  0  0  0  0  0  0  0
  1  2  1  0
  1  3  2  0
  1  4  1  1
  1  5  1  0
  2  6  1  0
  6  7  1  0
  7  8  2  0
  7  9  1  0
  6 10  1  0
  6 11  1  0
M  CHG  3   4  -1   5  -1   9  -1
M  END
>  <filename_input>  (3) 
7THI_PGA_docked.sdf

>  <pdb_id>  (3) 
7THI_PGA

>  <pose_rank>  (3) 
2

>  <num_atoms_heavy>  (3) 
9

>  <num_torsions>  (3) 
3

>  <pose>  (3) 
[38.026068543920054, 35.450829032149585, 115.17010897268256, -1.654915125918536, -3.9031029222519886, 4.49678354845461, 8.955240606657922, -12.928617989646249, -19.655373431157834]

>  <energy>  (3) 
-531.1978722411835

>  <inter_energy>  (3) 
-496.7262324438706

>  <intra_energy>  (3) 
0.0

>  <rmsd>  (3) 
0.685976

>  <sdf_rank>  (3) 
0

$$$$

     RDKit          3D

 11 10  0  0  0  0  0  0  0  0999 V2000
   36.9583   34.6689  116.0411 P   0  0  1  0  0  0  0  0  0  0  0  0
   37.0797   35.8822  114.9847 O   0  0  0  0  0  0  0  0  0  0  0  0
   38.3041   34.0592  116.3321 O   0  0  0  0  0  0  0  0  0  0  0  0
   36.4085   35.3737  117.2440 O   0  0  0  0  0  0  0  0  0  0  0  0
   36.0297   33.6209  115.4693 O   0  0  0  0  0  0  0  0  0  0  0  0
   37.4953   35.7563  113.6290 C   0  0  0  0  0  0  0  0  0  0  0  0
   38.3741   36.9445  113.3112 C   0  0  0  0  0  0  0  0  0  0  0  0
   37.8630   38.0254  112.9919 O   0  0  0  0  0  0  0  0  0  0  0  0
   39.6138   36.8909  113.3958 O   0  0  0  0  0  0  0  0  0  0  0  0
   38.0622   34.8233  113.4950 H   0  0  0  0  0  0  0  0  0  0  0  0
   36.6243   35.7280  112.9577 H   0  0  0  0  0  0  0  0  0  0  0  0
  1  2  1  0
  1  3  2  0
  1  4  1  1
  1  5  1  0
  2  6  1  0
  6  7  1  0
  7  8  2  0
  7  9  1  0
  6 10  1  0
  6 11  1  0
M  CHG  3   4  -1   5  -1   9  -1
M  END
>  <filename_input>  (4) 
7THI_PGA_docked.sdf

>  <pdb_id>  (4) 
7THI_PGA

>  <pose_rank>  (4) 
3

>  <num_atoms_heavy>  (4) 
9

>  <num_torsions>  (4) 
3

>  <pose>  (4) 
[37.079690347164885, 35.882182715061816, 114.98473244828601, -0.3597078844375539, -0.5866167819713591, 1.305424394179343, 6.404808489666851, 7.173003315419876, -11.768958981847529]

>  <energy>  (4) 
-513.0083024710716

>  <inter_energy>  (4) 
-500.7078043656954

>  <intra_energy>  (4) 
0.0

>  <rmsd>  (4) 
0.728553

>  <sdf_rank>  (4) 
0

$$$$

     RDKit          3D

 11 10  0  0  0  0  0  0  0  0999 V2000
   36.9747   34.6146  116.1048 P   0  0  1  0  0  0  0  0  0  0  0  0
   37.3277   35.8161  115.0877 O   0  0  0  0  0  0  0  0  0  0  0  0
   36.8771   35.1091  117.5239 O   0  0  0  0  0  0  0  0  0  0  0  0
   35.6393   34.1699  115.5903 O   0  0  0  0  0  0  0  0  0  0  0  0
   38.0528   33.5591  115.9992 O   0  0  0  0  0  0  0  0  0  0  0  0
   38.3170   35.7667  114.0652 C   0  0  0  0  0  0  0  0  0  0  0  0
   38.3625   37.1288  113.4111 C   0  0  0  0  0  0  0  0  0  0  0  0
   39.1052   38.0090  113.8638 O   0  0  0  0  0  0  0  0  0  0  0  0
   37.6994   37.3956  112.3932 O   0  0  0  0  0  0  0  0  0  0  0  0
   39.2975   35.5271  114.5024 H   0  0  0  0  0  0  0  0  0  0  0  0
   38.0719   34.9899  113.3260 H   0  0  0  0  0  0  0  0  0  0  0  0
  1  2  1  0
  1  3  2  0
  1  4  1  6
  1  5  1  0
  2  6  1  0
  6  7  1  0
  7  8  2  0
  7  9  1  0
  6 10  1  0
  6 11  1  0
M  CHG  3   4  -1   5  -1   9  -1
M  END
>  <filename_input>  (5) 
7THI_PGA_docked.sdf

>  <pdb_id>  (5) 
7THI_PGA

>  <pose_rank>  (5) 
4

>  <num_atoms_heavy>  (5) 
9

>  <num_torsions>  (5) 
3

>  <pose>  (5) 
[37.327735949544845, 35.81607643935614, 115.08768700378805, -0.6689316186562677, -0.9907816602047809, 1.4468240333854054, 1.3204283793432725, 0.25241275681000824, -2.4937086607365013]

>  <energy>  (5) 
-512.4641169618423

>  <inter_energy>  (5) 
-490.3497419472766

>  <intra_energy>  (5) 
0.0

>  <rmsd>  (5) 
1.16196

>  <sdf_rank>  (5) 
0

$$$$

     RDKit          3D

 11 10  0  0  0  0  0  0  0  0999 V2000
   36.8992   34.5731  116.0427 P   0  0  1  0  0  0  0  0  0  0  0  0
   37.7869   35.4001  114.9793 O   0  0  0  0  0  0  0  0  0  0  0  0
   35.5330   34.2616  115.4910 O   0  0  0  0  0  0  0  0  0  0  0  0
   37.7158   33.3277  116.2096 O   0  0  0  0  0  0  0  0  0  0  0  0
   36.7704   35.3936  117.3068 O   0  0  0  0  0  0  0  0  0  0  0  0
   37.2896   36.3840  114.0786 C   0  0  0  0  0  0  0  0  0  0  0  0
   38.4565   36.8742  113.2521 C   0  0  0  0  0  0  0  0  0  0  0  0
   39.3431   36.0849  112.9024 O   0  0  0  0  0  0  0  0  0  0  0  0
   38.5453   38.0541  112.8686 O   0  0  0  0  0  0  0  0  0  0  0  0
   36.5250   35.9411  113.4233 H   0  0  0  0  0  0  0  0  0  0  0  0
   36.8284   37.2165  114.6301 H   0  0  0  0  0  0  0  0  0  0  0  0
  1  2  1  0
  1  3  2  0
  1  4  1  1
  1  5  1  0
  2  6  1  0
  6  7  1  0
  7  8  2  0
  7  9  1  0
  6 10  1  0
  6 11  1  0
M  CHG  3   4  -1   5  -1   9  -1
M  END
>  <filename_input>  (6) 
7THI_PGA_docked.sdf

>  <pdb_id>  (6) 
7THI_PGA

>  <pose_rank>  (6) 
5

>  <num_atoms_heavy>  (6) 
9

>  <num_torsions>  (6) 
3

>  <pose>  (6) 
[37.786881632304485, 35.40008339601035, 114.97929744027614, -3.2586857503538753, -3.2799966208444995, 3.2365394577279454, -6.668686201140535, 0.21921828452669365, -3.40042949110913]

>  <energy>  (6) 
-507.7509773653344

>  <inter_energy>  (6) 
-499.5556375500532

>  <intra_energy>  (6) 
0.0

>  <rmsd>  (6) 
0.943169

>  <sdf_rank>  (6) 
0

$$$$

     RDKit          3D

 11 10  0  0  0  0  0  0  0  0999 V2000
   36.8453   34.4835  115.6943 P   0  0  1  0  0  0  0  0  0  0  0  0
   37.0111   35.5839  114.5262 O   0  0  0  0  0  0  0  0  0  0  0  0
   35.6773   33.5716  115.4258 O   0  0  0  0  0  0  0  0  0  0  0  0
   38.1458   33.7454  115.5965 O   0  0  0  0  0  0  0  0  0  0  0  0
   36.6474   35.2016  117.0106 O   0  0  0  0  0  0  0  0  0  0  0  0
   38.0323   35.5859  113.5344 C   0  0  0  0  0  0  0  0  0  0  0  0
   38.5522   37.0008  113.4206 C   0  0  0  0  0  0  0  0  0  0  0  0
   39.6118   37.3180  113.9755 O   0  0  0  0  0  0  0  0  0  0  0  0
   37.9672   37.8676  112.7472 O   0  0  0  0  0  0  0  0  0  0  0  0
   38.8468   34.9093  113.8325 H   0  0  0  0  0  0  0  0  0  0  0  0
   37.6352   35.2401  112.5686 H   0  0  0  0  0  0  0  0  0  0  0  0
  1  2  1  0
  1  3  2  0
  1  4  1  1
  1  5  1  0
  2  6  1  0
  6  7  1  0
  7  8  2  0
  7  9  1  0
  6 10  1  0
  6 11  1  0
M  CHG  3   4  -1   5  -1   9  -1
M  END
>  <filename_input>  (7) 
7THI_PGA_docked.sdf

>  <pdb_id>  (7) 
7THI_PGA

>  <pose_rank>  (7) 
6

>  <num_atoms_heavy>  (7) 
9

>  <num_torsions>  (7) 
3

>  <pose>  (7) 
[37.01110366220526, 35.58393350085032, 114.52624465230716, -0.7108219832730276, -1.0032160305849291, 1.685574077092823, 3.40589158667125, -11.59167114169459, 3.999393459531642]

>  <energy>  (7) 
-423.35736161459744

>  <inter_energy>  (7) 
-418.88410989521844

>  <intra_energy>  (7) 
0.0

>  <rmsd>  (7) 
1.00485

>  <sdf_rank>  (7) 
0

$$$$

     RDKit          3D

 11 10  0  0  0  0  0  0  0  0999 V2000
   36.9903   34.6551  116.0957 P   0  0  1  0  0  0  0  0  0  0  0  0
   37.8801   35.5301  115.0732 O   0  0  0  0  0  0  0  0  0  0  0  0
   37.2486   33.1815  115.9237 O   0  0  0  0  0  0  0  0  0  0  0  0
   37.4903   35.1442  117.4211 O   0  0  0  0  0  0  0  0  0  0  0  0
   35.5295   34.9557  115.8447 O   0  0  0  0  0  0  0  0  0  0  0  0
   37.4487   36.0027  113.8015 C   0  0  0  0  0  0  0  0  0  0  0  0
   38.6676   36.5190  113.0716 C   0  0  0  0  0  0  0  0  0  0  0  0
   38.7003   37.6894  112.6708 O   0  0  0  0  0  0  0  0  0  0  0  0
   39.6752   35.8136  112.8866 O   0  0  0  0  0  0  0  0  0  0  0  0
   36.9894   35.1816  113.2317 H   0  0  0  0  0  0  0  0  0  0  0  0
   36.7001   36.8002  113.9181 H   0  0  0  0  0  0  0  0  0  0  0  0
  1  2  1  0
  1  3  2  0
  1  4  1  1
  1  5  1  0
  2  6  1  0
  6  7  1  0
  7  8  2  0
  7  9  1  0
  6 10  1  0
  6 11  1  0
M  CHG  3   4  -1   5  -1   9  -1
M  END
>  <filename_input>  (8) 
7THI_PGA_docked.sdf

>  <pdb_id>  (8) 
7THI_PGA

>  <pose_rank>  (8) 
7

>  <num_atoms_heavy>  (8) 
9

>  <num_torsions>  (8) 
3

>  <pose>  (8) 
[37.880102349005526, 35.5300737169977, 115.07322006591974, -4.060977231027904, -4.322887359463584, -1.7603445551692694, 6.929204433192336, -12.168362467150583, -12.46251750265438]

>  <energy>  (8) 
-499.10534664160997

>  <inter_energy>  (8) 
-487.1920562622703

>  <intra_energy>  (8) 
0.0

>  <rmsd>  (8) 
0.65953

>  <sdf_rank>  (8) 
0

$$$$

     RDKit          3D

 11 10  0  0  0  0  0  0  0  0999 V2000
   37.0051   34.6103  115.9827 P   0  0  1  0  0  0  0  0  0  0  0  0
   37.7466   35.8172  115.2104 O   0  0  0  0  0  0  0  0  0  0  0  0
   37.9991   33.6465  116.5751 O   0  0  0  0  0  0  0  0  0  0  0  0
   36.2618   35.3515  117.0522 O   0  0  0  0  0  0  0  0  0  0  0  0
   36.1074   33.8883  115.0027 O   0  0  0  0  0  0  0  0  0  0  0  0
   37.2672   36.4615  114.0350 C   0  0  0  0  0  0  0  0  0  0  0  0
   38.4594   37.0698  113.3323 C   0  0  0  0  0  0  0  0  0  0  0  0
   39.3722   36.3434  112.9192 O   0  0  0  0  0  0  0  0  0  0  0  0
   38.5453   38.2912  113.1136 O   0  0  0  0  0  0  0  0  0  0  0  0
   36.7777   35.7279  113.3776 H   0  0  0  0  0  0  0  0  0  0  0  0
   36.5310   37.2376  114.2913 H   0  0  0  0  0  0  0  0  0  0  0  0
  1  2  1  0
  1  3  2  0
  1  4  1  1
  1  5  1  0
  2  6  1  0
  6  7  1  0
  7  8  2  0
  7  9  1  0
  6 10  1  0
  6 11  1  0
M  CHG  3   4  -1   5  -1   9  -1
M  END
>  <filename_input>  (9) 
7THI_PGA_docked.sdf

>  <pdb_id>  (9) 
7THI_PGA

>  <pose_rank>  (9) 
8

>  <num_atoms_heavy>  (9) 
9

>  <num_torsions>  (9) 
3

>  <pose>  (9) 
[37.746565073249506, 35.81716819166956, 115.21044846781308, -4.59217294371899, -0.480092612689638, -3.7432133124468874, -17.3188691410943, 25.743809934360993, 28.456957353673726]

>  <energy>  (9) 
-497.80705674626677

>  <inter_energy>  (9) 
-483.053815010933

>  <intra_energy>  (9) 
0.0

>  <rmsd>  (9) 
0.703524

>  <sdf_rank>  (9) 
0

$$$$

     RDKit          3D

 11 10  0  0  0  0  0  0  0  0999 V2000
   37.0212   34.6705  115.8777 P   0  0  1  0  0  0  0  0  0  0  0  0
   38.2206   35.3319  115.0252 O   0  0  0  0  0  0  0  0  0  0  0  0
   35.8736   35.6311  116.0451 O   0  0  0  0  0  0  0  0  0  0  0  0
   36.6388   33.5122  115.0070 O   0  0  0  0  0  0  0  0  0  0  0  0
   37.5572   34.2657  117.2328 O   0  0  0  0  0  0  0  0  0  0  0  0
   38.1618   35.6679  113.6430 C   0  0  0  0  0  0  0  0  0  0  0  0
   38.0012   37.1679  113.5468 C   0  0  0  0  0  0  0  0  0  0  0  0
   38.9249   37.8628  113.1047 O   0  0  0  0  0  0  0  0  0  0  0  0
   36.9440   37.7411  113.8642 O   0  0  0  0  0  0  0  0  0  0  0  0
   39.0896   35.3564  113.1410 H   0  0  0  0  0  0  0  0  0  0  0  0
   37.3192   35.1559  113.1552 H   0  0  0  0  0  0  0  0  0  0  0  0
  1  2  1  0
  1  3  2  0
  1  4  1  6
  1  5  1  0
  2  6  1  0
  6  7  1  0
  7  8  2  0
  7  9  1  0
  6 10  1  0
  6 11  1  0
M  CHG  3   4  -1   5  -1   9  -1
M  END
>  <filename_input>  (10) 
7THI_PGA_docked.sdf

>  <pdb_id>  (10) 
7THI_PGA

>  <pose_rank>  (10) 
9

>  <num_atoms_heavy>  (10) 
9

>  <num_torsions>  (10) 
3

>  <pose>  (10) 
[38.22055820788229, 35.33188844979682, 115.02515158944549, -0.05711926421196462, -0.18369391233606192, -0.06412275412056424, 4.087346763883691, 5.153455459111113, -2.0992242571869872]

>  <energy>  (10) 
-495.7138060739282

>  <inter_energy>  (10) 
-484.4629708238859

>  <intra_energy>  (10) 
1.482651821369147

>  <rmsd>  (10) 
0.961583

>  <sdf_rank>  (10) 
0

$$$$

     RDKit          3D

 11 10  0  0  0  0  0  0  0  0999 V2000
   36.9836   34.5181  115.9834 P   0  0  1  0  0  0  0  0  0  0  0  0
   38.0878   35.0571  114.9379 O   0  0  0  0  0  0  0  0  0  0  0  0
   37.4427   34.6982  117.4063 O   0  0  0  0  0  0  0  0  0  0  0  0
   35.8176   35.4062  115.6712 O   0  0  0  0  0  0  0  0  0  0  0  0
   36.7283   33.0536  115.7049 O   0  0  0  0  0  0  0  0  0  0  0  0
   38.1043   36.3545  114.3521 C   0  0  0  0  0  0  0  0  0  0  0  0
   39.0232   36.2996  113.1530 C   0  0  0  0  0  0  0  0  0  0  0  0
   39.2857   37.3336  112.5257 O   0  0  0  0  0  0  0  0  0  0  0  0
   39.5680   35.2436  112.7857 O   0  0  0  0  0  0  0  0  0  0  0  0
   37.0894   36.6363  114.0349 H   0  0  0  0  0  0  0  0  0  0  0  0
   38.4574   37.1026  115.0770 H   0  0  0  0  0  0  0  0  0  0  0  0
  1  2  1  0
  1  3  2  0
  1  4  1  1
  1  5  1  0
  2  6  1  0
  6  7  1  0
  7  8  2  0
  7  9  1  0
  6 10  1  0
  6 11  1  0
M  CHG  3   4  -1   5  -1   9  -1
M  END
>  <filename_input>  (11) 
7THI_PGA_docked.sdf

>  <pdb_id>  (11) 
7THI_PGA

>  <pose_rank>  (11) 
10

>  <num_atoms_heavy>  (11) 
9

>  <num_torsions>  (11) 
3

>  <pose>  (11) 
[38.08778479300992, 35.05711674813119, 114.93790813264313, -2.8750859479142097, -1.9450686858473003, 3.7143345361498077, -2.6668078751406, -5.790609916964906, -0.8046715931187897]

>  <energy>  (11) 
-454.7317473691597

>  <inter_energy>  (11) 
-449.89545053950053

>  <intra_energy>  (11) 
0.0

>  <rmsd>  (11) 
0.84956

>  <sdf_rank>  (11) 
0

$$$$

     RDKit          3D

 11 10  0  0  0  0  0  0  0  0999 V2000
   36.9000   34.6494  115.8968 P   0  0  1  0  0  0  0  0  0  0  0  0
   38.0112   35.1369  114.8336 O   0  0  0  0  0  0  0  0  0  0  0  0
   36.1285   33.4647  115.3784 O   0  0  0  0  0  0  0  0  0  0  0  0
   37.7534   34.2723  117.0696 O   0  0  0  0  0  0  0  0  0  0  0  0
   35.9568   35.7993  116.1720 O   0  0  0  0  0  0  0  0  0  0  0  0
   38.5940   36.4350  114.7870 C   0  0  0  0  0  0  0  0  0  0  0  0
   37.8757   37.2168  113.7109 C   0  0  0  0  0  0  0  0  0  0  0  0
   38.4146   37.3969  112.6115 O   0  0  0  0  0  0  0  0  0  0  0  0
   36.7264   37.6634  113.8743 O   0  0  0  0  0  0  0  0  0  0  0  0
   38.4737   36.9359  115.7589 H   0  0  0  0  0  0  0  0  0  0  0  0
   39.6695   36.3691  114.5656 H   0  0  0  0  0  0  0  0  0  0  0  0
  1  2  1  0
  1  3  2  0
  1  4  1  1
  1  5  1  0
  2  6  1  0
  6  7  1  0
  7  8  2  0
  7  9  1  0
  6 10  1  0
  6 11  1  0
M  CHG  3   4  -1   5  -1   9  -1
M  END
>  <filename_input>  (12) 
7THI_PGA_docked.sdf

>  <pdb_id>  (12) 
7THI_PGA

>  <pose_rank>  (12) 
11

>  <num_atoms_heavy>  (12) 
9

>  <num_torsions>  (12) 
3

>  <pose>  (12) 
[38.01119389397749, 35.13694582740334, 114.83364656002388, 1.1361016356219558, 0.7244793078448757, -1.3214009768218091, 14.318239665542214, 1.6079020938948887, -5.841992828114932]

>  <energy>  (12) 
-483.17977547402876

>  <inter_energy>  (12) 
-473.2247909187005

>  <intra_energy>  (12) 
5.242992062203641

>  <rmsd>  (12) 
1.16242

>  <sdf_rank>  (12) 
0

$$$$

     RDKit          3D

 11 10  0  0  0  0  0  0  0  0999 V2000
   37.2724   35.0745  116.3571 P   0  0  1  0  0  0  0  0  0  0  0  0
   38.2490   35.8577  115.3395 O   0  0  0  0  0  0  0  0  0  0  0  0
   37.5041   35.5070  117.7808 O   0  0  0  0  0  0  0  0  0  0  0  0
   35.9231   35.5074  115.8694 O   0  0  0  0  0  0  0  0  0  0  0  0
   37.5236   33.5892  116.2216 O   0  0  0  0  0  0  0  0  0  0  0  0
   37.9058   36.2710  114.0212 C   0  0  0  0  0  0  0  0  0  0  0  0
   38.6502   37.5563  113.7399 C   0  0  0  0  0  0  0  0  0  0  0  0
   39.3542   37.6557  112.7271 O   0  0  0  0  0  0  0  0  0  0  0  0
   38.5525   38.5518  114.4792 O   0  0  0  0  0  0  0  0  0  0  0  0
   38.2026   35.4987  113.2962 H   0  0  0  0  0  0  0  0  0  0  0  0
   36.8201   36.4247  113.9335 H   0  0  0  0  0  0  0  0  0  0  0  0
  1  2  1  0
  1  3  2  0
  1  4  1  6
  1  5  1  0
  2  6  1  0
  6  7  1  0
  7  8  2  0
  7  9  1  0
  6 10  1  0
  6 11  1  0
M  CHG  3   4  -1   5  -1   9  -1
M  END
>  <filename_input>  (13) 
7THI_PGA_docked.sdf

>  <pdb_id>  (13) 
7THI_PGA

>  <pose_rank>  (13) 
12

>  <num_atoms_heavy>  (13) 
9

>  <num_torsions>  (13) 
3

>  <pose>  (13) 
[38.249024804208204, 35.85769834149231, 115.33951414388973, -2.727086157562274, -4.404095065118211, 3.5276088729289814, 2.751031624440976, -0.37351361396566185, -1.8276520721540204]

>  <energy>  (13) 
-390.5363044953414

>  <inter_energy>  (13) 
-402.19265841050594

>  <intra_energy>  (13) 
0.0

>  <rmsd>  (13) 
0.998463

>  <sdf_rank>  (13) 
0

$$$$

     RDKit          3D

 11 10  0  0  0  0  0  0  0  0999 V2000
   36.8894   34.6506  115.9192 P   0  0  1  0  0  0  0  0  0  0  0  0
   37.7545   35.2938  114.7189 O   0  0  0  0  0  0  0  0  0  0  0  0
   35.8233   35.6012  116.3964 O   0  0  0  0  0  0  0  0  0  0  0  0
   36.2895   33.4531  115.2470 O   0  0  0  0  0  0  0  0  0  0  0  0
   37.8231   34.3082  117.0587 O   0  0  0  0  0  0  0  0  0  0  0  0
   37.9633   36.6860  114.5074 C   0  0  0  0  0  0  0  0  0  0  0  0
   38.5665   36.8508  113.1310 C   0  0  0  0  0  0  0  0  0  0  0  0
   38.2916   37.8462  112.4492 O   0  0  0  0  0  0  0  0  0  0  0  0
   39.3738   36.0297  112.6607 O   0  0  0  0  0  0  0  0  0  0  0  0
   37.0047   37.2225  114.5640 H   0  0  0  0  0  0  0  0  0  0  0  0
   38.6334   37.0986  115.2760 H   0  0  0  0  0  0  0  0  0  0  0  0
  1  2  1  0
  1  3  2  0
  1  4  1  6
  1  5  1  0
  2  6  1  0
  6  7  1  0
  7  8  2  0
  7  9  1  0
  6 10  1  0
  6 11  1  0
M  CHG  3   4  -1   5  -1   9  -1
M  END
>  <filename_input>  (14) 
7THI_PGA_docked.sdf

>  <pdb_id>  (14) 
7THI_PGA

>  <pose_rank>  (14) 
13

>  <num_atoms_heavy>  (14) 
9

>  <num_torsions>  (14) 
3

>  <pose>  (14) 
[37.7545259011189, 35.29379028705832, 114.71893366344942, -2.402805107440117, -2.2790597858952464, 3.1959814719421242, -6.822417107172499, 6.688962707372814, -1.4888680664522838]

>  <energy>  (14) 
-475.9873530024144

>  <inter_energy>  (14) 
-469.924456154728

>  <intra_energy>  (14) 
0.0

>  <rmsd>  (14) 
0.624348

>  <sdf_rank>  (14) 
0

$$$$

     RDKit          3D

 11 10  0  0  0  0  0  0  0  0999 V2000
   37.0600   34.8171  116.1829 P   0  0  1  0  0  0  0  0  0  0  0  0
   38.0033   35.6216  115.1505 O   0  0  0  0  0  0  0  0  0  0  0  0
   37.2711   33.3301  116.0728 O   0  0  0  0  0  0  0  0  0  0  0  0
   37.5454   35.3396  117.5009 O   0  0  0  0  0  0  0  0  0  0  0  0
   35.6167   35.1569  115.8847 O   0  0  0  0  0  0  0  0  0  0  0  0
   37.5822   36.1737  113.9077 C   0  0  0  0  0  0  0  0  0  0  0  0
   38.5097   37.3226  113.5836 C   0  0  0  0  0  0  0  0  0  0  0  0
   39.5574   37.4729  114.2248 O   0  0  0  0  0  0  0  0  0  0  0  0
   38.2779   38.1173  112.6553 O   0  0  0  0  0  0  0  0  0  0  0  0
   37.6404   35.4098  113.1184 H   0  0  0  0  0  0  0  0  0  0  0  0
   36.5409   36.5225  113.9715 H   0  0  0  0  0  0  0  0  0  0  0  0
  1  2  1  0
  1  3  2  0
  1  4  1  1
  1  5  1  0
  2  6  1  0
  6  7  1  0
  7  8  2  0
  7  9  1  0
  6 10  1  0
  6 11  1  0
M  CHG  3   4  -1   5  -1   9  -1
M  END
>  <filename_input>  (15) 
7THI_PGA_docked.sdf

>  <pdb_id>  (15) 
7THI_PGA

>  <pose_rank>  (15) 
14

>  <num_atoms_heavy>  (15) 
9

>  <num_torsions>  (15) 
3

>  <pose>  (15) 
[38.0032537381479, 35.621647199905844, 115.15051755451286, -3.6470736051932504, -3.831302080135266, 3.088392986636885, -11.80619779332207, -0.25025886904163186, -3.8211100095971804]

>  <energy>  (15) 
-474.4215173329619

>  <inter_energy>  (15) 
-467.4473474932293

>  <intra_energy>  (15) 
0.0

>  <rmsd>  (15) 
0.687419

>  <sdf_rank>  (15) 
0

$$$$

     RDKit          3D

 11 10  0  0  0  0  0  0  0  0999 V2000
   37.0079   34.3357  115.0249 P   0  0  1  0  0  0  0  0  0  0  0  0
   37.2461   35.5205  113.9562 O   0  0  0  0  0  0  0  0  0  0  0  0
   38.1618   33.3681  115.0362 O   0  0  0  0  0  0  0  0  0  0  0  0
   36.9287   35.1032  116.3096 O   0  0  0  0  0  0  0  0  0  0  0  0
   35.7299   33.6107  114.6663 O   0  0  0  0  0  0  0  0  0  0  0  0
   38.4662   36.2301  113.7702 C   0  0  0  0  0  0  0  0  0  0  0  0
   38.9527   35.9374  112.3692 C   0  0  0  0  0  0  0  0  0  0  0  0
   39.2675   34.7837  112.0510 O   0  0  0  0  0  0  0  0  0  0  0  0
   39.0150   36.8188  111.4938 O   0  0  0  0  0  0  0  0  0  0  0  0
   38.2947   37.3100  113.8904 H   0  0  0  0  0  0  0  0  0  0  0  0
   39.2140   35.9166  114.5135 H   0  0  0  0  0  0  0  0  0  0  0  0
  1  2  1  0
  1  3  2  0
  1  4  1  1
  1  5  1  0
  2  6  1  0
  6  7  1  0
  7  8  2  0
  7  9  1  0
  6 10  1  0
  6 11  1  0
M  CHG  3   4  -1   5  -1   9  -1
M  END
>  <filename_input>  (16) 
7THI_PGA_docked.sdf

>  <pdb_id>  (16) 
7THI_PGA

>  <pose_rank>  (16) 
15

>  <num_atoms_heavy>  (16) 
9

>  <num_torsions>  (16) 
3

>  <pose>  (16) 
[37.2460753027707, 35.52053417677303, 113.95616978617032, 1.2854779893457562, 2.0605432400392116, -2.3097690139222364, 17.071881610174994, -0.9131546931929486, 1.128810328670166]

>  <energy>  (16) 
-329.08508001473456

>  <inter_energy>  (16) 
-321.8942771295398

>  <intra_energy>  (16) 
0.043923278160512995

>  <rmsd>  (16) 
1.66229

>  <sdf_rank>  (16) 
0

$$$$

     RDKit          3D

 11 10  0  0  0  0  0  0  0  0999 V2000
   36.9970   34.6739  116.0288 P   0  0  1  0  0  0  0  0  0  0  0  0
   38.0201   35.2841  114.9409 O   0  0  0  0  0  0  0  0  0  0  0  0
   37.5106   34.8653  117.4314 O   0  0  0  0  0  0  0  0  0  0  0  0
   35.7704   35.4983  115.7811 O   0  0  0  0  0  0  0  0  0  0  0  0
   36.8107   33.2002  115.7441 O   0  0  0  0  0  0  0  0  0  0  0  0
   38.1506   36.6637  114.6149 C   0  0  0  0  0  0  0  0  0  0  0  0
   38.6404   36.7487  113.1873 C   0  0  0  0  0  0  0  0  0  0  0  0
   38.6561   35.7359  112.4763 O   0  0  0  0  0  0  0  0  0  0  0  0
   38.9999   37.8235  112.6749 O   0  0  0  0  0  0  0  0  0  0  0  0
   37.1762   37.1655  114.7082 H   0  0  0  0  0  0  0  0  0  0  0  0
   38.8577   37.1580  115.2973 H   0  0  0  0  0  0  0  0  0  0  0  0
  1  2  1  0
  1  3  2  0
  1  4  1  1
  1  5  1  0
  2  6  1  0
  6  7  1  0
  7  8  2  0
  7  9  1  0
  6 10  1  0
  6 11  1  0
M  CHG  3   4  -1   5  -1   9  -1
M  END
>  <filename_input>  (17) 
7THI_PGA_docked.sdf

>  <pdb_id>  (17) 
7THI_PGA

>  <pose_rank>  (17) 
16

>  <num_atoms_heavy>  (17) 
9

>  <num_torsions>  (17) 
3

>  <pose>  (17) 
[38.02011309221802, 35.28408193479612, 114.94087385472616, 0.8390441565082223, 0.6457391163004668, -1.0209650240337071, 3.90426882570188, -5.605443462955238, 2.4336696672069245]

>  <energy>  (17) 
-460.88507233285634

>  <inter_energy>  (17) 
-462.39953472666093

>  <intra_energy>  (17) 
0.0

>  <rmsd>  (17) 
0.841875

>  <sdf_rank>  (17) 
0

$$$$

     RDKit          3D

 11 10  0  0  0  0  0  0  0  0999 V2000
   37.0807   34.6878  116.0899 P   0  0  1  0  0  0  0  0  0  0  0  0
   37.9695   35.5041  115.0192 O   0  0  0  0  0  0  0  0  0  0  0  0
   35.6670   34.5066  115.6037 O   0  0  0  0  0  0  0  0  0  0  0  0
   37.8086   33.3791  116.1469 O   0  0  0  0  0  0  0  0  0  0  0  0
   37.0832   35.4460  117.3986 O   0  0  0  0  0  0  0  0  0  0  0  0
   37.5779   35.8099  113.6851 C   0  0  0  0  0  0  0  0  0  0  0  0
   38.7059   36.5889  113.0480 C   0  0  0  0  0  0  0  0  0  0  0  0
   38.6431   37.8227  112.9754 O   0  0  0  0  0  0  0  0  0  0  0  0
   39.7327   36.0335  112.6190 O   0  0  0  0  0  0  0  0  0  0  0  0
   37.3991   34.8809  113.1239 H   0  0  0  0  0  0  0  0  0  0  0  0
   36.6486   36.3985  113.6793 H   0  0  0  0  0  0  0  0  0  0  0  0
  1  2  1  0
  1  3  2  0
  1  4  1  1
  1  5  1  0
  2  6  1  0
  6  7  1  0
  7  8  2  0
  7  9  1  0
  6 10  1  0
  6 11  1  0
M  CHG  3   4  -1   5  -1   9  -1
M  END
>  <filename_input>  (18) 
7THI_PGA_docked.sdf

>  <pdb_id>  (18) 
7THI_PGA

>  <pose_rank>  (18) 
17

>  <num_atoms_heavy>  (18) 
9

>  <num_torsions>  (18) 
3

>  <pose>  (18) 
[37.96949530823379, 35.504119715006055, 115.0192101130091, 2.916659084923766, -1.3214085869590335, -5.287665056088292, -1.2003094902909417, 0.19214444849626097, 0.5116098754960888]

>  <energy>  (18) 
-483.9356199132867

>  <inter_energy>  (18) 
-479.6972387862864

>  <intra_energy>  (18) 
0.0

>  <rmsd>  (18) 
0.881953

>  <sdf_rank>  (18) 
0

$$$$

     RDKit          3D

 11 10  0  0  0  0  0  0  0  0999 V2000
   36.8638   34.3683  116.0325 P   0  0  1  0  0  0  0  0  0  0  0  0
   37.9757   35.0491  115.0823 O   0  0  0  0  0  0  0  0  0  0  0  0
   36.9775   34.8634  117.4502 O   0  0  0  0  0  0  0  0  0  0  0  0
   35.5937   34.8395  115.3916 O   0  0  0  0  0  0  0  0  0  0  0  0
   37.0479   32.8676  115.9937 O   0  0  0  0  0  0  0  0  0  0  0  0
   37.8062   35.3526  113.7017 C   0  0  0  0  0  0  0  0  0  0  0  0
   37.5319   36.8352  113.5930 C   0  0  0  0  0  0  0  0  0  0  0  0
   38.2195   37.5391  112.8426 O   0  0  0  0  0  0  0  0  0  0  0  0
   36.6005   37.3818  114.2099 O   0  0  0  0  0  0  0  0  0  0  0  0
   38.7209   35.0981  113.1462 H   0  0  0  0  0  0  0  0  0  0  0  0
   36.9740   34.7723  113.2767 H   0  0  0  0  0  0  0  0  0  0  0  0
  1  2  1  0
  1  3  2  0
  1  4  1  6
  1  5  1  0
  2  6  1  0
  6  7  1  0
  7  8  2  0
  7  9  1  0
  6 10  1  0
  6 11  1  0
M  CHG  3   4  -1   5  -1   9  -1
M  END
>  <filename_input>  (19) 
7THI_PGA_docked.sdf

>  <pdb_id>  (19) 
7THI_PGA

>  <pose_rank>  (19) 
18

>  <num_atoms_heavy>  (19) 
9

>  <num_torsions>  (19) 
3

>  <pose>  (19) 
[37.97567416995781, 35.04912022930854, 115.0822604007299, 3.397069783297067, 4.976885512694156, 1.198914102440527, -3.58542161622877, -1.169754795807743, -1.829112874342392]

>  <energy>  (19) 
-452.13105205705284

>  <inter_energy>  (19) 
-447.66343613359334

>  <intra_energy>  (19) 
9.956484960680836

>  <rmsd>  (19) 
1.36775

>  <sdf_rank>  (19) 
0

$$$$

     RDKit          3D

 11 10  0  0  0  0  0  0  0  0999 V2000
   36.8577   34.5033  115.7299 P   0  0  1  0  0  0  0  0  0  0  0  0
   37.3969   35.6810  114.7681 O   0  0  0  0  0  0  0  0  0  0  0  0
   35.9572   33.5552  114.9829 O   0  0  0  0  0  0  0  0  0  0  0  0
   38.1377   33.8356  116.1315 O   0  0  0  0  0  0  0  0  0  0  0  0
   36.1057   35.1277  116.8841 O   0  0  0  0  0  0  0  0  0  0  0  0
   38.7659   35.9626  114.4976 C   0  0  0  0  0  0  0  0  0  0  0  0
   38.8955   36.1989  113.0101 C   0  0  0  0  0  0  0  0  0  0  0  0
   39.1363   35.2517  112.2510 O   0  0  0  0  0  0  0  0  0  0  0  0
   38.7293   37.3221  112.5025 O   0  0  0  0  0  0  0  0  0  0  0  0
   39.0808   36.8605  115.0494 H   0  0  0  0  0  0  0  0  0  0  0  0
   39.4038   35.1241  114.8139 H   0  0  0  0  0  0  0  0  0  0  0  0
  1  2  1  0
  1  3  2  0
  1  4  1  1
  1  5  1  0
  2  6  1  0
  6  7  1  0
  7  8  2  0
  7  9  1  0
  6 10  1  0
  6 11  1  0
M  CHG  3   4  -1   5  -1   9  -1
M  END
>  <filename_input>  (20) 
7THI_PGA_docked.sdf

>  <pdb_id>  (20) 
7THI_PGA

>  <pose_rank>  (20) 
19

>  <num_atoms_heavy>  (20) 
9

>  <num_torsions>  (20) 
3

>  <pose>  (20) 
[37.39685595689092, 35.68100122309698, 114.76814323573488, 1.681216730107233, 2.2063702598560915, -2.4622170636442684, 15.722926926177445, -0.5778015142826696, 0.6706856615122525]

>  <energy>  (20) 
-395.6275746411177

>  <inter_energy>  (20) 
-406.0424975643922

>  <intra_energy>  (20) 
0.0

>  <rmsd>  (20) 
1.10904

>  <sdf_rank>  (20) 
0

$$$$

     RDKit          3D

 11 10  0  0  0  0  0  0  0  0999 V2000
   36.2718   34.5778  114.9192 P   0  0  1  0  0  0  0  0  0  0  0  0
   37.7332   34.8955  114.3143 O   0  0  0  0  0  0  0  0  0  0  0  0
   35.9468   35.4888  116.0734 O   0  0  0  0  0  0  0  0  0  0  0  0
   35.3920   34.8594  113.7391 O   0  0  0  0  0  0  0  0  0  0  0  0
   36.2401   33.1360  115.3750 O   0  0  0  0  0  0  0  0  0  0  0  0
   38.1081   34.7560  112.9480 C   0  0  0  0  0  0  0  0  0  0  0  0
   39.0570   35.8861  112.6198 C   0  0  0  0  0  0  0  0  0  0  0  0
   40.1956   35.6379  112.2033 O   0  0  0  0  0  0  0  0  0  0  0  0
   38.7214   37.0798  112.7165 O   0  0  0  0  0  0  0  0  0  0  0  0
   38.6082   33.7886  112.7927 H   0  0  0  0  0  0  0  0  0  0  0  0
   37.2220   34.7925  112.2973 H   0  0  0  0  0  0  0  0  0  0  0  0
  1  2  1  0
  1  3  2  0
  1  4  1  6
  1  5  1  0
  2  6  1  0
  6  7  1  0
  7  8  2  0
  7  9  1  0
  6 10  1  0
  6 11  1  0
M  CHG  3   4  -1   5  -1   9  -1
M  END
>  <filename_input>  (21) 
7THI_PGA_docked.sdf

>  <pdb_id>  (21) 
7THI_PGA

>  <pose_rank>  (21) 
20

>  <num_atoms_heavy>  (21) 
9

>  <num_torsions>  (21) 
3

>  <pose>  (21) 
[37.7332386245614, 34.89553703070958, 114.31428109607532, 3.4105635984376654, 4.3831921008965296, 1.0059848545518415, -3.585198074621607, -0.44347184685595153, -1.9143949857197666]

>  <energy>  (21) 
-350.5542865299969

>  <inter_energy>  (21) 
-340.9972578351517

>  <intra_energy>  (21) 
0.0

>  <rmsd>  (21) 
1.68871

>  <sdf_rank>  (21) 
0

$$$$

     RDKit          3D

 11 10  0  0  0  0  0  0  0  0999 V2000
   37.3132   34.6727  115.8990 P   0  0  1  0  0  0  0  0  0  0  0  0
   37.3196   35.5963  114.5763 O   0  0  0  0  0  0  0  0  0  0  0  0
   35.9131   34.2665  116.2767 O   0  0  0  0  0  0  0  0  0  0  0  0
   38.1181   33.4932  115.4440 O   0  0  0  0  0  0  0  0  0  0  0  0
   37.9495   35.4464  117.0321 O   0  0  0  0  0  0  0  0  0  0  0  0
   37.8940   35.2386  113.3238 C   0  0  0  0  0  0  0  0  0  0  0  0
   38.7971   36.3735  112.8977 C   0  0  0  0  0  0  0  0  0  0  0  0
   40.0080   36.3295  113.1491 O   0  0  0  0  0  0  0  0  0  0  0  0
   38.3719   37.3520  112.2583 O   0  0  0  0  0  0  0  0  0  0  0  0
   38.4785   34.3127  113.4293 H   0  0  0  0  0  0  0  0  0  0  0  0
   37.1091   35.0651  112.5729 H   0  0  0  0  0  0  0  0  0  0  0  0
  1  2  1  0
  1  3  2  0
  1  4  1  6
  1  5  1  0
  2  6  1  0
  6  7  1  0
  7  8  2  0
  7  9  1  0
  6 10  1  0
  6 11  1  0
M  CHG  3   4  -1   5  -1   9  -1
M  END
>  <filename_input>  (22) 
7THI_PGA_docked.sdf

>  <pdb_id>  (22) 
7THI_PGA

>  <pose_rank>  (22) 
21

>  <num_atoms_heavy>  (22) 
9

>  <num_torsions>  (22) 
3

>  <pose>  (22) 
[37.31956562114124, 35.59627113510825, 114.57625396108322, -0.5766014478742552, -0.5390044948774135, 1.5681112253330276, 3.2718392213733867, -11.478686613141253, 3.905009444928352]

>  <energy>  (22) 
-403.93561571099605

>  <inter_energy>  (22) 
-406.71724792973976

>  <intra_energy>  (22) 
0.0

>  <rmsd>  (22) 
0.966023

>  <sdf_rank>  (22) 
0

$$$$

     RDKit          3D

 11 10  0  0  0  0  0  0  0  0999 V2000
   37.0450   34.6782  115.8338 P   0  0  1  0  0  0  0  0  0  0  0  0
   37.3882   35.7334  114.6627 O   0  0  0  0  0  0  0  0  0  0  0  0
   37.1343   35.3202  117.1931 O   0  0  0  0  0  0  0  0  0  0  0  0
   35.6321   34.3082  115.4983 O   0  0  0  0  0  0  0  0  0  0  0  0
   38.0172   33.5230  115.7438 O   0  0  0  0  0  0  0  0  0  0  0  0
   37.5733   35.4091  113.2890 C   0  0  0  0  0  0  0  0  0  0  0  0
   38.2515   36.5891  112.6311 C   0  0  0  0  0  0  0  0  0  0  0  0
   39.0325   36.4083  111.6884 O   0  0  0  0  0  0  0  0  0  0  0  0
   38.0238   37.7610  112.9800 O   0  0  0  0  0  0  0  0  0  0  0  0
   38.2048   34.5132  113.1963 H   0  0  0  0  0  0  0  0  0  0  0  0
   36.6072   35.1991  112.8068 H   0  0  0  0  0  0  0  0  0  0  0  0
  1  2  1  0
  1  3  2  0
  1  4  1  6
  1  5  1  0
  2  6  1  0
  6  7  1  0
  7  8  2  0
  7  9  1  0
  6 10  1  0
  6 11  1  0
M  CHG  3   4  -1   5  -1   9  -1
M  END
>  <filename_input>  (23) 
7THI_PGA_docked.sdf

>  <pdb_id>  (23) 
7THI_PGA

>  <pose_rank>  (23) 
22

>  <num_atoms_heavy>  (23) 
9

>  <num_torsions>  (23) 
3

>  <pose>  (23) 
[37.38818392440582, 35.733440522716336, 114.66270807807449, -0.41632752227130965, -0.3670643489451116, 1.04574262077101, 1.9729194109639598, -12.09174813806829, 4.8265733101237345]

>  <energy>  (23) 
-425.317882090116

>  <inter_energy>  (23) 
-425.17543415985665

>  <intra_energy>  (23) 
0.0

>  <rmsd>  (23) 
1.18699

>  <sdf_rank>  (23) 
0

$$$$

     RDKit          3D

 11 10  0  0  0  0  0  0  0  0999 V2000
   36.2882   34.8732  115.6106 P   0  0  1  0  0  0  0  0  0  0  0  0
   37.6615   35.1168  114.7997 O   0  0  0  0  0  0  0  0  0  0  0  0
   36.5543   34.5861  117.0647 O   0  0  0  0  0  0  0  0  0  0  0  0
   35.5984   36.1918  115.4335 O   0  0  0  0  0  0  0  0  0  0  0  0
   35.5546   33.7102  114.9808 O   0  0  0  0  0  0  0  0  0  0  0  0
   38.3981   36.3347  114.7729 C   0  0  0  0  0  0  0  0  0  0  0  0
   38.3698   36.8514  113.3526 C   0  0  0  0  0  0  0  0  0  0  0  0
   38.1561   36.0733  112.4143 O   0  0  0  0  0  0  0  0  0  0  0  0
   38.5177   38.0570  113.0849 O   0  0  0  0  0  0  0  0  0  0  0  0
   37.9351   37.0687  115.4489 H   0  0  0  0  0  0  0  0  0  0  0  0
   39.4338   36.1686  115.1043 H   0  0  0  0  0  0  0  0  0  0  0  0
  1  2  1  0
  1  3  2  0
  1  4  1  1
  1  5  1  0
  2  6  1  0
  6  7  1  0
  7  8  2  0
  7  9  1  0
  6 10  1  0
  6 11  1  0
M  CHG  3   4  -1   5  -1   9  -1
M  END
>  <filename_input>  (24) 
7THI_PGA_docked.sdf

>  <pdb_id>  (24) 
7THI_PGA

>  <pose_rank>  (24) 
23

>  <num_atoms_heavy>  (24) 
9

>  <num_torsions>  (24) 
3

>  <pose>  (24) 
[37.66147126827569, 35.11682558322725, 114.79968055145758, 1.2351029405457186, 0.4192403395740879, -1.2804690419507654, 3.862766881999144, -4.958895189995898, 1.8530750446504953]

>  <energy>  (24) 
-416.7731890807672

>  <inter_energy>  (24) 
-419.2577524848753

>  <intra_energy>  (24) 
0.15588741554891103

>  <rmsd>  (24) 
1.18967

>  <sdf_rank>  (24) 
0

$$$$

     RDKit          3D

 11 10  0  0  0  0  0  0  0  0999 V2000
   36.3426   34.3099  115.0580 P   0  0  1  0  0  0  0  0  0  0  0  0
   36.9512   35.7365  114.6141 O   0  0  0  0  0  0  0  0  0  0  0  0
   36.9662   33.1820  114.2790 O   0  0  0  0  0  0  0  0  0  0  0  0
   36.7338   34.2546  116.5035 O   0  0  0  0  0  0  0  0  0  0  0  0
   34.8475   34.3299  114.8298 O   0  0  0  0  0  0  0  0  0  0  0  0
   38.3324   36.0816  114.6206 C   0  0  0  0  0  0  0  0  0  0  0  0
   38.5691   37.0294  113.4671 C   0  0  0  0  0  0  0  0  0  0  0  0
   38.0019   36.8405  112.3835 O   0  0  0  0  0  0  0  0  0  0  0  0
   39.2953   38.0334  113.5750 O   0  0  0  0  0  0  0  0  0  0  0  0
   38.5923   36.5728  115.5699 H   0  0  0  0  0  0  0  0  0  0  0  0
   38.9570   35.1820  114.5175 H   0  0  0  0  0  0  0  0  0  0  0  0
  1  2  1  0
  1  3  2  0
  1  4  1  1
  1  5  1  0
  2  6  1  0
  6  7  1  0
  7  8  2  0
  7  9  1  0
  6 10  1  0
  6 11  1  0
M  CHG  3   4  -1   5  -1   9  -1
M  END
>  <filename_input>  (25) 
7THI_PGA_docked.sdf

>  <pdb_id>  (25) 
7THI_PGA

>  <pose_rank>  (25) 
24

>  <num_atoms_heavy>  (25) 
9

>  <num_torsions>  (25) 
3

>  <pose>  (25) 
[36.95121260393732, 35.736517863086696, 114.61413229336121, 1.6495725568280015, 2.73479687455633, -2.0074427812540523, 16.868924939329776, -0.38465660586824546, 1.5524088052698781]

>  <energy>  (25) 
-408.4595551801758

>  <inter_energy>  (25) 
-398.47564097850716

>  <intra_energy>  (25) 
0.0

>  <rmsd>  (25) 
1.4304

>  <sdf_rank>  (25) 
0

$$$$

     RDKit          3D

 11 10  0  0  0  0  0  0  0  0999 V2000
   37.0710   34.8160  116.1140 P   0  0  1  0  0  0  0  0  0  0  0  0
   38.0520   35.6010  115.1020 O   0  0  0  0  0  0  0  0  0  0  0  0
   36.6040   33.5120  115.5230 O   0  0  0  0  0  0  0  0  0  0  0  0
   37.9730   34.5890  117.2890 O   0  0  0  0  0  0  0  0  0  0  0  0
   35.8820   35.7000  116.4180 O   0  0  0  0  0  0  0  0  0  0  0  0
   37.7200   36.0020  113.7770 C   0  0  0  0  0  0  0  0  0  0  0  0
   38.8070   36.9380  113.3000 C   0  0  0  0  0  0  0  0  0  0  0  0
   38.5100   38.0410  112.8240 O   0  0  0  0  0  0  0  0  0  0  0  0
   40.0140   36.6560  113.4030 O   0  0  0  0  0  0  0  0  0  0  0  0
   37.6677   35.1213  113.1200 H   0  0  0  0  0  0  0  0  0  0  0  0
   36.7410   36.5032  113.7576 H   0  0  0  0  0  0  0  0  0  0  0  0
  1  2  1  0
  1  3  2  0
  1  4  1  1
  1  5  1  0
  2  6  1  0
  6  7  1  0
  7  8  2  0
  7  9  1  0
  6 10  1  0
  6 11  1  0
M  CHG  3   4  -1   5  -1   9  -1
M  END
>  <filename_input>  (26) 
7THI_PGA_docked.sdf

>  <pdb_id>  (26) 
7THI_PGA

>  <pose_rank>  (26) 
25

>  <num_atoms_heavy>  (26) 
9

>  <num_torsions>  (26) 
3

>  <pose>  (26) 
[38.052, 35.601, 115.102, 1e-06, 1e-06, 1e-06, 0.0, 0.0, 0.0]

>  <energy>  (26) 
-483.77273521127177

>  <inter_energy>  (26) 
-485.9605863801368

>  <intra_energy>  (26) 
0.0

>  <rmsd>  (26) 
0.0

>  <sdf_rank>  (26) 
0

$$$$
