
     RDKit          3D

 16 15  0  0  0  0  0  0  0  0999 V2000
   -2.6941    1.8058   -4.4554 P   0  0  1  0  0  0  0  0  0  0  0  0
   -2.7986    1.9741   -5.9551 O   0  0  0  0  0  0  0  0  0  0  0  0
   -1.2914    2.1002   -3.9421 O   0  0  0  0  0  0  0  0  0  0  0  0
   -3.8090    2.5130   -3.6997 O   0  0  0  0  0  0  0  0  0  0  0  0
   -0.2858   -3.8783   -3.7714 O   0  0  0  0  0  0  0  0  0  0  0  0
    0.6245   -1.9553   -4.3747 O   0  0  0  0  0  0  0  0  0  0  0  0
   -2.9805    0.0198   -4.0584 C   0  0  0  0  0  0  0  0  0  0  0  0
   -1.6147   -1.9297   -3.4654 C   0  0  0  0  0  0  0  0  0  0  0  0
   -0.3379   -2.6328   -3.8994 C   0  0  0  0  0  0  0  0  0  0  0  0
   -1.7673   -0.7510   -4.3091 N   0  0  0  0  0  0  0  0  0  0  0  0
   -3.2605   -0.0769   -2.9991 H   0  0  0  0  0  0  0  0  0  0  0  0
   -3.7896   -0.3653   -4.6965 H   0  0  0  0  0  0  0  0  0  0  0  0
   -2.4769   -2.6003   -3.5957 H   0  0  0  0  0  0  0  0  0  0  0  0
   -1.5619   -1.6454   -2.4041 H   0  0  0  0  0  0  0  0  0  0  0  0
   -1.7788   -1.0583   -5.2921 H   0  0  0  0  0  0  0  0  0  0  0  0
   -0.9753   -0.1298   -4.0903 H   0  0  0  0  0  0  0  0  0  0  0  0
  1  2  2  0
  1  3  1  1
  1  4  1  0
  1  7  1  0
  5  9  1  0
  6  9  2  0
  7 10  1  0
  8  9  1  0
  8 10  1  0
  7 11  1  0
  7 12  1  0
  8 13  1  0
  8 14  1  0
 10 15  1  0
 10 16  1  0
M  CHG  4   3  -1   4  -1   5  -1  10   1
M  END
>  <filename_input>  (1) 
7TM6_GPJ_docked.sdf

>  <pdb_id>  (1) 
7TM6_GPJ

>  <pose_rank>  (1) 
0

>  <num_atoms_heavy>  (1) 
10

>  <num_torsions>  (1) 
4

>  <pose>  (1) 
[-2.9804773778024147, 0.01981538128641076, -4.058439650922736, 1.1400434634849366, -5.410419336041556, 2.673318130207194, -0.10241342299262422, 5.9940748970464375, -0.10944953986131038, 0.26087483658939964]

>  <energy>  (1) 
-681.296984486809

>  <inter_energy>  (1) 
-664.7540696001504

>  <intra_energy>  (1) 
0.0

>  <rmsd>  (1) 
0.34932

>  <sdf_rank>  (1) 
0

$$$$

     RDKit          3D

 16 15  0  0  0  0  0  0  0  0999 V2000
   -2.5977    1.7350   -4.6142 P   0  0  1  0  0  0  0  0  0  0  0  0
   -1.3075    2.5229   -4.5611 O   0  0  0  0  0  0  0  0  0  0  0  0
   -3.7250    2.4302   -3.8635 O   0  0  0  0  0  0  0  0  0  0  0  0
   -2.9569    1.2785   -6.0202 O   0  0  0  0  0  0  0  0  0  0  0  0
   -0.2040   -3.5645   -3.6848 O   0  0  0  0  0  0  0  0  0  0  0  0
   -2.2079   -2.7409   -3.2418 O   0  0  0  0  0  0  0  0  0  0  0  0
   -2.3336    0.1424   -3.7068 C   0  0  0  0  0  0  0  0  0  0  0  0
   -0.7215   -1.4510   -4.6448 C   0  0  0  0  0  0  0  0  0  0  0  0
   -1.0706   -2.6670   -3.8007 C   0  0  0  0  0  0  0  0  0  0  0  0
   -0.9390   -0.2722   -3.8157 N   0  0  0  0  0  0  0  0  0  0  0  0
   -2.5900    0.2813   -2.6462 H   0  0  0  0  0  0  0  0  0  0  0  0
   -2.9753   -0.6341   -4.1488 H   0  0  0  0  0  0  0  0  0  0  0  0
    0.3312   -1.5009   -4.9599 H   0  0  0  0  0  0  0  0  0  0  0  0
   -1.3462   -1.4120   -5.5495 H   0  0  0  0  0  0  0  0  0  0  0  0
   -0.4019    0.5085   -4.2194 H   0  0  0  0  0  0  0  0  0  0  0  0
   -0.6328   -0.5226   -2.8647 H   0  0  0  0  0  0  0  0  0  0  0  0
  1  2  2  0
  1  3  1  1
  1  4  1  0
  1  7  1  0
  5  9  1  0
  6  9  2  0
  7 10  1  0
  8  9  1  0
  8 10  1  0
  7 11  1  0
  7 12  1  0
  8 13  1  0
  8 14  1  0
 10 15  1  0
 10 16  1  0
M  CHG  4   3  -1   4  -1   5  -1  10   1
M  END
>  <filename_input>  (2) 
7TM6_GPJ_docked.sdf

>  <pdb_id>  (2) 
7TM6_GPJ

>  <pose_rank>  (2) 
1

>  <num_atoms_heavy>  (2) 
10

>  <num_torsions>  (2) 
4

>  <pose>  (2) 
[-2.333591809527646, 0.142389131937902, -3.7068133893498283, 4.603846735090222, -1.8483433515508885, -3.096329893278098, -8.304450638687724, 20.289493293929016, 1.6813337383060367, 6.963589842190595]

>  <energy>  (2) 
-522.7128442835696

>  <inter_energy>  (2) 
-534.1887479099807

>  <intra_energy>  (2) 
13.739825193004311

>  <rmsd>  (2) 
1.27841

>  <sdf_rank>  (2) 
0

$$$$

     RDKit          3D

 16 15  0  0  0  0  0  0  0  0999 V2000
   -2.9711    1.0948   -3.9957 P   0  0  1  0  0  0  0  0  0  0  0  0
   -4.0393    2.1027   -3.6334 O   0  0  0  0  0  0  0  0  0  0  0  0
   -2.9827    0.7558   -5.4798 O   0  0  0  0  0  0  0  0  0  0  0  0
   -1.6025    1.4533   -3.4362 O   0  0  0  0  0  0  0  0  0  0  0  0
    0.9794   -1.7981   -4.7009 O   0  0  0  0  0  0  0  0  0  0  0  0
   -0.4079   -3.2036   -3.7058 O   0  0  0  0  0  0  0  0  0  0  0  0
   -3.3735   -0.4981   -3.1411 C   0  0  0  0  0  0  0  0  0  0  0  0
   -1.1199   -0.9148   -4.0158 C   0  0  0  0  0  0  0  0  0  0  0  0
   -0.1172   -2.0506   -4.1497 C   0  0  0  0  0  0  0  0  0  0  0  0
   -2.2543   -1.4268   -3.2573 N   0  0  0  0  0  0  0  0  0  0  0  0
   -3.5728   -0.3000   -2.0776 H   0  0  0  0  0  0  0  0  0  0  0  0
   -4.2618   -0.9445   -3.6119 H   0  0  0  0  0  0  0  0  0  0  0  0
   -0.6615   -0.0687   -3.4828 H   0  0  0  0  0  0  0  0  0  0  0  0
   -1.4412   -0.5596   -5.0060 H   0  0  0  0  0  0  0  0  0  0  0  0
   -1.9285   -1.6583   -2.3080 H   0  0  0  0  0  0  0  0  0  0  0  0
   -2.6059   -2.2459   -3.7735 H   0  0  0  0  0  0  0  0  0  0  0  0
  1  2  2  0
  1  3  1  6
  1  4  1  0
  1  7  1  0
  5  9  1  0
  6  9  2  0
  7 10  1  0
  8  9  1  0
  8 10  1  0
  7 11  1  0
  7 12  1  0
  8 13  1  0
  8 14  1  0
 10 15  1  0
 10 16  1  0
M  CHG  4   3  -1   4  -1   5  -1  10   1
M  END
>  <filename_input>  (3) 
7TM6_GPJ_docked.sdf

>  <pdb_id>  (3) 
7TM6_GPJ

>  <pose_rank>  (3) 
2

>  <num_atoms_heavy>  (3) 
10

>  <num_torsions>  (3) 
4

>  <pose>  (3) 
[-3.373474907576441, -0.49806134774065697, -3.141109201778813, -4.904579579084878, 3.338178283892818, -3.024716742690774, 1.828806282980679, 3.346081682234139, 0.0240727004696228, 6.090663098351858]

>  <energy>  (3) 
-378.35546474490286

>  <inter_energy>  (3) 
-441.9615861516092

>  <intra_energy>  (3) 
52.01387791363507

>  <rmsd>  (3) 
0.944872

>  <sdf_rank>  (3) 
0

$$$$

     RDKit          3D

 16 15  0  0  0  0  0  0  0  0999 V2000
   -1.7860    7.6042    1.9748 P   0  0  1  0  0  0  0  0  0  0  0  0
   -2.9264    8.5972    1.9342 O   0  0  0  0  0  0  0  0  0  0  0  0
   -1.5871    7.0165    3.3649 O   0  0  0  0  0  0  0  0  0  0  0  0
   -1.8528    6.5775    0.8541 O   0  0  0  0  0  0  0  0  0  0  0  0
    3.1395    8.7285    1.0425 O   0  0  0  0  0  0  0  0  0  0  0  0
    3.3273    7.8972    3.0830 O   0  0  0  0  0  0  0  0  0  0  0  0
   -0.2167    8.5198    1.6167 C   0  0  0  0  0  0  0  0  0  0  0  0
    1.6865    9.6291    2.6960 C   0  0  0  0  0  0  0  0  0  0  0  0
    2.7917    8.6864    2.2456 C   0  0  0  0  0  0  0  0  0  0  0  0
    0.4782    8.8310    2.8613 N   0  0  0  0  0  0  0  0  0  0  0  0
    0.4320    7.8962    0.9841 H   0  0  0  0  0  0  0  0  0  0  0  0
   -0.4584    9.4578    1.0955 H   0  0  0  0  0  0  0  0  0  0  0  0
    1.9599   10.1008    3.6514 H   0  0  0  0  0  0  0  0  0  0  0  0
    1.5286   10.4269    1.9553 H   0  0  0  0  0  0  0  0  0  0  0  0
   -0.1698    9.3508    3.4702 H   0  0  0  0  0  0  0  0  0  0  0  0
    0.7748    7.9306    3.2641 H   0  0  0  0  0  0  0  0  0  0  0  0
  1  2  2  0
  1  3  1  1
  1  4  1  0
  1  7  1  0
  5  9  1  0
  6  9  2  0
  7 10  1  0
  8  9  1  0
  8 10  1  0
  7 11  1  0
  7 12  1  0
  8 13  1  0
  8 14  1  0
 10 15  1  0
 10 16  1  0
M  CHG  4   3  -1   4  -1   5  -1  10   1
M  END
>  <filename_input>  (4) 
7TM6_GPJ_docked.sdf

>  <pdb_id>  (4) 
7TM6_GPJ

>  <pose_rank>  (4) 
3

>  <num_atoms_heavy>  (4) 
10

>  <num_torsions>  (4) 
4

>  <pose>  (4) 
[-0.21667250557235682, 8.519833786015504, 1.616697968820948, 1.9065567577953693, -0.8855644873158708, 1.474469065341512, 0.23062437489954538, 0.2879625697692981, -4.595874277202941, -1.5776104310961045]

>  <energy>  (4) 
-149.68714184945173

>  <inter_energy>  (4) 
-130.40272682996033

>  <intra_energy>  (4) 
1.067484539725496

>  <rmsd>  (4) 
11.2988

>  <sdf_rank>  (4) 
0

$$$$

     RDKit          3D

 16 15  0  0  0  0  0  0  0  0999 V2000
   -1.4384    8.0921    1.0338 P   0  0  1  0  0  0  0  0  0  0  0  0
   -0.7293    7.4482   -0.1371 O   0  0  0  0  0  0  0  0  0  0  0  0
   -0.5582    8.1518    2.2744 O   0  0  0  0  0  0  0  0  0  0  0  0
   -2.1132    9.4059    0.6693 O   0  0  0  0  0  0  0  0  0  0  0  0
   -4.7217    8.5113    5.6352 O   0  0  0  0  0  0  0  0  0  0  0  0
   -4.4358    6.3944    5.0633 O   0  0  0  0  0  0  0  0  0  0  0  0
   -2.8594    7.0047    1.5109 C   0  0  0  0  0  0  0  0  0  0  0  0
   -3.6240    8.1077    3.5643 C   0  0  0  0  0  0  0  0  0  0  0  0
   -4.3051    7.6370    4.8401 C   0  0  0  0  0  0  0  0  0  0  0  0
   -2.9808    6.9458    2.9637 N   0  0  0  0  0  0  0  0  0  0  0  0
   -3.7881    7.4118    1.0845 H   0  0  0  0  0  0  0  0  0  0  0  0
   -2.6823    5.9906    1.1233 H   0  0  0  0  0  0  0  0  0  0  0  0
   -4.3692    8.5257    2.8716 H   0  0  0  0  0  0  0  0  0  0  0  0
   -2.8850    8.8925    3.7835 H   0  0  0  0  0  0  0  0  0  0  0  0
   -3.5330    6.1110    3.2067 H   0  0  0  0  0  0  0  0  0  0  0  0
   -2.0212    6.9168    3.3368 H   0  0  0  0  0  0  0  0  0  0  0  0
  1  2  2  0
  1  3  1  1
  1  4  1  0
  1  7  1  0
  5  9  1  0
  6  9  2  0
  7 10  1  0
  8  9  1  0
  8 10  1  0
  7 11  1  0
  7 12  1  0
  8 13  1  0
  8 14  1  0
 10 15  1  0
 10 16  1  0
M  CHG  4   3  -1   4  -1   5  -1  10   1
M  END
>  <filename_input>  (5) 
7TM6_GPJ_docked.sdf

>  <pdb_id>  (5) 
7TM6_GPJ

>  <pose_rank>  (5) 
4

>  <num_atoms_heavy>  (5) 
10

>  <num_torsions>  (5) 
4

>  <pose>  (5) 
[-2.859403065374333, 7.004698064662994, 1.5109121523459352, 2.399784832702829, 3.8511114102685706, 0.5991974845308975, 0.9545599280846231, 4.738870120897883, 5.710903764277486, -0.48144001339787035]

>  <energy>  (5) 
-147.4002862668881

>  <inter_energy>  (5) 
-127.51534319216603

>  <intra_energy>  (5) 
2.4676466120799385

>  <rmsd>  (5) 
11.3052

>  <sdf_rank>  (5) 
0

$$$$

     RDKit          3D

 16 15  0  0  0  0  0  0  0  0999 V2000
    1.2053    2.1564  -13.2157 P   0  0  1  0  0  0  0  0  0  0  0  0
    2.3910    1.2754  -13.5417 O   0  0  0  0  0  0  0  0  0  0  0  0
    0.8866    2.1605  -11.7271 O   0  0  0  0  0  0  0  0  0  0  0  0
    1.2990    3.5362  -13.8495 O   0  0  0  0  0  0  0  0  0  0  0  0
   -2.0148   -1.9838  -11.8348 O   0  0  0  0  0  0  0  0  0  0  0  0
    0.0555   -2.5752  -12.3390 O   0  0  0  0  0  0  0  0  0  0  0  0
   -0.2921    1.4220  -14.0205 C   0  0  0  0  0  0  0  0  0  0  0  0
   -1.0235   -0.8980  -13.7043 C   0  0  0  0  0  0  0  0  0  0  0  0
   -0.9892   -1.8854  -12.5481 C   0  0  0  0  0  0  0  0  0  0  0  0
   -0.9066    0.4386  -13.1350 N   0  0  0  0  0  0  0  0  0  0  0  0
   -1.0174    2.2204  -14.2364 H   0  0  0  0  0  0  0  0  0  0  0  0
    0.0085    0.9262  -14.9552 H   0  0  0  0  0  0  0  0  0  0  0  0
   -0.1844   -1.0905  -14.3890 H   0  0  0  0  0  0  0  0  0  0  0  0
   -1.9585   -0.9983  -14.2750 H   0  0  0  0  0  0  0  0  0  0  0  0
   -0.3362    0.3751  -12.2797 H   0  0  0  0  0  0  0  0  0  0  0  0
   -1.8667    0.7655  -12.9557 H   0  0  0  0  0  0  0  0  0  0  0  0
  1  2  2  0
  1  3  1  1
  1  4  1  0
  1  7  1  0
  5  9  1  0
  6  9  2  0
  7 10  1  0
  8  9  1  0
  8 10  1  0
  7 11  1  0
  7 12  1  0
  8 13  1  0
  8 14  1  0
 10 15  1  0
 10 16  1  0
M  CHG  4   3  -1   4  -1   5  -1  10   1
M  END
>  <filename_input>  (6) 
7TM6_GPJ_docked.sdf

>  <pdb_id>  (6) 
7TM6_GPJ

>  <pose_rank>  (6) 
5

>  <num_atoms_heavy>  (6) 
10

>  <num_torsions>  (6) 
4

>  <pose>  (6) 
[-0.2921362189875714, 1.4220113066380267, -14.02046873297008, 0.7955681600090795, 3.6337647086468747, 2.579189670060298, 0.0356143537383506, 1.2304588195569313, -0.5614201104196613, -2.1066785642276695]

>  <energy>  (6) 
-134.44200314363178

>  <inter_energy>  (6) 
-131.1915743057142

>  <intra_energy>  (6) 
0.0

>  <rmsd>  (6) 
9.55363

>  <sdf_rank>  (6) 
0

$$$$

     RDKit          3D

 16 15  0  0  0  0  0  0  0  0999 V2000
   -1.1770    1.0459  -13.1497 P   0  0  1  0  0  0  0  0  0  0  0  0
   -0.2427    2.0546  -12.5189 O   0  0  0  0  0  0  0  0  0  0  0  0
   -2.2668    1.7134  -13.9771 O   0  0  0  0  0  0  0  0  0  0  0  0
   -0.4420   -0.0820  -13.8582 O   0  0  0  0  0  0  0  0  0  0  0  0
   -1.2518   -3.4837  -13.1971 O   0  0  0  0  0  0  0  0  0  0  0  0
   -3.3034   -3.3162  -14.0053 O   0  0  0  0  0  0  0  0  0  0  0  0
   -2.0805    0.1732  -11.7890 C   0  0  0  0  0  0  0  0  0  0  0  0
   -2.7864   -2.1712  -11.9405 C   0  0  0  0  0  0  0  0  0  0  0  0
   -2.4249   -3.0484  -13.1292 C   0  0  0  0  0  0  0  0  0  0  0  0
   -1.6891   -1.2317  -11.7470 N   0  0  0  0  0  0  0  0  0  0  0  0
   -1.8360    0.6478  -10.8273 H   0  0  0  0  0  0  0  0  0  0  0  0
   -3.1625    0.2397  -11.9753 H   0  0  0  0  0  0  0  0  0  0  0  0
   -3.7186   -1.6244  -12.1457 H   0  0  0  0  0  0  0  0  0  0  0  0
   -2.9411   -2.7813  -11.0384 H   0  0  0  0  0  0  0  0  0  0  0  0
   -0.9923   -1.3938  -12.4880 H   0  0  0  0  0  0  0  0  0  0  0  0
   -1.3191   -1.4044  -10.8013 H   0  0  0  0  0  0  0  0  0  0  0  0
  1  2  2  0
  1  3  1  6
  1  4  1  0
  1  7  1  0
  5  9  1  0
  6  9  2  0
  7 10  1  0
  8  9  1  0
  8 10  1  0
  7 11  1  0
  7 12  1  0
  8 13  1  0
  8 14  1  0
 10 15  1  0
 10 16  1  0
M  CHG  4   3  -1   4  -1   5  -1  10   1
M  END
>  <filename_input>  (7) 
7TM6_GPJ_docked.sdf

>  <pdb_id>  (7) 
7TM6_GPJ

>  <pose_rank>  (7) 
6

>  <num_atoms_heavy>  (7) 
10

>  <num_torsions>  (7) 
4

>  <pose>  (7) 
[-2.080466096672871, 0.17319752034866548, -11.78903656792959, -0.5108553294627253, 0.4696554050532698, -0.7574975283389126, 2.807357856226805, 1.2644611374538266, -1.0652418133977577, 3.634037041760329]

>  <energy>  (7) 
-130.16864241064044

>  <inter_energy>  (7) 
-123.23894763547413

>  <intra_energy>  (7) 
0.0

>  <rmsd>  (7) 
9.17793

>  <sdf_rank>  (7) 
0

$$$$

     RDKit          3D

 16 15  0  0  0  0  0  0  0  0999 V2000
   -2.9083   -2.1462  -12.8411 P   0  0  1  0  0  0  0  0  0  0  0  0
   -3.6621   -2.8753  -11.7509 O   0  0  0  0  0  0  0  0  0  0  0  0
   -2.0254   -3.0839  -13.6529 O   0  0  0  0  0  0  0  0  0  0  0  0
   -3.7995   -1.2346  -13.6712 O   0  0  0  0  0  0  0  0  0  0  0  0
   -0.2078    2.3155  -12.3035 O   0  0  0  0  0  0  0  0  0  0  0  0
    1.4682    1.9991  -13.7110 O   0  0  0  0  0  0  0  0  0  0  0  0
   -1.7318   -0.9663  -12.0330 C   0  0  0  0  0  0  0  0  0  0  0  0
   -0.1987    0.2615  -13.5025 C   0  0  0  0  0  0  0  0  0  0  0  0
    0.3953    1.6168  -13.1511 C   0  0  0  0  0  0  0  0  0  0  0  0
   -1.5191    0.1959  -12.8890 N   0  0  0  0  0  0  0  0  0  0  0  0
   -2.1505   -0.6373  -11.0704 H   0  0  0  0  0  0  0  0  0  0  0  0
   -0.7695   -1.4734  -11.8692 H   0  0  0  0  0  0  0  0  0  0  0  0
   -0.2853    0.1599  -14.5944 H   0  0  0  0  0  0  0  0  0  0  0  0
    0.4430   -0.5527  -13.1346 H   0  0  0  0  0  0  0  0  0  0  0  0
   -2.2226    0.1745  -13.6411 H   0  0  0  0  0  0  0  0  0  0  0  0
   -1.6020    1.0248  -12.2832 H   0  0  0  0  0  0  0  0  0  0  0  0
  1  2  2  0
  1  3  1  6
  1  4  1  0
  1  7  1  0
  5  9  1  0
  6  9  2  0
  7 10  1  0
  8  9  1  0
  8 10  1  0
  7 11  1  0
  7 12  1  0
  8 13  1  0
  8 14  1  0
 10 15  1  0
 10 16  1  0
M  CHG  4   3  -1   4  -1   5  -1  10   1
M  END
>  <filename_input>  (8) 
7TM6_GPJ_docked.sdf

>  <pdb_id>  (8) 
7TM6_GPJ

>  <pose_rank>  (8) 
7

>  <num_atoms_heavy>  (8) 
10

>  <num_torsions>  (8) 
4

>  <pose>  (8) 
[-1.7318224798668798, -0.966294214855401, -12.032963925086081, 1.8983676238286136, -0.31118855220436525, -3.509599876527379, 2.173294696491834, 1.4617906972869121, 0.8753715425814931, -3.244267664327221]

>  <energy>  (8) 
-130.03821423525898

>  <inter_energy>  (8) 
-113.48951029380719

>  <intra_energy>  (8) 
0.0

>  <rmsd>  (8) 
9.83767

>  <sdf_rank>  (8) 
0

$$$$

     RDKit          3D

 16 15  0  0  0  0  0  0  0  0999 V2000
    0.7922    7.4192  -12.2660 P   0  0  1  0  0  0  0  0  0  0  0  0
   -0.2511    8.2620  -12.9657 O   0  0  0  0  0  0  0  0  0  0  0  0
    0.1917    6.1696  -11.6370 O   0  0  0  0  0  0  0  0  0  0  0  0
    2.0254    7.1704  -13.1214 O   0  0  0  0  0  0  0  0  0  0  0  0
    3.5807    9.4994   -8.2220 O   0  0  0  0  0  0  0  0  0  0  0  0
    5.5719    8.7635   -8.8412 O   0  0  0  0  0  0  0  0  0  0  0  0
    1.4563    8.3969  -10.8405 C   0  0  0  0  0  0  0  0  0  0  0  0
    3.8324    8.9109  -10.5126 C   0  0  0  0  0  0  0  0  0  0  0  0
    4.3669    9.0687   -9.0976 C   0  0  0  0  0  0  0  0  0  0  0  0
    2.7782    7.9054  -10.4669 N   0  0  0  0  0  0  0  0  0  0  0  0
    1.5301    9.4559  -11.1287 H   0  0  0  0  0  0  0  0  0  0  0  0
    0.7766    8.2888   -9.9824 H   0  0  0  0  0  0  0  0  0  0  0  0
    3.4248    9.8679  -10.8702 H   0  0  0  0  0  0  0  0  0  0  0  0
    4.6342    8.6041  -11.2004 H   0  0  0  0  0  0  0  0  0  0  0  0
    2.7252    7.5383   -9.5060 H   0  0  0  0  0  0  0  0  0  0  0  0
    3.0296    7.1859  -11.1598 H   0  0  0  0  0  0  0  0  0  0  0  0
  1  2  2  0
  1  3  1  1
  1  4  1  0
  1  7  1  0
  5  9  1  0
  6  9  2  0
  7 10  1  0
  8  9  1  0
  8 10  1  0
  7 11  1  0
  7 12  1  0
  8 13  1  0
  8 14  1  0
 10 15  1  0
 10 16  1  0
M  CHG  4   3  -1   4  -1   5  -1  10   1
M  END
>  <filename_input>  (9) 
7TM6_GPJ_docked.sdf

>  <pdb_id>  (9) 
7TM6_GPJ

>  <pose_rank>  (9) 
8

>  <num_atoms_heavy>  (9) 
10

>  <num_torsions>  (9) 
4

>  <pose>  (9) 
[1.4562771293317645, 8.396941692617284, -10.840460141894281, 3.9720357776028883, -1.342670603608458, 0.21018420943091504, 2.04272524405306, -0.7846487166142341, -1.1650408452341512, -4.519942775337041]

>  <energy>  (9) 
-82.31039602843711

>  <inter_energy>  (9) 
-77.52823570453639

>  <intra_energy>  (9) 
0.08280318121135678

>  <rmsd>  (9) 
12.2624

>  <sdf_rank>  (9) 
0

$$$$

     RDKit          3D

 16 15  0  0  0  0  0  0  0  0999 V2000
   -1.1204   -2.6104  -11.9803 P   0  0  1  0  0  0  0  0  0  0  0  0
   -2.4973   -1.9848  -12.0107 O   0  0  0  0  0  0  0  0  0  0  0  0
   -0.5007   -2.5645  -10.5905 O   0  0  0  0  0  0  0  0  0  0  0  0
   -1.0731   -3.9742  -12.6527 O   0  0  0  0  0  0  0  0  0  0  0  0
   -2.4342    1.1608  -14.0231 O   0  0  0  0  0  0  0  0  0  0  0  0
   -1.6114    2.2837  -12.3050 O   0  0  0  0  0  0  0  0  0  0  0  0
    0.0001   -1.5798  -13.0347 C   0  0  0  0  0  0  0  0  0  0  0  0
   -0.1323    0.8185  -13.5326 C   0  0  0  0  0  0  0  0  0  0  0  0
   -1.4824    1.4668  -13.2678 C   0  0  0  0  0  0  0  0  0  0  0  0
    0.0567   -0.2149  -12.5223 N   0  0  0  0  0  0  0  0  0  0  0  0
    1.0106   -2.0143  -13.0244 H   0  0  0  0  0  0  0  0  0  0  0  0
   -0.3895   -1.5621  -14.0632 H   0  0  0  0  0  0  0  0  0  0  0  0
   -0.1204    0.3701  -14.5369 H   0  0  0  0  0  0  0  0  0  0  0  0
    0.6747    1.5644  -13.4831 H   0  0  0  0  0  0  0  0  0  0  0  0
   -0.6803   -0.1077  -11.8107 H   0  0  0  0  0  0  0  0  0  0  0  0
    1.0052   -0.0836  -12.1430 H   0  0  0  0  0  0  0  0  0  0  0  0
  1  2  2  0
  1  3  1  1
  1  4  1  0
  1  7  1  0
  5  9  1  0
  6  9  2  0
  7 10  1  0
  8  9  1  0
  8 10  1  0
  7 11  1  0
  7 12  1  0
  8 13  1  0
  8 14  1  0
 10 15  1  0
 10 16  1  0
M  CHG  4   3  -1   4  -1   5  -1  10   1
M  END
>  <filename_input>  (10) 
7TM6_GPJ_docked.sdf

>  <pdb_id>  (10) 
7TM6_GPJ

>  <pose_rank>  (10) 
9

>  <num_atoms_heavy>  (10) 
10

>  <num_torsions>  (10) 
4

>  <pose>  (10) 
[0.00010761399432439788, -1.5798062036594085, -13.034724352466055, -2.310119196544949, -0.4223526137055459, -3.130857742236852, -0.45112854977107764, 1.0655230761011076, -1.286131277810567, 1.0563343557585834]

>  <energy>  (10) 
-119.732512347468

>  <inter_energy>  (10) 
-91.80493523759768

>  <intra_energy>  (10) 
0.0

>  <rmsd>  (10) 
9.73856

>  <sdf_rank>  (10) 
0

$$$$

     RDKit          3D

 16 15  0  0  0  0  0  0  0  0999 V2000
  -10.9379   -2.4740    3.0554 P   0  0  1  0  0  0  0  0  0  0  0  0
  -11.3193   -3.8371    3.5889 O   0  0  0  0  0  0  0  0  0  0  0  0
  -11.7322   -1.3567    3.7174 O   0  0  0  0  0  0  0  0  0  0  0  0
   -9.4335   -2.2500    3.0205 O   0  0  0  0  0  0  0  0  0  0  0  0
  -10.9657    0.9406   -1.1364 O   0  0  0  0  0  0  0  0  0  0  0  0
  -11.0240   -0.6146   -2.7073 O   0  0  0  0  0  0  0  0  0  0  0  0
  -11.4176   -2.4039    1.2682 C   0  0  0  0  0  0  0  0  0  0  0  0
  -10.2117   -1.2279   -0.5152 C   0  0  0  0  0  0  0  0  0  0  0  0
  -10.7727   -0.2358   -1.5223 C   0  0  0  0  0  0  0  0  0  0  0  0
  -11.0218   -1.1233    0.6920 N   0  0  0  0  0  0  0  0  0  0  0  0
  -10.9157   -3.2179    0.7246 H   0  0  0  0  0  0  0  0  0  0  0  0
  -12.5089   -2.5143    1.1840 H   0  0  0  0  0  0  0  0  0  0  0  0
  -10.2694   -2.2490   -0.9201 H   0  0  0  0  0  0  0  0  0  0  0  0
   -9.1564   -1.0073   -0.2969 H   0  0  0  0  0  0  0  0  0  0  0  0
  -11.8763   -0.5965    0.4612 H   0  0  0  0  0  0  0  0  0  0  0  0
  -10.4368   -0.6531    1.3974 H   0  0  0  0  0  0  0  0  0  0  0  0
  1  2  2  0
  1  3  1  1
  1  4  1  0
  1  7  1  0
  5  9  1  0
  6  9  2  0
  7 10  1  0
  8  9  1  0
  8 10  1  0
  7 11  1  0
  7 12  1  0
  8 13  1  0
  8 14  1  0
 10 15  1  0
 10 16  1  0
M  CHG  4   3  -1   4  -1   5  -1  10   1
M  END
>  <filename_input>  (11) 
7TM6_GPJ_docked.sdf

>  <pdb_id>  (11) 
7TM6_GPJ

>  <pose_rank>  (11) 
10

>  <num_atoms_heavy>  (11) 
10

>  <num_torsions>  (11) 
4

>  <pose>  (11) 
[-11.417647987804264, -2.4038674245886424, 1.2681618888801995, 1.8032196610797266, 0.959322781600475, 0.6347057806028311, 1.6876656226553435, -0.7091847788443559, -0.8618928128108474, -2.5425010552826857]

>  <energy>  (11) 
-118.14671325671334

>  <inter_energy>  (11) 
-87.72650975689967

>  <intra_energy>  (11) 
0.0

>  <rmsd>  (11) 
11.2432

>  <sdf_rank>  (11) 
0

$$$$

     RDKit          3D

 16 15  0  0  0  0  0  0  0  0999 V2000
    5.1338    8.2949   -7.5623 P   0  0  1  0  0  0  0  0  0  0  0  0
    5.6634    8.0963   -8.9653 O   0  0  0  0  0  0  0  0  0  0  0  0
    6.0722    9.1373   -6.7094 O   0  0  0  0  0  0  0  0  0  0  0  0
    3.6789    8.7385   -7.5344 O   0  0  0  0  0  0  0  0  0  0  0  0
    7.6201    3.7406   -7.9741 O   0  0  0  0  0  0  0  0  0  0  0  0
    7.3777    3.8327   -5.7780 O   0  0  0  0  0  0  0  0  0  0  0  0
    5.0883    6.6421   -6.7284 C   0  0  0  0  0  0  0  0  0  0  0  0
    7.4110    5.9077   -7.0168 C   0  0  0  0  0  0  0  0  0  0  0  0
    7.4724    4.3916   -6.9136 C   0  0  0  0  0  0  0  0  0  0  0  0
    6.3742    6.3619   -6.0986 N   0  0  0  0  0  0  0  0  0  0  0  0
    4.3001    6.6435   -5.9610 H   0  0  0  0  0  0  0  0  0  0  0  0
    4.8787    5.8659   -7.4792 H   0  0  0  0  0  0  0  0  0  0  0  0
    8.3808    6.3440   -6.7354 H   0  0  0  0  0  0  0  0  0  0  0  0
    7.1835    6.2196   -8.0468 H   0  0  0  0  0  0  0  0  0  0  0  0
    6.7038    7.2247   -5.6426 H   0  0  0  0  0  0  0  0  0  0  0  0
    6.2132    5.5913   -5.4344 H   0  0  0  0  0  0  0  0  0  0  0  0
  1  2  2  0
  1  3  1  1
  1  4  1  0
  1  7  1  0
  5  9  1  0
  6  9  2  0
  7 10  1  0
  8  9  1  0
  8 10  1  0
  7 11  1  0
  7 12  1  0
  8 13  1  0
  8 14  1  0
 10 15  1  0
 10 16  1  0
M  CHG  4   3  -1   4  -1   5  -1  10   1
M  END
>  <filename_input>  (12) 
7TM6_GPJ_docked.sdf

>  <pdb_id>  (12) 
7TM6_GPJ

>  <pose_rank>  (12) 
11

>  <num_atoms_heavy>  (12) 
10

>  <num_torsions>  (12) 
4

>  <pose>  (12) 
[5.088262648755003, 6.642071441150804, -6.728351375577883, 3.0682169445940004, 4.185657979160953, -2.321114832564261, -6.249567972184068, 1.9882721922024158, 1.346065864395293, -0.9796657244778981]

>  <energy>  (12) 
-116.59337091645997

>  <inter_energy>  (12) 
-112.76486702842752

>  <intra_energy>  (12) 
1.3074433031050043

>  <rmsd>  (12) 
11.1296

>  <sdf_rank>  (12) 
0

$$$$

     RDKit          3D

 16 15  0  0  0  0  0  0  0  0999 V2000
   -1.9862   -0.9536  -12.7107 P   0  0  1  0  0  0  0  0  0  0  0  0
   -1.0571   -0.6423  -11.5582 O   0  0  0  0  0  0  0  0  0  0  0  0
   -2.6491    0.2990  -13.2668 O   0  0  0  0  0  0  0  0  0  0  0  0
   -1.3506   -1.8550  -13.7586 O   0  0  0  0  0  0  0  0  0  0  0  0
   -6.7273   -1.2039  -12.6957 O   0  0  0  0  0  0  0  0  0  0  0  0
   -6.9895   -3.1063  -13.7922 O   0  0  0  0  0  0  0  0  0  0  0  0
   -3.3822   -1.9811  -12.0592 C   0  0  0  0  0  0  0  0  0  0  0  0
   -4.8813   -1.9430  -14.0006 C   0  0  0  0  0  0  0  0  0  0  0  0
   -6.2945   -2.0975  -13.4602 C   0  0  0  0  0  0  0  0  0  0  0  0
   -4.0029   -2.7315  -13.1457 N   0  0  0  0  0  0  0  0  0  0  0  0
   -2.9961   -2.6837  -11.3061 H   0  0  0  0  0  0  0  0  0  0  0  0
   -4.1338   -1.3195  -11.6038 H   0  0  0  0  0  0  0  0  0  0  0  0
   -4.8312   -2.3128  -15.0353 H   0  0  0  0  0  0  0  0  0  0  0  0
   -4.5778   -0.8857  -14.0019 H   0  0  0  0  0  0  0  0  0  0  0  0
   -3.2542   -3.1275  -13.7318 H   0  0  0  0  0  0  0  0  0  0  0  0
   -4.5927   -3.4516  -12.7046 H   0  0  0  0  0  0  0  0  0  0  0  0
  1  2  2  0
  1  3  1  6
  1  4  1  0
  1  7  1  0
  5  9  1  0
  6  9  2  0
  7 10  1  0
  8  9  1  0
  8 10  1  0
  7 11  1  0
  7 12  1  0
  8 13  1  0
  8 14  1  0
 10 15  1  0
 10 16  1  0
M  CHG  4   3  -1   4  -1   5  -1  10   1
M  END
>  <filename_input>  (13) 
7TM6_GPJ_docked.sdf

>  <pdb_id>  (13) 
7TM6_GPJ

>  <pose_rank>  (13) 
12

>  <num_atoms_heavy>  (13) 
10

>  <num_torsions>  (13) 
4

>  <pose>  (13) 
[-3.382233014896028, -1.9810975675706495, -12.059226421627995, -1.386871694629483, -3.3255740331991457, 2.922125365923564, 2.032611132841217, 2.0231381104117254, 1.4310395068990658, -1.7237546441910307]

>  <energy>  (13) 
-114.98167233347645

>  <inter_energy>  (13) 
-101.7606238250103

>  <intra_energy>  (13) 
4.177507935340244

>  <rmsd>  (13) 
10.07

>  <sdf_rank>  (13) 
0

$$$$

     RDKit          3D

 16 15  0  0  0  0  0  0  0  0999 V2000
    6.3583   -8.8616  -12.2773 P   0  0  1  0  0  0  0  0  0  0  0  0
    7.5049   -9.1150  -11.3237 O   0  0  0  0  0  0  0  0  0  0  0  0
    6.7987   -8.9264  -13.7331 O   0  0  0  0  0  0  0  0  0  0  0  0
    5.1213   -9.6846  -11.9501 O   0  0  0  0  0  0  0  0  0  0  0  0
    6.8350   -3.7896  -11.2622 O   0  0  0  0  0  0  0  0  0  0  0  0
    7.6280   -5.4113   -9.9848 O   0  0  0  0  0  0  0  0  0  0  0  0
    5.7838   -7.1184  -12.0314 C   0  0  0  0  0  0  0  0  0  0  0  0
    7.7404   -5.6813  -12.3840 C   0  0  0  0  0  0  0  0  0  0  0  0
    7.3787   -4.9101  -11.1240 C   0  0  0  0  0  0  0  0  0  0  0  0
    6.5020   -6.2216  -12.9307 N   0  0  0  0  0  0  0  0  0  0  0  0
    4.7058   -7.0576  -12.2417 H   0  0  0  0  0  0  0  0  0  0  0  0
    5.9802   -6.8182  -10.9916 H   0  0  0  0  0  0  0  0  0  0  0  0
    8.2128   -5.0085  -13.1148 H   0  0  0  0  0  0  0  0  0  0  0  0
    8.4512   -6.4893  -12.1560 H   0  0  0  0  0  0  0  0  0  0  0  0
    6.7298   -6.7421  -13.7898 H   0  0  0  0  0  0  0  0  0  0  0  0
    5.8811   -5.4173  -13.0996 H   0  0  0  0  0  0  0  0  0  0  0  0
  1  2  2  0
  1  3  1  6
  1  4  1  0
  1  7  1  0
  5  9  1  0
  6  9  2  0
  7 10  1  0
  8  9  1  0
  8 10  1  0
  7 11  1  0
  7 12  1  0
  8 13  1  0
  8 14  1  0
 10 15  1  0
 10 16  1  0
M  CHG  4   3  -1   4  -1   5  -1  10   1
M  END
>  <filename_input>  (14) 
7TM6_GPJ_docked.sdf

>  <pdb_id>  (14) 
7TM6_GPJ

>  <pose_rank>  (14) 
13

>  <num_atoms_heavy>  (14) 
10

>  <num_torsions>  (14) 
4

>  <pose>  (14) 
[5.783836563269683, -7.118368542575848, -12.03144425721407, -2.6995118130988294, -0.23975138250205957, 1.4506748707252186, 0.09166537215009786, 1.8018152136673369, 2.0297297777800587, 1.5604670056183216]

>  <energy>  (14) 
-114.75900517346926

>  <inter_energy>  (14) 
-99.79097865984927

>  <intra_energy>  (14) 
3.8865664226653576

>  <rmsd>  (14) 
13.9791

>  <sdf_rank>  (14) 
0

$$$$

     RDKit          3D

 16 15  0  0  0  0  0  0  0  0999 V2000
    4.0214   -0.5921    2.2521 P   0  0  1  0  0  0  0  0  0  0  0  0
    2.9744   -0.3825    1.1806 O   0  0  0  0  0  0  0  0  0  0  0  0
    3.8932   -1.9542    2.9199 O   0  0  0  0  0  0  0  0  0  0  0  0
    5.4265   -0.2428    1.7852 O   0  0  0  0  0  0  0  0  0  0  0  0
    6.9716    0.9038    6.0975 O   0  0  0  0  0  0  0  0  0  0  0  0
    7.4377    2.9207    5.3197 O   0  0  0  0  0  0  0  0  0  0  0  0
    3.7085    0.6323    3.6056 C   0  0  0  0  0  0  0  0  0  0  0  0
    5.2250    2.0265    4.9375 C   0  0  0  0  0  0  0  0  0  0  0  0
    6.6403    1.9478    5.4888 C   0  0  0  0  0  0  0  0  0  0  0  0
    4.8522    0.6839    4.5101 N   0  0  0  0  0  0  0  0  0  0  0  0
    3.5476    1.6276    3.1657 H   0  0  0  0  0  0  0  0  0  0  0  0
    2.8166    0.3238    4.1707 H   0  0  0  0  0  0  0  0  0  0  0  0
    4.5354    2.3781    5.7192 H   0  0  0  0  0  0  0  0  0  0  0  0
    5.1733    2.7322    4.0954 H   0  0  0  0  0  0  0  0  0  0  0  0
    4.6242    0.1311    5.3488 H   0  0  0  0  0  0  0  0  0  0  0  0
    5.6564    0.3092    3.9870 H   0  0  0  0  0  0  0  0  0  0  0  0
  1  2  2  0
  1  3  1  1
  1  4  1  0
  1  7  1  0
  5  9  1  0
  6  9  2  0
  7 10  1  0
  8  9  1  0
  8 10  1  0
  7 11  1  0
  7 12  1  0
  8 13  1  0
  8 14  1  0
 10 15  1  0
 10 16  1  0
M  CHG  4   3  -1   4  -1   5  -1  10   1
M  END
>  <filename_input>  (15) 
7TM6_GPJ_docked.sdf

>  <pdb_id>  (15) 
7TM6_GPJ

>  <pose_rank>  (15) 
14

>  <num_atoms_heavy>  (15) 
10

>  <num_torsions>  (15) 
4

>  <pose>  (15) 
[3.708549697432782, 0.632300093431523, 3.605638403862756, 4.131524816323858, -0.08477345699538466, 0.6188882320508186, 1.8742521062364401, -0.5064069521437824, 0.23268693735673104, 2.2673943902708857]

>  <energy>  (15) 
-110.12968019896354

>  <inter_energy>  (15) 
-83.21868818558191

>  <intra_energy>  (15) 
0.0

>  <rmsd>  (15) 
11.1285

>  <sdf_rank>  (15) 
0

$$$$

     RDKit          3D

 16 15  0  0  0  0  0  0  0  0999 V2000
   -2.0524    8.7829    3.4823 P   0  0  1  0  0  0  0  0  0  0  0  0
   -1.7203    9.1579    2.0549 O   0  0  0  0  0  0  0  0  0  0  0  0
   -0.8142    8.7422    4.3670 O   0  0  0  0  0  0  0  0  0  0  0  0
   -3.2142    9.5835    4.0513 O   0  0  0  0  0  0  0  0  0  0  0  0
    0.6893    6.1519    6.0616 O   0  0  0  0  0  0  0  0  0  0  0  0
    0.5274    4.3570    4.7801 O   0  0  0  0  0  0  0  0  0  0  0  0
   -2.6948    7.0461    3.4833 C   0  0  0  0  0  0  0  0  0  0  0  0
   -1.4482    5.7076    5.1180 C   0  0  0  0  0  0  0  0  0  0  0  0
    0.0219    5.3821    5.3320 C   0  0  0  0  0  0  0  0  0  0  0  0
   -1.6042    6.1076    3.7251 N   0  0  0  0  0  0  0  0  0  0  0  0
   -3.4500    6.9380    4.2757 H   0  0  0  0  0  0  0  0  0  0  0  0
   -3.1458    6.8288    2.5038 H   0  0  0  0  0  0  0  0  0  0  0  0
   -2.0646    4.8207    5.3264 H   0  0  0  0  0  0  0  0  0  0  0  0
   -1.7715    6.5133    5.7935 H   0  0  0  0  0  0  0  0  0  0  0  0
   -1.7782    5.2609    3.1649 H   0  0  0  0  0  0  0  0  0  0  0  0
   -0.7354    6.5939    3.4611 H   0  0  0  0  0  0  0  0  0  0  0  0
  1  2  2  0
  1  3  1  1
  1  4  1  0
  1  7  1  0
  5  9  1  0
  6  9  2  0
  7 10  1  0
  8  9  1  0
  8 10  1  0
  7 11  1  0
  7 12  1  0
  8 13  1  0
  8 14  1  0
 10 15  1  0
 10 16  1  0
M  CHG  4   3  -1   4  -1   5  -1  10   1
M  END
>  <filename_input>  (16) 
7TM6_GPJ_docked.sdf

>  <pdb_id>  (16) 
7TM6_GPJ

>  <pose_rank>  (16) 
15

>  <num_atoms_heavy>  (16) 
10

>  <num_torsions>  (16) 
4

>  <pose>  (16) 
[-2.69477043627951, 7.046051304894671, 3.483281086614399, -1.2467954586783287, 4.983122028122226, 2.826890102688461, 0.1290264910358595, -1.2572447212099411, 0.4341259871710052, 4.814535144447945]

>  <energy>  (16) 
-110.0379546817997

>  <inter_energy>  (16) 
-93.34382717427987

>  <intra_energy>  (16) 
5.050293808504905

>  <rmsd>  (16) 
11.2766

>  <sdf_rank>  (16) 
0

$$$$

     RDKit          3D

 16 15  0  0  0  0  0  0  0  0999 V2000
   -4.1896    9.1086    3.6511 P   0  0  1  0  0  0  0  0  0  0  0  0
   -4.9315    9.5463    2.4076 O   0  0  0  0  0  0  0  0  0  0  0  0
   -2.6870    9.3185    3.5257 O   0  0  0  0  0  0  0  0  0  0  0  0
   -4.8031    9.6551    4.9314 O   0  0  0  0  0  0  0  0  0  0  0  0
   -2.3046    3.8981    5.6317 O   0  0  0  0  0  0  0  0  0  0  0  0
   -4.0394    5.2012    6.0588 O   0  0  0  0  0  0  0  0  0  0  0  0
   -4.4006    7.2774    3.8289 C   0  0  0  0  0  0  0  0  0  0  0  0
   -3.1619    5.1602    3.8072 C   0  0  0  0  0  0  0  0  0  0  0  0
   -3.1720    4.7245    5.2643 C   0  0  0  0  0  0  0  0  0  0  0  0
   -3.1005    6.6163    3.7918 N   0  0  0  0  0  0  0  0  0  0  0  0
   -4.8922    7.0595    4.7885 H   0  0  0  0  0  0  0  0  0  0  0  0
   -5.0178    6.9041    2.9985 H   0  0  0  0  0  0  0  0  0  0  0  0
   -2.2837    4.7407    3.2947 H   0  0  0  0  0  0  0  0  0  0  0  0
   -4.0628    4.8024    3.2871 H   0  0  0  0  0  0  0  0  0  0  0  0
   -2.6154    6.9087    2.9315 H   0  0  0  0  0  0  0  0  0  0  0  0
   -2.6044    6.8976    4.6495 H   0  0  0  0  0  0  0  0  0  0  0  0
  1  2  2  0
  1  3  1  6
  1  4  1  0
  1  7  1  0
  5  9  1  0
  6  9  2  0
  7 10  1  0
  8  9  1  0
  8 10  1  0
  7 11  1  0
  7 12  1  0
  8 13  1  0
  8 14  1  0
 10 15  1  0
 10 16  1  0
M  CHG  4   3  -1   4  -1   5  -1  10   1
M  END
>  <filename_input>  (17) 
7TM6_GPJ_docked.sdf

>  <pdb_id>  (17) 
7TM6_GPJ

>  <pose_rank>  (17) 
16

>  <num_atoms_heavy>  (17) 
10

>  <num_torsions>  (17) 
4

>  <pose>  (17) 
[-4.400591663607149, 7.277437335998789, 3.8289099003776013, -3.4965788732306975, 4.991983079496201, -0.9423276594818705, 0.5945235306953027, 0.31074490253392867, 1.5270197543517454, 0.6762490151040038]

>  <energy>  (17) 
-94.08990785337612

>  <inter_energy>  (17) 
-101.07053075563198

>  <intra_energy>  (17) 
8.484704041121635

>  <rmsd>  (17) 
11.4527

>  <sdf_rank>  (17) 
0

$$$$

     RDKit          3D

 16 15  0  0  0  0  0  0  0  0999 V2000
   -7.0358   -9.1723  -10.0702 P   0  0  1  0  0  0  0  0  0  0  0  0
   -7.5740   -9.9338   -8.8791 O   0  0  0  0  0  0  0  0  0  0  0  0
   -7.1557   -9.9694  -11.3617 O   0  0  0  0  0  0  0  0  0  0  0  0
   -7.5630   -7.7476  -10.1513 O   0  0  0  0  0  0  0  0  0  0  0  0
   -4.4790  -10.1670  -12.8741 O   0  0  0  0  0  0  0  0  0  0  0  0
   -2.3356   -9.7112  -13.1709 O   0  0  0  0  0  0  0  0  0  0  0  0
   -5.2156   -8.9367   -9.8242 C   0  0  0  0  0  0  0  0  0  0  0  0
   -3.1895   -9.7914  -10.9112 C   0  0  0  0  0  0  0  0  0  0  0  0
   -3.3424   -9.8976  -12.4207 C   0  0  0  0  0  0  0  0  0  0  0  0
   -4.4871  -10.0983  -10.3227 N   0  0  0  0  0  0  0  0  0  0  0  0
   -4.8879   -8.0399  -10.3705 H   0  0  0  0  0  0  0  0  0  0  0  0
   -5.0103   -8.8170   -8.7502 H   0  0  0  0  0  0  0  0  0  0  0  0
   -2.4359  -10.5104  -10.5575 H   0  0  0  0  0  0  0  0  0  0  0  0
   -2.8593   -8.7826  -10.6228 H   0  0  0  0  0  0  0  0  0  0  0  0
   -4.3383  -10.7465   -9.5361 H   0  0  0  0  0  0  0  0  0  0  0  0
   -5.0616  -10.5034  -11.0754 H   0  0  0  0  0  0  0  0  0  0  0  0
  1  2  2  0
  1  3  1  6
  1  4  1  0
  1  7  1  0
  5  9  1  0
  6  9  2  0
  7 10  1  0
  8  9  1  0
  8 10  1  0
  7 11  1  0
  7 12  1  0
  8 13  1  0
  8 14  1  0
 10 15  1  0
 10 16  1  0
M  CHG  4   3  -1   4  -1   5  -1  10   1
M  END
>  <filename_input>  (18) 
7TM6_GPJ_docked.sdf

>  <pdb_id>  (18) 
7TM6_GPJ

>  <pose_rank>  (18) 
17

>  <num_atoms_heavy>  (18) 
10

>  <num_torsions>  (18) 
4

>  <pose>  (18) 
[-5.215620673681434, -8.936660376156944, -9.824188741920636, 2.60605481682327, -2.6164006510668556, -0.5282152812356314, 0.010397818903446772, -0.3771318940278217, 1.2423245312505475, 2.9092261708256677]

>  <energy>  (18) 
-107.43896270671249

>  <inter_energy>  (18) 
-89.62610108446412

>  <intra_energy>  (18) 
4.643364249702621

>  <rmsd>  (18) 
12.2418

>  <sdf_rank>  (18) 
0

$$$$

     RDKit          3D

 16 15  0  0  0  0  0  0  0  0999 V2000
  -10.6801   -2.2978  -10.5287 P   0  0  1  0  0  0  0  0  0  0  0  0
  -11.2017   -2.1106  -11.9362 O   0  0  0  0  0  0  0  0  0  0  0  0
   -9.2136   -1.9083  -10.4044 O   0  0  0  0  0  0  0  0  0  0  0  0
  -11.5909   -1.6901   -9.4724 O   0  0  0  0  0  0  0  0  0  0  0  0
   -8.9299   -4.7097  -13.2548 O   0  0  0  0  0  0  0  0  0  0  0  0
   -7.8431   -6.5930  -12.8518 O   0  0  0  0  0  0  0  0  0  0  0  0
  -10.7262   -4.1071  -10.1369 C   0  0  0  0  0  0  0  0  0  0  0  0
   -9.5971   -5.9314  -11.3263 C   0  0  0  0  0  0  0  0  0  0  0  0
   -8.7312   -5.7341  -12.5609 C   0  0  0  0  0  0  0  0  0  0  0  0
   -9.4616   -4.7334  -10.5073 N   0  0  0  0  0  0  0  0  0  0  0  0
  -10.8965   -4.2415   -9.0585 H   0  0  0  0  0  0  0  0  0  0  0  0
  -11.5411   -4.5778  -10.7064 H   0  0  0  0  0  0  0  0  0  0  0  0
  -10.6479   -6.0691  -11.6213 H   0  0  0  0  0  0  0  0  0  0  0  0
   -9.2808   -6.8241  -10.7668 H   0  0  0  0  0  0  0  0  0  0  0  0
   -8.9039   -4.0455  -11.0333 H   0  0  0  0  0  0  0  0  0  0  0  0
   -9.0127   -5.0287   -9.6286 H   0  0  0  0  0  0  0  0  0  0  0  0
  1  2  2  0
  1  3  1  6
  1  4  1  0
  1  7  1  0
  5  9  1  0
  6  9  2  0
  7 10  1  0
  8  9  1  0
  8 10  1  0
  7 11  1  0
  7 12  1  0
  8 13  1  0
  8 14  1  0
 10 15  1  0
 10 16  1  0
M  CHG  4   3  -1   4  -1   5  -1  10   1
M  END
>  <filename_input>  (19) 
7TM6_GPJ_docked.sdf

>  <pdb_id>  (19) 
7TM6_GPJ

>  <pose_rank>  (19) 
18

>  <num_atoms_heavy>  (19) 
10

>  <num_torsions>  (19) 
4

>  <pose>  (19) 
[-10.726211535223305, -4.107124594083294, -10.136888284705917, 0.6810823312312665, -5.840541920279728, -1.4722862692545102, 0.08876923462479404, 1.1030012108589213, -0.9988344676320323, 1.91110198680485]

>  <energy>  (19) 
-105.2835270842754

>  <inter_energy>  (19) 
-79.98446936859116

>  <intra_energy>  (19) 
0.0

>  <rmsd>  (19) 
11.4564

>  <sdf_rank>  (19) 
0

$$$$

     RDKit          3D

 16 15  0  0  0  0  0  0  0  0999 V2000
  -10.2764   -1.6538  -11.0391 P   0  0  1  0  0  0  0  0  0  0  0  0
   -9.9098   -3.1126  -11.1996 O   0  0  0  0  0  0  0  0  0  0  0  0
  -10.7121   -1.0242  -12.3549 O   0  0  0  0  0  0  0  0  0  0  0  0
  -11.2193   -1.4037   -9.8717 O   0  0  0  0  0  0  0  0  0  0  0  0
   -5.4549   -1.7414  -13.8219 O   0  0  0  0  0  0  0  0  0  0  0  0
   -6.4924    0.2114  -13.8435 O   0  0  0  0  0  0  0  0  0  0  0  0
   -8.7471   -0.7293  -10.5532 C   0  0  0  0  0  0  0  0  0  0  0  0
   -7.3553   -1.5306  -12.4074 C   0  0  0  0  0  0  0  0  0  0  0  0
   -6.3683   -0.9806  -13.4254 C   0  0  0  0  0  0  0  0  0  0  0  0
   -7.9679   -0.3894  -11.7389 N   0  0  0  0  0  0  0  0  0  0  0  0
   -9.0320    0.1944  -10.0282 H   0  0  0  0  0  0  0  0  0  0  0  0
   -8.1382   -1.3634   -9.8921 H   0  0  0  0  0  0  0  0  0  0  0  0
   -8.1266   -2.1281  -12.9155 H   0  0  0  0  0  0  0  0  0  0  0  0
   -6.8450   -2.1802  -11.6811 H   0  0  0  0  0  0  0  0  0  0  0  0
   -8.5922    0.0797  -12.4105 H   0  0  0  0  0  0  0  0  0  0  0  0
   -7.1952    0.2119  -11.4191 H   0  0  0  0  0  0  0  0  0  0  0  0
  1  2  2  0
  1  3  1  6
  1  4  1  0
  1  7  1  0
  5  9  1  0
  6  9  2  0
  7 10  1  0
  8  9  1  0
  8 10  1  0
  7 11  1  0
  7 12  1  0
  8 13  1  0
  8 14  1  0
 10 15  1  0
 10 16  1  0
M  CHG  4   3  -1   4  -1   5  -1  10   1
M  END
>  <filename_input>  (20) 
7TM6_GPJ_docked.sdf

>  <pdb_id>  (20) 
7TM6_GPJ

>  <pose_rank>  (20) 
19

>  <num_atoms_heavy>  (20) 
10

>  <num_torsions>  (20) 
4

>  <pose>  (20) 
[-8.747138796472662, -0.7292663307156322, -10.553208064364597, 2.6473876890057437, -1.5268637874318536, -2.705130050630444, -0.031123057088434197, 2.1603785769755772, 0.128225499238249, -0.6370764900646677]

>  <energy>  (20) 
-99.28001021147327

>  <inter_energy>  (20) 
-93.50963154832773

>  <intra_energy>  (20) 
5.182772852876881

>  <rmsd>  (20) 
10.8798

>  <sdf_rank>  (20) 
0

$$$$

     RDKit          3D

 16 15  0  0  0  0  0  0  0  0999 V2000
   -3.5165    8.5423    5.0258 P   0  0  1  0  0  0  0  0  0  0  0  0
   -2.1876    8.6817    5.7349 O   0  0  0  0  0  0  0  0  0  0  0  0
   -4.6743    9.0515    5.8731 O   0  0  0  0  0  0  0  0  0  0  0  0
   -3.4882    9.0762    3.6016 O   0  0  0  0  0  0  0  0  0  0  0  0
   -0.9642    4.1390    6.1307 O   0  0  0  0  0  0  0  0  0  0  0  0
   -2.4026    2.5242    5.6686 O   0  0  0  0  0  0  0  0  0  0  0  0
   -3.8552    6.7365    4.7941 C   0  0  0  0  0  0  0  0  0  0  0  0
   -2.6301    4.6309    4.5060 C   0  0  0  0  0  0  0  0  0  0  0  0
   -1.9544    3.6998    5.5008 C   0  0  0  0  0  0  0  0  0  0  0  0
   -2.6623    5.9576    5.1086 N   0  0  0  0  0  0  0  0  0  0  0  0
   -4.6749    6.4317    5.4612 H   0  0  0  0  0  0  0  0  0  0  0  0
   -4.1374    6.5550    3.7465 H   0  0  0  0  0  0  0  0  0  0  0  0
   -2.0581    4.6576    3.5668 H   0  0  0  0  0  0  0  0  0  0  0  0
   -3.6477    4.2827    4.2751 H   0  0  0  0  0  0  0  0  0  0  0  0
   -1.8395    6.4814    4.7774 H   0  0  0  0  0  0  0  0  0  0  0  0
   -2.6657    5.8158    6.1288 H   0  0  0  0  0  0  0  0  0  0  0  0
  1  2  2  0
  1  3  1  1
  1  4  1  0
  1  7  1  0
  5  9  1  0
  6  9  2  0
  7 10  1  0
  8  9  1  0
  8 10  1  0
  7 11  1  0
  7 12  1  0
  8 13  1  0
  8 14  1  0
 10 15  1  0
 10 16  1  0
M  CHG  4   3  -1   4  -1   5  -1  10   1
M  END
>  <filename_input>  (21) 
7TM6_GPJ_docked.sdf

>  <pdb_id>  (21) 
7TM6_GPJ

>  <pose_rank>  (21) 
20

>  <num_atoms_heavy>  (21) 
10

>  <num_torsions>  (21) 
4

>  <pose>  (21) 
[-3.8551615339158536, 6.736517974911361, 4.79407050320985, -2.4600257529198655, 5.174135140172845, 0.5799961906505418, 4.598738553324885, 0.6046498810829471, 6.830743483928185, 2.1739488207445077]

>  <energy>  (21) 
-77.08657634681995

>  <inter_energy>  (21) 
-80.15877979560639

>  <intra_energy>  (21) 
0.0

>  <rmsd>  (21) 
11.518

>  <sdf_rank>  (21) 
0

$$$$

     RDKit          3D

 16 15  0  0  0  0  0  0  0  0999 V2000
    6.3487   -5.1115  -11.8710 P   0  0  1  0  0  0  0  0  0  0  0  0
    7.2276   -4.0167  -12.4343 O   0  0  0  0  0  0  0  0  0  0  0  0
    4.9537   -5.0968  -12.4804 O   0  0  0  0  0  0  0  0  0  0  0  0
    7.0263   -6.4735  -11.8670 O   0  0  0  0  0  0  0  0  0  0  0  0
    7.7742   -3.7722   -6.9182 O   0  0  0  0  0  0  0  0  0  0  0  0
    8.3657   -5.9030   -6.9249 O   0  0  0  0  0  0  0  0  0  0  0  0
    6.0849   -4.7648  -10.0712 C   0  0  0  0  0  0  0  0  0  0  0  0
    8.3069   -4.7218   -9.0327 C   0  0  0  0  0  0  0  0  0  0  0  0
    8.1394   -4.8068   -7.5234 C   0  0  0  0  0  0  0  0  0  0  0  0
    7.1808   -3.9547   -9.5501 N   0  0  0  0  0  0  0  0  0  0  0  0
    5.1372   -4.2219   -9.9405 H   0  0  0  0  0  0  0  0  0  0  0  0
    6.0496   -5.7176   -9.5227 H   0  0  0  0  0  0  0  0  0  0  0  0
    9.2521   -4.2158   -9.2788 H   0  0  0  0  0  0  0  0  0  0  0  0
    8.3323   -5.7267   -9.4794 H   0  0  0  0  0  0  0  0  0  0  0  0
    7.5249   -3.3515  -10.3108 H   0  0  0  0  0  0  0  0  0  0  0  0
    6.7991   -3.4224   -8.7552 H   0  0  0  0  0  0  0  0  0  0  0  0
  1  2  2  0
  1  3  1  6
  1  4  1  0
  1  7  1  0
  5  9  1  0
  6  9  2  0
  7 10  1  0
  8  9  1  0
  8 10  1  0
  7 11  1  0
  7 12  1  0
  8 13  1  0
  8 14  1  0
 10 15  1  0
 10 16  1  0
M  CHG  4   3  -1   4  -1   5  -1  10   1
M  END
>  <filename_input>  (22) 
7TM6_GPJ_docked.sdf

>  <pdb_id>  (22) 
7TM6_GPJ

>  <pose_rank>  (22) 
21

>  <num_atoms_heavy>  (22) 
10

>  <num_torsions>  (22) 
4

>  <pose>  (22) 
[6.084935972424417, -4.764773762318679, -10.071192323644564, -1.607316052819802, -0.46566233000393514, 0.6305777373341757, -1.9225537744497654, 1.8002914479647447, 1.3642780750168704, 2.135758099262157]

>  <energy>  (22) 
-82.54227044435444

>  <inter_energy>  (22) 
-89.8653443267587

>  <intra_energy>  (22) 
0.027745210405634144

>  <rmsd>  (22) 
11.9789

>  <sdf_rank>  (22) 
0

$$$$

     RDKit          3D

 16 15  0  0  0  0  0  0  0  0999 V2000
  -10.1952   -4.8123  -11.2079 P   0  0  1  0  0  0  0  0  0  0  0  0
  -11.6548   -5.1303  -11.4462 O   0  0  0  0  0  0  0  0  0  0  0  0
   -9.2929   -5.4371  -12.2629 O   0  0  0  0  0  0  0  0  0  0  0  0
   -9.9440   -3.3340  -10.9513 O   0  0  0  0  0  0  0  0  0  0  0  0
  -11.5702   -5.7022   -6.2962 O   0  0  0  0  0  0  0  0  0  0  0  0
  -11.3465   -7.8599   -5.8667 O   0  0  0  0  0  0  0  0  0  0  0  0
   -9.6880   -5.6103   -9.6156 C   0  0  0  0  0  0  0  0  0  0  0  0
  -10.9517   -7.0923   -8.1242 C   0  0  0  0  0  0  0  0  0  0  0  0
  -11.3125   -6.8723   -6.6632 C   0  0  0  0  0  0  0  0  0  0  0  0
  -10.8478   -5.7785   -8.7465 N   0  0  0  0  0  0  0  0  0  0  0  0
   -9.2461   -6.5952   -9.8270 H   0  0  0  0  0  0  0  0  0  0  0  0
   -8.9503   -4.9692   -9.1109 H   0  0  0  0  0  0  0  0  0  0  0  0
   -9.9903   -7.6216   -8.1992 H   0  0  0  0  0  0  0  0  0  0  0  0
  -11.7164   -7.7026   -8.6270 H   0  0  0  0  0  0  0  0  0  0  0  0
  -10.7948   -5.0718   -7.9991 H   0  0  0  0  0  0  0  0  0  0  0  0
  -11.6797   -5.6710   -9.3443 H   0  0  0  0  0  0  0  0  0  0  0  0
  1  2  2  0
  1  3  1  6
  1  4  1  0
  1  7  1  0
  5  9  1  0
  6  9  2  0
  7 10  1  0
  8  9  1  0
  8 10  1  0
  7 11  1  0
  7 12  1  0
  8 13  1  0
  8 14  1  0
 10 15  1  0
 10 16  1  0
M  CHG  4   3  -1   4  -1   5  -1  10   1
M  END
>  <filename_input>  (23) 
7TM6_GPJ_docked.sdf

>  <pdb_id>  (23) 
7TM6_GPJ

>  <pose_rank>  (23) 
22

>  <num_atoms_heavy>  (23) 
10

>  <num_torsions>  (23) 
4

>  <pose>  (23) 
[-9.688009895535755, -5.610308036715476, -9.615617440606055, 0.21293209428922252, -2.451852330681974, 1.8277125611709226, -1.9432614756706652, 5.702168794881965, -0.8453769622180515, 2.9843004767663777]

>  <energy>  (23) 
-94.03892107856717

>  <inter_energy>  (23) 
-84.05704615265279

>  <intra_energy>  (23) 
0.0

>  <rmsd>  (23) 
11.8913

>  <sdf_rank>  (23) 
0

$$$$

     RDKit          3D

 16 15  0  0  0  0  0  0  0  0999 V2000
   -9.5623   -0.8552  -12.8159 P   0  0  1  0  0  0  0  0  0  0  0  0
   -9.1260   -1.9114  -13.8070 O   0  0  0  0  0  0  0  0  0  0  0  0
   -8.6577    0.3688  -12.8474 O   0  0  0  0  0  0  0  0  0  0  0  0
  -11.0503   -0.5480  -12.8924 O   0  0  0  0  0  0  0  0  0  0  0  0
  -10.9359   -5.4839  -11.3038 O   0  0  0  0  0  0  0  0  0  0  0  0
  -10.5593   -5.5602   -9.1261 O   0  0  0  0  0  0  0  0  0  0  0  0
   -9.3611   -1.5513  -11.1117 C   0  0  0  0  0  0  0  0  0  0  0  0
  -10.6922   -3.3953  -10.1924 C   0  0  0  0  0  0  0  0  0  0  0  0
  -10.7325   -4.9156  -10.2056 C   0  0  0  0  0  0  0  0  0  0  0  0
   -9.6441   -2.9826  -11.1173 N   0  0  0  0  0  0  0  0  0  0  0  0
   -8.3283   -1.3861  -10.7710 H   0  0  0  0  0  0  0  0  0  0  0  0
  -10.0647   -1.0481  -10.4322 H   0  0  0  0  0  0  0  0  0  0  0  0
  -11.6619   -2.9900  -10.5169 H   0  0  0  0  0  0  0  0  0  0  0  0
  -10.4880   -3.0195   -9.1789 H   0  0  0  0  0  0  0  0  0  0  0  0
   -9.9319   -3.2498  -12.0695 H   0  0  0  0  0  0  0  0  0  0  0  0
   -8.7808   -3.4530  -10.8104 H   0  0  0  0  0  0  0  0  0  0  0  0
  1  2  2  0
  1  3  1  1
  1  4  1  0
  1  7  1  0
  5  9  1  0
  6  9  2  0
  7 10  1  0
  8  9  1  0
  8 10  1  0
  7 11  1  0
  7 12  1  0
  8 13  1  0
  8 14  1  0
 10 15  1  0
 10 16  1  0
M  CHG  4   3  -1   4  -1   5  -1  10   1
M  END
>  <filename_input>  (24) 
7TM6_GPJ_docked.sdf

>  <pdb_id>  (24) 
7TM6_GPJ

>  <pose_rank>  (24) 
23

>  <num_atoms_heavy>  (24) 
10

>  <num_torsions>  (24) 
4

>  <pose>  (24) 
[-9.361059457167194, -1.5512921715639858, -11.111693482135461, -0.7499686903663155, 1.4439936886593168, -0.9335162491307829, -2.0906763794171552, 1.2110049831891554, 0.048751518688509056, 1.8613767748283006]

>  <energy>  (24) 
-93.23490625081433

>  <inter_energy>  (24) 
-74.0116764296742

>  <intra_energy>  (24) 
0.0

>  <rmsd>  (24) 
11.5883

>  <sdf_rank>  (24) 
0

$$$$

     RDKit          3D

 16 15  0  0  0  0  0  0  0  0999 V2000
   -4.2623   -2.3098    5.3214 P   0  0  1  0  0  0  0  0  0  0  0  0
   -3.9264   -1.9818    3.8833 O   0  0  0  0  0  0  0  0  0  0  0  0
   -3.2234   -3.2222    5.9587 O   0  0  0  0  0  0  0  0  0  0  0  0
   -4.6179   -1.0800    6.1432 O   0  0  0  0  0  0  0  0  0  0  0  0
   -9.9422   -4.1347    5.1112 O   0  0  0  0  0  0  0  0  0  0  0  0
   -9.1390   -3.2187    3.2656 O   0  0  0  0  0  0  0  0  0  0  0  0
   -5.8306   -3.2944    5.3328 C   0  0  0  0  0  0  0  0  0  0  0  0
   -8.1732   -2.5684    5.3836 C   0  0  0  0  0  0  0  0  0  0  0  0
   -9.1489   -3.3604    4.5269 C   0  0  0  0  0  0  0  0  0  0  0  0
   -6.8981   -2.5458    4.6780 N   0  0  0  0  0  0  0  0  0  0  0  0
   -5.6693   -4.2416    4.7973 H   0  0  0  0  0  0  0  0  0  0  0  0
   -6.1203   -3.4975    6.3744 H   0  0  0  0  0  0  0  0  0  0  0  0
   -8.5435   -1.5423    5.5253 H   0  0  0  0  0  0  0  0  0  0  0  0
   -8.0617   -3.0302    6.3757 H   0  0  0  0  0  0  0  0  0  0  0  0
   -6.5962   -1.5649    4.5905 H   0  0  0  0  0  0  0  0  0  0  0  0
   -7.0589   -3.0005    3.7679 H   0  0  0  0  0  0  0  0  0  0  0  0
  1  2  2  0
  1  3  1  1
  1  4  1  0
  1  7  1  0
  5  9  1  0
  6  9  2  0
  7 10  1  0
  8  9  1  0
  8 10  1  0
  7 11  1  0
  7 12  1  0
  8 13  1  0
  8 14  1  0
 10 15  1  0
 10 16  1  0
M  CHG  4   3  -1   4  -1   5  -1  10   1
M  END
>  <filename_input>  (25) 
7TM6_GPJ_docked.sdf

>  <pdb_id>  (25) 
7TM6_GPJ

>  <pose_rank>  (25) 
24

>  <num_atoms_heavy>  (25) 
10

>  <num_torsions>  (25) 
4

>  <pose>  (25) 
[-5.830625636233616, -3.2943778332629177, 5.332791990163168, 1.4375631105047046, 2.1301412172988727, -0.5802595836944195, 3.7898563673947656, -5.284540549192593, 1.108048893248354, 5.32233839117429]

>  <energy>  (25) 
-92.54021330473888

>  <inter_energy>  (25) 
-78.61397840239536

>  <intra_energy>  (25) 
0.0

>  <rmsd>  (25) 
11.1309

>  <sdf_rank>  (25) 
0

$$$$

     RDKit          3D

 16 15  0  0  0  0  0  0  0  0999 V2000
   -2.8770    1.5740   -4.3040 P   0  0  1  0  0  0  0  0  0  0  0  0
   -2.9520    1.7990   -5.7980 O   0  0  0  0  0  0  0  0  0  0  0  0
   -1.5010    1.9050   -3.7430 O   0  0  0  0  0  0  0  0  0  0  0  0
   -4.0390    2.2030   -3.5500 O   0  0  0  0  0  0  0  0  0  0  0  0
   -0.2130   -4.0480   -3.5900 O   0  0  0  0  0  0  0  0  0  0  0  0
    0.5650   -1.9990   -3.8840 O   0  0  0  0  0  0  0  0  0  0  0  0
   -3.0970   -0.2370   -3.9860 C   0  0  0  0  0  0  0  0  0  0  0  0
   -1.8160   -2.2910   -3.5890 C   0  0  0  0  0  0  0  0  0  0  0  0
   -0.3910   -2.8120   -3.6940 C   0  0  0  0  0  0  0  0  0  0  0  0
   -1.8160   -0.9260   -4.1000 N   0  0  0  0  0  0  0  0  0  0  0  0
   -3.4991   -0.3821   -2.9724 H   0  0  0  0  0  0  0  0  0  0  0  0
   -3.7952   -0.6504   -4.7287 H   0  0  0  0  0  0  0  0  0  0  0  0
   -2.4915   -2.9180   -4.1896 H   0  0  0  0  0  0  0  0  0  0  0  0
   -2.1648   -2.3169   -2.5461 H   0  0  0  0  0  0  0  0  0  0  0  0
   -1.5540   -0.9553   -5.0957 H   0  0  0  0  0  0  0  0  0  0  0  0
   -1.1467   -0.3972   -3.5227 H   0  0  0  0  0  0  0  0  0  0  0  0
  1  2  2  0
  1  3  1  1
  1  4  1  0
  1  7  1  0
  5  9  1  0
  6  9  2  0
  7 10  1  0
  8  9  1  0
  8 10  1  0
  7 11  1  0
  7 12  1  0
  8 13  1  0
  8 14  1  0
 10 15  1  0
 10 16  1  0
M  CHG  4   3  -1   4  -1   5  -1  10   1
M  END
>  <filename_input>  (26) 
7TM6_GPJ_docked.sdf

>  <pdb_id>  (26) 
7TM6_GPJ

>  <pose_rank>  (26) 
25

>  <num_atoms_heavy>  (26) 
10

>  <num_torsions>  (26) 
4

>  <pose>  (26) 
[-3.097, -0.237, -3.986, 1e-06, 1e-06, 1e-06, 0.0, 0.0, 0.0, 0.0]

>  <energy>  (26) 
-615.1843028559971

>  <inter_energy>  (26) 
-612.9816960794644

>  <intra_energy>  (26) 
0.0

>  <rmsd>  (26) 
0.0

>  <sdf_rank>  (26) 
0

$$$$
