
     RDKit          3D

 31 33  0  0  0  0  0  0  0  0999 V2000
   17.5868   53.8538   27.5460 N   0  0  0  0  0  0  0  0  0  0  0  0
   18.0533   53.4011   28.7193 C   0  0  0  0  0  0  0  0  0  0  0  0
   18.6283   54.0881   29.7193 N   0  0  0  0  0  0  0  0  0  0  0  0
   18.6840   55.4040   29.4322 C   0  0  0  0  0  0  0  0  0  0  0  0
   19.1446   56.4221   30.2372 N   0  0  0  0  0  0  0  0  0  0  0  0
   18.9651   57.5747   29.5189 C   0  0  0  0  0  0  0  0  0  0  0  0
   18.4392   57.3891   28.3314 N   0  0  0  0  0  0  0  0  0  0  0  0
   18.2506   56.0141   28.2648 C   0  0  0  0  0  0  0  0  0  0  0  0
   17.6800   55.1793   27.2770 C   0  0  0  0  0  0  0  0  0  0  0  0
   17.2234   55.6316   26.0965 N   0  0  0  0  0  0  0  0  0  0  0  0
   19.7177   56.3082   31.5794 C   0  0  1  0  0  0  0  0  0  0  0  0
   20.1675   57.6350   32.1962 C   0  0  1  0  0  0  0  0  0  0  0  0
   20.1778   57.2819   33.6947 C   0  0  1  0  0  0  0  0  0  0  0  0
   19.1823   56.1120   33.8080 C   0  0  1  0  0  0  0  0  0  0  0  0
   17.9966   56.3588   34.7235 C   0  0  0  0  0  0  0  0  0  0  0  0
   18.7247   55.8350   32.4618 O   0  0  0  0  0  0  0  0  0  0  0  0
   21.4310   58.0350   31.6766 O   0  0  0  0  0  0  0  0  0  0  0  0
   21.4394   56.8365   34.1669 O   0  0  0  0  0  0  0  0  0  0  0  0
   17.9506   52.3185   28.8850 H   0  0  0  0  0  0  0  0  0  0  0  0
   19.2379   58.5683   29.9039 H   0  0  0  0  0  0  0  0  0  0  0  0
   17.2842   56.6348   25.8710 H   0  0  0  0  0  0  0  0  0  0  0  0
   16.8128   54.9751   25.4173 H   0  0  0  0  0  0  0  0  0  0  0  0
   20.5884   55.6469   31.4581 H   0  0  0  0  0  0  0  0  0  0  0  0
   19.5282   58.5031   31.9776 H   0  0  0  0  0  0  0  0  0  0  0  0
   19.9289   58.1713   34.2921 H   0  0  0  0  0  0  0  0  0  0  0  0
   19.7056   55.2632   34.2723 H   0  0  0  0  0  0  0  0  0  0  0  0
   18.3225   56.2910   35.7719 H   0  0  0  0  0  0  0  0  0  0  0  0
   17.5871   57.3615   34.5310 H   0  0  0  0  0  0  0  0  0  0  0  0
   17.2210   55.6029   34.5310 H   0  0  0  0  0  0  0  0  0  0  0  0
   22.0487   58.2306   32.4252 H   0  0  0  0  0  0  0  0  0  0  0  0
   21.4399   56.8363   35.1569 H   0  0  0  0  0  0  0  0  0  0  0  0
  1  2  2  0
  1  9  1  0
  2  3  1  0
  3  4  2  0
  4  5  1  0
  4  8  1  0
  5  6  1  0
 11  5  1  0
  6  7  2  0
  7  8  1  0
  8  9  2  0
  9 10  1  0
 11 12  1  0
 11 16  1  0
 12 13  1  0
 12 17  1  0
 13 14  1  0
 13 18  1  0
 14 15  1  0
 14 16  1  0
  2 19  1  0
  6 20  1  0
 10 21  1  0
 10 22  1  0
 11 23  1  6
 12 24  1  1
 13 25  1  1
 14 26  1  1
 15 27  1  0
 15 28  1  0
 15 29  1  0
 17 30  1  0
 18 31  1  0
M  END
>  <filename_input>  (1) 
7TOM_5AD_docked.sdf

>  <pdb_id>  (1) 
7TOM_5AD

>  <pose_rank>  (1) 
0

>  <num_atoms_heavy>  (1) 
18

>  <num_torsions>  (1) 
1

>  <pose>  (1) 
[17.58678040536428, 53.85380444379516, 27.545962958715947, 3.116932395757001, -3.8253106403183508, 3.839787347949971, 6.511919663818726]

>  <energy>  (1) 
-1024.5491014541592

>  <inter_energy>  (1) 
-1013.228655354459

>  <intra_energy>  (1) 
4.371919124159826

>  <rmsd>  (1) 
0.32721

>  <sdf_rank>  (1) 
0

$$$$

     RDKit          3D

 31 33  0  0  0  0  0  0  0  0999 V2000
   17.7961   53.8106   27.4291 N   0  0  0  0  0  0  0  0  0  0  0  0
   18.1028   53.5122   28.7003 C   0  0  0  0  0  0  0  0  0  0  0  0
   18.5347   54.3263   29.6766 N   0  0  0  0  0  0  0  0  0  0  0  0
   18.6220   55.5991   29.2413 C   0  0  0  0  0  0  0  0  0  0  0  0
   18.9650   56.7161   29.9703 N   0  0  0  0  0  0  0  0  0  0  0  0
   18.8780   57.7700   29.0995 C   0  0  0  0  0  0  0  0  0  0  0  0
   18.5175   57.4320   27.8842 N   0  0  0  0  0  0  0  0  0  0  0  0
   18.3465   56.0553   27.9611 C   0  0  0  0  0  0  0  0  0  0  0  0
   17.9181   55.0959   27.0154 C   0  0  0  0  0  0  0  0  0  0  0  0
   17.6222   55.3934   25.7384 N   0  0  0  0  0  0  0  0  0  0  0  0
   19.3530   56.7763   31.3806 C   0  0  1  0  0  0  0  0  0  0  0  0
   19.1465   55.4726   32.1558 C   0  0  1  0  0  0  0  0  0  0  0  0
   20.1077   55.6724   33.3417 C   0  0  1  0  0  0  0  0  0  0  0  0
   21.1528   56.6707   32.8093 C   0  0  1  0  0  0  0  0  0  0  0  0
   22.5850   56.1667   32.8064 C   0  0  0  0  0  0  0  0  0  0  0  0
   20.7409   57.0122   31.4632 O   0  0  0  0  0  0  0  0  0  0  0  0
   17.7811   55.3112   32.5249 O   0  0  0  0  0  0  0  0  0  0  0  0
   19.4919   56.2442   34.4848 O   0  0  0  0  0  0  0  0  0  0  0  0
   17.9842   52.4553   28.9815 H   0  0  0  0  0  0  0  0  0  0  0  0
   19.0916   58.8083   29.3934 H   0  0  0  0  0  0  0  0  0  0  0  0
   17.7077   56.3634   25.4025 H   0  0  0  0  0  0  0  0  0  0  0  0
   17.3099   54.6515   25.0959 H   0  0  0  0  0  0  0  0  0  0  0  0
   18.7187   57.5641   31.8132 H   0  0  0  0  0  0  0  0  0  0  0  0
   19.3592   54.5483   31.5987 H   0  0  0  0  0  0  0  0  0  0  0  0
   20.5079   54.7013   33.6686 H   0  0  0  0  0  0  0  0  0  0  0  0
   21.1756   57.5350   33.4893 H   0  0  0  0  0  0  0  0  0  0  0  0
   22.9328   56.0444   33.8427 H   0  0  0  0  0  0  0  0  0  0  0  0
   22.6319   55.1981   32.2871 H   0  0  0  0  0  0  0  0  0  0  0  0
   23.2281   56.8926   32.2871 H   0  0  0  0  0  0  0  0  0  0  0  0
   17.7050   55.3022   33.5119 H   0  0  0  0  0  0  0  0  0  0  0  0
   19.8997   55.8655   35.3035 H   0  0  0  0  0  0  0  0  0  0  0  0
  1  2  2  0
  1  9  1  0
  2  3  1  0
  3  4  2  0
  4  5  1  0
  4  8  1  0
  5  6  1  0
 11  5  1  0
  6  7  2  0
  7  8  1  0
  8  9  2  0
  9 10  1  0
 11 12  1  0
 11 16  1  0
 12 13  1  0
 12 17  1  0
 13 14  1  0
 13 18  1  0
 14 15  1  0
 14 16  1  0
  2 19  1  0
  6 20  1  0
 10 21  1  0
 10 22  1  0
 11 23  1  1
 12 24  1  6
 13 25  1  1
 14 26  1  1
 15 27  1  0
 15 28  1  0
 15 29  1  0
 17 30  1  0
 18 31  1  0
M  END
>  <filename_input>  (2) 
7TOM_5AD_docked.sdf

>  <pdb_id>  (2) 
7TOM_5AD

>  <pose_rank>  (2) 
1

>  <num_atoms_heavy>  (2) 
18

>  <num_torsions>  (2) 
1

>  <pose>  (2) 
[17.796137294008265, 53.81063814565353, 27.429075058579855, -0.1357624353506398, -0.11686343978492598, -0.007833716565214158, -9.340116604096945]

>  <energy>  (2) 
-961.9226252619058

>  <inter_energy>  (2) 
-956.6992006989958

>  <intra_energy>  (2) 
30.17711856973186

>  <rmsd>  (2) 
2.05182

>  <sdf_rank>  (2) 
0

$$$$

     RDKit          3D

 31 33  0  0  0  0  0  0  0  0999 V2000
   18.5865   57.2808   27.6881 N   0  0  0  0  0  0  0  0  0  0  0  0
   19.0361   57.9301   28.7723 C   0  0  0  0  0  0  0  0  0  0  0  0
   19.2675   57.4521   30.0054 N   0  0  0  0  0  0  0  0  0  0  0  0
   19.0088   56.1306   30.0679 C   0  0  0  0  0  0  0  0  0  0  0  0
   19.1879   55.2880   31.1425 N   0  0  0  0  0  0  0  0  0  0  0  0
   18.8175   54.0437   30.7055 C   0  0  0  0  0  0  0  0  0  0  0  0
   18.4145   54.0125   29.4574 N   0  0  0  0  0  0  0  0  0  0  0  0
   18.5356   55.3316   29.0381 C   0  0  0  0  0  0  0  0  0  0  0  0
   18.3119   55.9571   27.7903 C   0  0  0  0  0  0  0  0  0  0  0  0
   17.8501   55.3086   26.7073 N   0  0  0  0  0  0  0  0  0  0  0  0
   19.6654   55.6388   32.4812 C   0  0  1  0  0  0  0  0  0  0  0  0
   20.2528   57.0473   32.6007 C   0  0  1  0  0  0  0  0  0  0  0  0
   20.1328   57.2956   34.1153 C   0  0  1  0  0  0  0  0  0  0  0  0
   18.9857   56.3664   34.5549 C   0  0  1  0  0  0  0  0  0  0  0  0
   17.7944   57.0645   35.1862 C   0  0  0  0  0  0  0  0  0  0  0  0
   18.5707   55.6434   33.3702 O   0  0  0  0  0  0  0  0  0  0  0  0
   21.5852   57.0868   32.1010 O   0  0  0  0  0  0  0  0  0  0  0  0
   21.2957   56.9388   34.8456 O   0  0  0  0  0  0  0  0  0  0  0  0
   19.2438   59.0011   28.6319 H   0  0  0  0  0  0  0  0  0  0  0  0
   18.8547   53.1493   31.3448 H   0  0  0  0  0  0  0  0  0  0  0  0
   17.6349   54.3028   26.7621 H   0  0  0  0  0  0  0  0  0  0  0  0
   17.7115   55.8174   25.8225 H   0  0  0  0  0  0  0  0  0  0  0  0
   20.4457   54.8964   32.7048 H   0  0  0  0  0  0  0  0  0  0  0  0
   19.7478   57.8258   32.0099 H   0  0  0  0  0  0  0  0  0  0  0  0
   19.9717   58.3664   34.3089 H   0  0  0  0  0  0  0  0  0  0  0  0
   19.3648   55.7114   35.3532 H   0  0  0  0  0  0  0  0  0  0  0  0
   17.8788   57.0151   36.2818 H   0  0  0  0  0  0  0  0  0  0  0  0
   17.7747   58.1170   34.8670 H   0  0  0  0  0  0  0  0  0  0  0  0
   16.8666   56.5672   34.8670 H   0  0  0  0  0  0  0  0  0  0  0  0
   22.2215   57.1056   32.8592 H   0  0  0  0  0  0  0  0  0  0  0  0
   21.1069   56.9968   35.8157 H   0  0  0  0  0  0  0  0  0  0  0  0
  1  2  2  0
  1  9  1  0
  2  3  1  0
  3  4  2  0
  4  5  1  0
  4  8  1  0
  5  6  1  0
 11  5  1  0
  6  7  2  0
  7  8  1  0
  8  9  2  0
  9 10  1  0
 11 12  1  0
 11 16  1  0
 12 13  1  0
 12 17  1  0
 13 14  1  0
 13 18  1  0
 14 15  1  0
 14 16  1  0
  2 19  1  0
  6 20  1  0
 10 21  1  0
 10 22  1  0
 11 23  1  1
 12 24  1  6
 13 25  1  6
 14 26  1  1
 15 27  1  0
 15 28  1  0
 15 29  1  0
 17 30  1  0
 18 31  1  0
M  END
>  <filename_input>  (3) 
7TOM_5AD_docked.sdf

>  <pdb_id>  (3) 
7TOM_5AD

>  <pose_rank>  (3) 
2

>  <num_atoms_heavy>  (3) 
18

>  <num_torsions>  (3) 
1

>  <pose>  (3) 
[18.58647081777791, 57.28077324174485, 27.688101501693865, -1.128645423539848, -0.2511394389333183, -3.032525126257067, 3.1944884541281366]

>  <energy>  (3) 
-705.1861525699825

>  <inter_energy>  (3) 
-732.4862971444824

>  <intra_energy>  (3) 
28.75931247584894

>  <rmsd>  (3) 
2.09833

>  <sdf_rank>  (3) 
0

$$$$

     RDKit          3D

 31 33  0  0  0  0  0  0  0  0999 V2000
   18.8887   55.9678   35.6004 N   0  0  0  0  0  0  0  0  0  0  0  0
   17.8870   55.6937   34.7515 C   0  0  0  0  0  0  0  0  0  0  0  0
   17.8703   55.7792   33.4118 N   0  0  0  0  0  0  0  0  0  0  0  0
   19.0672   56.1797   32.9381 C   0  0  0  0  0  0  0  0  0  0  0  0
   19.4471   56.3198   31.6217 N   0  0  0  0  0  0  0  0  0  0  0  0
   20.7583   56.7150   31.6528 C   0  0  0  0  0  0  0  0  0  0  0  0
   21.2496   56.8455   32.8623 N   0  0  0  0  0  0  0  0  0  0  0  0
   20.1869   56.5035   33.6893 C   0  0  0  0  0  0  0  0  0  0  0  0
   20.0724   56.3922   35.0939 C   0  0  0  0  0  0  0  0  0  0  0  0
   21.0729   56.6782   35.9449 N   0  0  0  0  0  0  0  0  0  0  0  0
   18.6268   56.1033   30.4287 C   0  0  1  0  0  0  0  0  0  0  0  0
   19.2670   56.5731   29.1200 C   0  0  1  0  0  0  0  0  0  0  0  0
   18.4797   55.7468   28.0866 C   0  0  1  0  0  0  0  0  0  0  0  0
   17.9920   54.5221   28.8832 C   0  0  1  0  0  0  0  0  0  0  0  0
   18.4704   53.1792   28.3610 C   0  0  0  0  0  0  0  0  0  0  0  0
   18.4423   54.7172   30.2461 O   0  0  0  0  0  0  0  0  0  0  0  0
   19.1386   57.9826   28.9682 O   0  0  0  0  0  0  0  0  0  0  0  0
   17.3428   56.4178   27.5667 O   0  0  0  0  0  0  0  0  0  0  0  0
   16.9506   55.3521   35.2169 H   0  0  0  0  0  0  0  0  0  0  0  0
   21.3474   56.9062   30.7438 H   0  0  0  0  0  0  0  0  0  0  0  0
   21.9807   57.0023   35.5821 H   0  0  0  0  0  0  0  0  0  0  0  0
   20.9316   56.5732   36.9597 H   0  0  0  0  0  0  0  0  0  0  0  0
   17.7063   56.6768   30.6126 H   0  0  0  0  0  0  0  0  0  0  0  0
   20.3527   56.4169   29.0378 H   0  0  0  0  0  0  0  0  0  0  0  0
   19.1190   55.5209   27.2204 H   0  0  0  0  0  0  0  0  0  0  0  0
   16.8971   54.4696   28.7907 H   0  0  0  0  0  0  0  0  0  0  0  0
   18.7057   52.5188   29.2087 H   0  0  0  0  0  0  0  0  0  0  0  0
   17.6801   52.7214   27.7480 H   0  0  0  0  0  0  0  0  0  0  0  0
   19.3722   53.3243   27.7480 H   0  0  0  0  0  0  0  0  0  0  0  0
   19.0999   58.4085   29.8611 H   0  0  0  0  0  0  0  0  0  0  0  0
   16.7838   56.7476   28.3142 H   0  0  0  0  0  0  0  0  0  0  0  0
  1  2  2  0
  1  9  1  0
  2  3  1  0
  3  4  2  0
  4  5  1  0
  4  8  1  0
  5  6  1  0
 11  5  1  0
  6  7  2  0
  7  8  1  0
  8  9  2  0
  9 10  1  0
 11 12  1  0
 11 16  1  0
 12 13  1  0
 12 17  1  0
 13 14  1  0
 13 18  1  0
 14 15  1  0
 14 16  1  0
  2 19  1  0
  6 20  1  0
 10 21  1  0
 10 22  1  0
 11 23  1  1
 12 24  1  1
 13 25  1  6
 14 26  1  1
 15 27  1  0
 15 28  1  0
 15 29  1  0
 17 30  1  0
 18 31  1  0
M  END
>  <filename_input>  (4) 
7TOM_5AD_docked.sdf

>  <pdb_id>  (4) 
7TOM_5AD

>  <pose_rank>  (4) 
3

>  <num_atoms_heavy>  (4) 
18

>  <num_torsions>  (4) 
1

>  <pose>  (4) 
[18.888729445862577, 55.967752384945854, 35.600420327311, -1.7232225879933742, -2.4021026339228833, 1.0154896261919264, 0.0783600954161767]

>  <energy>  (4) 
-659.5716963239547

>  <inter_energy>  (4) 
-647.0098470376994

>  <intra_energy>  (4) 
1.8054750325130724

>  <rmsd>  (4) 
5.79791

>  <sdf_rank>  (4) 
0

$$$$

     RDKit          3D

 31 33  0  0  0  0  0  0  0  0999 V2000
   21.6950   57.9108   33.1679 N   0  0  0  0  0  0  0  0  0  0  0  0
   21.5426   57.9807   31.8371 C   0  0  0  0  0  0  0  0  0  0  0  0
   20.5921   57.4272   31.0673 N   0  0  0  0  0  0  0  0  0  0  0  0
   19.7002   56.7469   31.8149 C   0  0  0  0  0  0  0  0  0  0  0  0
   18.5596   56.1045   31.3869 N   0  0  0  0  0  0  0  0  0  0  0  0
   17.9736   55.5951   32.5155 C   0  0  0  0  0  0  0  0  0  0  0  0
   18.6333   55.8464   33.6214 N   0  0  0  0  0  0  0  0  0  0  0  0
   19.7306   56.5823   33.1915 C   0  0  0  0  0  0  0  0  0  0  0  0
   20.7949   57.1982   33.8889 C   0  0  0  0  0  0  0  0  0  0  0  0
   20.9538   57.1181   35.2212 N   0  0  0  0  0  0  0  0  0  0  0  0
   18.0696   55.9774   30.0133 C   0  0  1  0  0  0  0  0  0  0  0  0
   19.1422   55.6118   28.9841 C   0  0  1  0  0  0  0  0  0  0  0  0
   18.2822   55.0312   27.8469 C   0  0  1  0  0  0  0  0  0  0  0  0
   17.0005   54.5546   28.5558 C   0  0  1  0  0  0  0  0  0  0  0  0
   16.7003   53.0724   28.4206 C   0  0  0  0  0  0  0  0  0  0  0  0
   17.1523   54.9080   29.9524 O   0  0  0  0  0  0  0  0  0  0  0  0
   19.9074   56.7553   28.6191 O   0  0  0  0  0  0  0  0  0  0  0  0
   17.9150   55.9869   26.8646 O   0  0  0  0  0  0  0  0  0  0  0  0
   22.3004   58.5728   31.3031 H   0  0  0  0  0  0  0  0  0  0  0  0
   17.0328   55.0255   32.4963 H   0  0  0  0  0  0  0  0  0  0  0  0
   20.2819   56.5820   35.7887 H   0  0  0  0  0  0  0  0  0  0  0  0
   21.7475   57.5928   35.6746 H   0  0  0  0  0  0  0  0  0  0  0  0
   17.6516   56.9657   29.7714 H   0  0  0  0  0  0  0  0  0  0  0  0
   19.9107   54.9039   29.3279 H   0  0  0  0  0  0  0  0  0  0  0  0
   18.8431   54.2500   27.3129 H   0  0  0  0  0  0  0  0  0  0  0  0
   16.1421   55.0455   28.0741 H   0  0  0  0  0  0  0  0  0  0  0  0
   16.6095   52.6239   29.4209 H   0  0  0  0  0  0  0  0  0  0  0  0
   15.7567   52.9380   27.8715 H   0  0  0  0  0  0  0  0  0  0  0  0
   17.5173   52.5814   27.8715 H   0  0  0  0  0  0  0  0  0  0  0  0
   20.2179   57.2194   29.4366 H   0  0  0  0  0  0  0  0  0  0  0  0
   17.5979   56.8124   27.3097 H   0  0  0  0  0  0  0  0  0  0  0  0
  1  2  2  0
  1  9  1  0
  2  3  1  0
  3  4  2  0
  4  5  1  0
  4  8  1  0
  5  6  1  0
 11  5  1  0
  6  7  2  0
  7  8  1  0
  8  9  2  0
  9 10  1  0
 11 12  1  0
 11 16  1  0
 12 13  1  0
 12 17  1  0
 13 14  1  0
 13 18  1  0
 14 15  1  0
 14 16  1  0
  2 19  1  0
  6 20  1  0
 10 21  1  0
 10 22  1  0
 11 23  1  6
 12 24  1  1
 13 25  1  6
 14 26  1  6
 15 27  1  0
 15 28  1  0
 15 29  1  0
 17 30  1  0
 18 31  1  0
M  END
>  <filename_input>  (5) 
7TOM_5AD_docked.sdf

>  <pdb_id>  (5) 
7TOM_5AD

>  <pose_rank>  (5) 
4

>  <num_atoms_heavy>  (5) 
18

>  <num_torsions>  (5) 
1

>  <pose>  (5) 
[21.695029717592185, 57.910823495072016, 33.1679248094177, 2.403772107923299, -1.5783906452017031, -0.9157793884742278, -2.11125614896728]

>  <energy>  (5) 
-503.5187762032041

>  <inter_energy>  (5) 
-552.4346401937436

>  <intra_energy>  (5) 
37.545580074669715

>  <rmsd>  (5) 
5.79206

>  <sdf_rank>  (5) 
0

$$$$

     RDKit          3D

 31 33  0  0  0  0  0  0  0  0999 V2000
   22.1319   56.3955   34.3744 N   0  0  0  0  0  0  0  0  0  0  0  0
   22.1699   56.2525   33.0412 C   0  0  0  0  0  0  0  0  0  0  0  0
   21.1500   56.2005   32.1697 N   0  0  0  0  0  0  0  0  0  0  0  0
   19.9673   56.3412   32.8009 C   0  0  0  0  0  0  0  0  0  0  0  0
   18.7133   56.4025   32.2346 N   0  0  0  0  0  0  0  0  0  0  0  0
   17.8427   56.5828   33.2767 C   0  0  0  0  0  0  0  0  0  0  0  0
   18.4202   56.6371   34.4535 N   0  0  0  0  0  0  0  0  0  0  0  0
   19.7714   56.4899   34.1656 C   0  0  0  0  0  0  0  0  0  0  0  0
   20.9253   56.5097   34.9819 C   0  0  0  0  0  0  0  0  0  0  0  0
   20.8862   56.6412   36.3190 N   0  0  0  0  0  0  0  0  0  0  0  0
   18.3686   56.2903   30.8162 C   0  0  1  0  0  0  0  0  0  0  0  0
   19.5147   56.6111   29.8535 C   0  0  1  0  0  0  0  0  0  0  0  0
   19.0417   55.8967   28.5743 C   0  0  1  0  0  0  0  0  0  0  0  0
   18.1011   54.7920   29.0914 C   0  0  1  0  0  0  0  0  0  0  0  0
   18.5126   53.3744   28.7361 C   0  0  0  0  0  0  0  0  0  0  0  0
   18.0411   54.9488   30.5302 O   0  0  0  0  0  0  0  0  0  0  0  0
   19.6835   58.0177   29.7145 O   0  0  0  0  0  0  0  0  0  0  0  0
   18.3035   56.7306   27.6953 O   0  0  0  0  0  0  0  0  0  0  0  0
   23.1746   56.1659   32.6017 H   0  0  0  0  0  0  0  0  0  0  0  0
   16.7552   56.6740   33.1391 H   0  0  0  0  0  0  0  0  0  0  0  0
   19.9805   56.7295   36.8015 H   0  0  0  0  0  0  0  0  0  0  0  0
   21.7620   56.6538   36.8611 H   0  0  0  0  0  0  0  0  0  0  0  0
   17.5523   57.0124   30.6673 H   0  0  0  0  0  0  0  0  0  0  0  0
   20.5127   56.2761   30.1725 H   0  0  0  0  0  0  0  0  0  0  0  0
   19.9098   55.5442   27.9979 H   0  0  0  0  0  0  0  0  0  0  0  0
   17.1253   54.9177   28.5995 H   0  0  0  0  0  0  0  0  0  0  0  0
   18.6796   52.7990   29.6585 H   0  0  0  0  0  0  0  0  0  0  0  0
   17.7156   52.8982   28.1461 H   0  0  0  0  0  0  0  0  0  0  0  0
   19.4407   53.3989   28.1461 H   0  0  0  0  0  0  0  0  0  0  0  0
   19.7335   58.4343   30.6111 H   0  0  0  0  0  0  0  0  0  0  0  0
   17.7485   57.3575   28.2235 H   0  0  0  0  0  0  0  0  0  0  0  0
  1  2  2  0
  1  9  1  0
  2  3  1  0
  3  4  2  0
  4  5  1  0
  4  8  1  0
  5  6  1  0
 11  5  1  0
  6  7  2  0
  7  8  1  0
  8  9  2  0
  9 10  1  0
 11 12  1  0
 11 16  1  0
 12 13  1  0
 12 17  1  0
 13 14  1  0
 13 18  1  0
 14 15  1  0
 14 16  1  0
  2 19  1  0
  6 20  1  0
 10 21  1  0
 10 22  1  0
 11 23  1  6
 12 24  1  1
 13 25  1  6
 14 26  1  6
 15 27  1  0
 15 28  1  0
 15 29  1  0
 17 30  1  0
 18 31  1  0
M  END
>  <filename_input>  (6) 
7TOM_5AD_docked.sdf

>  <pdb_id>  (6) 
7TOM_5AD

>  <pose_rank>  (6) 
5

>  <num_atoms_heavy>  (6) 
18

>  <num_torsions>  (6) 
1

>  <pose>  (6) 
[22.131917466181402, 56.39551662481425, 34.37436290257802, 1.9008288904394048, -2.4373637193465667, -0.6244728880447077, 3.0098624572756703]

>  <energy>  (6) 
-569.5652248187661

>  <inter_energy>  (6) 
-589.9437298709669

>  <intra_energy>  (6) 
21.47117201087819

>  <rmsd>  (6) 
5.77938

>  <sdf_rank>  (6) 
0

$$$$

     RDKit          3D

 31 33  0  0  0  0  0  0  0  0999 V2000
   19.0010   56.8143   35.8607 N   0  0  0  0  0  0  0  0  0  0  0  0
   18.1568   56.7693   34.8193 C   0  0  0  0  0  0  0  0  0  0  0  0
   18.4379   56.6735   33.5100 N   0  0  0  0  0  0  0  0  0  0  0  0
   19.7680   56.5945   33.3058 C   0  0  0  0  0  0  0  0  0  0  0  0
   20.4268   56.4239   32.1083 N   0  0  0  0  0  0  0  0  0  0  0  0
   21.7594   56.3710   32.4211 C   0  0  0  0  0  0  0  0  0  0  0  0
   22.0143   56.4966   33.7019 N   0  0  0  0  0  0  0  0  0  0  0  0
   20.7570   56.6345   34.2769 C   0  0  0  0  0  0  0  0  0  0  0  0
   20.3339   56.7576   35.6201 C   0  0  0  0  0  0  0  0  0  0  0  0
   21.1806   56.8145   36.6625 N   0  0  0  0  0  0  0  0  0  0  0  0
   19.8374   56.3271   30.7718 C   0  0  1  0  0  0  0  0  0  0  0  0
   18.4560   55.6689   30.7295 C   0  0  1  0  0  0  0  0  0  0  0  0
   17.9098   56.2018   29.3924 C   0  0  1  0  0  0  0  0  0  0  0  0
   18.6904   57.5103   29.1668 C   0  0  1  0  0  0  0  0  0  0  0  0
   17.8374   58.7619   29.0624 C   0  0  0  0  0  0  0  0  0  0  0  0
   19.6165   57.6281   30.2744 O   0  0  0  0  0  0  0  0  0  0  0  0
   18.5658   54.2512   30.7978 O   0  0  0  0  0  0  0  0  0  0  0  0
   18.1592   55.3425   28.2914 O   0  0  0  0  0  0  0  0  0  0  0  0
   17.0875   56.8174   35.0728 H   0  0  0  0  0  0  0  0  0  0  0  0
   22.5466   56.2351   31.6648 H   0  0  0  0  0  0  0  0  0  0  0  0
   22.1974   56.7731   36.5031 H   0  0  0  0  0  0  0  0  0  0  0  0
   20.8127   56.8995   37.6208 H   0  0  0  0  0  0  0  0  0  0  0  0
   20.5499   55.7206   30.1936 H   0  0  0  0  0  0  0  0  0  0  0  0
   17.7907   55.9028   31.5737 H   0  0  0  0  0  0  0  0  0  0  0  0
   16.8166   56.3097   29.4493 H   0  0  0  0  0  0  0  0  0  0  0  0
   19.1891   57.4451   28.1885 H   0  0  0  0  0  0  0  0  0  0  0  0
   17.5912   59.1231   30.0719 H   0  0  0  0  0  0  0  0  0  0  0  0
   18.3936   59.5406   28.5199 H   0  0  0  0  0  0  0  0  0  0  0  0
   16.9093   58.5289   28.5199 H   0  0  0  0  0  0  0  0  0  0  0  0
   18.5878   53.9672   31.7459 H   0  0  0  0  0  0  0  0  0  0  0  0
   18.4191   54.4469   28.6240 H   0  0  0  0  0  0  0  0  0  0  0  0
  1  2  2  0
  1  9  1  0
  2  3  1  0
  3  4  2  0
  4  5  1  0
  4  8  1  0
  5  6  1  0
 11  5  1  0
  6  7  2  0
  7  8  1  0
  8  9  2  0
  9 10  1  0
 11 12  1  0
 11 16  1  0
 12 13  1  0
 12 17  1  0
 13 14  1  0
 13 18  1  0
 14 15  1  0
 14 16  1  0
  2 19  1  0
  6 20  1  0
 10 21  1  0
 10 22  1  0
 11 23  1  6
 12 24  1  1
 13 25  1  1
 14 26  1  6
 15 27  1  0
 15 28  1  0
 15 29  1  0
 17 30  1  0
 18 31  1  0
M  END
>  <filename_input>  (7) 
7TOM_5AD_docked.sdf

>  <pdb_id>  (7) 
7TOM_5AD

>  <pose_rank>  (7) 
6

>  <num_atoms_heavy>  (7) 
18

>  <num_torsions>  (7) 
1

>  <pose>  (7) 
[19.00095889127988, 56.81428844757352, 35.86074145000699, -2.294393129226007, -2.0788257701196358, 0.9516926198540915, 2.829608682804216]

>  <energy>  (7) 
-509.4244343689073

>  <inter_energy>  (7) 
-508.34413492747774

>  <intra_energy>  (7) 
16.584955524329523

>  <rmsd>  (7) 
5.97517

>  <sdf_rank>  (7) 
0

$$$$

     RDKit          3D

 31 33  0  0  0  0  0  0  0  0999 V2000
   18.8624   57.2934   35.9855 N   0  0  0  0  0  0  0  0  0  0  0  0
   17.8614   57.2357   35.0944 C   0  0  0  0  0  0  0  0  0  0  0  0
   17.9230   57.0232   33.7702 N   0  0  0  0  0  0  0  0  0  0  0  0
   19.1958   56.8296   33.3705 C   0  0  0  0  0  0  0  0  0  0  0  0
   19.6427   56.5224   32.1045 N   0  0  0  0  0  0  0  0  0  0  0  0
   21.0022   56.3926   32.2110 C   0  0  0  0  0  0  0  0  0  0  0  0
   21.4659   56.5924   33.4220 N   0  0  0  0  0  0  0  0  0  0  0  0
   20.3278   56.8662   34.1705 C   0  0  0  0  0  0  0  0  0  0  0  0
   20.1335   57.1191   35.5477 C   0  0  0  0  0  0  0  0  0  0  0  0
   21.1378   57.1885   36.4383 N   0  0  0  0  0  0  0  0  0  0  0  0
   18.8423   56.3724   30.8879 C   0  0  1  0  0  0  0  0  0  0  0  0
   19.5727   56.7400   29.5939 C   0  0  1  0  0  0  0  0  0  0  0  0
   18.7321   55.9839   28.5490 C   0  0  1  0  0  0  0  0  0  0  0  0
   18.0855   54.8382   29.3501 C   0  0  1  0  0  0  0  0  0  0  0  0
   18.4280   53.4396   28.8688 C   0  0  0  0  0  0  0  0  0  0  0  0
   18.5106   55.0116   30.7240 O   0  0  0  0  0  0  0  0  0  0  0  0
   19.6071   58.1515   29.4126 O   0  0  0  0  0  0  0  0  0  0  0  0
   17.6944   56.7652   27.9782 O   0  0  0  0  0  0  0  0  0  0  0  0
   16.8515   57.3826   35.5050 H   0  0  0  0  0  0  0  0  0  0  0  0
   21.6483   56.1427   31.3565 H   0  0  0  0  0  0  0  0  0  0  0  0
   22.1114   57.0592   36.1279 H   0  0  0  0  0  0  0  0  0  0  0  0
   20.9339   57.3711   37.4313 H   0  0  0  0  0  0  0  0  0  0  0  0
   17.9859   57.0481   31.0298 H   0  0  0  0  0  0  0  0  0  0  0  0
   20.6364   56.4628   29.5520 H   0  0  0  0  0  0  0  0  0  0  0  0
   19.3698   55.6699   27.7095 H   0  0  0  0  0  0  0  0  0  0  0  0
   16.9952   54.9052   29.2208 H   0  0  0  0  0  0  0  0  0  0  0  0
   18.5889   52.7825   29.7361 H   0  0  0  0  0  0  0  0  0  0  0  0
   17.5992   53.0478   28.2607 H   0  0  0  0  0  0  0  0  0  0  0  0
   19.3440   53.4751   28.2607 H   0  0  0  0  0  0  0  0  0  0  0  0
   19.6180   58.5975   30.2964 H   0  0  0  0  0  0  0  0  0  0  0  0
   17.1530   57.1727   28.7000 H   0  0  0  0  0  0  0  0  0  0  0  0
  1  2  2  0
  1  9  1  0
  2  3  1  0
  3  4  2  0
  4  5  1  0
  4  8  1  0
  5  6  1  0
 11  5  1  0
  6  7  2  0
  7  8  1  0
  8  9  2  0
  9 10  1  0
 11 12  1  0
 11 16  1  0
 12 13  1  0
 12 17  1  0
 13 14  1  0
 13 18  1  0
 14 15  1  0
 14 16  1  0
  2 19  1  0
  6 20  1  0
 10 21  1  0
 10 22  1  0
 11 23  1  1
 12 24  1  1
 13 25  1  6
 14 26  1  1
 15 27  1  0
 15 28  1  0
 15 29  1  0
 17 30  1  0
 18 31  1  0
M  END
>  <filename_input>  (8) 
7TOM_5AD_docked.sdf

>  <pdb_id>  (8) 
7TOM_5AD

>  <pose_rank>  (8) 
7

>  <num_atoms_heavy>  (8) 
18

>  <num_torsions>  (8) 
1

>  <pose>  (8) 
[18.862352077667317, 57.293406282853375, 35.98552748082685, 2.1817787062145637, 1.8844878262520561, -1.1666069785975877, -12.83589948336762]

>  <energy>  (8) 
-601.2094484194902

>  <inter_energy>  (8) 
-598.172098426594

>  <intra_energy>  (8) 
0.004579901404207127

>  <rmsd>  (8) 
5.98094

>  <sdf_rank>  (8) 
0

$$$$

     RDKit          3D

 31 33  0  0  0  0  0  0  0  0999 V2000
   17.9064   54.5598   28.3000 N   0  0  0  0  0  0  0  0  0  0  0  0
   18.2796   53.9282   29.4230 C   0  0  0  0  0  0  0  0  0  0  0  0
   18.9391   54.4167   30.4854 N   0  0  0  0  0  0  0  0  0  0  0  0
   19.2023   55.7295   30.3291 C   0  0  0  0  0  0  0  0  0  0  0  0
   19.8031   56.5805   31.2302 N   0  0  0  0  0  0  0  0  0  0  0  0
   19.8150   57.8112   30.6288 C   0  0  0  0  0  0  0  0  0  0  0  0
   19.2844   57.8260   29.4289 N   0  0  0  0  0  0  0  0  0  0  0  0
   18.8862   56.5103   29.2276 C   0  0  0  0  0  0  0  0  0  0  0  0
   18.2079   55.8744   28.1627 C   0  0  0  0  0  0  0  0  0  0  0  0
   17.8445   56.5049   27.0325 N   0  0  0  0  0  0  0  0  0  0  0  0
   20.3316   56.2488   32.5544 C   0  0  1  0  0  0  0  0  0  0  0  0
   21.5724   57.0460   32.9646 C   0  0  1  0  0  0  0  0  0  0  0  0
   21.5332   56.8962   34.4963 C   0  0  1  0  0  0  0  0  0  0  0  0
   20.0487   56.6265   34.8058 C   0  0  1  0  0  0  0  0  0  0  0  0
   19.3841   57.6414   35.7188 C   0  0  0  0  0  0  0  0  0  0  0  0
   19.3677   56.5830   33.5280 O   0  0  0  0  0  0  0  0  0  0  0  0
   22.7427   56.5168   32.3508 O   0  0  0  0  0  0  0  0  0  0  0  0
   22.2925   55.8005   34.9818 O   0  0  0  0  0  0  0  0  0  0  0  0
   18.0080   52.8638   29.4814 H   0  0  0  0  0  0  0  0  0  0  0  0
   20.2326   58.7081   31.1095 H   0  0  0  0  0  0  0  0  0  0  0  0
   18.0633   57.5035   26.9068 H   0  0  0  0  0  0  0  0  0  0  0  0
   17.3473   55.9894   26.2923 H   0  0  0  0  0  0  0  0  0  0  0  0
   20.5856   55.1801   32.4961 H   0  0  0  0  0  0  0  0  0  0  0  0
   21.5872   58.0998   32.6496 H   0  0  0  0  0  0  0  0  0  0  0  0
   21.9581   57.7922   34.9724 H   0  0  0  0  0  0  0  0  0  0  0  0
   19.9836   55.6816   35.3653 H   0  0  0  0  0  0  0  0  0  0  0  0
   19.5653   57.3648   36.7679 H   0  0  0  0  0  0  0  0  0  0  0  0
   19.8042   58.6394   35.5250 H   0  0  0  0  0  0  0  0  0  0  0  0
   18.3014   57.6554   35.5250 H   0  0  0  0  0  0  0  0  0  0  0  0
   23.3807   56.2282   33.0506 H   0  0  0  0  0  0  0  0  0  0  0  0
   22.2872   55.8081   35.9718 H   0  0  0  0  0  0  0  0  0  0  0  0
  1  2  2  0
  1  9  1  0
  2  3  1  0
  3  4  2  0
  4  5  1  0
  4  8  1  0
  5  6  1  0
 11  5  1  0
  6  7  2  0
  7  8  1  0
  8  9  2  0
  9 10  1  0
 11 12  1  0
 11 16  1  0
 12 13  1  0
 12 17  1  0
 13 14  1  0
 13 18  1  0
 14 15  1  0
 14 16  1  0
  2 19  1  0
  6 20  1  0
 10 21  1  0
 10 22  1  0
 11 23  1  6
 12 24  1  1
 13 25  1  1
 14 26  1  1
 15 27  1  0
 15 28  1  0
 15 29  1  0
 17 30  1  0
 18 31  1  0
M  END
>  <filename_input>  (9) 
7TOM_5AD_docked.sdf

>  <pdb_id>  (9) 
7TOM_5AD

>  <pose_rank>  (9) 
8

>  <num_atoms_heavy>  (9) 
18

>  <num_torsions>  (9) 
1

>  <pose>  (9) 
[17.906439891769388, 54.55979747839254, 28.30003754454389, 0.08456271037725892, 0.013645325784565988, -0.17415708566163454, 5.940999648079315]

>  <energy>  (9) 
-628.4621999315041

>  <inter_energy>  (9) 
-631.430530046905

>  <intra_energy>  (9) 
0.0

>  <rmsd>  (9) 
1.17161

>  <sdf_rank>  (9) 
0

$$$$

     RDKit          3D

 31 33  0  0  0  0  0  0  0  0999 V2000
   17.4726   53.7654   27.5253 N   0  0  0  0  0  0  0  0  0  0  0  0
   17.7297   53.3998   28.7900 C   0  0  0  0  0  0  0  0  0  0  0  0
   18.2477   54.1307   29.7899 N   0  0  0  0  0  0  0  0  0  0  0  0
   18.4915   55.3944   29.3889 C   0  0  0  0  0  0  0  0  0  0  0  0
   18.9601   56.4429   30.1491 N   0  0  0  0  0  0  0  0  0  0  0  0
   19.0084   57.5215   29.3059 C   0  0  0  0  0  0  0  0  0  0  0  0
   18.6207   57.2605   28.0800 N   0  0  0  0  0  0  0  0  0  0  0  0
   18.2845   55.9130   28.1196 C   0  0  0  0  0  0  0  0  0  0  0  0
   17.7521   55.0367   27.1464 C   0  0  0  0  0  0  0  0  0  0  0  0
   17.5056   55.4002   25.8760 N   0  0  0  0  0  0  0  0  0  0  0  0
   19.3399   56.4200   31.5627 C   0  0  1  0  0  0  0  0  0  0  0  0
   20.5487   55.5377   31.8847 C   0  0  1  0  0  0  0  0  0  0  0  0
   21.0092   56.1366   33.2261 C   0  0  1  0  0  0  0  0  0  0  0  0
   20.4763   57.5813   33.1910 C   0  0  1  0  0  0  0  0  0  0  0  0
   21.5362   58.6637   33.2925 C   0  0  0  0  0  0  0  0  0  0  0  0
   19.7435   57.7149   31.9486 O   0  0  0  0  0  0  0  0  0  0  0  0
   20.1741   54.1659   31.9497 O   0  0  0  0  0  0  0  0  0  0  0  0
   20.4555   55.4883   34.3601 O   0  0  0  0  0  0  0  0  0  0  0  0
   17.4822   52.3582   29.0425 H   0  0  0  0  0  0  0  0  0  0  0  0
   19.3428   58.5186   29.6283 H   0  0  0  0  0  0  0  0  0  0  0  0
   17.7103   56.3610   25.5663 H   0  0  0  0  0  0  0  0  0  0  0  0
   17.1120   54.7180   25.2123 H   0  0  0  0  0  0  0  0  0  0  0  0
   18.4534   56.0318   32.0856 H   0  0  0  0  0  0  0  0  0  0  0  0
   21.3511   55.5359   31.1323 H   0  0  0  0  0  0  0  0  0  0  0  0
   22.1004   56.0396   33.3260 H   0  0  0  0  0  0  0  0  0  0  0  0
   19.8513   57.7356   34.0829 H   0  0  0  0  0  0  0  0  0  0  0  0
   21.7437   58.8755   34.3518 H   0  0  0  0  0  0  0  0  0  0  0  0
   22.4582   58.3214   32.7996 H   0  0  0  0  0  0  0  0  0  0  0  0
   21.1747   59.5782   32.7996 H   0  0  0  0  0  0  0  0  0  0  0  0
   20.0985   53.8890   32.8972 H   0  0  0  0  0  0  0  0  0  0  0  0
   20.8112   55.9048   35.1848 H   0  0  0  0  0  0  0  0  0  0  0  0
  1  2  2  0
  1  9  1  0
  2  3  1  0
  3  4  2  0
  4  5  1  0
  4  8  1  0
  5  6  1  0
 11  5  1  0
  6  7  2  0
  7  8  1  0
  8  9  2  0
  9 10  1  0
 11 12  1  0
 11 16  1  0
 12 13  1  0
 12 17  1  0
 13 14  1  0
 13 18  1  0
 14 15  1  0
 14 16  1  0
  2 19  1  0
  6 20  1  0
 10 21  1  0
 10 22  1  0
 11 23  1  1
 12 24  1  6
 13 25  1  1
 14 26  1  1
 15 27  1  0
 15 28  1  0
 15 29  1  0
 17 30  1  0
 18 31  1  0
M  END
>  <filename_input>  (10) 
7TOM_5AD_docked.sdf

>  <pdb_id>  (10) 
7TOM_5AD

>  <pose_rank>  (10) 
9

>  <num_atoms_heavy>  (10) 
18

>  <num_torsions>  (10) 
1

>  <pose>  (10) 
[17.47256922518197, 53.76541694205961, 27.52531984323513, 3.3780970801332586, 3.3518961886795675, 3.773563481795752, -1.758896519669592]

>  <energy>  (10) 
-908.3708958080159

>  <inter_energy>  (10) 
-927.9283322973477

>  <intra_energy>  (10) 
16.121773070316635

>  <rmsd>  (10) 
1.69196

>  <sdf_rank>  (10) 
0

$$$$

     RDKit          3D

 31 33  0  0  0  0  0  0  0  0999 V2000
   20.5437   57.8674   33.5271 N   0  0  0  0  0  0  0  0  0  0  0  0
   19.5800   58.2146   32.6611 C   0  0  0  0  0  0  0  0  0  0  0  0
   19.0181   57.4813   31.6869 N   0  0  0  0  0  0  0  0  0  0  0  0
   19.5341   56.2362   31.6604 C   0  0  0  0  0  0  0  0  0  0  0  0
   19.1637   55.1890   30.8461 N   0  0  0  0  0  0  0  0  0  0  0  0
   19.9505   54.1314   31.2189 C   0  0  0  0  0  0  0  0  0  0  0  0
   20.7904   54.4047   32.1890 N   0  0  0  0  0  0  0  0  0  0  0  0
   20.5331   55.7380   32.4829 C   0  0  0  0  0  0  0  0  0  0  0  0
   21.0593   56.6154   33.4584 C   0  0  0  0  0  0  0  0  0  0  0  0
   22.0332   56.2708   34.3184 N   0  0  0  0  0  0  0  0  0  0  0  0
   18.1485   55.1951   29.7914 C   0  0  1  0  0  0  0  0  0  0  0  0
   18.6939   54.9687   28.3791 C   0  0  1  0  0  0  0  0  0  0  0  0
   17.4301   54.4892   27.6420 C   0  0  1  0  0  0  0  0  0  0  0  0
   16.5457   53.9068   28.7605 C   0  0  1  0  0  0  0  0  0  0  0  0
   16.1871   52.4399   28.6030 C   0  0  0  0  0  0  0  0  0  0  0  0
   17.2668   54.1144   29.9996 O   0  0  0  0  0  0  0  0  0  0  0  0
   19.2629   56.1641   27.8560 O   0  0  0  0  0  0  0  0  0  0  0  0
   16.7096   55.5334   27.0069 O   0  0  0  0  0  0  0  0  0  0  0  0
   19.1976   59.2409   32.7631 H   0  0  0  0  0  0  0  0  0  0  0  0
   19.8838   53.1403   30.7465 H   0  0  0  0  0  0  0  0  0  0  0  0
   22.4396   55.3250   34.2842 H   0  0  0  0  0  0  0  0  0  0  0  0
   22.3732   56.9526   35.0116 H   0  0  0  0  0  0  0  0  0  0  0  0
   17.6876   56.1921   29.8506 H   0  0  0  0  0  0  0  0  0  0  0  0
   19.5216   54.2488   28.2977 H   0  0  0  0  0  0  0  0  0  0  0  0
   17.7054   53.7838   26.8441 H   0  0  0  0  0  0  0  0  0  0  0  0
   15.5749   54.4232   28.7309 H   0  0  0  0  0  0  0  0  0  0  0  0
   16.0750   51.9811   29.5965 H   0  0  0  0  0  0  0  0  0  0  0  0
   15.2409   52.3511   28.0493 H   0  0  0  0  0  0  0  0  0  0  0  0
   16.9858   51.9246   28.0493 H   0  0  0  0  0  0  0  0  0  0  0  0
   19.5423   56.7509   28.6028 H   0  0  0  0  0  0  0  0  0  0  0  0
   16.3047   56.1202   27.6938 H   0  0  0  0  0  0  0  0  0  0  0  0
  1  2  2  0
  1  9  1  0
  2  3  1  0
  3  4  2  0
  4  5  1  0
  4  8  1  0
  5  6  1  0
 11  5  1  0
  6  7  2  0
  7  8  1  0
  8  9  2  0
  9 10  1  0
 11 12  1  0
 11 16  1  0
 12 13  1  0
 12 17  1  0
 13 14  1  0
 13 18  1  0
 14 15  1  0
 14 16  1  0
  2 19  1  0
  6 20  1  0
 10 21  1  0
 10 22  1  0
 11 23  1  6
 12 24  1  1
 13 25  1  6
 14 26  1  1
 15 27  1  0
 15 28  1  0
 15 29  1  0
 17 30  1  0
 18 31  1  0
M  END
>  <filename_input>  (11) 
7TOM_5AD_docked.sdf

>  <pdb_id>  (11) 
7TOM_5AD

>  <pose_rank>  (11) 
10

>  <num_atoms_heavy>  (11) 
18

>  <num_torsions>  (11) 
1

>  <pose>  (11) 
[20.5436733087042, 57.86735812842386, 33.52714489789083, 2.5923869291574926, 0.3290477876682458, -1.6689196270627582, -13.441810232221933]

>  <energy>  (11) 
-565.5049573112385

>  <inter_energy>  (11) 
-562.1048920123454

>  <intra_energy>  (11) 
0.0

>  <rmsd>  (11) 
5.89604

>  <sdf_rank>  (11) 
0

$$$$

     RDKit          3D

 31 33  0  0  0  0  0  0  0  0999 V2000
   20.4678   57.9099   33.6072 N   0  0  0  0  0  0  0  0  0  0  0  0
   19.4867   58.2133   32.7443 C   0  0  0  0  0  0  0  0  0  0  0  0
   18.9542   57.4548   31.7728 N   0  0  0  0  0  0  0  0  0  0  0  0
   19.5244   56.2337   31.7457 C   0  0  0  0  0  0  0  0  0  0  0  0
   19.1976   55.1703   30.9338 N   0  0  0  0  0  0  0  0  0  0  0  0
   20.0315   54.1488   31.3048 C   0  0  0  0  0  0  0  0  0  0  0  0
   20.8621   54.4599   32.2716 N   0  0  0  0  0  0  0  0  0  0  0  0
   20.5474   55.7810   32.5651 C   0  0  0  0  0  0  0  0  0  0  0  0
   21.0379   56.6818   33.5378 C   0  0  0  0  0  0  0  0  0  0  0  0
   22.0291   56.3814   34.3946 N   0  0  0  0  0  0  0  0  0  0  0  0
   18.1793   55.1303   29.8828 C   0  0  1  0  0  0  0  0  0  0  0  0
   18.7269   54.9007   28.4718 C   0  0  1  0  0  0  0  0  0  0  0  0
   17.4761   54.3724   27.7462 C   0  0  1  0  0  0  0  0  0  0  0  0
   16.6134   53.7792   28.8759 C   0  0  1  0  0  0  0  0  0  0  0  0
   16.2994   52.2999   28.7404 C   0  0  0  0  0  0  0  0  0  0  0  0
   17.3317   54.0263   30.1093 O   0  0  0  0  0  0  0  0  0  0  0  0
   19.2575   56.1054   27.9299 O   0  0  0  0  0  0  0  0  0  0  0  0
   16.7220   55.3851   27.0990 O   0  0  0  0  0  0  0  0  0  0  0  0
   19.0598   59.2219   32.8467 H   0  0  0  0  0  0  0  0  0  0  0  0
   20.0070   53.1551   30.8336 H   0  0  0  0  0  0  0  0  0  0  0  0
   22.4766   55.4544   34.3598 H   0  0  0  0  0  0  0  0  0  0  0  0
   22.3412   57.0784   35.0858 H   0  0  0  0  0  0  0  0  0  0  0  0
   17.6884   56.1136   29.9296 H   0  0  0  0  0  0  0  0  0  0  0  0
   19.5760   54.2053   28.3976 H   0  0  0  0  0  0  0  0  0  0  0  0
   17.7702   53.6646   26.9573 H   0  0  0  0  0  0  0  0  0  0  0  0
   15.6272   54.2653   28.8425 H   0  0  0  0  0  0  0  0  0  0  0  0
   16.2044   51.8522   29.7407 H   0  0  0  0  0  0  0  0  0  0  0  0
   15.3546   52.1745   28.1912 H   0  0  0  0  0  0  0  0  0  0  0  0
   17.1118   51.8015   28.1912 H   0  0  0  0  0  0  0  0  0  0  0  0
   19.5237   56.7098   28.6674 H   0  0  0  0  0  0  0  0  0  0  0  0
   16.2923   55.9621   27.7791 H   0  0  0  0  0  0  0  0  0  0  0  0
  1  2  2  0
  1  9  1  0
  2  3  1  0
  3  4  2  0
  4  5  1  0
  4  8  1  0
  5  6  1  0
 11  5  1  0
  6  7  2  0
  7  8  1  0
  8  9  2  0
  9 10  1  0
 11 12  1  0
 11 16  1  0
 12 13  1  0
 12 17  1  0
 13 14  1  0
 13 18  1  0
 14 15  1  0
 14 16  1  0
  2 19  1  0
  6 20  1  0
 10 21  1  0
 10 22  1  0
 11 23  1  6
 12 24  1  1
 13 25  1  6
 14 26  1  1
 15 27  1  0
 15 28  1  0
 15 29  1  0
 17 30  1  0
 18 31  1  0
M  END
>  <filename_input>  (12) 
7TOM_5AD_docked.sdf

>  <pdb_id>  (12) 
7TOM_5AD

>  <pose_rank>  (12) 
11

>  <num_atoms_heavy>  (12) 
18

>  <num_torsions>  (12) 
1

>  <pose>  (12) 
[20.46781043982177, 57.90986740997087, 33.60716691701762, 2.5621020395666756, 0.3824295730919557, -1.6594351085539512, -13.423017281473957]

>  <energy>  (12) 
-541.4764197945328

>  <inter_energy>  (12) 
-525.1125606100185

>  <intra_energy>  (12) 
0.0

>  <rmsd>  (12) 
5.89726

>  <sdf_rank>  (12) 
0

$$$$

     RDKit          3D

 31 33  0  0  0  0  0  0  0  0999 V2000
   17.5041   53.6069   27.4949 N   0  0  0  0  0  0  0  0  0  0  0  0
   17.9442   53.1517   28.6774 C   0  0  0  0  0  0  0  0  0  0  0  0
   18.4747   53.8398   29.7009 N   0  0  0  0  0  0  0  0  0  0  0  0
   18.5121   55.1594   29.4283 C   0  0  0  0  0  0  0  0  0  0  0  0
   18.9274   56.1783   30.2567 N   0  0  0  0  0  0  0  0  0  0  0  0
   18.7460   57.3344   29.5444 C   0  0  0  0  0  0  0  0  0  0  0  0
   18.2600   57.1504   28.3398 N   0  0  0  0  0  0  0  0  0  0  0  0
   18.1017   55.7727   28.2543 C   0  0  0  0  0  0  0  0  0  0  0  0
   17.5783   54.9367   27.2416 C   0  0  0  0  0  0  0  0  0  0  0  0
   17.1482   55.3918   26.0522 N   0  0  0  0  0  0  0  0  0  0  0  0
   19.4621   56.0622   31.6145 C   0  0  1  0  0  0  0  0  0  0  0  0
   20.0494   57.3569   32.1822 C   0  0  1  0  0  0  0  0  0  0  0  0
   19.9953   57.0737   33.6945 C   0  0  1  0  0  0  0  0  0  0  0  0
   18.8719   56.0298   33.8376 C   0  0  1  0  0  0  0  0  0  0  0  0
   17.7071   56.4501   34.7161 C   0  0  0  0  0  0  0  0  0  0  0  0
   18.4076   55.7447   32.4954 O   0  0  0  0  0  0  0  0  0  0  0  0
   21.3583   57.5879   31.6726 O   0  0  0  0  0  0  0  0  0  0  0  0
   21.1904   56.5113   34.2125 O   0  0  0  0  0  0  0  0  0  0  0  0
   17.8588   52.0656   28.8294 H   0  0  0  0  0  0  0  0  0  0  0  0
   18.9867   58.3293   29.9471 H   0  0  0  0  0  0  0  0  0  0  0  0
   17.1952   56.3983   25.8384 H   0  0  0  0  0  0  0  0  0  0  0  0
   16.7717   54.7342   25.3547 H   0  0  0  0  0  0  0  0  0  0  0  0
   20.2540   55.3023   31.5407 H   0  0  0  0  0  0  0  0  0  0  0  0
   19.5162   58.2804   31.9123 H   0  0  0  0  0  0  0  0  0  0  0  0
   19.8392   58.0120   34.2471 H   0  0  0  0  0  0  0  0  0  0  0  0
   19.2880   55.1496   34.3496 H   0  0  0  0  0  0  0  0  0  0  0  0
   17.9902   56.3479   35.7741 H   0  0  0  0  0  0  0  0  0  0  0  0
   17.4485   57.4983   34.5053 H   0  0  0  0  0  0  0  0  0  0  0  0
   16.8387   55.8087   34.5053 H   0  0  0  0  0  0  0  0  0  0  0  0
   21.9908   57.6995   32.4260 H   0  0  0  0  0  0  0  0  0  0  0  0
   21.1601   56.5256   35.2019 H   0  0  0  0  0  0  0  0  0  0  0  0
  1  2  2  0
  1  9  1  0
  2  3  1  0
  3  4  2  0
  4  5  1  0
  4  8  1  0
  5  6  1  0
 11  5  1  0
  6  7  2  0
  7  8  1  0
  8  9  2  0
  9 10  1  0
 11 12  1  0
 11 16  1  0
 12 13  1  0
 12 17  1  0
 13 14  1  0
 13 18  1  0
 14 15  1  0
 14 16  1  0
  2 19  1  0
  6 20  1  0
 10 21  1  0
 10 22  1  0
 11 23  1  6
 12 24  1  1
 13 25  1  1
 14 26  1  1
 15 27  1  0
 15 28  1  0
 15 29  1  0
 17 30  1  0
 18 31  1  0
M  END
>  <filename_input>  (13) 
7TOM_5AD_docked.sdf

>  <pdb_id>  (13) 
7TOM_5AD

>  <pose_rank>  (13) 
12

>  <num_atoms_heavy>  (13) 
18

>  <num_torsions>  (13) 
1

>  <pose>  (13) 
[17.504095870939523, 53.606906432333794, 27.49485096507257, 10.53921784282442, 22.665825092031287, -2.4909673528894793, 6.3671190280722]

>  <energy>  (13) 
-961.6973928608146

>  <inter_energy>  (13) 
-954.9348274407542

>  <intra_energy>  (13) 
1.878480129008614

>  <rmsd>  (13) 
0.430468

>  <sdf_rank>  (13) 
0

$$$$

     RDKit          3D

 31 33  0  0  0  0  0  0  0  0999 V2000
   26.7237   55.5298   22.4916 N   0  0  0  0  0  0  0  0  0  0  0  0
   26.1910   54.3647   22.0940 C   0  0  0  0  0  0  0  0  0  0  0  0
   26.1923   53.1789   22.7235 N   0  0  0  0  0  0  0  0  0  0  0  0
   26.8129   53.2659   23.9170 C   0  0  0  0  0  0  0  0  0  0  0  0
   26.9543   52.2778   24.8660 N   0  0  0  0  0  0  0  0  0  0  0  0
   27.6240   52.8582   25.9106 C   0  0  0  0  0  0  0  0  0  0  0  0
   27.9279   54.1197   25.7170 N   0  0  0  0  0  0  0  0  0  0  0  0
   27.4139   54.3936   24.4556 C   0  0  0  0  0  0  0  0  0  0  0  0
   27.3630   55.5783   23.6861 C   0  0  0  0  0  0  0  0  0  0  0  0
   27.9072   56.7427   24.0797 N   0  0  0  0  0  0  0  0  0  0  0  0
   26.4966   50.8897   24.7835 C   0  0  1  0  0  0  0  0  0  0  0  0
   27.4742   49.9353   24.0930 C   0  0  1  0  0  0  0  0  0  0  0  0
   27.0042   48.5754   24.6410 C   0  0  1  0  0  0  0  0  0  0  0  0
   26.3153   48.9289   25.9724 C   0  0  1  0  0  0  0  0  0  0  0  0
   26.9201   48.2807   27.2050 C   0  0  0  0  0  0  0  0  0  0  0  0
   26.3704   50.3717   26.0890 O   0  0  0  0  0  0  0  0  0  0  0  0
   27.3925   50.0600   22.6774 O   0  0  0  0  0  0  0  0  0  0  0  0
   26.0557   47.9234   23.8115 O   0  0  0  0  0  0  0  0  0  0  0  0
   25.6834   54.3834   21.1183 H   0  0  0  0  0  0  0  0  0  0  0  0
   27.8841   52.3144   26.8307 H   0  0  0  0  0  0  0  0  0  0  0  0
   28.3976   56.8026   24.9835 H   0  0  0  0  0  0  0  0  0  0  0  0
   27.8338   57.5751   23.4774 H   0  0  0  0  0  0  0  0  0  0  0  0
   25.5610   50.9360   24.2068 H   0  0  0  0  0  0  0  0  0  0  0  0
   28.5403   50.1186   24.2928 H   0  0  0  0  0  0  0  0  0  0  0  0
   27.8585   47.8871   24.7211 H   0  0  0  0  0  0  0  0  0  0  0  0
   25.2889   48.5344   25.9401 H   0  0  0  0  0  0  0  0  0  0  0  0
   26.4918   48.7397   28.1082 H   0  0  0  0  0  0  0  0  0  0  0  0
   26.6967   47.2036   27.1999 H   0  0  0  0  0  0  0  0  0  0  0  0
   28.0100   48.4291   27.1999 H   0  0  0  0  0  0  0  0  0  0  0  0
   26.8647   50.8653   22.4469 H   0  0  0  0  0  0  0  0  0  0  0  0
   25.3854   47.4626   24.3758 H   0  0  0  0  0  0  0  0  0  0  0  0
  1  2  2  0
  1  9  1  0
  2  3  1  0
  3  4  2  0
  4  5  1  0
  4  8  1  0
  5  6  1  0
 11  5  1  0
  6  7  2  0
  7  8  1  0
  8  9  2  0
  9 10  1  0
 11 12  1  0
 11 16  1  0
 12 13  1  0
 12 17  1  0
 13 14  1  0
 13 18  1  0
 14 15  1  0
 14 16  1  0
  2 19  1  0
  6 20  1  0
 10 21  1  0
 10 22  1  0
 11 23  1  6
 12 24  1  1
 13 25  1  1
 14 26  1  6
 15 27  1  0
 15 28  1  0
 15 29  1  0
 17 30  1  0
 18 31  1  0
M  END
>  <filename_input>  (14) 
7TOM_5AD_docked.sdf

>  <pdb_id>  (14) 
7TOM_5AD

>  <pose_rank>  (14) 
13

>  <num_atoms_heavy>  (14) 
18

>  <num_torsions>  (14) 
1

>  <pose>  (14) 
[26.723721528777823, 55.52976707336407, 22.491628269594823, 1.4482693332960836, -0.25350745043346995, -0.7944636399316194, 4.89386938509122]

>  <energy>  (14) 
-106.94417776738608

>  <inter_energy>  (14) 
-91.66452655888632

>  <intra_energy>  (14) 
1.1383147020451003

>  <rmsd>  (14) 
11.7229

>  <sdf_rank>  (14) 
0

$$$$

     RDKit          3D

 31 33  0  0  0  0  0  0  0  0999 V2000
   12.7827   46.6800   34.3118 N   0  0  0  0  0  0  0  0  0  0  0  0
   12.6882   46.9412   35.6241 C   0  0  0  0  0  0  0  0  0  0  0  0
   13.6639   47.2405   36.4964 N   0  0  0  0  0  0  0  0  0  0  0  0
   14.8634   47.2854   35.8831 C   0  0  0  0  0  0  0  0  0  0  0  0
   16.0793   47.6206   36.4363 N   0  0  0  0  0  0  0  0  0  0  0  0
   16.9858   47.5532   35.4115 C   0  0  0  0  0  0  0  0  0  0  0  0
   16.4659   47.2022   34.2591 N   0  0  0  0  0  0  0  0  0  0  0  0
   15.1164   47.0336   34.5431 C   0  0  0  0  0  0  0  0  0  0  0  0
   14.0068   46.7089   33.7297 C   0  0  0  0  0  0  0  0  0  0  0  0
   14.1035   46.4356   32.4172 N   0  0  0  0  0  0  0  0  0  0  0  0
   16.3593   47.9694   37.8303 C   0  0  1  0  0  0  0  0  0  0  0  0
   16.5162   46.7705   38.7691 C   0  0  1  0  0  0  0  0  0  0  0  0
   17.3114   47.3984   39.9283 C   0  0  1  0  0  0  0  0  0  0  0  0
   18.0327   48.5947   39.2795 C   0  0  1  0  0  0  0  0  0  0  0  0
   19.5484   48.5557   39.3587 C   0  0  0  0  0  0  0  0  0  0  0  0
   17.6056   48.6260   37.8957 O   0  0  0  0  0  0  0  0  0  0  0  0
   15.2461   46.2467   39.1417 O   0  0  0  0  0  0  0  0  0  0  0  0
   16.4949   47.8909   40.9789 O   0  0  0  0  0  0  0  0  0  0  0  0
   11.6717   46.9053   36.0430 H   0  0  0  0  0  0  0  0  0  0  0  0
   18.0553   47.7739   35.5431 H   0  0  0  0  0  0  0  0  0  0  0  0
   15.0235   46.4518   31.9542 H   0  0  0  0  0  0  0  0  0  0  0  0
   13.2577   46.2101   31.8744 H   0  0  0  0  0  0  0  0  0  0  0  0
   15.4962   48.5728   38.1479 H   0  0  0  0  0  0  0  0  0  0  0  0
   17.0255   45.8941   38.3416 H   0  0  0  0  0  0  0  0  0  0  0  0
   17.9685   46.6438   40.3852 H   0  0  0  0  0  0  0  0  0  0  0  0
   17.7597   49.5014   39.8392 H   0  0  0  0  0  0  0  0  0  0  0  0
   19.8604   48.5477   40.4135 H   0  0  0  0  0  0  0  0  0  0  0  0
   19.9184   47.6477   38.8600 H   0  0  0  0  0  0  0  0  0  0  0  0
   19.9646   49.4434   38.8600 H   0  0  0  0  0  0  0  0  0  0  0  0
   15.1776   46.2184   40.1289 H   0  0  0  0  0  0  0  0  0  0  0  0
   16.8969   47.6484   41.8505 H   0  0  0  0  0  0  0  0  0  0  0  0
  1  2  2  0
  1  9  1  0
  2  3  1  0
  3  4  2  0
  4  5  1  0
  4  8  1  0
  5  6  1  0
 11  5  1  0
  6  7  2  0
  7  8  1  0
  8  9  2  0
  9 10  1  0
 11 12  1  0
 11 16  1  0
 12 13  1  0
 12 17  1  0
 13 14  1  0
 13 18  1  0
 14 15  1  0
 14 16  1  0
  2 19  1  0
  6 20  1  0
 10 21  1  0
 10 22  1  0
 11 23  1  1
 12 24  1  6
 13 25  1  1
 14 26  1  1
 15 27  1  0
 15 28  1  0
 15 29  1  0
 17 30  1  0
 18 31  1  0
M  END
>  <filename_input>  (15) 
7TOM_5AD_docked.sdf

>  <pdb_id>  (15) 
7TOM_5AD

>  <pose_rank>  (15) 
14

>  <num_atoms_heavy>  (15) 
18

>  <num_torsions>  (15) 
1

>  <pose>  (15) 
[12.782748299808418, 46.67996444057075, 34.31181717926814, -0.6577772227090144, -0.26345276927039407, -1.2357647092489277, -1.4673762469255331]

>  <energy>  (15) 
-176.006969825855

>  <inter_energy>  (15) 
-159.68925864525707

>  <intra_energy>  (15) 
2.817780071762149

>  <rmsd>  (15) 
11.3204

>  <sdf_rank>  (15) 
0

$$$$

     RDKit          3D

 31 33  0  0  0  0  0  0  0  0999 V2000
   11.3304   48.2518   36.8124 N   0  0  0  0  0  0  0  0  0  0  0  0
   12.2828   48.2513   35.8678 C   0  0  0  0  0  0  0  0  0  0  0  0
   13.5901   47.9712   35.9893 N   0  0  0  0  0  0  0  0  0  0  0  0
   13.8963   47.6338   37.2579 C   0  0  0  0  0  0  0  0  0  0  0  0
   15.1163   47.2242   37.7487 N   0  0  0  0  0  0  0  0  0  0  0  0
   14.9146   46.9655   39.0787 C   0  0  0  0  0  0  0  0  0  0  0  0
   13.6847   47.1756   39.4845 N   0  0  0  0  0  0  0  0  0  0  0  0
   13.0252   47.5960   38.3362 C   0  0  0  0  0  0  0  0  0  0  0  0
   11.6755   47.9319   38.0838 C   0  0  0  0  0  0  0  0  0  0  0  0
   10.7237   47.9437   39.0329 N   0  0  0  0  0  0  0  0  0  0  0  0
   16.3760   47.0966   37.0139 C   0  0  1  0  0  0  0  0  0  0  0  0
   17.1133   48.4171   36.7770 C   0  0  1  0  0  0  0  0  0  0  0  0
   18.5477   47.9190   36.5226 C   0  0  1  0  0  0  0  0  0  0  0  0
   18.6007   46.5561   37.2382 C   0  0  1  0  0  0  0  0  0  0  0  0
   19.6433   46.4428   38.3361 C   0  0  0  0  0  0  0  0  0  0  0  0
   17.2770   46.3296   37.7812 O   0  0  0  0  0  0  0  0  0  0  0  0
   16.5371   49.1334   35.6902 O   0  0  0  0  0  0  0  0  0  0  0  0
   18.8440   47.7103   35.1509 O   0  0  0  0  0  0  0  0  0  0  0  0
   11.9465   48.5168   34.8547 H   0  0  0  0  0  0  0  0  0  0  0  0
   15.7134   46.6126   39.7476 H   0  0  0  0  0  0  0  0  0  0  0  0
   10.9634   47.7040   40.0056 H   0  0  0  0  0  0  0  0  0  0  0  0
    9.7548   48.1925   38.7876 H   0  0  0  0  0  0  0  0  0  0  0  0
   16.0938   46.6560   36.0464 H   0  0  0  0  0  0  0  0  0  0  0  0
   17.0652   49.1441   37.6011 H   0  0  0  0  0  0  0  0  0  0  0  0
   19.2733   48.6657   36.8777 H   0  0  0  0  0  0  0  0  0  0  0  0
   18.9044   45.7967   36.5026 H   0  0  0  0  0  0  0  0  0  0  0  0
   19.1495   46.4965   39.3175 H   0  0  0  0  0  0  0  0  0  0  0  0
   20.1708   45.4820   38.2430 H   0  0  0  0  0  0  0  0  0  0  0  0
   20.3649   47.2678   38.2430 H   0  0  0  0  0  0  0  0  0  0  0  0
   15.9568   49.8547   36.0411 H   0  0  0  0  0  0  0  0  0  0  0  0
   19.6505   47.1418   35.0702 H   0  0  0  0  0  0  0  0  0  0  0  0
  1  2  2  0
  1  9  1  0
  2  3  1  0
  3  4  2  0
  4  5  1  0
  4  8  1  0
  5  6  1  0
 11  5  1  0
  6  7  2  0
  7  8  1  0
  8  9  2  0
  9 10  1  0
 11 12  1  0
 11 16  1  0
 12 13  1  0
 12 17  1  0
 13 14  1  0
 13 18  1  0
 14 15  1  0
 14 16  1  0
  2 19  1  0
  6 20  1  0
 10 21  1  0
 10 22  1  0
 11 23  1  6
 12 24  1  1
 13 25  1  1
 14 26  1  6
 15 27  1  0
 15 28  1  0
 15 29  1  0
 17 30  1  0
 18 31  1  0
M  END
>  <filename_input>  (16) 
7TOM_5AD_docked.sdf

>  <pdb_id>  (16) 
7TOM_5AD

>  <pose_rank>  (16) 
15

>  <num_atoms_heavy>  (16) 
18

>  <num_torsions>  (16) 
1

>  <pose>  (16) 
[11.330373443906328, 48.25182594992137, 36.81239155954352, 1.9651321227325478, 0.937475583600062, 0.6671293510494891, -1.5113994343169592]

>  <energy>  (16) 
-173.14295928107367

>  <inter_energy>  (16) 
-158.90084640496025

>  <intra_energy>  (16) 
4.149742666035031

>  <rmsd>  (16) 
12.1564

>  <sdf_rank>  (16) 
0

$$$$

     RDKit          3D

 31 33  0  0  0  0  0  0  0  0999 V2000
   27.5006   48.8647   24.3498 N   0  0  0  0  0  0  0  0  0  0  0  0
   27.7009   47.8786   25.2368 C   0  0  0  0  0  0  0  0  0  0  0  0
   27.6683   47.9317   26.5779 N   0  0  0  0  0  0  0  0  0  0  0  0
   27.3646   49.1736   27.0051 C   0  0  0  0  0  0  0  0  0  0  0  0
   27.1798   49.5952   28.3032 N   0  0  0  0  0  0  0  0  0  0  0  0
   26.8567   50.9239   28.2205 C   0  0  0  0  0  0  0  0  0  0  0  0
   26.8228   51.3914   26.9951 N   0  0  0  0  0  0  0  0  0  0  0  0
   27.1388   50.2883   26.2118 C   0  0  0  0  0  0  0  0  0  0  0  0
   27.2214   50.1082   24.8121 C   0  0  0  0  0  0  0  0  0  0  0  0
   27.0322   51.0992   23.9239 N   0  0  0  0  0  0  0  0  0  0  0  0
   27.3081   48.8006   29.5260 C   0  0  1  0  0  0  0  0  0  0  0  0
   27.8289   49.5755   30.7391 C   0  0  1  0  0  0  0  0  0  0  0  0
   27.3363   48.6882   31.8967 C   0  0  1  0  0  0  0  0  0  0  0  0
   26.1290   47.9383   31.3029 C   0  0  1  0  0  0  0  0  0  0  0  0
   24.8095   48.1693   32.0177 C   0  0  0  0  0  0  0  0  0  0  0  0
   26.0283   48.3589   29.9204 O   0  0  0  0  0  0  0  0  0  0  0  0
   29.2426   49.7296   30.6755 O   0  0  0  0  0  0  0  0  0  0  0  0
   28.2883   47.7264   32.3231 O   0  0  0  0  0  0  0  0  0  0  0  0
   27.9223   46.8908   24.8063 H   0  0  0  0  0  0  0  0  0  0  0  0
   26.6444   51.5442   29.1038 H   0  0  0  0  0  0  0  0  0  0  0  0
   26.8190   52.0517   24.2528 H   0  0  0  0  0  0  0  0  0  0  0  0
   27.1004   50.9061   22.9145 H   0  0  0  0  0  0  0  0  0  0  0  0
   28.0192   48.0018   29.2688 H   0  0  0  0  0  0  0  0  0  0  0  0
   27.4744   50.6129   30.8298 H   0  0  0  0  0  0  0  0  0  0  0  0
   27.1180   49.3081   32.7788 H   0  0  0  0  0  0  0  0  0  0  0  0
   26.3087   46.8591   31.4169 H   0  0  0  0  0  0  0  0  0  0  0  0
   24.9718   48.1409   33.1053 H   0  0  0  0  0  0  0  0  0  0  0  0
   24.4053   49.1518   31.7329 H   0  0  0  0  0  0  0  0  0  0  0  0
   24.0956   47.3824   31.7329 H   0  0  0  0  0  0  0  0  0  0  0  0
   29.6118   49.7699   31.5932 H   0  0  0  0  0  0  0  0  0  0  0  0
   28.3124   47.7021   33.3125 H   0  0  0  0  0  0  0  0  0  0  0  0
  1  2  2  0
  1  9  1  0
  2  3  1  0
  3  4  2  0
  4  5  1  0
  4  8  1  0
  5  6  1  0
 11  5  1  0
  6  7  2  0
  7  8  1  0
  8  9  2  0
  9 10  1  0
 11 12  1  0
 11 16  1  0
 12 13  1  0
 12 17  1  0
 13 14  1  0
 13 18  1  0
 14 15  1  0
 14 16  1  0
  2 19  1  0
  6 20  1  0
 10 21  1  0
 10 22  1  0
 11 23  1  6
 12 24  1  1
 13 25  1  1
 14 26  1  6
 15 27  1  0
 15 28  1  0
 15 29  1  0
 17 30  1  0
 18 31  1  0
M  END
>  <filename_input>  (17) 
7TOM_5AD_docked.sdf

>  <pdb_id>  (17) 
7TOM_5AD

>  <pose_rank>  (17) 
16

>  <num_atoms_heavy>  (17) 
18

>  <num_torsions>  (17) 
1

>  <pose>  (17) 
[27.50058760929119, 48.86469311489196, 24.349809524069816, 0.558571021355708, -0.3949278451032085, 0.22861916100490368, -0.32815915527105854]

>  <energy>  (17) 
-164.0604676036799

>  <inter_energy>  (17) 
-165.7106211815166

>  <intra_energy>  (17) 
0.0

>  <rmsd>  (17) 
10.9811

>  <sdf_rank>  (17) 
0

$$$$

     RDKit          3D

 31 33  0  0  0  0  0  0  0  0999 V2000
   10.1080   59.3342   27.0328 N   0  0  0  0  0  0  0  0  0  0  0  0
   10.6155   58.1328   26.7191 C   0  0  0  0  0  0  0  0  0  0  0  0
   10.8210   57.0709   27.5144 N   0  0  0  0  0  0  0  0  0  0  0  0
   10.4144   57.3247   28.7743 C   0  0  0  0  0  0  0  0  0  0  0  0
   10.4078   56.4605   29.8466 N   0  0  0  0  0  0  0  0  0  0  0  0
    9.8758   57.1683   30.8918 C   0  0  0  0  0  0  0  0  0  0  0  0
    9.5472   58.4023   30.5907 N   0  0  0  0  0  0  0  0  0  0  0  0
    9.8795   58.5139   29.2463 C   0  0  0  0  0  0  0  0  0  0  0  0
    9.7312   59.5663   28.3142 C   0  0  0  0  0  0  0  0  0  0  0  0
    9.2335   60.7740   28.6316 N   0  0  0  0  0  0  0  0  0  0  0  0
   10.8776   55.0743   29.8780 C   0  0  1  0  0  0  0  0  0  0  0  0
   10.4829   54.2388   28.6576 C   0  0  1  0  0  0  0  0  0  0  0  0
   11.5284   53.1101   28.7150 C   0  0  1  0  0  0  0  0  0  0  0  0
   12.7052   53.7323   29.4900 C   0  0  1  0  0  0  0  0  0  0  0  0
   14.0208   53.7851   28.7341 C   0  0  0  0  0  0  0  0  0  0  0  0
   12.2877   55.0691   29.8599 O   0  0  0  0  0  0  0  0  0  0  0  0
    9.1333   53.7972   28.7585 O   0  0  0  0  0  0  0  0  0  0  0  0
   11.0897   51.9619   29.4237 O   0  0  0  0  0  0  0  0  0  0  0  0
   10.9028   57.9995   25.6657 H   0  0  0  0  0  0  0  0  0  0  0  0
    9.7363   56.7398   31.8953 H   0  0  0  0  0  0  0  0  0  0  0  0
    8.9409   60.9724   29.5990 H   0  0  0  0  0  0  0  0  0  0  0  0
    9.1446   61.5009   27.9073 H   0  0  0  0  0  0  0  0  0  0  0  0
   10.4204   54.6429   30.7806 H   0  0  0  0  0  0  0  0  0  0  0  0
   10.4947   54.7684   27.6936 H   0  0  0  0  0  0  0  0  0  0  0  0
   11.7648   52.7648   27.6977 H   0  0  0  0  0  0  0  0  0  0  0  0
   12.9207   53.0891   30.3560 H   0  0  0  0  0  0  0  0  0  0  0  0
   14.8545   53.8186   29.4510 H   0  0  0  0  0  0  0  0  0  0  0  0
   14.1167   52.8901   28.1019 H   0  0  0  0  0  0  0  0  0  0  0  0
   14.0446   54.6849   28.1019 H   0  0  0  0  0  0  0  0  0  0  0  0
    8.8834   53.7154   29.7129 H   0  0  0  0  0  0  0  0  0  0  0  0
   11.1541   52.1304   30.3971 H   0  0  0  0  0  0  0  0  0  0  0  0
  1  2  2  0
  1  9  1  0
  2  3  1  0
  3  4  2  0
  4  5  1  0
  4  8  1  0
  5  6  1  0
 11  5  1  0
  6  7  2  0
  7  8  1  0
  8  9  2  0
  9 10  1  0
 11 12  1  0
 11 16  1  0
 12 13  1  0
 12 17  1  0
 13 14  1  0
 13 18  1  0
 14 15  1  0
 14 16  1  0
  2 19  1  0
  6 20  1  0
 10 21  1  0
 10 22  1  0
 11 23  1  1
 12 24  1  6
 13 25  1  6
 14 26  1  1
 15 27  1  0
 15 28  1  0
 15 29  1  0
 17 30  1  0
 18 31  1  0
M  END
>  <filename_input>  (18) 
7TOM_5AD_docked.sdf

>  <pdb_id>  (18) 
7TOM_5AD

>  <pose_rank>  (18) 
17

>  <num_atoms_heavy>  (18) 
18

>  <num_torsions>  (18) 
1

>  <pose>  (18) 
[10.107955815717586, 59.334200299729595, 27.032790964998195, -4.516744498612043, 0.9571021224352846, -0.6409119827543436, 2.652890296138422]

>  <energy>  (18) 
-162.39935062734907

>  <inter_energy>  (18) 
-158.09242900267128

>  <intra_energy>  (18) 
12.018812895235769

>  <rmsd>  (18) 
9.70917

>  <sdf_rank>  (18) 
0

$$$$

     RDKit          3D

 31 33  0  0  0  0  0  0  0  0999 V2000
   20.5032   65.5247   22.5989 N   0  0  0  0  0  0  0  0  0  0  0  0
   19.4559   66.0784   21.9697 C   0  0  0  0  0  0  0  0  0  0  0  0
   18.1450   65.9025   22.1999 N   0  0  0  0  0  0  0  0  0  0  0  0
   17.9445   65.0592   23.2322 C   0  0  0  0  0  0  0  0  0  0  0  0
   16.7434   64.6901   23.7962 N   0  0  0  0  0  0  0  0  0  0  0  0
   17.0605   63.8486   24.8296 C   0  0  0  0  0  0  0  0  0  0  0  0
   18.3478   63.6414   24.9756 N   0  0  0  0  0  0  0  0  0  0  0  0
   18.9221   64.4088   23.9699 C   0  0  0  0  0  0  0  0  0  0  0  0
   20.2675   64.6613   23.6172 C   0  0  0  0  0  0  0  0  0  0  0  0
   21.3164   64.0971   24.2403 N   0  0  0  0  0  0  0  0  0  0  0  0
   15.4002   65.0981   23.3809 C   0  0  1  0  0  0  0  0  0  0  0  0
   14.7246   64.1513   22.3857 C   0  0  1  0  0  0  0  0  0  0  0  0
   13.2417   64.5145   22.5844 C   0  0  1  0  0  0  0  0  0  0  0  0
   13.1880   65.0912   24.0116 C   0  0  1  0  0  0  0  0  0  0  0  0
   12.2773   64.3501   24.9742 C   0  0  0  0  0  0  0  0  0  0  0  0
   14.5497   65.0828   24.5057 O   0  0  0  0  0  0  0  0  0  0  0  0
   15.2124   64.3681   21.0661 O   0  0  0  0  0  0  0  0  0  0  0  0
   12.7730   65.5089   21.6875 O   0  0  0  0  0  0  0  0  0  0  0  0
   19.7054   66.7718   21.1530 H   0  0  0  0  0  0  0  0  0  0  0  0
   16.3026   63.3872   25.4797 H   0  0  0  0  0  0  0  0  0  0  0  0
   21.1608   63.4381   25.0165 H   0  0  0  0  0  0  0  0  0  0  0  0
   22.2758   64.3236   23.9416 H   0  0  0  0  0  0  0  0  0  0  0  0
   15.5380   66.0840   22.9129 H   0  0  0  0  0  0  0  0  0  0  0  0
   14.9153   63.0795   22.5431 H   0  0  0  0  0  0  0  0  0  0  0  0
   12.6116   63.6299   22.4101 H   0  0  0  0  0  0  0  0  0  0  0  0
   12.7524   66.0997   23.9553 H   0  0  0  0  0  0  0  0  0  0  0  0
   12.5674   64.5862   26.0087 H   0  0  0  0  0  0  0  0  0  0  0  0
   11.2355   64.6603   24.8057 H   0  0  0  0  0  0  0  0  0  0  0  0
   12.3693   63.2670   24.8057 H   0  0  0  0  0  0  0  0  0  0  0  0
   16.1162   64.7697   21.1102 H   0  0  0  0  0  0  0  0  0  0  0  0
   12.4125   66.2739   22.2021 H   0  0  0  0  0  0  0  0  0  0  0  0
  1  2  2  0
  1  9  1  0
  2  3  1  0
  3  4  2  0
  4  5  1  0
  4  8  1  0
  5  6  1  0
 11  5  1  0
  6  7  2  0
  7  8  1  0
  8  9  2  0
  9 10  1  0
 11 12  1  0
 11 16  1  0
 12 13  1  0
 12 17  1  0
 13 14  1  0
 13 18  1  0
 14 15  1  0
 14 16  1  0
  2 19  1  0
  6 20  1  0
 10 21  1  0
 10 22  1  0
 11 23  1  6
 12 24  1  1
 13 25  1  1
 14 26  1  6
 15 27  1  0
 15 28  1  0
 15 29  1  0
 17 30  1  0
 18 31  1  0
M  END
>  <filename_input>  (19) 
7TOM_5AD_docked.sdf

>  <pdb_id>  (19) 
7TOM_5AD

>  <pose_rank>  (19) 
18

>  <num_atoms_heavy>  (19) 
18

>  <num_torsions>  (19) 
1

>  <pose>  (19) 
[20.503158943367975, 65.52468698450146, 22.59889161813821, -1.7785212202253902, 1.6328670282341513, 2.3981502798789553, -1.2750866212644707]

>  <energy>  (19) 
-158.24411710353147

>  <inter_energy>  (19) 
-145.72127087595425

>  <intra_energy>  (19) 
0.062408010313695486

>  <rmsd>  (19) 
12.7684

>  <sdf_rank>  (19) 
0

$$$$

     RDKit          3D

 31 33  0  0  0  0  0  0  0  0999 V2000
   25.2408   46.7537   32.6794 N   0  0  0  0  0  0  0  0  0  0  0  0
   25.2824   46.2256   31.4471 C   0  0  0  0  0  0  0  0  0  0  0  0
   25.8444   46.7248   30.3347 N   0  0  0  0  0  0  0  0  0  0  0  0
   26.4440   47.9059   30.5844 C   0  0  0  0  0  0  0  0  0  0  0  0
   27.1740   48.6805   29.7102 N   0  0  0  0  0  0  0  0  0  0  0  0
   27.6023   49.7594   30.4375 C   0  0  0  0  0  0  0  0  0  0  0  0
   27.2115   49.7501   31.6899 N   0  0  0  0  0  0  0  0  0  0  0  0
   26.4784   48.5749   31.7985 C   0  0  0  0  0  0  0  0  0  0  0  0
   25.8321   47.9549   32.8923 C   0  0  0  0  0  0  0  0  0  0  0  0
   25.7805   48.4901   34.1242 N   0  0  0  0  0  0  0  0  0  0  0  0
   27.4368   48.4203   28.2938 C   0  0  1  0  0  0  0  0  0  0  0  0
   26.3181   47.6726   27.5638 C   0  0  1  0  0  0  0  0  0  0  0  0
   26.6164   48.0408   26.0990 C   0  0  1  0  0  0  0  0  0  0  0  0
   27.3877   49.3702   26.1993 C   0  0  1  0  0  0  0  0  0  0  0  0
   26.7391   50.5484   25.4946 C   0  0  0  0  0  0  0  0  0  0  0  0
   27.5320   49.6516   27.6129 O   0  0  0  0  0  0  0  0  0  0  0  0
   26.3721   46.2778   27.8433 O   0  0  0  0  0  0  0  0  0  0  0  0
   27.4418   47.0997   25.4312 O   0  0  0  0  0  0  0  0  0  0  0  0
   24.7882   45.2496   31.3322 H   0  0  0  0  0  0  0  0  0  0  0  0
   28.2196   50.5628   30.0092 H   0  0  0  0  0  0  0  0  0  0  0  0
   26.2229   49.4017   34.3087 H   0  0  0  0  0  0  0  0  0  0  0  0
   25.2986   47.9884   34.8838 H   0  0  0  0  0  0  0  0  0  0  0  0
   28.3517   47.8098   28.2851 H   0  0  0  0  0  0  0  0  0  0  0  0
   25.2934   47.9411   27.8601 H   0  0  0  0  0  0  0  0  0  0  0  0
   25.6797   48.0822   25.5238 H   0  0  0  0  0  0  0  0  0  0  0  0
   28.3497   49.2459   25.6806 H   0  0  0  0  0  0  0  0  0  0  0  0
   26.3504   51.2545   26.2431 H   0  0  0  0  0  0  0  0  0  0  0  0
   27.4854   51.0552   24.8652 H   0  0  0  0  0  0  0  0  0  0  0  0
   25.9118   50.1889   24.8652 H   0  0  0  0  0  0  0  0  0  0  0  0
   26.3776   46.1376   28.8233 H   0  0  0  0  0  0  0  0  0  0  0  0
   27.9236   46.5506   26.0994 H   0  0  0  0  0  0  0  0  0  0  0  0
  1  2  2  0
  1  9  1  0
  2  3  1  0
  3  4  2  0
  4  5  1  0
  4  8  1  0
  5  6  1  0
 11  5  1  0
  6  7  2  0
  7  8  1  0
  8  9  2  0
  9 10  1  0
 11 12  1  0
 11 16  1  0
 12 13  1  0
 12 17  1  0
 13 14  1  0
 13 18  1  0
 14 15  1  0
 14 16  1  0
  2 19  1  0
  6 20  1  0
 10 21  1  0
 10 22  1  0
 11 23  1  1
 12 24  1  1
 13 25  1  6
 14 26  1  6
 15 27  1  0
 15 28  1  0
 15 29  1  0
 17 30  1  0
 18 31  1  0
M  END
>  <filename_input>  (20) 
7TOM_5AD_docked.sdf

>  <pdb_id>  (20) 
7TOM_5AD

>  <pose_rank>  (20) 
19

>  <num_atoms_heavy>  (20) 
18

>  <num_torsions>  (20) 
1

>  <pose>  (20) 
[25.24077617491079, 46.753689918657386, 32.67941650550055, -1.155783321264764, -3.569036189719025, 0.2955359623970103, -2.335376718726667]

>  <energy>  (20) 
-115.26978373003091

>  <inter_energy>  (20) 
-163.89651695032254

>  <intra_energy>  (20) 
46.29019747753456

>  <rmsd>  (20) 
12.1873

>  <sdf_rank>  (20) 
0

$$$$

     RDKit          3D

 31 33  0  0  0  0  0  0  0  0999 V2000
   27.0408   55.3032   21.9120 N   0  0  0  0  0  0  0  0  0  0  0  0
   27.2928   54.0088   21.6661 C   0  0  0  0  0  0  0  0  0  0  0  0
   27.5173   53.0134   22.5386 N   0  0  0  0  0  0  0  0  0  0  0  0
   27.4383   53.4571   23.8090 C   0  0  0  0  0  0  0  0  0  0  0  0
   27.5470   52.7188   24.9665 N   0  0  0  0  0  0  0  0  0  0  0  0
   27.3634   53.6070   25.9931 C   0  0  0  0  0  0  0  0  0  0  0  0
   27.1532   54.8415   25.6019 N   0  0  0  0  0  0  0  0  0  0  0  0
   27.1932   54.7600   24.2155 C   0  0  0  0  0  0  0  0  0  0  0  0
   26.9924   55.7229   23.2001 C   0  0  0  0  0  0  0  0  0  0  0  0
   26.7516   57.0221   23.4467 N   0  0  0  0  0  0  0  0  0  0  0  0
   27.8126   51.2843   25.0879 C   0  0  1  0  0  0  0  0  0  0  0  0
   27.2668   50.6397   26.3646 C   0  0  1  0  0  0  0  0  0  0  0  0
   27.2025   49.1585   25.9498 C   0  0  1  0  0  0  0  0  0  0  0  0
   27.0904   49.2067   24.4144 C   0  0  1  0  0  0  0  0  0  0  0  0
   25.8422   48.5634   23.8371 C   0  0  0  0  0  0  0  0  0  0  0  0
   27.1470   50.6064   24.0457 O   0  0  0  0  0  0  0  0  0  0  0  0
   28.1200   50.9046   27.4729 O   0  0  0  0  0  0  0  0  0  0  0  0
   28.3674   48.4213   26.2854 O   0  0  0  0  0  0  0  0  0  0  0  0
   27.3190   53.7239   20.6040 H   0  0  0  0  0  0  0  0  0  0  0  0
   27.3899   53.3112   27.0523 H   0  0  0  0  0  0  0  0  0  0  0  0
   26.7104   57.3630   24.4178 H   0  0  0  0  0  0  0  0  0  0  0  0
   26.6082   57.6768   22.6645 H   0  0  0  0  0  0  0  0  0  0  0  0
   28.9093   51.1994   25.0747 H   0  0  0  0  0  0  0  0  0  0  0  0
   26.2934   51.0177   26.7105 H   0  0  0  0  0  0  0  0  0  0  0  0
   26.3701   48.6592   26.4672 H   0  0  0  0  0  0  0  0  0  0  0  0
   27.9153   48.6129   23.9938 H   0  0  0  0  0  0  0  0  0  0  0  0
   25.1902   48.2274   24.6569 H   0  0  0  0  0  0  0  0  0  0  0  0
   25.3045   49.2967   23.2181 H   0  0  0  0  0  0  0  0  0  0  0  0
   26.1274   47.7000   23.2181 H   0  0  0  0  0  0  0  0  0  0  0  0
   27.6238   50.7506   28.3155 H   0  0  0  0  0  0  0  0  0  0  0  0
   28.4518   48.3679   27.2703 H   0  0  0  0  0  0  0  0  0  0  0  0
  1  2  2  0
  1  9  1  0
  2  3  1  0
  3  4  2  0
  4  5  1  0
  4  8  1  0
  5  6  1  0
 11  5  1  0
  6  7  2  0
  7  8  1  0
  8  9  2  0
  9 10  1  0
 11 12  1  0
 11 16  1  0
 12 13  1  0
 12 17  1  0
 13 14  1  0
 13 18  1  0
 14 15  1  0
 14 16  1  0
  2 19  1  0
  6 20  1  0
 10 21  1  0
 10 22  1  0
 11 23  1  6
 12 24  1  1
 13 25  1  1
 14 26  1  6
 15 27  1  0
 15 28  1  0
 15 29  1  0
 17 30  1  0
 18 31  1  0
M  END
>  <filename_input>  (21) 
7TOM_5AD_docked.sdf

>  <pdb_id>  (21) 
7TOM_5AD

>  <pose_rank>  (21) 
20

>  <num_atoms_heavy>  (21) 
18

>  <num_torsions>  (21) 
1

>  <pose>  (21) 
[27.040810240645875, 55.303173623146655, 21.911955922255057, -4.743792218202054, 0.8872427438414013, 0.15144603770956913, 0.7178687752474862]

>  <energy>  (21) 
-150.36078753923522

>  <inter_energy>  (21) 
-151.16534002927858

>  <intra_energy>  (21) 
17.619320016505824

>  <rmsd>  (21) 
11.6744

>  <sdf_rank>  (21) 
0

$$$$

     RDKit          3D

 31 33  0  0  0  0  0  0  0  0999 V2000
   25.7569   47.4008   32.3271 N   0  0  0  0  0  0  0  0  0  0  0  0
   25.0695   47.8638   31.2724 C   0  0  0  0  0  0  0  0  0  0  0  0
   25.5342   48.3330   30.1036 N   0  0  0  0  0  0  0  0  0  0  0  0
   26.8802   48.2743   30.0601 C   0  0  0  0  0  0  0  0  0  0  0  0
   27.7033   48.6057   29.0067 N   0  0  0  0  0  0  0  0  0  0  0  0
   28.9783   48.3446   29.4343 C   0  0  0  0  0  0  0  0  0  0  0  0
   29.0479   47.8836   30.6606 N   0  0  0  0  0  0  0  0  0  0  0  0
   27.7210   47.8291   31.0689 C   0  0  0  0  0  0  0  0  0  0  0  0
   27.1108   47.3778   32.2615 C   0  0  0  0  0  0  0  0  0  0  0  0
   27.8005   46.9249   33.3226 N   0  0  0  0  0  0  0  0  0  0  0  0
   27.3102   49.1363   27.7002 C   0  0  1  0  0  0  0  0  0  0  0  0
   28.4592   49.7271   26.8792 C   0  0  1  0  0  0  0  0  0  0  0  0
   27.8737   49.6679   25.4565 C   0  0  1  0  0  0  0  0  0  0  0  0
   26.8275   48.5400   25.5315 C   0  0  1  0  0  0  0  0  0  0  0  0
   27.0648   47.3745   24.5879 C   0  0  0  0  0  0  0  0  0  0  0  0
   26.8243   48.0783   26.9045 O   0  0  0  0  0  0  0  0  0  0  0  0
   28.7837   51.0383   27.3285 O   0  0  0  0  0  0  0  0  0  0  0  0
   27.2122   50.8594   25.0620 O   0  0  0  0  0  0  0  0  0  0  0  0
   23.9747   47.8582   31.3800 H   0  0  0  0  0  0  0  0  0  0  0  0
   29.8656   48.5072   28.8048 H   0  0  0  0  0  0  0  0  0  0  0  0
   28.8298   46.8986   33.2947 H   0  0  0  0  0  0  0  0  0  0  0  0
   27.2997   46.6042   34.1636 H   0  0  0  0  0  0  0  0  0  0  0  0
   26.5779   49.9254   27.9260 H   0  0  0  0  0  0  0  0  0  0  0  0
   29.4207   49.1983   26.9559 H   0  0  0  0  0  0  0  0  0  0  0  0
   28.6802   49.5140   24.7244 H   0  0  0  0  0  0  0  0  0  0  0  0
   25.8595   48.9513   25.2092 H   0  0  0  0  0  0  0  0  0  0  0  0
   27.2508   46.4615   25.1724 H   0  0  0  0  0  0  0  0  0  0  0  0
   26.1778   47.2296   23.9538 H   0  0  0  0  0  0  0  0  0  0  0  0
   27.9379   47.5881   23.9538 H   0  0  0  0  0  0  0  0  0  0  0  0
   28.7881   51.0563   28.3183 H   0  0  0  0  0  0  0  0  0  0  0  0
   26.9324   51.3634   25.8669 H   0  0  0  0  0  0  0  0  0  0  0  0
  1  2  2  0
  1  9  1  0
  2  3  1  0
  3  4  2  0
  4  5  1  0
  4  8  1  0
  5  6  1  0
 11  5  1  0
  6  7  2  0
  7  8  1  0
  8  9  2  0
  9 10  1  0
 11 12  1  0
 11 16  1  0
 12 13  1  0
 12 17  1  0
 13 14  1  0
 13 18  1  0
 14 15  1  0
 14 16  1  0
  2 19  1  0
  6 20  1  0
 10 21  1  0
 10 22  1  0
 11 23  1  1
 12 24  1  6
 13 25  1  6
 14 26  1  6
 15 27  1  0
 15 28  1  0
 15 29  1  0
 17 30  1  0
 18 31  1  0
M  END
>  <filename_input>  (22) 
7TOM_5AD_docked.sdf

>  <pdb_id>  (22) 
7TOM_5AD

>  <pose_rank>  (22) 
21

>  <num_atoms_heavy>  (22) 
18

>  <num_torsions>  (22) 
1

>  <pose>  (22) 
[25.7568758533381, 47.40075452127942, 32.32711726253994, -2.1874385944126336, -2.0325042322616222, 0.275606568970472, -0.00046322811700721944]

>  <energy>  (22) 
-151.22935518786588

>  <inter_energy>  (22) 
-142.78428823079577

>  <intra_energy>  (22) 
0.9735756820943782

>  <rmsd>  (22) 
12.5608

>  <sdf_rank>  (22) 
0

$$$$

     RDKit          3D

 31 33  0  0  0  0  0  0  0  0999 V2000
   14.7266   65.3224   27.3040 N   0  0  0  0  0  0  0  0  0  0  0  0
   14.7330   65.1092   25.9797 C   0  0  0  0  0  0  0  0  0  0  0  0
   15.7522   65.2210   25.1129 N   0  0  0  0  0  0  0  0  0  0  0  0
   16.8879   65.5773   25.7456 C   0  0  0  0  0  0  0  0  0  0  0  0
   18.1438   65.7258   25.2003 N   0  0  0  0  0  0  0  0  0  0  0  0
   18.9652   66.0622   26.2437 C   0  0  0  0  0  0  0  0  0  0  0  0
   18.3530   66.1477   27.4010 N   0  0  0  0  0  0  0  0  0  0  0  0
   17.0327   65.8370   27.1000 C   0  0  0  0  0  0  0  0  0  0  0  0
   15.8795   65.7040   27.9067 C   0  0  0  0  0  0  0  0  0  0  0  0
   15.8708   65.9292   29.2318 N   0  0  0  0  0  0  0  0  0  0  0  0
   18.5315   65.5686   23.7974 C   0  0  1  0  0  0  0  0  0  0  0  0
   19.1435   64.2085   23.4527 C   0  0  1  0  0  0  0  0  0  0  0  0
   18.9200   64.1553   21.9304 C   0  0  1  0  0  0  0  0  0  0  0  0
   17.7214   65.0941   21.6973 C   0  0  1  0  0  0  0  0  0  0  0  0
   16.5051   64.4437   21.0626 C   0  0  0  0  0  0  0  0  0  0  0  0
   17.3756   65.6422   22.9928 O   0  0  0  0  0  0  0  0  0  0  0  0
   20.5092   64.1500   23.8500 O   0  0  0  0  0  0  0  0  0  0  0  0
   20.0176   64.6436   21.1755 O   0  0  0  0  0  0  0  0  0  0  0  0
   13.7713   64.8003   25.5441 H   0  0  0  0  0  0  0  0  0  0  0  0
   20.0431   66.2446   26.1220 H   0  0  0  0  0  0  0  0  0  0  0  0
   16.7352   66.2199   29.7105 H   0  0  0  0  0  0  0  0  0  0  0  0
   14.9997   65.8111   29.7686 H   0  0  0  0  0  0  0  0  0  0  0  0
   19.2747   66.3600   23.6207 H   0  0  0  0  0  0  0  0  0  0  0  0
   18.7022   63.3430   23.9687 H   0  0  0  0  0  0  0  0  0  0  0  0
   18.7720   63.1140   21.6085 H   0  0  0  0  0  0  0  0  0  0  0  0
   18.0251   65.8599   20.9685 H   0  0  0  0  0  0  0  0  0  0  0  0
   15.8290   64.0822   21.8515 H   0  0  0  0  0  0  0  0  0  0  0  0
   15.9790   65.1809   20.4383 H   0  0  0  0  0  0  0  0  0  0  0  0
   16.8260   63.5968   20.4383 H   0  0  0  0  0  0  0  0  0  0  0  0
   20.5655   64.1475   24.8384 H   0  0  0  0  0  0  0  0  0  0  0  0
   20.7267   64.9591   21.7903 H   0  0  0  0  0  0  0  0  0  0  0  0
  1  2  2  0
  1  9  1  0
  2  3  1  0
  3  4  2  0
  4  5  1  0
  4  8  1  0
  5  6  1  0
 11  5  1  0
  6  7  2  0
  7  8  1  0
  8  9  2  0
  9 10  1  0
 11 12  1  0
 11 16  1  0
 12 13  1  0
 12 17  1  0
 13 14  1  0
 13 18  1  0
 14 15  1  0
 14 16  1  0
  2 19  1  0
  6 20  1  0
 10 21  1  0
 10 22  1  0
 11 23  1  6
 12 24  1  1
 13 25  1  6
 14 26  1  6
 15 27  1  0
 15 28  1  0
 15 29  1  0
 17 30  1  0
 18 31  1  0
M  END
>  <filename_input>  (23) 
7TOM_5AD_docked.sdf

>  <pdb_id>  (23) 
7TOM_5AD

>  <pose_rank>  (23) 
22

>  <num_atoms_heavy>  (23) 
18

>  <num_torsions>  (23) 
1

>  <pose>  (23) 
[14.726620322291442, 65.322428437551, 27.304002205160952, -2.5589491707419763, -2.745869117417763, 0.18396436882050415, 1.6798189380961983]

>  <energy>  (23) 
-145.16804148940753

>  <inter_energy>  (23) 
-159.29855976480482

>  <intra_energy>  (23) 
19.90145533423143

>  <rmsd>  (23) 
12.249

>  <sdf_rank>  (23) 
0

$$$$

     RDKit          3D

 31 33  0  0  0  0  0  0  0  0999 V2000
   13.0368   64.7490   22.3181 N   0  0  0  0  0  0  0  0  0  0  0  0
   14.1190   65.1447   21.6314 C   0  0  0  0  0  0  0  0  0  0  0  0
   15.3798   65.3047   22.0642 N   0  0  0  0  0  0  0  0  0  0  0  0
   15.4878   64.9812   23.3683 C   0  0  0  0  0  0  0  0  0  0  0  0
   16.6298   64.9592   24.1380 N   0  0  0  0  0  0  0  0  0  0  0  0
   16.2338   64.5361   25.3793 C   0  0  0  0  0  0  0  0  0  0  0  0
   14.9486   64.2912   25.4767 N   0  0  0  0  0  0  0  0  0  0  0  0
   14.4627   64.5652   24.2042 C   0  0  0  0  0  0  0  0  0  0  0  0
   13.1737   64.4547   23.6343 C   0  0  0  0  0  0  0  0  0  0  0  0
   12.0872   64.0694   24.3256 N   0  0  0  0  0  0  0  0  0  0  0  0
   17.9884   65.3196   23.7288 C   0  0  1  0  0  0  0  0  0  0  0  0
   19.0908   64.4513   24.3404 C   0  0  1  0  0  0  0  0  0  0  0  0
   20.2439   64.6861   23.3478 C   0  0  1  0  0  0  0  0  0  0  0  0
   19.5340   65.0873   22.0410 C   0  0  1  0  0  0  0  0  0  0  0  0
   19.8016   64.1782   20.8549 C   0  0  0  0  0  0  0  0  0  0  0  0
   18.1168   65.1148   22.3395 O   0  0  0  0  0  0  0  0  0  0  0  0
   19.3726   64.8536   25.6765 O   0  0  0  0  0  0  0  0  0  0  0  0
   21.1122   65.7439   23.7222 O   0  0  0  0  0  0  0  0  0  0  0  0
   13.9503   65.3688   20.5678 H   0  0  0  0  0  0  0  0  0  0  0  0
   16.9320   64.4126   26.2203 H   0  0  0  0  0  0  0  0  0  0  0  0
   12.1681   63.8409   25.3267 H   0  0  0  0  0  0  0  0  0  0  0  0
   11.1739   64.0027   23.8543 H   0  0  0  0  0  0  0  0  0  0  0  0
   18.1152   66.3605   24.0612 H   0  0  0  0  0  0  0  0  0  0  0  0
   18.8492   63.3841   24.4529 H   0  0  0  0  0  0  0  0  0  0  0  0
   20.8740   63.7867   23.2842 H   0  0  0  0  0  0  0  0  0  0  0  0
   19.9303   66.0632   21.7238 H   0  0  0  0  0  0  0  0  0  0  0  0
   20.0949   63.1813   21.2157 H   0  0  0  0  0  0  0  0  0  0  0  0
   18.8902   64.0937   20.2447 H   0  0  0  0  0  0  0  0  0  0  0  0
   20.6134   64.6008   20.2447 H   0  0  0  0  0  0  0  0  0  0  0  0
   18.9353   64.2294   26.3083 H   0  0  0  0  0  0  0  0  0  0  0  0
   21.1578   65.7995   24.7096 H   0  0  0  0  0  0  0  0  0  0  0  0
  1  2  2  0
  1  9  1  0
  2  3  1  0
  3  4  2  0
  4  5  1  0
  4  8  1  0
  5  6  1  0
 11  5  1  0
  6  7  2  0
  7  8  1  0
  8  9  2  0
  9 10  1  0
 11 12  1  0
 11 16  1  0
 12 13  1  0
 12 17  1  0
 13 14  1  0
 13 18  1  0
 14 15  1  0
 14 16  1  0
  2 19  1  0
  6 20  1  0
 10 21  1  0
 10 22  1  0
 11 23  1  6
 12 24  1  1
 13 25  1  6
 14 26  1  6
 15 27  1  0
 15 28  1  0
 15 29  1  0
 17 30  1  0
 18 31  1  0
M  END
>  <filename_input>  (24) 
7TOM_5AD_docked.sdf

>  <pdb_id>  (24) 
7TOM_5AD

>  <pose_rank>  (24) 
23

>  <num_atoms_heavy>  (24) 
18

>  <num_torsions>  (24) 
1

>  <pose>  (24) 
[13.03678231524562, 64.74897740999958, 22.318076306962535, -2.9100208569003834, -1.9043665431042698, -1.8609157753020367, 0.899935551895376]

>  <energy>  (24) 
-126.49249627097541

>  <inter_energy>  (24) 
-144.91058855866928

>  <intra_energy>  (24) 
22.12460497832823

>  <rmsd>  (24) 
12.3067

>  <sdf_rank>  (24) 
0

$$$$

     RDKit          3D

 31 33  0  0  0  0  0  0  0  0999 V2000
   27.6465   56.5720   22.8580 N   0  0  0  0  0  0  0  0  0  0  0  0
   27.1118   55.3445   22.9396 C   0  0  0  0  0  0  0  0  0  0  0  0
   27.2425   54.4314   23.9150 N   0  0  0  0  0  0  0  0  0  0  0  0
   28.0114   54.9016   24.9174 C   0  0  0  0  0  0  0  0  0  0  0  0
   28.3153   54.2793   26.1079 N   0  0  0  0  0  0  0  0  0  0  0  0
   29.0939   55.1662   26.8033 C   0  0  0  0  0  0  0  0  0  0  0  0
   29.3201   56.2921   26.1689 N   0  0  0  0  0  0  0  0  0  0  0  0
   28.6337   56.1397   24.9706 C   0  0  0  0  0  0  0  0  0  0  0  0
   28.4355   57.0061   23.8713 C   0  0  0  0  0  0  0  0  0  0  0  0
   28.9811   58.2316   23.7846 N   0  0  0  0  0  0  0  0  0  0  0  0
   27.9052   52.9441   26.5465 C   0  0  1  0  0  0  0  0  0  0  0  0
   28.9444   51.8461   26.3063 C   0  0  1  0  0  0  0  0  0  0  0  0
   28.4904   50.7763   27.3160 C   0  0  1  0  0  0  0  0  0  0  0  0
   27.7264   51.5766   28.3876 C   0  0  1  0  0  0  0  0  0  0  0  0
   28.2898   51.4752   29.7938 C   0  0  0  0  0  0  0  0  0  0  0  0
   27.7313   52.9562   27.9459 O   0  0  0  0  0  0  0  0  0  0  0  0
   28.9284   51.4190   24.9484 O   0  0  0  0  0  0  0  0  0  0  0  0
   27.6041   49.8138   26.7672 O   0  0  0  0  0  0  0  0  0  0  0  0
   26.4795   55.0450   22.0908 H   0  0  0  0  0  0  0  0  0  0  0  0
   29.4943   54.9531   27.8055 H   0  0  0  0  0  0  0  0  0  0  0  0
   29.5838   58.5818   24.5429 H   0  0  0  0  0  0  0  0  0  0  0  0
   28.7964   58.8203   22.9599 H   0  0  0  0  0  0  0  0  0  0  0  0
   26.9980   52.7235   25.9649 H   0  0  0  0  0  0  0  0  0  0  0  0
   29.9933   52.1417   26.4564 H   0  0  0  0  0  0  0  0  0  0  0  0
   29.3605   50.2113   27.6816 H   0  0  0  0  0  0  0  0  0  0  0  0
   26.7156   51.1515   28.4740 H   0  0  0  0  0  0  0  0  0  0  0  0
   27.4805   51.6209   30.5244 H   0  0  0  0  0  0  0  0  0  0  0  0
   28.7395   50.4817   29.9379 H   0  0  0  0  0  0  0  0  0  0  0  0
   29.0577   52.2496   29.9379 H   0  0  0  0  0  0  0  0  0  0  0  0
   28.8912   50.4303   24.9139 H   0  0  0  0  0  0  0  0  0  0  0  0
   27.1535   49.3244   27.5002 H   0  0  0  0  0  0  0  0  0  0  0  0
  1  2  2  0
  1  9  1  0
  2  3  1  0
  3  4  2  0
  4  5  1  0
  4  8  1  0
  5  6  1  0
 11  5  1  0
  6  7  2  0
  7  8  1  0
  8  9  2  0
  9 10  1  0
 11 12  1  0
 11 16  1  0
 12 13  1  0
 12 17  1  0
 13 14  1  0
 13 18  1  0
 14 15  1  0
 14 16  1  0
  2 19  1  0
  6 20  1  0
 10 21  1  0
 10 22  1  0
 11 23  1  6
 12 24  1  1
 13 25  1  1
 14 26  1  1
 15 27  1  0
 15 28  1  0
 15 29  1  0
 17 30  1  0
 18 31  1  0
M  END
>  <filename_input>  (25) 
7TOM_5AD_docked.sdf

>  <pdb_id>  (25) 
7TOM_5AD

>  <pose_rank>  (25) 
24

>  <num_atoms_heavy>  (25) 
18

>  <num_torsions>  (25) 
1

>  <pose>  (25) 
[27.646526908163608, 56.57203604854067, 22.857986316984977, -3.891959317182048, 0.9241192890335389, 2.8686662570153088, -1.2000866138170785]

>  <energy>  (25) 
-128.90888567089922

>  <inter_energy>  (25) 
-124.67655541274327

>  <intra_energy>  (25) 
0.0

>  <rmsd>  (25) 
11.24

>  <sdf_rank>  (25) 
0

$$$$

     RDKit          3D

 31 33  0  0  0  0  0  0  0  0999 V2000
   17.7590   53.7840   27.7210 N   0  0  0  0  0  0  0  0  0  0  0  0
   18.2120   53.3220   28.8960 C   0  0  0  0  0  0  0  0  0  0  0  0
   18.7550   54.0040   29.9170 N   0  0  0  0  0  0  0  0  0  0  0  0
   18.7910   55.3250   29.6510 C   0  0  0  0  0  0  0  0  0  0  0  0
   19.2170   56.3390   30.4800 N   0  0  0  0  0  0  0  0  0  0  0  0
   19.0290   57.4990   29.7760 C   0  0  0  0  0  0  0  0  0  0  0  0
   18.5290   57.3220   28.5760 N   0  0  0  0  0  0  0  0  0  0  0  0
   18.3680   55.9450   28.4850 C   0  0  0  0  0  0  0  0  0  0  0  0
   17.8320   55.1150   27.4740 C   0  0  0  0  0  0  0  0  0  0  0  0
   17.3890   55.5770   26.2920 N   0  0  0  0  0  0  0  0  0  0  0  0
   19.7670   56.2150   31.8310 C   0  0  1  0  0  0  0  0  0  0  0  0
   20.4650   57.4730   32.3540 C   0  0  1  0  0  0  0  0  0  0  0  0
   20.4180   57.2330   33.8740 C   0  0  1  0  0  0  0  0  0  0  0  0
   19.2190   56.2850   34.0640 C   0  0  1  0  0  0  0  0  0  0  0  0
   18.1080   56.8180   34.9510 C   0  0  0  0  0  0  0  0  0  0  0  0
   18.7080   56.0040   32.7380 O   0  0  0  0  0  0  0  0  0  0  0  0
   21.7780   57.5870   31.8160 O   0  0  0  0  0  0  0  0  0  0  0  0
   21.5750   56.5910   34.3860 O   0  0  0  0  0  0  0  0  0  0  0  0
   18.1269   52.2352   29.0432 H   0  0  0  0  0  0  0  0  0  0  0  0
   19.2755   58.4915   30.1811 H   0  0  0  0  0  0  0  0  0  0  0  0
   17.4348   56.5845   26.0830 H   0  0  0  0  0  0  0  0  0  0  0  0
   17.0037   54.9235   25.5953 H   0  0  0  0  0  0  0  0  0  0  0  0
   20.4952   55.3933   31.7637 H   0  0  0  0  0  0  0  0  0  0  0  0
   20.0009   58.4287   32.0690 H   0  0  0  0  0  0  0  0  0  0  0  0
   20.3468   58.1942   34.4042 H   0  0  0  0  0  0  0  0  0  0  0  0
   19.5745   55.3878   34.5919 H   0  0  0  0  0  0  0  0  0  0  0  0
   18.3860   56.6846   36.0069 H   0  0  0  0  0  0  0  0  0  0  0  0
   17.9550   57.8875   34.7444 H   0  0  0  0  0  0  0  0  0  0  0  0
   17.1781   56.2680   34.7444 H   0  0  0  0  0  0  0  0  0  0  0  0
   22.4338   57.6439   32.5554 H   0  0  0  0  0  0  0  0  0  0  0  0
   21.5496   56.6051   35.3756 H   0  0  0  0  0  0  0  0  0  0  0  0
  1  2  2  0
  1  9  1  0
  2  3  1  0
  3  4  2  0
  4  5  1  0
  4  8  1  0
  5  6  1  0
 11  5  1  0
  6  7  2  0
  7  8  1  0
  8  9  2  0
  9 10  1  0
 11 12  1  0
 11 16  1  0
 12 13  1  0
 12 17  1  0
 13 14  1  0
 13 18  1  0
 14 15  1  0
 14 16  1  0
  2 19  1  0
  6 20  1  0
 10 21  1  0
 10 22  1  0
 11 23  1  6
 12 24  1  1
 13 25  1  1
 14 26  1  1
 15 27  1  0
 15 28  1  0
 15 29  1  0
 17 30  1  0
 18 31  1  0
M  END
>  <filename_input>  (26) 
7TOM_5AD_docked.sdf

>  <pdb_id>  (26) 
7TOM_5AD

>  <pose_rank>  (26) 
25

>  <num_atoms_heavy>  (26) 
18

>  <num_torsions>  (26) 
1

>  <pose>  (26) 
[17.759, 53.784, 27.721, 1e-06, 1e-06, 1e-06, 0.0]

>  <energy>  (26) 
-1023.0767576185102

>  <inter_energy>  (26) 
-1011.0206094951598

>  <intra_energy>  (26) 
0.9773412266218768

>  <rmsd>  (26) 
0.0

>  <sdf_rank>  (26) 
0

$$$$
