
     RDKit          3D

 35 36  0  0  0  0  0  0  0  0999 V2000
  -17.5402   -0.5646   -4.4908 C   0  0  0  0  0  0  0  0  0  0  0  0
  -15.1818   -0.9257   -4.1606 C   0  0  0  0  0  0  0  0  0  0  0  0
  -16.2858   -0.0712   -4.1580 C   0  0  0  0  0  0  0  0  0  0  0  0
  -17.6700   -1.9118   -4.8199 C   0  0  0  0  0  0  0  0  0  0  0  0
  -12.3035    1.3550   -3.7497 C   0  0  0  0  0  0  0  0  0  0  0  0
  -11.5756    0.7547   -2.7121 C   0  0  0  0  0  0  0  0  0  0  0  0
  -12.0524   -0.4338   -2.1839 C   0  0  0  0  0  0  0  0  0  0  0  0
  -13.2296   -0.9654   -2.6832 C   0  0  0  0  0  0  0  0  0  0  0  0
  -13.8970   -0.3380   -3.7239 C   0  0  0  0  0  0  0  0  0  0  0  0
  -11.3380   -1.1592   -1.0815 C   0  0  0  0  0  0  0  0  0  0  0  0
  -16.5674   -2.7657   -4.8036 C   0  0  0  0  0  0  0  0  0  0  0  0
  -15.3090   -2.2736   -4.4714 C   0  0  0  0  0  0  0  0  0  0  0  0
  -16.7288   -4.2221   -5.1720 C   0  0  0  0  0  0  0  0  0  0  0  0
  -19.0906   -4.3434   -5.6451 C   0  0  0  0  0  0  0  0  0  0  0  0
  -13.4498    0.8156   -4.2131 N   0  0  0  0  0  0  0  0  0  0  0  0
  -11.8971    2.5126   -4.3141 N   0  0  0  0  0  0  0  0  0  0  0  0
  -18.0279   -4.7317   -4.7017 N   0  0  0  0  0  0  0  0  0  0  0  0
  -18.4180    0.0983   -4.4946 H   0  0  0  0  0  0  0  0  0  0  0  0
  -16.1623    0.9892   -3.8931 H   0  0  0  0  0  0  0  0  0  0  0  0
  -18.6578   -2.3086   -5.0971 H   0  0  0  0  0  0  0  0  0  0  0  0
  -10.6527    1.2144   -2.3287 H   0  0  0  0  0  0  0  0  0  0  0  0
  -13.6377   -1.8912   -2.2515 H   0  0  0  0  0  0  0  0  0  0  0  0
  -11.6980   -0.7936   -0.1085 H   0  0  0  0  0  0  0  0  0  0  0  0
  -11.5361   -2.2381   -1.1640 H   0  0  0  0  0  0  0  0  0  0  0  0
  -10.2562   -0.9778   -1.1640 H   0  0  0  0  0  0  0  0  0  0  0  0
  -14.4327   -2.9383   -4.4552 H   0  0  0  0  0  0  0  0  0  0  0  0
  -16.6730   -4.3273   -6.2656 H   0  0  0  0  0  0  0  0  0  0  0  0
  -15.9250   -4.8014   -4.6941 H   0  0  0  0  0  0  0  0  0  0  0  0
  -19.9789   -4.0188   -5.0833 H   0  0  0  0  0  0  0  0  0  0  0  0
  -18.7349   -3.5171   -6.2781 H   0  0  0  0  0  0  0  0  0  0  0  0
  -19.3514   -5.2043   -6.2781 H   0  0  0  0  0  0  0  0  0  0  0  0
  -12.4475    2.9356   -5.0750 H   0  0  0  0  0  0  0  0  0  0  0  0
  -11.0368    2.9725   -3.9836 H   0  0  0  0  0  0  0  0  0  0  0  0
  -17.9883   -5.7589   -4.6359 H   0  0  0  0  0  0  0  0  0  0  0  0
  -18.2339   -4.3311   -3.7754 H   0  0  0  0  0  0  0  0  0  0  0  0
  1  3  2  0
  1  4  1  0
  2  3  1  0
  2  9  1  0
  2 12  2  0
  4 11  2  0
  5  6  2  0
  5 15  1  0
  5 16  1  0
  6  7  1  0
  7  8  2  0
  7 10  1  0
  8  9  1  0
  9 15  2  0
 11 12  1  0
 11 13  1  0
 13 17  1  0
 14 17  1  0
  1 18  1  0
  3 19  1  0
  4 20  1  0
  6 21  1  0
  8 22  1  0
 10 23  1  0
 10 24  1  0
 10 25  1  0
 12 26  1  0
 13 27  1  0
 13 28  1  0
 14 29  1  0
 14 30  1  0
 14 31  1  0
 16 32  1  0
 16 33  1  0
 17 34  1  0
 17 35  1  0
M  CHG  1  17   1
M  END
>  <filename_input>  (1) 
7TS6_KMI_docked.sdf

>  <pdb_id>  (1) 
7TS6_KMI

>  <pose_rank>  (1) 
0

>  <num_atoms_heavy>  (1) 
17

>  <num_torsions>  (1) 
3

>  <pose>  (1) 
[-17.540200780101614, -0.5646098053961239, -4.490836941552685, -4.544475299525089, -3.869534617234831, -2.30409278834988, -18.748516447710198, 4.735464563397024, -2.7121261423552827]

>  <energy>  (1) 
-1279.8640104742958

>  <inter_energy>  (1) 
-1304.2554923854661

>  <intra_energy>  (1) 
22.472223849710677

>  <rmsd>  (1) 
0.706747

>  <sdf_rank>  (1) 
0

$$$$

     RDKit          3D

 35 36  0  0  0  0  0  0  0  0999 V2000
  -15.7466   -3.3828   -5.0402 C   0  0  0  0  0  0  0  0  0  0  0  0
  -14.8786   -1.2854   -4.2346 C   0  0  0  0  0  0  0  0  0  0  0  0
  -14.6856   -2.6306   -4.5542 C   0  0  0  0  0  0  0  0  0  0  0  0
  -16.9885   -2.7729   -5.2013 C   0  0  0  0  0  0  0  0  0  0  0  0
  -12.2775    1.3137   -3.8692 C   0  0  0  0  0  0  0  0  0  0  0  0
  -11.5295    0.8547   -2.7754 C   0  0  0  0  0  0  0  0  0  0  0  0
  -11.8964   -0.3473   -2.1929 C   0  0  0  0  0  0  0  0  0  0  0  0
  -12.9905   -1.0307   -2.6966 C   0  0  0  0  0  0  0  0  0  0  0  0
  -13.6812   -0.5383   -3.7933 C   0  0  0  0  0  0  0  0  0  0  0  0
  -11.1508   -0.9284   -1.0273 C   0  0  0  0  0  0  0  0  0  0  0  0
  -17.1721   -1.4241   -4.8978 C   0  0  0  0  0  0  0  0  0  0  0  0
  -16.1106   -0.6682   -4.4097 C   0  0  0  0  0  0  0  0  0  0  0  0
  -18.5296   -0.7840   -5.0721 C   0  0  0  0  0  0  0  0  0  0  0  0
  -18.9513    0.8247   -6.8187 C   0  0  0  0  0  0  0  0  0  0  0  0
  -13.3415    0.6281   -4.3357 N   0  0  0  0  0  0  0  0  0  0  0  0
  -11.9759    2.4754   -4.4882 N   0  0  0  0  0  0  0  0  0  0  0  0
  -18.3869    0.6259   -5.4726 N   0  0  0  0  0  0  0  0  0  0  0  0
  -15.6086   -4.4442   -5.2940 H   0  0  0  0  0  0  0  0  0  0  0  0
  -13.6963   -3.0929   -4.4215 H   0  0  0  0  0  0  0  0  0  0  0  0
  -17.8378   -3.3644   -5.5738 H   0  0  0  0  0  0  0  0  0  0  0  0
  -10.6760    1.4326   -2.3911 H   0  0  0  0  0  0  0  0  0  0  0  0
  -13.3135   -1.9699   -2.2238 H   0  0  0  0  0  0  0  0  0  0  0  0
  -11.6040   -0.5752   -0.0893 H   0  0  0  0  0  0  0  0  0  0  0  0
  -11.2032   -2.0264   -1.0692 H   0  0  0  0  0  0  0  0  0  0  0  0
  -10.0989   -0.6097   -1.0692 H   0  0  0  0  0  0  0  0  0  0  0  0
  -16.2445    0.3964   -4.1674 H   0  0  0  0  0  0  0  0  0  0  0  0
  -19.0886   -1.3264   -5.8489 H   0  0  0  0  0  0  0  0  0  0  0  0
  -19.0700   -0.8293   -4.1150 H   0  0  0  0  0  0  0  0  0  0  0  0
  -19.9856    1.1890   -6.7326 H   0  0  0  0  0  0  0  0  0  0  0  0
  -18.3464    1.5639   -7.3644 H   0  0  0  0  0  0  0  0  0  0  0  0
  -18.9432   -0.1304   -7.3644 H   0  0  0  0  0  0  0  0  0  0  0  0
  -12.5391    2.7932   -5.2899 H   0  0  0  0  0  0  0  0  0  0  0  0
  -11.1826    3.0437   -4.1586 H   0  0  0  0  0  0  0  0  0  0  0  0
  -18.8881    1.2242   -4.8005 H   0  0  0  0  0  0  0  0  0  0  0  0
  -17.3877    0.8757   -5.4837 H   0  0  0  0  0  0  0  0  0  0  0  0
  1  3  2  0
  1  4  1  0
  2  3  1  0
  2  9  1  0
  2 12  2  0
  4 11  2  0
  5  6  2  0
  5 15  1  0
  5 16  1  0
  6  7  1  0
  7  8  2  0
  7 10  1  0
  8  9  1  0
  9 15  2  0
 11 12  1  0
 11 13  1  0
 13 17  1  0
 14 17  1  0
  1 18  1  0
  3 19  1  0
  4 20  1  0
  6 21  1  0
  8 22  1  0
 10 23  1  0
 10 24  1  0
 10 25  1  0
 12 26  1  0
 13 27  1  0
 13 28  1  0
 14 29  1  0
 14 30  1  0
 14 31  1  0
 16 32  1  0
 16 33  1  0
 17 34  1  0
 17 35  1  0
M  CHG  1  17   1
M  END
>  <filename_input>  (2) 
7TS6_KMI_docked.sdf

>  <pdb_id>  (2) 
7TS6_KMI

>  <pose_rank>  (2) 
1

>  <num_atoms_heavy>  (2) 
17

>  <num_torsions>  (2) 
3

>  <pose>  (2) 
[-15.746619559669442, -3.382840393957251, -5.040161860050973, 2.546474289318795, 1.3837109207747207, 0.8675262742455506, 9.497896006610508, -9.771521910612996, -2.0967583779407115]

>  <energy>  (2) 
-1230.6500158601846

>  <inter_energy>  (2) 
-1229.1103279802478

>  <intra_energy>  (2) 
0.0

>  <rmsd>  (2) 
2.48173

>  <sdf_rank>  (2) 
0

$$$$

     RDKit          3D

 35 36  0  0  0  0  0  0  0  0999 V2000
  -17.3387   -0.0011   -4.6864 C   0  0  0  0  0  0  0  0  0  0  0  0
  -15.0568   -0.5225   -4.1183 C   0  0  0  0  0  0  0  0  0  0  0  0
  -16.0707    0.4184   -4.3069 C   0  0  0  0  0  0  0  0  0  0  0  0
  -17.5727   -1.3620   -4.8692 C   0  0  0  0  0  0  0  0  0  0  0  0
  -12.0785    1.6088   -3.6266 C   0  0  0  0  0  0  0  0  0  0  0  0
  -11.4145    0.9769   -2.5652 C   0  0  0  0  0  0  0  0  0  0  0  0
  -11.9679   -0.1830   -2.0481 C   0  0  0  0  0  0  0  0  0  0  0  0
  -13.1552   -0.6557   -2.5816 C   0  0  0  0  0  0  0  0  0  0  0  0
  -13.7573    0.0004   -3.6443 C   0  0  0  0  0  0  0  0  0  0  0  0
  -11.3259   -0.9390   -0.9219 C   0  0  0  0  0  0  0  0  0  0  0  0
  -16.5615   -2.2999   -4.6620 C   0  0  0  0  0  0  0  0  0  0  0  0
  -15.2896   -1.8820   -4.2827 C   0  0  0  0  0  0  0  0  0  0  0  0
  -16.8344   -3.7708   -4.8740 C   0  0  0  0  0  0  0  0  0  0  0  0
  -18.9653   -4.8628   -5.1628 C   0  0  0  0  0  0  0  0  0  0  0  0
  -13.2364    1.1270   -4.1232 N   0  0  0  0  0  0  0  0  0  0  0  0
  -11.5958    2.7413   -4.1819 N   0  0  0  0  0  0  0  0  0  0  0  0
  -17.9808   -3.9569   -5.7794 N   0  0  0  0  0  0  0  0  0  0  0  0
  -18.1460    0.7300   -4.8402 H   0  0  0  0  0  0  0  0  0  0  0  0
  -15.8658    1.4885   -4.1554 H   0  0  0  0  0  0  0  0  0  0  0  0
  -18.5709   -1.7024   -5.1820 H   0  0  0  0  0  0  0  0  0  0  0  0
  -10.4812    1.3902   -2.1552 H   0  0  0  0  0  0  0  0  0  0  0  0
  -13.6235   -1.5571   -2.1596 H   0  0  0  0  0  0  0  0  0  0  0  0
  -11.6728   -0.5305    0.0387 H   0  0  0  0  0  0  0  0  0  0  0  0
  -11.6017   -2.0017   -0.9895 H   0  0  0  0  0  0  0  0  0  0  0  0
  -10.2325   -0.8390   -0.9895 H   0  0  0  0  0  0  0  0  0  0  0  0
  -14.4849   -2.6133   -4.1165 H   0  0  0  0  0  0  0  0  0  0  0  0
  -15.9446   -4.2443   -5.3144 H   0  0  0  0  0  0  0  0  0  0  0  0
  -17.0685   -4.2329   -3.9036 H   0  0  0  0  0  0  0  0  0  0  0  0
  -18.8909   -4.7943   -4.0674 H   0  0  0  0  0  0  0  0  0  0  0  0
  -19.9782   -4.5743   -5.4802 H   0  0  0  0  0  0  0  0  0  0  0  0
  -18.7619   -5.8962   -5.4802 H   0  0  0  0  0  0  0  0  0  0  0  0
  -12.1002    3.1884   -4.9608 H   0  0  0  0  0  0  0  0  0  0  0  0
  -10.7234    3.1578   -3.8267 H   0  0  0  0  0  0  0  0  0  0  0  0
  -18.4234   -3.0449   -5.9619 H   0  0  0  0  0  0  0  0  0  0  0  0
  -17.6506   -4.3672   -6.6646 H   0  0  0  0  0  0  0  0  0  0  0  0
  1  3  2  0
  1  4  1  0
  2  3  1  0
  2  9  1  0
  2 12  2  0
  4 11  2  0
  5  6  2  0
  5 15  1  0
  5 16  1  0
  6  7  1  0
  7  8  2  0
  7 10  1  0
  8  9  1  0
  9 15  2  0
 11 12  1  0
 11 13  1  0
 13 17  1  0
 14 17  1  0
  1 18  1  0
  3 19  1  0
  4 20  1  0
  6 21  1  0
  8 22  1  0
 10 23  1  0
 10 24  1  0
 10 25  1  0
 12 26  1  0
 13 27  1  0
 13 28  1  0
 14 29  1  0
 14 30  1  0
 14 31  1  0
 16 32  1  0
 16 33  1  0
 17 34  1  0
 17 35  1  0
M  CHG  1  17   1
M  END
>  <filename_input>  (3) 
7TS6_KMI_docked.sdf

>  <pdb_id>  (3) 
7TS6_KMI

>  <pose_rank>  (3) 
2

>  <num_atoms_heavy>  (3) 
17

>  <num_torsions>  (3) 
3

>  <pose>  (3) 
[-17.33868653037859, -0.001142205486493168, -4.686371789660045, -0.20154431456856114, -0.14785778231431207, -0.13233313830143598, -6.051271716888367, -6.811223354632368, -6.3560405590217695]

>  <energy>  (3) 
-1178.109983959662

>  <inter_energy>  (3) 
-1187.5830491655693

>  <intra_energy>  (3) 
0.013210072665341166

>  <rmsd>  (3) 
0.613927

>  <sdf_rank>  (3) 
0

$$$$

     RDKit          3D

 35 36  0  0  0  0  0  0  0  0999 V2000
  -17.5257   -0.4884   -4.3901 C   0  0  0  0  0  0  0  0  0  0  0  0
  -15.1409   -0.8228   -4.3421 C   0  0  0  0  0  0  0  0  0  0  0  0
  -16.2522   -0.0093   -4.1139 C   0  0  0  0  0  0  0  0  0  0  0  0
  -17.6669   -1.7808   -4.8901 C   0  0  0  0  0  0  0  0  0  0  0  0
  -12.1573    1.3451   -4.1125 C   0  0  0  0  0  0  0  0  0  0  0  0
  -11.4543    0.7948   -3.0310 C   0  0  0  0  0  0  0  0  0  0  0  0
  -11.9842   -0.3247   -2.4108 C   0  0  0  0  0  0  0  0  0  0  0  0
  -13.1870   -0.8381   -2.8665 C   0  0  0  0  0  0  0  0  0  0  0  0
  -13.8283   -0.2637   -3.9532 C   0  0  0  0  0  0  0  0  0  0  0  0
  -11.3004   -0.9941   -1.2548 C   0  0  0  0  0  0  0  0  0  0  0  0
  -16.5551   -2.5964   -5.0994 C   0  0  0  0  0  0  0  0  0  0  0  0
  -15.2776   -2.1183   -4.8244 C   0  0  0  0  0  0  0  0  0  0  0  0
  -16.7298   -3.9924   -5.6504 C   0  0  0  0  0  0  0  0  0  0  0  0
  -17.3246   -6.2121   -4.9183 C   0  0  0  0  0  0  0  0  0  0  0  0
  -13.3294    0.8256   -4.5318 N   0  0  0  0  0  0  0  0  0  0  0  0
  -11.6993    2.4344   -4.7664 N   0  0  0  0  0  0  0  0  0  0  0  0
  -17.6311   -4.7770   -4.7897 N   0  0  0  0  0  0  0  0  0  0  0  0
  -18.4097    0.1429   -4.2167 H   0  0  0  0  0  0  0  0  0  0  0  0
  -16.1193    1.0078   -3.7166 H   0  0  0  0  0  0  0  0  0  0  0  0
  -18.6711   -2.1642   -5.1236 H   0  0  0  0  0  0  0  0  0  0  0  0
  -10.5094    1.2393   -2.6852 H   0  0  0  0  0  0  0  0  0  0  0  0
  -13.6363   -1.7068   -2.3631 H   0  0  0  0  0  0  0  0  0  0  0  0
  -11.7042   -0.5988   -0.3111 H   0  0  0  0  0  0  0  0  0  0  0  0
  -11.4760   -2.0789   -1.3030 H   0  0  0  0  0  0  0  0  0  0  0  0
  -10.2196   -0.7951   -1.3030 H   0  0  0  0  0  0  0  0  0  0  0  0
  -14.3939   -2.7533   -4.9856 H   0  0  0  0  0  0  0  0  0  0  0  0
  -17.1573   -3.9315   -6.6621 H   0  0  0  0  0  0  0  0  0  0  0  0
  -15.7481   -4.4877   -5.6830 H   0  0  0  0  0  0  0  0  0  0  0  0
  -17.2293   -6.6579   -3.9172 H   0  0  0  0  0  0  0  0  0  0  0  0
  -18.1360   -6.7127   -5.4669 H   0  0  0  0  0  0  0  0  0  0  0  0
  -16.3794   -6.3374   -5.4669 H   0  0  0  0  0  0  0  0  0  0  0  0
  -12.2322    2.8217   -5.5582 H   0  0  0  0  0  0  0  0  0  0  0  0
  -10.8171    2.8779   -4.4733 H   0  0  0  0  0  0  0  0  0  0  0  0
  -17.5049   -4.4874   -3.8093 H   0  0  0  0  0  0  0  0  0  0  0  0
  -18.6056   -4.6113   -5.0792 H   0  0  0  0  0  0  0  0  0  0  0  0
  1  3  2  0
  1  4  1  0
  2  3  1  0
  2  9  1  0
  2 12  2  0
  4 11  2  0
  5  6  2  0
  5 15  1  0
  5 16  1  0
  6  7  1  0
  7  8  2  0
  7 10  1  0
  8  9  1  0
  9 15  2  0
 11 12  1  0
 11 13  1  0
 13 17  1  0
 14 17  1  0
  1 18  1  0
  3 19  1  0
  4 20  1  0
  6 21  1  0
  8 22  1  0
 10 23  1  0
 10 24  1  0
 10 25  1  0
 12 26  1  0
 13 27  1  0
 13 28  1  0
 14 29  1  0
 14 30  1  0
 14 31  1  0
 16 32  1  0
 16 33  1  0
 17 34  1  0
 17 35  1  0
M  CHG  1  17   1
M  END
>  <filename_input>  (4) 
7TS6_KMI_docked.sdf

>  <pdb_id>  (4) 
7TS6_KMI

>  <pose_rank>  (4) 
3

>  <num_atoms_heavy>  (4) 
17

>  <num_torsions>  (4) 
3

>  <pose>  (4) 
[-17.52573253562405, -0.48843008295732016, -4.390103574115858, 5.327994080841967, 2.9093795077453133, -1.86441489567087, -0.1471898976453522, 4.361721257558304, -0.5202611485101986]

>  <energy>  (4) 
-1215.6400653748808

>  <inter_energy>  (4) 
-1176.2679640764197

>  <intra_energy>  (4) 
0.0

>  <rmsd>  (4) 
0.798319

>  <sdf_rank>  (4) 
0

$$$$

     RDKit          3D

 35 36  0  0  0  0  0  0  0  0999 V2000
  -17.4690   -0.5494   -4.0913 C   0  0  0  0  0  0  0  0  0  0  0  0
  -15.0972   -0.8309   -3.7801 C   0  0  0  0  0  0  0  0  0  0  0  0
  -16.2366   -0.0264   -3.7230 C   0  0  0  0  0  0  0  0  0  0  0  0
  -17.5413   -1.8758   -4.5103 C   0  0  0  0  0  0  0  0  0  0  0  0
  -11.9700   -0.1911   -1.9184 C   0  0  0  0  0  0  0  0  0  0  0  0
  -11.4154    0.8985   -2.6054 C   0  0  0  0  0  0  0  0  0  0  0  0
  -12.1233    1.4244   -3.6736 C   0  0  0  0  0  0  0  0  0  0  0  0
  -13.3293    0.8446   -4.0300 C   0  0  0  0  0  0  0  0  0  0  0  0
  -13.8385   -0.2196   -3.3017 C   0  0  0  0  0  0  0  0  0  0  0  0
  -11.6203    2.5977   -4.4627 C   0  0  0  0  0  0  0  0  0  0  0  0
  -16.4032   -2.6810   -4.5485 C   0  0  0  0  0  0  0  0  0  0  0  0
  -15.1668   -2.1591   -4.1808 C   0  0  0  0  0  0  0  0  0  0  0  0
  -16.5023   -4.1150   -5.0141 C   0  0  0  0  0  0  0  0  0  0  0  0
  -17.7855   -5.9135   -4.0469 C   0  0  0  0  0  0  0  0  0  0  0  0
  -13.1454   -0.7379   -2.2912 N   0  0  0  0  0  0  0  0  0  0  0  0
  -11.3373   -0.7533   -0.8661 N   0  0  0  0  0  0  0  0  0  0  0  0
  -17.8588   -4.6393   -4.7826 N   0  0  0  0  0  0  0  0  0  0  0  0
  -18.3743    0.0743   -4.0528 H   0  0  0  0  0  0  0  0  0  0  0  0
  -16.1584    1.0182   -3.3873 H   0  0  0  0  0  0  0  0  0  0  0  0
  -18.5113   -2.2948   -4.8160 H   0  0  0  0  0  0  0  0  0  0  0  0
  -10.4463    1.3233   -2.3046 H   0  0  0  0  0  0  0  0  0  0  0  0
  -13.8866    1.2307   -4.8962 H   0  0  0  0  0  0  0  0  0  0  0  0
  -11.2825    3.3855   -3.7733 H   0  0  0  0  0  0  0  0  0  0  0  0
  -10.7793    2.2799   -5.0965 H   0  0  0  0  0  0  0  0  0  0  0  0
  -12.4303    2.9877   -5.0965 H   0  0  0  0  0  0  0  0  0  0  0  0
  -14.2629   -2.7855   -4.2070 H   0  0  0  0  0  0  0  0  0  0  0  0
  -16.2741   -4.1632   -6.0891 H   0  0  0  0  0  0  0  0  0  0  0  0
  -15.7835   -4.7241   -4.4464 H   0  0  0  0  0  0  0  0  0  0  0  0
  -17.7970   -5.7135   -2.9653 H   0  0  0  0  0  0  0  0  0  0  0  0
  -18.6490   -6.5408   -4.3130 H   0  0  0  0  0  0  0  0  0  0  0  0
  -16.8557   -6.4375   -4.3130 H   0  0  0  0  0  0  0  0  0  0  0  0
  -11.7633   -1.5530   -0.3763 H   0  0  0  0  0  0  0  0  0  0  0  0
  -10.4288   -0.3824   -0.5532 H   0  0  0  0  0  0  0  0  0  0  0  0
  -18.3990   -3.9573   -4.2313 H   0  0  0  0  0  0  0  0  0  0  0  0
  -18.3204   -4.7978   -5.6897 H   0  0  0  0  0  0  0  0  0  0  0  0
  1  3  2  0
  1  4  1  0
  2  3  1  0
  2  9  1  0
  2 12  2  0
  4 11  2  0
  5  6  2  0
  5 15  1  0
  5 16  1  0
  6  7  1  0
  7  8  2  0
  7 10  1  0
  8  9  1  0
  9 15  2  0
 11 12  1  0
 11 13  1  0
 13 17  1  0
 14 17  1  0
  1 18  1  0
  3 19  1  0
  4 20  1  0
  6 21  1  0
  8 22  1  0
 10 23  1  0
 10 24  1  0
 10 25  1  0
 12 26  1  0
 13 27  1  0
 13 28  1  0
 14 29  1  0
 14 30  1  0
 14 31  1  0
 16 32  1  0
 16 33  1  0
 17 34  1  0
 17 35  1  0
M  CHG  1  17   1
M  END
>  <filename_input>  (5) 
7TS6_KMI_docked.sdf

>  <pdb_id>  (5) 
7TS6_KMI

>  <pose_rank>  (5) 
4

>  <num_atoms_heavy>  (5) 
17

>  <num_torsions>  (5) 
3

>  <pose>  (5) 
[-17.468970479078767, -0.5493647297143153, -4.091329199970711, 1.115584453919741, 6.109543939530804, 0.08905661264762259, -3.22453306766591, 4.9002717439339865, 6.2059235847226315]

>  <energy>  (5) 
-755.5460158392233

>  <inter_energy>  (5) 
-732.834216378497

>  <intra_energy>  (5) 
0.0

>  <rmsd>  (5) 
2.20085

>  <sdf_rank>  (5) 
0

$$$$

     RDKit          3D

 35 36  0  0  0  0  0  0  0  0999 V2000
  -15.3767   -3.4383   -5.0750 C   0  0  0  0  0  0  0  0  0  0  0  0
  -14.7241   -1.3182   -4.1367 C   0  0  0  0  0  0  0  0  0  0  0  0
  -14.4025   -2.6229   -4.5147 C   0  0  0  0  0  0  0  0  0  0  0  0
  -16.6620   -2.9311   -5.2508 C   0  0  0  0  0  0  0  0  0  0  0  0
  -11.7698   -0.1741   -2.2345 C   0  0  0  0  0  0  0  0  0  0  0  0
  -11.4630    1.0518   -2.8425 C   0  0  0  0  0  0  0  0  0  0  0  0
  -12.2801    1.4923   -3.8707 C   0  0  0  0  0  0  0  0  0  0  0  0
  -13.3451    0.7009   -4.2672 C   0  0  0  0  0  0  0  0  0  0  0  0
  -13.6123   -0.4936   -3.6162 C   0  0  0  0  0  0  0  0  0  0  0  0
  -12.0425    2.7962   -4.5745 C   0  0  0  0  0  0  0  0  0  0  0  0
  -16.9740   -1.6210   -4.8883 C   0  0  0  0  0  0  0  0  0  0  0  0
  -15.9998   -0.8021   -4.3256 C   0  0  0  0  0  0  0  0  0  0  0  0
  -18.3768   -1.0933   -5.0798 C   0  0  0  0  0  0  0  0  0  0  0  0
  -19.7512   -1.9929   -6.8457 C   0  0  0  0  0  0  0  0  0  0  0  0
  -12.8120   -0.9257   -2.6451 N   0  0  0  0  0  0  0  0  0  0  0  0
  -11.0190   -0.6644   -1.2247 N   0  0  0  0  0  0  0  0  0  0  0  0
  -19.2903   -2.1841   -5.4597 N   0  0  0  0  0  0  0  0  0  0  0  0
  -15.1371   -4.4690   -5.3755 H   0  0  0  0  0  0  0  0  0  0  0  0
  -13.3808   -3.0038   -4.3693 H   0  0  0  0  0  0  0  0  0  0  0  0
  -17.4433   -3.5741   -5.6823 H   0  0  0  0  0  0  0  0  0  0  0  0
  -10.5984    1.6465   -2.5124 H   0  0  0  0  0  0  0  0  0  0  0  0
  -13.9830    1.0221   -5.1038 H   0  0  0  0  0  0  0  0  0  0  0  0
  -11.8973    3.5933   -3.8306 H   0  0  0  0  0  0  0  0  0  0  0  0
  -11.1445    2.7146   -5.2045 H   0  0  0  0  0  0  0  0  0  0  0  0
  -12.9117    3.0365   -5.2045 H   0  0  0  0  0  0  0  0  0  0  0  0
  -16.2351    0.2327   -4.0364 H   0  0  0  0  0  0  0  0  0  0  0  0
  -18.7248   -0.6404   -4.1397 H   0  0  0  0  0  0  0  0  0  0  0  0
  -18.3676   -0.3410   -5.8822 H   0  0  0  0  0  0  0  0  0  0  0  0
  -20.7672   -1.5714   -6.8394 H   0  0  0  0  0  0  0  0  0  0  0  0
  -19.0711   -1.3027   -7.3663 H   0  0  0  0  0  0  0  0  0  0  0  0
  -19.7595   -2.9619   -7.3663 H   0  0  0  0  0  0  0  0  0  0  0  0
  -11.2629   -1.5671   -0.7929 H   0  0  0  0  0  0  0  0  0  0  0  0
  -10.2024   -0.1357   -0.8864 H   0  0  0  0  0  0  0  0  0  0  0  0
  -18.7962   -3.0848   -5.3853 H   0  0  0  0  0  0  0  0  0  0  0  0
  -20.1041   -2.1801   -4.8283 H   0  0  0  0  0  0  0  0  0  0  0  0
  1  3  2  0
  1  4  1  0
  2  3  1  0
  2  9  1  0
  2 12  2  0
  4 11  2  0
  5  6  2  0
  5 15  1  0
  5 16  1  0
  6  7  1  0
  7  8  2  0
  7 10  1  0
  8  9  1  0
  9 15  2  0
 11 12  1  0
 11 13  1  0
 13 17  1  0
 14 17  1  0
  1 18  1  0
  3 19  1  0
  4 20  1  0
  6 21  1  0
  8 22  1  0
 10 23  1  0
 10 24  1  0
 10 25  1  0
 12 26  1  0
 13 27  1  0
 13 28  1  0
 14 29  1  0
 14 30  1  0
 14 31  1  0
 16 32  1  0
 16 33  1  0
 17 34  1  0
 17 35  1  0
M  CHG  1  17   1
M  END
>  <filename_input>  (6) 
7TS6_KMI_docked.sdf

>  <pdb_id>  (6) 
7TS6_KMI

>  <pose_rank>  (6) 
5

>  <num_atoms_heavy>  (6) 
17

>  <num_torsions>  (6) 
3

>  <pose>  (6) 
[-15.376687677326903, -3.4383002171952293, -5.075015387426623, 2.511608863891732, 1.4924777258054682, 0.9676472445385277, 0.06706112015843592, -0.7699383232833747, 0.19791594976506843]

>  <energy>  (6) 
-717.3519606491391

>  <inter_energy>  (6) 
-706.821516769944

>  <intra_energy>  (6) 
1.1879216862198494

>  <rmsd>  (6) 
2.82281

>  <sdf_rank>  (6) 
0

$$$$

     RDKit          3D

 35 36  0  0  0  0  0  0  0  0999 V2000
  -14.3473   -3.1749   -4.5593 C   0  0  0  0  0  0  0  0  0  0  0  0
  -16.1908   -1.6563   -4.8700 C   0  0  0  0  0  0  0  0  0  0  0  0
  -15.6355   -2.9288   -5.0151 C   0  0  0  0  0  0  0  0  0  0  0  0
  -13.6338   -2.1392   -3.9607 C   0  0  0  0  0  0  0  0  0  0  0  0
  -19.2415   -0.4186   -6.5482 C   0  0  0  0  0  0  0  0  0  0  0  0
  -20.1932   -1.3972   -6.2266 C   0  0  0  0  0  0  0  0  0  0  0  0
  -19.7980   -2.4503   -5.4182 C   0  0  0  0  0  0  0  0  0  0  0  0
  -18.4850   -2.5048   -4.9814 C   0  0  0  0  0  0  0  0  0  0  0  0
  -17.5921   -1.4980   -5.3151 C   0  0  0  0  0  0  0  0  0  0  0  0
  -20.7457   -3.5390   -5.0076 C   0  0  0  0  0  0  0  0  0  0  0  0
  -14.1994   -0.8743   -3.8015 C   0  0  0  0  0  0  0  0  0  0  0  0
  -15.4899   -0.6248   -4.2583 C   0  0  0  0  0  0  0  0  0  0  0  0
  -13.4050    0.2375   -3.1568 C   0  0  0  0  0  0  0  0  0  0  0  0
  -11.3527    0.8213   -2.0326 C   0  0  0  0  0  0  0  0  0  0  0  0
  -17.9680   -0.5004   -6.1111 N   0  0  0  0  0  0  0  0  0  0  0  0
  -19.5564    0.6372   -7.3291 N   0  0  0  0  0  0  0  0  0  0  0  0
  -12.1190   -0.2733   -2.6529 N   0  0  0  0  0  0  0  0  0  0  0  0
  -13.8971   -4.1725   -4.6693 H   0  0  0  0  0  0  0  0  0  0  0  0
  -16.2164   -3.7337   -5.4890 H   0  0  0  0  0  0  0  0  0  0  0  0
  -12.6080   -2.3217   -3.6080 H   0  0  0  0  0  0  0  0  0  0  0  0
  -21.2238   -1.3304   -6.6054 H   0  0  0  0  0  0  0  0  0  0  0  0
  -18.1483   -3.3521   -4.3659 H   0  0  0  0  0  0  0  0  0  0  0  0
  -20.7910   -3.5910   -3.9097 H   0  0  0  0  0  0  0  0  0  0  0  0
  -21.7479   -3.3224   -5.4060 H   0  0  0  0  0  0  0  0  0  0  0  0
  -20.3930   -4.5017   -5.4060 H   0  0  0  0  0  0  0  0  0  0  0  0
  -15.9456    0.3691   -4.1376 H   0  0  0  0  0  0  0  0  0  0  0  0
  -13.2153    1.0253   -3.9007 H   0  0  0  0  0  0  0  0  0  0  0  0
  -13.9818    0.6441   -2.3130 H   0  0  0  0  0  0  0  0  0  0  0  0
  -11.4124    0.7360   -0.9375 H   0  0  0  0  0  0  0  0  0  0  0  0
  -10.3010    0.7575   -2.3485 H   0  0  0  0  0  0  0  0  0  0  0  0
  -11.7725    1.7877   -2.3485 H   0  0  0  0  0  0  0  0  0  0  0  0
  -18.8413    1.3440   -7.5524 H   0  0  0  0  0  0  0  0  0  0  0  0
  -20.5117    0.7357   -7.7014 H   0  0  0  0  0  0  0  0  0  0  0  0
  -12.2942   -1.0074   -1.9520 H   0  0  0  0  0  0  0  0  0  0  0  0
  -11.5781   -0.6632   -3.4379 H   0  0  0  0  0  0  0  0  0  0  0  0
  1  3  2  0
  1  4  1  0
  2  3  1  0
  2  9  1  0
  2 12  2  0
  4 11  2  0
  5  6  2  0
  5 15  1  0
  5 16  1  0
  6  7  1  0
  7  8  2  0
  7 10  1  0
  8  9  1  0
  9 15  2  0
 11 12  1  0
 11 13  1  0
 13 17  1  0
 14 17  1  0
  1 18  1  0
  3 19  1  0
  4 20  1  0
  6 21  1  0
  8 22  1  0
 10 23  1  0
 10 24  1  0
 10 25  1  0
 12 26  1  0
 13 27  1  0
 13 28  1  0
 14 29  1  0
 14 30  1  0
 14 31  1  0
 16 32  1  0
 16 33  1  0
 17 34  1  0
 17 35  1  0
M  CHG  1  17   1
M  END
>  <filename_input>  (7) 
7TS6_KMI_docked.sdf

>  <pdb_id>  (7) 
7TS6_KMI

>  <pose_rank>  (7) 
6

>  <num_atoms_heavy>  (7) 
17

>  <num_torsions>  (7) 
3

>  <pose>  (7) 
[-14.347283614591838, -3.1748999597579046, -4.5593382401796125, -0.6173663576888634, -0.8452217939814962, 2.4253884929854674, -1.328454726121283, -1.026035846621571, -0.9858483133825768]

>  <energy>  (7) 
-422.32010004712726

>  <inter_energy>  (7) 
-422.6937389774407

>  <intra_energy>  (7) 
0.0

>  <rmsd>  (7) 
6.72269

>  <sdf_rank>  (7) 
0

$$$$

     RDKit          3D

 35 36  0  0  0  0  0  0  0  0999 V2000
  -12.9046    0.7916   -4.4609 C   0  0  0  0  0  0  0  0  0  0  0  0
  -14.4479   -1.0356   -4.1768 C   0  0  0  0  0  0  0  0  0  0  0  0
  -14.1272    0.1983   -4.7455 C   0  0  0  0  0  0  0  0  0  0  0  0
  -12.0181    0.1360   -3.6098 C   0  0  0  0  0  0  0  0  0  0  0  0
  -17.1595   -3.4505   -4.8627 C   0  0  0  0  0  0  0  0  0  0  0  0
  -18.2347   -2.6211   -5.2129 C   0  0  0  0  0  0  0  0  0  0  0  0
  -18.0198   -1.2529   -5.2429 C   0  0  0  0  0  0  0  0  0  0  0  0
  -16.7687   -0.7627   -4.9082 C   0  0  0  0  0  0  0  0  0  0  0  0
  -15.7370   -1.6320   -4.5886 C   0  0  0  0  0  0  0  0  0  0  0  0
  -19.1028   -0.2842   -5.6183 C   0  0  0  0  0  0  0  0  0  0  0  0
  -12.3353   -1.1051   -3.0584 C   0  0  0  0  0  0  0  0  0  0  0  0
  -13.5603   -1.7015   -3.3412 C   0  0  0  0  0  0  0  0  0  0  0  0
  -11.3625   -1.7954   -2.1309 C   0  0  0  0  0  0  0  0  0  0  0  0
  -12.6290   -1.0955   -0.2014 C   0  0  0  0  0  0  0  0  0  0  0  0
  -15.9524   -2.9439   -4.5374 N   0  0  0  0  0  0  0  0  0  0  0  0
  -17.2951   -4.7934   -4.8152 N   0  0  0  0  0  0  0  0  0  0  0  0
  -11.2999   -1.0958   -0.8365 N   0  0  0  0  0  0  0  0  0  0  0  0
  -12.6402    1.7646   -4.9008 H   0  0  0  0  0  0  0  0  0  0  0  0
  -14.8406    0.6987   -5.4167 H   0  0  0  0  0  0  0  0  0  0  0  0
  -11.0525    0.6046   -3.3689 H   0  0  0  0  0  0  0  0  0  0  0  0
  -19.2201   -3.0446   -5.4567 H   0  0  0  0  0  0  0  0  0  0  0  0
  -16.5923    0.3230   -4.8958 H   0  0  0  0  0  0  0  0  0  0  0  0
  -19.5608    0.1254   -4.7059 H   0  0  0  0  0  0  0  0  0  0  0  0
  -18.6719    0.5354   -6.2121 H   0  0  0  0  0  0  0  0  0  0  0  0
  -19.8695   -0.8035   -6.2121 H   0  0  0  0  0  0  0  0  0  0  0  0
  -13.8204   -2.6802   -2.9117 H   0  0  0  0  0  0  0  0  0  0  0  0
  -11.6923   -2.8319   -1.9667 H   0  0  0  0  0  0  0  0  0  0  0  0
  -10.3632   -1.7840   -2.5905 H   0  0  0  0  0  0  0  0  0  0  0  0
  -12.5127   -1.0955    0.8924 H   0  0  0  0  0  0  0  0  0  0  0  0
  -13.1832   -0.1973   -0.5112 H   0  0  0  0  0  0  0  0  0  0  0  0
  -13.1836   -1.9935   -0.5112 H   0  0  0  0  0  0  0  0  0  0  0  0
  -16.4917   -5.3832   -4.5554 H   0  0  0  0  0  0  0  0  0  0  0  0
  -18.2020   -5.2276   -5.0387 H   0  0  0  0  0  0  0  0  0  0  0  0
  -10.6275   -1.5757   -0.2212 H   0  0  0  0  0  0  0  0  0  0  0  0
  -10.9979   -0.1233   -0.9912 H   0  0  0  0  0  0  0  0  0  0  0  0
  1  3  2  0
  1  4  1  0
  2  3  1  0
  2  9  1  0
  2 12  2  0
  4 11  2  0
  5  6  2  0
  5 15  1  0
  5 16  1  0
  6  7  1  0
  7  8  2  0
  7 10  1  0
  8  9  1  0
  9 15  2  0
 11 12  1  0
 11 13  1  0
 13 17  1  0
 14 17  1  0
  1 18  1  0
  3 19  1  0
  4 20  1  0
  6 21  1  0
  8 22  1  0
 10 23  1  0
 10 24  1  0
 10 25  1  0
 12 26  1  0
 13 27  1  0
 13 28  1  0
 14 29  1  0
 14 30  1  0
 14 31  1  0
 16 32  1  0
 16 33  1  0
 17 34  1  0
 17 35  1  0
M  CHG  1  17   1
M  END
>  <filename_input>  (8) 
7TS6_KMI_docked.sdf

>  <pdb_id>  (8) 
7TS6_KMI

>  <pose_rank>  (8) 
7

>  <num_atoms_heavy>  (8) 
17

>  <num_torsions>  (8) 
3

>  <pose>  (8) 
[-12.90462766712341, 0.7916322597067511, -4.460894698882732, -1.1436937655208006, 2.853268736623114, -0.6003129081980808, -2.61823651619962, 0.31769829188421034, -3.0696006416117387]

>  <energy>  (8) 
-487.1767540036453

>  <inter_energy>  (8) 
-493.97127056324575

>  <intra_energy>  (8) 
7.079562204099255

>  <rmsd>  (8) 
6.32383

>  <sdf_rank>  (8) 
0

$$$$

     RDKit          3D

 35 36  0  0  0  0  0  0  0  0999 V2000
  -17.8431   -3.6818   -3.9506 C   0  0  0  0  0  0  0  0  0  0  0  0
  -19.4272   -4.3137   -5.6514 C   0  0  0  0  0  0  0  0  0  0  0  0
  -18.6176   -4.6556   -4.5668 C   0  0  0  0  0  0  0  0  0  0  0  0
  -17.8940   -2.3752   -4.4308 C   0  0  0  0  0  0  0  0  0  0  0  0
  -20.9524   -6.7813   -7.9405 C   0  0  0  0  0  0  0  0  0  0  0  0
  -21.7707   -7.5348   -7.0865 C   0  0  0  0  0  0  0  0  0  0  0  0
  -21.8203   -7.1783   -5.7489 C   0  0  0  0  0  0  0  0  0  0  0  0
  -21.0503   -6.1147   -5.3089 C   0  0  0  0  0  0  0  0  0  0  0  0
  -20.2743   -5.3931   -6.2029 C   0  0  0  0  0  0  0  0  0  0  0  0
  -22.6758   -7.9139   -4.7593 C   0  0  0  0  0  0  0  0  0  0  0  0
  -18.7181   -2.0347   -5.5032 C   0  0  0  0  0  0  0  0  0  0  0  0
  -19.4944   -3.0089   -6.1231 C   0  0  0  0  0  0  0  0  0  0  0  0
  -18.7521   -0.6130   -6.0137 C   0  0  0  0  0  0  0  0  0  0  0  0
  -17.5045    0.3284   -7.8506 C   0  0  0  0  0  0  0  0  0  0  0  0
  -20.2100   -5.7524   -7.4824 N   0  0  0  0  0  0  0  0  0  0  0  0
  -20.8569   -7.0696   -9.2564 N   0  0  0  0  0  0  0  0  0  0  0  0
  -17.4169   -0.2004   -6.4785 N   0  0  0  0  0  0  0  0  0  0  0  0
  -17.1993   -3.9381   -3.0963 H   0  0  0  0  0  0  0  0  0  0  0  0
  -18.5932   -5.6929   -4.2016 H   0  0  0  0  0  0  0  0  0  0  0  0
  -17.2743   -1.5998   -3.9567 H   0  0  0  0  0  0  0  0  0  0  0  0
  -22.3562   -8.3844   -7.4678 H   0  0  0  0  0  0  0  0  0  0  0  0
  -21.0544   -5.8407   -4.2436 H   0  0  0  0  0  0  0  0  0  0  0  0
  -22.3662   -7.6478   -3.7378 H   0  0  0  0  0  0  0  0  0  0  0  0
  -23.7296   -7.6356   -4.9074 H   0  0  0  0  0  0  0  0  0  0  0  0
  -22.5585   -8.9976   -4.9074 H   0  0  0  0  0  0  0  0  0  0  0  0
  -20.1480   -2.7511   -6.9695 H   0  0  0  0  0  0  0  0  0  0  0  0
  -19.4634   -0.5455   -6.8500 H   0  0  0  0  0  0  0  0  0  0  0  0
  -19.0653    0.0518   -5.1952 H   0  0  0  0  0  0  0  0  0  0  0  0
  -17.6841    1.4131   -7.8147 H   0  0  0  0  0  0  0  0  0  0  0  0
  -16.5613    0.1302   -8.3808 H   0  0  0  0  0  0  0  0  0  0  0  0
  -18.3335   -0.1632   -8.3808 H   0  0  0  0  0  0  0  0  0  0  0  0
  -20.2496   -6.5026   -9.8651 H   0  0  0  0  0  0  0  0  0  0  0  0
  -21.3914   -7.8566   -9.6513 H   0  0  0  0  0  0  0  0  0  0  0  0
  -17.0488    0.5309   -5.8535 H   0  0  0  0  0  0  0  0  0  0  0  0
  -16.7878   -1.0159   -6.4690 H   0  0  0  0  0  0  0  0  0  0  0  0
  1  3  2  0
  1  4  1  0
  2  3  1  0
  2  9  1  0
  2 12  2  0
  4 11  2  0
  5  6  2  0
  5 15  1  0
  5 16  1  0
  6  7  1  0
  7  8  2  0
  7 10  1  0
  8  9  1  0
  9 15  2  0
 11 12  1  0
 11 13  1  0
 13 17  1  0
 14 17  1  0
  1 18  1  0
  3 19  1  0
  4 20  1  0
  6 21  1  0
  8 22  1  0
 10 23  1  0
 10 24  1  0
 10 25  1  0
 12 26  1  0
 13 27  1  0
 13 28  1  0
 14 29  1  0
 14 30  1  0
 14 31  1  0
 16 32  1  0
 16 33  1  0
 17 34  1  0
 17 35  1  0
M  CHG  1  17   1
M  END
>  <filename_input>  (9) 
7TS6_KMI_docked.sdf

>  <pdb_id>  (9) 
7TS6_KMI

>  <pose_rank>  (9) 
8

>  <num_atoms_heavy>  (9) 
17

>  <num_torsions>  (9) 
3

>  <pose>  (9) 
[-17.843141722850653, -3.6817593049413264, -3.950620569076207, -1.4911698038091359, 0.08963009688426489, 3.202299988883531, 5.087846940924731, 0.1281615414451107, -1.900041686482767]

>  <energy>  (9) 
-333.7189148627313

>  <inter_energy>  (9) 
-324.2446359212239

>  <intra_energy>  (9) 
0.0

>  <rmsd>  (9) 
9.06192

>  <sdf_rank>  (9) 
0

$$$$

     RDKit          3D

 35 36  0  0  0  0  0  0  0  0999 V2000
  -16.6793    0.3258   -5.2017 C   0  0  0  0  0  0  0  0  0  0  0  0
  -17.3244   -1.9447   -4.7220 C   0  0  0  0  0  0  0  0  0  0  0  0
  -17.5386   -0.7458   -5.4044 C   0  0  0  0  0  0  0  0  0  0  0  0
  -15.6135    0.1784   -4.3172 C   0  0  0  0  0  0  0  0  0  0  0  0
  -20.1024   -4.3786   -4.6061 C   0  0  0  0  0  0  0  0  0  0  0  0
  -19.9942   -5.0345   -5.8410 C   0  0  0  0  0  0  0  0  0  0  0  0
  -18.9611   -4.6656   -6.6868 C   0  0  0  0  0  0  0  0  0  0  0  0
  -18.0972   -3.6582   -6.2911 C   0  0  0  0  0  0  0  0  0  0  0  0
  -18.2408   -3.0581   -5.0496 C   0  0  0  0  0  0  0  0  0  0  0  0
  -18.7535   -5.3173   -8.0225 C   0  0  0  0  0  0  0  0  0  0  0  0
  -15.3929   -1.0271   -3.6514 C   0  0  0  0  0  0  0  0  0  0  0  0
  -16.2531   -2.1023   -3.8520 C   0  0  0  0  0  0  0  0  0  0  0  0
  -14.2355   -1.1632   -2.6897 C   0  0  0  0  0  0  0  0  0  0  0  0
  -12.1487   -0.0444   -2.2309 C   0  0  0  0  0  0  0  0  0  0  0  0
  -19.2480   -3.3976   -4.2493 N   0  0  0  0  0  0  0  0  0  0  0  0
  -21.0828   -4.6880   -3.7303 N   0  0  0  0  0  0  0  0  0  0  0  0
  -13.5899    0.1424   -2.4724 N   0  0  0  0  0  0  0  0  0  0  0  0
  -16.8379    1.2767   -5.7316 H   0  0  0  0  0  0  0  0  0  0  0  0
  -18.3852   -0.6505   -6.1003 H   0  0  0  0  0  0  0  0  0  0  0  0
  -14.9351    1.0261   -4.1409 H   0  0  0  0  0  0  0  0  0  0  0  0
  -20.7090   -5.8192   -6.1295 H   0  0  0  0  0  0  0  0  0  0  0  0
  -17.2920   -3.3321   -6.9660 H   0  0  0  0  0  0  0  0  0  0  0  0
  -18.4225   -6.3561   -7.8762 H   0  0  0  0  0  0  0  0  0  0  0  0
  -19.6986   -5.3094   -8.5853 H   0  0  0  0  0  0  0  0  0  0  0  0
  -17.9871   -4.7641   -8.5853 H   0  0  0  0  0  0  0  0  0  0  0  0
  -16.0882   -3.0576   -3.3321 H   0  0  0  0  0  0  0  0  0  0  0  0
  -14.6068   -1.5480   -1.7284 H   0  0  0  0  0  0  0  0  0  0  0  0
  -13.4978   -1.8585   -3.1167 H   0  0  0  0  0  0  0  0  0  0  0  0
  -11.9587   -0.0691   -1.1477 H   0  0  0  0  0  0  0  0  0  0  0  0
  -11.8212   -0.9926   -2.6823 H   0  0  0  0  0  0  0  0  0  0  0  0
  -11.5902    0.7888   -2.6823 H   0  0  0  0  0  0  0  0  0  0  0  0
  -21.1431   -4.1933   -2.8289 H   0  0  0  0  0  0  0  0  0  0  0  0
  -21.7701   -5.4188   -3.9638 H   0  0  0  0  0  0  0  0  0  0  0  0
  -13.7227    0.7320   -3.3065 H   0  0  0  0  0  0  0  0  0  0  0  0
  -14.0147    0.5983   -1.6523 H   0  0  0  0  0  0  0  0  0  0  0  0
  1  3  2  0
  1  4  1  0
  2  3  1  0
  2  9  1  0
  2 12  2  0
  4 11  2  0
  5  6  2  0
  5 15  1  0
  5 16  1  0
  6  7  1  0
  7  8  2  0
  7 10  1  0
  8  9  1  0
  9 15  2  0
 11 12  1  0
 11 13  1  0
 13 17  1  0
 14 17  1  0
  1 18  1  0
  3 19  1  0
  4 20  1  0
  6 21  1  0
  8 22  1  0
 10 23  1  0
 10 24  1  0
 10 25  1  0
 12 26  1  0
 13 27  1  0
 13 28  1  0
 14 29  1  0
 14 30  1  0
 14 31  1  0
 16 32  1  0
 16 33  1  0
 17 34  1  0
 17 35  1  0
M  CHG  1  17   1
M  END
>  <filename_input>  (10) 
7TS6_KMI_docked.sdf

>  <pdb_id>  (10) 
7TS6_KMI

>  <pose_rank>  (10) 
9

>  <num_atoms_heavy>  (10) 
17

>  <num_torsions>  (10) 
3

>  <pose>  (10) 
[-16.67933961252406, 0.3258149118280979, -5.201711271365742, 1.763131190077712, -2.565109012458602, 0.7249902134040979, -0.8283375488332082, -0.7911219393115733, -0.42101540878006705]

>  <energy>  (10) 
-432.8199263361987

>  <inter_energy>  (10) 
-415.5216320052646

>  <intra_energy>  (10) 
0.0

>  <rmsd>  (10) 
7.27609

>  <sdf_rank>  (10) 
0

$$$$

     RDKit          3D

 35 36  0  0  0  0  0  0  0  0999 V2000
  -19.4447   -1.0170   -5.6281 C   0  0  0  0  0  0  0  0  0  0  0  0
  -17.2498   -1.4543   -4.7378 C   0  0  0  0  0  0  0  0  0  0  0  0
  -18.2943   -0.5647   -4.9957 C   0  0  0  0  0  0  0  0  0  0  0  0
  -19.5321   -2.3588   -5.9913 C   0  0  0  0  0  0  0  0  0  0  0  0
  -14.9240   -0.5086   -2.0264 C   0  0  0  0  0  0  0  0  0  0  0  0
  -13.8108   -0.0212   -2.7263 C   0  0  0  0  0  0  0  0  0  0  0  0
  -13.8731    0.0104   -4.1097 C   0  0  0  0  0  0  0  0  0  0  0  0
  -15.0140   -0.4561   -4.7409 C   0  0  0  0  0  0  0  0  0  0  0  0
  -16.0924   -0.9089   -3.9964 C   0  0  0  0  0  0  0  0  0  0  0  0
  -12.7395    0.5265   -4.9469 C   0  0  0  0  0  0  0  0  0  0  0  0
  -18.4935   -3.2478   -5.7153 C   0  0  0  0  0  0  0  0  0  0  0  0
  -17.3391   -2.7969   -5.0825 C   0  0  0  0  0  0  0  0  0  0  0  0
  -18.6053   -4.6977   -6.1253 C   0  0  0  0  0  0  0  0  0  0  0  0
  -19.1053   -6.9311   -5.3645 C   0  0  0  0  0  0  0  0  0  0  0  0
  -16.0208   -0.9604   -2.6689 N   0  0  0  0  0  0  0  0  0  0  0  0
  -14.9351   -0.5663   -0.6772 N   0  0  0  0  0  0  0  0  0  0  0  0
  -18.7933   -5.5546   -4.9425 N   0  0  0  0  0  0  0  0  0  0  0  0
  -20.2743   -0.3261   -5.8391 H   0  0  0  0  0  0  0  0  0  0  0  0
  -18.2063    0.4908   -4.6990 H   0  0  0  0  0  0  0  0  0  0  0  0
  -20.4346   -2.7231   -6.5040 H   0  0  0  0  0  0  0  0  0  0  0  0
  -12.9141    0.3259   -2.1921 H   0  0  0  0  0  0  0  0  0  0  0  0
  -15.0650   -0.4675   -5.8397 H   0  0  0  0  0  0  0  0  0  0  0  0
  -11.9360    0.8922   -4.2907 H   0  0  0  0  0  0  0  0  0  0  0  0
  -12.3537   -0.2847   -5.5818 H   0  0  0  0  0  0  0  0  0  0  0  0
  -13.0979    1.3501   -5.5818 H   0  0  0  0  0  0  0  0  0  0  0  0
  -16.5141   -3.4896   -4.8599 H   0  0  0  0  0  0  0  0  0  0  0  0
  -19.4657   -4.8179   -6.8000 H   0  0  0  0  0  0  0  0  0  0  0  0
  -17.6781   -4.9955   -6.6369 H   0  0  0  0  0  0  0  0  0  0  0  0
  -19.2486   -7.5635   -4.4760 H   0  0  0  0  0  0  0  0  0  0  0  0
  -20.0260   -6.9302   -5.9664 H   0  0  0  0  0  0  0  0  0  0  0  0
  -18.2742   -7.3273   -5.9664 H   0  0  0  0  0  0  0  0  0  0  0  0
  -15.7638   -0.9280   -0.1840 H   0  0  0  0  0  0  0  0  0  0  0  0
  -14.1148   -0.2486   -0.1415 H   0  0  0  0  0  0  0  0  0  0  0  0
  -17.9293   -5.5570   -4.3817 H   0  0  0  0  0  0  0  0  0  0  0  0
  -19.5734   -5.1879   -4.3788 H   0  0  0  0  0  0  0  0  0  0  0  0
  1  3  2  0
  1  4  1  0
  2  3  1  0
  2  9  1  0
  2 12  2  0
  4 11  2  0
  5  6  2  0
  5 15  1  0
  5 16  1  0
  6  7  1  0
  7  8  2  0
  7 10  1  0
  8  9  1  0
  9 15  2  0
 11 12  1  0
 11 13  1  0
 13 17  1  0
 14 17  1  0
  1 18  1  0
  3 19  1  0
  4 20  1  0
  6 21  1  0
  8 22  1  0
 10 23  1  0
 10 24  1  0
 10 25  1  0
 12 26  1  0
 13 27  1  0
 13 28  1  0
 14 29  1  0
 14 30  1  0
 14 31  1  0
 16 32  1  0
 16 33  1  0
 17 34  1  0
 17 35  1  0
M  CHG  1  17   1
M  END
>  <filename_input>  (11) 
7TS6_KMI_docked.sdf

>  <pdb_id>  (11) 
7TS6_KMI

>  <pose_rank>  (11) 
10

>  <num_atoms_heavy>  (11) 
17

>  <num_torsions>  (11) 
3

>  <pose>  (11) 
[-19.44468260527727, -1.0169548877431154, -5.628120172618733, -0.07188523422900088, -0.3135922284447828, -0.0833052176116108, 2.549125907380718, -2.8212881013786024, -1.1315360357753532]

>  <energy>  (11) 
-408.1001427777308

>  <inter_energy>  (11) 
-397.68050988771296

>  <intra_energy>  (11) 
0.0

>  <rmsd>  (11) 
3.23102

>  <sdf_rank>  (11) 
0

$$$$

     RDKit          3D

 35 36  0  0  0  0  0  0  0  0999 V2000
  -18.9346   -1.6920   -4.5200 C   0  0  0  0  0  0  0  0  0  0  0  0
  -16.5450   -1.9825   -4.4371 C   0  0  0  0  0  0  0  0  0  0  0  0
  -17.6749   -1.1927   -4.2173 C   0  0  0  0  0  0  0  0  0  0  0  0
  -19.0433   -2.9805   -5.0378 C   0  0  0  0  0  0  0  0  0  0  0  0
  -13.0126   -1.6064   -3.4193 C   0  0  0  0  0  0  0  0  0  0  0  0
  -12.8332   -0.2155   -3.4235 C   0  0  0  0  0  0  0  0  0  0  0  0
  -13.9209    0.5812   -3.7413 C   0  0  0  0  0  0  0  0  0  0  0  0
  -15.1253   -0.0235   -4.0598 C   0  0  0  0  0  0  0  0  0  0  0  0
  -15.2496   -1.4038   -4.0202 C   0  0  0  0  0  0  0  0  0  0  0  0
  -13.8331    2.0792   -3.7598 C   0  0  0  0  0  0  0  0  0  0  0  0
  -17.9131   -3.7726   -5.2387 C   0  0  0  0  0  0  0  0  0  0  0  0
  -16.6494   -3.2742   -4.9371 C   0  0  0  0  0  0  0  0  0  0  0  0
  -18.0526   -5.1647   -5.8092 C   0  0  0  0  0  0  0  0  0  0  0  0
  -18.9525   -6.4804   -7.6191 C   0  0  0  0  0  0  0  0  0  0  0  0
  -14.1973   -2.1674   -3.7380 N   0  0  0  0  0  0  0  0  0  0  0  0
  -11.9977   -2.4443   -3.1166 N   0  0  0  0  0  0  0  0  0  0  0  0
  -18.6698   -5.1145   -7.1454 N   0  0  0  0  0  0  0  0  0  0  0  0
  -19.8329   -1.0794   -4.3535 H   0  0  0  0  0  0  0  0  0  0  0  0
  -17.5676   -0.1782   -3.8057 H   0  0  0  0  0  0  0  0  0  0  0  0
  -20.0362   -3.3796   -5.2923 H   0  0  0  0  0  0  0  0  0  0  0  0
  -11.8570    0.2299   -3.1814 H   0  0  0  0  0  0  0  0  0  0  0  0
  -15.9888    0.5951   -4.3460 H   0  0  0  0  0  0  0  0  0  0  0  0
  -13.8109    2.4580   -2.7273 H   0  0  0  0  0  0  0  0  0  0  0  0
  -12.9154    2.3863   -4.2828 H   0  0  0  0  0  0  0  0  0  0  0  0
  -14.7086    2.4914   -4.2828 H   0  0  0  0  0  0  0  0  0  0  0  0
  -15.7515   -3.8906   -5.0915 H   0  0  0  0  0  0  0  0  0  0  0  0
  -17.0568   -5.6255   -5.8874 H   0  0  0  0  0  0  0  0  0  0  0  0
  -18.6943   -5.7599   -5.1429 H   0  0  0  0  0  0  0  0  0  0  0  0
  -19.0905   -7.1470   -6.7551 H   0  0  0  0  0  0  0  0  0  0  0  0
  -19.8686   -6.4751   -8.2281 H   0  0  0  0  0  0  0  0  0  0  0  0
  -18.1096   -6.8392   -8.2281 H   0  0  0  0  0  0  0  0  0  0  0  0
  -12.1523   -3.4627   -3.1197 H   0  0  0  0  0  0  0  0  0  0  0  0
  -11.0691   -2.0651   -2.8826 H   0  0  0  0  0  0  0  0  0  0  0  0
  -19.5497   -4.5815   -7.0953 H   0  0  0  0  0  0  0  0  0  0  0  0
  -18.0215   -4.6557   -7.8012 H   0  0  0  0  0  0  0  0  0  0  0  0
  1  3  2  0
  1  4  1  0
  2  3  1  0
  2  9  1  0
  2 12  2  0
  4 11  2  0
  5  6  2  0
  5 15  1  0
  5 16  1  0
  6  7  1  0
  7  8  2  0
  7 10  1  0
  8  9  1  0
  9 15  2  0
 11 12  1  0
 11 13  1  0
 13 17  1  0
 14 17  1  0
  1 18  1  0
  3 19  1  0
  4 20  1  0
  6 21  1  0
  8 22  1  0
 10 23  1  0
 10 24  1  0
 10 25  1  0
 12 26  1  0
 13 27  1  0
 13 28  1  0
 14 29  1  0
 14 30  1  0
 14 31  1  0
 16 32  1  0
 16 33  1  0
 17 34  1  0
 17 35  1  0
M  CHG  1  17   1
M  END
>  <filename_input>  (12) 
7TS6_KMI_docked.sdf

>  <pdb_id>  (12) 
7TS6_KMI

>  <pose_rank>  (12) 
11

>  <num_atoms_heavy>  (12) 
17

>  <num_torsions>  (12) 
3

>  <pose>  (12) 
[-18.93457623665649, -1.6920055792408197, -4.520038306909452, -6.064181380164862, -1.3514606043444406, 0.03271883555717243, 3.6875112213045242, 0.12303806749916787, -0.8600700070393348]

>  <energy>  (12) 
-424.58935688575133

>  <inter_energy>  (12) 
-430.34088310460334

>  <intra_energy>  (12) 
0.0

>  <rmsd>  (12) 
2.85218

>  <sdf_rank>  (12) 
0

$$$$

     RDKit          3D

 35 36  0  0  0  0  0  0  0  0999 V2000
  -17.4288    0.1574   -4.7819 C   0  0  0  0  0  0  0  0  0  0  0  0
  -17.9140   -2.0353   -5.6526 C   0  0  0  0  0  0  0  0  0  0  0  0
  -18.2963   -0.7112   -5.4306 C   0  0  0  0  0  0  0  0  0  0  0  0
  -16.1862   -0.3152   -4.3663 C   0  0  0  0  0  0  0  0  0  0  0  0
  -19.5964   -4.9282   -7.2197 C   0  0  0  0  0  0  0  0  0  0  0  0
  -20.7902   -4.3715   -7.7010 C   0  0  0  0  0  0  0  0  0  0  0  0
  -20.9979   -3.0145   -7.5163 C   0  0  0  0  0  0  0  0  0  0  0  0
  -20.0360   -2.2730   -6.8509 C   0  0  0  0  0  0  0  0  0  0  0  0
  -18.8653   -2.8734   -6.4138 C   0  0  0  0  0  0  0  0  0  0  0  0
  -22.2366   -2.3238   -8.0069 C   0  0  0  0  0  0  0  0  0  0  0  0
  -15.8014   -1.6341   -4.6063 C   0  0  0  0  0  0  0  0  0  0  0  0
  -16.6693   -2.5069   -5.2553 C   0  0  0  0  0  0  0  0  0  0  0  0
  -14.4521   -2.1287   -4.1397 C   0  0  0  0  0  0  0  0  0  0  0  0
  -12.4072   -1.1939   -3.2673 C   0  0  0  0  0  0  0  0  0  0  0  0
  -18.6790   -4.1813   -6.5714 N   0  0  0  0  0  0  0  0  0  0  0  0
  -19.3255   -6.2430   -7.3665 N   0  0  0  0  0  0  0  0  0  0  0  0
  -13.8758   -1.1999   -3.1528 N   0  0  0  0  0  0  0  0  0  0  0  0
  -17.7184    1.2027   -4.5990 H   0  0  0  0  0  0  0  0  0  0  0  0
  -19.2815   -0.3571   -5.7685 H   0  0  0  0  0  0  0  0  0  0  0  0
  -15.4976    0.3625   -3.8405 H   0  0  0  0  0  0  0  0  0  0  0  0
  -21.5401   -4.9946   -8.2105 H   0  0  0  0  0  0  0  0  0  0  0  0
  -20.2018   -1.2010   -6.6680 H   0  0  0  0  0  0  0  0  0  0  0  0
  -22.8353   -1.9899   -7.1466 H   0  0  0  0  0  0  0  0  0  0  0  0
  -21.9537   -1.4531   -8.6168 H   0  0  0  0  0  0  0  0  0  0  0  0
  -22.8286   -3.0220   -8.6168 H   0  0  0  0  0  0  0  0  0  0  0  0
  -16.3757   -3.5489   -5.4499 H   0  0  0  0  0  0  0  0  0  0  0  0
  -14.5697   -3.1202   -3.6782 H   0  0  0  0  0  0  0  0  0  0  0  0
  -13.7770   -2.1916   -5.0059 H   0  0  0  0  0  0  0  0  0  0  0  0
  -11.9611   -1.1920   -2.2618 H   0  0  0  0  0  0  0  0  0  0  0  0
  -12.0782   -2.0907   -3.8127 H   0  0  0  0  0  0  0  0  0  0  0  0
  -12.0856   -0.2944   -3.8127 H   0  0  0  0  0  0  0  0  0  0  0  0
  -18.4422   -6.6303   -7.0051 H   0  0  0  0  0  0  0  0  0  0  0  0
  -20.0022   -6.8585   -7.8399 H   0  0  0  0  0  0  0  0  0  0  0  0
  -14.2358   -0.2506   -3.3266 H   0  0  0  0  0  0  0  0  0  0  0  0
  -14.1407   -1.5049   -2.2054 H   0  0  0  0  0  0  0  0  0  0  0  0
  1  3  2  0
  1  4  1  0
  2  3  1  0
  2  9  1  0
  2 12  2  0
  4 11  2  0
  5  6  2  0
  5 15  1  0
  5 16  1  0
  6  7  1  0
  7  8  2  0
  7 10  1  0
  8  9  1  0
  9 15  2  0
 11 12  1  0
 11 13  1  0
 13 17  1  0
 14 17  1  0
  1 18  1  0
  3 19  1  0
  4 20  1  0
  6 21  1  0
  8 22  1  0
 10 23  1  0
 10 24  1  0
 10 25  1  0
 12 26  1  0
 13 27  1  0
 13 28  1  0
 14 29  1  0
 14 30  1  0
 14 31  1  0
 16 32  1  0
 16 33  1  0
 17 34  1  0
 17 35  1  0
M  CHG  1  17   1
M  END
>  <filename_input>  (13) 
7TS6_KMI_docked.sdf

>  <pdb_id>  (13) 
7TS6_KMI

>  <pose_rank>  (13) 
12

>  <num_atoms_heavy>  (13) 
17

>  <num_torsions>  (13) 
3

>  <pose>  (13) 
[-17.42882578511996, 0.15738962312461552, -4.781915246141315, 1.9455855452020674, -2.75005818233719, -0.33227170358494296, -2.0612228100015226, -0.652022978352329, -0.4206567582096704]

>  <energy>  (13) 
-452.9844007265542

>  <inter_energy>  (13) 
-454.1790847833899

>  <intra_energy>  (13) 
0.0

>  <rmsd>  (13) 
7.70845

>  <sdf_rank>  (13) 
0

$$$$

     RDKit          3D

 35 36  0  0  0  0  0  0  0  0999 V2000
  -20.4922    0.9071   -8.5812 C   0  0  0  0  0  0  0  0  0  0  0  0
  -18.4902    0.5443   -7.2921 C   0  0  0  0  0  0  0  0  0  0  0  0
  -19.8749    0.4342   -7.4309 C   0  0  0  0  0  0  0  0  0  0  0  0
  -19.7094    1.4828   -9.5792 C   0  0  0  0  0  0  0  0  0  0  0  0
  -16.5651    0.0685   -4.1740 C   0  0  0  0  0  0  0  0  0  0  0  0
  -17.0095   -1.1820   -3.7208 C   0  0  0  0  0  0  0  0  0  0  0  0
  -17.9343   -1.8646   -4.4938 C   0  0  0  0  0  0  0  0  0  0  0  0
  -18.3945   -1.2801   -5.6619 C   0  0  0  0  0  0  0  0  0  0  0  0
  -17.9047   -0.0492   -6.0707 C   0  0  0  0  0  0  0  0  0  0  0  0
  -18.4602   -3.2142   -4.1010 C   0  0  0  0  0  0  0  0  0  0  0  0
  -18.3243    1.5743   -9.4440 C   0  0  0  0  0  0  0  0  0  0  0  0
  -17.7034    1.1020   -8.2917 C   0  0  0  0  0  0  0  0  0  0  0  0
  -17.4947    2.2100  -10.5350 C   0  0  0  0  0  0  0  0  0  0  0  0
  -17.5853    3.2928  -12.6882 C   0  0  0  0  0  0  0  0  0  0  0  0
  -17.0345    0.6149   -5.3145 N   0  0  0  0  0  0  0  0  0  0  0  0
  -15.6627    0.7890   -3.4737 N   0  0  0  0  0  0  0  0  0  0  0  0
  -18.3592    2.9229  -11.4906 N   0  0  0  0  0  0  0  0  0  0  0  0
  -21.5826    0.8284   -8.7025 H   0  0  0  0  0  0  0  0  0  0  0  0
  -20.4749   -0.0256   -6.6318 H   0  0  0  0  0  0  0  0  0  0  0  0
  -20.1913    1.8715  -10.4884 H   0  0  0  0  0  0  0  0  0  0  0  0
  -16.6344   -1.6085   -2.7788 H   0  0  0  0  0  0  0  0  0  0  0  0
  -19.1532   -1.7956   -6.2690 H   0  0  0  0  0  0  0  0  0  0  0  0
  -18.4901   -3.2910   -3.0040 H   0  0  0  0  0  0  0  0  0  0  0  0
  -19.4748   -3.3443   -4.5054 H   0  0  0  0  0  0  0  0  0  0  0  0
  -17.8010   -3.9965   -4.5054 H   0  0  0  0  0  0  0  0  0  0  0  0
  -16.6116    1.1690   -8.1749 H   0  0  0  0  0  0  0  0  0  0  0  0
  -16.7885    2.9227  -10.0842 H   0  0  0  0  0  0  0  0  0  0  0  0
  -16.9466    1.4210  -11.0709 H   0  0  0  0  0  0  0  0  0  0  0  0
  -16.6319    3.7485  -12.3823 H   0  0  0  0  0  0  0  0  0  0  0  0
  -17.3857    2.3928  -13.2882 H   0  0  0  0  0  0  0  0  0  0  0  0
  -18.1603    4.0135  -13.2882 H   0  0  0  0  0  0  0  0  0  0  0  0
  -15.3505    1.7053   -3.8256 H   0  0  0  0  0  0  0  0  0  0  0  0
  -15.2868    0.4223   -2.5876 H   0  0  0  0  0  0  0  0  0  0  0  0
  -19.1416    2.3118  -11.7649 H   0  0  0  0  0  0  0  0  0  0  0  0
  -18.7240    3.7772  -11.0455 H   0  0  0  0  0  0  0  0  0  0  0  0
  1  3  2  0
  1  4  1  0
  2  3  1  0
  2  9  1  0
  2 12  2  0
  4 11  2  0
  5  6  2  0
  5 15  1  0
  5 16  1  0
  6  7  1  0
  7  8  2  0
  7 10  1  0
  8  9  1  0
  9 15  2  0
 11 12  1  0
 11 13  1  0
 13 17  1  0
 14 17  1  0
  1 18  1  0
  3 19  1  0
  4 20  1  0
  6 21  1  0
  8 22  1  0
 10 23  1  0
 10 24  1  0
 10 25  1  0
 12 26  1  0
 13 27  1  0
 13 28  1  0
 14 29  1  0
 14 30  1  0
 14 31  1  0
 16 32  1  0
 16 33  1  0
 17 34  1  0
 17 35  1  0
M  CHG  1  17   1
M  END
>  <filename_input>  (14) 
7TS6_KMI_docked.sdf

>  <pdb_id>  (14) 
7TS6_KMI

>  <pose_rank>  (14) 
13

>  <num_atoms_heavy>  (14) 
17

>  <num_torsions>  (14) 
3

>  <pose>  (14) 
[-20.492181378055175, 0.9071450396291578, -8.581216079821086, 1.6374934196517674, -0.6112409597333797, 0.5066614702900586, -1.347823485596178, -0.7047845538211898, -0.7749125934842916]

>  <energy>  (14) 
-286.9728409709946

>  <inter_energy>  (14) 
-289.584289557458

>  <intra_energy>  (14) 
0.0

>  <rmsd>  (14) 
6.60466

>  <sdf_rank>  (14) 
0

$$$$

     RDKit          3D

 35 36  0  0  0  0  0  0  0  0999 V2000
  -19.9318   -1.8028   -6.8592 C   0  0  0  0  0  0  0  0  0  0  0  0
  -17.7824   -2.3338   -5.9107 C   0  0  0  0  0  0  0  0  0  0  0  0
  -18.7721   -1.3967   -6.2126 C   0  0  0  0  0  0  0  0  0  0  0  0
  -20.0835   -3.1468   -7.1922 C   0  0  0  0  0  0  0  0  0  0  0  0
  -15.5625   -0.2463   -3.8203 C   0  0  0  0  0  0  0  0  0  0  0  0
  -14.4438   -1.0711   -3.6334 C   0  0  0  0  0  0  0  0  0  0  0  0
  -14.4410   -2.3144   -4.2442 C   0  0  0  0  0  0  0  0  0  0  0  0
  -15.5426   -2.6976   -4.9908 C   0  0  0  0  0  0  0  0  0  0  0  0
  -16.6130   -1.8323   -5.1573 C   0  0  0  0  0  0  0  0  0  0  0  0
  -13.2854   -3.2630   -4.1154 C   0  0  0  0  0  0  0  0  0  0  0  0
  -19.1001   -4.0825   -6.8723 C   0  0  0  0  0  0  0  0  0  0  0  0
  -17.9365   -3.6779   -6.2252 C   0  0  0  0  0  0  0  0  0  0  0  0
  -19.2809   -5.5342   -7.2500 C   0  0  0  0  0  0  0  0  0  0  0  0
  -18.3255   -7.4189   -8.4127 C   0  0  0  0  0  0  0  0  0  0  0  0
  -16.6234   -0.6485   -4.5501 N   0  0  0  0  0  0  0  0  0  0  0  0
  -15.6332    0.9792   -3.2574 N   0  0  0  0  0  0  0  0  0  0  0  0
  -18.1110   -6.0211   -8.0002 N   0  0  0  0  0  0  0  0  0  0  0  0
  -20.7186   -1.0744   -7.1047 H   0  0  0  0  0  0  0  0  0  0  0  0
  -18.6337   -0.3402   -5.9393 H   0  0  0  0  0  0  0  0  0  0  0  0
  -20.9935   -3.4753   -7.7157 H   0  0  0  0  0  0  0  0  0  0  0  0
  -13.5931   -0.7403   -3.0195 H   0  0  0  0  0  0  0  0  0  0  0  0
  -15.5686   -3.6948   -5.4546 H   0  0  0  0  0  0  0  0  0  0  0  0
  -13.0718   -3.4383   -3.0506 H   0  0  0  0  0  0  0  0  0  0  0  0
  -13.5384   -4.2173   -4.6005 H   0  0  0  0  0  0  0  0  0  0  0  0
  -12.3987   -2.8288   -4.6005 H   0  0  0  0  0  0  0  0  0  0  0  0
  -17.1546   -4.4077   -5.9681 H   0  0  0  0  0  0  0  0  0  0  0  0
  -19.4001   -6.1341   -6.3357 H   0  0  0  0  0  0  0  0  0  0  0  0
  -20.1748   -5.6284   -7.8841 H   0  0  0  0  0  0  0  0  0  0  0  0
  -18.4230   -8.0539   -7.5197 H   0  0  0  0  0  0  0  0  0  0  0  0
  -19.2447   -7.4871   -9.0131 H   0  0  0  0  0  0  0  0  0  0  0  0
  -17.4692   -7.7596   -9.0131 H   0  0  0  0  0  0  0  0  0  0  0  0
  -16.4647    1.5680   -3.4082 H   0  0  0  0  0  0  0  0  0  0  0  0
  -14.8556    1.3251   -2.6773 H   0  0  0  0  0  0  0  0  0  0  0  0
  -17.9737   -5.4356   -8.8364 H   0  0  0  0  0  0  0  0  0  0  0  0
  -17.2768   -5.9696   -7.3981 H   0  0  0  0  0  0  0  0  0  0  0  0
  1  3  2  0
  1  4  1  0
  2  3  1  0
  2  9  1  0
  2 12  2  0
  4 11  2  0
  5  6  2  0
  5 15  1  0
  5 16  1  0
  6  7  1  0
  7  8  2  0
  7 10  1  0
  8  9  1  0
  9 15  2  0
 11 12  1  0
 11 13  1  0
 13 17  1  0
 14 17  1  0
  1 18  1  0
  3 19  1  0
  4 20  1  0
  6 21  1  0
  8 22  1  0
 10 23  1  0
 10 24  1  0
 10 25  1  0
 12 26  1  0
 13 27  1  0
 13 28  1  0
 14 29  1  0
 14 30  1  0
 14 31  1  0
 16 32  1  0
 16 33  1  0
 17 34  1  0
 17 35  1  0
M  CHG  1  17   1
M  END
>  <filename_input>  (15) 
7TS6_KMI_docked.sdf

>  <pdb_id>  (15) 
7TS6_KMI

>  <pose_rank>  (15) 
14

>  <num_atoms_heavy>  (15) 
17

>  <num_torsions>  (15) 
3

>  <pose>  (15) 
[-19.931795989872736, -1.8028227037464541, -6.859205873322627, 1.6361099925924232, 5.273619564421791, 2.103971029064128, -5.0780255233534435, -4.988714844554266, -0.9387338364125873]

>  <energy>  (15) 
-385.3131822102613

>  <inter_energy>  (15) 
-348.9428978907546

>  <intra_energy>  (15) 
0.0

>  <rmsd>  (15) 
3.87188

>  <sdf_rank>  (15) 
0

$$$$

     RDKit          3D

 35 36  0  0  0  0  0  0  0  0999 V2000
  -20.6720   -3.7559   -4.9964 C   0  0  0  0  0  0  0  0  0  0  0  0
  -19.3646   -1.9469   -5.9019 C   0  0  0  0  0  0  0  0  0  0  0  0
  -20.6073   -2.5176   -5.6212 C   0  0  0  0  0  0  0  0  0  0  0  0
  -19.4863   -4.4044   -4.6592 C   0  0  0  0  0  0  0  0  0  0  0  0
  -18.6964    1.6243   -6.5761 C   0  0  0  0  0  0  0  0  0  0  0  0
  -19.3495    1.8385   -7.7985 C   0  0  0  0  0  0  0  0  0  0  0  0
  -20.0358    0.7773   -8.3657 C   0  0  0  0  0  0  0  0  0  0  0  0
  -20.0315   -0.4471   -7.7188 C   0  0  0  0  0  0  0  0  0  0  0  0
  -19.3845   -0.5954   -6.5016 C   0  0  0  0  0  0  0  0  0  0  0  0
  -20.7768    0.9102   -9.6639 C   0  0  0  0  0  0  0  0  0  0  0  0
  -18.2472   -3.8222   -4.9253 C   0  0  0  0  0  0  0  0  0  0  0  0
  -18.1796   -2.5817   -5.5522 C   0  0  0  0  0  0  0  0  0  0  0  0
  -16.9729   -4.5465   -4.5586 C   0  0  0  0  0  0  0  0  0  0  0  0
  -15.5403   -2.6776   -5.0800 C   0  0  0  0  0  0  0  0  0  0  0  0
  -18.7062    0.4188   -5.9709 N   0  0  0  0  0  0  0  0  0  0  0  0
  -18.0104    2.6134   -5.9638 N   0  0  0  0  0  0  0  0  0  0  0  0
  -15.8559   -4.0810   -5.3979 N   0  0  0  0  0  0  0  0  0  0  0  0
  -21.6446   -4.2177   -4.7712 H   0  0  0  0  0  0  0  0  0  0  0  0
  -21.5321   -1.9881   -5.8939 H   0  0  0  0  0  0  0  0  0  0  0  0
  -19.5278   -5.3914   -4.1753 H   0  0  0  0  0  0  0  0  0  0  0  0
  -19.3177    2.8207   -8.2926 H   0  0  0  0  0  0  0  0  0  0  0  0
  -20.5447   -1.3074   -8.1735 H   0  0  0  0  0  0  0  0  0  0  0  0
  -21.8409    1.1011   -9.4608 H   0  0  0  0  0  0  0  0  0  0  0  0
  -20.3578    1.7476  -10.2412 H   0  0  0  0  0  0  0  0  0  0  0  0
  -20.6749   -0.0205  -10.2412 H   0  0  0  0  0  0  0  0  0  0  0  0
  -17.2076   -2.1134   -5.7665 H   0  0  0  0  0  0  0  0  0  0  0  0
  -16.7372   -4.3523   -3.5019 H   0  0  0  0  0  0  0  0  0  0  0  0
  -17.1164   -5.6246   -4.7230 H   0  0  0  0  0  0  0  0  0  0  0  0
  -15.5109   -2.5467   -3.9883 H   0  0  0  0  0  0  0  0  0  0  0  0
  -14.5610   -2.4162   -5.5072 H   0  0  0  0  0  0  0  0  0  0  0  0
  -16.3135   -2.0221   -5.5072 H   0  0  0  0  0  0  0  0  0  0  0  0
  -17.5383    2.4335   -5.0663 H   0  0  0  0  0  0  0  0  0  0  0  0
  -17.9592    3.5477   -6.3945 H   0  0  0  0  0  0  0  0  0  0  0  0
  -15.0274   -4.6662   -5.2190 H   0  0  0  0  0  0  0  0  0  0  0  0
  -16.1248   -4.1517   -6.3897 H   0  0  0  0  0  0  0  0  0  0  0  0
  1  3  2  0
  1  4  1  0
  2  3  1  0
  2  9  1  0
  2 12  2  0
  4 11  2  0
  5  6  2  0
  5 15  1  0
  5 16  1  0
  6  7  1  0
  7  8  2  0
  7 10  1  0
  8  9  1  0
  9 15  2  0
 11 12  1  0
 11 13  1  0
 13 17  1  0
 14 17  1  0
  1 18  1  0
  3 19  1  0
  4 20  1  0
  6 21  1  0
  8 22  1  0
 10 23  1  0
 10 24  1  0
 10 25  1  0
 12 26  1  0
 13 27  1  0
 13 28  1  0
 14 29  1  0
 14 30  1  0
 14 31  1  0
 16 32  1  0
 16 33  1  0
 17 34  1  0
 17 35  1  0
M  CHG  1  17   1
M  END
>  <filename_input>  (16) 
7TS6_KMI_docked.sdf

>  <pdb_id>  (16) 
7TS6_KMI

>  <pose_rank>  (16) 
15

>  <num_atoms_heavy>  (16) 
17

>  <num_torsions>  (16) 
3

>  <pose>  (16) 
[-20.671952821929473, -3.7558882828386495, -4.996416069763169, -0.749215004339401, 0.16721412677854405, 1.1098843718394822, 3.163340322726253, 1.7942484867585615, -2.952221414844193]

>  <energy>  (16) 
-284.39654582043937

>  <inter_energy>  (16) 
-319.20850697413607

>  <intra_energy>  (16) 
37.43688819601751

>  <rmsd>  (16) 
6.65511

>  <sdf_rank>  (16) 
0

$$$$

     RDKit          3D

 35 36  0  0  0  0  0  0  0  0999 V2000
  -20.3241   -0.6196   -6.6478 C   0  0  0  0  0  0  0  0  0  0  0  0
  -18.3001   -1.2627   -5.5115 C   0  0  0  0  0  0  0  0  0  0  0  0
  -19.1987   -0.2725   -5.9124 C   0  0  0  0  0  0  0  0  0  0  0  0
  -20.5338   -1.9586   -6.9692 C   0  0  0  0  0  0  0  0  0  0  0  0
  -16.2854    0.4007   -2.8983 C   0  0  0  0  0  0  0  0  0  0  0  0
  -15.0242   -0.1929   -3.0517 C   0  0  0  0  0  0  0  0  0  0  0  0
  -14.8623   -1.1285   -4.0603 C   0  0  0  0  0  0  0  0  0  0  0  0
  -15.9486   -1.4525   -4.8557 C   0  0  0  0  0  0  0  0  0  0  0  0
  -17.1677   -0.8186   -4.6705 C   0  0  0  0  0  0  0  0  0  0  0  0
  -13.5487   -1.8088   -4.3129 C   0  0  0  0  0  0  0  0  0  0  0  0
  -19.6427   -2.9467   -6.5510 C   0  0  0  0  0  0  0  0  0  0  0  0
  -18.5135   -2.6013   -5.8148 C   0  0  0  0  0  0  0  0  0  0  0  0
  -19.8845   -4.3924   -6.9176 C   0  0  0  0  0  0  0  0  0  0  0  0
  -18.8901   -6.4180   -7.7688 C   0  0  0  0  0  0  0  0  0  0  0  0
  -17.3268    0.0620   -3.6860 N   0  0  0  0  0  0  0  0  0  0  0  0
  -16.5155    1.3223   -1.9384 N   0  0  0  0  0  0  0  0  0  0  0  0
  -18.6689   -4.9869   -7.4986 N   0  0  0  0  0  0  0  0  0  0  0  0
  -21.0392    0.1510   -6.9716 H   0  0  0  0  0  0  0  0  0  0  0  0
  -19.0159    0.7791   -5.6466 H   0  0  0  0  0  0  0  0  0  0  0  0
  -21.4161   -2.2412   -7.5622 H   0  0  0  0  0  0  0  0  0  0  0  0
  -14.1876    0.0766   -2.3903 H   0  0  0  0  0  0  0  0  0  0  0  0
  -15.8437   -2.2174   -5.6393 H   0  0  0  0  0  0  0  0  0  0  0  0
  -13.0728   -2.0553   -3.3523 H   0  0  0  0  0  0  0  0  0  0  0  0
  -13.7183   -2.7325   -4.8858 H   0  0  0  0  0  0  0  0  0  0  0  0
  -12.8922   -1.1374   -4.8858 H   0  0  0  0  0  0  0  0  0  0  0  0
  -17.8045   -3.3727   -5.4798 H   0  0  0  0  0  0  0  0  0  0  0  0
  -20.1654   -4.9530   -6.0138 H   0  0  0  0  0  0  0  0  0  0  0  0
  -20.6944   -4.4406   -7.6604 H   0  0  0  0  0  0  0  0  0  0  0  0
  -18.9742   -6.9622   -6.8166 H   0  0  0  0  0  0  0  0  0  0  0  0
  -19.8182   -6.5430   -8.3458 H   0  0  0  0  0  0  0  0  0  0  0  0
  -18.0430   -6.8174   -8.3458 H   0  0  0  0  0  0  0  0  0  0  0  0
  -17.4499    1.7453   -1.8439 H   0  0  0  0  0  0  0  0  0  0  0  0
  -15.7566    1.6023   -1.3007 H   0  0  0  0  0  0  0  0  0  0  0  0
  -18.4403   -4.5044   -8.3795 H   0  0  0  0  0  0  0  0  0  0  0  0
  -17.8898   -4.8842   -6.8328 H   0  0  0  0  0  0  0  0  0  0  0  0
  1  3  2  0
  1  4  1  0
  2  3  1  0
  2  9  1  0
  2 12  2  0
  4 11  2  0
  5  6  2  0
  5 15  1  0
  5 16  1  0
  6  7  1  0
  7  8  2  0
  7 10  1  0
  8  9  1  0
  9 15  2  0
 11 12  1  0
 11 13  1  0
 13 17  1  0
 14 17  1  0
  1 18  1  0
  3 19  1  0
  4 20  1  0
  6 21  1  0
  8 22  1  0
 10 23  1  0
 10 24  1  0
 10 25  1  0
 12 26  1  0
 13 27  1  0
 13 28  1  0
 14 29  1  0
 14 30  1  0
 14 31  1  0
 16 32  1  0
 16 33  1  0
 17 34  1  0
 17 35  1  0
M  CHG  1  17   1
M  END
>  <filename_input>  (17) 
7TS6_KMI_docked.sdf

>  <pdb_id>  (17) 
7TS6_KMI

>  <pose_rank>  (17) 
16

>  <num_atoms_heavy>  (17) 
17

>  <num_torsions>  (17) 
3

>  <pose>  (17) 
[-20.32411551163734, -0.6196120910427815, -6.647799413960883, 1.56110255595725, 5.050192953696049, 2.3982468186273165, -4.596478369950106, -4.941506002631754, -1.0465849744307705]

>  <energy>  (17) 
-372.2070376731624

>  <inter_energy>  (17) 
-344.1612124229793

>  <intra_energy>  (17) 
0.0

>  <rmsd>  (17) 
3.92835

>  <sdf_rank>  (17) 
0

$$$$

     RDKit          3D

 35 36  0  0  0  0  0  0  0  0999 V2000
  -22.6768   -1.8331   -7.8171 C   0  0  0  0  0  0  0  0  0  0  0  0
  -20.8410   -2.7061   -6.5251 C   0  0  0  0  0  0  0  0  0  0  0  0
  -21.3616   -1.7355   -7.3828 C   0  0  0  0  0  0  0  0  0  0  0  0
  -23.4535   -2.9043   -7.3819 C   0  0  0  0  0  0  0  0  0  0  0  0
  -17.7672   -1.1295   -5.2135 C   0  0  0  0  0  0  0  0  0  0  0  0
  -16.9134   -2.2249   -5.0189 C   0  0  0  0  0  0  0  0  0  0  0  0
  -17.3784   -3.4833   -5.3639 C   0  0  0  0  0  0  0  0  0  0  0  0
  -18.6640   -3.6101   -5.8629 C   0  0  0  0  0  0  0  0  0  0  0  0
  -19.4569   -2.4887   -6.0523 C   0  0  0  0  0  0  0  0  0  0  0  0
  -16.5359   -4.7151   -5.2059 C   0  0  0  0  0  0  0  0  0  0  0  0
  -22.9347   -3.8618   -6.5106 C   0  0  0  0  0  0  0  0  0  0  0  0
  -21.6166   -3.7668   -6.0747 C   0  0  0  0  0  0  0  0  0  0  0  0
  -23.7919   -5.0205   -6.0572 C   0  0  0  0  0  0  0  0  0  0  0  0
  -23.5892   -7.2138   -5.0749 C   0  0  0  0  0  0  0  0  0  0  0  0
  -19.0166   -1.2842   -5.6979 N   0  0  0  0  0  0  0  0  0  0  0  0
  -17.3802    0.1263   -4.9022 N   0  0  0  0  0  0  0  0  0  0  0  0
  -23.0073   -6.2667   -6.0415 N   0  0  0  0  0  0  0  0  0  0  0  0
  -23.0988   -1.0762   -8.4946 H   0  0  0  0  0  0  0  0  0  0  0  0
  -20.7321   -0.8962   -7.7133 H   0  0  0  0  0  0  0  0  0  0  0  0
  -24.4926   -2.9965   -7.7309 H   0  0  0  0  0  0  0  0  0  0  0  0
  -15.9037   -2.0888   -4.6042 H   0  0  0  0  0  0  0  0  0  0  0  0
  -19.0585   -4.6066   -6.1105 H   0  0  0  0  0  0  0  0  0  0  0  0
  -16.3918   -4.9260   -4.1359 H   0  0  0  0  0  0  0  0  0  0  0  0
  -17.0406   -5.5682   -5.6829 H   0  0  0  0  0  0  0  0  0  0  0  0
  -15.5579   -4.5542   -5.6829 H   0  0  0  0  0  0  0  0  0  0  0  0
  -21.1975   -4.5164   -5.3873 H   0  0  0  0  0  0  0  0  0  0  0  0
  -24.1690   -4.8172   -5.0441 H   0  0  0  0  0  0  0  0  0  0  0  0
  -24.6318   -5.1374   -6.7578 H   0  0  0  0  0  0  0  0  0  0  0  0
  -23.3778   -6.8697   -4.0517 H   0  0  0  0  0  0  0  0  0  0  0  0
  -24.6775   -7.2693   -5.2256 H   0  0  0  0  0  0  0  0  0  0  0  0
  -23.1470   -8.2096   -5.2256 H   0  0  0  0  0  0  0  0  0  0  0  0
  -18.0239    0.9160   -5.0535 H   0  0  0  0  0  0  0  0  0  0  0  0
  -16.4413    0.2944   -4.5134 H   0  0  0  0  0  0  0  0  0  0  0  0
  -23.0174   -6.6884   -6.9812 H   0  0  0  0  0  0  0  0  0  0  0  0
  -22.0381   -6.0535   -5.7657 H   0  0  0  0  0  0  0  0  0  0  0  0
  1  3  2  0
  1  4  1  0
  2  3  1  0
  2  9  1  0
  2 12  2  0
  4 11  2  0
  5  6  2  0
  5 15  1  0
  5 16  1  0
  6  7  1  0
  7  8  2  0
  7 10  1  0
  8  9  1  0
  9 15  2  0
 11 12  1  0
 11 13  1  0
 13 17  1  0
 14 17  1  0
  1 18  1  0
  3 19  1  0
  4 20  1  0
  6 21  1  0
  8 22  1  0
 10 23  1  0
 10 24  1  0
 10 25  1  0
 12 26  1  0
 13 27  1  0
 13 28  1  0
 14 29  1  0
 14 30  1  0
 14 31  1  0
 16 32  1  0
 16 33  1  0
 17 34  1  0
 17 35  1  0
M  CHG  1  17   1
M  END
>  <filename_input>  (18) 
7TS6_KMI_docked.sdf

>  <pdb_id>  (18) 
7TS6_KMI

>  <pose_rank>  (18) 
17

>  <num_atoms_heavy>  (18) 
17

>  <num_torsions>  (18) 
3

>  <pose>  (18) 
[-22.676786790515536, -1.8331299106306784, -7.817133892686666, -0.7719551536189211, -0.2909579261553399, -0.5188838393594957, 26.802647631906357, -17.35097497109969, -1.426869310973595]

>  <energy>  (18) 
-270.93163737830145

>  <inter_energy>  (18) 
-268.4411348356836

>  <intra_energy>  (18) 
0.0

>  <rmsd>  (18) 
6.84833

>  <sdf_rank>  (18) 
0

$$$$

     RDKit          3D

 35 36  0  0  0  0  0  0  0  0999 V2000
  -18.2512    1.2873   -5.3890 C   0  0  0  0  0  0  0  0  0  0  0  0
  -18.3765   -1.0913   -5.7462 C   0  0  0  0  0  0  0  0  0  0  0  0
  -18.9088    0.1871   -5.9227 C   0  0  0  0  0  0  0  0  0  0  0  0
  -17.0649    1.0893   -4.6865 C   0  0  0  0  0  0  0  0  0  0  0  0
  -19.8733   -4.3905   -6.4742 C   0  0  0  0  0  0  0  0  0  0  0  0
  -20.6196   -4.1449   -7.6358 C   0  0  0  0  0  0  0  0  0  0  0  0
  -20.5822   -2.8706   -8.1775 C   0  0  0  0  0  0  0  0  0  0  0  0
  -19.8329   -1.8937   -7.5436 C   0  0  0  0  0  0  0  0  0  0  0  0
  -19.0989   -2.1992   -6.4077 C   0  0  0  0  0  0  0  0  0  0  0  0
  -21.3353   -2.5127   -9.4253 C   0  0  0  0  0  0  0  0  0  0  0  0
  -16.5273   -0.1879   -4.5283 C   0  0  0  0  0  0  0  0  0  0  0  0
  -17.1849   -1.2924   -5.0612 C   0  0  0  0  0  0  0  0  0  0  0  0
  -15.2435   -0.3816   -3.7555 C   0  0  0  0  0  0  0  0  0  0  0  0
  -13.0892    0.5993   -3.2933 C   0  0  0  0  0  0  0  0  0  0  0  0
  -19.1555   -3.4175   -5.8761 N   0  0  0  0  0  0  0  0  0  0  0  0
  -19.8604   -5.6092   -5.8924 N   0  0  0  0  0  0  0  0  0  0  0  0
  -14.4753    0.8740   -3.7095 N   0  0  0  0  0  0  0  0  0  0  0  0
  -18.6608    2.2999   -5.5191 H   0  0  0  0  0  0  0  0  0  0  0  0
  -19.8459    0.3223   -6.4825 H   0  0  0  0  0  0  0  0  0  0  0  0
  -16.5437    1.9538   -4.2496 H   0  0  0  0  0  0  0  0  0  0  0  0
  -21.2173   -4.9413   -8.1034 H   0  0  0  0  0  0  0  0  0  0  0  0
  -19.8198   -0.8691   -7.9437 H   0  0  0  0  0  0  0  0  0  0  0  0
  -22.2981   -2.0551   -9.1539 H   0  0  0  0  0  0  0  0  0  0  0  0
  -20.7444   -1.7991  -10.0183 H   0  0  0  0  0  0  0  0  0  0  0  0
  -21.5155   -3.4215  -10.0183 H   0  0  0  0  0  0  0  0  0  0  0  0
  -16.7696   -2.3040   -4.9425 H   0  0  0  0  0  0  0  0  0  0  0  0
  -15.4828   -0.6974   -2.7293 H   0  0  0  0  0  0  0  0  0  0  0  0
  -14.6384   -1.1509   -4.2574 H   0  0  0  0  0  0  0  0  0  0  0  0
  -13.0317    0.5879   -2.1948 H   0  0  0  0  0  0  0  0  0  0  0  0
  -12.7751   -0.3786   -3.6871 H   0  0  0  0  0  0  0  0  0  0  0  0
  -12.4259    1.3835   -3.6871 H   0  0  0  0  0  0  0  0  0  0  0  0
  -19.3050   -5.7669   -5.0395 H   0  0  0  0  0  0  0  0  0  0  0  0
  -20.4060   -6.3810   -6.3018 H   0  0  0  0  0  0  0  0  0  0  0  0
  -14.4718    1.3065   -4.6443 H   0  0  0  0  0  0  0  0  0  0  0  0
  -14.9124    1.5142   -3.0312 H   0  0  0  0  0  0  0  0  0  0  0  0
  1  3  2  0
  1  4  1  0
  2  3  1  0
  2  9  1  0
  2 12  2  0
  4 11  2  0
  5  6  2  0
  5 15  1  0
  5 16  1  0
  6  7  1  0
  7  8  2  0
  7 10  1  0
  8  9  1  0
  9 15  2  0
 11 12  1  0
 11 13  1  0
 13 17  1  0
 14 17  1  0
  1 18  1  0
  3 19  1  0
  4 20  1  0
  6 21  1  0
  8 22  1  0
 10 23  1  0
 10 24  1  0
 10 25  1  0
 12 26  1  0
 13 27  1  0
 13 28  1  0
 14 29  1  0
 14 30  1  0
 14 31  1  0
 16 32  1  0
 16 33  1  0
 17 34  1  0
 17 35  1  0
M  CHG  1  17   1
M  END
>  <filename_input>  (19) 
7TS6_KMI_docked.sdf

>  <pdb_id>  (19) 
7TS6_KMI

>  <pose_rank>  (19) 
18

>  <num_atoms_heavy>  (19) 
17

>  <num_torsions>  (19) 
3

>  <pose>  (19) 
[-18.251173246901374, 1.2873417257473774, -5.389046620556283, 2.1371262273521507, -2.5960677675530857, 0.14482975439224832, -1.6083444268268412, -1.3045588467217313, -0.7111153148751765]

>  <energy>  (19) 
-373.03298501451775

>  <inter_energy>  (19) 
-355.0651147037607

>  <intra_energy>  (19) 
0.0

>  <rmsd>  (19) 
7.8141

>  <sdf_rank>  (19) 
0

$$$$

     RDKit          3D

 35 36  0  0  0  0  0  0  0  0999 V2000
  -20.9288   -3.0926   -5.1671 C   0  0  0  0  0  0  0  0  0  0  0  0
  -18.5467   -3.0987   -4.8109 C   0  0  0  0  0  0  0  0  0  0  0  0
  -19.7220   -2.4082   -5.1119 C   0  0  0  0  0  0  0  0  0  0  0  0
  -20.9397   -4.4627   -4.9165 C   0  0  0  0  0  0  0  0  0  0  0  0
  -15.0118   -2.0224   -4.8438 C   0  0  0  0  0  0  0  0  0  0  0  0
  -15.1055   -0.6377   -4.6431 C   0  0  0  0  0  0  0  0  0  0  0  0
  -16.3648   -0.0881   -4.4676 C   0  0  0  0  0  0  0  0  0  0  0  0
  -17.4722   -0.9181   -4.5181 C   0  0  0  0  0  0  0  0  0  0  0  0
  -17.3177   -2.2838   -4.7003 C   0  0  0  0  0  0  0  0  0  0  0  0
  -16.5679    1.3802   -4.2329 C   0  0  0  0  0  0  0  0  0  0  0  0
  -19.7658   -5.1451   -4.5983 C   0  0  0  0  0  0  0  0  0  0  0  0
  -18.5549   -4.4618   -4.5434 C   0  0  0  0  0  0  0  0  0  0  0  0
  -19.7986   -6.6331   -4.3381 C   0  0  0  0  0  0  0  0  0  0  0  0
  -19.5180   -8.8259   -5.3022 C   0  0  0  0  0  0  0  0  0  0  0  0
  -16.1090   -2.8057   -4.8923 N   0  0  0  0  0  0  0  0  0  0  0  0
  -13.8171   -2.6272   -5.0194 N   0  0  0  0  0  0  0  0  0  0  0  0
  -19.4339   -7.3772   -5.5555 N   0  0  0  0  0  0  0  0  0  0  0  0
  -21.8619   -2.5609   -5.4051 H   0  0  0  0  0  0  0  0  0  0  0  0
  -19.6921   -1.3257   -5.3047 H   0  0  0  0  0  0  0  0  0  0  0  0
  -21.8894   -5.0153   -4.9704 H   0  0  0  0  0  0  0  0  0  0  0  0
  -14.2050   -0.0062   -4.6255 H   0  0  0  0  0  0  0  0  0  0  0  0
  -18.4806   -0.4913   -4.4131 H   0  0  0  0  0  0  0  0  0  0  0  0
  -16.5953    1.5783   -3.1513 H   0  0  0  0  0  0  0  0  0  0  0  0
  -15.7390    1.9423   -4.6878 H   0  0  0  0  0  0  0  0  0  0  0  0
  -17.5183    1.6962   -4.6878 H   0  0  0  0  0  0  0  0  0  0  0  0
  -17.6231   -4.9902   -4.2932 H   0  0  0  0  0  0  0  0  0  0  0  0
  -19.0846   -6.8765   -3.5375 H   0  0  0  0  0  0  0  0  0  0  0  0
  -20.8172   -6.9195   -4.0375 H   0  0  0  0  0  0  0  0  0  0  0  0
  -19.5286   -9.0085   -4.2175 H   0  0  0  0  0  0  0  0  0  0  0  0
  -20.4408   -9.2235   -5.7499 H   0  0  0  0  0  0  0  0  0  0  0  0
  -18.6475   -9.3276   -5.7499 H   0  0  0  0  0  0  0  0  0  0  0  0
  -13.7720   -3.6458   -5.1653 H   0  0  0  0  0  0  0  0  0  0  0  0
  -12.9510   -2.0698   -5.0074 H   0  0  0  0  0  0  0  0  0  0  0  0
  -20.0810   -7.1255   -6.3163 H   0  0  0  0  0  0  0  0  0  0  0  0
  -18.4694   -7.1356   -5.8243 H   0  0  0  0  0  0  0  0  0  0  0  0
  1  3  2  0
  1  4  1  0
  2  3  1  0
  2  9  1  0
  2 12  2  0
  4 11  2  0
  5  6  2  0
  5 15  1  0
  5 16  1  0
  6  7  1  0
  7  8  2  0
  7 10  1  0
  8  9  1  0
  9 15  2  0
 11 12  1  0
 11 13  1  0
 13 17  1  0
 14 17  1  0
  1 18  1  0
  3 19  1  0
  4 20  1  0
  6 21  1  0
  8 22  1  0
 10 23  1  0
 10 24  1  0
 10 25  1  0
 12 26  1  0
 13 27  1  0
 13 28  1  0
 14 29  1  0
 14 30  1  0
 14 31  1  0
 16 32  1  0
 16 33  1  0
 17 34  1  0
 17 35  1  0
M  CHG  1  17   1
M  END
>  <filename_input>  (20) 
7TS6_KMI_docked.sdf

>  <pdb_id>  (20) 
7TS6_KMI

>  <pose_rank>  (20) 
19

>  <num_atoms_heavy>  (20) 
17

>  <num_torsions>  (20) 
3

>  <pose>  (20) 
[-20.92877520361073, -3.092589803257357, -5.167129335390428, 5.695285953641862, 0.6764146470608972, -0.7045218519534112, 4.524269516701762, 0.7584884975979509, -0.9453506646124479]

>  <energy>  (20) 
-311.50914867015877

>  <inter_energy>  (20) 
-281.3017300422567

>  <intra_energy>  (20) 
0.0

>  <rmsd>  (20) 
4.80484

>  <sdf_rank>  (20) 
0

$$$$

     RDKit          3D

 35 36  0  0  0  0  0  0  0  0999 V2000
  -18.2885   -0.1233   -7.2595 C   0  0  0  0  0  0  0  0  0  0  0  0
  -19.6032   -2.1399   -7.1805 C   0  0  0  0  0  0  0  0  0  0  0  0
  -19.3731   -0.8669   -7.7051 C   0  0  0  0  0  0  0  0  0  0  0  0
  -17.4468   -0.6697   -6.2935 C   0  0  0  0  0  0  0  0  0  0  0  0
  -23.0103   -3.3009   -8.0165 C   0  0  0  0  0  0  0  0  0  0  0  0
  -22.7796   -4.2375   -9.0345 C   0  0  0  0  0  0  0  0  0  0  0  0
  -21.4686   -4.4881   -9.4051 C   0  0  0  0  0  0  0  0  0  0  0  0
  -20.4490   -3.7941   -8.7754 C   0  0  0  0  0  0  0  0  0  0  0  0
  -20.7355   -2.8933   -7.7611 C   0  0  0  0  0  0  0  0  0  0  0  0
  -21.1186   -5.4818  -10.4738 C   0  0  0  0  0  0  0  0  0  0  0  0
  -17.6702   -1.9492   -5.7854 C   0  0  0  0  0  0  0  0  0  0  0  0
  -18.7571   -2.6961   -6.2296 C   0  0  0  0  0  0  0  0  0  0  0  0
  -16.7497   -2.5198   -4.7319 C   0  0  0  0  0  0  0  0  0  0  0  0
  -14.4090   -2.1932   -4.2515 C   0  0  0  0  0  0  0  0  0  0  0  0
  -21.9967   -2.6370   -7.4237 N   0  0  0  0  0  0  0  0  0  0  0  0
  -24.2618   -3.0084   -7.6021 N   0  0  0  0  0  0  0  0  0  0  0  0
  -15.7221   -1.5339   -4.3568 N   0  0  0  0  0  0  0  0  0  0  0  0
  -18.0969    0.8818   -7.6632 H   0  0  0  0  0  0  0  0  0  0  0  0
  -20.0487   -0.4543   -8.4689 H   0  0  0  0  0  0  0  0  0  0  0  0
  -16.5924   -0.0828   -5.9255 H   0  0  0  0  0  0  0  0  0  0  0  0
  -23.6156   -4.7580   -9.5246 H   0  0  0  0  0  0  0  0  0  0  0  0
  -19.4054   -3.9587   -9.0817 H   0  0  0  0  0  0  0  0  0  0  0  0
  -20.7877   -6.4212  -10.0069 H   0  0  0  0  0  0  0  0  0  0  0  0
  -22.0029   -5.6747  -11.0990 H   0  0  0  0  0  0  0  0  0  0  0  0
  -20.3086   -5.0779  -11.0990 H   0  0  0  0  0  0  0  0  0  0  0  0
  -18.9424   -3.7063   -5.8357 H   0  0  0  0  0  0  0  0  0  0  0  0
  -17.3388   -2.7853   -3.8417 H   0  0  0  0  0  0  0  0  0  0  0  0
  -16.2540   -3.4136   -5.1386 H   0  0  0  0  0  0  0  0  0  0  0  0
  -14.1484   -2.3240   -3.1908 H   0  0  0  0  0  0  0  0  0  0  0  0
  -14.4520   -3.1766   -4.7425 H   0  0  0  0  0  0  0  0  0  0  0  0
  -13.6460   -1.5712   -4.7425 H   0  0  0  0  0  0  0  0  0  0  0  0
  -24.4077   -2.3170   -6.8526 H   0  0  0  0  0  0  0  0  0  0  0  0
  -25.0705   -3.4765   -8.0354 H   0  0  0  0  0  0  0  0  0  0  0  0
  -15.6776   -0.7970   -5.0751 H   0  0  0  0  0  0  0  0  0  0  0  0
  -15.9669   -1.1187   -3.4465 H   0  0  0  0  0  0  0  0  0  0  0  0
  1  3  2  0
  1  4  1  0
  2  3  1  0
  2  9  1  0
  2 12  2  0
  4 11  2  0
  5  6  2  0
  5 15  1  0
  5 16  1  0
  6  7  1  0
  7  8  2  0
  7 10  1  0
  8  9  1  0
  9 15  2  0
 11 12  1  0
 11 13  1  0
 13 17  1  0
 14 17  1  0
  1 18  1  0
  3 19  1  0
  4 20  1  0
  6 21  1  0
  8 22  1  0
 10 23  1  0
 10 24  1  0
 10 25  1  0
 12 26  1  0
 13 27  1  0
 13 28  1  0
 14 29  1  0
 14 30  1  0
 14 31  1  0
 16 32  1  0
 16 33  1  0
 17 34  1  0
 17 35  1  0
M  CHG  1  17   1
M  END
>  <filename_input>  (21) 
7TS6_KMI_docked.sdf

>  <pdb_id>  (21) 
7TS6_KMI

>  <pose_rank>  (21) 
20

>  <num_atoms_heavy>  (21) 
17

>  <num_torsions>  (21) 
3

>  <pose>  (21) 
[-18.288505060316254, -0.12334793373736352, -7.259500782557234, 1.3591420568424075, -2.925658328954248, 0.7056210251111181, -0.40327927859325563, -0.8871438731779268, -0.2287936496852409]

>  <energy>  (21) 
-279.93409185504515

>  <inter_energy>  (21) 
-257.1132951552874

>  <intra_energy>  (21) 
0.0

>  <rmsd>  (21) 
8.96672

>  <sdf_rank>  (21) 
0

$$$$

     RDKit          3D

 35 36  0  0  0  0  0  0  0  0999 V2000
  -22.7430   -1.9838   -9.0349 C   0  0  0  0  0  0  0  0  0  0  0  0
  -20.7649   -2.3188   -7.7020 C   0  0  0  0  0  0  0  0  0  0  0  0
  -22.1318   -2.5148   -7.9069 C   0  0  0  0  0  0  0  0  0  0  0  0
  -21.9719   -1.2641   -9.9446 C   0  0  0  0  0  0  0  0  0  0  0  0
  -20.2512   -4.5374   -4.7919 C   0  0  0  0  0  0  0  0  0  0  0  0
  -18.9247   -4.2684   -4.4249 C   0  0  0  0  0  0  0  0  0  0  0  0
  -18.2286   -3.3146   -5.1490 C   0  0  0  0  0  0  0  0  0  0  0  0
  -18.8584   -2.6860   -6.2102 C   0  0  0  0  0  0  0  0  0  0  0  0
  -20.1788   -2.9784   -6.5153 C   0  0  0  0  0  0  0  0  0  0  0  0
  -16.8101   -2.9468   -4.8254 C   0  0  0  0  0  0  0  0  0  0  0  0
  -20.6031   -1.0863   -9.7449 C   0  0  0  0  0  0  0  0  0  0  0  0
  -19.9883   -1.6166   -8.6148 C   0  0  0  0  0  0  0  0  0  0  0  0
  -19.7865   -0.2952  -10.7401 C   0  0  0  0  0  0  0  0  0  0  0  0
  -18.0974    1.4139  -10.9462 C   0  0  0  0  0  0  0  0  0  0  0  0
  -20.8374   -3.9119   -5.8334 N   0  0  0  0  0  0  0  0  0  0  0  0
  -20.9912   -5.4526   -4.1295 N   0  0  0  0  0  0  0  0  0  0  0  0
  -19.1593    0.8652  -10.0852 N   0  0  0  0  0  0  0  0  0  0  0  0
  -23.8196   -2.1292   -9.2074 H   0  0  0  0  0  0  0  0  0  0  0  0
  -22.7227   -3.0880   -7.1772 H   0  0  0  0  0  0  0  0  0  0  0  0
  -22.4501   -0.8292  -10.8346 H   0  0  0  0  0  0  0  0  0  0  0  0
  -18.4508   -4.7994   -3.5862 H   0  0  0  0  0  0  0  0  0  0  0  0
  -18.3077   -1.9503   -6.8146 H   0  0  0  0  0  0  0  0  0  0  0  0
  -16.6800   -2.9131   -3.7336 H   0  0  0  0  0  0  0  0  0  0  0  0
  -16.1299   -3.6983   -5.2526 H   0  0  0  0  0  0  0  0  0  0  0  0
  -16.5806   -1.9595   -5.2526 H   0  0  0  0  0  0  0  0  0  0  0  0
  -18.9094   -1.4824   -8.4477 H   0  0  0  0  0  0  0  0  0  0  0  0
  -19.0020   -0.9417  -11.1601 H   0  0  0  0  0  0  0  0  0  0  0  0
  -20.4506    0.0636  -11.5402 H   0  0  0  0  0  0  0  0  0  0  0  0
  -17.2946    1.8288  -10.3190 H   0  0  0  0  0  0  0  0  0  0  0  0
  -17.6900    0.6135  -11.5813 H   0  0  0  0  0  0  0  0  0  0  0  0
  -18.5147    2.2093  -11.5813 H   0  0  0  0  0  0  0  0  0  0  0  0
  -21.9636   -5.6340   -4.4164 H   0  0  0  0  0  0  0  0  0  0  0  0
  -20.5831   -5.9691   -3.3373 H   0  0  0  0  0  0  0  0  0  0  0  0
  -19.8721    1.5897   -9.9183 H   0  0  0  0  0  0  0  0  0  0  0  0
  -18.7487    0.5674   -9.1887 H   0  0  0  0  0  0  0  0  0  0  0  0
  1  3  2  0
  1  4  1  0
  2  3  1  0
  2  9  1  0
  2 12  2  0
  4 11  2  0
  5  6  2  0
  5 15  1  0
  5 16  1  0
  6  7  1  0
  7  8  2  0
  7 10  1  0
  8  9  1  0
  9 15  2  0
 11 12  1  0
 11 13  1  0
 13 17  1  0
 14 17  1  0
  1 18  1  0
  3 19  1  0
  4 20  1  0
  6 21  1  0
  8 22  1  0
 10 23  1  0
 10 24  1  0
 10 25  1  0
 12 26  1  0
 13 27  1  0
 13 28  1  0
 14 29  1  0
 14 30  1  0
 14 31  1  0
 16 32  1  0
 16 33  1  0
 17 34  1  0
 17 35  1  0
M  CHG  1  17   1
M  END
>  <filename_input>  (22) 
7TS6_KMI_docked.sdf

>  <pdb_id>  (22) 
7TS6_KMI

>  <pose_rank>  (22) 
21

>  <num_atoms_heavy>  (22) 
17

>  <num_torsions>  (22) 
3

>  <pose>  (22) 
[-22.742968772181296, -1.9837884517003421, -9.034869623798736, -3.9203450991415716, 1.3732575632042048, -1.2852588723072569, 1.1833566245952185, 1.1712184129795924, -1.2450379773963693]

>  <energy>  (22) 
-252.20853865519422

>  <inter_energy>  (22) 
-244.39538013515605

>  <intra_energy>  (22) 
0.0

>  <rmsd>  (22) 
8.14657

>  <sdf_rank>  (22) 
0

$$$$

     RDKit          3D

 35 36  0  0  0  0  0  0  0  0999 V2000
  -17.5238    0.4211   -4.9795 C   0  0  0  0  0  0  0  0  0  0  0  0
  -17.3935   -1.9553   -4.6092 C   0  0  0  0  0  0  0  0  0  0  0  0
  -18.0750   -0.8462   -5.1134 C   0  0  0  0  0  0  0  0  0  0  0  0
  -16.2927    0.5578   -4.3425 C   0  0  0  0  0  0  0  0  0  0  0  0
  -19.2221   -5.1350   -4.1618 C   0  0  0  0  0  0  0  0  0  0  0  0
  -19.2908   -5.6417   -5.4676 C   0  0  0  0  0  0  0  0  0  0  0  0
  -18.6891   -4.9147   -6.4816 C   0  0  0  0  0  0  0  0  0  0  0  0
  -18.0676   -3.7168   -6.1706 C   0  0  0  0  0  0  0  0  0  0  0  0
  -18.0138   -3.2744   -4.8577 C   0  0  0  0  0  0  0  0  0  0  0  0
  -18.6967   -5.3798   -7.9084 C   0  0  0  0  0  0  0  0  0  0  0  0
  -15.6069   -0.5551   -3.8565 C   0  0  0  0  0  0  0  0  0  0  0  0
  -16.1576   -1.8262   -3.9884 C   0  0  0  0  0  0  0  0  0  0  0  0
  -14.2764   -0.3837   -3.1612 C   0  0  0  0  0  0  0  0  0  0  0  0
  -12.4076    1.1049   -2.8321 C   0  0  0  0  0  0  0  0  0  0  0  0
  -18.6131   -3.9626   -3.8895 N   0  0  0  0  0  0  0  0  0  0  0  0
  -19.7837   -5.7912   -3.1236 N   0  0  0  0  0  0  0  0  0  0  0  0
  -13.8064    1.0065   -3.2836 N   0  0  0  0  0  0  0  0  0  0  0  0
  -18.0513    1.3037   -5.3705 H   0  0  0  0  0  0  0  0  0  0  0  0
  -19.0454   -0.9758   -5.6150 H   0  0  0  0  0  0  0  0  0  0  0  0
  -15.8544    1.5594   -4.2208 H   0  0  0  0  0  0  0  0  0  0  0  0
  -19.8077   -6.5891   -5.6806 H   0  0  0  0  0  0  0  0  0  0  0  0
  -17.6140   -3.1126   -6.9700 H   0  0  0  0  0  0  0  0  0  0  0  0
  -18.7147   -6.4793   -7.9355 H   0  0  0  0  0  0  0  0  0  0  0  0
  -19.5885   -4.9858   -8.4177 H   0  0  0  0  0  0  0  0  0  0  0  0
  -17.7925   -5.0153   -8.4177 H   0  0  0  0  0  0  0  0  0  0  0  0
  -15.6250   -2.7107   -3.6089 H   0  0  0  0  0  0  0  0  0  0  0  0
  -14.3893   -0.6354   -2.0963 H   0  0  0  0  0  0  0  0  0  0  0  0
  -13.5400   -1.0513   -3.6324 H   0  0  0  0  0  0  0  0  0  0  0  0
  -12.3765    1.1070   -1.7325 H   0  0  0  0  0  0  0  0  0  0  0  0
  -11.8379    0.2445   -3.2133 H   0  0  0  0  0  0  0  0  0  0  0  0
  -11.9639    2.0364   -3.2133 H   0  0  0  0  0  0  0  0  0  0  0  0
  -19.7209   -5.4003   -2.1727 H   0  0  0  0  0  0  0  0  0  0  0  0
  -20.2748   -6.6825   -3.2827 H   0  0  0  0  0  0  0  0  0  0  0  0
  -13.8690    1.3027   -4.2681 H   0  0  0  0  0  0  0  0  0  0  0  0
  -14.3951    1.6161   -2.6982 H   0  0  0  0  0  0  0  0  0  0  0  0
  1  3  2  0
  1  4  1  0
  2  3  1  0
  2  9  1  0
  2 12  2  0
  4 11  2  0
  5  6  2  0
  5 15  1  0
  5 16  1  0
  6  7  1  0
  7  8  2  0
  7 10  1  0
  8  9  1  0
  9 15  2  0
 11 12  1  0
 11 13  1  0
 13 17  1  0
 14 17  1  0
  1 18  1  0
  3 19  1  0
  4 20  1  0
  6 21  1  0
  8 22  1  0
 10 23  1  0
 10 24  1  0
 10 25  1  0
 12 26  1  0
 13 27  1  0
 13 28  1  0
 14 29  1  0
 14 30  1  0
 14 31  1  0
 16 32  1  0
 16 33  1  0
 17 34  1  0
 17 35  1  0
M  CHG  1  17   1
M  END
>  <filename_input>  (23) 
7TS6_KMI_docked.sdf

>  <pdb_id>  (23) 
7TS6_KMI

>  <pose_rank>  (23) 
22

>  <num_atoms_heavy>  (23) 
17

>  <num_torsions>  (23) 
3

>  <pose>  (23) 
[-17.523830252594674, 0.4211373165458885, -4.979510951121437, 2.132240691120076, -2.2525538962778806, 0.4152901168126174, -0.9054322094396112, -1.0698027802396664, -0.7954075062022135]

>  <energy>  (23) 
-441.38669112497695

>  <inter_energy>  (23) 
-419.5729471269281

>  <intra_energy>  (23) 
0.0

>  <rmsd>  (23) 
7.21683

>  <sdf_rank>  (23) 
0

$$$$

     RDKit          3D

 35 36  0  0  0  0  0  0  0  0999 V2000
  -21.3029   -1.6233   -8.4509 C   0  0  0  0  0  0  0  0  0  0  0  0
  -19.4805   -1.2566   -6.9193 C   0  0  0  0  0  0  0  0  0  0  0  0
  -20.4880   -0.7504   -7.7424 C   0  0  0  0  0  0  0  0  0  0  0  0
  -21.0967   -2.9947   -8.3213 C   0  0  0  0  0  0  0  0  0  0  0  0
  -18.1175    1.9260   -5.6277 C   0  0  0  0  0  0  0  0  0  0  0  0
  -17.3547    1.5141   -4.5254 C   0  0  0  0  0  0  0  0  0  0  0  0
  -17.2856    0.1582   -4.2504 C   0  0  0  0  0  0  0  0  0  0  0  0
  -17.9836   -0.7262   -5.0556 C   0  0  0  0  0  0  0  0  0  0  0  0
  -18.7063   -0.2631   -6.1445 C   0  0  0  0  0  0  0  0  0  0  0  0
  -16.4850   -0.3822   -3.1019 C   0  0  0  0  0  0  0  0  0  0  0  0
  -20.1006   -3.4962   -7.4837 C   0  0  0  0  0  0  0  0  0  0  0  0
  -19.2819   -2.6236   -6.7734 C   0  0  0  0  0  0  0  0  0  0  0  0
  -19.8883   -4.9873   -7.3639 C   0  0  0  0  0  0  0  0  0  0  0  0
  -18.5910   -6.2552   -5.7745 C   0  0  0  0  0  0  0  0  0  0  0  0
  -18.7904    1.0414   -6.3922 N   0  0  0  0  0  0  0  0  0  0  0  0
  -18.2279    3.2311   -5.9569 N   0  0  0  0  0  0  0  0  0  0  0  0
  -18.5300   -5.2766   -6.8739 N   0  0  0  0  0  0  0  0  0  0  0  0
  -22.0992   -1.2376   -9.1045 H   0  0  0  0  0  0  0  0  0  0  0  0
  -20.6358    0.3361   -7.8294 H   0  0  0  0  0  0  0  0  0  0  0  0
  -21.7293   -3.6932   -8.8885 H   0  0  0  0  0  0  0  0  0  0  0  0
  -16.8266    2.2466   -3.8972 H   0  0  0  0  0  0  0  0  0  0  0  0
  -17.9646   -1.8026   -4.8300 H   0  0  0  0  0  0  0  0  0  0  0  0
  -16.9472   -0.0702   -2.1538 H   0  0  0  0  0  0  0  0  0  0  0  0
  -16.4629   -1.4807   -3.1551 H   0  0  0  0  0  0  0  0  0  0  0  0
  -15.4579    0.0082   -3.1551 H   0  0  0  0  0  0  0  0  0  0  0  0
  -18.4935   -3.0085   -6.1098 H   0  0  0  0  0  0  0  0  0  0  0  0
  -20.6236   -5.4023   -6.6589 H   0  0  0  0  0  0  0  0  0  0  0  0
  -20.0140   -5.4456   -8.3560 H   0  0  0  0  0  0  0  0  0  0  0  0
  -18.5580   -5.7263   -4.8106 H   0  0  0  0  0  0  0  0  0  0  0  0
  -19.5267   -6.8292   -5.8460 H   0  0  0  0  0  0  0  0  0  0  0  0
  -17.7339   -6.9409   -5.8460 H   0  0  0  0  0  0  0  0  0  0  0  0
  -18.7936    3.5108   -6.7710 H   0  0  0  0  0  0  0  0  0  0  0  0
  -17.7464    3.9467   -5.3940 H   0  0  0  0  0  0  0  0  0  0  0  0
  -17.9644   -5.6624   -7.6434 H   0  0  0  0  0  0  0  0  0  0  0  0
  -18.1014   -4.4058   -6.5292 H   0  0  0  0  0  0  0  0  0  0  0  0
  1  3  2  0
  1  4  1  0
  2  3  1  0
  2  9  1  0
  2 12  2  0
  4 11  2  0
  5  6  2  0
  5 15  1  0
  5 16  1  0
  6  7  1  0
  7  8  2  0
  7 10  1  0
  8  9  1  0
  9 15  2  0
 11 12  1  0
 11 13  1  0
 13 17  1  0
 14 17  1  0
  1 18  1  0
  3 19  1  0
  4 20  1  0
  6 21  1  0
  8 22  1  0
 10 23  1  0
 10 24  1  0
 10 25  1  0
 12 26  1  0
 13 27  1  0
 13 28  1  0
 14 29  1  0
 14 30  1  0
 14 31  1  0
 16 32  1  0
 16 33  1  0
 17 34  1  0
 17 35  1  0
M  CHG  1  17   1
M  END
>  <filename_input>  (24) 
7TS6_KMI_docked.sdf

>  <pdb_id>  (24) 
7TS6_KMI

>  <pose_rank>  (24) 
23

>  <num_atoms_heavy>  (24) 
17

>  <num_torsions>  (24) 
3

>  <pose>  (24) 
[-21.3029301588392, -1.6232642067986605, -8.450896263945108, -0.3709931738937405, -0.6375077860902203, 0.1462645730194921, 25.883778688422442, -17.008902817130675, -1.8187562191738893]

>  <energy>  (24) 
-298.34510546343176

>  <inter_energy>  (24) 
-297.9334047382661

>  <intra_energy>  (24) 
0.0

>  <rmsd>  (24) 
5.44656

>  <sdf_rank>  (24) 
0

$$$$

     RDKit          3D

 35 36  0  0  0  0  0  0  0  0999 V2000
  -22.6242   -2.6525   -8.5558 C   0  0  0  0  0  0  0  0  0  0  0  0
  -20.8700   -3.9779   -7.5720 C   0  0  0  0  0  0  0  0  0  0  0  0
  -21.4429   -2.7314   -7.8304 C   0  0  0  0  0  0  0  0  0  0  0  0
  -23.2167   -3.8283   -9.0105 C   0  0  0  0  0  0  0  0  0  0  0  0
  -17.9632   -2.8819   -5.5710 C   0  0  0  0  0  0  0  0  0  0  0  0
  -17.4954   -4.0823   -5.0171 C   0  0  0  0  0  0  0  0  0  0  0  0
  -18.1520   -5.2548   -5.3529 C   0  0  0  0  0  0  0  0  0  0  0  0
  -19.2473   -5.1921   -6.1980 C   0  0  0  0  0  0  0  0  0  0  0  0
  -19.6533   -3.9785   -6.7316 C   0  0  0  0  0  0  0  0  0  0  0  0
  -17.7192   -6.5904   -4.8229 C   0  0  0  0  0  0  0  0  0  0  0  0
  -22.6504   -5.0725   -8.7343 C   0  0  0  0  0  0  0  0  0  0  0  0
  -21.4660   -5.1542   -8.0085 C   0  0  0  0  0  0  0  0  0  0  0  0
  -23.3050   -6.3352   -9.2441 C   0  0  0  0  0  0  0  0  0  0  0  0
  -22.8944   -8.6420   -8.6725 C   0  0  0  0  0  0  0  0  0  0  0  0
  -19.0357   -2.8511   -6.3886 N   0  0  0  0  0  0  0  0  0  0  0  0
  -17.3708   -1.7012   -5.2902 N   0  0  0  0  0  0  0  0  0  0  0  0
  -22.3280   -7.4357   -9.3002 N   0  0  0  0  0  0  0  0  0  0  0  0
  -23.0851   -1.6766   -8.7681 H   0  0  0  0  0  0  0  0  0  0  0  0
  -20.9601   -1.8147   -7.4606 H   0  0  0  0  0  0  0  0  0  0  0  0
  -24.1459   -3.7745   -9.5966 H   0  0  0  0  0  0  0  0  0  0  0  0
  -16.6320   -4.0924   -4.3355 H   0  0  0  0  0  0  0  0  0  0  0  0
  -19.7985   -6.1107   -6.4476 H   0  0  0  0  0  0  0  0  0  0  0  0
  -17.7264   -6.5683   -3.7232 H   0  0  0  0  0  0  0  0  0  0  0  0
  -18.4114   -7.3679   -5.1786 H   0  0  0  0  0  0  0  0  0  0  0  0
  -16.7026   -6.8141   -5.1786 H   0  0  0  0  0  0  0  0  0  0  0  0
  -21.0110   -6.1304   -7.7849 H   0  0  0  0  0  0  0  0  0  0  0  0
  -24.1271   -6.6149   -8.5689 H   0  0  0  0  0  0  0  0  0  0  0  0
  -23.6925   -6.1513  -10.2571 H   0  0  0  0  0  0  0  0  0  0  0  0
  -22.8475   -8.5423   -7.5780 H   0  0  0  0  0  0  0  0  0  0  0  0
  -23.9423   -8.7606   -8.9853 H   0  0  0  0  0  0  0  0  0  0  0  0
  -22.3163   -9.5240   -8.9853 H   0  0  0  0  0  0  0  0  0  0  0  0
  -17.7314   -0.8317   -5.7085 H   0  0  0  0  0  0  0  0  0  0  0  0
  -16.5584   -1.6701   -4.6578 H   0  0  0  0  0  0  0  0  0  0  0  0
  -22.0980   -7.6384  -10.2835 H   0  0  0  0  0  0  0  0  0  0  0  0
  -21.4755   -7.1582   -8.7931 H   0  0  0  0  0  0  0  0  0  0  0  0
  1  3  2  0
  1  4  1  0
  2  3  1  0
  2  9  1  0
  2 12  2  0
  4 11  2  0
  5  6  2  0
  5 15  1  0
  5 16  1  0
  6  7  1  0
  7  8  2  0
  7 10  1  0
  8  9  1  0
  9 15  2  0
 11 12  1  0
 11 13  1  0
 13 17  1  0
 14 17  1  0
  1 18  1  0
  3 19  1  0
  4 20  1  0
  6 21  1  0
  8 22  1  0
 10 23  1  0
 10 24  1  0
 10 25  1  0
 12 26  1  0
 13 27  1  0
 13 28  1  0
 14 29  1  0
 14 30  1  0
 14 31  1  0
 16 32  1  0
 16 33  1  0
 17 34  1  0
 17 35  1  0
M  CHG  1  17   1
M  END
>  <filename_input>  (25) 
7TS6_KMI_docked.sdf

>  <pdb_id>  (25) 
7TS6_KMI

>  <pose_rank>  (25) 
24

>  <num_atoms_heavy>  (25) 
17

>  <num_torsions>  (25) 
3

>  <pose>  (25) 
[-22.624180998270447, -2.6525415617815042, -8.555754069860917, -0.08158714478879575, -0.36263808141272075, -0.5090967131506487, 25.93970212774828, -17.011037941131637, -1.8214041756741772]

>  <energy>  (25) 
-257.0815347053567

>  <inter_energy>  (25) 
-245.6060612964472

>  <intra_energy>  (25) 
0.0

>  <rmsd>  (25) 
7.83086

>  <sdf_rank>  (25) 
0

$$$$

     RDKit          3D

 35 36  0  0  0  0  0  0  0  0999 V2000
  -17.2320   -0.5350   -4.1980 C   0  0  0  0  0  0  0  0  0  0  0  0
  -14.8440   -0.8170   -4.0590 C   0  0  0  0  0  0  0  0  0  0  0  0
  -15.9770   -0.0150   -3.9110 C   0  0  0  0  0  0  0  0  0  0  0  0
  -17.3330   -1.8560   -4.6280 C   0  0  0  0  0  0  0  0  0  0  0  0
  -11.9850    1.5030   -3.7450 C   0  0  0  0  0  0  0  0  0  0  0  0
  -11.2200    0.9190   -2.7250 C   0  0  0  0  0  0  0  0  0  0  0  0
  -11.6660   -0.2720   -2.1760 C   0  0  0  0  0  0  0  0  0  0  0  0
  -12.8500   -0.8220   -2.6380 C   0  0  0  0  0  0  0  0  0  0  0  0
  -13.5550   -0.2100   -3.6630 C   0  0  0  0  0  0  0  0  0  0  0  0
  -10.9110   -0.9810   -1.0900 C   0  0  0  0  0  0  0  0  0  0  0  0
  -16.2000   -2.6590   -4.7570 C   0  0  0  0  0  0  0  0  0  0  0  0
  -14.9410   -2.1400   -4.4710 C   0  0  0  0  0  0  0  0  0  0  0  0
  -16.3310   -4.0870   -5.2330 C   0  0  0  0  0  0  0  0  0  0  0  0
  -18.2440   -5.0300   -6.3590 C   0  0  0  0  0  0  0  0  0  0  0  0
  -13.1370    0.9460   -4.1720 N   0  0  0  0  0  0  0  0  0  0  0  0
  -11.6100    2.6620   -4.3280 N   0  0  0  0  0  0  0  0  0  0  0  0
  -17.0780   -4.1410   -6.5010 N   0  0  0  0  0  0  0  0  0  0  0  0
  -18.1327    0.0867   -4.0875 H   0  0  0  0  0  0  0  0  0  0  0  0
  -15.8758    1.0253   -3.5682 H   0  0  0  0  0  0  0  0  0  0  0  0
  -18.3220   -2.2725   -4.8697 H   0  0  0  0  0  0  0  0  0  0  0  0
  -10.2926    1.3930   -2.3711 H   0  0  0  0  0  0  0  0  0  0  0  0
  -13.2335   -1.7501   -2.1890 H   0  0  0  0  0  0  0  0  0  0  0  0
  -11.2736   -0.6405   -0.1089 H   0  0  0  0  0  0  0  0  0  0  0  0
  -11.0678   -2.0658   -1.1825 H   0  0  0  0  0  0  0  0  0  0  0  0
   -9.8382   -0.7564   -1.1825 H   0  0  0  0  0  0  0  0  0  0  0  0
  -14.0409   -2.7647   -4.5692 H   0  0  0  0  0  0  0  0  0  0  0  0
  -15.3277   -4.5113   -5.3855 H   0  0  0  0  0  0  0  0  0  0  0  0
  -16.8762   -4.6667   -4.4737 H   0  0  0  0  0  0  0  0  0  0  0  0
  -18.4547   -5.1907   -5.2914 H   0  0  0  0  0  0  0  0  0  0  0  0
  -19.1185   -4.5674   -6.8398 H   0  0  0  0  0  0  0  0  0  0  0  0
  -18.0294   -5.9958   -6.8398 H   0  0  0  0  0  0  0  0  0  0  0  0
  -12.1874    3.0729   -5.0755 H   0  0  0  0  0  0  0  0  0  0  0  0
  -10.7466    3.1351   -4.0252 H   0  0  0  0  0  0  0  0  0  0  0  0
  -17.3987   -3.1941   -6.7489 H   0  0  0  0  0  0  0  0  0  0  0  0
  -16.4622   -4.5054   -7.2419 H   0  0  0  0  0  0  0  0  0  0  0  0
  1  3  2  0
  1  4  1  0
  2  3  1  0
  2  9  1  0
  2 12  2  0
  4 11  2  0
  5  6  2  0
  5 15  1  0
  5 16  1  0
  6  7  1  0
  7  8  2  0
  7 10  1  0
  8  9  1  0
  9 15  2  0
 11 12  1  0
 11 13  1  0
 13 17  1  0
 14 17  1  0
  1 18  1  0
  3 19  1  0
  4 20  1  0
  6 21  1  0
  8 22  1  0
 10 23  1  0
 10 24  1  0
 10 25  1  0
 12 26  1  0
 13 27  1  0
 13 28  1  0
 14 29  1  0
 14 30  1  0
 14 31  1  0
 16 32  1  0
 16 33  1  0
 17 34  1  0
 17 35  1  0
M  CHG  1  17   1
M  END
>  <filename_input>  (26) 
7TS6_KMI_docked.sdf

>  <pdb_id>  (26) 
7TS6_KMI

>  <pose_rank>  (26) 
25

>  <num_atoms_heavy>  (26) 
17

>  <num_torsions>  (26) 
3

>  <pose>  (26) 
[-17.232, -0.535, -4.198, 1e-06, 1e-06, 1e-06, 0.0, 0.0, 0.0]

>  <energy>  (26) 
-1218.8308061542266

>  <inter_energy>  (26) 
-1222.8671191024152

>  <intra_energy>  (26) 
0.15403234521846543

>  <rmsd>  (26) 
0.0

>  <sdf_rank>  (26) 
0

$$$$
