
     RDKit          3D

 32 33  0  0  0  0  0  0  0  0999 V2000
    3.6089    3.1473   36.1175 N   0  0  0  0  0  0  0  0  0  0  0  0
    3.3123    4.0288   37.0972 C   0  0  0  0  0  0  0  0  0  0  0  0
    2.0205    4.1632   37.4799 N   0  0  0  0  0  0  0  0  0  0  0  0
    4.2895    4.7476   37.6989 N   0  0  0  0  0  0  0  0  0  0  0  0
    5.5839    4.6110   37.3227 C   0  0  0  0  0  0  0  0  0  0  0  0
    6.5005    5.2732   37.8754 O   0  0  0  0  0  0  0  0  0  0  0  0
    5.8904    3.7221   36.3087 C   0  0  0  0  0  0  0  0  0  0  0  0
    4.8791    2.9847   35.7145 C   0  0  0  0  0  0  0  0  0  0  0  0
    7.1642    3.5499   35.8974 N   0  0  0  0  0  0  0  0  0  0  0  0
    5.1467    2.0930   34.7197 N   0  0  0  0  0  0  0  0  0  0  0  0
    7.3443    3.0286   34.5456 C   0  0  2  0  0  0  0  0  0  0  0  0
    6.5031    1.7861   34.2981 C   0  0  0  0  0  0  0  0  0  0  0  0
    8.8036    2.7220   34.2551 C   0  0  1  0  0  0  0  0  0  0  0  0
    9.4795    2.4198   35.4782 O   0  0  0  0  0  0  0  0  0  0  0  0
    8.9388    1.5611   33.2754 C   0  0  2  0  0  0  0  0  0  0  0  0
   10.4037    1.1623   33.2130 C   0  0  0  0  0  0  0  0  0  0  0  0
    8.4822    1.9742   31.9716 O   0  0  0  0  0  0  0  0  0  0  0  0
    1.7707    4.8291   38.2249 H   0  0  0  0  0  0  0  0  0  0  0  0
    1.2876    3.5995   37.0260 H   0  0  0  0  0  0  0  0  0  0  0  0
    4.0457    5.4066   38.4521 H   0  0  0  0  0  0  0  0  0  0  0  0
    7.9658    3.7739   36.5042 H   0  0  0  0  0  0  0  0  0  0  0  0
    4.3610    1.6204   34.2506 H   0  0  0  0  0  0  0  0  0  0  0  0
    7.0044    3.8202   33.8616 H   0  0  0  0  0  0  0  0  0  0  0  0
    6.8973    0.9418   34.8827 H   0  0  0  0  0  0  0  0  0  0  0  0
    6.5267    1.5046   33.2350 H   0  0  0  0  0  0  0  0  0  0  0  0
    9.2621    3.6075   33.7906 H   0  0  0  0  0  0  0  0  0  0  0  0
    8.9066    2.6760   36.2438 H   0  0  0  0  0  0  0  0  0  0  0  0
    8.3303    0.7061   33.6052 H   0  0  0  0  0  0  0  0  0  0  0  0
   10.7983    1.0548   34.2342 H   0  0  0  0  0  0  0  0  0  0  0  0
   10.5008    0.2050   32.6799 H   0  0  0  0  0  0  0  0  0  0  0  0
   10.9726    1.9382   32.6799 H   0  0  0  0  0  0  0  0  0  0  0  0
    7.7518    2.6349   32.0717 H   0  0  0  0  0  0  0  0  0  0  0  0
  1  2  2  0
  1  8  1  0
  2  3  1  0
  2  4  1  0
  4  5  1  0
  5  6  2  0
  5  7  1  0
  7  8  2  0
  7  9  1  0
  8 10  1  0
  9 11  1  0
 10 12  1  0
 11 12  1  0
 11 13  1  0
 13 14  1  0
 13 15  1  0
 15 16  1  0
 15 17  1  0
  3 18  1  0
  3 19  1  0
  4 20  1  0
  9 21  1  0
 10 22  1  0
 11 23  1  6
 12 24  1  0
 12 25  1  0
 13 26  1  6
 14 27  1  0
 15 28  1  1
 16 29  1  0
 16 30  1  0
 16 31  1  0
 17 32  1  0
M  END
>  <filename_input>  (1) 
7TSF_H4B_docked.sdf

>  <pdb_id>  (1) 
7TSF_H4B

>  <pose_rank>  (1) 
0

>  <num_atoms_heavy>  (1) 
17

>  <num_torsions>  (1) 
2

>  <pose>  (1) 
[3.6088790910146225, 3.1472855941728186, 36.11745961984511, 0.26692771813613453, -2.7772913427554005, 1.600638658803492, -0.5009699538283209, 0.3090539300484069]

>  <energy>  (1) 
-666.2060228264618

>  <inter_energy>  (1) 
-672.4902906268103

>  <intra_energy>  (1) 
8.740601194511104

>  <rmsd>  (1) 
6.16835

>  <sdf_rank>  (1) 
0

$$$$

     RDKit          3D

 32 33  0  0  0  0  0  0  0  0999 V2000
    5.0215    4.2010   37.2308 N   0  0  0  0  0  0  0  0  0  0  0  0
    3.7910    3.6500   37.1473 C   0  0  0  0  0  0  0  0  0  0  0  0
    2.8676    3.9801   38.0809 N   0  0  0  0  0  0  0  0  0  0  0  0
    3.4809    2.8015   36.1385 N   0  0  0  0  0  0  0  0  0  0  0  0
    4.4006    2.4740   35.1991 C   0  0  0  0  0  0  0  0  0  0  0  0
    4.1234    1.6872   34.2567 O   0  0  0  0  0  0  0  0  0  0  0  0
    5.6668    3.0225   35.2900 C   0  0  0  0  0  0  0  0  0  0  0  0
    5.9616    3.8998   36.3210 C   0  0  0  0  0  0  0  0  0  0  0  0
    6.6185    2.7277   34.3795 N   0  0  0  0  0  0  0  0  0  0  0  0
    7.1955    4.4661   36.4348 N   0  0  0  0  0  0  0  0  0  0  0  0
    8.0028    2.9055   34.8077 C   0  0  2  0  0  0  0  0  0  0  0  0
    8.2331    4.2709   35.4363 C   0  0  0  0  0  0  0  0  0  0  0  0
    8.9736    2.7044   33.6566 C   0  0  1  0  0  0  0  0  0  0  0  0
   10.2685    2.3900   34.1749 O   0  0  0  0  0  0  0  0  0  0  0  0
    8.4967    1.5998   32.7195 C   0  0  2  0  0  0  0  0  0  0  0  0
    9.4117    0.3997   32.8978 C   0  0  0  0  0  0  0  0  0  0  0  0
    8.5517    2.0661   31.3562 O   0  0  0  0  0  0  0  0  0  0  0  0
    1.9227    3.5723   38.0374 H   0  0  0  0  0  0  0  0  0  0  0  0
    3.1099    4.6389   38.8347 H   0  0  0  0  0  0  0  0  0  0  0  0
    2.5339    2.4001   36.0847 H   0  0  0  0  0  0  0  0  0  0  0  0
    6.3810    2.3954   33.4339 H   0  0  0  0  0  0  0  0  0  0  0  0
    7.3999    5.0525   37.2566 H   0  0  0  0  0  0  0  0  0  0  0  0
    8.1915    2.1357   35.5703 H   0  0  0  0  0  0  0  0  0  0  0  0
    8.1684    5.0552   34.6677 H   0  0  0  0  0  0  0  0  0  0  0  0
    9.2312    4.3256   35.8953 H   0  0  0  0  0  0  0  0  0  0  0  0
    9.0266    3.6369   33.0756 H   0  0  0  0  0  0  0  0  0  0  0  0
   10.2385    2.3972   35.1644 H   0  0  0  0  0  0  0  0  0  0  0  0
    7.4589    1.3188   32.9522 H   0  0  0  0  0  0  0  0  0  0  0  0
    9.5587    0.2069   33.9707 H   0  0  0  0  0  0  0  0  0  0  0  0
    8.9551   -0.4828   32.4258 H   0  0  0  0  0  0  0  0  0  0  0  0
   10.3836    0.6063   32.4258 H   0  0  0  0  0  0  0  0  0  0  0  0
    8.6677    3.0493   31.3482 H   0  0  0  0  0  0  0  0  0  0  0  0
  1  2  2  0
  1  8  1  0
  2  3  1  0
  2  4  1  0
  4  5  1  0
  5  6  2  0
  5  7  1  0
  7  8  2  0
  7  9  1  0
  8 10  1  0
  9 11  1  0
 10 12  1  0
 11 12  1  0
 11 13  1  0
 13 14  1  0
 13 15  1  0
 15 16  1  0
 15 17  1  0
  3 18  1  0
  3 19  1  0
  4 20  1  0
  9 21  1  0
 10 22  1  0
 11 23  1  1
 12 24  1  0
 12 25  1  0
 13 26  1  6
 14 27  1  0
 15 28  1  1
 16 29  1  0
 16 30  1  0
 16 31  1  0
 17 32  1  0
M  END
>  <filename_input>  (2) 
7TSF_H4B_docked.sdf

>  <pdb_id>  (2) 
7TSF_H4B

>  <pose_rank>  (2) 
1

>  <num_atoms_heavy>  (2) 
17

>  <num_torsions>  (2) 
2

>  <pose>  (2) 
[5.021549302227089, 4.200988425257374, 37.23084820831435, -1.714244599892314, -1.3926807527860328, -2.1620373421783925, -3.739819550168328, 1.3861554221926613]

>  <energy>  (2) 
-725.6797532358872

>  <inter_energy>  (2) 
-702.9195246711151

>  <intra_energy>  (2) 
0.0

>  <rmsd>  (2) 
5.69501

>  <sdf_rank>  (2) 
0

$$$$

     RDKit          3D

 32 33  0  0  0  0  0  0  0  0999 V2000
   10.0529    2.5205   34.2842 N   0  0  0  0  0  0  0  0  0  0  0  0
   10.2326    2.2440   32.9742 C   0  0  0  0  0  0  0  0  0  0  0  0
   11.4960    2.1007   32.5087 N   0  0  0  0  0  0  0  0  0  0  0  0
    9.1705    2.0922   32.1480 N   0  0  0  0  0  0  0  0  0  0  0  0
    7.9048    2.2287   32.6118 C   0  0  0  0  0  0  0  0  0  0  0  0
    6.9102    2.0890   31.8534 O   0  0  0  0  0  0  0  0  0  0  0  0
    7.7163    2.5283   33.9486 C   0  0  0  0  0  0  0  0  0  0  0  0
    8.8146    2.6659   34.7819 C   0  0  0  0  0  0  0  0  0  0  0  0
    6.4756    2.6747   34.4594 N   0  0  0  0  0  0  0  0  0  0  0  0
    8.6648    2.9509   36.1058 N   0  0  0  0  0  0  0  0  0  0  0  0
    6.3662    3.4695   35.6791 C   0  0  2  0  0  0  0  0  0  0  0  0
    7.3595    3.0228   36.7404 C   0  0  0  0  0  0  0  0  0  0  0  0
    4.9585    3.4271   36.2488 C   0  0  1  0  0  0  0  0  0  0  0  0
    4.6296    2.0824   36.6063 O   0  0  0  0  0  0  0  0  0  0  0  0
    4.8261    4.3438   37.4604 C   0  0  2  0  0  0  0  0  0  0  0  0
    3.3522    4.4507   37.8144 C   0  0  0  0  0  0  0  0  0  0  0  0
    5.3541    5.6467   37.1398 O   0  0  0  0  0  0  0  0  0  0  0  0
   11.6573    1.8897   31.5135 H   0  0  0  0  0  0  0  0  0  0  0  0
   12.2957    2.2027   33.1498 H   0  0  0  0  0  0  0  0  0  0  0  0
    9.3268    1.8701   31.1544 H   0  0  0  0  0  0  0  0  0  0  0  0
    5.6509    2.2488   34.0129 H   0  0  0  0  0  0  0  0  0  0  0  0
    9.5054    3.1211   36.6762 H   0  0  0  0  0  0  0  0  0  0  0  0
    6.6035    4.5053   35.3951 H   0  0  0  0  0  0  0  0  0  0  0  0
    7.0752    2.0343   37.1302 H   0  0  0  0  0  0  0  0  0  0  0  0
    7.3741    3.7297   37.5830 H   0  0  0  0  0  0  0  0  0  0  0  0
    4.2581    3.7849   35.4798 H   0  0  0  0  0  0  0  0  0  0  0  0
    4.6091    1.9987   37.5926 H   0  0  0  0  0  0  0  0  0  0  0  0
    5.3889    3.9377   38.3138 H   0  0  0  0  0  0  0  0  0  0  0  0
    3.2375    4.4591   38.9084 H   0  0  0  0  0  0  0  0  0  0  0  0
    2.9411    5.3811   37.3956 H   0  0  0  0  0  0  0  0  0  0  0  0
    2.8110    3.5895   37.3956 H   0  0  0  0  0  0  0  0  0  0  0  0
    5.5529    6.1372   37.9765 H   0  0  0  0  0  0  0  0  0  0  0  0
  1  2  2  0
  1  8  1  0
  2  3  1  0
  2  4  1  0
  4  5  1  0
  5  6  2  0
  5  7  1  0
  7  8  2  0
  7  9  1  0
  8 10  1  0
  9 11  1  0
 10 12  1  0
 11 12  1  0
 11 13  1  0
 13 14  1  0
 13 15  1  0
 15 16  1  0
 15 17  1  0
  3 18  1  0
  3 19  1  0
  4 20  1  0
  9 21  1  0
 10 22  1  0
 11 23  1  6
 12 24  1  0
 12 25  1  0
 13 26  1  6
 14 27  1  0
 15 28  1  1
 16 29  1  0
 16 30  1  0
 16 31  1  0
 17 32  1  0
M  END
>  <filename_input>  (3) 
7TSF_H4B_docked.sdf

>  <pdb_id>  (3) 
7TSF_H4B

>  <pose_rank>  (3) 
2

>  <num_atoms_heavy>  (3) 
17

>  <num_torsions>  (3) 
2

>  <pose>  (3) 
[10.052860020361361, 2.520483661817821, 34.28418361136683, -5.169058369976148, 2.0441371015922747, 2.69912961041064, 0.11290714459644628, -0.03464226398399484]

>  <energy>  (3) 
-714.2222732514576

>  <inter_energy>  (3) 
-709.954275498148

>  <intra_energy>  (3) 
2.2431741068715803

>  <rmsd>  (3) 
0.283229

>  <sdf_rank>  (3) 
0

$$$$

     RDKit          3D

 32 33  0  0  0  0  0  0  0  0999 V2000
    9.6907    1.3327   32.5556 N   0  0  0  0  0  0  0  0  0  0  0  0
   10.8732    1.2795   33.2065 C   0  0  0  0  0  0  0  0  0  0  0  0
   11.9434    0.7528   32.5656 N   0  0  0  0  0  0  0  0  0  0  0  0
   10.9910    1.7625   34.4660 N   0  0  0  0  0  0  0  0  0  0  0  0
    9.9237    2.2959   35.1079 C   0  0  0  0  0  0  0  0  0  0  0  0
   10.0216    2.7485   36.2782 O   0  0  0  0  0  0  0  0  0  0  0  0
    8.7070    2.3372   34.4519 C   0  0  0  0  0  0  0  0  0  0  0  0
    8.6089    1.8513   33.1581 C   0  0  0  0  0  0  0  0  0  0  0  0
    7.6139    2.8582   35.0478 N   0  0  0  0  0  0  0  0  0  0  0  0
    7.4283    1.8856   32.4789 N   0  0  0  0  0  0  0  0  0  0  0  0
    6.3215    2.4111   34.5365 C   0  0  2  0  0  0  0  0  0  0  0  0
    6.2398    2.5213   33.0220 C   0  0  0  0  0  0  0  0  0  0  0  0
    5.1745    3.1831   35.1662 C   0  0  1  0  0  0  0  0  0  0  0  0
    4.2421    2.2651   35.7424 O   0  0  0  0  0  0  0  0  0  0  0  0
    5.6808    4.1570   36.2249 C   0  0  2  0  0  0  0  0  0  0  0  0
    4.5022    4.5699   37.0907 C   0  0  0  0  0  0  0  0  0  0  0  0
    6.2525    5.3142   35.5822 O   0  0  0  0  0  0  0  0  0  0  0  0
   12.8552    0.7020   33.0420 H   0  0  0  0  0  0  0  0  0  0  0  0
   11.8457    0.4031   31.6018 H   0  0  0  0  0  0  0  0  0  0  0  0
   11.9036    1.7239   34.9422 H   0  0  0  0  0  0  0  0  0  0  0  0
    7.6874    3.5344   35.8212 H   0  0  0  0  0  0  0  0  0  0  0  0
    7.3764    1.4460   31.5489 H   0  0  0  0  0  0  0  0  0  0  0  0
    6.2301    1.3504   34.8131 H   0  0  0  0  0  0  0  0  0  0  0  0
    6.2082    3.5793   32.7225 H   0  0  0  0  0  0  0  0  0  0  0  0
    5.3293    2.0333   32.6441 H   0  0  0  0  0  0  0  0  0  0  0  0
    4.6751    3.7707   34.3818 H   0  0  0  0  0  0  0  0  0  0  0  0
    4.2950    2.3171   36.7296 H   0  0  0  0  0  0  0  0  0  0  0  0
    6.4550    3.6826   36.8458 H   0  0  0  0  0  0  0  0  0  0  0  0
    4.7754    4.4742   38.1519 H   0  0  0  0  0  0  0  0  0  0  0  0
    4.2359    5.6149   36.8734 H   0  0  0  0  0  0  0  0  0  0  0  0
    3.6420    3.9196   36.8734 H   0  0  0  0  0  0  0  0  0  0  0  0
    6.5676    5.9521   36.2707 H   0  0  0  0  0  0  0  0  0  0  0  0
  1  2  2  0
  1  8  1  0
  2  3  1  0
  2  4  1  0
  4  5  1  0
  5  6  2  0
  5  7  1  0
  7  8  2  0
  7  9  1  0
  8 10  1  0
  9 11  1  0
 10 12  1  0
 11 12  1  0
 11 13  1  0
 13 14  1  0
 13 15  1  0
 15 16  1  0
 15 17  1  0
  3 18  1  0
  3 19  1  0
  4 20  1  0
  9 21  1  0
 10 22  1  0
 11 23  1  6
 12 24  1  0
 12 25  1  0
 13 26  1  6
 14 27  1  0
 15 28  1  1
 16 29  1  0
 16 30  1  0
 16 31  1  0
 17 32  1  0
M  END
>  <filename_input>  (4) 
7TSF_H4B_docked.sdf

>  <pdb_id>  (4) 
7TSF_H4B

>  <pose_rank>  (4) 
3

>  <num_atoms_heavy>  (4) 
17

>  <num_torsions>  (4) 
2

>  <pose>  (4) 
[9.69067216228865, 1.3326784924108048, 32.55563795266845, -2.694332636981188, 0.7642077935959446, 1.305959217446864, -3.16539915703765, 0.4432496463055883]

>  <energy>  (4) 
-523.9764744167653

>  <inter_energy>  (4) 
-541.0080797998739

>  <intra_energy>  (4) 
12.344319917332236

>  <rmsd>  (4) 
2.54301

>  <sdf_rank>  (4) 
0

$$$$

     RDKit          3D

 32 33  0  0  0  0  0  0  0  0999 V2000
    6.0122    3.5560   34.4046 N   0  0  0  0  0  0  0  0  0  0  0  0
    5.7458    4.0376   35.6382 C   0  0  0  0  0  0  0  0  0  0  0  0
    4.5772    4.6908   35.8413 N   0  0  0  0  0  0  0  0  0  0  0  0
    6.6196    3.8523   36.6559 N   0  0  0  0  0  0  0  0  0  0  0  0
    7.7869    3.1937   36.4577 C   0  0  0  0  0  0  0  0  0  0  0  0
    8.6062    3.0149   37.3962 O   0  0  0  0  0  0  0  0  0  0  0  0
    8.0717    2.7135   35.1926 C   0  0  0  0  0  0  0  0  0  0  0  0
    7.1592    2.9000   34.1669 C   0  0  0  0  0  0  0  0  0  0  0  0
    9.2210    2.0511   34.9435 N   0  0  0  0  0  0  0  0  0  0  0  0
    7.4032    2.4314   32.9111 N   0  0  0  0  0  0  0  0  0  0  0  0
    9.6761    2.0413   33.5563 C   0  0  2  0  0  0  0  0  0  0  0  0
    8.5711    1.6256   32.5978 C   0  0  0  0  0  0  0  0  0  0  0  0
   10.8802    1.1338   33.3701 C   0  0  1  0  0  0  0  0  0  0  0  0
   10.4883   -0.2258   33.5752 O   0  0  0  0  0  0  0  0  0  0  0  0
   11.4903    1.3048   31.9829 C   0  0  2  0  0  0  0  0  0  0  0  0
   12.7999    0.5351   31.9434 C   0  0  0  0  0  0  0  0  0  0  0  0
   11.7306    2.7040   31.7304 O   0  0  0  0  0  0  0  0  0  0  0  0
    4.3526    5.0667   36.7736 H   0  0  0  0  0  0  0  0  0  0  0  0
    3.9130    4.8119   35.0634 H   0  0  0  0  0  0  0  0  0  0  0  0
    6.3940    4.2167   37.5926 H   0  0  0  0  0  0  0  0  0  0  0  0
    9.7482    1.5782   35.6913 H   0  0  0  0  0  0  0  0  0  0  0  0
    6.7371    2.6558   32.1582 H   0  0  0  0  0  0  0  0  0  0  0  0
    9.9701    3.0747   33.3204 H   0  0  0  0  0  0  0  0  0  0  0  0
    8.3392    0.5585   32.7304 H   0  0  0  0  0  0  0  0  0  0  0  0
    8.8822    1.7791   31.5539 H   0  0  0  0  0  0  0  0  0  0  0  0
   11.6460    1.4113   34.1094 H   0  0  0  0  0  0  0  0  0  0  0  0
   10.4350   -0.4109   34.5462 H   0  0  0  0  0  0  0  0  0  0  0  0
   10.8061    0.9219   31.2114 H   0  0  0  0  0  0  0  0  0  0  0  0
   13.1392    0.3357   32.9706 H   0  0  0  0  0  0  0  0  0  0  0  0
   12.6492   -0.4181   31.4155 H   0  0  0  0  0  0  0  0  0  0  0  0
   13.5594    1.1305   31.4155 H   0  0  0  0  0  0  0  0  0  0  0  0
   11.8132    3.1853   32.5916 H   0  0  0  0  0  0  0  0  0  0  0  0
  1  2  2  0
  1  8  1  0
  2  3  1  0
  2  4  1  0
  4  5  1  0
  5  6  2  0
  5  7  1  0
  7  8  2  0
  7  9  1  0
  8 10  1  0
  9 11  1  0
 10 12  1  0
 11 12  1  0
 11 13  1  0
 13 14  1  0
 13 15  1  0
 15 16  1  0
 15 17  1  0
  3 18  1  0
  3 19  1  0
  4 20  1  0
  9 21  1  0
 10 22  1  0
 11 23  1  6
 12 24  1  0
 12 25  1  0
 13 26  1  1
 14 27  1  0
 15 28  1  6
 16 29  1  0
 16 30  1  0
 16 31  1  0
 17 32  1  0
M  END
>  <filename_input>  (5) 
7TSF_H4B_docked.sdf

>  <pdb_id>  (5) 
7TSF_H4B

>  <pose_rank>  (5) 
4

>  <num_atoms_heavy>  (5) 
17

>  <num_torsions>  (5) 
2

>  <pose>  (5) 
[6.012238088806848, 3.556016449464796, 34.40456871802648, -0.7112655084074339, -3.029463027869455, 0.9204132883275811, 0.20184935828313327, -0.0024484586915754286]

>  <energy>  (5) 
-502.7737862942293

>  <inter_energy>  (5) 
-501.13424337913955

>  <intra_energy>  (5) 
0.6817670013053448

>  <rmsd>  (5) 
6.23763

>  <sdf_rank>  (5) 
0

$$$$

     RDKit          3D

 32 33  0  0  0  0  0  0  0  0999 V2000
    4.7841    2.2928   35.7842 N   0  0  0  0  0  0  0  0  0  0  0  0
    3.8057    1.7295   35.0424 C   0  0  0  0  0  0  0  0  0  0  0  0
    2.5626    1.6366   35.5709 N   0  0  0  0  0  0  0  0  0  0  0  0
    4.0580    1.2862   33.7879 N   0  0  0  0  0  0  0  0  0  0  0  0
    5.2993    1.3833   33.2536 C   0  0  0  0  0  0  0  0  0  0  0  0
    5.5451    0.9755   32.0887 O   0  0  0  0  0  0  0  0  0  0  0  0
    6.3080    1.9439   34.0155 C   0  0  0  0  0  0  0  0  0  0  0  0
    6.0279    2.4050   35.2916 C   0  0  0  0  0  0  0  0  0  0  0  0
    7.5613    2.0631   33.5291 N   0  0  0  0  0  0  0  0  0  0  0  0
    6.9954    2.9717   36.0656 N   0  0  0  0  0  0  0  0  0  0  0  0
    8.6328    2.1646   34.5156 C   0  0  2  0  0  0  0  0  0  0  0  0
    8.3381    3.2211   35.5690 C   0  0  0  0  0  0  0  0  0  0  0  0
    9.9706    2.4594   33.8587 C   0  0  1  0  0  0  0  0  0  0  0  0
   11.0285    2.1099   34.7547 O   0  0  0  0  0  0  0  0  0  0  0  0
   10.1186    1.7005   32.5442 C   0  0  2  0  0  0  0  0  0  0  0  0
   10.0400    0.2130   32.8447 C   0  0  0  0  0  0  0  0  0  0  0  0
   11.3907    2.0179   31.9443 O   0  0  0  0  0  0  0  0  0  0  0  0
    1.8008    1.2110   35.0238 H   0  0  0  0  0  0  0  0  0  0  0  0
    2.3787    1.9917   36.5202 H   0  0  0  0  0  0  0  0  0  0  0  0
    3.2966    0.8700   33.2329 H   0  0  0  0  0  0  0  0  0  0  0  0
    7.7516    2.0815   32.5170 H   0  0  0  0  0  0  0  0  0  0  0  0
    6.7674    3.2322   37.0356 H   0  0  0  0  0  0  0  0  0  0  0  0
    8.6890    1.1848   35.0124 H   0  0  0  0  0  0  0  0  0  0  0  0
    8.3941    4.2246   35.1220 H   0  0  0  0  0  0  0  0  0  0  0  0
    9.0719    3.1713   36.3870 H   0  0  0  0  0  0  0  0  0  0  0  0
   10.0206    3.5347   33.6323 H   0  0  0  0  0  0  0  0  0  0  0  0
   10.7172    2.2127   35.6889 H   0  0  0  0  0  0  0  0  0  0  0  0
    9.3198    1.9849   31.8434 H   0  0  0  0  0  0  0  0  0  0  0  0
   10.0319    0.0589   33.9339 H   0  0  0  0  0  0  0  0  0  0  0  0
    9.1188   -0.2010   32.4089 H   0  0  0  0  0  0  0  0  0  0  0  0
   10.9126   -0.2957   32.4089 H   0  0  0  0  0  0  0  0  0  0  0  0
   12.0587    2.1845   32.6557 H   0  0  0  0  0  0  0  0  0  0  0  0
  1  2  2  0
  1  8  1  0
  2  3  1  0
  2  4  1  0
  4  5  1  0
  5  6  2  0
  5  7  1  0
  7  8  2  0
  7  9  1  0
  8 10  1  0
  9 11  1  0
 10 12  1  0
 11 12  1  0
 11 13  1  0
 13 14  1  0
 13 15  1  0
 15 16  1  0
 15 17  1  0
  3 18  1  0
  3 19  1  0
  4 20  1  0
  9 21  1  0
 10 22  1  0
 11 23  1  1
 12 24  1  0
 12 25  1  0
 13 26  1  6
 14 27  1  0
 15 28  1  6
 16 29  1  0
 16 30  1  0
 16 31  1  0
 17 32  1  0
M  END
>  <filename_input>  (6) 
7TSF_H4B_docked.sdf

>  <pdb_id>  (6) 
7TSF_H4B

>  <pose_rank>  (6) 
5

>  <num_atoms_heavy>  (6) 
17

>  <num_torsions>  (6) 
2

>  <pose>  (6) 
[4.784105047829795, 2.292769126292378, 35.784160196146885, 1.1867573830113507, 1.1785349674678585, 2.848079100642093, 2.5069009602617855, 2.2284814499512997]

>  <energy>  (6) 
-510.1718750265353

>  <inter_energy>  (6) 
-511.57126485115185

>  <intra_energy>  (6) 
8.496069956054512

>  <rmsd>  (6) 
5.55678

>  <sdf_rank>  (6) 
0

$$$$

     RDKit          3D

 32 33  0  0  0  0  0  0  0  0999 V2000
    5.5685    4.1269   34.6262 N   0  0  0  0  0  0  0  0  0  0  0  0
    5.2891    4.2048   35.9455 C   0  0  0  0  0  0  0  0  0  0  0  0
    4.1609    4.8454   36.3332 N   0  0  0  0  0  0  0  0  0  0  0  0
    6.1094    3.6356   36.8603 N   0  0  0  0  0  0  0  0  0  0  0  0
    7.2359    2.9885   36.4755 C   0  0  0  0  0  0  0  0  0  0  0  0
    8.0052    2.4551   37.3167 O   0  0  0  0  0  0  0  0  0  0  0  0
    7.5348    2.9207   35.1271 C   0  0  0  0  0  0  0  0  0  0  0  0
    6.6763    3.4966   34.2046 C   0  0  0  0  0  0  0  0  0  0  0  0
    8.6449    2.2878   34.6926 N   0  0  0  0  0  0  0  0  0  0  0  0
    6.9350    3.4398   32.8682 N   0  0  0  0  0  0  0  0  0  0  0  0
    9.1502    2.6901   33.3834 C   0  0  2  0  0  0  0  0  0  0  0  0
    8.0564    2.6908   32.3269 C   0  0  0  0  0  0  0  0  0  0  0  0
   10.2960    1.8015   32.9299 C   0  0  1  0  0  0  0  0  0  0  0  0
   11.0626    1.3956   34.0664 O   0  0  0  0  0  0  0  0  0  0  0  0
    9.7814    0.5801   32.1755 C   0  0  2  0  0  0  0  0  0  0  0  0
   10.9589   -0.3429   31.9094 C   0  0  0  0  0  0  0  0  0  0  0  0
    9.1878    0.9971   30.9294 O   0  0  0  0  0  0  0  0  0  0  0  0
    3.9274    4.9172   37.3338 H   0  0  0  0  0  0  0  0  0  0  0  0
    3.5362    5.2607   35.6274 H   0  0  0  0  0  0  0  0  0  0  0  0
    5.8741    3.6953   37.8613 H   0  0  0  0  0  0  0  0  0  0  0  0
    9.1103    1.5605   35.2543 H   0  0  0  0  0  0  0  0  0  0  0  0
    6.3145    3.9449   32.2194 H   0  0  0  0  0  0  0  0  0  0  0  0
    9.5225    3.7187   33.4987 H   0  0  0  0  0  0  0  0  0  0  0  0
    7.7476    1.6588   32.1038 H   0  0  0  0  0  0  0  0  0  0  0  0
    8.4163    3.1477   31.3933 H   0  0  0  0  0  0  0  0  0  0  0  0
   10.9340    2.3758   32.2420 H   0  0  0  0  0  0  0  0  0  0  0  0
   10.5839    1.6491   34.8950 H   0  0  0  0  0  0  0  0  0  0  0  0
    9.0185    0.0544   32.7686 H   0  0  0  0  0  0  0  0  0  0  0  0
   11.3859   -0.6776   32.8663 H   0  0  0  0  0  0  0  0  0  0  0  0
   10.6175   -1.2165   31.3347 H   0  0  0  0  0  0  0  0  0  0  0  0
   11.7256    0.1973   31.3347 H   0  0  0  0  0  0  0  0  0  0  0  0
    8.3918    1.5562   31.1139 H   0  0  0  0  0  0  0  0  0  0  0  0
  1  2  2  0
  1  8  1  0
  2  3  1  0
  2  4  1  0
  4  5  1  0
  5  6  2  0
  5  7  1  0
  7  8  2  0
  7  9  1  0
  8 10  1  0
  9 11  1  0
 10 12  1  0
 11 12  1  0
 11 13  1  0
 13 14  1  0
 13 15  1  0
 15 16  1  0
 15 17  1  0
  3 18  1  0
  3 19  1  0
  4 20  1  0
  9 21  1  0
 10 22  1  0
 11 23  1  1
 12 24  1  0
 12 25  1  0
 13 26  1  6
 14 27  1  0
 15 28  1  1
 16 29  1  0
 16 30  1  0
 16 31  1  0
 17 32  1  0
M  END
>  <filename_input>  (7) 
7TSF_H4B_docked.sdf

>  <pdb_id>  (7) 
7TSF_H4B

>  <pose_rank>  (7) 
6

>  <num_atoms_heavy>  (7) 
17

>  <num_torsions>  (7) 
2

>  <pose>  (7) 
[5.568491035510217, 4.126931240640687, 34.62619551136898, -4.126342013982875, -15.06201225637926, 1.9780140879191133, 4.718426526155899, 0.26901817393853494]

>  <energy>  (7) 
-432.2357216985056

>  <inter_energy>  (7) 
-468.7842412420394

>  <intra_energy>  (7) 
38.301348312635554

>  <rmsd>  (7) 
6.05948

>  <sdf_rank>  (7) 
0

$$$$

     RDKit          3D

 32 33  0  0  0  0  0  0  0  0999 V2000
    9.5751    1.4595   32.3374 N   0  0  0  0  0  0  0  0  0  0  0  0
   10.7336    0.9788   32.8389 C   0  0  0  0  0  0  0  0  0  0  0  0
   11.5268    0.2301   32.0365 N   0  0  0  0  0  0  0  0  0  0  0  0
   11.1043    1.2577   34.1111 N   0  0  0  0  0  0  0  0  0  0  0  0
   10.3160    2.0118   34.9146 C   0  0  0  0  0  0  0  0  0  0  0  0
   10.6508    2.2780   36.0983 O   0  0  0  0  0  0  0  0  0  0  0  0
    9.1211    2.4921   34.4110 C   0  0  0  0  0  0  0  0  0  0  0  0
    8.7651    2.2084   33.1024 C   0  0  0  0  0  0  0  0  0  0  0  0
    8.3005    3.2474   35.1711 N   0  0  0  0  0  0  0  0  0  0  0  0
    7.6000    2.6739   32.5711 N   0  0  0  0  0  0  0  0  0  0  0  0
    6.8942    3.2719   34.7800 C   0  0  2  0  0  0  0  0  0  0  0  0
    6.7205    3.5725   33.2994 C   0  0  0  0  0  0  0  0  0  0  0  0
    6.1038    4.2772   35.6001 C   0  0  1  0  0  0  0  0  0  0  0  0
    5.5037    5.2374   34.7272 O   0  0  0  0  0  0  0  0  0  0  0  0
    5.0351    3.5853   36.4398 C   0  0  2  0  0  0  0  0  0  0  0  0
    4.8897    2.1581   35.9388 C   0  0  0  0  0  0  0  0  0  0  0  0
    3.7836    4.2881   36.3025 O   0  0  0  0  0  0  0  0  0  0  0  0
   12.4148   -0.1470   32.3972 H   0  0  0  0  0  0  0  0  0  0  0  0
   11.2421    0.0377   31.0655 H   0  0  0  0  0  0  0  0  0  0  0  0
   11.9969    0.8920   34.4724 H   0  0  0  0  0  0  0  0  0  0  0  0
    8.6476    3.7778   35.9830 H   0  0  0  0  0  0  0  0  0  0  0  0
    7.3337    2.3788   31.6209 H   0  0  0  0  0  0  0  0  0  0  0  0
    6.5009    2.2639   34.9782 H   0  0  0  0  0  0  0  0  0  0  0  0
    6.9946    4.6175   33.0926 H   0  0  0  0  0  0  0  0  0  0  0  0
    5.6742    3.4279   32.9923 H   0  0  0  0  0  0  0  0  0  0  0  0
    6.7933    4.7869   36.2892 H   0  0  0  0  0  0  0  0  0  0  0  0
    5.0632    5.9424   35.2650 H   0  0  0  0  0  0  0  0  0  0  0  0
    5.3213    3.5833   37.5019 H   0  0  0  0  0  0  0  0  0  0  0  0
    4.8200    1.4735   36.7970 H   0  0  0  0  0  0  0  0  0  0  0  0
    3.9785    2.0748   35.3283 H   0  0  0  0  0  0  0  0  0  0  0  0
    5.7655    1.8928   35.3283 H   0  0  0  0  0  0  0  0  0  0  0  0
    3.4197    4.4924   37.2003 H   0  0  0  0  0  0  0  0  0  0  0  0
  1  2  2  0
  1  8  1  0
  2  3  1  0
  2  4  1  0
  4  5  1  0
  5  6  2  0
  5  7  1  0
  7  8  2  0
  7  9  1  0
  8 10  1  0
  9 11  1  0
 10 12  1  0
 11 12  1  0
 11 13  1  0
 13 14  1  0
 13 15  1  0
 15 16  1  0
 15 17  1  0
  3 18  1  0
  3 19  1  0
  4 20  1  0
  9 21  1  0
 10 22  1  0
 11 23  1  6
 12 24  1  0
 12 25  1  0
 13 26  1  1
 14 27  1  0
 15 28  1  1
 16 29  1  0
 16 30  1  0
 16 31  1  0
 17 32  1  0
M  END
>  <filename_input>  (8) 
7TSF_H4B_docked.sdf

>  <pdb_id>  (8) 
7TSF_H4B

>  <pose_rank>  (8) 
7

>  <num_atoms_heavy>  (8) 
17

>  <num_torsions>  (8) 
2

>  <pose>  (8) 
[9.575053555709557, 1.4594843260328432, 32.33740056066369, -2.3277184250943392, 1.0502088584068687, 1.370603491113342, -5.138104318781922, -3.2261859285553087]

>  <energy>  (8) 
-539.7573245051713

>  <inter_energy>  (8) 
-538.51705602845

>  <intra_energy>  (8) 
2.5709461230576545

>  <rmsd>  (8) 
2.82867

>  <sdf_rank>  (8) 
0

$$$$

     RDKit          3D

 32 33  0  0  0  0  0  0  0  0999 V2000
    9.7145    2.8430   34.2536 N   0  0  0  0  0  0  0  0  0  0  0  0
    9.6868    2.3412   32.9998 C   0  0  0  0  0  0  0  0  0  0  0  0
   10.8507    2.2410   32.3152 N   0  0  0  0  0  0  0  0  0  0  0  0
    8.5221    1.9271   32.4467 N   0  0  0  0  0  0  0  0  0  0  0  0
    7.3566    2.0202   33.1313 C   0  0  0  0  0  0  0  0  0  0  0  0
    6.2684    1.6378   32.6277 O   0  0  0  0  0  0  0  0  0  0  0  0
    7.3775    2.5488   34.4089 C   0  0  0  0  0  0  0  0  0  0  0  0
    8.5806    2.9540   34.9638 C   0  0  0  0  0  0  0  0  0  0  0  0
    6.2435    2.6630   35.1320 N   0  0  0  0  0  0  0  0  0  0  0  0
    8.6388    3.4698   36.2235 N   0  0  0  0  0  0  0  0  0  0  0  0
    6.2518    3.6607   36.1978 C   0  0  2  0  0  0  0  0  0  0  0  0
    7.4750    3.5284   37.0916 C   0  0  0  0  0  0  0  0  0  0  0  0
    4.9921    3.5849   37.0435 C   0  0  1  0  0  0  0  0  0  0  0  0
    5.1181    4.4622   38.1654 O   0  0  0  0  0  0  0  0  0  0  0  0
    3.7564    3.9460   36.2260 C   0  0  2  0  0  0  0  0  0  0  0  0
    2.8092    4.7286   37.1201 C   0  0  0  0  0  0  0  0  0  0  0  0
    3.1160    2.7406   35.7613 O   0  0  0  0  0  0  0  0  0  0  0  0
   10.8540    1.8614   31.3577 H   0  0  0  0  0  0  0  0  0  0  0  0
   11.7328    2.5444   32.7519 H   0  0  0  0  0  0  0  0  0  0  0  0
    8.5223    1.5365   31.4937 H   0  0  0  0  0  0  0  0  0  0  0  0
    5.4173    2.0780   34.9422 H   0  0  0  0  0  0  0  0  0  0  0  0
    9.5383    3.8305   36.5723 H   0  0  0  0  0  0  0  0  0  0  0  0
    6.2884    4.6420   35.7019 H   0  0  0  0  0  0  0  0  0  0  0  0
    7.4056    2.6088   37.6912 H   0  0  0  0  0  0  0  0  0  0  0  0
    7.5467    4.3810   37.7830 H   0  0  0  0  0  0  0  0  0  0  0  0
    4.8692    2.5507   37.3975 H   0  0  0  0  0  0  0  0  0  0  0  0
    5.0431    3.9397   39.0030 H   0  0  0  0  0  0  0  0  0  0  0  0
    4.0364    4.5532   35.3526 H   0  0  0  0  0  0  0  0  0  0  0  0
    3.0510    4.5288   38.1744 H   0  0  0  0  0  0  0  0  0  0  0  0
    2.9176    5.8042   36.9165 H   0  0  0  0  0  0  0  0  0  0  0  0
    1.7733    4.4195   36.9165 H   0  0  0  0  0  0  0  0  0  0  0  0
    2.8282    2.1990   36.5385 H   0  0  0  0  0  0  0  0  0  0  0  0
  1  2  2  0
  1  8  1  0
  2  3  1  0
  2  4  1  0
  4  5  1  0
  5  6  2  0
  5  7  1  0
  7  8  2  0
  7  9  1  0
  8 10  1  0
  9 11  1  0
 10 12  1  0
 11 12  1  0
 11 13  1  0
 13 14  1  0
 13 15  1  0
 15 16  1  0
 15 17  1  0
  3 18  1  0
  3 19  1  0
  4 20  1  0
  9 21  1  0
 10 22  1  0
 11 23  1  6
 12 24  1  0
 12 25  1  0
 13 26  1  1
 14 27  1  0
 15 28  1  6
 16 29  1  0
 16 30  1  0
 16 31  1  0
 17 32  1  0
M  END
>  <filename_input>  (9) 
7TSF_H4B_docked.sdf

>  <pdb_id>  (9) 
7TSF_H4B

>  <pose_rank>  (9) 
8

>  <num_atoms_heavy>  (9) 
17

>  <num_torsions>  (9) 
2

>  <pose>  (9) 
[9.714452269054739, 2.843028747466925, 34.253644867149355, -0.09737324714274362, 0.16387412198377876, 0.07051048081428535, 2.0448712301311254, 7.077979849108495]

>  <energy>  (9) 
-599.7734189807265

>  <inter_energy>  (9) 
-592.3590812801399

>  <intra_energy>  (9) 
2.8608326342368744

>  <rmsd>  (9) 
1.36883

>  <sdf_rank>  (9) 
0

$$$$

     RDKit          3D

 32 33  0  0  0  0  0  0  0  0999 V2000
   10.2543    0.6384   32.4963 N   0  0  0  0  0  0  0  0  0  0  0  0
   11.5020    0.4287   32.9694 C   0  0  0  0  0  0  0  0  0  0  0  0
   12.3893   -0.2324   32.1889 N   0  0  0  0  0  0  0  0  0  0  0  0
   11.8645    0.8888   34.1904 N   0  0  0  0  0  0  0  0  0  0  0  0
   10.9810    1.5561   34.9713 C   0  0  0  0  0  0  0  0  0  0  0  0
   11.3069    1.9889   36.1073 O   0  0  0  0  0  0  0  0  0  0  0  0
    9.6975    1.7585   34.4982 C   0  0  0  0  0  0  0  0  0  0  0  0
    9.3489    1.2931   33.2406 C   0  0  0  0  0  0  0  0  0  0  0  0
    8.7804    2.4171   35.2377 N   0  0  0  0  0  0  0  0  0  0  0  0
    8.0965    1.4839   32.7394 N   0  0  0  0  0  0  0  0  0  0  0  0
    7.3801    2.1450   34.9268 C   0  0  2  0  0  0  0  0  0  0  0  0
    7.0931    2.2689   33.4386 C   0  0  0  0  0  0  0  0  0  0  0  0
    6.4479    3.0593   35.7033 C   0  0  1  0  0  0  0  0  0  0  0  0
    6.2129    4.2513   34.9496 O   0  0  0  0  0  0  0  0  0  0  0  0
    5.1277    2.3632   36.0170 C   0  0  2  0  0  0  0  0  0  0  0  0
    4.9919    1.1662   35.0908 C   0  0  0  0  0  0  0  0  0  0  0  0
    4.0358    3.2805   35.8039 O   0  0  0  0  0  0  0  0  0  0  0  0
   13.3464   -0.4038   32.5288 H   0  0  0  0  0  0  0  0  0  0  0  0
   12.1071   -0.5638   31.2554 H   0  0  0  0  0  0  0  0  0  0  0  0
   12.8238    0.7294   34.5296 H   0  0  0  0  0  0  0  0  0  0  0  0
    9.0536    3.0759   35.9808 H   0  0  0  0  0  0  0  0  0  0  0  0
    7.8525    1.0573   31.8342 H   0  0  0  0  0  0  0  0  0  0  0  0
    7.1927    1.1048   35.2314 H   0  0  0  0  0  0  0  0  0  0  0  0
    7.1563    3.3226   33.1292 H   0  0  0  0  0  0  0  0  0  0  0  0
    6.0814    1.9056   33.2050 H   0  0  0  0  0  0  0  0  0  0  0  0
    6.9261    3.3173   36.6597 H   0  0  0  0  0  0  0  0  0  0  0  0
    6.0635    5.0092   35.5688 H   0  0  0  0  0  0  0  0  0  0  0  0
    5.1071    2.0312   37.0655 H   0  0  0  0  0  0  0  0  0  0  0  0
    4.8878    0.2492   35.6895 H   0  0  0  0  0  0  0  0  0  0  0  0
    4.1023    1.2926   34.4562 H   0  0  0  0  0  0  0  0  0  0  0  0
    5.8871    1.0901   34.4562 H   0  0  0  0  0  0  0  0  0  0  0  0
    3.6803    3.5791   36.6783 H   0  0  0  0  0  0  0  0  0  0  0  0
  1  2  2  0
  1  8  1  0
  2  3  1  0
  2  4  1  0
  4  5  1  0
  5  6  2  0
  5  7  1  0
  7  8  2  0
  7  9  1  0
  8 10  1  0
  9 11  1  0
 10 12  1  0
 11 12  1  0
 11 13  1  0
 13 14  1  0
 13 15  1  0
 15 16  1  0
 15 17  1  0
  3 18  1  0
  3 19  1  0
  4 20  1  0
  9 21  1  0
 10 22  1  0
 11 23  1  1
 12 24  1  0
 12 25  1  0
 13 26  1  1
 14 27  1  0
 15 28  1  1
 16 29  1  0
 16 30  1  0
 16 31  1  0
 17 32  1  0
M  END
>  <filename_input>  (10) 
7TSF_H4B_docked.sdf

>  <pdb_id>  (10) 
7TSF_H4B

>  <pose_rank>  (10) 
9

>  <num_atoms_heavy>  (10) 
17

>  <num_torsions>  (10) 
2

>  <pose>  (10) 
[10.254255602113641, 0.6384069902446654, 32.49629663401493, -2.525612800258713, 0.9442698041746693, 1.4827812488317889, -5.69499197006382, -3.3063643990010148]

>  <energy>  (10) 
-422.2859395404253

>  <inter_energy>  (10) 
-441.79078018567213

>  <intra_energy>  (10) 
24.759726079070457

>  <rmsd>  (10) 
3.29135

>  <sdf_rank>  (10) 
0

$$$$

     RDKit          3D

 32 33  0  0  0  0  0  0  0  0999 V2000
    4.0183    0.8516   32.0158 N   0  0  0  0  0  0  0  0  0  0  0  0
    3.6352    0.5945   30.7461 C   0  0  0  0  0  0  0  0  0  0  0  0
    2.3689    0.1697   30.5239 N   0  0  0  0  0  0  0  0  0  0  0  0
    4.4934    0.7782   29.7148 N   0  0  0  0  0  0  0  0  0  0  0  0
    5.7592    1.2092   29.9331 C   0  0  0  0  0  0  0  0  0  0  0  0
    6.5651    1.3842   28.9823 O   0  0  0  0  0  0  0  0  0  0  0  0
    6.1612    1.4576   31.2327 C   0  0  0  0  0  0  0  0  0  0  0  0
    5.2650    1.2778   32.2738 C   0  0  0  0  0  0  0  0  0  0  0  0
    7.4115    1.8881   31.5028 N   0  0  0  0  0  0  0  0  0  0  0  0
    5.6245    1.5227   33.5649 N   0  0  0  0  0  0  0  0  0  0  0  0
    7.9079    1.6327   32.8518 C   0  0  2  0  0  0  0  0  0  0  0  0
    6.9191    2.0814   33.9164 C   0  0  0  0  0  0  0  0  0  0  0  0
    9.2507    2.3027   33.0888 C   0  0  1  0  0  0  0  0  0  0  0  0
    9.2119    3.0239   34.3228 O   0  0  0  0  0  0  0  0  0  0  0  0
   10.3814    1.2796   33.1096 C   0  0  2  0  0  0  0  0  0  0  0  0
   10.9394    1.2192   34.5217 C   0  0  0  0  0  0  0  0  0  0  0  0
   11.4133    1.6819   32.1863 O   0  0  0  0  0  0  0  0  0  0  0  0
    2.0545   -0.0325   29.5641 H   0  0  0  0  0  0  0  0  0  0  0  0
    1.7200    0.0488   31.3146 H   0  0  0  0  0  0  0  0  0  0  0  0
    4.1798    0.5880   28.7523 H   0  0  0  0  0  0  0  0  0  0  0  0
    7.9844    2.3705   30.7956 H   0  0  0  0  0  0  0  0  0  0  0  0
    4.9560    1.3045   34.3175 H   0  0  0  0  0  0  0  0  0  0  0  0
    8.0352    0.5432   32.9330 H   0  0  0  0  0  0  0  0  0  0  0  0
    6.8619    3.1797   33.9384 H   0  0  0  0  0  0  0  0  0  0  0  0
    7.2351    1.7370   34.9121 H   0  0  0  0  0  0  0  0  0  0  0  0
    9.4453    3.0005   32.2611 H   0  0  0  0  0  0  0  0  0  0  0  0
    9.2462    2.3859   35.0790 H   0  0  0  0  0  0  0  0  0  0  0  0
   10.0097    0.2887   32.8098 H   0  0  0  0  0  0  0  0  0  0  0  0
   10.1160    1.3084   35.2455 H   0  0  0  0  0  0  0  0  0  0  0  0
   11.4564    0.2597   34.6709 H   0  0  0  0  0  0  0  0  0  0  0  0
   11.6499    2.0456   34.6709 H   0  0  0  0  0  0  0  0  0  0  0  0
   12.2063    1.9911   32.6919 H   0  0  0  0  0  0  0  0  0  0  0  0
  1  2  2  0
  1  8  1  0
  2  3  1  0
  2  4  1  0
  4  5  1  0
  5  6  2  0
  5  7  1  0
  7  8  2  0
  7  9  1  0
  8 10  1  0
  9 11  1  0
 10 12  1  0
 11 12  1  0
 11 13  1  0
 13 14  1  0
 13 15  1  0
 15 16  1  0
 15 17  1  0
  3 18  1  0
  3 19  1  0
  4 20  1  0
  9 21  1  0
 10 22  1  0
 11 23  1  6
 12 24  1  0
 12 25  1  0
 13 26  1  6
 14 27  1  0
 15 28  1  6
 16 29  1  0
 16 30  1  0
 16 31  1  0
 17 32  1  0
M  END
>  <filename_input>  (11) 
7TSF_H4B_docked.sdf

>  <pdb_id>  (11) 
7TSF_H4B

>  <pose_rank>  (11) 
10

>  <num_atoms_heavy>  (11) 
17

>  <num_torsions>  (11) 
2

>  <pose>  (11) 
[4.018327105403112, 0.851649874597516, 32.01575304272382, -0.23069660935474753, -0.6001298182439407, -2.7635024922348297, 1.3164057398786349, 1.3239101755499887]

>  <energy>  (11) 
-399.39714913893033

>  <inter_energy>  (11) 
-397.71913384493104

>  <intra_energy>  (11) 
0.0

>  <rmsd>  (11) 
5.80068

>  <sdf_rank>  (11) 
0

$$$$

     RDKit          3D

 32 33  0  0  0  0  0  0  0  0999 V2000
    9.5618    2.6003   34.2173 N   0  0  0  0  0  0  0  0  0  0  0  0
    9.5626    2.2368   32.9163 C   0  0  0  0  0  0  0  0  0  0  0  0
   10.7501    2.1152   32.2772 N   0  0  0  0  0  0  0  0  0  0  0  0
    8.4007    1.9786   32.2703 N   0  0  0  0  0  0  0  0  0  0  0  0
    7.2111    2.0931   32.9085 C   0  0  0  0  0  0  0  0  0  0  0  0
    6.1252    1.8549   32.3186 O   0  0  0  0  0  0  0  0  0  0  0  0
    7.2044    2.4812   34.2358 C   0  0  0  0  0  0  0  0  0  0  0  0
    8.4037    2.7273   34.8843 C   0  0  0  0  0  0  0  0  0  0  0  0
    6.0457    2.6101   34.9159 N   0  0  0  0  0  0  0  0  0  0  0  0
    8.4342    3.1016   36.1939 N   0  0  0  0  0  0  0  0  0  0  0  0
    6.0732    3.4865   36.0832 C   0  0  2  0  0  0  0  0  0  0  0  0
    7.2339    3.1627   37.0108 C   0  0  0  0  0  0  0  0  0  0  0  0
    4.7684    3.4243   36.8590 C   0  0  1  0  0  0  0  0  0  0  0  0
    4.8469    4.2911   37.9933 O   0  0  0  0  0  0  0  0  0  0  0  0
    3.5846    3.8111   35.9789 C   0  0  2  0  0  0  0  0  0  0  0  0
    2.5389    4.4770   36.8576 C   0  0  0  0  0  0  0  0  0  0  0  0
    3.0342    2.6290   35.3635 O   0  0  0  0  0  0  0  0  0  0  0  0
   10.7752    1.8393   31.2852 H   0  0  0  0  0  0  0  0  0  0  0  0
   11.6283    2.2988   32.7831 H   0  0  0  0  0  0  0  0  0  0  0  0
    8.4217    1.6914   31.2814 H   0  0  0  0  0  0  0  0  0  0  0  0
    5.1888    2.1170   34.6271 H   0  0  0  0  0  0  0  0  0  0  0  0
    9.3387    3.3498   36.6195 H   0  0  0  0  0  0  0  0  0  0  0  0
    6.2099    4.5082   35.6993 H   0  0  0  0  0  0  0  0  0  0  0  0
    7.0637    2.1938   37.5031 H   0  0  0  0  0  0  0  0  0  0  0  0
    7.3334    3.9293   37.7934 H   0  0  0  0  0  0  0  0  0  0  0  0
    4.6106    2.3896   37.1972 H   0  0  0  0  0  0  0  0  0  0  0  0
    4.7983    3.7537   38.8233 H   0  0  0  0  0  0  0  0  0  0  0  0
    3.9043    4.5028   35.1855 H   0  0  0  0  0  0  0  0  0  0  0  0
    2.7924    4.3156   37.9157 H   0  0  0  0  0  0  0  0  0  0  0  0
    2.5160    5.5563   36.6466 H   0  0  0  0  0  0  0  0  0  0  0  0
    1.5512    4.0412   36.6466 H   0  0  0  0  0  0  0  0  0  0  0  0
    2.7400    1.9973   36.0667 H   0  0  0  0  0  0  0  0  0  0  0  0
  1  2  2  0
  1  8  1  0
  2  3  1  0
  2  4  1  0
  4  5  1  0
  5  6  2  0
  5  7  1  0
  7  8  2  0
  7  9  1  0
  8 10  1  0
  9 11  1  0
 10 12  1  0
 11 12  1  0
 11 13  1  0
 13 14  1  0
 13 15  1  0
 15 16  1  0
 15 17  1  0
  3 18  1  0
  3 19  1  0
  4 20  1  0
  9 21  1  0
 10 22  1  0
 11 23  1  6
 12 24  1  0
 12 25  1  0
 13 26  1  1
 14 27  1  0
 15 28  1  6
 16 29  1  0
 16 30  1  0
 16 31  1  0
 17 32  1  0
M  END
>  <filename_input>  (12) 
7TSF_H4B_docked.sdf

>  <pdb_id>  (12) 
7TSF_H4B

>  <pose_rank>  (12) 
11

>  <num_atoms_heavy>  (12) 
17

>  <num_torsions>  (12) 
2

>  <pose>  (12) 
[9.561846133141437, 2.60026477550407, 34.21730696421281, 0.014379559368625939, 0.11482941960335656, -0.0014044996648303297, 2.162540599482219, 6.978483526992773]

>  <energy>  (12) 
-589.1247018441755

>  <inter_energy>  (12) 
-589.0079086852428

>  <intra_energy>  (12) 
6.218331699067926

>  <rmsd>  (12) 
1.38093

>  <sdf_rank>  (12) 
0

$$$$

     RDKit          3D

 32 33  0  0  0  0  0  0  0  0999 V2000
   10.0525    1.9158   34.2095 N   0  0  0  0  0  0  0  0  0  0  0  0
   10.1994    1.4887   32.9364 C   0  0  0  0  0  0  0  0  0  0  0  0
   11.4127    1.0374   32.5394 N   0  0  0  0  0  0  0  0  0  0  0  0
    9.1495    1.4917   32.0811 N   0  0  0  0  0  0  0  0  0  0  0  0
    7.9326    1.9367   32.4769 C   0  0  0  0  0  0  0  0  0  0  0  0
    6.9497    1.9434   31.6910 O   0  0  0  0  0  0  0  0  0  0  0  0
    7.7815    2.3907   33.7744 C   0  0  0  0  0  0  0  0  0  0  0  0
    8.8633    2.3667   34.6396 C   0  0  0  0  0  0  0  0  0  0  0  0
    6.5899    2.8443   34.2172 N   0  0  0  0  0  0  0  0  0  0  0  0
    8.7472    2.7971   35.9270 N   0  0  0  0  0  0  0  0  0  0  0  0
    6.6258    3.7524   35.3598 C   0  0  2  0  0  0  0  0  0  0  0  0
    7.4736    3.2034   36.4966 C   0  0  0  0  0  0  0  0  0  0  0  0
    5.2290    4.0633   35.8701 C   0  0  1  0  0  0  0  0  0  0  0  0
    4.4031    2.9042   35.7337 O   0  0  0  0  0  0  0  0  0  0  0  0
    5.2624    4.5207   37.3245 C   0  0  2  0  0  0  0  0  0  0  0  0
    3.8292    4.6824   37.8031 C   0  0  0  0  0  0  0  0  0  0  0  0
    5.9608    5.7786   37.4190 O   0  0  0  0  0  0  0  0  0  0  0  0
   11.5483    0.7067   31.5734 H   0  0  0  0  0  0  0  0  0  0  0  0
   12.2000    1.0249   33.2033 H   0  0  0  0  0  0  0  0  0  0  0  0
    9.2778    1.1515   31.1174 H   0  0  0  0  0  0  0  0  0  0  0  0
    5.7035    2.5649   33.7732 H   0  0  0  0  0  0  0  0  0  0  0  0
    9.5909    2.8357   36.5167 H   0  0  0  0  0  0  0  0  0  0  0  0
    7.0881    4.6834   35.0000 H   0  0  0  0  0  0  0  0  0  0  0  0
    6.9732    2.3381   36.9558 H   0  0  0  0  0  0  0  0  0  0  0  0
    7.6205    3.9650   37.2766 H   0  0  0  0  0  0  0  0  0  0  0  0
    4.8114    4.8851   35.2699 H   0  0  0  0  0  0  0  0  0  0  0  0
    4.1608    2.5642   36.6314 H   0  0  0  0  0  0  0  0  0  0  0  0
    5.7858    3.7815   37.9487 H   0  0  0  0  0  0  0  0  0  0  0  0
    3.8079    4.6848   38.9028 H   0  0  0  0  0  0  0  0  0  0  0  0
    3.4218    5.6322   37.4264 H   0  0  0  0  0  0  0  0  0  0  0  0
    3.2204    3.8472   37.4264 H   0  0  0  0  0  0  0  0  0  0  0  0
    6.0910    6.0130   38.3720 H   0  0  0  0  0  0  0  0  0  0  0  0
  1  2  2  0
  1  8  1  0
  2  3  1  0
  2  4  1  0
  4  5  1  0
  5  6  2  0
  5  7  1  0
  7  8  2  0
  7  9  1  0
  8 10  1  0
  9 11  1  0
 10 12  1  0
 11 12  1  0
 11 13  1  0
 13 14  1  0
 13 15  1  0
 15 16  1  0
 15 17  1  0
  3 18  1  0
  3 19  1  0
  4 20  1  0
  9 21  1  0
 10 22  1  0
 11 23  1  6
 12 24  1  0
 12 25  1  0
 13 26  1  6
 14 27  1  0
 15 28  1  1
 16 29  1  0
 16 30  1  0
 16 31  1  0
 17 32  1  0
M  END
>  <filename_input>  (13) 
7TSF_H4B_docked.sdf

>  <pdb_id>  (13) 
7TSF_H4B

>  <pose_rank>  (13) 
12

>  <num_atoms_heavy>  (13) 
17

>  <num_torsions>  (13) 
2

>  <pose>  (13) 
[10.052454342664529, 1.9158461183081297, 34.20951424609912, 0.11259291140428535, 1.7630505195187598, 5.7471350000085915, -0.3572004863731473, 6.5234967681712535]

>  <energy>  (13) 
-584.8874441135351

>  <inter_energy>  (13) 
-582.9990219368193

>  <intra_energy>  (13) 
6.743256444557989

>  <rmsd>  (13) 
0.65357

>  <sdf_rank>  (13) 
0

$$$$

     RDKit          3D

 32 33  0  0  0  0  0  0  0  0999 V2000
    2.3702    3.1503   27.6981 N   0  0  0  0  0  0  0  0  0  0  0  0
    3.5909    2.9663   28.2466 C   0  0  0  0  0  0  0  0  0  0  0  0
    4.4677    3.9980   28.2394 N   0  0  0  0  0  0  0  0  0  0  0  0
    3.9233    1.7811   28.8110 N   0  0  0  0  0  0  0  0  0  0  0  0
    3.0461    0.7486   28.8255 C   0  0  0  0  0  0  0  0  0  0  0  0
    3.3437   -0.3570   29.3479 O   0  0  0  0  0  0  0  0  0  0  0  0
    1.8012    0.9269   28.2503 C   0  0  0  0  0  0  0  0  0  0  0  0
    1.4737    2.1511   27.6903 C   0  0  0  0  0  0  0  0  0  0  0  0
    0.8920   -0.0705   28.2388 N   0  0  0  0  0  0  0  0  0  0  0  0
    0.2529    2.3644   27.1242 N   0  0  0  0  0  0  0  0  0  0  0  0
   -0.1384    0.0033   27.2072 C   0  0  2  0  0  0  0  0  0  0  0  0
   -0.8053    1.3693   27.1658 C   0  0  0  0  0  0  0  0  0  0  0  0
   -1.1938   -1.0734   27.3941 C   0  0  1  0  0  0  0  0  0  0  0  0
   -1.8602   -1.3081   26.1511 O   0  0  0  0  0  0  0  0  0  0  0  0
   -0.5759   -2.3667   27.9152 C   0  0  2  0  0  0  0  0  0  0  0  0
   -0.6611   -3.4097   26.8134 C   0  0  0  0  0  0  0  0  0  0  0  0
   -1.3020   -2.8142   29.0778 O   0  0  0  0  0  0  0  0  0  0  0  0
    5.4042    3.8809   28.6518 H   0  0  0  0  0  0  0  0  0  0  0  0
    4.1982    4.9000   27.8214 H   0  0  0  0  0  0  0  0  0  0  0  0
    4.8547    1.6630   29.2346 H   0  0  0  0  0  0  0  0  0  0  0  0
    0.9235   -0.8418   28.9207 H   0  0  0  0  0  0  0  0  0  0  0  0
    0.0740    3.2614   26.6506 H   0  0  0  0  0  0  0  0  0  0  0  0
    0.3728   -0.1630   26.2475 H   0  0  0  0  0  0  0  0  0  0  0  0
   -1.4234    1.5141   28.0641 H   0  0  0  0  0  0  0  0  0  0  0  0
   -1.4586    1.4578   26.2852 H   0  0  0  0  0  0  0  0  0  0  0  0
   -1.9217   -0.7249   28.1415 H   0  0  0  0  0  0  0  0  0  0  0  0
   -2.7794   -1.6317   26.3254 H   0  0  0  0  0  0  0  0  0  0  0  0
    0.4745   -2.2047   28.1988 H   0  0  0  0  0  0  0  0  0  0  0  0
   -0.7428   -4.4109   27.2617 H   0  0  0  0  0  0  0  0  0  0  0  0
   -1.5462   -3.2136   26.1904 H   0  0  0  0  0  0  0  0  0  0  0  0
    0.2441   -3.3598   26.1904 H   0  0  0  0  0  0  0  0  0  0  0  0
   -0.8275   -2.5217   29.8960 H   0  0  0  0  0  0  0  0  0  0  0  0
  1  2  2  0
  1  8  1  0
  2  3  1  0
  2  4  1  0
  4  5  1  0
  5  6  2  0
  5  7  1  0
  7  8  2  0
  7  9  1  0
  8 10  1  0
  9 11  1  0
 10 12  1  0
 11 12  1  0
 11 13  1  0
 13 14  1  0
 13 15  1  0
 15 16  1  0
 15 17  1  0
  3 18  1  0
  3 19  1  0
  4 20  1  0
  9 21  1  0
 10 22  1  0
 11 23  1  6
 12 24  1  0
 12 25  1  0
 13 26  1  1
 14 27  1  0
 15 28  1  1
 16 29  1  0
 16 30  1  0
 16 31  1  0
 17 32  1  0
M  END
>  <filename_input>  (14) 
7TSF_H4B_docked.sdf

>  <pdb_id>  (14) 
7TSF_H4B

>  <pose_rank>  (14) 
13

>  <num_atoms_heavy>  (14) 
17

>  <num_torsions>  (14) 
2

>  <pose>  (14) 
[2.370223784467613, 3.1503091164774424, 27.698091041158445, 3.1295839521922364, 1.8713171050741568, -2.0274141092621183, 2.55359249830774, 1.343163153040941]

>  <energy>  (14) 
-138.12365743632935

>  <inter_energy>  (14) 
-138.87584323181954

>  <intra_energy>  (14) 
0.0

>  <rmsd>  (14) 
10.2995

>  <sdf_rank>  (14) 
0

$$$$

     RDKit          3D

 32 33  0  0  0  0  0  0  0  0999 V2000
   12.3886   -0.0856   41.6628 N   0  0  0  0  0  0  0  0  0  0  0  0
   12.0747   -0.4712   40.4068 C   0  0  0  0  0  0  0  0  0  0  0  0
   11.6274   -1.7337   40.2082 N   0  0  0  0  0  0  0  0  0  0  0  0
   12.1849    0.3937   39.3706 N   0  0  0  0  0  0  0  0  0  0  0  0
   12.6262    1.6596   39.5667 C   0  0  0  0  0  0  0  0  0  0  0  0
   12.7319    2.4722   38.6115 O   0  0  0  0  0  0  0  0  0  0  0  0
   12.9647    2.0537   40.8482 C   0  0  0  0  0  0  0  0  0  0  0  0
   12.8319    1.1595   41.8982 C   0  0  0  0  0  0  0  0  0  0  0  0
   13.4095    3.3037   41.0959 N   0  0  0  0  0  0  0  0  0  0  0  0
   13.1467    1.5176   43.1744 N   0  0  0  0  0  0  0  0  0  0  0  0
   14.2088    3.4798   42.3048 C   0  0  2  0  0  0  0  0  0  0  0  0
   13.5353    2.8730   43.5258 C   0  0  0  0  0  0  0  0  0  0  0  0
   14.5114    4.9456   42.5656 C   0  0  1  0  0  0  0  0  0  0  0  0
   15.7609    5.0594   43.2511 O   0  0  0  0  0  0  0  0  0  0  0  0
   14.5474    5.7411   41.2650 C   0  0  2  0  0  0  0  0  0  0  0  0
   15.9921    5.8256   40.8015 C   0  0  0  0  0  0  0  0  0  0  0  0
   14.0227    7.0645   41.4941 O   0  0  0  0  0  0  0  0  0  0  0  0
   11.3820   -2.0498   39.2592 H   0  0  0  0  0  0  0  0  0  0  0  0
   11.5324   -2.3779   41.0063 H   0  0  0  0  0  0  0  0  0  0  0  0
   11.9301    0.0853   38.4215 H   0  0  0  0  0  0  0  0  0  0  0  0
   13.1967    4.0905   40.4662 H   0  0  0  0  0  0  0  0  0  0  0  0
   13.1079    0.8033   43.9155 H   0  0  0  0  0  0  0  0  0  0  0  0
   15.1553    2.9473   42.1296 H   0  0  0  0  0  0  0  0  0  0  0  0
   12.6463    3.4614   43.7969 H   0  0  0  0  0  0  0  0  0  0  0  0
   14.2186    2.8717   44.3878 H   0  0  0  0  0  0  0  0  0  0  0  0
   13.7091    5.3631   43.1917 H   0  0  0  0  0  0  0  0  0  0  0  0
   15.6036    5.0451   44.2285 H   0  0  0  0  0  0  0  0  0  0  0  0
   13.9341    5.2492   40.4956 H   0  0  0  0  0  0  0  0  0  0  0  0
   16.6565    5.8645   41.6773 H   0  0  0  0  0  0  0  0  0  0  0  0
   16.2352    4.9402   40.1958 H   0  0  0  0  0  0  0  0  0  0  0  0
   16.1303    6.7334   40.1958 H   0  0  0  0  0  0  0  0  0  0  0  0
   13.9573    7.2296   42.4680 H   0  0  0  0  0  0  0  0  0  0  0  0
  1  2  2  0
  1  8  1  0
  2  3  1  0
  2  4  1  0
  4  5  1  0
  5  6  2  0
  5  7  1  0
  7  8  2  0
  7  9  1  0
  8 10  1  0
  9 11  1  0
 10 12  1  0
 11 12  1  0
 11 13  1  0
 13 14  1  0
 13 15  1  0
 15 16  1  0
 15 17  1  0
  3 18  1  0
  3 19  1  0
  4 20  1  0
  9 21  1  0
 10 22  1  0
 11 23  1  6
 12 24  1  0
 12 25  1  0
 13 26  1  1
 14 27  1  0
 15 28  1  6
 16 29  1  0
 16 30  1  0
 16 31  1  0
 17 32  1  0
M  END
>  <filename_input>  (15) 
7TSF_H4B_docked.sdf

>  <pdb_id>  (15) 
7TSF_H4B

>  <pose_rank>  (15) 
14

>  <num_atoms_heavy>  (15) 
17

>  <num_torsions>  (15) 
2

>  <pose>  (15) 
[12.388554751332677, -0.08564000136248313, 41.66280916685936, -0.12048261078849737, -0.3035976020289716, -1.8403173609790624, 2.68423217758352, 1.6289421349691455]

>  <energy>  (15) 
-203.17310362858004

>  <inter_energy>  (15) 
-190.0485814015447

>  <intra_energy>  (15) 
0.18415220333838322

>  <rmsd>  (15) 
9.95072

>  <sdf_rank>  (15) 
0

$$$$

     RDKit          3D

 32 33  0  0  0  0  0  0  0  0999 V2000
   10.7237   -2.1430   39.5167 N   0  0  0  0  0  0  0  0  0  0  0  0
   10.8480   -3.4443   39.8571 C   0  0  0  0  0  0  0  0  0  0  0  0
   10.1898   -4.3727   39.1234 N   0  0  0  0  0  0  0  0  0  0  0  0
   11.6317   -3.8145   40.8975 N   0  0  0  0  0  0  0  0  0  0  0  0
   12.2967   -2.8887   41.6299 C   0  0  0  0  0  0  0  0  0  0  0  0
   13.0284   -3.2212   42.5984 O   0  0  0  0  0  0  0  0  0  0  0  0
   12.1591   -1.5539   41.2957 C   0  0  0  0  0  0  0  0  0  0  0  0
   11.3643   -1.1951   40.2191 C   0  0  0  0  0  0  0  0  0  0  0  0
   12.8003   -0.5933   41.9940 N   0  0  0  0  0  0  0  0  0  0  0  0
   11.2147    0.1096   39.8560 N   0  0  0  0  0  0  0  0  0  0  0  0
   12.2253    0.7471   41.9313 C   0  0  2  0  0  0  0  0  0  0  0  0
   11.9526    1.1829   40.5001 C   0  0  0  0  0  0  0  0  0  0  0  0
   13.1173    1.7699   42.6142 C   0  0  1  0  0  0  0  0  0  0  0  0
   13.3774    2.8508   41.7151 O   0  0  0  0  0  0  0  0  0  0  0  0
   12.4772    2.2911   43.8965 C   0  0  2  0  0  0  0  0  0  0  0  0
   13.4511    3.2546   44.5542 C   0  0  0  0  0  0  0  0  0  0  0  0
   12.2000    1.1866   44.7810 O   0  0  0  0  0  0  0  0  0  0  0  0
   10.2698   -5.3709   39.3643 H   0  0  0  0  0  0  0  0  0  0  0  0
    9.6092   -4.0806   38.3243 H   0  0  0  0  0  0  0  0  0  0  0  0
   11.7235   -4.8125   41.1351 H   0  0  0  0  0  0  0  0  0  0  0  0
   13.6492   -0.7950   42.5415 H   0  0  0  0  0  0  0  0  0  0  0  0
   10.5560    0.3430   39.0993 H   0  0  0  0  0  0  0  0  0  0  0  0
   11.2664    0.6973   42.4680 H   0  0  0  0  0  0  0  0  0  0  0  0
   12.9018    1.3571   39.9721 H   0  0  0  0  0  0  0  0  0  0  0  0
   11.3755    2.1192   40.4808 H   0  0  0  0  0  0  0  0  0  0  0  0
   14.0648    1.2823   42.8869 H   0  0  0  0  0  0  0  0  0  0  0  0
   13.5748    3.6709   42.2334 H   0  0  0  0  0  0  0  0  0  0  0  0
   11.5317    2.8069   43.6729 H   0  0  0  0  0  0  0  0  0  0  0  0
   13.3670    3.1714   45.6478 H   0  0  0  0  0  0  0  0  0  0  0  0
   14.4773    3.0064   44.2454 H   0  0  0  0  0  0  0  0  0  0  0  0
   13.2139    4.2834   44.2454 H   0  0  0  0  0  0  0  0  0  0  0  0
   12.2760    1.4892   45.7206 H   0  0  0  0  0  0  0  0  0  0  0  0
  1  2  2  0
  1  8  1  0
  2  3  1  0
  2  4  1  0
  4  5  1  0
  5  6  2  0
  5  7  1  0
  7  8  2  0
  7  9  1  0
  8 10  1  0
  9 11  1  0
 10 12  1  0
 11 12  1  0
 11 13  1  0
 13 14  1  0
 13 15  1  0
 15 16  1  0
 15 17  1  0
  3 18  1  0
  3 19  1  0
  4 20  1  0
  9 21  1  0
 10 22  1  0
 11 23  1  1
 12 24  1  0
 12 25  1  0
 13 26  1  1
 14 27  1  0
 15 28  1  6
 16 29  1  0
 16 30  1  0
 16 31  1  0
 17 32  1  0
M  END
>  <filename_input>  (16) 
7TSF_H4B_docked.sdf

>  <pdb_id>  (16) 
7TSF_H4B

>  <pose_rank>  (16) 
15

>  <num_atoms_heavy>  (16) 
17

>  <num_torsions>  (16) 
2

>  <pose>  (16) 
[10.723669691877022, -2.1429740746656027, 39.51670303455071, 1.438284724854441, -2.9485195198143126, -1.6429495394489808, 1.2421016905712805, 0.10007990470985488]

>  <energy>  (16) 
-199.54525417831238

>  <inter_energy>  (16) 
-182.42843985389857

>  <intra_energy>  (16) 
0.5799793668294928

>  <rmsd>  (16) 
9.97491

>  <sdf_rank>  (16) 
0

$$$$

     RDKit          3D

 32 33  0  0  0  0  0  0  0  0999 V2000
   12.7213   -3.2924   42.4439 N   0  0  0  0  0  0  0  0  0  0  0  0
   11.7684   -3.6874   41.5717 C   0  0  0  0  0  0  0  0  0  0  0  0
   11.5344   -5.0127   41.4226 N   0  0  0  0  0  0  0  0  0  0  0  0
   11.0473   -2.7760   40.8766 N   0  0  0  0  0  0  0  0  0  0  0  0
   11.2745   -1.4489   41.0281 C   0  0  0  0  0  0  0  0  0  0  0  0
   10.6100   -0.5929   40.3880 O   0  0  0  0  0  0  0  0  0  0  0  0
   12.2606   -1.0403   41.9073 C   0  0  0  0  0  0  0  0  0  0  0  0
   12.9784   -1.9866   42.6205 C   0  0  0  0  0  0  0  0  0  0  0  0
   12.5256    0.2699   42.0936 N   0  0  0  0  0  0  0  0  0  0  0  0
   13.9497   -1.6188   43.5022 N   0  0  0  0  0  0  0  0  0  0  0  0
   13.8558    0.5969   42.5986 C   0  0  2  0  0  0  0  0  0  0  0  0
   14.2177   -0.2273   43.8242 C   0  0  0  0  0  0  0  0  0  0  0  0
   13.9818    2.0756   42.9237 C   0  0  1  0  0  0  0  0  0  0  0  0
   12.7456    2.5521   43.4612 O   0  0  0  0  0  0  0  0  0  0  0  0
   15.1189    2.3289   43.9079 C   0  0  2  0  0  0  0  0  0  0  0  0
   14.8823    3.6770   44.5681 C   0  0  0  0  0  0  0  0  0  0  0  0
   16.3758    2.3374   43.2014 O   0  0  0  0  0  0  0  0  0  0  0  0
   10.8126   -5.3372   40.7634 H   0  0  0  0  0  0  0  0  0  0  0  0
   12.0782   -5.6962   41.9684 H   0  0  0  0  0  0  0  0  0  0  0  0
   10.3168   -3.0956   40.2246 H   0  0  0  0  0  0  0  0  0  0  0  0
   11.8274    0.9994   41.8906 H   0  0  0  0  0  0  0  0  0  0  0  0
   14.5133   -2.3519   43.9560 H   0  0  0  0  0  0  0  0  0  0  0  0
   14.5618    0.3490   41.7924 H   0  0  0  0  0  0  0  0  0  0  0  0
   13.6051    0.0853   44.6827 H   0  0  0  0  0  0  0  0  0  0  0  0
   15.2754   -0.0855   44.0912 H   0  0  0  0  0  0  0  0  0  0  0  0
   14.2137    2.6200   41.9965 H   0  0  0  0  0  0  0  0  0  0  0  0
   12.7876    2.5359   44.4502 H   0  0  0  0  0  0  0  0  0  0  0  0
   15.1511    1.5374   44.6711 H   0  0  0  0  0  0  0  0  0  0  0  0
   14.9031    3.5586   45.6615 H   0  0  0  0  0  0  0  0  0  0  0  0
   15.6708    4.3795   44.2603 H   0  0  0  0  0  0  0  0  0  0  0  0
   13.9016    4.0689   44.2603 H   0  0  0  0  0  0  0  0  0  0  0  0
   17.1208    2.3425   43.8533 H   0  0  0  0  0  0  0  0  0  0  0  0
  1  2  2  0
  1  8  1  0
  2  3  1  0
  2  4  1  0
  4  5  1  0
  5  6  2  0
  5  7  1  0
  7  8  2  0
  7  9  1  0
  8 10  1  0
  9 11  1  0
 10 12  1  0
 11 12  1  0
 11 13  1  0
 13 14  1  0
 13 15  1  0
 15 16  1  0
 15 17  1  0
  3 18  1  0
  3 19  1  0
  4 20  1  0
  9 21  1  0
 10 22  1  0
 11 23  1  6
 12 24  1  0
 12 25  1  0
 13 26  1  6
 14 27  1  0
 15 28  1  1
 16 29  1  0
 16 30  1  0
 16 31  1  0
 17 32  1  0
M  END
>  <filename_input>  (17) 
7TSF_H4B_docked.sdf

>  <pdb_id>  (17) 
7TSF_H4B

>  <pose_rank>  (17) 
16

>  <num_atoms_heavy>  (17) 
17

>  <num_torsions>  (17) 
2

>  <pose>  (17) 
[12.72131922929769, -3.292385971199244, 42.44387215792564, -0.5574621812901868, 0.264080497662174, -1.4738892843665607, -0.3377877472470192, 0.5006403433511584]

>  <energy>  (17) 
-192.01976315501372

>  <inter_energy>  (17) 
-183.54600596945252

>  <intra_energy>  (17) 
1.090743870115547

>  <rmsd>  (17) 
11.0645

>  <sdf_rank>  (17) 
0

$$$$

     RDKit          3D

 32 33  0  0  0  0  0  0  0  0999 V2000
    5.9955   -4.0677   27.9602 N   0  0  0  0  0  0  0  0  0  0  0  0
    5.8565   -4.4122   26.6614 C   0  0  0  0  0  0  0  0  0  0  0  0
    6.5658   -5.4648   26.1899 N   0  0  0  0  0  0  0  0  0  0  0  0
    5.0093   -3.7322   25.8530 N   0  0  0  0  0  0  0  0  0  0  0  0
    4.2934   -2.6824   26.3231 C   0  0  0  0  0  0  0  0  0  0  0  0
    3.5025   -2.0436   25.5812 O   0  0  0  0  0  0  0  0  0  0  0  0
    4.4449   -2.3154   27.6478 C   0  0  0  0  0  0  0  0  0  0  0  0
    5.3056   -3.0319   28.4636 C   0  0  0  0  0  0  0  0  0  0  0  0
    3.7547   -1.2769   28.1642 N   0  0  0  0  0  0  0  0  0  0  0  0
    5.4713   -2.7040   29.7755 N   0  0  0  0  0  0  0  0  0  0  0  0
    4.3252   -0.6448   29.3501 C   0  0  2  0  0  0  0  0  0  0  0  0
    4.6874   -1.6635   30.4194 C   0  0  0  0  0  0  0  0  0  0  0  0
    3.3854    0.3957   29.9350 C   0  0  1  0  0  0  0  0  0  0  0  0
    2.9066   -0.0550   31.2046 O   0  0  0  0  0  0  0  0  0  0  0  0
    4.0794    1.7459   30.0807 C   0  0  2  0  0  0  0  0  0  0  0  0
    3.4942    2.6931   29.0466 C   0  0  0  0  0  0  0  0  0  0  0  0
    5.4956    1.5868   29.8610 O   0  0  0  0  0  0  0  0  0  0  0  0
    6.4759   -5.7458   25.2030 H   0  0  0  0  0  0  0  0  0  0  0  0
    7.1952   -5.9846   26.8181 H   0  0  0  0  0  0  0  0  0  0  0  0
    4.9079   -4.0167   24.8683 H   0  0  0  0  0  0  0  0  0  0  0  0
    2.8734   -0.9482   27.7445 H   0  0  0  0  0  0  0  0  0  0  0  0
    6.1761   -3.2108   30.3298 H   0  0  0  0  0  0  0  0  0  0  0  0
    5.2477   -0.1447   29.0199 H   0  0  0  0  0  0  0  0  0  0  0  0
    3.7734   -2.0948   30.8537 H   0  0  0  0  0  0  0  0  0  0  0  0
    5.2594   -1.1902   31.2311 H   0  0  0  0  0  0  0  0  0  0  0  0
    2.5368    0.5276   29.2477 H   0  0  0  0  0  0  0  0  0  0  0  0
    3.3995    0.4090   31.9269 H   0  0  0  0  0  0  0  0  0  0  0  0
    3.9249    2.1512   31.0915 H   0  0  0  0  0  0  0  0  0  0  0  0
    2.9820    3.5221   29.5570 H   0  0  0  0  0  0  0  0  0  0  0  0
    4.3025    3.0936   28.4171 H   0  0  0  0  0  0  0  0  0  0  0  0
    2.7743    2.1494   28.4171 H   0  0  0  0  0  0  0  0  0  0  0  0
    5.9610    1.5346   30.7332 H   0  0  0  0  0  0  0  0  0  0  0  0
  1  2  2  0
  1  8  1  0
  2  3  1  0
  2  4  1  0
  4  5  1  0
  5  6  2  0
  5  7  1  0
  7  8  2  0
  7  9  1  0
  8 10  1  0
  9 11  1  0
 10 12  1  0
 11 12  1  0
 11 13  1  0
 13 14  1  0
 13 15  1  0
 15 16  1  0
 15 17  1  0
  3 18  1  0
  3 19  1  0
  4 20  1  0
  9 21  1  0
 10 22  1  0
 11 23  1  6
 12 24  1  0
 12 25  1  0
 13 26  1  6
 14 27  1  0
 15 28  1  1
 16 29  1  0
 16 30  1  0
 16 31  1  0
 17 32  1  0
M  END
>  <filename_input>  (18) 
7TSF_H4B_docked.sdf

>  <pdb_id>  (18) 
7TSF_H4B

>  <pose_rank>  (18) 
17

>  <num_atoms_heavy>  (18) 
17

>  <num_torsions>  (18) 
2

>  <pose>  (18) 
[5.995488735521829, -4.0676925613623425, 27.960192083682582, -0.18567856507633082, 0.2574345231643345, 5.378448195762937, -5.298293351866753, -1.0905464713621627]

>  <energy>  (18) 
-176.95431887645375

>  <inter_energy>  (18) 
-178.58155625863233

>  <intra_energy>  (18) 
1.254229211337385

>  <rmsd>  (18) 
8.54774

>  <sdf_rank>  (18) 
0

$$$$

     RDKit          3D

 32 33  0  0  0  0  0  0  0  0999 V2000
   13.1126    5.6414   42.2270 N   0  0  0  0  0  0  0  0  0  0  0  0
   14.3979    5.4834   41.8425 C   0  0  0  0  0  0  0  0  0  0  0  0
   14.7857    4.2821   41.3529 N   0  0  0  0  0  0  0  0  0  0  0  0
   15.2752    6.5117   41.9251 N   0  0  0  0  0  0  0  0  0  0  0  0
   14.8888    7.7170   42.4086 C   0  0  0  0  0  0  0  0  0  0  0  0
   15.6952    8.6799   42.4892 O   0  0  0  0  0  0  0  0  0  0  0  0
   13.5782    7.8785   42.8191 C   0  0  0  0  0  0  0  0  0  0  0  0
   12.6913    6.8194   42.7138 C   0  0  0  0  0  0  0  0  0  0  0  0
   13.1441    9.0592   43.3082 N   0  0  0  0  0  0  0  0  0  0  0  0
   11.3908    6.9468   43.0995 N   0  0  0  0  0  0  0  0  0  0  0  0
   11.9663    9.0104   44.1696 C   0  0  2  0  0  0  0  0  0  0  0  0
   10.8336    8.2145   43.5403 C   0  0  0  0  0  0  0  0  0  0  0  0
   11.4749   10.4038   44.5230 C   0  0  1  0  0  0  0  0  0  0  0  0
   12.4186   11.3733   44.0606 O   0  0  0  0  0  0  0  0  0  0  0  0
   10.1008   10.6736   43.9190 C   0  0  2  0  0  0  0  0  0  0  0  0
   10.2117   11.8891   43.0138 C   0  0  0  0  0  0  0  0  0  0  0  0
    9.1511   10.9270   44.9740 O   0  0  0  0  0  0  0  0  0  0  0  0
   15.7607    4.1384   41.0536 H   0  0  0  0  0  0  0  0  0  0  0  0
   14.1058    3.5119   41.2799 H   0  0  0  0  0  0  0  0  0  0  0  0
   16.2484    6.3758   41.6164 H   0  0  0  0  0  0  0  0  0  0  0  0
   13.6179    9.9463   43.0859 H   0  0  0  0  0  0  0  0  0  0  0  0
   10.7818    6.1164   43.0779 H   0  0  0  0  0  0  0  0  0  0  0  0
   12.2793    8.4994   45.0921 H   0  0  0  0  0  0  0  0  0  0  0  0
   10.4197    8.7630   42.6814 H   0  0  0  0  0  0  0  0  0  0  0  0
   10.0215    8.0528   44.2644 H   0  0  0  0  0  0  0  0  0  0  0  0
   11.3801   10.4753   45.6165 H   0  0  0  0  0  0  0  0  0  0  0  0
   12.8470   11.8133   44.8371 H   0  0  0  0  0  0  0  0  0  0  0  0
    9.7573    9.8038   43.3397 H   0  0  0  0  0  0  0  0  0  0  0  0
   10.2946   12.7976   43.6284 H   0  0  0  0  0  0  0  0  0  0  0  0
   11.1048   11.7931   42.3789 H   0  0  0  0  0  0  0  0  0  0  0  0
    9.3160   11.9564   42.3789 H   0  0  0  0  0  0  0  0  0  0  0  0
    9.5937   10.8089   45.8517 H   0  0  0  0  0  0  0  0  0  0  0  0
  1  2  2  0
  1  8  1  0
  2  3  1  0
  2  4  1  0
  4  5  1  0
  5  6  2  0
  5  7  1  0
  7  8  2  0
  7  9  1  0
  8 10  1  0
  9 11  1  0
 10 12  1  0
 11 12  1  0
 11 13  1  0
 13 14  1  0
 13 15  1  0
 15 16  1  0
 15 17  1  0
  3 18  1  0
  3 19  1  0
  4 20  1  0
  9 21  1  0
 10 22  1  0
 11 23  1  1
 12 24  1  0
 12 25  1  0
 13 26  1  1
 14 27  1  0
 15 28  1  6
 16 29  1  0
 16 30  1  0
 16 31  1  0
 17 32  1  0
M  END
>  <filename_input>  (19) 
7TSF_H4B_docked.sdf

>  <pdb_id>  (19) 
7TSF_H4B

>  <pose_rank>  (19) 
18

>  <num_atoms_heavy>  (19) 
17

>  <num_torsions>  (19) 
2

>  <pose>  (19) 
[13.11257457480036, 5.641403349562381, 42.22696400308359, -2.3597141972544837, 1.9192074840625146, 2.491884973024623, -1.112754361739334, 1.172649173820055]

>  <energy>  (19) 
-181.54246508508064

>  <inter_energy>  (19) 
-172.7956911835298

>  <intra_energy>  (19) 
0.3440276337477245

>  <rmsd>  (19) 
11.6889

>  <sdf_rank>  (19) 
0

$$$$

     RDKit          3D

 32 33  0  0  0  0  0  0  0  0999 V2000
   -0.8202    9.3479   31.8357 N   0  0  0  0  0  0  0  0  0  0  0  0
   -1.5154   10.4927   32.0118 C   0  0  0  0  0  0  0  0  0  0  0  0
   -2.3140   10.6061   33.0994 N   0  0  0  0  0  0  0  0  0  0  0  0
   -1.3996   11.5140   31.1302 N   0  0  0  0  0  0  0  0  0  0  0  0
   -0.5966   11.4062   30.0442 C   0  0  0  0  0  0  0  0  0  0  0  0
   -0.4806   12.3491   29.2187 O   0  0  0  0  0  0  0  0  0  0  0  0
    0.1041   10.2299   29.8508 C   0  0  0  0  0  0  0  0  0  0  0  0
   -0.0158    9.2011   30.7710 C   0  0  0  0  0  0  0  0  0  0  0  0
    0.9169   10.0728   28.7848 N   0  0  0  0  0  0  0  0  0  0  0  0
    0.6678    8.0327   30.6166 N   0  0  0  0  0  0  0  0  0  0  0  0
    1.1933    8.6985   28.3771 C   0  0  2  0  0  0  0  0  0  0  0  0
    1.6334    7.8349   29.5489 C   0  0  0  0  0  0  0  0  0  0  0  0
    2.2426    8.6417   27.2800 C   0  0  1  0  0  0  0  0  0  0  0  0
    3.2930    7.7540   27.6709 O   0  0  0  0  0  0  0  0  0  0  0  0
    1.6333    8.1899   25.9570 C   0  0  2  0  0  0  0  0  0  0  0  0
    1.9543    6.7168   25.7665 C   0  0  0  0  0  0  0  0  0  0  0  0
    2.1959    8.9628   24.8776 O   0  0  0  0  0  0  0  0  0  0  0  0
   -2.8536   11.4696   33.2543 H   0  0  0  0  0  0  0  0  0  0  0  0
   -2.3820    9.8287   33.7717 H   0  0  0  0  0  0  0  0  0  0  0  0
   -1.9287   12.3837   31.2871 H   0  0  0  0  0  0  0  0  0  0  0  0
    1.3202   10.8787   28.2860 H   0  0  0  0  0  0  0  0  0  0  0  0
    0.4942    7.2635   31.2792 H   0  0  0  0  0  0  0  0  0  0  0  0
    0.2474    8.2964   27.9852 H   0  0  0  0  0  0  0  0  0  0  0  0
    2.6352    8.1395   29.8859 H   0  0  0  0  0  0  0  0  0  0  0  0
    1.6801    6.7754   29.2567 H   0  0  0  0  0  0  0  0  0  0  0  0
    2.6511    9.6524   27.1329 H   0  0  0  0  0  0  0  0  0  0  0  0
    3.3405    7.7138   28.6590 H   0  0  0  0  0  0  0  0  0  0  0  0
    0.5435    8.3390   25.9641 H   0  0  0  0  0  0  0  0  0  0  0  0
    2.0594    6.2343   26.7494 H   0  0  0  0  0  0  0  0  0  0  0  0
    1.1404    6.2337   25.2060 H   0  0  0  0  0  0  0  0  0  0  0  0
    2.8955    6.6161   25.2060 H   0  0  0  0  0  0  0  0  0  0  0  0
    2.7358    9.7046   25.2493 H   0  0  0  0  0  0  0  0  0  0  0  0
  1  2  2  0
  1  8  1  0
  2  3  1  0
  2  4  1  0
  4  5  1  0
  5  6  2  0
  5  7  1  0
  7  8  2  0
  7  9  1  0
  8 10  1  0
  9 11  1  0
 10 12  1  0
 11 12  1  0
 11 13  1  0
 13 14  1  0
 13 15  1  0
 15 16  1  0
 15 17  1  0
  3 18  1  0
  3 19  1  0
  4 20  1  0
  9 21  1  0
 10 22  1  0
 11 23  1  6
 12 24  1  0
 12 25  1  0
 13 26  1  6
 14 27  1  0
 15 28  1  1
 16 29  1  0
 16 30  1  0
 16 31  1  0
 17 32  1  0
M  END
>  <filename_input>  (20) 
7TSF_H4B_docked.sdf

>  <pdb_id>  (20) 
7TSF_H4B

>  <pose_rank>  (20) 
19

>  <num_atoms_heavy>  (20) 
17

>  <num_torsions>  (20) 
2

>  <pose>  (20) 
[-0.8202317433188164, 9.347910861456882, 31.835711047512138, -1.7636299353619564, 1.4190359258401521, -2.4996150402692874, 1.2389084700274808, 1.5354595552157453]

>  <energy>  (20) 
-167.16029172651344

>  <inter_energy>  (20) 
-160.75038291860156

>  <intra_energy>  (20) 
0.0

>  <rmsd>  (20) 
12.2159

>  <sdf_rank>  (20) 
0

$$$$

     RDKit          3D

 32 33  0  0  0  0  0  0  0  0999 V2000
    5.0288   10.4154   26.5418 N   0  0  0  0  0  0  0  0  0  0  0  0
    5.5773    9.3618   25.8985 C   0  0  0  0  0  0  0  0  0  0  0  0
    6.6172    9.5833   25.0600 N   0  0  0  0  0  0  0  0  0  0  0  0
    5.1108    8.1074   26.1043 N   0  0  0  0  0  0  0  0  0  0  0  0
    4.0746    7.8815   26.9475 C   0  0  0  0  0  0  0  0  0  0  0  0
    3.6332    6.7199   27.1470 O   0  0  0  0  0  0  0  0  0  0  0  0
    3.4988    8.9589   27.5954 C   0  0  0  0  0  0  0  0  0  0  0  0
    3.9988   10.2335   27.3835 C   0  0  0  0  0  0  0  0  0  0  0  0
    2.4643    8.7867   28.4450 N   0  0  0  0  0  0  0  0  0  0  0  0
    3.4621   11.3160   28.0130 N   0  0  0  0  0  0  0  0  0  0  0  0
    1.6089    9.9484   28.6688 C   0  0  2  0  0  0  0  0  0  0  0  0
    2.4152   11.1910   29.0131 C   0  0  0  0  0  0  0  0  0  0  0  0
    0.5857    9.6864   29.7608 C   0  0  1  0  0  0  0  0  0  0  0  0
    0.2980   10.9073   30.4470 O   0  0  0  0  0  0  0  0  0  0  0  0
   -0.6940    9.0889   29.1856 C   0  0  2  0  0  0  0  0  0  0  0  0
   -0.7297    7.6123   29.5431 C   0  0  0  0  0  0  0  0  0  0  0  0
   -0.7012    9.2517   27.7529 O   0  0  0  0  0  0  0  0  0  0  0  0
    7.0514    8.7952   24.5587 H   0  0  0  0  0  0  0  0  0  0  0  0
    6.9739   10.5398   24.9235 H   0  0  0  0  0  0  0  0  0  0  0  0
    5.5492    7.3149   25.6137 H   0  0  0  0  0  0  0  0  0  0  0  0
    2.2879    7.8848   28.9100 H   0  0  0  0  0  0  0  0  0  0  0  0
    3.8102   12.2550   27.7719 H   0  0  0  0  0  0  0  0  0  0  0  0
    1.0794   10.1292   27.7218 H   0  0  0  0  0  0  0  0  0  0  0  0
    2.8606   11.0858   30.0134 H   0  0  0  0  0  0  0  0  0  0  0  0
    1.7726   12.0837   29.0187 H   0  0  0  0  0  0  0  0  0  0  0  0
    1.0072    8.9574   30.4686 H   0  0  0  0  0  0  0  0  0  0  0  0
    0.3343   10.7531   31.4242 H   0  0  0  0  0  0  0  0  0  0  0  0
   -1.5768    9.5973   29.6005 H   0  0  0  0  0  0  0  0  0  0  0  0
   -0.7324    7.5000   30.6373 H   0  0  0  0  0  0  0  0  0  0  0  0
   -1.6391    7.1558   29.1253 H   0  0  0  0  0  0  0  0  0  0  0  0
    0.1567    7.1125   29.1253 H   0  0  0  0  0  0  0  0  0  0  0  0
   -0.7436   10.2154   27.5305 H   0  0  0  0  0  0  0  0  0  0  0  0
  1  2  2  0
  1  8  1  0
  2  3  1  0
  2  4  1  0
  4  5  1  0
  5  6  2  0
  5  7  1  0
  7  8  2  0
  7  9  1  0
  8 10  1  0
  9 11  1  0
 10 12  1  0
 11 12  1  0
 11 13  1  0
 13 14  1  0
 13 15  1  0
 15 16  1  0
 15 17  1  0
  3 18  1  0
  3 19  1  0
  4 20  1  0
  9 21  1  0
 10 22  1  0
 11 23  1  6
 12 24  1  0
 12 25  1  0
 13 26  1  1
 14 27  1  0
 15 28  1  1
 16 29  1  0
 16 30  1  0
 16 31  1  0
 17 32  1  0
M  END
>  <filename_input>  (21) 
7TSF_H4B_docked.sdf

>  <pdb_id>  (21) 
7TSF_H4B

>  <pose_rank>  (21) 
20

>  <num_atoms_heavy>  (21) 
17

>  <num_torsions>  (21) 
2

>  <pose>  (21) 
[5.028774665749668, 10.415430517779203, 26.541823814548202, -0.8933759242397157, 0.2241285118171727, 0.7869785824983392, 1.6203018325986536, -1.150458531457647]

>  <energy>  (21) 
-153.0299934451451

>  <inter_energy>  (21) 
-135.82755580040333

>  <intra_energy>  (21) 
2.002632449992031

>  <rmsd>  (21) 
10.5669

>  <sdf_rank>  (21) 
0

$$$$

     RDKit          3D

 32 33  0  0  0  0  0  0  0  0999 V2000
   -1.0655   -5.6810   39.2255 N   0  0  0  0  0  0  0  0  0  0  0  0
    0.1068   -5.8608   39.8721 C   0  0  0  0  0  0  0  0  0  0  0  0
    0.1200   -5.7876   41.2241 N   0  0  0  0  0  0  0  0  0  0  0  0
    1.2415   -6.1297   39.1837 N   0  0  0  0  0  0  0  0  0  0  0  0
    1.2307   -6.2099   37.8312 C   0  0  0  0  0  0  0  0  0  0  0  0
    2.2789   -6.4600   37.1811 O   0  0  0  0  0  0  0  0  0  0  0  0
    0.0362   -6.0100   37.1638 C   0  0  0  0  0  0  0  0  0  0  0  0
   -1.1174   -5.7500   37.8858 C   0  0  0  0  0  0  0  0  0  0  0  0
   -0.0273   -6.0790   35.8174 N   0  0  0  0  0  0  0  0  0  0  0  0
   -2.3129   -5.5580   37.2611 N   0  0  0  0  0  0  0  0  0  0  0  0
   -1.1364   -5.3724   35.1835 C   0  0  2  0  0  0  0  0  0  0  0  0
   -2.4715   -5.7165   35.8253 C   0  0  0  0  0  0  0  0  0  0  0  0
   -1.1999   -5.6560   33.6924 C   0  0  1  0  0  0  0  0  0  0  0  0
   -2.2605   -4.8960   33.1076 O   0  0  0  0  0  0  0  0  0  0  0  0
    0.1244   -5.3265   33.0115 C   0  0  2  0  0  0  0  0  0  0  0  0
   -0.1737   -4.5030   31.7697 C   0  0  0  0  0  0  0  0  0  0  0  0
    0.7961   -6.5488   32.6456 O   0  0  0  0  0  0  0  0  0  0  0  0
    1.0023   -5.9213   41.7385 H   0  0  0  0  0  0  0  0  0  0  0  0
   -0.7523   -5.5982   41.7381 H   0  0  0  0  0  0  0  0  0  0  0  0
    2.1239   -6.2752   39.6947 H   0  0  0  0  0  0  0  0  0  0  0  0
    0.6690   -6.6017   35.2671 H   0  0  0  0  0  0  0  0  0  0  0  0
   -3.1321   -5.2915   37.8257 H   0  0  0  0  0  0  0  0  0  0  0  0
   -0.9452   -4.2995   35.3334 H   0  0  0  0  0  0  0  0  0  0  0  0
   -2.7464   -6.7550   35.5891 H   0  0  0  0  0  0  0  0  0  0  0  0
   -3.2675   -5.0589   35.4460 H   0  0  0  0  0  0  0  0  0  0  0  0
   -1.3933   -6.7291   33.5475 H   0  0  0  0  0  0  0  0  0  0  0  0
   -2.8155   -4.4983   33.8245 H   0  0  0  0  0  0  0  0  0  0  0  0
    0.7761   -4.7584   33.6915 H   0  0  0  0  0  0  0  0  0  0  0  0
   -0.5340   -3.5074   32.0677 H   0  0  0  0  0  0  0  0  0  0  0  0
    0.7432   -4.3972   31.1712 H   0  0  0  0  0  0  0  0  0  0  0  0
   -0.9459   -5.0084   31.1712 H   0  0  0  0  0  0  0  0  0  0  0  0
    1.0640   -7.0361   33.4647 H   0  0  0  0  0  0  0  0  0  0  0  0
  1  2  2  0
  1  8  1  0
  2  3  1  0
  2  4  1  0
  4  5  1  0
  5  6  2  0
  5  7  1  0
  7  8  2  0
  7  9  1  0
  8 10  1  0
  9 11  1  0
 10 12  1  0
 11 12  1  0
 11 13  1  0
 13 14  1  0
 13 15  1  0
 15 16  1  0
 15 17  1  0
  3 18  1  0
  3 19  1  0
  4 20  1  0
  9 21  1  0
 10 22  1  0
 11 23  1  6
 12 24  1  0
 12 25  1  0
 13 26  1  1
 14 27  1  0
 15 28  1  1
 16 29  1  0
 16 30  1  0
 16 31  1  0
 17 32  1  0
M  END
>  <filename_input>  (22) 
7TSF_H4B_docked.sdf

>  <pdb_id>  (22) 
7TSF_H4B

>  <pose_rank>  (22) 
21

>  <num_atoms_heavy>  (22) 
17

>  <num_torsions>  (22) 
2

>  <pose>  (22) 
[-1.0654957123965254, -5.681035088522346, 39.225496022078374, -0.006767616522756602, -1.9348853837025461, 0.20598865459521104, 2.214299772718717, 0.9783442799201576]

>  <energy>  (22) 
-138.37332011125105

>  <inter_energy>  (22) 
-126.21822526258956

>  <intra_energy>  (22) 
1.07761435492309

>  <rmsd>  (22) 
12.6953

>  <sdf_rank>  (22) 
0

$$$$

     RDKit          3D

 32 33  0  0  0  0  0  0  0  0999 V2000
   -2.6670    8.4087   31.9261 N   0  0  0  0  0  0  0  0  0  0  0  0
   -2.4994    9.4997   32.7048 C   0  0  0  0  0  0  0  0  0  0  0  0
   -2.8822    9.4360   34.0020 N   0  0  0  0  0  0  0  0  0  0  0  0
   -1.9406   10.6269   32.2039 N   0  0  0  0  0  0  0  0  0  0  0  0
   -1.5507   10.6920   30.9079 C   0  0  0  0  0  0  0  0  0  0  0  0
   -1.0296   11.7339   30.4318 O   0  0  0  0  0  0  0  0  0  0  0  0
   -1.7357    9.5832   30.1025 C   0  0  0  0  0  0  0  0  0  0  0  0
   -2.2959    8.4339   30.6362 C   0  0  0  0  0  0  0  0  0  0  0  0
   -1.3644    9.5975   28.8050 N   0  0  0  0  0  0  0  0  0  0  0  0
   -2.4832    7.3203   29.8739 N   0  0  0  0  0  0  0  0  0  0  0  0
   -2.0355    8.6425   27.9280 C   0  0  2  0  0  0  0  0  0  0  0  0
   -2.0166    7.2337   28.5004 C   0  0  0  0  0  0  0  0  0  0  0  0
   -1.4236    8.6357   26.5375 C   0  0  1  0  0  0  0  0  0  0  0  0
   -0.6594    9.8291   26.3476 O   0  0  0  0  0  0  0  0  0  0  0  0
   -0.5457    7.4065   26.3273 C   0  0  2  0  0  0  0  0  0  0  0  0
    0.9070    7.8517   26.3558 C   0  0  0  0  0  0  0  0  0  0  0  0
   -0.8543    6.8051   25.0537 O   0  0  0  0  0  0  0  0  0  0  0  0
   -2.7641   10.2556   34.6147 H   0  0  0  0  0  0  0  0  0  0  0  0
   -3.2915    8.5680   34.3762 H   0  0  0  0  0  0  0  0  0  0  0  0
   -1.8103   11.4451   32.8158 H   0  0  0  0  0  0  0  0  0  0  0  0
   -0.6467   10.2468   28.4527 H   0  0  0  0  0  0  0  0  0  0  0  0
   -2.9721    6.5124   30.2851 H   0  0  0  0  0  0  0  0  0  0  0  0
   -3.0819    8.9735   27.8542 H   0  0  0  0  0  0  0  0  0  0  0  0
   -0.9935    6.8305   28.4749 H   0  0  0  0  0  0  0  0  0  0  0  0
   -2.6610    6.5647   27.9111 H   0  0  0  0  0  0  0  0  0  0  0  0
   -2.2362    8.5976   25.7971 H   0  0  0  0  0  0  0  0  0  0  0  0
   -0.4161   10.2089   27.2288 H   0  0  0  0  0  0  0  0  0  0  0  0
   -0.7267    6.6641   27.1186 H   0  0  0  0  0  0  0  0  0  0  0  0
    1.2389    7.9534   27.3996 H   0  0  0  0  0  0  0  0  0  0  0  0
    1.5299    7.1032   25.8443 H   0  0  0  0  0  0  0  0  0  0  0  0
    1.0037    8.8206   25.8443 H   0  0  0  0  0  0  0  0  0  0  0  0
   -1.3013    5.9339   25.1998 H   0  0  0  0  0  0  0  0  0  0  0  0
  1  2  2  0
  1  8  1  0
  2  3  1  0
  2  4  1  0
  4  5  1  0
  5  6  2  0
  5  7  1  0
  7  8  2  0
  7  9  1  0
  8 10  1  0
  9 11  1  0
 10 12  1  0
 11 12  1  0
 11 13  1  0
 13 14  1  0
 13 15  1  0
 15 16  1  0
 15 17  1  0
  3 18  1  0
  3 19  1  0
  4 20  1  0
  9 21  1  0
 10 22  1  0
 11 23  1  6
 12 24  1  0
 12 25  1  0
 13 26  1  6
 14 27  1  0
 15 28  1  1
 16 29  1  0
 16 30  1  0
 16 31  1  0
 17 32  1  0
M  END
>  <filename_input>  (23) 
7TSF_H4B_docked.sdf

>  <pdb_id>  (23) 
7TSF_H4B

>  <pose_rank>  (23) 
22

>  <num_atoms_heavy>  (23) 
17

>  <num_torsions>  (23) 
2

>  <pose>  (23) 
[-2.6669720897126186, 8.408683432977138, 31.926105300736666, 1.332913598111309, -1.8108986156475622, 1.2800648046901342, -1.2862288936166575, 1.4263843480587584]

>  <energy>  (23) 
-134.6313890871401

>  <inter_energy>  (23) 
-123.907588215778

>  <intra_energy>  (23) 
0.44593322368119925

>  <rmsd>  (23) 
13.1741

>  <sdf_rank>  (23) 
0

$$$$

     RDKit          3D

 32 33  0  0  0  0  0  0  0  0999 V2000
    2.5435   -3.2553   42.6314 N   0  0  0  0  0  0  0  0  0  0  0  0
    2.8782   -3.6478   43.8799 C   0  0  0  0  0  0  0  0  0  0  0  0
    3.6757   -2.8430   44.6212 N   0  0  0  0  0  0  0  0  0  0  0  0
    2.4085   -4.8122   44.3874 N   0  0  0  0  0  0  0  0  0  0  0  0
    1.6053   -5.6169   43.6506 C   0  0  0  0  0  0  0  0  0  0  0  0
    1.1623   -6.7007   44.1121 O   0  0  0  0  0  0  0  0  0  0  0  0
    1.2735   -5.2273   42.3659 C   0  0  0  0  0  0  0  0  0  0  0  0
    1.7518   -4.0258   41.8687 C   0  0  0  0  0  0  0  0  0  0  0  0
    0.4768   -5.9937   41.5916 N   0  0  0  0  0  0  0  0  0  0  0  0
    1.4365   -3.6068   40.6112 N   0  0  0  0  0  0  0  0  0  0  0  0
    0.5943   -5.8004   40.1493 C   0  0  2  0  0  0  0  0  0  0  0  0
    0.5061   -4.3322   39.7629 C   0  0  0  0  0  0  0  0  0  0  0  0
   -0.4596   -6.5906   39.3923 C   0  0  1  0  0  0  0  0  0  0  0  0
   -1.5163   -6.9521   40.2849 O   0  0  0  0  0  0  0  0  0  0  0  0
   -1.0107   -5.7900   38.2171 C   0  0  2  0  0  0  0  0  0  0  0  0
   -2.4654   -5.4612   38.5088 C   0  0  0  0  0  0  0  0  0  0  0  0
   -0.9126   -6.5737   37.0108 O   0  0  0  0  0  0  0  0  0  0  0  0
    3.9440   -3.1216   45.5758 H   0  0  0  0  0  0  0  0  0  0  0  0
    4.0140   -1.9520   44.2305 H   0  0  0  0  0  0  0  0  0  0  0  0
    2.6652   -5.0895   45.3456 H   0  0  0  0  0  0  0  0  0  0  0  0
   -0.1784   -6.6777   41.9962 H   0  0  0  0  0  0  0  0  0  0  0  0
    1.8725   -2.7465   40.2496 H   0  0  0  0  0  0  0  0  0  0  0  0
    1.5895   -6.1746   39.8675 H   0  0  0  0  0  0  0  0  0  0  0  0
   -0.5171   -3.9614   39.9228 H   0  0  0  0  0  0  0  0  0  0  0  0
    0.7567   -4.1928   38.7009 H   0  0  0  0  0  0  0  0  0  0  0  0
    0.0077   -7.5006   38.9880 H   0  0  0  0  0  0  0  0  0  0  0  0
   -1.2089   -6.8470   41.2200 H   0  0  0  0  0  0  0  0  0  0  0  0
   -0.4360   -4.8621   38.0800 H   0  0  0  0  0  0  0  0  0  0  0  0
   -2.6222   -5.4258   39.5970 H   0  0  0  0  0  0  0  0  0  0  0  0
   -2.7155   -4.4839   38.0703 H   0  0  0  0  0  0  0  0  0  0  0  0
   -3.1115   -6.2360   38.0703 H   0  0  0  0  0  0  0  0  0  0  0  0
   -0.7931   -7.5279   37.2460 H   0  0  0  0  0  0  0  0  0  0  0  0
  1  2  2  0
  1  8  1  0
  2  3  1  0
  2  4  1  0
  4  5  1  0
  5  6  2  0
  5  7  1  0
  7  8  2  0
  7  9  1  0
  8 10  1  0
  9 11  1  0
 10 12  1  0
 11 12  1  0
 11 13  1  0
 13 14  1  0
 13 15  1  0
 15 16  1  0
 15 17  1  0
  3 18  1  0
  3 19  1  0
  4 20  1  0
  9 21  1  0
 10 22  1  0
 11 23  1  6
 12 24  1  0
 12 25  1  0
 13 26  1  6
 14 27  1  0
 15 28  1  6
 16 29  1  0
 16 30  1  0
 16 31  1  0
 17 32  1  0
M  END
>  <filename_input>  (24) 
7TSF_H4B_docked.sdf

>  <pdb_id>  (24) 
7TSF_H4B

>  <pose_rank>  (24) 
23

>  <num_atoms_heavy>  (24) 
17

>  <num_torsions>  (24) 
2

>  <pose>  (24) 
[2.5434694069717647, -3.255298458765362, 42.63142498817013, -2.1149243201704113, -1.2303942477915504, 0.14897962184837024, -0.6528562316000351, 1.3192444084499737]

>  <energy>  (24) 
-108.0587099464189

>  <inter_energy>  (24) 
-117.39970794244638

>  <intra_energy>  (24) 
4.396293056215025

>  <rmsd>  (24) 
13.0478

>  <sdf_rank>  (24) 
0

$$$$

     RDKit          3D

 32 33  0  0  0  0  0  0  0  0999 V2000
   14.7745   10.9136   27.4104 N   0  0  0  0  0  0  0  0  0  0  0  0
   15.4023    9.9020   26.7720 C   0  0  0  0  0  0  0  0  0  0  0  0
   16.7228    9.7100   27.0018 N   0  0  0  0  0  0  0  0  0  0  0  0
   14.7203    9.0837   25.9359 N   0  0  0  0  0  0  0  0  0  0  0  0
   13.3976    9.2692   25.7086 C   0  0  0  0  0  0  0  0  0  0  0  0
   12.7535    8.5145   24.9343 O   0  0  0  0  0  0  0  0  0  0  0  0
   12.7543   10.3138   26.3468 C   0  0  0  0  0  0  0  0  0  0  0  0
   13.4652   11.1319   27.2098 C   0  0  0  0  0  0  0  0  0  0  0  0
   11.4380   10.5407   26.1536 N   0  0  0  0  0  0  0  0  0  0  0  0
   12.8608   12.1637   27.8627 N   0  0  0  0  0  0  0  0  0  0  0  0
   10.9679   11.8969   26.4203 C   0  0  2  0  0  0  0  0  0  0  0  0
   11.4299   12.4027   27.7780 C   0  0  0  0  0  0  0  0  0  0  0  0
    9.4543   11.9913   26.3297 C   0  0  1  0  0  0  0  0  0  0  0  0
    9.0472   11.8234   24.9694 O   0  0  0  0  0  0  0  0  0  0  0  0
    8.7826   10.9471   27.2153 C   0  0  2  0  0  0  0  0  0  0  0  0
    7.2811   11.0389   27.0001 C   0  0  0  0  0  0  0  0  0  0  0  0
    9.1017   11.2087   28.5969 O   0  0  0  0  0  0  0  0  0  0  0  0
   17.2223    8.9450   26.5263 H   0  0  0  0  0  0  0  0  0  0  0  0
   17.2277   10.3289   27.6521 H   0  0  0  0  0  0  0  0  0  0  0  0
   15.2134    8.3105   25.4668 H   0  0  0  0  0  0  0  0  0  0  0  0
   10.7998    9.7976   25.8353 H   0  0  0  0  0  0  0  0  0  0  0  0
   13.4377   12.7960   28.4358 H   0  0  0  0  0  0  0  0  0  0  0  0
   11.4110   12.5360   25.6424 H   0  0  0  0  0  0  0  0  0  0  0  0
   10.9091   11.8586   28.5798 H   0  0  0  0  0  0  0  0  0  0  0  0
   11.2059   13.4736   27.8921 H   0  0  0  0  0  0  0  0  0  0  0  0
    9.1428   12.9839   26.6869 H   0  0  0  0  0  0  0  0  0  0  0  0
    8.1323   11.4462   24.9429 H   0  0  0  0  0  0  0  0  0  0  0  0
    9.1380    9.9383   26.9585 H   0  0  0  0  0  0  0  0  0  0  0  0
    6.7723   11.0700   27.9749 H   0  0  0  0  0  0  0  0  0  0  0  0
    7.0469   11.9530   26.4349 H   0  0  0  0  0  0  0  0  0  0  0  0
    6.9373   10.1600   26.4349 H   0  0  0  0  0  0  0  0  0  0  0  0
    8.4832   10.7015   29.1802 H   0  0  0  0  0  0  0  0  0  0  0  0
  1  2  2  0
  1  8  1  0
  2  3  1  0
  2  4  1  0
  4  5  1  0
  5  6  2  0
  5  7  1  0
  7  8  2  0
  7  9  1  0
  8 10  1  0
  9 11  1  0
 10 12  1  0
 11 12  1  0
 11 13  1  0
 13 14  1  0
 13 15  1  0
 15 16  1  0
 15 17  1  0
  3 18  1  0
  3 19  1  0
  4 20  1  0
  9 21  1  0
 10 22  1  0
 11 23  1  6
 12 24  1  0
 12 25  1  0
 13 26  1  1
 14 27  1  0
 15 28  1  6
 16 29  1  0
 16 30  1  0
 16 31  1  0
 17 32  1  0
M  END
>  <filename_input>  (25) 
7TSF_H4B_docked.sdf

>  <pdb_id>  (25) 
7TSF_H4B

>  <pose_rank>  (25) 
24

>  <num_atoms_heavy>  (25) 
17

>  <num_torsions>  (25) 
2

>  <pose>  (25) 
[14.774545773283993, 10.913571788177103, 27.41035076431555, -0.6279448128822077, -0.45799335635472793, 0.017959451957698318, -2.1784756184362126, 0.2130583685572128]

>  <energy>  (25) 
-96.28277324606572

>  <inter_energy>  (25) 
-109.98664080162116

>  <intra_energy>  (25) 
22.192412106464328

>  <rmsd>  (25) 
12.4168

>  <sdf_rank>  (25) 
0

$$$$

     RDKit          3D

 32 33  0  0  0  0  0  0  0  0999 V2000
    9.8440    2.6100   34.0530 N   0  0  0  0  0  0  0  0  0  0  0  0
    9.9940    2.2280   32.7660 C   0  0  0  0  0  0  0  0  0  0  0  0
   11.2470    2.1000   32.2690 N   0  0  0  0  0  0  0  0  0  0  0  0
    8.9140    1.9580   31.9950 N   0  0  0  0  0  0  0  0  0  0  0  0
    7.6590    2.0790   32.4910 C   0  0  0  0  0  0  0  0  0  0  0  0
    6.6480    1.8300   31.7840 O   0  0  0  0  0  0  0  0  0  0  0  0
    7.5000    2.4860   33.8030 C   0  0  0  0  0  0  0  0  0  0  0  0
    8.6170    2.7440   34.5810 C   0  0  0  0  0  0  0  0  0  0  0  0
    6.2710    2.6220   34.3440 N   0  0  0  0  0  0  0  0  0  0  0  0
    8.4970    3.1370   35.8800 N   0  0  0  0  0  0  0  0  0  0  0  0
    6.1640    3.5150   35.4940 C   0  0  2  0  0  0  0  0  0  0  0  0
    7.2110    3.2070   36.5530 C   0  0  0  0  0  0  0  0  0  0  0  0
    4.7790    3.4610   36.1160 C   0  0  1  0  0  0  0  0  0  0  0  0
    4.4650    2.1100   36.4630 O   0  0  0  0  0  0  0  0  0  0  0  0
    4.6920    4.3570   37.3470 C   0  0  2  0  0  0  0  0  0  0  0  0
    3.2390    4.4160   37.7880 C   0  0  0  0  0  0  0  0  0  0  0  0
    5.1630    5.6790   37.0160 O   0  0  0  0  0  0  0  0  0  0  0  0
   11.3858    1.8100   31.2905 H   0  0  0  0  0  0  0  0  0  0  0  0
   12.0614    2.2927   32.8695 H   0  0  0  0  0  0  0  0  0  0  0  0
    9.0483    1.6569   31.0192 H   0  0  0  0  0  0  0  0  0  0  0  0
    5.4531    2.1229   33.9661 H   0  0  0  0  0  0  0  0  0  0  0  0
    9.3467    3.3932   36.4028 H   0  0  0  0  0  0  0  0  0  0  0  0
    6.3433    4.5314   35.1135 H   0  0  0  0  0  0  0  0  0  0  0  0
    6.9860    2.2449   37.0365 H   0  0  0  0  0  0  0  0  0  0  0  0
    7.2197    3.9849   37.3307 H   0  0  0  0  0  0  0  0  0  0  0  0
    4.0496    3.8307   35.3803 H   0  0  0  0  0  0  0  0  0  0  0  0
    4.4438    2.0188   37.4486 H   0  0  0  0  0  0  0  0  0  0  0  0
    5.3153    3.9561   38.1599 H   0  0  0  0  0  0  0  0  0  0  0  0
    3.1891    4.4180   38.8869 H   0  0  0  0  0  0  0  0  0  0  0  0
    2.7745    5.3337   37.3982 H   0  0  0  0  0  0  0  0  0  0  0  0
    2.7016    3.5389   37.3982 H   0  0  0  0  0  0  0  0  0  0  0  0
    5.3427    6.1834   37.8487 H   0  0  0  0  0  0  0  0  0  0  0  0
  1  2  2  0
  1  8  1  0
  2  3  1  0
  2  4  1  0
  4  5  1  0
  5  6  2  0
  5  7  1  0
  7  8  2  0
  7  9  1  0
  8 10  1  0
  9 11  1  0
 10 12  1  0
 11 12  1  0
 11 13  1  0
 13 14  1  0
 13 15  1  0
 15 16  1  0
 15 17  1  0
  3 18  1  0
  3 19  1  0
  4 20  1  0
  9 21  1  0
 10 22  1  0
 11 23  1  6
 12 24  1  0
 12 25  1  0
 13 26  1  6
 14 27  1  0
 15 28  1  1
 16 29  1  0
 16 30  1  0
 16 31  1  0
 17 32  1  0
M  END
>  <filename_input>  (26) 
7TSF_H4B_docked.sdf

>  <pdb_id>  (26) 
7TSF_H4B

>  <pose_rank>  (26) 
25

>  <num_atoms_heavy>  (26) 
17

>  <num_torsions>  (26) 
2

>  <pose>  (26) 
[9.844, 2.61, 34.053, 1e-06, 1e-06, 1e-06, 0.0, 0.0]

>  <energy>  (26) 
-666.0184874662746

>  <inter_energy>  (26) 
-673.0797322758265

>  <intra_energy>  (26) 
3.8155222283092654

>  <rmsd>  (26) 
0.0

>  <sdf_rank>  (26) 
0

$$$$
