
     RDKit          3D

 58 62  0  0  0  0  0  0  0  0999 V2000
    4.5413   23.5496  -15.3740 C   0  0  0  0  0  0  0  0  0  0  0  0
   -1.7019   25.5496   -9.3957 C   0  0  0  0  0  0  0  0  0  0  0  0
    5.8390   23.5444  -17.2520 C   0  0  0  0  0  0  0  0  0  0  0  0
    4.6993   23.2870  -18.0375 C   0  0  0  0  0  0  0  0  0  0  0  0
   -2.0089   24.6610  -10.4103 C   0  0  0  0  0  0  0  0  0  0  0  0
    4.7886   23.1331  -19.5235 C   0  0  0  0  0  0  0  0  0  0  0  0
    4.1467   23.6777  -13.9814 C   0  0  0  0  0  0  0  0  0  0  0  0
   -0.0718   23.5695  -11.3954 C   0  0  0  0  0  0  0  0  0  0  0  0
   -1.1552   24.5677  -11.6482 C   0  0  0  0  0  0  0  0  0  0  0  0
   -3.0694   23.7958  -10.2203 C   0  0  0  0  0  0  0  0  0  0  0  0
   -3.8411   23.8530   -9.0715 C   0  0  0  0  0  0  0  0  0  0  0  0
    5.7705   23.6823  -15.9198 N   0  0  0  0  0  0  0  0  0  0  0  0
    3.4976   23.1605  -17.4964 N   0  0  0  0  0  0  0  0  0  0  0  0
    3.4155   23.2908  -16.1677 C   0  0  0  0  0  0  0  0  0  0  0  0
    5.0117   24.0076  -13.0070 N   0  0  0  0  0  0  0  0  0  0  0  0
    2.0664   23.6752  -12.5306 C   0  0  0  0  0  0  0  0  0  0  0  0
   -2.4781   25.6146   -8.2456 C   0  0  0  0  0  0  0  0  0  0  0  0
   -3.5723   24.7738   -8.0762 C   0  0  0  0  0  0  0  0  0  0  0  0
   -4.4577   24.7998   -6.8453 C   0  0  1  0  0  0  0  0  0  0  0  0
   -3.9504   24.2218   -5.5475 C   0  0  0  0  0  0  0  0  0  0  0  0
   -4.9999   24.5328   -4.4986 C   0  0  2  0  0  0  0  0  0  0  0  0
    2.7887   23.5223  -13.7967 C   0  0  0  0  0  0  0  0  0  0  0  0
   -6.4850   24.3376   -4.8264 C   0  0  0  0  0  0  0  0  0  0  0  0
   -6.9504   25.6856   -5.4274 C   0  0  0  0  0  0  0  0  0  0  0  0
   -5.6864   26.5195   -5.4248 C   0  0  2  0  0  0  0  0  0  0  0  0
   -4.8768   26.2799   -6.6798 C   0  0  0  0  0  0  0  0  0  0  0  0
    0.7726   23.3846  -12.5645 N   0  0  0  0  0  0  0  0  0  0  0  0
   -4.9438   25.9958   -4.2674 N   0  0  0  0  0  0  0  0  0  0  0  0
    2.6511   24.0648  -11.5175 O   0  0  0  0  0  0  0  0  0  0  0  0
    1.9407   23.1588  -15.2773 S   0  0  0  0  0  0  0  0  0  0  0  0
   -0.8314   26.2138   -9.5010 H   0  0  0  0  0  0  0  0  0  0  0  0
    6.8171   23.6352  -17.7469 H   0  0  0  0  0  0  0  0  0  0  0  0
    5.3273   22.2047  -19.7643 H   0  0  0  0  0  0  0  0  0  0  0  0
    3.7753   23.0900  -19.9492 H   0  0  0  0  0  0  0  0  0  0  0  0
    5.3290   23.9915  -19.9492 H   0  0  0  0  0  0  0  0  0  0  0  0
    0.5496   23.9219  -10.5589 H   0  0  0  0  0  0  0  0  0  0  0  0
   -0.5433   22.6047  -11.1570 H   0  0  0  0  0  0  0  0  0  0  0  0
   -1.7698   24.2422  -12.5004 H   0  0  0  0  0  0  0  0  0  0  0  0
   -0.7191   25.5498  -11.8834 H   0  0  0  0  0  0  0  0  0  0  0  0
   -3.3044   23.0496  -10.9937 H   0  0  0  0  0  0  0  0  0  0  0  0
   -4.6818   23.1542   -8.9493 H   0  0  0  0  0  0  0  0  0  0  0  0
    4.6850   24.0864  -12.0334 H   0  0  0  0  0  0  0  0  0  0  0  0
    6.0012   24.1815  -13.2339 H   0  0  0  0  0  0  0  0  0  0  0  0
   -2.2239   26.3404   -7.4591 H   0  0  0  0  0  0  0  0  0  0  0  0
   -5.2796   24.0957   -7.0421 H   0  0  0  0  0  0  0  0  0  0  0  0
   -3.8182   23.1339   -5.6420 H   0  0  0  0  0  0  0  0  0  0  0  0
   -2.9754   24.6519   -5.2746 H   0  0  0  0  0  0  0  0  0  0  0  0
   -4.7436   23.8293   -3.6927 H   0  0  0  0  0  0  0  0  0  0  0  0
   -6.6150   23.5249   -5.5562 H   0  0  0  0  0  0  0  0  0  0  0  0
   -7.0691   24.0618   -3.9360 H   0  0  0  0  0  0  0  0  0  0  0  0
   -7.3321   25.5508   -6.4502 H   0  0  0  0  0  0  0  0  0  0  0  0
   -7.7739   26.1481   -4.8636 H   0  0  0  0  0  0  0  0  0  0  0  0
   -5.8944   27.5987   -5.3792 H   0  0  0  0  0  0  0  0  0  0  0  0
   -3.9693   26.9001   -6.6372 H   0  0  0  0  0  0  0  0  0  0  0  0
   -5.5097   26.5446   -7.5397 H   0  0  0  0  0  0  0  0  0  0  0  0
    0.3587   23.0214  -13.4349 H   0  0  0  0  0  0  0  0  0  0  0  0
   -5.4026   26.2522   -3.3816 H   0  0  0  0  0  0  0  0  0  0  0  0
   -3.9861   26.3663   -4.1874 H   0  0  0  0  0  0  0  0  0  0  0  0
  1  7  1  0
  1 12  2  0
  1 14  1  0
  2  5  2  0
  2 17  1  0
  3  4  2  0
  3 12  1  0
  4  6  1  0
  4 13  1  0
  5  9  1  0
  5 10  1  0
  7 15  1  0
  7 22  2  0
  8  9  1  0
  8 27  1  0
 10 11  2  0
 11 18  1  0
 13 14  2  0
 14 30  1  0
 16 22  1  0
 16 27  1  0
 16 29  2  0
 17 18  2  0
 19 18  1  0
 19 20  1  0
 19 26  1  0
 21 20  1  0
 21 23  1  0
 21 28  1  0
 22 30  1  0
 23 24  1  0
 25 24  1  0
 25 26  1  0
 25 28  1  0
  2 31  1  0
  3 32  1  0
  6 33  1  0
  6 34  1  0
  6 35  1  0
  8 36  1  0
  8 37  1  0
  9 38  1  0
  9 39  1  0
 10 40  1  0
 11 41  1  0
 15 42  1  0
 15 43  1  0
 17 44  1  0
 19 45  1  6
 20 46  1  0
 20 47  1  0
 21 48  1  1
 23 49  1  0
 23 50  1  0
 24 51  1  0
 24 52  1  0
 25 53  1  1
 26 54  1  0
 26 55  1  0
 27 56  1  0
 28 57  1  0
 28 58  1  0
M  CHG  1  28   1
M  END
>  <filename_input>  (1) 
7TUO_KL9_docked.sdf

>  <pdb_id>  (1) 
7TUO_KL9

>  <pose_rank>  (1) 
0

>  <num_atoms_heavy>  (1) 
30

>  <num_torsions>  (1) 
5

>  <pose>  (1) 
[-0.07177234581816525, 23.569469766959422, -11.395385085659, -0.6027706646913097, -5.013212707987215, -3.684200621216035, 0.12151469322790755, 0.005410027164469898, 6.208598048818029, 0.016314370023811108, -4.2367951019373065]

>  <energy>  (1) 
-909.0735265516245

>  <inter_energy>  (1) 
-902.6144656266713

>  <intra_energy>  (1) 
15.0471596340173

>  <rmsd>  (1) 
0.918112

>  <sdf_rank>  (1) 
0

$$$$

     RDKit          3D

 58 62  0  0  0  0  0  0  0  0999 V2000
   -4.4598   24.0416   -7.7748 C   0  0  0  0  0  0  0  0  0  0  0  0
    3.5162   23.6887  -12.6534 C   0  0  0  0  0  0  0  0  0  0  0  0
   -5.9893   23.9182   -6.0848 C   0  0  0  0  0  0  0  0  0  0  0  0
   -5.2810   24.9049   -5.3730 C   0  0  0  0  0  0  0  0  0  0  0  0
    2.1792   23.3403  -12.5875 C   0  0  0  0  0  0  0  0  0  0  0  0
   -5.7353   25.3816   -4.0290 C   0  0  0  0  0  0  0  0  0  0  0  0
   -3.8043   23.8045   -9.0498 C   0  0  0  0  0  0  0  0  0  0  0  0
    0.3607   24.4121  -11.3799 C   0  0  0  0  0  0  0  0  0  0  0  0
    1.4298   23.3722  -11.2810 C   0  0  0  0  0  0  0  0  0  0  0  0
    1.5231   23.0476  -13.7678 C   0  0  0  0  0  0  0  0  0  0  0  0
    2.1965   23.0461  -14.9783 C   0  0  0  0  0  0  0  0  0  0  0  0
   -5.5902   23.4827   -7.2887 N   0  0  0  0  0  0  0  0  0  0  0  0
   -4.1754   25.4500   -5.8562 N   0  0  0  0  0  0  0  0  0  0  0  0
   -3.7629   25.0212   -7.0542 C   0  0  0  0  0  0  0  0  0  0  0  0
   -4.3022   22.9728   -9.9807 N   0  0  0  0  0  0  0  0  0  0  0  0
   -1.8575   24.6547  -10.4353 C   0  0  0  0  0  0  0  0  0  0  0  0
    4.1963   23.6812  -13.8645 C   0  0  0  0  0  0  0  0  0  0  0  0
    3.5451   23.3423  -15.0451 C   0  0  0  0  0  0  0  0  0  0  0  0
    4.2342   23.3137  -16.3957 C   0  0  1  0  0  0  0  0  0  0  0  0
    5.7207   23.0684  -16.4711 C   0  0  0  0  0  0  0  0  0  0  0  0
    6.0642   22.9562  -17.9434 C   0  0  2  0  0  0  0  0  0  0  0  0
   -2.6872   24.5936   -9.2286 C   0  0  0  0  0  0  0  0  0  0  0  0
    5.4601   23.9490  -18.9438 C   0  0  0  0  0  0  0  0  0  0  0  0
    4.1244   23.3111  -19.3951 C   0  0  0  0  0  0  0  0  0  0  0  0
    4.0635   22.0308  -18.5888 C   0  0  2  0  0  0  0  0  0  0  0  0
    3.4465   22.2754  -17.2295 C   0  0  0  0  0  0  0  0  0  0  0  0
   -0.5840   24.3187  -10.2786 N   0  0  0  0  0  0  0  0  0  0  0  0
    5.4815   21.6779  -18.4157 N   0  0  0  0  0  0  0  0  0  0  0  0
   -2.3404   25.0131  -11.5115 O   0  0  0  0  0  0  0  0  0  0  0  0
   -2.3464   25.6078   -7.8507 S   0  0  0  0  0  0  0  0  0  0  0  0
    4.0481   23.9756  -11.7342 H   0  0  0  0  0  0  0  0  0  0  0  0
   -6.8995   23.4906   -5.6390 H   0  0  0  0  0  0  0  0  0  0  0  0
   -5.2040   24.8242   -3.2434 H   0  0  0  0  0  0  0  0  0  0  0  0
   -5.5177   26.4551   -3.9279 H   0  0  0  0  0  0  0  0  0  0  0  0
   -6.8180   25.2158   -3.9279 H   0  0  0  0  0  0  0  0  0  0  0  0
    0.8290   25.4074  -11.3644 H   0  0  0  0  0  0  0  0  0  0  0  0
   -0.1896   24.2499  -12.3184 H   0  0  0  0  0  0  0  0  0  0  0  0
    0.9759   22.3889  -11.0882 H   0  0  0  0  0  0  0  0  0  0  0  0
    2.1164   23.6110  -10.4554 H   0  0  0  0  0  0  0  0  0  0  0  0
    0.4488   22.8120  -13.7458 H   0  0  0  0  0  0  0  0  0  0  0  0
    1.6491   22.8053  -15.9015 H   0  0  0  0  0  0  0  0  0  0  0  0
   -3.8014   22.8367  -10.8704 H   0  0  0  0  0  0  0  0  0  0  0  0
   -5.1846   22.4715   -9.8045 H   0  0  0  0  0  0  0  0  0  0  0  0
    5.2635   23.9467  -13.8898 H   0  0  0  0  0  0  0  0  0  0  0  0
    4.2064   24.3449  -16.7776 H   0  0  0  0  0  0  0  0  0  0  0  0
    6.2679   23.9073  -16.0161 H   0  0  0  0  0  0  0  0  0  0  0  0
    6.0014   22.1550  -15.9263 H   0  0  0  0  0  0  0  0  0  0  0  0
    7.1537   23.1078  -17.9436 H   0  0  0  0  0  0  0  0  0  0  0  0
    5.2794   24.9208  -18.4610 H   0  0  0  0  0  0  0  0  0  0  0  0
    6.1332   24.1364  -19.7934 H   0  0  0  0  0  0  0  0  0  0  0  0
    3.2739   23.9673  -19.1584 H   0  0  0  0  0  0  0  0  0  0  0  0
    4.0725   23.1406  -20.4805 H   0  0  0  0  0  0  0  0  0  0  0  0
    3.4594   21.2531  -19.0791 H   0  0  0  0  0  0  0  0  0  0  0  0
    3.4234   21.3245  -16.6770 H   0  0  0  0  0  0  0  0  0  0  0  0
    2.4349   22.6764  -17.3906 H   0  0  0  0  0  0  0  0  0  0  0  0
   -0.2583   23.9855   -9.3600 H   0  0  0  0  0  0  0  0  0  0  0  0
    5.9043   21.3808  -19.3067 H   0  0  0  0  0  0  0  0  0  0  0  0
    5.6366   20.8889  -17.7720 H   0  0  0  0  0  0  0  0  0  0  0  0
  1  7  1  0
  1 12  2  0
  1 14  1  0
  2  5  2  0
  2 17  1  0
  3  4  2  0
  3 12  1  0
  4  6  1  0
  4 13  1  0
  5  9  1  0
  5 10  1  0
  7 15  1  0
  7 22  2  0
  8  9  1  0
  8 27  1  0
 10 11  2  0
 11 18  1  0
 13 14  2  0
 14 30  1  0
 16 22  1  0
 16 27  1  0
 16 29  2  0
 17 18  2  0
 19 18  1  0
 19 20  1  0
 19 26  1  0
 21 20  1  0
 21 23  1  0
 21 28  1  0
 22 30  1  0
 23 24  1  0
 25 24  1  0
 25 26  1  0
 25 28  1  0
  2 31  1  0
  3 32  1  0
  6 33  1  0
  6 34  1  0
  6 35  1  0
  8 36  1  0
  8 37  1  0
  9 38  1  0
  9 39  1  0
 10 40  1  0
 11 41  1  0
 15 42  1  0
 15 43  1  0
 17 44  1  0
 19 45  1  6
 20 46  1  0
 20 47  1  0
 21 48  1  1
 23 49  1  0
 23 50  1  0
 24 51  1  0
 24 52  1  0
 25 53  1  6
 26 54  1  0
 26 55  1  0
 27 56  1  0
 28 57  1  0
 28 58  1  0
M  CHG  1  28   1
M  END
>  <filename_input>  (2) 
7TUO_KL9_docked.sdf

>  <pdb_id>  (2) 
7TUO_KL9

>  <pose_rank>  (2) 
1

>  <num_atoms_heavy>  (2) 
30

>  <num_torsions>  (2) 
5

>  <pose>  (2) 
[0.36071168756670924, 24.41212825003088, -11.379871953121096, -1.7689238831605612, -2.0742836850171567, -1.3261901750705356, -4.534049583799256, 0.9756728682147106, -0.24944993344880234, -5.798573850390268, 3.799122913171523]

>  <energy>  (2) 
-835.4009972674982

>  <inter_energy>  (2) 
-819.4498416695046

>  <intra_energy>  (2) 
2.3872472324805707

>  <rmsd>  (2) 
12.1335

>  <sdf_rank>  (2) 
0

$$$$

     RDKit          3D

 58 62  0  0  0  0  0  0  0  0999 V2000
    3.4685   22.9823  -15.2971 C   0  0  0  0  0  0  0  0  0  0  0  0
   -2.3662   24.7567  -10.0828 C   0  0  0  0  0  0  0  0  0  0  0  0
    4.8195   22.5516  -17.0860 C   0  0  0  0  0  0  0  0  0  0  0  0
    5.7421   23.5065  -16.6178 C   0  0  0  0  0  0  0  0  0  0  0  0
   -1.4352   25.6586   -9.5999 C   0  0  0  0  0  0  0  0  0  0  0  0
    7.0077   23.8044  -17.3590 C   0  0  0  0  0  0  0  0  0  0  0  0
    2.3591   22.8873  -14.3635 C   0  0  0  0  0  0  0  0  0  0  0  0
    0.8523   25.1334  -10.2368 C   0  0  0  0  0  0  0  0  0  0  0  0
   -0.2685   26.1004  -10.4443 C   0  0  0  0  0  0  0  0  0  0  0  0
   -1.6515   26.2140   -8.3532 C   0  0  0  0  0  0  0  0  0  0  0  0
   -2.7387   25.8372   -7.5821 C   0  0  0  0  0  0  0  0  0  0  0  0
    3.6818   22.2782  -16.4308 N   0  0  0  0  0  0  0  0  0  0  0  0
    5.5278   24.1911  -15.5050 N   0  0  0  0  0  0  0  0  0  0  0  0
    4.3943   23.9320  -14.8439 C   0  0  0  0  0  0  0  0  0  0  0  0
    1.3631   21.9959  -14.5046 N   0  0  0  0  0  0  0  0  0  0  0  0
    1.5977   23.8182  -12.1305 C   0  0  0  0  0  0  0  0  0  0  0  0
   -3.4536   24.3712   -9.3093 C   0  0  0  0  0  0  0  0  0  0  0  0
   -3.6448   24.8974   -8.0367 C   0  0  0  0  0  0  0  0  0  0  0  0
   -4.8099   24.5135   -7.1451 C   0  0  1  0  0  0  0  0  0  0  0  0
   -6.0380   25.3886   -7.1022 C   0  0  0  0  0  0  0  0  0  0  0  0
   -7.0550   24.6610   -6.2450 C   0  0  2  0  0  0  0  0  0  0  0  0
    2.4980   23.7346  -13.2840 C   0  0  0  0  0  0  0  0  0  0  0  0
   -6.6120   24.0000   -4.9342 C   0  0  0  0  0  0  0  0  0  0  0  0
   -6.1870   22.5643   -5.3250 C   0  0  0  0  0  0  0  0  0  0  0  0
   -6.3885   22.5410   -6.8256 C   0  0  2  0  0  0  0  0  0  0  0  0
   -5.1637   23.0614   -7.5448 C   0  0  0  0  0  0  0  0  0  0  0  0
    1.6387   24.9539  -11.4465 N   0  0  0  0  0  0  0  0  0  0  0  0
   -7.5002   23.4836   -7.0275 N   0  0  0  0  0  0  0  0  0  0  0  0
    0.8693   22.8691  -11.8328 O   0  0  0  0  0  0  0  0  0  0  0  0
    3.9350   24.7194  -13.3762 S   0  0  0  0  0  0  0  0  0  0  0  0
   -2.2438   24.3392  -11.0931 H   0  0  0  0  0  0  0  0  0  0  0  0
    5.0390   22.0124  -18.0193 H   0  0  0  0  0  0  0  0  0  0  0  0
    7.8177   23.9951  -16.6396 H   0  0  0  0  0  0  0  0  0  0  0  0
    7.2736   22.9443  -17.9911 H   0  0  0  0  0  0  0  0  0  0  0  0
    6.8620   24.6928  -17.9911 H   0  0  0  0  0  0  0  0  0  0  0  0
    1.5074   25.5129   -9.4388 H   0  0  0  0  0  0  0  0  0  0  0  0
    0.4191   24.1604   -9.9619 H   0  0  0  0  0  0  0  0  0  0  0  0
   -0.5595   26.1107  -11.5051 H   0  0  0  0  0  0  0  0  0  0  0  0
    0.0466   27.1141  -10.1558 H   0  0  0  0  0  0  0  0  0  0  0  0
   -0.9492   26.9674   -7.9671 H   0  0  0  0  0  0  0  0  0  0  0  0
   -2.8834   26.2932   -6.5916 H   0  0  0  0  0  0  0  0  0  0  0  0
    0.5972   21.9662  -13.8166 H   0  0  0  0  0  0  0  0  0  0  0  0
    1.3659   21.3424  -15.3008 H   0  0  0  0  0  0  0  0  0  0  0  0
   -4.1723   23.6404   -9.7085 H   0  0  0  0  0  0  0  0  0  0  0  0
   -4.4626   24.6469   -6.1099 H   0  0  0  0  0  0  0  0  0  0  0  0
   -5.7940   26.3643   -6.6567 H   0  0  0  0  0  0  0  0  0  0  0  0
   -6.4298   25.5742   -8.1131 H   0  0  0  0  0  0  0  0  0  0  0  0
   -7.7637   25.4623   -5.9886 H   0  0  0  0  0  0  0  0  0  0  0  0
   -5.7649   24.5465   -4.4941 H   0  0  0  0  0  0  0  0  0  0  0  0
   -7.4153   24.0000   -4.1827 H   0  0  0  0  0  0  0  0  0  0  0  0
   -5.1341   22.3801   -5.0654 H   0  0  0  0  0  0  0  0  0  0  0  0
   -6.7609   21.7863   -4.8002 H   0  0  0  0  0  0  0  0  0  0  0  0
   -6.5782   21.5275   -7.2090 H   0  0  0  0  0  0  0  0  0  0  0  0
   -5.3518   23.0303   -8.6282 H   0  0  0  0  0  0  0  0  0  0  0  0
   -4.3147   22.4220   -7.2614 H   0  0  0  0  0  0  0  0  0  0  0  0
    2.2385   25.7226  -11.7783 H   0  0  0  0  0  0  0  0  0  0  0  0
   -8.3842   23.1033   -6.6604 H   0  0  0  0  0  0  0  0  0  0  0  0
   -7.6917   23.6925   -8.0178 H   0  0  0  0  0  0  0  0  0  0  0  0
  1  7  1  0
  1 12  2  0
  1 14  1  0
  2  5  2  0
  2 17  1  0
  3  4  2  0
  3 12  1  0
  4  6  1  0
  4 13  1  0
  5  9  1  0
  5 10  1  0
  7 15  1  0
  7 22  2  0
  8  9  1  0
  8 27  1  0
 10 11  2  0
 11 18  1  0
 13 14  2  0
 14 30  1  0
 16 22  1  0
 16 27  1  0
 16 29  2  0
 17 18  2  0
 19 18  1  0
 19 20  1  0
 19 26  1  0
 21 20  1  0
 21 23  1  0
 21 28  1  0
 22 30  1  0
 23 24  1  0
 25 24  1  0
 25 26  1  0
 25 28  1  0
  2 31  1  0
  3 32  1  0
  6 33  1  0
  6 34  1  0
  6 35  1  0
  8 36  1  0
  8 37  1  0
  9 38  1  0
  9 39  1  0
 10 40  1  0
 11 41  1  0
 15 42  1  0
 15 43  1  0
 17 44  1  0
 19 45  1  1
 20 46  1  0
 20 47  1  0
 21 48  1  1
 23 49  1  0
 23 50  1  0
 24 51  1  0
 24 52  1  0
 25 53  1  6
 26 54  1  0
 26 55  1  0
 27 56  1  0
 28 57  1  0
 28 58  1  0
M  CHG  1  28   1
M  END
>  <filename_input>  (3) 
7TUO_KL9_docked.sdf

>  <pdb_id>  (3) 
7TUO_KL9

>  <pose_rank>  (3) 
2

>  <num_atoms_heavy>  (3) 
30

>  <num_torsions>  (3) 
5

>  <pose>  (3) 
[0.8522790628045926, 25.1333942290989, -10.236803687605263, 0.6620179681272905, -5.362419489760552, -3.024162147301127, 2.430681888827193, 0.30183075422980454, -0.6290650905108796, -3.066068140780756, 1.6493589439788368]

>  <energy>  (3) 
-685.3232612605999

>  <inter_energy>  (3) 
-699.0171716025826

>  <intra_energy>  (3) 
12.51993100960279

>  <rmsd>  (3) 
2.25186

>  <sdf_rank>  (3) 
0

$$$$

     RDKit          3D

 58 62  0  0  0  0  0  0  0  0999 V2000
   -3.9533   24.4894   -7.9894 C   0  0  0  0  0  0  0  0  0  0  0  0
    1.7572   23.2536  -13.5397 C   0  0  0  0  0  0  0  0  0  0  0  0
   -5.7318   23.6943   -6.7997 C   0  0  0  0  0  0  0  0  0  0  0  0
   -6.1241   22.9181   -7.9068 C   0  0  0  0  0  0  0  0  0  0  0  0
    2.5876   23.6603  -12.5109 C   0  0  0  0  0  0  0  0  0  0  0  0
   -7.3400   22.0466   -7.8632 C   0  0  0  0  0  0  0  0  0  0  0  0
   -2.7301   25.2042   -8.3122 C   0  0  0  0  0  0  0  0  0  0  0  0
    1.2038   24.8926  -10.9358 C   0  0  0  0  0  0  0  0  0  0  0  0
    2.0982   23.7045  -11.0867 C   0  0  0  0  0  0  0  0  0  0  0  0
    3.9072   23.9404  -12.8103 C   0  0  0  0  0  0  0  0  0  0  0  0
    4.3743   23.8723  -14.1125 C   0  0  0  0  0  0  0  0  0  0  0  0
   -4.6453   24.4798   -6.8285 N   0  0  0  0  0  0  0  0  0  0  0  0
   -5.4401   22.9306   -9.0404 N   0  0  0  0  0  0  0  0  0  0  0  0
   -4.3567   23.7137   -9.0848 C   0  0  0  0  0  0  0  0  0  0  0  0
   -2.0720   25.9619   -7.4182 N   0  0  0  0  0  0  0  0  0  0  0  0
   -1.0359   25.4334  -10.1857 C   0  0  0  0  0  0  0  0  0  0  0  0
    2.2205   23.1913  -14.8477 C   0  0  0  0  0  0  0  0  0  0  0  0
    3.5369   23.5172  -15.1535 C   0  0  0  0  0  0  0  0  0  0  0  0
    4.0992   23.4708  -16.5612 C   0  0  1  0  0  0  0  0  0  0  0  0
    5.5914   23.3903  -16.7675 C   0  0  0  0  0  0  0  0  0  0  0  0
    5.8108   23.2134  -18.2572 C   0  0  2  0  0  0  0  0  0  0  0  0
   -2.2794   24.9383   -9.5884 C   0  0  0  0  0  0  0  0  0  0  0  0
    5.0045   24.0582  -19.2509 C   0  0  0  0  0  0  0  0  0  0  0  0
    3.7189   23.2432  -19.5296 C   0  0  0  0  0  0  0  0  0  0  0  0
    3.8843   22.0246  -18.6461 C   0  0  2  0  0  0  0  0  0  0  0  0
    3.3685   22.2938  -17.2498 C   0  0  0  0  0  0  0  0  0  0  0  0
   -0.1029   24.5198  -10.4186 N   0  0  0  0  0  0  0  0  0  0  0  0
    5.3441   21.8472  -18.5924 N   0  0  0  0  0  0  0  0  0  0  0  0
   -0.8920   26.6327  -10.4321 O   0  0  0  0  0  0  0  0  0  0  0  0
   -3.3363   23.8668  -10.4706 S   0  0  0  0  0  0  0  0  0  0  0  0
    0.7160   22.9758  -13.3190 H   0  0  0  0  0  0  0  0  0  0  0  0
   -6.3361   23.6551   -5.8813 H   0  0  0  0  0  0  0  0  0  0  0  0
   -7.6134   21.8507   -6.8159 H   0  0  0  0  0  0  0  0  0  0  0  0
   -8.1734   22.5543   -8.3709 H   0  0  0  0  0  0  0  0  0  0  0  0
   -7.1270   21.0943   -8.3709 H   0  0  0  0  0  0  0  0  0  0  0  0
    1.6721   25.6054  -10.2411 H   0  0  0  0  0  0  0  0  0  0  0  0
    1.0634   25.3444  -11.9288 H   0  0  0  0  0  0  0  0  0  0  0  0
    1.5387   22.7858  -10.8567 H   0  0  0  0  0  0  0  0  0  0  0  0
    2.9501   23.7804  -10.3949 H   0  0  0  0  0  0  0  0  0  0  0  0
    4.5977   24.2219  -12.0016 H   0  0  0  0  0  0  0  0  0  0  0  0
    5.4289   24.1047  -14.3217 H   0  0  0  0  0  0  0  0  0  0  0  0
   -1.2080   26.4502   -7.6937 H   0  0  0  0  0  0  0  0  0  0  0  0
   -2.4318   26.0543   -6.4575 H   0  0  0  0  0  0  0  0  0  0  0  0
    1.5372   22.8801  -15.6516 H   0  0  0  0  0  0  0  0  0  0  0  0
    3.9142   24.4626  -16.9995 H   0  0  0  0  0  0  0  0  0  0  0  0
    6.0737   24.3156  -16.4196 H   0  0  0  0  0  0  0  0  0  0  0  0
    6.0271   22.5553  -16.1993 H   0  0  0  0  0  0  0  0  0  0  0  0
    6.8699   23.4866  -18.3736 H   0  0  0  0  0  0  0  0  0  0  0  0
    4.7539   25.0351  -18.8118 H   0  0  0  0  0  0  0  0  0  0  0  0
    5.5706   24.2596  -20.1723 H   0  0  0  0  0  0  0  0  0  0  0  0
    2.8213   23.8143  -19.2502 H   0  0  0  0  0  0  0  0  0  0  0  0
    3.5895   22.9913  -20.5926 H   0  0  0  0  0  0  0  0  0  0  0  0
    3.3353   21.1509  -19.0272 H   0  0  0  0  0  0  0  0  0  0  0  0
    3.5090   21.3880  -16.6418 H   0  0  0  0  0  0  0  0  0  0  0  0
    2.3059   22.5655  -17.3343 H   0  0  0  0  0  0  0  0  0  0  0  0
   -0.3077   23.5283  -10.2295 H   0  0  0  0  0  0  0  0  0  0  0  0
    5.7167   21.5374  -19.5013 H   0  0  0  0  0  0  0  0  0  0  0  0
    5.6498   21.1284  -17.9210 H   0  0  0  0  0  0  0  0  0  0  0  0
  1  7  1  0
  1 12  2  0
  1 14  1  0
  2  5  2  0
  2 17  1  0
  3  4  2  0
  3 12  1  0
  4  6  1  0
  4 13  1  0
  5  9  1  0
  5 10  1  0
  7 15  1  0
  7 22  2  0
  8  9  1  0
  8 27  1  0
 10 11  2  0
 11 18  1  0
 13 14  2  0
 14 30  1  0
 16 22  1  0
 16 27  1  0
 16 29  2  0
 17 18  2  0
 19 18  1  0
 19 20  1  0
 19 26  1  0
 21 20  1  0
 21 23  1  0
 21 28  1  0
 22 30  1  0
 23 24  1  0
 25 24  1  0
 25 26  1  0
 25 28  1  0
  2 31  1  0
  3 32  1  0
  6 33  1  0
  6 34  1  0
  6 35  1  0
  8 36  1  0
  8 37  1  0
  9 38  1  0
  9 39  1  0
 10 40  1  0
 11 41  1  0
 15 42  1  0
 15 43  1  0
 17 44  1  0
 19 45  1  6
 20 46  1  0
 20 47  1  0
 21 48  1  1
 23 49  1  0
 23 50  1  0
 24 51  1  0
 24 52  1  0
 25 53  1  6
 26 54  1  0
 26 55  1  0
 27 56  1  0
 28 57  1  0
 28 58  1  0
M  CHG  1  28   1
M  END
>  <filename_input>  (4) 
7TUO_KL9_docked.sdf

>  <pdb_id>  (4) 
7TUO_KL9

>  <pose_rank>  (4) 
3

>  <num_atoms_heavy>  (4) 
30

>  <num_torsions>  (4) 
5

>  <pose>  (4) 
[1.2038420620114143, 24.892624131724894, -10.935787262207713, -1.5391525559104602, -1.4921186271970166, -2.165767708533656, 1.1788693095846063, -1.2690984346564684, -1.000744739383546, -2.8395515703040903, 0.5465974117736507]

>  <energy>  (4) 
-785.052333616858

>  <inter_energy>  (4) 
-777.1127370382496

>  <intra_energy>  (4) 
1.1350945744245489

>  <rmsd>  (4) 
11.7412

>  <sdf_rank>  (4) 
0

$$$$

     RDKit          3D

 58 62  0  0  0  0  0  0  0  0999 V2000
    3.9332   23.4301  -15.0122 C   0  0  0  0  0  0  0  0  0  0  0  0
   -2.1304   25.3001   -9.2543 C   0  0  0  0  0  0  0  0  0  0  0  0
    5.8216   23.0704  -16.2432 C   0  0  0  0  0  0  0  0  0  0  0  0
    6.6116   23.4169  -15.1306 C   0  0  0  0  0  0  0  0  0  0  0  0
   -2.2042   24.2033  -10.0939 C   0  0  0  0  0  0  0  0  0  0  0  0
    8.1067   23.4167  -15.1989 C   0  0  0  0  0  0  0  0  0  0  0  0
    2.5291   23.4917  -14.6430 C   0  0  0  0  0  0  0  0  0  0  0  0
   -0.5163   22.8148  -11.1603 C   0  0  0  0  0  0  0  0  0  0  0  0
   -1.3019   24.0794  -11.2940 C   0  0  0  0  0  0  0  0  0  0  0  0
   -3.0666   23.1787   -9.7535 C   0  0  0  0  0  0  0  0  0  0  0  0
   -3.8779   23.2698   -8.6345 C   0  0  0  0  0  0  0  0  0  0  0  0
    4.4814   23.0690  -16.1935 N   0  0  0  0  0  0  0  0  0  0  0  0
    6.0678   23.7676  -13.9755 N   0  0  0  0  0  0  0  0  0  0  0  0
    4.7317   23.7753  -13.9133 C   0  0  0  0  0  0  0  0  0  0  0  0
    1.5401   23.1315  -15.4788 N   0  0  0  0  0  0  0  0  0  0  0  0
    1.0552   23.9334  -12.6269 C   0  0  0  0  0  0  0  0  0  0  0  0
   -2.9476   25.3979   -8.1354 C   0  0  0  0  0  0  0  0  0  0  0  0
   -3.8472   24.3861   -7.8197 C   0  0  0  0  0  0  0  0  0  0  0  0
   -4.7663   24.4373   -6.6144 C   0  0  1  0  0  0  0  0  0  0  0  0
   -4.3313   23.8049   -5.3157 C   0  0  0  0  0  0  0  0  0  0  0  0
   -5.3926   24.1537   -4.2907 C   0  0  2  0  0  0  0  0  0  0  0  0
    2.3405   23.8603  -13.3273 C   0  0  0  0  0  0  0  0  0  0  0  0
   -6.8759   24.0501   -4.6653 C   0  0  0  0  0  0  0  0  0  0  0  0
   -7.2464   25.4344   -5.2494 C   0  0  0  0  0  0  0  0  0  0  0  0
   -5.9381   26.1947   -5.1921 C   0  0  2  0  0  0  0  0  0  0  0  0
   -5.1061   25.9351   -6.4284 C   0  0  0  0  0  0  0  0  0  0  0  0
    0.7617   22.9003  -11.8484 N   0  0  0  0  0  0  0  0  0  0  0  0
   -5.2611   25.6060   -4.0257 N   0  0  0  0  0  0  0  0  0  0  0  0
    0.3095   24.9026  -12.7831 O   0  0  0  0  0  0  0  0  0  0  0  0
    3.8369   24.2038  -12.4988 S   0  0  0  0  0  0  0  0  0  0  0  0
   -1.4148   26.1056   -9.4756 H   0  0  0  0  0  0  0  0  0  0  0  0
    6.3196   22.7919  -17.1836 H   0  0  0  0  0  0  0  0  0  0  0  0
    8.5202   23.4166  -14.1796 H   0  0  0  0  0  0  0  0  0  0  0  0
    8.4492   22.5185  -15.7336 H   0  0  0  0  0  0  0  0  0  0  0  0
    8.4495   24.3148  -15.7336 H   0  0  0  0  0  0  0  0  0  0  0  0
   -0.3342   22.6194  -10.0932 H   0  0  0  0  0  0  0  0  0  0  0  0
   -1.0976   22.0001  -11.6166 H   0  0  0  0  0  0  0  0  0  0  0  0
   -1.9065   24.0466  -12.2124 H   0  0  0  0  0  0  0  0  0  0  0  0
   -0.6236   24.9435  -11.3496 H   0  0  0  0  0  0  0  0  0  0  0  0
   -3.1096   22.2764  -10.3811 H   0  0  0  0  0  0  0  0  0  0  0  0
   -4.5578   22.4403   -8.3902 H   0  0  0  0  0  0  0  0  0  0  0  0
    0.5588   23.1925  -15.1720 H   0  0  0  0  0  0  0  0  0  0  0  0
    1.7636   22.7945  -16.4262 H   0  0  0  0  0  0  0  0  0  0  0  0
   -2.8822   26.2871   -7.4911 H   0  0  0  0  0  0  0  0  0  0  0  0
   -5.6202   23.7852   -6.8503 H   0  0  0  0  0  0  0  0  0  0  0  0
   -4.2579   22.7134   -5.4303 H   0  0  0  0  0  0  0  0  0  0  0  0
   -3.3423   24.1731   -5.0055 H   0  0  0  0  0  0  0  0  0  0  0  0
   -5.2005   23.4204   -3.4936 H   0  0  0  0  0  0  0  0  0  0  0  0
   -7.0295   23.2612   -5.4163 H   0  0  0  0  0  0  0  0  0  0  0  0
   -7.5009   23.7898   -3.7984 H   0  0  0  0  0  0  0  0  0  0  0  0
   -7.6043   25.3425   -6.2855 H   0  0  0  0  0  0  0  0  0  0  0  0
   -8.0590   25.9315   -4.6994 H   0  0  0  0  0  0  0  0  0  0  0  0
   -6.0863   27.2829   -5.1287 H   0  0  0  0  0  0  0  0  0  0  0  0
   -4.1668   26.5017   -6.3460 H   0  0  0  0  0  0  0  0  0  0  0  0
   -5.6971   26.2530   -7.3000 H   0  0  0  0  0  0  0  0  0  0  0  0
    1.4516   22.1449  -11.7293 H   0  0  0  0  0  0  0  0  0  0  0  0
   -5.7311   25.8700   -3.1480 H   0  0  0  0  0  0  0  0  0  0  0  0
   -4.2869   25.9197   -3.9101 H   0  0  0  0  0  0  0  0  0  0  0  0
  1  7  1  0
  1 12  2  0
  1 14  1  0
  2  5  2  0
  2 17  1  0
  3  4  2  0
  3 12  1  0
  4  6  1  0
  4 13  1  0
  5  9  1  0
  5 10  1  0
  7 15  1  0
  7 22  2  0
  8  9  1  0
  8 27  1  0
 10 11  2  0
 11 18  1  0
 13 14  2  0
 14 30  1  0
 16 22  1  0
 16 27  1  0
 16 29  2  0
 17 18  2  0
 19 18  1  0
 19 20  1  0
 19 26  1  0
 21 20  1  0
 21 23  1  0
 21 28  1  0
 22 30  1  0
 23 24  1  0
 25 24  1  0
 25 26  1  0
 25 28  1  0
  2 31  1  0
  3 32  1  0
  6 33  1  0
  6 34  1  0
  6 35  1  0
  8 36  1  0
  8 37  1  0
  9 38  1  0
  9 39  1  0
 10 40  1  0
 11 41  1  0
 15 42  1  0
 15 43  1  0
 17 44  1  0
 19 45  1  6
 20 46  1  0
 20 47  1  0
 21 48  1  1
 23 49  1  0
 23 50  1  0
 24 51  1  0
 24 52  1  0
 25 53  1  1
 26 54  1  0
 26 55  1  0
 27 56  1  0
 28 57  1  0
 28 58  1  0
M  CHG  1  28   1
M  END
>  <filename_input>  (5) 
7TUO_KL9_docked.sdf

>  <pdb_id>  (5) 
7TUO_KL9

>  <pose_rank>  (5) 
4

>  <num_atoms_heavy>  (5) 
30

>  <num_torsions>  (5) 
5

>  <pose>  (5) 
[-0.5162738565629288, 22.814808940173734, -11.160259396422385, -4.046975690218619, 3.6876098111616105, 1.2572685625410884, -8.363092048922173, -1.4739396512862677, -12.125803371986796, 0.5904152609571335, -4.573678056608308]

>  <energy>  (5) 
-711.5382856459012

>  <inter_energy>  (5) 
-751.3258682654262

>  <intra_energy>  (5) 
47.4357167950721

>  <rmsd>  (5) 
2.18121

>  <sdf_rank>  (5) 
0

$$$$

     RDKit          3D

 58 62  0  0  0  0  0  0  0  0999 V2000
   -6.0847   23.3947  -10.5306 C   0  0  0  0  0  0  0  0  0  0  0  0
    0.9171   23.1983  -13.1552 C   0  0  0  0  0  0  0  0  0  0  0  0
   -8.3397   23.1920  -10.8215 C   0  0  0  0  0  0  0  0  0  0  0  0
   -8.5472   23.6024   -9.4909 C   0  0  0  0  0  0  0  0  0  0  0  0
    1.2523   24.0154  -12.0906 C   0  0  0  0  0  0  0  0  0  0  0  0
   -9.9215   23.7113   -8.9083 C   0  0  0  0  0  0  0  0  0  0  0  0
   -4.6614   23.4116  -10.8227 C   0  0  0  0  0  0  0  0  0  0  0  0
   -0.2850   23.1660  -10.4085 C   0  0  0  0  0  0  0  0  0  0  0  0
    0.2274   24.4102  -11.0594 C   0  0  0  0  0  0  0  0  0  0  0  0
    2.5749   24.3888  -11.9467 C   0  0  0  0  0  0  0  0  0  0  0  0
    3.5306   24.0047  -12.8729 C   0  0  0  0  0  0  0  0  0  0  0  0
   -7.1127   23.0894  -11.3530 N   0  0  0  0  0  0  0  0  0  0  0  0
   -7.5355   23.9022   -8.6913 N   0  0  0  0  0  0  0  0  0  0  0  0
   -6.3056   23.7994   -9.2070 C   0  0  0  0  0  0  0  0  0  0  0  0
   -4.1656   23.1469  -12.0436 N   0  0  0  0  0  0  0  0  0  0  0  0
   -2.4506   24.0240   -9.7410 C   0  0  0  0  0  0  0  0  0  0  0  0
    1.8714   22.8173  -14.0898 C   0  0  0  0  0  0  0  0  0  0  0  0
    3.1929   23.2315  -13.9680 C   0  0  0  0  0  0  0  0  0  0  0  0
    4.2779   22.8506  -14.9568 C   0  0  1  0  0  0  0  0  0  0  0  0
    3.9202   22.0596  -16.1906 C   0  0  0  0  0  0  0  0  0  0  0  0
    5.1815   21.9736  -17.0272 C   0  0  2  0  0  0  0  0  0  0  0  0
   -3.9021   23.8207   -9.7463 C   0  0  0  0  0  0  0  0  0  0  0  0
    6.5228   21.6623  -16.3524 C   0  0  0  0  0  0  0  0  0  0  0  0
    7.1046   23.0381  -15.9480 C   0  0  0  0  0  0  0  0  0  0  0  0
    6.0323   24.0106  -16.3924 C   0  0  2  0  0  0  0  0  0  0  0  0
    4.9781   24.1812  -15.3212 C   0  0  0  0  0  0  0  0  0  0  0  0
   -1.7382   23.1215  -10.4025 N   0  0  0  0  0  0  0  0  0  0  0  0
    5.4313   23.3363  -17.5541 N   0  0  0  0  0  0  0  0  0  0  0  0
   -1.9525   24.9772   -9.1384 O   0  0  0  0  0  0  0  0  0  0  0  0
   -4.8606   24.1448   -8.3251 S   0  0  0  0  0  0  0  0  0  0  0  0
   -0.1191   22.8455  -13.2631 H   0  0  0  0  0  0  0  0  0  0  0  0
   -9.2121   22.9476  -11.4454 H   0  0  0  0  0  0  0  0  0  0  0  0
   -9.8557   23.7061   -7.8103 H   0  0  0  0  0  0  0  0  0  0  0  0
  -10.3885   24.6492   -9.2432 H   0  0  0  0  0  0  0  0  0  0  0  0
  -10.5303   22.8585   -9.2432 H   0  0  0  0  0  0  0  0  0  0  0  0
    0.0961   22.2930  -10.9587 H   0  0  0  0  0  0  0  0  0  0  0  0
    0.0627   23.1568   -9.3649 H   0  0  0  0  0  0  0  0  0  0  0  0
    0.6913   25.0614  -10.3039 H   0  0  0  0  0  0  0  0  0  0  0  0
   -0.5993   24.9573  -11.5360 H   0  0  0  0  0  0  0  0  0  0  0  0
    2.8737   25.0007  -11.0829 H   0  0  0  0  0  0  0  0  0  0  0  0
    4.5753   24.3202  -12.7349 H   0  0  0  0  0  0  0  0  0  0  0  0
   -3.1482   23.1710  -12.2026 H   0  0  0  0  0  0  0  0  0  0  0  0
   -4.8030   22.9200  -12.8202 H   0  0  0  0  0  0  0  0  0  0  0  0
    1.5779   22.1799  -14.9368 H   0  0  0  0  0  0  0  0  0  0  0  0
    4.9105   22.1078  -14.4489 H   0  0  0  0  0  0  0  0  0  0  0  0
    3.5804   21.0516  -15.9105 H   0  0  0  0  0  0  0  0  0  0  0  0
    3.1042   22.5413  -16.7493 H   0  0  0  0  0  0  0  0  0  0  0  0
    4.9545   21.1427  -17.7113 H   0  0  0  0  0  0  0  0  0  0  0  0
    6.3701   21.0322  -15.4638 H   0  0  0  0  0  0  0  0  0  0  0  0
    7.2002   21.1106  -17.0207 H   0  0  0  0  0  0  0  0  0  0  0  0
    7.2632   23.0953  -14.8611 H   0  0  0  0  0  0  0  0  0  0  0  0
    8.0863   23.2415  -16.4007 H   0  0  0  0  0  0  0  0  0  0  0  0
    6.4349   25.0114  -16.6075 H   0  0  0  0  0  0  0  0  0  0  0  0
    4.2195   24.8906  -15.6835 H   0  0  0  0  0  0  0  0  0  0  0  0
    5.4809   24.5514  -14.4156 H   0  0  0  0  0  0  0  0  0  0  0  0
   -2.2234   22.3757  -10.9213 H   0  0  0  0  0  0  0  0  0  0  0  0
    6.0821   23.3151  -18.3521 H   0  0  0  0  0  0  0  0  0  0  0  0
    4.5862   23.8032  -17.9128 H   0  0  0  0  0  0  0  0  0  0  0  0
  1  7  1  0
  1 12  2  0
  1 14  1  0
  2  5  2  0
  2 17  1  0
  3  4  2  0
  3 12  1  0
  4  6  1  0
  4 13  1  0
  5  9  1  0
  5 10  1  0
  7 15  1  0
  7 22  2  0
  8  9  1  0
  8 27  1  0
 10 11  2  0
 11 18  1  0
 13 14  2  0
 14 30  1  0
 16 22  1  0
 16 27  1  0
 16 29  2  0
 17 18  2  0
 19 18  1  0
 19 20  1  0
 19 26  1  0
 21 20  1  0
 21 23  1  0
 21 28  1  0
 22 30  1  0
 23 24  1  0
 25 24  1  0
 25 26  1  0
 25 28  1  0
  2 31  1  0
  3 32  1  0
  6 33  1  0
  6 34  1  0
  6 35  1  0
  8 36  1  0
  8 37  1  0
  9 38  1  0
  9 39  1  0
 10 40  1  0
 11 41  1  0
 15 42  1  0
 15 43  1  0
 17 44  1  0
 19 45  1  1
 20 46  1  0
 20 47  1  0
 21 48  1  6
 23 49  1  0
 23 50  1  0
 24 51  1  0
 24 52  1  0
 25 53  1  6
 26 54  1  0
 26 55  1  0
 27 56  1  0
 28 57  1  0
 28 58  1  0
M  CHG  1  28   1
M  END
>  <filename_input>  (6) 
7TUO_KL9_docked.sdf

>  <pdb_id>  (6) 
7TUO_KL9

>  <pose_rank>  (6) 
5

>  <num_atoms_heavy>  (6) 
30

>  <num_torsions>  (6) 
5

>  <pose>  (6) 
[-0.2849667675974284, 23.165982698690254, -10.408502045676322, -0.5832029199593247, 1.743813164017533, -1.4196981329483767, -3.043682479915404, 2.356346970669633, 0.8456340847986746, -0.4783814246219541, -2.8718339560725106]

>  <energy>  (6) 
-621.9722711766219

>  <inter_energy>  (6) 
-652.2982234262912

>  <intra_energy>  (6) 
25.73619393275446

>  <rmsd>  (6) 
11.6136

>  <sdf_rank>  (6) 
0

$$$$

     RDKit          3D

 58 62  0  0  0  0  0  0  0  0999 V2000
    1.9074   25.9842  -21.9411 C   0  0  0  0  0  0  0  0  0  0  0  0
    3.5675   22.5649  -16.2091 C   0  0  0  0  0  0  0  0  0  0  0  0
    0.6154   27.6879  -22.7403 C   0  0  0  0  0  0  0  0  0  0  0  0
   -0.5446   26.9724  -22.3875 C   0  0  0  0  0  0  0  0  0  0  0  0
    4.7737   23.2397  -16.1520 C   0  0  0  0  0  0  0  0  0  0  0  0
   -1.9134   27.5208  -22.6435 C   0  0  0  0  0  0  0  0  0  0  0  0
    3.0806   25.2222  -21.5481 C   0  0  0  0  0  0  0  0  0  0  0  0
    5.0802   22.4953  -18.4468 C   0  0  0  0  0  0  0  0  0  0  0  0
    5.7326   23.2197  -17.3138 C   0  0  0  0  0  0  0  0  0  0  0  0
    5.0384   24.0082  -15.0345 C   0  0  0  0  0  0  0  0  0  0  0  0
    4.1485   24.0577  -13.9743 C   0  0  0  0  0  0  0  0  0  0  0  0
    1.8465   27.2052  -22.5171 N   0  0  0  0  0  0  0  0  0  0  0  0
   -0.4776   25.7775  -21.8213 N   0  0  0  0  0  0  0  0  0  0  0  0
    0.7443   25.2816  -21.5974 C   0  0  0  0  0  0  0  0  0  0  0  0
    4.3325   25.6923  -21.6826 N   0  0  0  0  0  0  0  0  0  0  0  0
    3.7070   23.0718  -20.3583 C   0  0  0  0  0  0  0  0  0  0  0  0
    2.6761   22.6066  -15.1447 C   0  0  0  0  0  0  0  0  0  0  0  0
    2.9648   23.3442  -14.0021 C   0  0  0  0  0  0  0  0  0  0  0  0
    2.0334   23.4257  -12.8081 C   0  0  1  0  0  0  0  0  0  0  0  0
    2.5690   23.8774  -11.4721 C   0  0  0  0  0  0  0  0  0  0  0  0
    1.3746   23.9884  -10.5450 C   0  0  2  0  0  0  0  0  0  0  0  0
    2.7595   24.0260  -20.9412 C   0  0  0  0  0  0  0  0  0  0  0  0
    0.3076   22.8871  -10.5429 C   0  0  0  0  0  0  0  0  0  0  0  0
   -0.7200   23.3131  -11.6187 C   0  0  0  0  0  0  0  0  0  0  0  0
   -0.1343   24.5978  -12.1660 C   0  0  2  0  0  0  0  0  0  0  0  0
    0.8549   24.3131  -13.2744 C   0  0  0  0  0  0  0  0  0  0  0  0
    4.0855   23.3214  -19.1117 N   0  0  0  0  0  0  0  0  0  0  0  0
    0.5869   25.1544  -11.0105 N   0  0  0  0  0  0  0  0  0  0  0  0
    4.1183   22.1140  -21.0166 O   0  0  0  0  0  0  0  0  0  0  0  0
    1.0396   23.7421  -20.8709 S   0  0  0  0  0  0  0  0  0  0  0  0
    3.3109   21.9876  -17.1095 H   0  0  0  0  0  0  0  0  0  0  0  0
    0.5085   28.6748  -23.2143 H   0  0  0  0  0  0  0  0  0  0  0  0
   -2.4134   27.7211  -21.6844 H   0  0  0  0  0  0  0  0  0  0  0  0
   -1.8324   28.4559  -23.2171 H   0  0  0  0  0  0  0  0  0  0  0  0
   -2.5005   26.7885  -23.2171 H   0  0  0  0  0  0  0  0  0  0  0  0
    5.8509   22.2080  -19.1772 H   0  0  0  0  0  0  0  0  0  0  0  0
    4.5726   21.6083  -18.0397 H   0  0  0  0  0  0  0  0  0  0  0  0
    5.9701   24.2498  -17.6182 H   0  0  0  0  0  0  0  0  0  0  0  0
    6.6660   22.7134  -17.0268 H   0  0  0  0  0  0  0  0  0  0  0  0
    5.9708   24.5899  -14.9862 H   0  0  0  0  0  0  0  0  0  0  0  0
    4.3875   24.6749  -13.0957 H   0  0  0  0  0  0  0  0  0  0  0  0
    5.1336   25.1149  -21.3896 H   0  0  0  0  0  0  0  0  0  0  0  0
    4.4909   26.6298  -22.0785 H   0  0  0  0  0  0  0  0  0  0  0  0
    1.7299   22.0490  -15.2065 H   0  0  0  0  0  0  0  0  0  0  0  0
    1.7708   22.3890  -12.5510 H   0  0  0  0  0  0  0  0  0  0  0  0
    3.2862   23.1406  -11.0814 H   0  0  0  0  0  0  0  0  0  0  0  0
    3.0958   24.8391  -11.5591 H   0  0  0  0  0  0  0  0  0  0  0  0
    1.8469   23.9935   -9.5515 H   0  0  0  0  0  0  0  0  0  0  0  0
    0.7555   21.9161  -10.8009 H   0  0  0  0  0  0  0  0  0  0  0  0
   -0.1587   22.7693   -9.5537 H   0  0  0  0  0  0  0  0  0  0  0  0
   -0.8048   22.5508  -12.4071 H   0  0  0  0  0  0  0  0  0  0  0  0
   -1.7369   23.4384  -11.2185 H   0  0  0  0  0  0  0  0  0  0  0  0
   -0.9018   25.2649  -12.5856 H   0  0  0  0  0  0  0  0  0  0  0  0
    1.2574   25.2688  -13.6412 H   0  0  0  0  0  0  0  0  0  0  0  0
    0.3201   23.7672  -14.0656 H   0  0  0  0  0  0  0  0  0  0  0  0
    3.6671   24.1149  -18.6056 H   0  0  0  0  0  0  0  0  0  0  0  0
   -0.0662   25.4789  -10.2831 H   0  0  0  0  0  0  0  0  0  0  0  0
    1.1615   25.9784  -11.2383 H   0  0  0  0  0  0  0  0  0  0  0  0
  1  7  1  0
  1 12  2  0
  1 14  1  0
  2  5  2  0
  2 17  1  0
  3  4  2  0
  3 12  1  0
  4  6  1  0
  4 13  1  0
  5  9  1  0
  5 10  1  0
  7 15  1  0
  7 22  2  0
  8  9  1  0
  8 27  1  0
 10 11  2  0
 11 18  1  0
 13 14  2  0
 14 30  1  0
 16 22  1  0
 16 27  1  0
 16 29  2  0
 17 18  2  0
 19 18  1  0
 19 20  1  0
 19 26  1  0
 21 20  1  0
 21 23  1  0
 21 28  1  0
 22 30  1  0
 23 24  1  0
 25 24  1  0
 25 26  1  0
 25 28  1  0
  2 31  1  0
  3 32  1  0
  6 33  1  0
  6 34  1  0
  6 35  1  0
  8 36  1  0
  8 37  1  0
  9 38  1  0
  9 39  1  0
 10 40  1  0
 11 41  1  0
 15 42  1  0
 15 43  1  0
 17 44  1  0
 19 45  1  1
 20 46  1  0
 20 47  1  0
 21 48  1  1
 23 49  1  0
 23 50  1  0
 24 51  1  0
 24 52  1  0
 25 53  1  6
 26 54  1  0
 26 55  1  0
 27 56  1  0
 28 57  1  0
 28 58  1  0
M  CHG  1  28   1
M  END
>  <filename_input>  (7) 
7TUO_KL9_docked.sdf

>  <pdb_id>  (7) 
7TUO_KL9

>  <pose_rank>  (7) 
6

>  <num_atoms_heavy>  (7) 
30

>  <num_torsions>  (7) 
5

>  <pose>  (7) 
[5.080158436064236, 22.49527418160594, -18.44680482786964, -1.765003750338791, -3.817967907101528, 1.3383446359064912, 0.818100412056874, 4.535952748460681, -1.8457067011313746, -1.4472305983679135, -0.1261931557188624]

>  <energy>  (7) 
-547.2673066304956

>  <inter_energy>  (7) 
-547.5958876428754

>  <intra_energy>  (7) 
13.174907783115968

>  <rmsd>  (7) 
8.48366

>  <sdf_rank>  (7) 
0

$$$$

     RDKit          3D

 58 62  0  0  0  0  0  0  0  0999 V2000
   -4.3741   24.9175   -6.5108 C   0  0  0  0  0  0  0  0  0  0  0  0
   -5.9637   20.5801  -14.4354 C   0  0  0  0  0  0  0  0  0  0  0  0
   -4.5409   25.5090   -4.3124 C   0  0  0  0  0  0  0  0  0  0  0  0
   -5.3299   24.3693   -4.0666 C   0  0  0  0  0  0  0  0  0  0  0  0
   -6.0761   21.9309  -14.1599 C   0  0  0  0  0  0  0  0  0  0  0  0
   -5.8697   24.0671   -2.7038 C   0  0  0  0  0  0  0  0  0  0  0  0
   -3.9729   24.9327   -7.9073 C   0  0  0  0  0  0  0  0  0  0  0  0
   -5.0555   22.8853  -12.1695 C   0  0  0  0  0  0  0  0  0  0  0  0
   -6.3470   22.4203  -12.7610 C   0  0  0  0  0  0  0  0  0  0  0  0
   -5.8443   22.8269  -15.1860 C   0  0  0  0  0  0  0  0  0  0  0  0
   -5.5637   22.3868  -16.4690 C   0  0  0  0  0  0  0  0  0  0  0  0
   -4.0537   25.7901   -5.5298 N   0  0  0  0  0  0  0  0  0  0  0  0
   -5.6381   23.5172   -5.0320 N   0  0  0  0  0  0  0  0  0  0  0  0
   -5.1629   23.7880   -6.2526 C   0  0  0  0  0  0  0  0  0  0  0  0
   -3.1430   25.8593   -8.4163 N   0  0  0  0  0  0  0  0  0  0  0  0
   -4.1615   23.5289  -10.0112 C   0  0  0  0  0  0  0  0  0  0  0  0
   -5.6896   20.1352  -15.7224 C   0  0  0  0  0  0  0  0  0  0  0  0
   -5.5014   21.0376  -16.7631 C   0  0  0  0  0  0  0  0  0  0  0  0
   -5.2024   20.6125  -18.1878 C   0  0  1  0  0  0  0  0  0  0  0  0
   -5.7535   19.3089  -18.7099 C   0  0  0  0  0  0  0  0  0  0  0  0
   -5.4023   19.2529  -20.1837 C   0  0  2  0  0  0  0  0  0  0  0  0
   -4.4546   23.8487   -8.6112 C   0  0  0  0  0  0  0  0  0  0  0  0
   -4.0001   19.6640  -20.6483 C   0  0  0  0  0  0  0  0  0  0  0  0
   -4.0891   21.1856  -20.9155 C   0  0  0  0  0  0  0  0  0  0  0  0
   -5.5197   21.5179  -20.5468 C   0  0  2  0  0  0  0  0  0  0  0  0
   -5.6447   21.8062  -19.0671 C   0  0  0  0  0  0  0  0  0  0  0  0
   -5.2142   23.2897  -10.7819 N   0  0  0  0  0  0  0  0  0  0  0  0
   -6.2413   20.2733  -20.8557 N   0  0  0  0  0  0  0  0  0  0  0  0
   -2.9972   23.4801  -10.4134 O   0  0  0  0  0  0  0  0  0  0  0  0
   -5.4551   22.8005   -7.6399 S   0  0  0  0  0  0  0  0  0  0  0  0
   -6.0932   19.8483  -13.6244 H   0  0  0  0  0  0  0  0  0  0  0  0
   -4.3167   26.1910   -3.4789 H   0  0  0  0  0  0  0  0  0  0  0  0
   -5.1778   24.4544   -1.9413 H   0  0  0  0  0  0  0  0  0  0  0  0
   -6.8526   24.5462   -2.5842 H   0  0  0  0  0  0  0  0  0  0  0  0
   -5.9752   22.9788   -2.5842 H   0  0  0  0  0  0  0  0  0  0  0  0
   -4.3243   22.0651  -12.2204 H   0  0  0  0  0  0  0  0  0  0  0  0
   -4.7099   23.7577  -12.7435 H   0  0  0  0  0  0  0  0  0  0  0  0
   -7.0643   23.2537  -12.7906 H   0  0  0  0  0  0  0  0  0  0  0  0
   -6.7737   21.6100  -12.1515 H   0  0  0  0  0  0  0  0  0  0  0  0
   -5.8833   23.9069  -14.9806 H   0  0  0  0  0  0  0  0  0  0  0  0
   -5.3874   23.1231  -17.2670 H   0  0  0  0  0  0  0  0  0  0  0  0
   -2.8869   25.8293   -9.4135 H   0  0  0  0  0  0  0  0  0  0  0  0
   -2.7630   26.5995   -7.8091 H   0  0  0  0  0  0  0  0  0  0  0  0
   -5.6206   19.0554  -15.9206 H   0  0  0  0  0  0  0  0  0  0  0  0
   -4.1288   20.3751  -18.2195 H   0  0  0  0  0  0  0  0  0  0  0  0
   -5.2953   18.4623  -18.1777 H   0  0  0  0  0  0  0  0  0  0  0  0
   -6.8411   19.2471  -18.5574 H   0  0  0  0  0  0  0  0  0  0  0  0
   -5.5279   18.1849  -20.4156 H   0  0  0  0  0  0  0  0  0  0  0  0
   -3.2572   19.4531  -19.8649 H   0  0  0  0  0  0  0  0  0  0  0  0
   -3.6848   19.1079  -21.5435 H   0  0  0  0  0  0  0  0  0  0  0  0
   -3.3798   21.7395  -20.2829 H   0  0  0  0  0  0  0  0  0  0  0  0
   -3.8359   21.4576  -21.9508 H   0  0  0  0  0  0  0  0  0  0  0  0
   -5.8963   22.4042  -21.0785 H   0  0  0  0  0  0  0  0  0  0  0  0
   -6.6957   22.0395  -18.8414 H   0  0  0  0  0  0  0  0  0  0  0  0
   -4.9820   22.6532  -18.8360 H   0  0  0  0  0  0  0  0  0  0  0  0
   -6.1613   23.3922  -10.3903 H   0  0  0  0  0  0  0  0  0  0  0  0
   -6.2868   20.1099  -21.8716 H   0  0  0  0  0  0  0  0  0  0  0  0
   -7.2226   20.2746  -20.5426 H   0  0  0  0  0  0  0  0  0  0  0  0
  1  7  1  0
  1 12  2  0
  1 14  1  0
  2  5  2  0
  2 17  1  0
  3  4  2  0
  3 12  1  0
  4  6  1  0
  4 13  1  0
  5  9  1  0
  5 10  1  0
  7 15  1  0
  7 22  2  0
  8  9  1  0
  8 27  1  0
 10 11  2  0
 11 18  1  0
 13 14  2  0
 14 30  1  0
 16 22  1  0
 16 27  1  0
 16 29  2  0
 17 18  2  0
 19 18  1  0
 19 20  1  0
 19 26  1  0
 21 20  1  0
 21 23  1  0
 21 28  1  0
 22 30  1  0
 23 24  1  0
 25 24  1  0
 25 26  1  0
 25 28  1  0
  2 31  1  0
  3 32  1  0
  6 33  1  0
  6 34  1  0
  6 35  1  0
  8 36  1  0
  8 37  1  0
  9 38  1  0
  9 39  1  0
 10 40  1  0
 11 41  1  0
 15 42  1  0
 15 43  1  0
 17 44  1  0
 19 45  1  1
 20 46  1  0
 20 47  1  0
 21 48  1  6
 23 49  1  0
 23 50  1  0
 24 51  1  0
 24 52  1  0
 25 53  1  6
 26 54  1  0
 26 55  1  0
 27 56  1  0
 28 57  1  0
 28 58  1  0
M  CHG  1  28   1
M  END
>  <filename_input>  (8) 
7TUO_KL9_docked.sdf

>  <pdb_id>  (8) 
7TUO_KL9

>  <pose_rank>  (8) 
7

>  <num_atoms_heavy>  (8) 
30

>  <num_torsions>  (8) 
5

>  <pose>  (8) 
[-5.055518423898567, 22.885324637315843, -12.169485234675555, -3.0055108233574597, 0.7668017743226206, -1.4059320780433295, -5.271326751532582, -5.4710338653851895, 6.313044792943056, 0.2244355202306978, 3.880223376669012]

>  <energy>  (8) 
-503.70288144914844

>  <inter_energy>  (8) 
-502.52875990671794

>  <intra_energy>  (8) 
4.569127232337636

>  <rmsd>  (8) 
12.2639

>  <sdf_rank>  (8) 
0

$$$$

     RDKit          3D

 58 62  0  0  0  0  0  0  0  0999 V2000
   -7.9930   19.3366  -15.0146 C   0  0  0  0  0  0  0  0  0  0  0  0
   -3.1914   24.2569   -9.5463 C   0  0  0  0  0  0  0  0  0  0  0  0
   -9.0721   17.5969  -16.0246 C   0  0  0  0  0  0  0  0  0  0  0  0
   -9.6099   17.2105  -14.7822 C   0  0  0  0  0  0  0  0  0  0  0  0
   -3.8637   23.3013  -10.2868 C   0  0  0  0  0  0  0  0  0  0  0  0
  -10.5065   16.0194  -14.6512 C   0  0  0  0  0  0  0  0  0  0  0  0
   -7.1907   20.5353  -14.8395 C   0  0  0  0  0  0  0  0  0  0  0  0
   -4.4370   23.3635  -12.6493 C   0  0  0  0  0  0  0  0  0  0  0  0
   -3.4004   22.9191  -11.6684 C   0  0  0  0  0  0  0  0  0  0  0  0
   -4.9207   22.6399   -9.6912 C   0  0  0  0  0  0  0  0  0  0  0  0
   -5.3345   22.9628   -8.4094 C   0  0  0  0  0  0  0  0  0  0  0  0
   -8.2664   18.6613  -16.1529 N   0  0  0  0  0  0  0  0  0  0  0  0
   -9.3397   17.8781  -13.6712 N   0  0  0  0  0  0  0  0  0  0  0  0
   -8.5332   18.9392  -13.7838 C   0  0  0  0  0  0  0  0  0  0  0  0
   -6.6185   21.1849  -15.8676 N   0  0  0  0  0  0  0  0  0  0  0  0
   -6.5238   22.1965  -13.0427 C   0  0  0  0  0  0  0  0  0  0  0  0
   -3.6082   24.5881   -8.2633 C   0  0  0  0  0  0  0  0  0  0  0  0
   -4.7002   23.9531   -7.6829 C   0  0  0  0  0  0  0  0  0  0  0  0
   -5.2034   24.2734   -6.2885 C   0  0  1  0  0  0  0  0  0  0  0  0
   -4.2914   24.0805   -5.1024 C   0  0  0  0  0  0  0  0  0  0  0  0
   -5.0341   24.6208   -3.8963 C   0  0  2  0  0  0  0  0  0  0  0  0
   -7.1696   20.9753  -13.5324 C   0  0  0  0  0  0  0  0  0  0  0  0
   -6.5196   24.2913   -3.7066 C   0  0  0  0  0  0  0  0  0  0  0  0
   -7.2841   25.4128   -4.4498 C   0  0  0  0  0  0  0  0  0  0  0  0
   -6.1728   26.2629   -5.0289 C   0  0  2  0  0  0  0  0  0  0  0  0
   -5.7245   25.7278   -6.3708 C   0  0  0  0  0  0  0  0  0  0  0  0
   -5.2040   22.2418  -13.1665 N   0  0  0  0  0  0  0  0  0  0  0  0
   -5.0819   26.0936   -4.0560 N   0  0  0  0  0  0  0  0  0  0  0  0
   -7.1927   23.1018  -12.5398 O   0  0  0  0  0  0  0  0  0  0  0  0
   -8.0628   19.9357  -12.4531 S   0  0  0  0  0  0  0  0  0  0  0  0
   -2.3150   24.7612   -9.9792 H   0  0  0  0  0  0  0  0  0  0  0  0
   -9.3208   17.0068  -16.9189 H   0  0  0  0  0  0  0  0  0  0  0  0
  -10.6716   15.8001  -13.5860 H   0  0  0  0  0  0  0  0  0  0  0  0
  -11.4711   16.2315  -15.1357 H   0  0  0  0  0  0  0  0  0  0  0  0
  -10.0359   15.1512  -15.1357 H   0  0  0  0  0  0  0  0  0  0  0  0
   -5.1226   24.0644  -12.1505 H   0  0  0  0  0  0  0  0  0  0  0  0
   -3.9247   23.8472  -13.4941 H   0  0  0  0  0  0  0  0  0  0  0  0
   -2.4426   23.4129  -11.8897 H   0  0  0  0  0  0  0  0  0  0  0  0
   -3.2584   21.8303  -11.7334 H   0  0  0  0  0  0  0  0  0  0  0  0
   -5.4419   21.8444  -10.2440 H   0  0  0  0  0  0  0  0  0  0  0  0
   -6.1817   22.4222   -7.9621 H   0  0  0  0  0  0  0  0  0  0  0  0
   -6.0580   22.0315  -15.6940 H   0  0  0  0  0  0  0  0  0  0  0  0
   -6.7403   20.8361  -16.8290 H   0  0  0  0  0  0  0  0  0  0  0  0
   -3.0674   25.3625   -7.6996 H   0  0  0  0  0  0  0  0  0  0  0  0
   -5.9621   23.5127   -6.0526 H   0  0  0  0  0  0  0  0  0  0  0  0
   -4.0684   23.0122   -4.9642 H   0  0  0  0  0  0  0  0  0  0  0  0
   -3.3343   24.6030   -5.2473 H   0  0  0  0  0  0  0  0  0  0  0  0
   -4.4847   24.1670   -3.0583 H   0  0  0  0  0  0  0  0  0  0  0  0
   -6.7553   23.3095   -4.1430 H   0  0  0  0  0  0  0  0  0  0  0  0
   -6.7963   24.2412   -2.6431 H   0  0  0  0  0  0  0  0  0  0  0  0
   -7.9185   24.9968   -5.2463 H   0  0  0  0  0  0  0  0  0  0  0  0
   -7.9641   25.9783   -3.7958 H   0  0  0  0  0  0  0  0  0  0  0  0
   -6.4808   27.3070   -5.1874 H   0  0  0  0  0  0  0  0  0  0  0  0
   -4.9177   26.3697   -6.7542 H   0  0  0  0  0  0  0  0  0  0  0  0
   -6.5983   25.7308   -7.0390 H   0  0  0  0  0  0  0  0  0  0  0  0
   -4.7134   21.4683  -13.6377 H   0  0  0  0  0  0  0  0  0  0  0  0
   -5.3008   26.5595   -3.1639 H   0  0  0  0  0  0  0  0  0  0  0  0
   -4.1884   26.5067   -4.3592 H   0  0  0  0  0  0  0  0  0  0  0  0
  1  7  1  0
  1 12  2  0
  1 14  1  0
  2  5  2  0
  2 17  1  0
  3  4  2  0
  3 12  1  0
  4  6  1  0
  4 13  1  0
  5  9  1  0
  5 10  1  0
  7 15  1  0
  7 22  2  0
  8  9  1  0
  8 27  1  0
 10 11  2  0
 11 18  1  0
 13 14  2  0
 14 30  1  0
 16 22  1  0
 16 27  1  0
 16 29  2  0
 17 18  2  0
 19 18  1  0
 19 20  1  0
 19 26  1  0
 21 20  1  0
 21 23  1  0
 21 28  1  0
 22 30  1  0
 23 24  1  0
 25 24  1  0
 25 26  1  0
 25 28  1  0
  2 31  1  0
  3 32  1  0
  6 33  1  0
  6 34  1  0
  6 35  1  0
  8 36  1  0
  8 37  1  0
  9 38  1  0
  9 39  1  0
 10 40  1  0
 11 41  1  0
 15 42  1  0
 15 43  1  0
 17 44  1  0
 19 45  1  1
 20 46  1  0
 20 47  1  0
 21 48  1  1
 23 49  1  0
 23 50  1  0
 24 51  1  0
 24 52  1  0
 25 53  1  6
 26 54  1  0
 26 55  1  0
 27 56  1  0
 28 57  1  0
 28 58  1  0
M  CHG  1  28   1
M  END
>  <filename_input>  (9) 
7TUO_KL9_docked.sdf

>  <pdb_id>  (9) 
7TUO_KL9

>  <pose_rank>  (9) 
8

>  <num_atoms_heavy>  (9) 
30

>  <num_torsions>  (9) 
5

>  <pose>  (9) 
[-4.436987387169606, 23.363540533495073, -12.649321180364609, 0.1364360489187988, -1.9262773520284866, -2.4529110121838684, -6.083461551705885, 1.9485900732085997, -5.031587572122007, -3.5096308544041586, 2.2859556701465094]

>  <energy>  (9) 
-432.19384911575827

>  <inter_energy>  (9) 
-436.0155787048269

>  <intra_energy>  (9) 
5.3656029881738485

>  <rmsd>  (9) 
8.68327

>  <sdf_rank>  (9) 
0

$$$$

     RDKit          3D

 58 62  0  0  0  0  0  0  0  0999 V2000
   -5.3189   21.3005  -18.6687 C   0  0  0  0  0  0  0  0  0  0  0  0
   -7.3894   23.8006  -10.1802 C   0  0  0  0  0  0  0  0  0  0  0  0
   -4.6441   21.2783  -20.8493 C   0  0  0  0  0  0  0  0  0  0  0  0
   -4.0373   20.0241  -20.6476 C   0  0  0  0  0  0  0  0  0  0  0  0
   -6.3824   23.3985  -11.0389 C   0  0  0  0  0  0  0  0  0  0  0  0
   -3.3155   19.3148  -21.7503 C   0  0  0  0  0  0  0  0  0  0  0  0
   -5.9638   21.7263  -17.4381 C   0  0  0  0  0  0  0  0  0  0  0  0
   -6.2143   21.7584  -12.8267 C   0  0  0  0  0  0  0  0  0  0  0  0
   -6.6580   23.1475  -12.4987 C   0  0  0  0  0  0  0  0  0  0  0  0
   -5.0954   23.3189  -10.5423 C   0  0  0  0  0  0  0  0  0  0  0  0
   -4.8270   23.5781   -9.2083 C   0  0  0  0  0  0  0  0  0  0  0  0
   -5.2917   21.9232  -19.8679 N   0  0  0  0  0  0  0  0  0  0  0  0
   -4.0697   19.4186  -19.4706 N   0  0  0  0  0  0  0  0  0  0  0  0
   -4.7083   20.0530  -18.4812 C   0  0  0  0  0  0  0  0  0  0  0  0
   -6.6968   22.8495  -17.3512 N   0  0  0  0  0  0  0  0  0  0  0  0
   -6.4213   20.9015  -15.0838 C   0  0  0  0  0  0  0  0  0  0  0  0
   -7.1251   24.0542   -8.8404 C   0  0  0  0  0  0  0  0  0  0  0  0
   -5.8370   23.9296   -8.3324 C   0  0  0  0  0  0  0  0  0  0  0  0
   -5.4876   24.1902   -6.8798 C   0  0  1  0  0  0  0  0  0  0  0  0
   -4.0644   24.0162   -6.4108 C   0  0  0  0  0  0  0  0  0  0  0  0
   -4.0251   24.4887   -4.9708 C   0  0  2  0  0  0  0  0  0  0  0  0
   -5.8210   20.8093  -16.4177 C   0  0  0  0  0  0  0  0  0  0  0  0
   -5.1428   24.0788   -4.0044 C   0  0  0  0  0  0  0  0  0  0  0  0
   -6.2243   25.1769   -4.1427 C   0  0  0  0  0  0  0  0  0  0  0  0
   -5.6494   26.0966   -5.1993 C   0  0  2  0  0  0  0  0  0  0  0  0
   -6.0088   25.6174   -6.5883 C   0  0  0  0  0  0  0  0  0  0  0  0
   -5.7658   21.6485  -14.2054 N   0  0  0  0  0  0  0  0  0  0  0  0
   -4.1971   25.9605   -5.0056 N   0  0  0  0  0  0  0  0  0  0  0  0
   -7.4645   20.2990  -14.8220 O   0  0  0  0  0  0  0  0  0  0  0  0
   -4.8586   19.4287  -16.8772 S   0  0  0  0  0  0  0  0  0  0  0  0
   -8.4134   23.9211  -10.5635 H   0  0  0  0  0  0  0  0  0  0  0  0
   -4.5850   21.7444  -21.8439 H   0  0  0  0  0  0  0  0  0  0  0  0
   -2.5936   18.6055  -21.3192 H   0  0  0  0  0  0  0  0  0  0  0  0
   -4.0406   18.7682  -22.3710 H   0  0  0  0  0  0  0  0  0  0  0  0
   -2.7817   20.0495  -22.3710 H   0  0  0  0  0  0  0  0  0  0  0  0
   -5.3849   21.4821  -12.1590 H   0  0  0  0  0  0  0  0  0  0  0  0
   -7.0719   21.0833  -12.6903 H   0  0  0  0  0  0  0  0  0  0  0  0
   -7.7350   23.2509  -12.6972 H   0  0  0  0  0  0  0  0  0  0  0  0
   -6.1143   23.8759  -13.1183 H   0  0  0  0  0  0  0  0  0  0  0  0
   -4.2708   23.0453  -11.2170 H   0  0  0  0  0  0  0  0  0  0  0  0
   -3.7933   23.5030   -8.8400 H   0  0  0  0  0  0  0  0  0  0  0  0
   -7.1351   23.1105  -16.4564 H   0  0  0  0  0  0  0  0  0  0  0  0
   -6.8202   23.4493  -18.1794 H   0  0  0  0  0  0  0  0  0  0  0  0
   -7.9452   24.3575   -8.1729 H   0  0  0  0  0  0  0  0  0  0  0  0
   -5.9636   23.3861   -6.2995 H   0  0  0  0  0  0  0  0  0  0  0  0
   -3.7709   22.9579   -6.4717 H   0  0  0  0  0  0  0  0  0  0  0  0
   -3.3660   24.5906   -7.0372 H   0  0  0  0  0  0  0  0  0  0  0  0
   -3.0891   24.0439   -4.6021 H   0  0  0  0  0  0  0  0  0  0  0  0
   -5.5526   23.0968   -4.2835 H   0  0  0  0  0  0  0  0  0  0  0  0
   -4.7788   23.9891   -2.9703 H   0  0  0  0  0  0  0  0  0  0  0  0
   -7.1823   24.7479   -4.4718 H   0  0  0  0  0  0  0  0  0  0  0  0
   -6.4412   25.6909   -3.1947 H   0  0  0  0  0  0  0  0  0  0  0  0
   -6.0241   27.1270   -5.1093 H   0  0  0  0  0  0  0  0  0  0  0  0
   -5.5715   26.3090   -7.3235 H   0  0  0  0  0  0  0  0  0  0  0  0
   -7.1063   25.5915   -6.6577 H   0  0  0  0  0  0  0  0  0  0  0  0
   -4.9237   22.1602  -14.5054 H   0  0  0  0  0  0  0  0  0  0  0  0
   -3.8958   26.3931   -4.1207 H   0  0  0  0  0  0  0  0  0  0  0  0
   -3.6365   26.4262   -5.7334 H   0  0  0  0  0  0  0  0  0  0  0  0
  1  7  1  0
  1 12  2  0
  1 14  1  0
  2  5  2  0
  2 17  1  0
  3  4  2  0
  3 12  1  0
  4  6  1  0
  4 13  1  0
  5  9  1  0
  5 10  1  0
  7 15  1  0
  7 22  2  0
  8  9  1  0
  8 27  1  0
 10 11  2  0
 11 18  1  0
 13 14  2  0
 14 30  1  0
 16 22  1  0
 16 27  1  0
 16 29  2  0
 17 18  2  0
 19 18  1  0
 19 20  1  0
 19 26  1  0
 21 20  1  0
 21 23  1  0
 21 28  1  0
 22 30  1  0
 23 24  1  0
 25 24  1  0
 25 26  1  0
 25 28  1  0
  2 31  1  0
  3 32  1  0
  6 33  1  0
  6 34  1  0
  6 35  1  0
  8 36  1  0
  8 37  1  0
  9 38  1  0
  9 39  1  0
 10 40  1  0
 11 41  1  0
 15 42  1  0
 15 43  1  0
 17 44  1  0
 19 45  1  1
 20 46  1  0
 20 47  1  0
 21 48  1  1
 23 49  1  0
 23 50  1  0
 24 51  1  0
 24 52  1  0
 25 53  1  1
 26 54  1  0
 26 55  1  0
 27 56  1  0
 28 57  1  0
 28 58  1  0
M  CHG  1  28   1
M  END
>  <filename_input>  (10) 
7TUO_KL9_docked.sdf

>  <pdb_id>  (10) 
7TUO_KL9

>  <pose_rank>  (10) 
9

>  <num_atoms_heavy>  (10) 
30

>  <num_torsions>  (10) 
5

>  <pose>  (10) 
[-6.214250166667049, 21.758402013042396, -12.826691892160778, -2.872068877845133, -2.3020221176864433, 4.273852860704153, 2.345183508520822, 1.6186950135227645, -12.070513237833326, 2.5771952072037534, 0.1858798463814103]

>  <energy>  (10) 
-488.13800056340324

>  <inter_energy>  (10) 
-481.7992233500353

>  <intra_energy>  (10) 
0.33946848490478504

>  <rmsd>  (10) 
7.00762

>  <sdf_rank>  (10) 
0

$$$$

     RDKit          3D

 58 62  0  0  0  0  0  0  0  0999 V2000
   -4.8965   17.7692  -16.7282 C   0  0  0  0  0  0  0  0  0  0  0  0
   -4.5995   22.9257   -9.9647 C   0  0  0  0  0  0  0  0  0  0  0  0
   -4.1481   16.7218  -18.6133 C   0  0  0  0  0  0  0  0  0  0  0  0
   -3.9754   15.5313  -17.8819 C   0  0  0  0  0  0  0  0  0  0  0  0
   -5.8383   22.7863  -10.5641 C   0  0  0  0  0  0  0  0  0  0  0  0
   -3.4543   14.2840  -18.5243 C   0  0  0  0  0  0  0  0  0  0  0  0
   -5.4401   18.7956  -15.8549 C   0  0  0  0  0  0  0  0  0  0  0  0
   -5.8940   20.5799  -11.5854 C   0  0  0  0  0  0  0  0  0  0  0  0
   -5.9941   22.0447  -11.8662 C   0  0  0  0  0  0  0  0  0  0  0  0
   -6.9454   23.2683   -9.8923 C   0  0  0  0  0  0  0  0  0  0  0  0
   -6.8155   23.9243   -8.6792 C   0  0  0  0  0  0  0  0  0  0  0  0
   -4.6126   17.8453  -18.0473 N   0  0  0  0  0  0  0  0  0  0  0  0
   -4.2578   15.4631  -16.5902 N   0  0  0  0  0  0  0  0  0  0  0  0
   -4.7173   16.5780  -16.0116 C   0  0  0  0  0  0  0  0  0  0  0  0
   -5.7887   20.0165  -16.2956 N   0  0  0  0  0  0  0  0  0  0  0  0
   -6.2564   19.1053  -13.4737 C   0  0  0  0  0  0  0  0  0  0  0  0
   -4.4648   23.5893   -8.7519 C   0  0  0  0  0  0  0  0  0  0  0  0
   -5.5749   24.1133   -8.0994 C   0  0  0  0  0  0  0  0  0  0  0  0
   -5.4906   24.8493   -6.7761 C   0  0  1  0  0  0  0  0  0  0  0  0
   -6.5060   25.9157   -6.4481 C   0  0  0  0  0  0  0  0  0  0  0  0
   -6.2345   26.3433   -5.0192 C   0  0  2  0  0  0  0  0  0  0  0  0
   -5.6453   18.3449  -14.5676 C   0  0  0  0  0  0  0  0  0  0  0  0
   -4.7915   26.5747   -4.5550 C   0  0  0  0  0  0  0  0  0  0  0  0
   -4.3028   25.1990   -4.0421 C   0  0  0  0  0  0  0  0  0  0  0  0
   -5.4921   24.2954   -4.2906 C   0  0  2  0  0  0  0  0  0  0  0  0
   -5.4662   23.7404   -5.6975 C   0  0  0  0  0  0  0  0  0  0  0  0
   -5.4258   19.8406  -12.7464 N   0  0  0  0  0  0  0  0  0  0  0  0
   -6.6384   25.2082   -4.1559 N   0  0  0  0  0  0  0  0  0  0  0  0
   -7.4685   19.0340  -13.2603 O   0  0  0  0  0  0  0  0  0  0  0  0
   -5.1400   16.6907  -14.3402 S   0  0  0  0  0  0  0  0  0  0  0  0
   -3.7091   22.5053  -10.4550 H   0  0  0  0  0  0  0  0  0  0  0  0
   -3.8938   16.7307  -19.6834 H   0  0  0  0  0  0  0  0  0  0  0  0
   -3.1550   13.5677  -17.7450 H   0  0  0  0  0  0  0  0  0  0  0  0
   -4.2411   13.8375  -19.1500 H   0  0  0  0  0  0  0  0  0  0  0  0
   -2.5837   14.5300  -19.1500 H   0  0  0  0  0  0  0  0  0  0  0  0
   -5.1895   20.4235  -10.7552 H   0  0  0  0  0  0  0  0  0  0  0  0
   -6.8973   20.2112  -11.3258 H   0  0  0  0  0  0  0  0  0  0  0  0
   -6.9749   22.2725  -12.3092 H   0  0  0  0  0  0  0  0  0  0  0  0
   -5.2089   22.3501  -12.5733 H   0  0  0  0  0  0  0  0  0  0  0  0
   -7.9459   23.1288  -10.3277 H   0  0  0  0  0  0  0  0  0  0  0  0
   -7.7142   24.3010   -8.1689 H   0  0  0  0  0  0  0  0  0  0  0  0
   -6.1702   20.7118  -15.6382 H   0  0  0  0  0  0  0  0  0  0  0  0
   -5.6744   20.2570  -17.2905 H   0  0  0  0  0  0  0  0  0  0  0  0
   -3.4672   23.7015   -8.3021 H   0  0  0  0  0  0  0  0  0  0  0  0
   -4.5881   25.4761   -6.8293 H   0  0  0  0  0  0  0  0  0  0  0  0
   -6.3915   26.7718   -7.1293 H   0  0  0  0  0  0  0  0  0  0  0  0
   -7.5322   25.5363   -6.5618 H   0  0  0  0  0  0  0  0  0  0  0  0
   -6.7607   27.3073   -4.9576 H   0  0  0  0  0  0  0  0  0  0  0  0
   -4.1673   26.9175   -5.3933 H   0  0  0  0  0  0  0  0  0  0  0  0
   -4.7303   27.3487   -3.7757 H   0  0  0  0  0  0  0  0  0  0  0  0
   -3.4228   24.8573   -4.6068 H   0  0  0  0  0  0  0  0  0  0  0  0
   -3.9880   25.2182   -2.9882 H   0  0  0  0  0  0  0  0  0  0  0  0
   -5.5161   23.4338   -3.6071 H   0  0  0  0  0  0  0  0  0  0  0  0
   -6.3452   23.0939   -5.8373 H   0  0  0  0  0  0  0  0  0  0  0  0
   -4.5270   23.1805   -5.8171 H   0  0  0  0  0  0  0  0  0  0  0  0
   -4.4310   19.8886  -13.0090 H   0  0  0  0  0  0  0  0  0  0  0  0
   -6.7646   25.5082   -3.1787 H   0  0  0  0  0  0  0  0  0  0  0  0
   -7.5388   24.7849   -4.4222 H   0  0  0  0  0  0  0  0  0  0  0  0
  1  7  1  0
  1 12  2  0
  1 14  1  0
  2  5  2  0
  2 17  1  0
  3  4  2  0
  3 12  1  0
  4  6  1  0
  4 13  1  0
  5  9  1  0
  5 10  1  0
  7 15  1  0
  7 22  2  0
  8  9  1  0
  8 27  1  0
 10 11  2  0
 11 18  1  0
 13 14  2  0
 14 30  1  0
 16 22  1  0
 16 27  1  0
 16 29  2  0
 17 18  2  0
 19 18  1  0
 19 20  1  0
 19 26  1  0
 21 20  1  0
 21 23  1  0
 21 28  1  0
 22 30  1  0
 23 24  1  0
 25 24  1  0
 25 26  1  0
 25 28  1  0
  2 31  1  0
  3 32  1  0
  6 33  1  0
  6 34  1  0
  6 35  1  0
  8 36  1  0
  8 37  1  0
  9 38  1  0
  9 39  1  0
 10 40  1  0
 11 41  1  0
 15 42  1  0
 15 43  1  0
 17 44  1  0
 19 45  1  6
 20 46  1  0
 20 47  1  0
 21 48  1  1
 23 49  1  0
 23 50  1  0
 24 51  1  0
 24 52  1  0
 25 53  1  1
 26 54  1  0
 26 55  1  0
 27 56  1  0
 28 57  1  0
 28 58  1  0
M  CHG  1  28   1
M  END
>  <filename_input>  (11) 
7TUO_KL9_docked.sdf

>  <pdb_id>  (11) 
7TUO_KL9

>  <pose_rank>  (11) 
10

>  <num_atoms_heavy>  (11) 
30

>  <num_torsions>  (11) 
5

>  <pose>  (11) 
[-5.894018991738668, 20.579947357262174, -11.58538569413059, -0.011202664284411449, 0.029341911608045577, -0.741765914677341, 2.5109896345758096, 1.521059865089044, -12.147376039326577, -0.2162051638801269, -0.31164209716019936]

>  <energy>  (11) 
-476.0315798256366

>  <inter_energy>  (11) 
-466.8032401331322

>  <intra_energy>  (11) 
0.023589136717581664

>  <rmsd>  (11) 
7.51572

>  <sdf_rank>  (11) 
0

$$$$

     RDKit          3D

 58 62  0  0  0  0  0  0  0  0999 V2000
   -5.2461   18.0907  -15.9174 C   0  0  0  0  0  0  0  0  0  0  0  0
   -5.5255   23.1500  -10.5461 C   0  0  0  0  0  0  0  0  0  0  0  0
   -3.8707   17.0792  -17.4326 C   0  0  0  0  0  0  0  0  0  0  0  0
   -4.4110   17.8804  -18.4564 C   0  0  0  0  0  0  0  0  0  0  0  0
   -6.7018   23.7716  -10.9246 C   0  0  0  0  0  0  0  0  0  0  0  0
   -3.9500   17.7579  -19.8750 C   0  0  0  0  0  0  0  0  0  0  0  0
   -5.8608   18.4497  -14.6507 C   0  0  0  0  0  0  0  0  0  0  0  0
   -7.7768   22.0877  -12.3114 C   0  0  0  0  0  0  0  0  0  0  0  0
   -7.3212   23.5108  -12.2730 C   0  0  0  0  0  0  0  0  0  0  0  0
   -7.3439   24.5711   -9.9984 C   0  0  0  0  0  0  0  0  0  0  0  0
   -6.7979   24.7920   -8.7447 C   0  0  0  0  0  0  0  0  0  0  0  0
   -4.2776   17.1796  -16.1587 N   0  0  0  0  0  0  0  0  0  0  0  0
   -5.3581   18.7728  -18.2125 N   0  0  0  0  0  0  0  0  0  0  0  0
   -5.7771   18.8800  -16.9468 C   0  0  0  0  0  0  0  0  0  0  0  0
   -5.4834   17.9094  -13.4793 N   0  0  0  0  0  0  0  0  0  0  0  0
   -7.5193   20.1062  -13.6822 C   0  0  0  0  0  0  0  0  0  0  0  0
   -4.9715   23.3751   -9.2925 C   0  0  0  0  0  0  0  0  0  0  0  0
   -5.5960   24.2158   -8.3781 C   0  0  0  0  0  0  0  0  0  0  0  0
   -5.0388   24.5021   -6.9970 C   0  0  1  0  0  0  0  0  0  0  0  0
   -4.8381   25.9299   -6.5534 C   0  0  0  0  0  0  0  0  0  0  0  0
   -4.4156   25.8731   -5.0986 C   0  0  2  0  0  0  0  0  0  0  0  0
   -6.7888   19.4623  -14.7775 C   0  0  0  0  0  0  0  0  0  0  0  0
   -3.3758   24.8403   -4.6477 C   0  0  0  0  0  0  0  0  0  0  0  0
   -4.1904   23.5801   -4.2697 C   0  0  0  0  0  0  0  0  0  0  0  0
   -5.6172   23.9881   -4.5709 C   0  0  2  0  0  0  0  0  0  0  0  0
   -5.9594   23.7308   -6.0217 C   0  0  0  0  0  0  0  0  0  0  0  0
   -7.1822   21.3625  -13.4226 N   0  0  0  0  0  0  0  0  0  0  0  0
   -5.6068   25.4397   -4.3305 N   0  0  0  0  0  0  0  0  0  0  0  0
   -8.3789   19.4870  -13.0517 O   0  0  0  0  0  0  0  0  0  0  0  0
   -7.0023   19.9826  -16.4289 S   0  0  0  0  0  0  0  0  0  0  0  0
   -5.0220   22.4684  -11.2474 H   0  0  0  0  0  0  0  0  0  0  0  0
   -3.0895   16.3473  -17.6858 H   0  0  0  0  0  0  0  0  0  0  0  0
   -2.8871   17.4754  -19.8921 H   0  0  0  0  0  0  0  0  0  0  0  0
   -4.5428   16.9861  -20.3878 H   0  0  0  0  0  0  0  0  0  0  0  0
   -4.0814   18.7222  -20.3878 H   0  0  0  0  0  0  0  0  0  0  0  0
   -7.4896   21.5959  -11.3703 H   0  0  0  0  0  0  0  0  0  0  0  0
   -8.8689   22.0807  -12.4426 H   0  0  0  0  0  0  0  0  0  0  0  0
   -8.1805   24.1808  -12.4237 H   0  0  0  0  0  0  0  0  0  0  0  0
   -6.5864   23.6958  -13.0704 H   0  0  0  0  0  0  0  0  0  0  0  0
   -8.3040   25.0395  -10.2608 H   0  0  0  0  0  0  0  0  0  0  0  0
   -7.3294   25.4364   -8.0291 H   0  0  0  0  0  0  0  0  0  0  0  0
   -5.9490   18.1956  -12.6063 H   0  0  0  0  0  0  0  0  0  0  0  0
   -4.7284   17.2092  -13.4547 H   0  0  0  0  0  0  0  0  0  0  0  0
   -4.0268   22.8819   -9.0196 H   0  0  0  0  0  0  0  0  0  0  0  0
   -3.9890   24.1741   -7.0144 H   0  0  0  0  0  0  0  0  0  0  0  0
   -4.0544   26.4093   -7.1584 H   0  0  0  0  0  0  0  0  0  0  0  0
   -5.7592   26.5183   -6.6775 H   0  0  0  0  0  0  0  0  0  0  0  0
   -3.9810   26.8711   -4.9401 H   0  0  0  0  0  0  0  0  0  0  0  0
   -2.6758   24.6156   -5.4659 H   0  0  0  0  0  0  0  0  0  0  0  0
   -2.7720   25.2069   -3.8044 H   0  0  0  0  0  0  0  0  0  0  0  0
   -3.8892   22.7172   -4.8818 H   0  0  0  0  0  0  0  0  0  0  0  0
   -4.0422   23.2674   -3.2255 H   0  0  0  0  0  0  0  0  0  0  0  0
   -6.3500   23.4337   -3.9661 H   0  0  0  0  0  0  0  0  0  0  0  0
   -6.9995   24.0421   -6.1988 H   0  0  0  0  0  0  0  0  0  0  0  0
   -5.8191   22.6564   -6.2112 H   0  0  0  0  0  0  0  0  0  0  0  0
   -6.4866   21.8329  -14.0190 H   0  0  0  0  0  0  0  0  0  0  0  0
   -5.5028   25.6519   -3.3280 H   0  0  0  0  0  0  0  0  0  0  0  0
   -6.4769   25.9129   -4.6133 H   0  0  0  0  0  0  0  0  0  0  0  0
  1  7  1  0
  1 12  2  0
  1 14  1  0
  2  5  2  0
  2 17  1  0
  3  4  2  0
  3 12  1  0
  4  6  1  0
  4 13  1  0
  5  9  1  0
  5 10  1  0
  7 15  1  0
  7 22  2  0
  8  9  1  0
  8 27  1  0
 10 11  2  0
 11 18  1  0
 13 14  2  0
 14 30  1  0
 16 22  1  0
 16 27  1  0
 16 29  2  0
 17 18  2  0
 19 18  1  0
 19 20  1  0
 19 26  1  0
 21 20  1  0
 21 23  1  0
 21 28  1  0
 22 30  1  0
 23 24  1  0
 25 24  1  0
 25 26  1  0
 25 28  1  0
  2 31  1  0
  3 32  1  0
  6 33  1  0
  6 34  1  0
  6 35  1  0
  8 36  1  0
  8 37  1  0
  9 38  1  0
  9 39  1  0
 10 40  1  0
 11 41  1  0
 15 42  1  0
 15 43  1  0
 17 44  1  0
 19 45  1  6
 20 46  1  0
 20 47  1  0
 21 48  1  1
 23 49  1  0
 23 50  1  0
 24 51  1  0
 24 52  1  0
 25 53  1  1
 26 54  1  0
 26 55  1  0
 27 56  1  0
 28 57  1  0
 28 58  1  0
M  CHG  1  28   1
M  END
>  <filename_input>  (12) 
7TUO_KL9_docked.sdf

>  <pdb_id>  (12) 
7TUO_KL9

>  <pose_rank>  (12) 
11

>  <num_atoms_heavy>  (12) 
30

>  <num_torsions>  (12) 
5

>  <pose>  (12) 
[-7.77678662553166, 22.087694013752593, -12.311432487399731, -1.3114295433613128, 1.0231823310057218, 4.866364314236966, 1.2750445054232864, -1.2965986062492143, 0.9478734819409653, 5.912158649881674, -0.7324035813396979]

>  <energy>  (12) 
-475.2774815374172

>  <inter_energy>  (12) 
-470.139227431122

>  <intra_energy>  (12) 
0.9186617558979622

>  <rmsd>  (12) 
7.56127

>  <sdf_rank>  (12) 
0

$$$$

     RDKit          3D

 58 62  0  0  0  0  0  0  0  0999 V2000
   -5.4936   19.4070  -17.8912 C   0  0  0  0  0  0  0  0  0  0  0  0
   -5.2047   23.1089  -10.3993 C   0  0  0  0  0  0  0  0  0  0  0  0
   -5.4761   17.7625  -19.4743 C   0  0  0  0  0  0  0  0  0  0  0  0
   -6.8604   17.5780  -19.2964 C   0  0  0  0  0  0  0  0  0  0  0  0
   -6.4878   23.3298  -10.8663 C   0  0  0  0  0  0  0  0  0  0  0  0
   -7.6221   16.5519  -20.0755 C   0  0  0  0  0  0  0  0  0  0  0  0
   -5.0370   20.4832  -17.0281 C   0  0  0  0  0  0  0  0  0  0  0  0
   -5.6141   22.9485  -13.1035 C   0  0  0  0  0  0  0  0  0  0  0  0
   -6.8655   23.0051  -12.2881 C   0  0  0  0  0  0  0  0  0  0  0  0
   -7.4406   23.7734   -9.9692 C   0  0  0  0  0  0  0  0  0  0  0  0
   -7.1099   24.0450   -8.6518 C   0  0  0  0  0  0  0  0  0  0  0  0
   -4.7837   18.6777  -18.7803 N   0  0  0  0  0  0  0  0  0  0  0  0
   -7.5502   18.2977  -18.4251 N   0  0  0  0  0  0  0  0  0  0  0  0
   -6.8711   19.2110  -17.7224 C   0  0  0  0  0  0  0  0  0  0  0  0
   -3.7736   20.9415  -17.0423 N   0  0  0  0  0  0  0  0  0  0  0  0
   -5.9419   22.1851  -15.3798 C   0  0  0  0  0  0  0  0  0  0  0  0
   -4.8679   23.3871   -9.0808 C   0  0  0  0  0  0  0  0  0  0  0  0
   -5.8176   23.8763   -8.1910 C   0  0  0  0  0  0  0  0  0  0  0  0
   -5.5095   24.2008   -6.7420 C   0  0  1  0  0  0  0  0  0  0  0  0
   -4.0878   24.1203   -6.2441 C   0  0  0  0  0  0  0  0  0  0  0  0
   -4.1007   24.6389   -4.8196 C   0  0  2  0  0  0  0  0  0  0  0  0
   -6.0565   21.0343  -16.2801 C   0  0  0  0  0  0  0  0  0  0  0  0
   -5.2118   24.1980   -3.8592 C   0  0  0  0  0  0  0  0  0  0  0  0
   -6.3490   25.2299   -4.0504 C   0  0  0  0  0  0  0  0  0  0  0  0
   -5.8060   26.1468   -5.1263 C   0  0  2  0  0  0  0  0  0  0  0  0
   -6.1132   25.6055   -6.5050 C   0  0  0  0  0  0  0  0  0  0  0  0
   -5.6758   21.9025  -14.1115 N   0  0  0  0  0  0  0  0  0  0  0  0
   -4.3522   26.0971   -4.9043 N   0  0  0  0  0  0  0  0  0  0  0  0
   -6.1018   23.3318  -15.8034 O   0  0  0  0  0  0  0  0  0  0  0  0
   -7.5904   20.2449  -16.5397 S   0  0  0  0  0  0  0  0  0  0  0  0
   -4.4407   22.7074  -11.0813 H   0  0  0  0  0  0  0  0  0  0  0  0
   -4.9453   17.1359  -20.2061 H   0  0  0  0  0  0  0  0  0  0  0  0
   -8.1305   15.8670  -19.3809 H   0  0  0  0  0  0  0  0  0  0  0  0
   -8.3690   17.0526  -20.7091 H   0  0  0  0  0  0  0  0  0  0  0  0
   -6.9266   15.9819  -20.7091 H   0  0  0  0  0  0  0  0  0  0  0  0
   -5.4704   23.9176  -13.6038 H   0  0  0  0  0  0  0  0  0  0  0  0
   -4.7748   22.7251  -12.4285 H   0  0  0  0  0  0  0  0  0  0  0  0
   -7.3776   22.0322  -12.3243 H   0  0  0  0  0  0  0  0  0  0  0  0
   -7.5433   23.7747  -12.6860 H   0  0  0  0  0  0  0  0  0  0  0  0
   -8.4783   23.9129  -10.3065 H   0  0  0  0  0  0  0  0  0  0  0  0
   -7.8885   24.4008   -7.9609 H   0  0  0  0  0  0  0  0  0  0  0  0
   -3.4964   21.7070  -16.4114 H   0  0  0  0  0  0  0  0  0  0  0  0
   -3.0827   20.5272  -17.6841 H   0  0  0  0  0  0  0  0  0  0  0  0
   -3.8370   23.2182   -8.7363 H   0  0  0  0  0  0  0  0  0  0  0  0
   -5.9514   23.3901   -6.1441 H   0  0  0  0  0  0  0  0  0  0  0  0
   -3.7358   23.0784   -6.2662 H   0  0  0  0  0  0  0  0  0  0  0  0
   -3.4105   24.7126   -6.8770 H   0  0  0  0  0  0  0  0  0  0  0  0
   -3.1487   24.2580   -4.4214 H   0  0  0  0  0  0  0  0  0  0  0  0
   -5.5622   23.1868   -4.1133 H   0  0  0  0  0  0  0  0  0  0  0  0
   -4.8624   24.1609   -2.8168 H   0  0  0  0  0  0  0  0  0  0  0  0
   -7.2759   24.7388   -4.3814 H   0  0  0  0  0  0  0  0  0  0  0  0
   -6.6110   25.7604   -3.1231 H   0  0  0  0  0  0  0  0  0  0  0  0
   -6.2380   27.1571   -5.0756 H   0  0  0  0  0  0  0  0  0  0  0  0
   -5.7010   26.2969   -7.2547 H   0  0  0  0  0  0  0  0  0  0  0  0
   -7.2062   25.5168   -6.5917 H   0  0  0  0  0  0  0  0  0  0  0  0
   -5.5098   20.9241  -13.8356 H   0  0  0  0  0  0  0  0  0  0  0  0
   -4.0912   26.5729   -4.0289 H   0  0  0  0  0  0  0  0  0  0  0  0
   -3.8047   26.5701   -5.6373 H   0  0  0  0  0  0  0  0  0  0  0  0
  1  7  1  0
  1 12  2  0
  1 14  1  0
  2  5  2  0
  2 17  1  0
  3  4  2  0
  3 12  1  0
  4  6  1  0
  4 13  1  0
  5  9  1  0
  5 10  1  0
  7 15  1  0
  7 22  2  0
  8  9  1  0
  8 27  1  0
 10 11  2  0
 11 18  1  0
 13 14  2  0
 14 30  1  0
 16 22  1  0
 16 27  1  0
 16 29  2  0
 17 18  2  0
 19 18  1  0
 19 20  1  0
 19 26  1  0
 21 20  1  0
 21 23  1  0
 21 28  1  0
 22 30  1  0
 23 24  1  0
 25 24  1  0
 25 26  1  0
 25 28  1  0
  2 31  1  0
  3 32  1  0
  6 33  1  0
  6 34  1  0
  6 35  1  0
  8 36  1  0
  8 37  1  0
  9 38  1  0
  9 39  1  0
 10 40  1  0
 11 41  1  0
 15 42  1  0
 15 43  1  0
 17 44  1  0
 19 45  1  1
 20 46  1  0
 20 47  1  0
 21 48  1  1
 23 49  1  0
 23 50  1  0
 24 51  1  0
 24 52  1  0
 25 53  1  6
 26 54  1  0
 26 55  1  0
 27 56  1  0
 28 57  1  0
 28 58  1  0
M  CHG  1  28   1
M  END
>  <filename_input>  (13) 
7TUO_KL9_docked.sdf

>  <pdb_id>  (13) 
7TUO_KL9

>  <pose_rank>  (13) 
12

>  <num_atoms_heavy>  (13) 
30

>  <num_torsions>  (13) 
5

>  <pose>  (13) 
[-5.6140557443307015, 22.94850117247531, -13.103539666773734, 2.4812464703011017, -3.1287314335347056, -2.2971148774385033, -0.1726386790721944, 1.4555555462310006, -0.6858632482568436, 4.388182771679179, 3.441310209454196]

>  <energy>  (13) 
-472.1731866489457

>  <inter_energy>  (13) 
-463.6180055831676

>  <intra_energy>  (13) 
0.0

>  <rmsd>  (13) 
7.6156

>  <sdf_rank>  (13) 
0

$$$$

     RDKit          3D

 58 62  0  0  0  0  0  0  0  0999 V2000
   -3.3496   23.4875  -10.0241 C   0  0  0  0  0  0  0  0  0  0  0  0
   -8.1683   29.2982   -5.6403 C   0  0  0  0  0  0  0  0  0  0  0  0
   -1.5490   23.0955  -11.3714 C   0  0  0  0  0  0  0  0  0  0  0  0
   -0.8678   24.1722  -10.7724 C   0  0  0  0  0  0  0  0  0  0  0  0
   -7.5419   28.1434   -6.0730 C   0  0  0  0  0  0  0  0  0  0  0  0
    0.5149   24.5590  -11.1952 C   0  0  0  0  0  0  0  0  0  0  0  0
   -4.6498   23.3311   -9.3946 C   0  0  0  0  0  0  0  0  0  0  0  0
   -7.5742   25.7200   -6.2739 C   0  0  0  0  0  0  0  0  0  0  0  0
   -8.3380   26.9683   -6.5781 C   0  0  0  0  0  0  0  0  0  0  0  0
   -6.1608   28.1274   -6.1146 C   0  0  0  0  0  0  0  0  0  0  0  0
   -5.4204   29.2149   -5.6815 C   0  0  0  0  0  0  0  0  0  0  0  0
   -2.7885   22.7415  -11.0015 N   0  0  0  0  0  0  0  0  0  0  0  0
   -1.4226   24.8974   -9.8137 N   0  0  0  0  0  0  0  0  0  0  0  0
   -2.6609   24.5585   -9.4383 C   0  0  0  0  0  0  0  0  0  0  0  0
   -5.4919   22.3297   -9.7023 N   0  0  0  0  0  0  0  0  0  0  0  0
   -6.0427   24.3110   -7.5152 C   0  0  0  0  0  0  0  0  0  0  0  0
   -7.4289   30.3879   -5.1986 C   0  0  0  0  0  0  0  0  0  0  0  0
   -6.0391   30.3529   -5.1987 C   0  0  0  0  0  0  0  0  0  0  0  0
   -5.1785   31.5089   -4.7264 C   0  0  1  0  0  0  0  0  0  0  0  0
   -5.8266   32.8185   -4.3516 C   0  0  0  0  0  0  0  0  0  0  0  0
   -4.7262   33.6986   -3.7921 C   0  0  2  0  0  0  0  0  0  0  0  0
   -4.8709   24.2539   -8.3936 C   0  0  0  0  0  0  0  0  0  0  0  0
   -3.3669   33.7596   -4.4991 C   0  0  0  0  0  0  0  0  0  0  0  0
   -2.5275   32.6234   -3.8672 C   0  0  0  0  0  0  0  0  0  0  0  0
   -3.4887   31.9903   -2.8832 C   0  0  2  0  0  0  0  0  0  0  0  0
   -4.3400   30.9379   -3.5583 C   0  0  0  0  0  0  0  0  0  0  0  0
   -6.4695   25.5264   -7.1992 N   0  0  0  0  0  0  0  0  0  0  0  0
   -4.3464   33.1170   -2.4828 N   0  0  0  0  0  0  0  0  0  0  0  0
   -6.5683   23.2752   -7.1018 O   0  0  0  0  0  0  0  0  0  0  0  0
   -3.5525   25.3813   -8.2082 S   0  0  0  0  0  0  0  0  0  0  0  0
   -9.2669   29.3544   -5.6462 H   0  0  0  0  0  0  0  0  0  0  0  0
   -1.0484   22.5263  -12.1685 H   0  0  0  0  0  0  0  0  0  0  0  0
    1.1357   24.7327  -10.3039 H   0  0  0  0  0  0  0  0  0  0  0  0
    0.9545   23.7494  -11.7962 H   0  0  0  0  0  0  0  0  0  0  0  0
    0.4705   25.4792  -11.7962 H   0  0  0  0  0  0  0  0  0  0  0  0
   -7.1749   25.7867   -5.2511 H   0  0  0  0  0  0  0  0  0  0  0  0
   -8.2596   24.8655   -6.3746 H   0  0  0  0  0  0  0  0  0  0  0  0
   -9.3161   26.9379   -6.0757 H   0  0  0  0  0  0  0  0  0  0  0  0
   -8.5016   27.0585   -7.6621 H   0  0  0  0  0  0  0  0  0  0  0  0
   -5.6411   27.2368   -6.4977 H   0  0  0  0  0  0  0  0  0  0  0  0
   -4.3219   29.1724   -5.7224 H   0  0  0  0  0  0  0  0  0  0  0  0
   -6.4040   22.2600   -9.2288 H   0  0  0  0  0  0  0  0  0  0  0  0
   -5.2251   21.6321  -10.4115 H   0  0  0  0  0  0  0  0  0  0  0  0
   -7.9495   31.2898   -4.8442 H   0  0  0  0  0  0  0  0  0  0  0  0
   -4.6025   31.8420   -5.6023 H   0  0  0  0  0  0  0  0  0  0  0  0
   -6.2748   33.2886   -5.2394 H   0  0  0  0  0  0  0  0  0  0  0  0
   -6.6295   32.6686   -3.6147 H   0  0  0  0  0  0  0  0  0  0  0  0
   -5.1743   34.7015   -3.8494 H   0  0  0  0  0  0  0  0  0  0  0  0
   -3.4869   33.5947   -5.5800 H   0  0  0  0  0  0  0  0  0  0  0  0
   -2.8854   34.7412   -4.3787 H   0  0  0  0  0  0  0  0  0  0  0  0
   -2.2085   31.8976   -4.6297 H   0  0  0  0  0  0  0  0  0  0  0  0
   -1.6010   32.9824   -3.3954 H   0  0  0  0  0  0  0  0  0  0  0  0
   -2.9709   31.4957   -2.0481 H   0  0  0  0  0  0  0  0  0  0  0  0
   -5.0236   30.5062   -2.8123 H   0  0  0  0  0  0  0  0  0  0  0  0
   -3.6620   30.1787   -3.9754 H   0  0  0  0  0  0  0  0  0  0  0  0
   -6.0100   26.3482   -7.6169 H   0  0  0  0  0  0  0  0  0  0  0  0
   -3.8273   33.7963   -1.9084 H   0  0  0  0  0  0  0  0  0  0  0  0
   -5.1515   32.8395   -1.9034 H   0  0  0  0  0  0  0  0  0  0  0  0
  1  7  1  0
  1 12  2  0
  1 14  1  0
  2  5  2  0
  2 17  1  0
  3  4  2  0
  3 12  1  0
  4  6  1  0
  4 13  1  0
  5  9  1  0
  5 10  1  0
  7 15  1  0
  7 22  2  0
  8  9  1  0
  8 27  1  0
 10 11  2  0
 11 18  1  0
 13 14  2  0
 14 30  1  0
 16 22  1  0
 16 27  1  0
 16 29  2  0
 17 18  2  0
 19 18  1  0
 19 20  1  0
 19 26  1  0
 21 20  1  0
 21 23  1  0
 21 28  1  0
 22 30  1  0
 23 24  1  0
 25 24  1  0
 25 26  1  0
 25 28  1  0
  2 31  1  0
  3 32  1  0
  6 33  1  0
  6 34  1  0
  6 35  1  0
  8 36  1  0
  8 37  1  0
  9 38  1  0
  9 39  1  0
 10 40  1  0
 11 41  1  0
 15 42  1  0
 15 43  1  0
 17 44  1  0
 19 45  1  6
 20 46  1  0
 20 47  1  0
 21 48  1  1
 23 49  1  0
 23 50  1  0
 24 51  1  0
 24 52  1  0
 25 53  1  1
 26 54  1  0
 26 55  1  0
 27 56  1  0
 28 57  1  0
 28 58  1  0
M  CHG  1  28   1
M  END
>  <filename_input>  (14) 
7TUO_KL9_docked.sdf

>  <pdb_id>  (14) 
7TUO_KL9

>  <pose_rank>  (14) 
13

>  <num_atoms_heavy>  (14) 
30

>  <num_torsions>  (14) 
5

>  <pose>  (14) 
[-7.574197586974026, 25.71998657812669, -6.273869066008317, 0.19065885254133008, -0.2592582356900322, -0.18843478539904257, 1.7233307817988777, 0.5695559787192226, 1.7604929972998664, -4.14844015914842, -3.046419169103078]

>  <energy>  (14) 
-418.23200724375994

>  <inter_energy>  (14) 
-440.47064894947357

>  <intra_energy>  (14) 
30.911132087613947

>  <rmsd>  (14) 
8.69268

>  <sdf_rank>  (14) 
0

$$$$

     RDKit          3D

 58 62  0  0  0  0  0  0  0  0999 V2000
   -2.5566   23.4827   -9.8767 C   0  0  0  0  0  0  0  0  0  0  0  0
   -8.8471   24.5365   -8.5642 C   0  0  0  0  0  0  0  0  0  0  0  0
   -1.1011   23.0973  -11.5925 C   0  0  0  0  0  0  0  0  0  0  0  0
   -0.2821   24.1456  -11.1318 C   0  0  0  0  0  0  0  0  0  0  0  0
   -8.1449   25.6000   -8.0264 C   0  0  0  0  0  0  0  0  0  0  0  0
    0.9839   24.5205  -11.8367 C   0  0  0  0  0  0  0  0  0  0  0  0
   -3.6920   23.3310   -8.9828 C   0  0  0  0  0  0  0  0  0  0  0  0
   -6.8965   24.7377   -6.1259 C   0  0  0  0  0  0  0  0  0  0  0  0
   -7.9398   25.7251   -6.5391 C   0  0  0  0  0  0  0  0  0  0  0  0
   -7.5580   26.4998   -8.8956 C   0  0  0  0  0  0  0  0  0  0  0  0
   -7.7150   26.3754  -10.2661 C   0  0  0  0  0  0  0  0  0  0  0  0
   -2.2381   22.7542  -10.9697 N   0  0  0  0  0  0  0  0  0  0  0  0
   -0.5989   24.8537  -10.0590 N   0  0  0  0  0  0  0  0  0  0  0  0
   -1.7332   24.5256   -9.4306 C   0  0  0  0  0  0  0  0  0  0  0  0
   -4.6030   22.3528   -9.1225 N   0  0  0  0  0  0  0  0  0  0  0  0
   -4.6209   24.2827   -6.8231 C   0  0  0  0  0  0  0  0  0  0  0  0
   -9.0125   24.4128   -9.9378 C   0  0  0  0  0  0  0  0  0  0  0  0
   -8.4592   25.3446  -10.8087 C   0  0  0  0  0  0  0  0  0  0  0  0
   -8.6078   25.2642  -12.3158 C   0  0  1  0  0  0  0  0  0  0  0  0
   -9.4983   24.2092  -12.9237 C   0  0  0  0  0  0  0  0  0  0  0  0
   -9.5428   24.4895  -14.4129 C   0  0  2  0  0  0  0  0  0  0  0  0
   -3.6695   24.2299   -7.9368 C   0  0  0  0  0  0  0  0  0  0  0  0
   -8.2506   24.8400  -15.1604 C   0  0  0  0  0  0  0  0  0  0  0  0
   -8.1266   26.3792  -15.0605 C   0  0  0  0  0  0  0  0  0  0  0  0
   -9.3352   26.7702  -14.2361 C   0  0  2  0  0  0  0  0  0  0  0  0
   -9.0321   26.6852  -12.7566 C   0  0  0  0  0  0  0  0  0  0  0  0
   -5.8730   24.5780   -7.1462 N   0  0  0  0  0  0  0  0  0  0  0  0
  -10.3241   25.7374  -14.5835 N   0  0  0  0  0  0  0  0  0  0  0  0
   -4.2463   24.0739   -5.6673 O   0  0  0  0  0  0  0  0  0  0  0  0
   -2.3175   25.3294   -8.0173 S   0  0  0  0  0  0  0  0  0  0  0  0
   -9.2803   23.7785   -7.8951 H   0  0  0  0  0  0  0  0  0  0  0  0
   -0.7986   22.5416  -12.4924 H   0  0  0  0  0  0  0  0  0  0  0  0
    1.7623   24.7510  -11.0945 H   0  0  0  0  0  0  0  0  0  0  0  0
    1.3149   23.6818  -12.4668 H   0  0  0  0  0  0  0  0  0  0  0  0
    0.8049   25.4041  -12.4668 H   0  0  0  0  0  0  0  0  0  0  0  0
   -6.4224   25.0877   -5.1971 H   0  0  0  0  0  0  0  0  0  0  0  0
   -7.3861   23.7641   -5.9760 H   0  0  0  0  0  0  0  0  0  0  0  0
   -7.6058   26.7440   -6.2939 H   0  0  0  0  0  0  0  0  0  0  0  0
   -8.8823   25.5261   -6.0080 H   0  0  0  0  0  0  0  0  0  0  0  0
   -6.9567   27.3280   -8.4926 H   0  0  0  0  0  0  0  0  0  0  0  0
   -7.2395   27.1090  -10.9339 H   0  0  0  0  0  0  0  0  0  0  0  0
   -5.3917   22.2855   -8.4634 H   0  0  0  0  0  0  0  0  0  0  0  0
   -4.5125   21.6703   -9.8886 H   0  0  0  0  0  0  0  0  0  0  0  0
   -9.5884   23.5670  -10.3415 H   0  0  0  0  0  0  0  0  0  0  0  0
   -7.6375   24.9199  -12.7030 H   0  0  0  0  0  0  0  0  0  0  0  0
   -9.0827   23.2078  -12.7377 H   0  0  0  0  0  0  0  0  0  0  0  0
  -10.5060   24.2371  -12.4833 H   0  0  0  0  0  0  0  0  0  0  0  0
   -9.9135   23.5377  -14.8211 H   0  0  0  0  0  0  0  0  0  0  0  0
   -7.3864   24.3521  -14.6858 H   0  0  0  0  0  0  0  0  0  0  0  0
   -8.2751   24.4972  -16.2053 H   0  0  0  0  0  0  0  0  0  0  0  0
   -7.1936   26.6679  -14.5544 H   0  0  0  0  0  0  0  0  0  0  0  0
   -8.0953   26.8744  -16.0423 H   0  0  0  0  0  0  0  0  0  0  0  0
   -9.6659   27.8000  -14.4364 H   0  0  0  0  0  0  0  0  0  0  0  0
   -9.9333   26.9735  -12.1955 H   0  0  0  0  0  0  0  0  0  0  0  0
   -8.1907   27.3629  -12.5498 H   0  0  0  0  0  0  0  0  0  0  0  0
   -6.1249   24.6962   -8.1379 H   0  0  0  0  0  0  0  0  0  0  0  0
  -10.6508   25.8442  -15.5544 H   0  0  0  0  0  0  0  0  0  0  0  0
  -11.1790   25.7728  -14.0101 H   0  0  0  0  0  0  0  0  0  0  0  0
  1  7  1  0
  1 12  2  0
  1 14  1  0
  2  5  2  0
  2 17  1  0
  3  4  2  0
  3 12  1  0
  4  6  1  0
  4 13  1  0
  5  9  1  0
  5 10  1  0
  7 15  1  0
  7 22  2  0
  8  9  1  0
  8 27  1  0
 10 11  2  0
 11 18  1  0
 13 14  2  0
 14 30  1  0
 16 22  1  0
 16 27  1  0
 16 29  2  0
 17 18  2  0
 19 18  1  0
 19 20  1  0
 19 26  1  0
 21 20  1  0
 21 23  1  0
 21 28  1  0
 22 30  1  0
 23 24  1  0
 25 24  1  0
 25 26  1  0
 25 28  1  0
  2 31  1  0
  3 32  1  0
  6 33  1  0
  6 34  1  0
  6 35  1  0
  8 36  1  0
  8 37  1  0
  9 38  1  0
  9 39  1  0
 10 40  1  0
 11 41  1  0
 15 42  1  0
 15 43  1  0
 17 44  1  0
 19 45  1  6
 20 46  1  0
 20 47  1  0
 21 48  1  6
 23 49  1  0
 23 50  1  0
 24 51  1  0
 24 52  1  0
 25 53  1  6
 26 54  1  0
 26 55  1  0
 27 56  1  0
 28 57  1  0
 28 58  1  0
M  CHG  1  28   1
M  END
>  <filename_input>  (15) 
7TUO_KL9_docked.sdf

>  <pdb_id>  (15) 
7TUO_KL9

>  <pose_rank>  (15) 
14

>  <num_atoms_heavy>  (15) 
30

>  <num_torsions>  (15) 
5

>  <pose>  (15) 
[-6.8964919718171025, 24.73766586743833, -6.125891559412826, 0.012646918991577783, -0.13495713478332574, 0.033269523007812385, -5.619864091967155, 8.220734622779865, 9.998399629371011, -0.22054378990752121, -15.406807472303798]

>  <energy>  (15) 
-464.26146701349165

>  <inter_energy>  (15) 
-475.706565027721

>  <intra_energy>  (15) 
19.79542190363567

>  <rmsd>  (15) 
8.53974

>  <sdf_rank>  (15) 
0

$$$$

     RDKit          3D

 58 62  0  0  0  0  0  0  0  0999 V2000
   -4.7885   23.1888   -6.4105 C   0  0  0  0  0  0  0  0  0  0  0  0
   -6.6552   22.9124  -15.3522 C   0  0  0  0  0  0  0  0  0  0  0  0
   -5.0924   23.0455   -4.1526 C   0  0  0  0  0  0  0  0  0  0  0  0
   -5.8184   24.2515   -4.1748 C   0  0  0  0  0  0  0  0  0  0  0  0
   -6.7772   22.1225  -14.2233 C   0  0  0  0  0  0  0  0  0  0  0  0
   -6.3870   24.8486   -2.9257 C   0  0  0  0  0  0  0  0  0  0  0  0
   -4.3892   22.8428   -7.7641 C   0  0  0  0  0  0  0  0  0  0  0  0
   -5.5698   22.8431  -12.2390 C   0  0  0  0  0  0  0  0  0  0  0  0
   -6.9272   22.7368  -12.8558 C   0  0  0  0  0  0  0  0  0  0  0  0
   -6.8481   20.7527  -14.3907 C   0  0  0  0  0  0  0  0  0  0  0  0
   -6.7424   20.1801  -15.6475 C   0  0  0  0  0  0  0  0  0  0  0  0
   -4.5772   22.5027   -5.2654 N   0  0  0  0  0  0  0  0  0  0  0  0
   -6.0237   24.9174   -5.3006 N   0  0  0  0  0  0  0  0  0  0  0  0
   -5.5110   24.3899   -6.4177 C   0  0  0  0  0  0  0  0  0  0  0  0
   -3.7532   21.6978   -8.0653 N   0  0  0  0  0  0  0  0  0  0  0  0
   -4.6539   23.6610  -10.1501 C   0  0  0  0  0  0  0  0  0  0  0  0
   -6.5417   22.3413  -16.6133 C   0  0  0  0  0  0  0  0  0  0  0  0
   -6.5678   20.9607  -16.7750 C   0  0  0  0  0  0  0  0  0  0  0  0
   -6.4459   20.2795  -18.1244 C   0  0  1  0  0  0  0  0  0  0  0  0
   -5.3436   20.6870  -19.0703 C   0  0  0  0  0  0  0  0  0  0  0  0
   -5.4094   19.7310  -20.2451 C   0  0  2  0  0  0  0  0  0  0  0  0
   -4.8199   23.7625   -8.6974 C   0  0  0  0  0  0  0  0  0  0  0  0
   -6.7681   19.3696  -20.8571 C   0  0  0  0  0  0  0  0  0  0  0  0
   -7.2582   18.1359  -20.0618 C   0  0  0  0  0  0  0  0  0  0  0  0
   -6.1580   17.9221  -19.0436 C   0  0  2  0  0  0  0  0  0  0  0  0
   -6.3905   18.7657  -17.8097 C   0  0  0  0  0  0  0  0  0  0  0  0
   -5.6470   23.0753  -10.8058 N   0  0  0  0  0  0  0  0  0  0  0  0
   -4.9585   18.4122  -19.7409 N   0  0  0  0  0  0  0  0  0  0  0  0
   -3.6361   24.0911  -10.6971 O   0  0  0  0  0  0  0  0  0  0  0  0
   -5.6698   25.1073   -7.9814 S   0  0  0  0  0  0  0  0  0  0  0  0
   -6.6480   24.0076  -15.2499 H   0  0  0  0  0  0  0  0  0  0  0  0
   -4.9429   22.5319   -3.1915 H   0  0  0  0  0  0  0  0  0  0  0  0
   -5.9294   24.3681   -2.0484 H   0  0  0  0  0  0  0  0  0  0  0  0
   -6.1744   25.9276   -2.9054 H   0  0  0  0  0  0  0  0  0  0  0  0
   -7.4752   24.6888   -2.9054 H   0  0  0  0  0  0  0  0  0  0  0  0
   -5.0219   21.9065  -12.4194 H   0  0  0  0  0  0  0  0  0  0  0  0
   -5.0509   23.6979  -12.6974 H   0  0  0  0  0  0  0  0  0  0  0  0
   -7.3752   23.7375  -12.9444 H   0  0  0  0  0  0  0  0  0  0  0  0
   -7.5811   22.1126  -12.2290 H   0  0  0  0  0  0  0  0  0  0  0  0
   -6.9907   20.1067  -13.5119 H   0  0  0  0  0  0  0  0  0  0  0  0
   -6.7983   19.0864  -15.7501 H   0  0  0  0  0  0  0  0  0  0  0  0
   -3.4899   21.4960   -9.0404 H   0  0  0  0  0  0  0  0  0  0  0  0
   -3.5291   21.0220   -7.3209 H   0  0  0  0  0  0  0  0  0  0  0  0
   -6.4298   22.9894  -17.4950 H   0  0  0  0  0  0  0  0  0  0  0  0
   -7.3143   20.6075  -18.7146 H   0  0  0  0  0  0  0  0  0  0  0  0
   -5.4991   21.7208  -19.4124 H   0  0  0  0  0  0  0  0  0  0  0  0
   -4.3609   20.6449  -18.5777 H   0  0  0  0  0  0  0  0  0  0  0  0
   -4.8308   20.2629  -21.0146 H   0  0  0  0  0  0  0  0  0  0  0  0
   -7.4751   20.2051  -20.7467 H   0  0  0  0  0  0  0  0  0  0  0  0
   -6.6903   19.1592  -21.9340 H   0  0  0  0  0  0  0  0  0  0  0  0
   -8.2190   18.3415  -19.5673 H   0  0  0  0  0  0  0  0  0  0  0  0
   -7.4355   17.2555  -20.6969 H   0  0  0  0  0  0  0  0  0  0  0  0
   -6.0921   16.8765  -18.7086 H   0  0  0  0  0  0  0  0  0  0  0  0
   -5.5708   18.5836  -17.0991 H   0  0  0  0  0  0  0  0  0  0  0  0
   -7.3649   18.4776  -17.3884 H   0  0  0  0  0  0  0  0  0  0  0  0
   -6.4883   22.7796  -10.2903 H   0  0  0  0  0  0  0  0  0  0  0  0
   -4.6942   17.7864  -20.5151 H   0  0  0  0  0  0  0  0  0  0  0  0
   -4.1220   18.4615  -19.1418 H   0  0  0  0  0  0  0  0  0  0  0  0
  1  7  1  0
  1 12  2  0
  1 14  1  0
  2  5  2  0
  2 17  1  0
  3  4  2  0
  3 12  1  0
  4  6  1  0
  4 13  1  0
  5  9  1  0
  5 10  1  0
  7 15  1  0
  7 22  2  0
  8  9  1  0
  8 27  1  0
 10 11  2  0
 11 18  1  0
 13 14  2  0
 14 30  1  0
 16 22  1  0
 16 27  1  0
 16 29  2  0
 17 18  2  0
 19 18  1  0
 19 20  1  0
 19 26  1  0
 21 20  1  0
 21 23  1  0
 21 28  1  0
 22 30  1  0
 23 24  1  0
 25 24  1  0
 25 26  1  0
 25 28  1  0
  2 31  1  0
  3 32  1  0
  6 33  1  0
  6 34  1  0
  6 35  1  0
  8 36  1  0
  8 37  1  0
  9 38  1  0
  9 39  1  0
 10 40  1  0
 11 41  1  0
 15 42  1  0
 15 43  1  0
 17 44  1  0
 19 45  1  6
 20 46  1  0
 20 47  1  0
 21 48  1  6
 23 49  1  0
 23 50  1  0
 24 51  1  0
 24 52  1  0
 25 53  1  1
 26 54  1  0
 26 55  1  0
 27 56  1  0
 28 57  1  0
 28 58  1  0
M  CHG  1  28   1
M  END
>  <filename_input>  (16) 
7TUO_KL9_docked.sdf

>  <pdb_id>  (16) 
7TUO_KL9

>  <pose_rank>  (16) 
15

>  <num_atoms_heavy>  (16) 
30

>  <num_torsions>  (16) 
5

>  <pose>  (16) 
[-5.5698222607806445, 22.84310010854915, -12.239040675762181, 2.512300244485481, -0.994462231669392, 1.0921707178372972, -10.937400535202643, -1.6232858092604827, -6.047684575535809, -9.45355007899149, -2.095903952737094]

>  <energy>  (16) 
-433.8231878157575

>  <inter_energy>  (16) 
-433.5022609769064

>  <intra_energy>  (16) 
0.0

>  <rmsd>  (16) 
12.4361

>  <sdf_rank>  (16) 
0

$$$$

     RDKit          3D

 58 62  0  0  0  0  0  0  0  0999 V2000
   -4.1746   23.2288  -18.6519 C   0  0  0  0  0  0  0  0  0  0  0  0
   -7.7194   23.6870  -10.0567 C   0  0  0  0  0  0  0  0  0  0  0  0
   -3.1615   24.0518  -20.5247 C   0  0  0  0  0  0  0  0  0  0  0  0
   -3.8916   25.2483  -20.3926 C   0  0  0  0  0  0  0  0  0  0  0  0
   -6.7240   23.3614  -10.9603 C   0  0  0  0  0  0  0  0  0  0  0  0
   -3.7391   26.3728  -21.3684 C   0  0  0  0  0  0  0  0  0  0  0  0
   -4.5056   22.3394  -17.5515 C   0  0  0  0  0  0  0  0  0  0  0  0
   -5.8820   22.3632  -13.0119 C   0  0  0  0  0  0  0  0  0  0  0  0
   -7.0459   23.0778  -12.4045 C   0  0  0  0  0  0  0  0  0  0  0  0
   -5.4131   23.3901  -10.5244 C   0  0  0  0  0  0  0  0  0  0  0  0
   -5.1050   23.6804   -9.2055 C   0  0  0  0  0  0  0  0  0  0  0  0
   -3.2917   23.0375  -19.6572 N   0  0  0  0  0  0  0  0  0  0  0  0
   -4.7532   25.4300  -19.4039 N   0  0  0  0  0  0  0  0  0  0  0  0
   -4.8968   24.4242  -18.5339 C   0  0  0  0  0  0  0  0  0  0  0  0
   -3.9000   21.1540  -17.3662 N   0  0  0  0  0  0  0  0  0  0  0  0
   -5.8999   22.2843  -15.4337 C   0  0  0  0  0  0  0  0  0  0  0  0
   -7.4146   23.9714   -8.7318 C   0  0  0  0  0  0  0  0  0  0  0  0
   -6.0984   23.9555   -8.2844 C   0  0  0  0  0  0  0  0  0  0  0  0
   -5.7041   24.2546   -6.8509 C   0  0  1  0  0  0  0  0  0  0  0  0
   -4.2581   24.1448   -6.4352 C   0  0  0  0  0  0  0  0  0  0  0  0
   -4.1825   24.6432   -5.0054 C   0  0  2  0  0  0  0  0  0  0  0  0
   -5.4241   22.8886  -16.6813 C   0  0  0  0  0  0  0  0  0  0  0  0
   -5.2450   24.2063   -3.9897 C   0  0  0  0  0  0  0  0  0  0  0  0
   -6.3740   25.2584   -4.1028 C   0  0  0  0  0  0  0  0  0  0  0  0
   -5.8774   26.1818   -5.1954 C   0  0  2  0  0  0  0  0  0  0  0  0
   -6.2704   25.6650   -6.5616 C   0  0  0  0  0  0  0  0  0  0  0  0
   -5.5404   22.9042  -14.3175 N   0  0  0  0  0  0  0  0  0  0  0  0
   -4.4144   26.1062   -5.0564 N   0  0  0  0  0  0  0  0  0  0  0  0
   -6.5792   21.2557  -15.4536 O   0  0  0  0  0  0  0  0  0  0  0  0
   -5.9700   24.4685  -17.1806 S   0  0  0  0  0  0  0  0  0  0  0  0
   -8.7665   23.7212  -10.3920 H   0  0  0  0  0  0  0  0  0  0  0  0
   -2.4617   23.9455  -21.3667 H   0  0  0  0  0  0  0  0  0  0  0  0
   -3.6108   27.3183  -20.8212 H   0  0  0  0  0  0  0  0  0  0  0  0
   -2.8571   26.1925  -22.0007 H   0  0  0  0  0  0  0  0  0  0  0  0
   -4.6371   26.4339  -22.0007 H   0  0  0  0  0  0  0  0  0  0  0  0
   -5.0132   22.4658  -12.3451 H   0  0  0  0  0  0  0  0  0  0  0  0
   -6.1577   21.3061  -13.1402 H   0  0  0  0  0  0  0  0  0  0  0  0
   -7.9447   22.4469  -12.4686 H   0  0  0  0  0  0  0  0  0  0  0  0
   -7.2367   24.0181  -12.9425 H   0  0  0  0  0  0  0  0  0  0  0  0
   -4.6013   23.1792  -11.2360 H   0  0  0  0  0  0  0  0  0  0  0  0
   -4.0525   23.6921   -8.8858 H   0  0  0  0  0  0  0  0  0  0  0  0
   -4.1686   20.5572  -16.5709 H   0  0  0  0  0  0  0  0  0  0  0  0
   -3.1673   20.8422  -18.0196 H   0  0  0  0  0  0  0  0  0  0  0  0
   -8.2247   24.2123   -8.0277 H   0  0  0  0  0  0  0  0  0  0  0  0
   -6.1250   23.4424   -6.2399 H   0  0  0  0  0  0  0  0  0  0  0  0
   -3.9251   23.0980   -6.4908 H   0  0  0  0  0  0  0  0  0  0  0  0
   -3.6079   24.7354   -7.0973 H   0  0  0  0  0  0  0  0  0  0  0  0
   -3.2160   24.2420   -4.6666 H   0  0  0  0  0  0  0  0  0  0  0  0
   -5.6256   23.2043   -4.2371 H   0  0  0  0  0  0  0  0  0  0  0  0
   -4.8382   24.1488   -2.9693 H   0  0  0  0  0  0  0  0  0  0  0  0
   -7.3260   24.7865   -4.3875 H   0  0  0  0  0  0  0  0  0  0  0  0
   -6.5748   25.7797   -3.1552 H   0  0  0  0  0  0  0  0  0  0  0  0
   -6.2892   27.1980   -5.1070 H   0  0  0  0  0  0  0  0  0  0  0  0
   -5.8897   26.3605   -7.3241 H   0  0  0  0  0  0  0  0  0  0  0  0
   -7.3679   25.5947   -6.5877 H   0  0  0  0  0  0  0  0  0  0  0  0
   -5.0097   23.7850  -14.3767 H   0  0  0  0  0  0  0  0  0  0  0  0
   -4.0969   26.5655   -4.1909 H   0  0  0  0  0  0  0  0  0  0  0  0
   -3.9013   26.5810   -5.8128 H   0  0  0  0  0  0  0  0  0  0  0  0
  1  7  1  0
  1 12  2  0
  1 14  1  0
  2  5  2  0
  2 17  1  0
  3  4  2  0
  3 12  1  0
  4  6  1  0
  4 13  1  0
  5  9  1  0
  5 10  1  0
  7 15  1  0
  7 22  2  0
  8  9  1  0
  8 27  1  0
 10 11  2  0
 11 18  1  0
 13 14  2  0
 14 30  1  0
 16 22  1  0
 16 27  1  0
 16 29  2  0
 17 18  2  0
 19 18  1  0
 19 20  1  0
 19 26  1  0
 21 20  1  0
 21 23  1  0
 21 28  1  0
 22 30  1  0
 23 24  1  0
 25 24  1  0
 25 26  1  0
 25 28  1  0
  2 31  1  0
  3 32  1  0
  6 33  1  0
  6 34  1  0
  6 35  1  0
  8 36  1  0
  8 37  1  0
  9 38  1  0
  9 39  1  0
 10 40  1  0
 11 41  1  0
 15 42  1  0
 15 43  1  0
 17 44  1  0
 19 45  1  1
 20 46  1  0
 20 47  1  0
 21 48  1  1
 23 49  1  0
 23 50  1  0
 24 51  1  0
 24 52  1  0
 25 53  1  1
 26 54  1  0
 26 55  1  0
 27 56  1  0
 28 57  1  0
 28 58  1  0
M  CHG  1  28   1
M  END
>  <filename_input>  (17) 
7TUO_KL9_docked.sdf

>  <pdb_id>  (17) 
7TUO_KL9

>  <pose_rank>  (17) 
16

>  <num_atoms_heavy>  (17) 
30

>  <num_torsions>  (17) 
5

>  <pose>  (17) 
[-5.882025126700146, 22.36319810588372, -13.011881773377675, -4.216536998157035, -3.3438106273662807, -1.643673817513779, -3.715447703863292, -1.252034990019497, -5.538207346000653, 1.9098506804502695, 0.14215399555477587]

>  <energy>  (17) 
-456.60444226116755

>  <inter_energy>  (17) 
-448.0821498596677

>  <intra_energy>  (17) 
1.2894026979003217

>  <rmsd>  (17) 
6.50889

>  <sdf_rank>  (17) 
0

$$$$

     RDKit          3D

 58 62  0  0  0  0  0  0  0  0999 V2000
   -4.8714   24.8272   -6.4526 C   0  0  0  0  0  0  0  0  0  0  0  0
   -6.5740   20.4767  -14.6486 C   0  0  0  0  0  0  0  0  0  0  0  0
   -5.0216   25.5113   -4.2800 C   0  0  0  0  0  0  0  0  0  0  0  0
   -5.5306   24.2493   -3.9188 C   0  0  0  0  0  0  0  0  0  0  0  0
   -6.7530   21.6029  -13.8657 C   0  0  0  0  0  0  0  0  0  0  0  0
   -5.9054   23.9292   -2.5057 C   0  0  0  0  0  0  0  0  0  0  0  0
   -4.5722   24.8362   -7.8745 C   0  0  0  0  0  0  0  0  0  0  0  0
   -5.5136   22.5431  -11.9965 C   0  0  0  0  0  0  0  0  0  0  0  0
   -6.5659   21.5502  -12.3717 C   0  0  0  0  0  0  0  0  0  0  0  0
   -7.0209   22.8013  -14.4992 C   0  0  0  0  0  0  0  0  0  0  0  0
   -7.1638   22.8656  -15.8754 C   0  0  0  0  0  0  0  0  0  0  0  0
   -4.6842   25.8093   -5.5432 N   0  0  0  0  0  0  0  0  0  0  0  0
   -5.7093   23.2909   -4.8146 N   0  0  0  0  0  0  0  0  0  0  0  0
   -5.3815   23.5761   -6.0796 C   0  0  0  0  0  0  0  0  0  0  0  0
   -3.9943   25.8818   -8.4902 N   0  0  0  0  0  0  0  0  0  0  0  0
   -4.5881   23.2910   -9.8856 C   0  0  0  0  0  0  0  0  0  0  0  0
   -6.7238   20.5362  -16.0282 C   0  0  0  0  0  0  0  0  0  0  0  0
   -7.0381   21.7342  -16.6597 C   0  0  0  0  0  0  0  0  0  0  0  0
   -7.2167   21.8609  -18.1603 C   0  0  1  0  0  0  0  0  0  0  0  0
   -8.5190   22.3809  -18.7165 C   0  0  0  0  0  0  0  0  0  0  0  0
   -8.3221   22.5214  -20.2132 C   0  0  2  0  0  0  0  0  0  0  0  0
   -4.8536   23.6318   -8.4851 C   0  0  0  0  0  0  0  0  0  0  0  0
   -7.6134   21.4092  -20.9954 C   0  0  0  0  0  0  0  0  0  0  0  0
   -6.1099   21.7724  -20.9488 C   0  0  0  0  0  0  0  0  0  0  0  0
   -6.0858   23.0366  -20.1157 C   0  0  2  0  0  0  0  0  0  0  0  0
   -6.0169   22.7117  -18.6400 C   0  0  0  0  0  0  0  0  0  0  0  0
   -5.6500   22.9752  -10.6149 N   0  0  0  0  0  0  0  0  0  0  0  0
   -7.3880   23.6552  -20.4105 N   0  0  0  0  0  0  0  0  0  0  0  0
   -3.4361   23.2939  -10.3247 O   0  0  0  0  0  0  0  0  0  0  0  0
   -5.5423   22.4615   -7.3899 S   0  0  0  0  0  0  0  0  0  0  0  0
   -6.3095   19.5211  -14.1723 H   0  0  0  0  0  0  0  0  0  0  0  0
   -4.8967   26.2776   -3.5008 H   0  0  0  0  0  0  0  0  0  0  0  0
   -5.2527   24.4867   -1.8179 H   0  0  0  0  0  0  0  0  0  0  0  0
   -6.9529   24.2157   -2.3303 H   0  0  0  0  0  0  0  0  0  0  0  0
   -5.7863   22.8498   -2.3303 H   0  0  0  0  0  0  0  0  0  0  0  0
   -4.5241   22.0813  -12.1295 H   0  0  0  0  0  0  0  0  0  0  0  0
   -5.6274   23.4248  -12.6443 H   0  0  0  0  0  0  0  0  0  0  0  0
   -7.5114   21.8020  -11.8691 H   0  0  0  0  0  0  0  0  0  0  0  0
   -6.2614   20.5393  -12.0628 H   0  0  0  0  0  0  0  0  0  0  0  0
   -7.1223   23.7189  -13.9011 H   0  0  0  0  0  0  0  0  0  0  0  0
   -7.3810   23.8329  -16.3522 H   0  0  0  0  0  0  0  0  0  0  0  0
   -3.8015   25.8419   -9.5012 H   0  0  0  0  0  0  0  0  0  0  0  0
   -3.7443   26.7231   -7.9511 H   0  0  0  0  0  0  0  0  0  0  0  0
   -6.5921   19.6240  -16.6287 H   0  0  0  0  0  0  0  0  0  0  0  0
   -7.2548   20.8344  -18.5537 H   0  0  0  0  0  0  0  0  0  0  0  0
   -9.3327   21.6715  -18.5052 H   0  0  0  0  0  0  0  0  0  0  0  0
   -8.7910   23.3435  -18.2589 H   0  0  0  0  0  0  0  0  0  0  0  0
   -9.3566   22.5785  -20.5828 H   0  0  0  0  0  0  0  0  0  0  0  0
   -7.7889   20.4324  -20.5210 H   0  0  0  0  0  0  0  0  0  0  0  0
   -7.9853   21.3326  -22.0278 H   0  0  0  0  0  0  0  0  0  0  0  0
   -5.5256   20.9730  -20.4697 H   0  0  0  0  0  0  0  0  0  0  0  0
   -5.6666   21.9045  -21.9468 H   0  0  0  0  0  0  0  0  0  0  0  0
   -5.2191   23.6744  -20.3438 H   0  0  0  0  0  0  0  0  0  0  0  0
   -6.0039   23.6538  -18.0722 H   0  0  0  0  0  0  0  0  0  0  0  0
   -5.1030   22.1231  -18.4712 H   0  0  0  0  0  0  0  0  0  0  0  0
   -6.5884   23.0372  -10.1949 H   0  0  0  0  0  0  0  0  0  0  0  0
   -7.4249   24.0058  -21.3783 H   0  0  0  0  0  0  0  0  0  0  0  0
   -7.6003   24.4741  -19.8230 H   0  0  0  0  0  0  0  0  0  0  0  0
  1  7  1  0
  1 12  2  0
  1 14  1  0
  2  5  2  0
  2 17  1  0
  3  4  2  0
  3 12  1  0
  4  6  1  0
  4 13  1  0
  5  9  1  0
  5 10  1  0
  7 15  1  0
  7 22  2  0
  8  9  1  0
  8 27  1  0
 10 11  2  0
 11 18  1  0
 13 14  2  0
 14 30  1  0
 16 22  1  0
 16 27  1  0
 16 29  2  0
 17 18  2  0
 19 18  1  0
 19 20  1  0
 19 26  1  0
 21 20  1  0
 21 23  1  0
 21 28  1  0
 22 30  1  0
 23 24  1  0
 25 24  1  0
 25 26  1  0
 25 28  1  0
  2 31  1  0
  3 32  1  0
  6 33  1  0
  6 34  1  0
  6 35  1  0
  8 36  1  0
  8 37  1  0
  9 38  1  0
  9 39  1  0
 10 40  1  0
 11 41  1  0
 15 42  1  0
 15 43  1  0
 17 44  1  0
 19 45  1  6
 20 46  1  0
 20 47  1  0
 21 48  1  6
 23 49  1  0
 23 50  1  0
 24 51  1  0
 24 52  1  0
 25 53  1  6
 26 54  1  0
 26 55  1  0
 27 56  1  0
 28 57  1  0
 28 58  1  0
M  CHG  1  28   1
M  END
>  <filename_input>  (18) 
7TUO_KL9_docked.sdf

>  <pdb_id>  (18) 
7TUO_KL9

>  <pose_rank>  (18) 
17

>  <num_atoms_heavy>  (18) 
30

>  <num_torsions>  (18) 
5

>  <pose>  (18) 
[-5.513558161076993, 22.543114692125194, -11.99646758582886, -3.076111631152576, 0.04910044863367023, -1.2384879668292295, -5.651845785101575, 0.9800415857378267, -0.46265793957870655, 0.5953478482029894, -0.8098597198835412]

>  <energy>  (18) 
-445.8569977531198

>  <inter_energy>  (18) 
-449.3174087988826

>  <intra_energy>  (18) 
2.336843792636195

>  <rmsd>  (18) 
12.3117

>  <sdf_rank>  (18) 
0

$$$$

     RDKit          3D

 58 62  0  0  0  0  0  0  0  0999 V2000
   -4.3916   24.6950   -6.7782 C   0  0  0  0  0  0  0  0  0  0  0  0
   -6.8449   19.4648  -13.6379 C   0  0  0  0  0  0  0  0  0  0  0  0
   -4.2845   25.4185   -4.6158 C   0  0  0  0  0  0  0  0  0  0  0  0
   -5.3635   24.5779   -4.2823 C   0  0  0  0  0  0  0  0  0  0  0  0
   -6.8484   20.8460  -13.7129 C   0  0  0  0  0  0  0  0  0  0  0  0
   -5.9109   24.5180   -2.8906 C   0  0  0  0  0  0  0  0  0  0  0  0
   -4.0624   24.5207   -8.1828 C   0  0  0  0  0  0  0  0  0  0  0  0
   -5.8953   22.5282  -12.2379 C   0  0  0  0  0  0  0  0  0  0  0  0
   -7.1071   21.6912  -12.4929 C   0  0  0  0  0  0  0  0  0  0  0  0
   -6.5195   21.4341  -14.9193 C   0  0  0  0  0  0  0  0  0  0  0  0
   -6.2495   20.6648  -16.0390 C   0  0  0  0  0  0  0  0  0  0  0  0
   -3.7874   25.4811   -5.8598 N   0  0  0  0  0  0  0  0  0  0  0  0
   -5.9493   23.8085   -5.1867 N   0  0  0  0  0  0  0  0  0  0  0  0
   -5.4668   23.8648   -6.4329 C   0  0  0  0  0  0  0  0  0  0  0  0
   -3.0182   25.1327   -8.7672 N   0  0  0  0  0  0  0  0  0  0  0  0
   -4.7442   23.1328  -10.1931 C   0  0  0  0  0  0  0  0  0  0  0  0
   -6.5817   18.6904  -14.7606 C   0  0  0  0  0  0  0  0  0  0  0  0
   -6.2953   19.2843  -15.9845 C   0  0  0  0  0  0  0  0  0  0  0  0
   -6.0027   18.4925  -17.2444 C   0  0  1  0  0  0  0  0  0  0  0  0
   -6.7845   18.7753  -18.5032 C   0  0  0  0  0  0  0  0  0  0  0  0
   -6.1587   17.9323  -19.5969 C   0  0  2  0  0  0  0  0  0  0  0  0
   -4.8712   23.5947   -8.8079 C   0  0  0  0  0  0  0  0  0  0  0  0
   -5.7815   16.4736  -19.3119 C   0  0  0  0  0  0  0  0  0  0  0  0
   -4.3311   16.5251  -18.7751 C   0  0  0  0  0  0  0  0  0  0  0  0
   -4.0188   18.0067  -18.7653 C   0  0  2  0  0  0  0  0  0  0  0  0
   -4.4811   18.6492  -17.4762 C   0  0  0  0  0  0  0  0  0  0  0  0
   -5.8759   23.0467  -10.8796 N   0  0  0  0  0  0  0  0  0  0  0  0
   -4.8299   18.5258  -19.8779 N   0  0  0  0  0  0  0  0  0  0  0  0
   -3.6411   22.8375  -10.6576 O   0  0  0  0  0  0  0  0  0  0  0  0
   -6.0948   22.9403   -7.7505 S   0  0  0  0  0  0  0  0  0  0  0  0
   -7.0534   18.9731  -12.6763 H   0  0  0  0  0  0  0  0  0  0  0  0
   -3.8347   26.0440   -3.8308 H   0  0  0  0  0  0  0  0  0  0  0  0
   -5.0864   24.6082   -2.1681 H   0  0  0  0  0  0  0  0  0  0  0  0
   -6.6220   25.3438   -2.7405 H   0  0  0  0  0  0  0  0  0  0  0  0
   -6.4267   23.5581   -2.7405 H   0  0  0  0  0  0  0  0  0  0  0  0
   -4.9973   21.9133  -12.3976 H   0  0  0  0  0  0  0  0  0  0  0  0
   -5.9165   23.3824  -12.9306 H   0  0  0  0  0  0  0  0  0  0  0  0
   -7.9778   22.3404  -12.6677 H   0  0  0  0  0  0  0  0  0  0  0  0
   -7.3151   21.0497  -11.6239 H   0  0  0  0  0  0  0  0  0  0  0  0
   -6.4713   22.5307  -14.9915 H   0  0  0  0  0  0  0  0  0  0  0  0
   -5.9944   21.1606  -16.9873 H   0  0  0  0  0  0  0  0  0  0  0  0
   -2.8243   24.9782   -9.7669 H   0  0  0  0  0  0  0  0  0  0  0  0
   -2.4119   25.7562   -8.2153 H   0  0  0  0  0  0  0  0  0  0  0  0
   -6.6001   17.5935  -14.6802 H   0  0  0  0  0  0  0  0  0  0  0  0
   -6.3474   17.4661  -17.0501 H   0  0  0  0  0  0  0  0  0  0  0  0
   -7.8398   18.4970  -18.3658 H   0  0  0  0  0  0  0  0  0  0  0  0
   -6.7541   19.8448  -18.7586 H   0  0  0  0  0  0  0  0  0  0  0  0
   -6.9429   17.9267  -20.3682 H   0  0  0  0  0  0  0  0  0  0  0  0
   -6.4563   16.0412  -18.5584 H   0  0  0  0  0  0  0  0  0  0  0  0
   -5.8644   15.8451  -20.2109 H   0  0  0  0  0  0  0  0  0  0  0  0
   -4.2703   16.1023  -17.7614 H   0  0  0  0  0  0  0  0  0  0  0  0
   -3.6251   15.9392  -19.3821 H   0  0  0  0  0  0  0  0  0  0  0  0
   -2.9417   18.2104  -18.8560 H   0  0  0  0  0  0  0  0  0  0  0  0
   -4.2388   19.7217  -17.5107 H   0  0  0  0  0  0  0  0  0  0  0  0
   -3.9644   18.1424  -16.6479 H   0  0  0  0  0  0  0  0  0  0  0  0
   -6.7569   23.3527  -10.4426 H   0  0  0  0  0  0  0  0  0  0  0  0
   -4.4638   18.2091  -20.7870 H   0  0  0  0  0  0  0  0  0  0  0  0
   -4.8399   19.5540  -19.9391 H   0  0  0  0  0  0  0  0  0  0  0  0
  1  7  1  0
  1 12  2  0
  1 14  1  0
  2  5  2  0
  2 17  1  0
  3  4  2  0
  3 12  1  0
  4  6  1  0
  4 13  1  0
  5  9  1  0
  5 10  1  0
  7 15  1  0
  7 22  2  0
  8  9  1  0
  8 27  1  0
 10 11  2  0
 11 18  1  0
 13 14  2  0
 14 30  1  0
 16 22  1  0
 16 27  1  0
 16 29  2  0
 17 18  2  0
 19 18  1  0
 19 20  1  0
 19 26  1  0
 21 20  1  0
 21 23  1  0
 21 28  1  0
 22 30  1  0
 23 24  1  0
 25 24  1  0
 25 26  1  0
 25 28  1  0
  2 31  1  0
  3 32  1  0
  6 33  1  0
  6 34  1  0
  6 35  1  0
  8 36  1  0
  8 37  1  0
  9 38  1  0
  9 39  1  0
 10 40  1  0
 11 41  1  0
 15 42  1  0
 15 43  1  0
 17 44  1  0
 19 45  1  1
 20 46  1  0
 20 47  1  0
 21 48  1  6
 23 49  1  0
 23 50  1  0
 24 51  1  0
 24 52  1  0
 25 53  1  6
 26 54  1  0
 26 55  1  0
 27 56  1  0
 28 57  1  0
 28 58  1  0
M  CHG  1  28   1
M  END
>  <filename_input>  (19) 
7TUO_KL9_docked.sdf

>  <pdb_id>  (19) 
7TUO_KL9

>  <pose_rank>  (19) 
18

>  <num_atoms_heavy>  (19) 
30

>  <num_torsions>  (19) 
5

>  <pose>  (19) 
[-5.895270196518529, 22.52823283260866, -12.237867171762652, -3.212516312842939, 0.249994230225108, -1.1646567688675902, -5.746220769290468, 0.6946269467565986, 0.2778014153466673, 0.532735758332466, -0.7290572085839315]

>  <energy>  (19) 
-448.70052357025975

>  <inter_energy>  (19) 
-449.342212865833

>  <intra_energy>  (19) 
6.402724730793153

>  <rmsd>  (19) 
12.2816

>  <sdf_rank>  (19) 
0

$$$$

     RDKit          3D

 58 62  0  0  0  0  0  0  0  0999 V2000
   -5.8770   27.2819   -6.3858 C   0  0  0  0  0  0  0  0  0  0  0  0
   -6.0399   21.2798   -9.4955 C   0  0  0  0  0  0  0  0  0  0  0  0
   -6.7357   29.3967   -6.3507 C   0  0  0  0  0  0  0  0  0  0  0  0
   -7.9580   28.8913   -5.8687 C   0  0  0  0  0  0  0  0  0  0  0  0
   -4.7001   21.6179   -9.4323 C   0  0  0  0  0  0  0  0  0  0  0  0
   -9.1221   29.7888   -5.5870 C   0  0  0  0  0  0  0  0  0  0  0  0
   -4.9309   26.1894   -6.5367 C   0  0  0  0  0  0  0  0  0  0  0  0
   -4.5660   21.4429   -7.0104 C   0  0  0  0  0  0  0  0  0  0  0  0
   -3.8360   21.1642   -8.2846 C   0  0  0  0  0  0  0  0  0  0  0  0
   -4.1513   22.3085  -10.4959 C   0  0  0  0  0  0  0  0  0  0  0  0
   -4.9312   22.7030  -11.5705 C   0  0  0  0  0  0  0  0  0  0  0  0
   -5.6870   28.6013   -6.6080 N   0  0  0  0  0  0  0  0  0  0  0  0
   -8.1366   27.5976   -5.6509 N   0  0  0  0  0  0  0  0  0  0  0  0
   -7.1003   26.7920   -5.9081 C   0  0  0  0  0  0  0  0  0  0  0  0
   -3.6513   26.3796   -6.9014 N   0  0  0  0  0  0  0  0  0  0  0  0
   -4.7457   23.6930   -6.1292 C   0  0  0  0  0  0  0  0  0  0  0  0
   -6.8265   21.6800  -10.5681 C   0  0  0  0  0  0  0  0  0  0  0  0
   -6.2823   22.4140  -11.6158 C   0  0  0  0  0  0  0  0  0  0  0  0
   -7.0904   22.8811  -12.8112 C   0  0  1  0  0  0  0  0  0  0  0  0
   -7.6085   24.2972  -12.8557 C   0  0  0  0  0  0  0  0  0  0  0  0
   -8.2362   24.4828  -14.2231 C   0  0  2  0  0  0  0  0  0  0  0  0
   -5.4631   24.9703   -6.1719 C   0  0  0  0  0  0  0  0  0  0  0  0
   -9.1333   23.3835  -14.8044 C   0  0  0  0  0  0  0  0  0  0  0  0
   -8.1769   22.4416  -15.5743 C   0  0  0  0  0  0  0  0  0  0  0  0
   -6.8161   23.0617  -15.3364 C   0  0  2  0  0  0  0  0  0  0  0  0
   -6.2112   22.5613  -14.0434 C   0  0  0  0  0  0  0  0  0  0  0  0
   -5.1436   22.7772   -7.0024 N   0  0  0  0  0  0  0  0  0  0  0  0
   -7.1218   24.4947  -15.2002 N   0  0  0  0  0  0  0  0  0  0  0  0
   -3.8419   23.5077   -5.3114 O   0  0  0  0  0  0  0  0  0  0  0  0
   -7.1362   25.0785   -5.6895 S   0  0  0  0  0  0  0  0  0  0  0  0
   -6.4884   20.6860   -8.6854 H   0  0  0  0  0  0  0  0  0  0  0  0
   -6.6376   30.4788   -6.5219 H   0  0  0  0  0  0  0  0  0  0  0  0
   -9.2527   29.8895   -4.4994 H   0  0  0  0  0  0  0  0  0  0  0  0
   -8.9362   30.7795   -6.0273 H   0  0  0  0  0  0  0  0  0  0  0  0
  -10.0330   29.3569   -6.0273 H   0  0  0  0  0  0  0  0  0  0  0  0
   -5.3728   20.7045   -6.8930 H   0  0  0  0  0  0  0  0  0  0  0  0
   -3.8463   21.3758   -6.1812 H   0  0  0  0  0  0  0  0  0  0  0  0
   -3.6376   20.0857   -8.3717 H   0  0  0  0  0  0  0  0  0  0  0  0
   -2.8758   21.7009   -8.2972 H   0  0  0  0  0  0  0  0  0  0  0  0
   -3.0779   22.5489  -10.4891 H   0  0  0  0  0  0  0  0  0  0  0  0
   -4.4679   23.2552  -12.4014 H   0  0  0  0  0  0  0  0  0  0  0  0
   -3.0173   25.5734   -6.9953 H   0  0  0  0  0  0  0  0  0  0  0  0
   -3.3048   27.3317   -7.0869 H   0  0  0  0  0  0  0  0  0  0  0  0
   -7.8933   21.4127  -10.5887 H   0  0  0  0  0  0  0  0  0  0  0  0
   -8.0493   22.3443  -12.7634 H   0  0  0  0  0  0  0  0  0  0  0  0
   -8.3606   24.4516  -12.0680 H   0  0  0  0  0  0  0  0  0  0  0  0
   -6.7987   25.0225  -12.6878 H   0  0  0  0  0  0  0  0  0  0  0  0
   -8.8607   25.3765  -14.0765 H   0  0  0  0  0  0  0  0  0  0  0  0
   -9.6456   22.8377  -13.9984 H   0  0  0  0  0  0  0  0  0  0  0  0
   -9.9169   23.7957  -15.4573 H   0  0  0  0  0  0  0  0  0  0  0  0
   -8.2205   21.4192  -15.1707 H   0  0  0  0  0  0  0  0  0  0  0  0
   -8.4285   22.3488  -16.6411 H   0  0  0  0  0  0  0  0  0  0  0  0
   -6.1001   22.8252  -16.1373 H   0  0  0  0  0  0  0  0  0  0  0  0
   -5.2283   23.0362  -13.9075 H   0  0  0  0  0  0  0  0  0  0  0  0
   -6.1269   21.4670  -14.1171 H   0  0  0  0  0  0  0  0  0  0  0  0
   -5.8751   23.0156   -7.6871 H   0  0  0  0  0  0  0  0  0  0  0  0
   -7.4172   24.9011  -16.0993 H   0  0  0  0  0  0  0  0  0  0  0  0
   -6.3164   25.0638  -14.9032 H   0  0  0  0  0  0  0  0  0  0  0  0
  1  7  1  0
  1 12  2  0
  1 14  1  0
  2  5  2  0
  2 17  1  0
  3  4  2  0
  3 12  1  0
  4  6  1  0
  4 13  1  0
  5  9  1  0
  5 10  1  0
  7 15  1  0
  7 22  2  0
  8  9  1  0
  8 27  1  0
 10 11  2  0
 11 18  1  0
 13 14  2  0
 14 30  1  0
 16 22  1  0
 16 27  1  0
 16 29  2  0
 17 18  2  0
 19 18  1  0
 19 20  1  0
 19 26  1  0
 21 20  1  0
 21 23  1  0
 21 28  1  0
 22 30  1  0
 23 24  1  0
 25 24  1  0
 25 26  1  0
 25 28  1  0
  2 31  1  0
  3 32  1  0
  6 33  1  0
  6 34  1  0
  6 35  1  0
  8 36  1  0
  8 37  1  0
  9 38  1  0
  9 39  1  0
 10 40  1  0
 11 41  1  0
 15 42  1  0
 15 43  1  0
 17 44  1  0
 19 45  1  6
 20 46  1  0
 20 47  1  0
 21 48  1  1
 23 49  1  0
 23 50  1  0
 24 51  1  0
 24 52  1  0
 25 53  1  6
 26 54  1  0
 26 55  1  0
 27 56  1  0
 28 57  1  0
 28 58  1  0
M  CHG  1  28   1
M  END
>  <filename_input>  (20) 
7TUO_KL9_docked.sdf

>  <pdb_id>  (20) 
7TUO_KL9

>  <pose_rank>  (20) 
19

>  <num_atoms_heavy>  (20) 
30

>  <num_torsions>  (20) 
5

>  <pose>  (20) 
[-4.565966063266307, 21.442925954030443, -7.010431936909017, -0.08970483095588752, 2.0357289850748983, -2.8277661798624663, 2.3154343718488137, 1.076693474415394, 2.304167072429556, 3.9231079392747583, -1.2187331573293876]

>  <energy>  (20) 
-393.2586263845803

>  <inter_energy>  (20) 
-407.2309614051003

>  <intra_energy>  (20) 
14.329744828221532

>  <rmsd>  (20) 
11.1624

>  <sdf_rank>  (20) 
0

$$$$

     RDKit          3D

 58 62  0  0  0  0  0  0  0  0999 V2000
    5.4055   23.6724  -16.3758 C   0  0  0  0  0  0  0  0  0  0  0  0
    0.7905   27.5445  -20.7946 C   0  0  0  0  0  0  0  0  0  0  0  0
    6.3328   23.6424  -14.2901 C   0  0  0  0  0  0  0  0  0  0  0  0
    5.1048   23.2136  -13.7515 C   0  0  0  0  0  0  0  0  0  0  0  0
    0.8615   26.4160  -21.5913 C   0  0  0  0  0  0  0  0  0  0  0  0
    4.9349   22.9645  -12.2855 C   0  0  0  0  0  0  0  0  0  0  0  0
    5.2794   23.8016  -17.8176 C   0  0  0  0  0  0  0  0  0  0  0  0
    2.2493   24.4262  -21.4209 C   0  0  0  0  0  0  0  0  0  0  0  0
    2.1891   25.8143  -21.9722 C   0  0  0  0  0  0  0  0  0  0  0  0
   -0.3205   25.8004  -21.9565 C   0  0  0  0  0  0  0  0  0  0  0  0
   -1.5457   26.3288  -21.5848 C   0  0  0  0  0  0  0  0  0  0  0  0
    6.4955   23.8701  -15.6016 N   0  0  0  0  0  0  0  0  0  0  0  0
    4.0415   23.0196  -14.5161 N   0  0  0  0  0  0  0  0  0  0  0  0
    4.1882   23.2479  -15.8258 C   0  0  0  0  0  0  0  0  0  0  0  0
    6.3158   24.1152  -18.6139 N   0  0  0  0  0  0  0  0  0  0  0  0
    3.5949   23.4200  -19.6748 C   0  0  0  0  0  0  0  0  0  0  0  0
   -0.4366   28.0812  -20.4262 C   0  0  0  0  0  0  0  0  0  0  0  0
   -1.6254   27.4858  -20.8325 C   0  0  0  0  0  0  0  0  0  0  0  0
   -2.9938   28.0263  -20.4646 C   0  0  1  0  0  0  0  0  0  0  0  0
   -3.3863   29.4192  -20.8904 C   0  0  0  0  0  0  0  0  0  0  0  0
   -4.8408   29.5944  -20.5006 C   0  0  2  0  0  0  0  0  0  0  0  0
    4.0196   23.4732  -18.2731 C   0  0  0  0  0  0  0  0  0  0  0  0
   -5.3243   29.1126  -19.1275 C   0  0  0  0  0  0  0  0  0  0  0  0
   -5.7490   27.6396  -19.3389 C   0  0  0  0  0  0  0  0  0  0  0  0
   -5.4383   27.3970  -20.8009 C   0  0  2  0  0  0  0  0  0  0  0  0
   -3.9985   26.9713  -20.9853 C   0  0  0  0  0  0  0  0  0  0  0  0
    2.8026   24.4051  -20.0765 N   0  0  0  0  0  0  0  0  0  0  0  0
   -5.6275   28.7245  -21.4068 N   0  0  0  0  0  0  0  0  0  0  0  0
    3.9581   22.4963  -20.4061 O   0  0  0  0  0  0  0  0  0  0  0  0
    2.9213   23.0531  -16.9843 S   0  0  0  0  0  0  0  0  0  0  0  0
    1.7182   28.0234  -20.4482 H   0  0  0  0  0  0  0  0  0  0  0  0
    7.1864   23.7956  -13.6134 H   0  0  0  0  0  0  0  0  0  0  0  0
    5.4658   23.7426  -11.7174 H   0  0  0  0  0  0  0  0  0  0  0  0
    3.8651   22.9900  -12.0308 H   0  0  0  0  0  0  0  0  0  0  0  0
    5.3490   21.9777  -12.0308 H   0  0  0  0  0  0  0  0  0  0  0  0
    1.2319   24.0088  -21.3942 H   0  0  0  0  0  0  0  0  0  0  0  0
    2.9043   23.8273  -22.0707 H   0  0  0  0  0  0  0  0  0  0  0  0
    2.2835   25.7840  -23.0677 H   0  0  0  0  0  0  0  0  0  0  0  0
    3.0115   26.4205  -21.5646 H   0  0  0  0  0  0  0  0  0  0  0  0
   -0.2879   24.8760  -22.5518 H   0  0  0  0  0  0  0  0  0  0  0  0
   -2.4706   25.8194  -21.8933 H   0  0  0  0  0  0  0  0  0  0  0  0
    6.1775   24.1956  -19.6314 H   0  0  0  0  0  0  0  0  0  0  0  0
    7.2482   24.2750  -18.2066 H   0  0  0  0  0  0  0  0  0  0  0  0
   -0.4681   28.9885  -19.8051 H   0  0  0  0  0  0  0  0  0  0  0  0
   -2.9845   28.1716  -19.3743 H   0  0  0  0  0  0  0  0  0  0  0  0
   -2.7623   30.1642  -20.3749 H   0  0  0  0  0  0  0  0  0  0  0  0
   -3.2446   29.5594  -21.9722 H   0  0  0  0  0  0  0  0  0  0  0  0
   -4.9627   30.6873  -20.5296 H   0  0  0  0  0  0  0  0  0  0  0  0
   -4.5122   29.1773  -18.3884 H   0  0  0  0  0  0  0  0  0  0  0  0
   -6.1522   29.7275  -18.7449 H   0  0  0  0  0  0  0  0  0  0  0  0
   -5.1666   26.9647  -18.6944 H   0  0  0  0  0  0  0  0  0  0  0  0
   -6.8030   27.4536  -19.0849 H   0  0  0  0  0  0  0  0  0  0  0  0
   -6.0645   26.6056  -21.2385 H   0  0  0  0  0  0  0  0  0  0  0  0
   -3.8141   26.8084  -22.0574 H   0  0  0  0  0  0  0  0  0  0  0  0
   -3.8464   26.0508  -20.4025 H   0  0  0  0  0  0  0  0  0  0  0  0
    2.5751   25.1690  -19.4240 H   0  0  0  0  0  0  0  0  0  0  0  0
   -6.6216   28.9940  -21.4139 H   0  0  0  0  0  0  0  0  0  0  0  0
   -5.3311   28.7765  -22.3918 H   0  0  0  0  0  0  0  0  0  0  0  0
  1  7  1  0
  1 12  2  0
  1 14  1  0
  2  5  2  0
  2 17  1  0
  3  4  2  0
  3 12  1  0
  4  6  1  0
  4 13  1  0
  5  9  1  0
  5 10  1  0
  7 15  1  0
  7 22  2  0
  8  9  1  0
  8 27  1  0
 10 11  2  0
 11 18  1  0
 13 14  2  0
 14 30  1  0
 16 22  1  0
 16 27  1  0
 16 29  2  0
 17 18  2  0
 19 18  1  0
 19 20  1  0
 19 26  1  0
 21 20  1  0
 21 23  1  0
 21 28  1  0
 22 30  1  0
 23 24  1  0
 25 24  1  0
 25 26  1  0
 25 28  1  0
  2 31  1  0
  3 32  1  0
  6 33  1  0
  6 34  1  0
  6 35  1  0
  8 36  1  0
  8 37  1  0
  9 38  1  0
  9 39  1  0
 10 40  1  0
 11 41  1  0
 15 42  1  0
 15 43  1  0
 17 44  1  0
 19 45  1  1
 20 46  1  0
 20 47  1  0
 21 48  1  6
 23 49  1  0
 23 50  1  0
 24 51  1  0
 24 52  1  0
 25 53  1  6
 26 54  1  0
 26 55  1  0
 27 56  1  0
 28 57  1  0
 28 58  1  0
M  CHG  1  28   1
M  END
>  <filename_input>  (21) 
7TUO_KL9_docked.sdf

>  <pdb_id>  (21) 
7TUO_KL9

>  <pose_rank>  (21) 
20

>  <num_atoms_heavy>  (21) 
30

>  <num_torsions>  (21) 
5

>  <pose>  (21) 
[2.249306582713882, 24.426229811748247, -21.42085440558973, -1.5123342979828438, 3.7355032425405255, -0.46870725631969207, -4.432263137363001, 1.1987903371682824, 1.5412422967648516, 0.5318840773183265, 4.388407593497064]

>  <energy>  (21) 
-407.07079075553446

>  <inter_energy>  (21) 
-392.0123951825897

>  <intra_energy>  (21) 
0.46791154264439355

>  <rmsd>  (21) 
10.7652

>  <sdf_rank>  (21) 
0

$$$$

     RDKit          3D

 58 62  0  0  0  0  0  0  0  0999 V2000
    4.3250   23.5421  -14.9718 C   0  0  0  0  0  0  0  0  0  0  0  0
    0.9140   26.7937  -21.4974 C   0  0  0  0  0  0  0  0  0  0  0  0
    4.3595   23.6227  -12.6908 C   0  0  0  0  0  0  0  0  0  0  0  0
    2.9545   23.5369  -12.6675 C   0  0  0  0  0  0  0  0  0  0  0  0
    1.4587   25.5222  -21.4957 C   0  0  0  0  0  0  0  0  0  0  0  0
    2.1889   23.5413  -11.3815 C   0  0  0  0  0  0  0  0  0  0  0  0
    4.7877   23.4858  -16.3481 C   0  0  0  0  0  0  0  0  0  0  0  0
    3.2585   23.9994  -20.8989 C   0  0  0  0  0  0  0  0  0  0  0  0
    2.9502   25.3142  -21.5398 C   0  0  0  0  0  0  0  0  0  0  0  0
    0.6021   24.4463  -21.3619 C   0  0  0  0  0  0  0  0  0  0  0  0
   -0.7690   24.6294  -21.2892 C   0  0  0  0  0  0  0  0  0  0  0  0
    5.0552   23.6213  -13.8373 N   0  0  0  0  0  0  0  0  0  0  0  0
    2.2455   23.4573  -13.7829 N   0  0  0  0  0  0  0  0  0  0  0  0
    2.9264   23.4598  -14.9342 C   0  0  0  0  0  0  0  0  0  0  0  0
    6.0904   23.4623  -16.6779 N   0  0  0  0  0  0  0  0  0  0  0  0
    3.8898   23.1948  -18.7022 C   0  0  0  0  0  0  0  0  0  0  0  0
   -0.4608   26.9805  -21.4319 C   0  0  0  0  0  0  0  0  0  0  0  0
   -1.3239   25.8943  -21.3430 C   0  0  0  0  0  0  0  0  0  0  0  0
   -2.8323   26.0349  -21.2713 C   0  0  1  0  0  0  0  0  0  0  0  0
   -3.4798   27.3425  -21.6541 C   0  0  0  0  0  0  0  0  0  0  0  0
   -4.9773   27.1088  -21.6146 C   0  0  2  0  0  0  0  0  0  0  0  0
    3.7536   23.3607  -17.2524 C   0  0  0  0  0  0  0  0  0  0  0  0
   -5.5955   26.3287  -20.4482 C   0  0  0  0  0  0  0  0  0  0  0  0
   -5.5606   24.8450  -20.8862 C   0  0  0  0  0  0  0  0  0  0  0  0
   -4.8944   24.9016  -22.2449 C   0  0  2  0  0  0  0  0  0  0  0  0
   -3.3882   24.8609  -22.1117 C   0  0  0  0  0  0  0  0  0  0  0  0
    3.2661   24.0969  -19.4483 N   0  0  0  0  0  0  0  0  0  0  0  0
   -5.2953   26.2211  -22.7581 N   0  0  0  0  0  0  0  0  0  0  0  0
    4.5397   22.2565  -19.1683 O   0  0  0  0  0  0  0  0  0  0  0  0
    2.1839   23.3646  -16.4913 S   0  0  0  0  0  0  0  0  0  0  0  0
    1.5785   27.6686  -21.5512 H   0  0  0  0  0  0  0  0  0  0  0  0
    4.9043   23.6933  -11.7378 H   0  0  0  0  0  0  0  0  0  0  0  0
    2.8925   23.5372  -10.5360 H   0  0  0  0  0  0  0  0  0  0  0  0
    1.5611   24.4432  -11.3317 H   0  0  0  0  0  0  0  0  0  0  0  0
    1.5506   22.6469  -11.3317 H   0  0  0  0  0  0  0  0  0  0  0  0
    2.4962   23.2671  -21.2031 H   0  0  0  0  0  0  0  0  0  0  0  0
    4.2603   23.6848  -21.2267 H   0  0  0  0  0  0  0  0  0  0  0  0
    3.2945   25.3089  -22.5845 H   0  0  0  0  0  0  0  0  0  0  0  0
    3.4628   26.1269  -21.0042 H   0  0  0  0  0  0  0  0  0  0  0  0
    1.0155   23.4281  -21.3124 H   0  0  0  0  0  0  0  0  0  0  0  0
   -1.4270   23.7538  -21.1870 H   0  0  0  0  0  0  0  0  0  0  0  0
    6.3703   23.4221  -17.6683 H   0  0  0  0  0  0  0  0  0  0  0  0
    6.8089   23.4843  -15.9402 H   0  0  0  0  0  0  0  0  0  0  0  0
   -0.8718   28.0007  -21.4507 H   0  0  0  0  0  0  0  0  0  0  0  0
   -3.0929   26.0156  -20.2028 H   0  0  0  0  0  0  0  0  0  0  0  0
   -3.1991   28.1295  -20.9386 H   0  0  0  0  0  0  0  0  0  0  0  0
   -3.1545   27.6705  -22.6524 H   0  0  0  0  0  0  0  0  0  0  0  0
   -5.3749   28.1337  -21.5751 H   0  0  0  0  0  0  0  0  0  0  0  0
   -5.0051   26.4740  -19.5315 H   0  0  0  0  0  0  0  0  0  0  0  0
   -6.6181   26.6667  -20.2247 H   0  0  0  0  0  0  0  0  0  0  0  0
   -4.9706   24.2396  -20.1824 H   0  0  0  0  0  0  0  0  0  0  0  0
   -6.5568   24.3793  -20.9130 H   0  0  0  0  0  0  0  0  0  0  0  0
   -5.1816   24.0580  -22.8898 H   0  0  0  0  0  0  0  0  0  0  0  0
   -2.9444   24.9066  -23.1172 H   0  0  0  0  0  0  0  0  0  0  0  0
   -3.1250   23.9269  -21.5936 H   0  0  0  0  0  0  0  0  0  0  0  0
    2.7782   24.8806  -18.9916 H   0  0  0  0  0  0  0  0  0  0  0  0
   -6.3003   26.2455  -22.9822 H   0  0  0  0  0  0  0  0  0  0  0  0
   -4.8215   26.4867  -23.6333 H   0  0  0  0  0  0  0  0  0  0  0  0
  1  7  1  0
  1 12  2  0
  1 14  1  0
  2  5  2  0
  2 17  1  0
  3  4  2  0
  3 12  1  0
  4  6  1  0
  4 13  1  0
  5  9  1  0
  5 10  1  0
  7 15  1  0
  7 22  2  0
  8  9  1  0
  8 27  1  0
 10 11  2  0
 11 18  1  0
 13 14  2  0
 14 30  1  0
 16 22  1  0
 16 27  1  0
 16 29  2  0
 17 18  2  0
 19 18  1  0
 19 20  1  0
 19 26  1  0
 21 20  1  0
 21 23  1  0
 21 28  1  0
 22 30  1  0
 23 24  1  0
 25 24  1  0
 25 26  1  0
 25 28  1  0
  2 31  1  0
  3 32  1  0
  6 33  1  0
  6 34  1  0
  6 35  1  0
  8 36  1  0
  8 37  1  0
  9 38  1  0
  9 39  1  0
 10 40  1  0
 11 41  1  0
 15 42  1  0
 15 43  1  0
 17 44  1  0
 19 45  1  1
 20 46  1  0
 20 47  1  0
 21 48  1  6
 23 49  1  0
 23 50  1  0
 24 51  1  0
 24 52  1  0
 25 53  1  6
 26 54  1  0
 26 55  1  0
 27 56  1  0
 28 57  1  0
 28 58  1  0
M  CHG  1  28   1
M  END
>  <filename_input>  (22) 
7TUO_KL9_docked.sdf

>  <pdb_id>  (22) 
7TUO_KL9

>  <pose_rank>  (22) 
21

>  <num_atoms_heavy>  (22) 
30

>  <num_torsions>  (22) 
5

>  <pose>  (22) 
[3.258534181483606, 23.999441585599282, -20.898935205441624, -1.679462588746281, 3.1278210801662474, -0.9227216376528312, -4.723417619135332, 0.9075201620876401, 1.7015167963108218, 1.1485121310464022, 3.618412271280252]

>  <energy>  (22) 
-487.02767422538795

>  <inter_energy>  (22) 
-488.4721042627057

>  <intra_energy>  (22) 
8.063411721586611

>  <rmsd>  (22) 
11.0854

>  <sdf_rank>  (22) 
0

$$$$

     RDKit          3D

 58 62  0  0  0  0  0  0  0  0999 V2000
    2.1868   15.8242   -4.3889 C   0  0  0  0  0  0  0  0  0  0  0  0
   -3.8930   20.6728   -3.4820 C   0  0  0  0  0  0  0  0  0  0  0  0
    4.3936   15.4987   -3.9039 C   0  0  0  0  0  0  0  0  0  0  0  0
    4.1020   15.5779   -2.5289 C   0  0  0  0  0  0  0  0  0  0  0  0
   -4.4916   19.6268   -4.1608 C   0  0  0  0  0  0  0  0  0  0  0  0
    5.1721   15.4478   -1.4907 C   0  0  0  0  0  0  0  0  0  0  0  0
    0.9560   15.9556   -5.1500 C   0  0  0  0  0  0  0  0  0  0  0  0
   -3.6274   17.4280   -4.7374 C   0  0  0  0  0  0  0  0  0  0  0  0
   -4.3478   18.2051   -3.6833 C   0  0  0  0  0  0  0  0  0  0  0  0
   -5.3010   19.9280   -5.2394 C   0  0  0  0  0  0  0  0  0  0  0  0
   -5.4644   21.2354   -5.6670 C   0  0  0  0  0  0  0  0  0  0  0  0
    3.4428   15.6157   -4.8424 N   0  0  0  0  0  0  0  0  0  0  0  0
    2.8688   15.7801   -2.0915 N   0  0  0  0  0  0  0  0  0  0  0  0
    1.9111   15.9036   -3.0170 C   0  0  0  0  0  0  0  0  0  0  0  0
    0.9109   15.8355   -6.4878 N   0  0  0  0  0  0  0  0  0  0  0  0
   -1.5447   16.1909   -4.7980 C   0  0  0  0  0  0  0  0  0  0  0  0
   -4.0488   21.9842   -3.9123 C   0  0  0  0  0  0  0  0  0  0  0  0
   -4.8272   22.2810   -5.0253 C   0  0  0  0  0  0  0  0  0  0  0  0
   -5.0324   23.6912   -5.5440 C   0  0  1  0  0  0  0  0  0  0  0  0
   -5.3502   23.9123   -7.0020 C   0  0  0  0  0  0  0  0  0  0  0  0
   -5.6361   25.3927   -7.1604 C   0  0  2  0  0  0  0  0  0  0  0  0
   -0.1528   16.1149   -4.3452 C   0  0  0  0  0  0  0  0  0  0  0  0
   -4.7315   26.4208   -6.4704 C   0  0  0  0  0  0  0  0  0  0  0  0
   -5.3545   26.6375   -5.0706 C   0  0  0  0  0  0  0  0  0  0  0  0
   -6.5361   25.6905   -5.0682 C   0  0  2  0  0  0  0  0  0  0  0  0
   -6.1187   24.3046   -4.6289 C   0  0  0  0  0  0  0  0  0  0  0  0
   -2.2174   17.2697   -4.4197 N   0  0  0  0  0  0  0  0  0  0  0  0
   -6.9309   25.6462   -6.4851 N   0  0  0  0  0  0  0  0  0  0  0  0
   -2.0344   15.2853   -5.4762 O   0  0  0  0  0  0  0  0  0  0  0  0
    0.2448   16.1720   -2.6475 S   0  0  0  0  0  0  0  0  0  0  0  0
   -3.2852   20.4632   -2.5894 H   0  0  0  0  0  0  0  0  0  0  0  0
    5.4349   15.3357   -4.2187 H   0  0  0  0  0  0  0  0  0  0  0  0
    4.7202   15.5027   -0.4894 H   0  0  0  0  0  0  0  0  0  0  0  0
    5.6829   14.4809   -1.6099 H   0  0  0  0  0  0  0  0  0  0  0  0
    5.8998   16.2640   -1.6099 H   0  0  0  0  0  0  0  0  0  0  0  0
   -4.0874   16.4325   -4.8234 H   0  0  0  0  0  0  0  0  0  0  0  0
   -3.7053   17.9814   -5.6849 H   0  0  0  0  0  0  0  0  0  0  0  0
   -3.7721   18.1837   -2.7462 H   0  0  0  0  0  0  0  0  0  0  0  0
   -5.3387   17.7650   -3.4978 H   0  0  0  0  0  0  0  0  0  0  0  0
   -5.8239   19.1167   -5.7670 H   0  0  0  0  0  0  0  0  0  0  0  0
   -6.1117   21.4450   -6.5312 H   0  0  0  0  0  0  0  0  0  0  0  0
    0.0141   15.9367   -6.9841 H   0  0  0  0  0  0  0  0  0  0  0  0
    1.7733   15.6422   -7.0169 H   0  0  0  0  0  0  0  0  0  0  0  0
   -3.5501   22.7981   -3.3657 H   0  0  0  0  0  0  0  0  0  0  0  0
   -4.0483   24.1810   -5.5022 H   0  0  0  0  0  0  0  0  0  0  0  0
   -4.4922   23.6221   -7.6263 H   0  0  0  0  0  0  0  0  0  0  0  0
   -6.2109   23.3048   -7.3182 H   0  0  0  0  0  0  0  0  0  0  0  0
   -5.5340   25.5378   -8.2460 H   0  0  0  0  0  0  0  0  0  0  0  0
   -3.7062   26.0328   -6.3801 H   0  0  0  0  0  0  0  0  0  0  0  0
   -4.6673   27.3592   -7.0408 H   0  0  0  0  0  0  0  0  0  0  0  0
   -4.6394   26.3782   -4.2760 H   0  0  0  0  0  0  0  0  0  0  0  0
   -5.6390   27.6832   -4.8819 H   0  0  0  0  0  0  0  0  0  0  0  0
   -7.3347   26.0158   -4.3851 H   0  0  0  0  0  0  0  0  0  0  0  0
   -7.0023   23.6495   -4.6435 H   0  0  0  0  0  0  0  0  0  0  0  0
   -5.6930   24.3900   -3.6182 H   0  0  0  0  0  0  0  0  0  0  0  0
   -1.7322   18.0087   -3.8912 H   0  0  0  0  0  0  0  0  0  0  0  0
   -7.3411   26.5415   -6.7870 H   0  0  0  0  0  0  0  0  0  0  0  0
   -7.6517   24.9404   -6.6925 H   0  0  0  0  0  0  0  0  0  0  0  0
  1  7  1  0
  1 12  2  0
  1 14  1  0
  2  5  2  0
  2 17  1  0
  3  4  2  0
  3 12  1  0
  4  6  1  0
  4 13  1  0
  5  9  1  0
  5 10  1  0
  7 15  1  0
  7 22  2  0
  8  9  1  0
  8 27  1  0
 10 11  2  0
 11 18  1  0
 13 14  2  0
 14 30  1  0
 16 22  1  0
 16 27  1  0
 16 29  2  0
 17 18  2  0
 19 18  1  0
 19 20  1  0
 19 26  1  0
 21 20  1  0
 21 23  1  0
 21 28  1  0
 22 30  1  0
 23 24  1  0
 25 24  1  0
 25 26  1  0
 25 28  1  0
  2 31  1  0
  3 32  1  0
  6 33  1  0
  6 34  1  0
  6 35  1  0
  8 36  1  0
  8 37  1  0
  9 38  1  0
  9 39  1  0
 10 40  1  0
 11 41  1  0
 15 42  1  0
 15 43  1  0
 17 44  1  0
 19 45  1  1
 20 46  1  0
 20 47  1  0
 21 48  1  6
 23 49  1  0
 23 50  1  0
 24 51  1  0
 24 52  1  0
 25 53  1  1
 26 54  1  0
 26 55  1  0
 27 56  1  0
 28 57  1  0
 28 58  1  0
M  CHG  1  28   1
M  END
>  <filename_input>  (23) 
7TUO_KL9_docked.sdf

>  <pdb_id>  (23) 
7TUO_KL9

>  <pose_rank>  (23) 
22

>  <num_atoms_heavy>  (23) 
30

>  <num_torsions>  (23) 
5

>  <pose>  (23) 
[-3.6273836215991233, 17.427974165158858, -4.7374389039274245, 1.839746920163858, -1.0131925025152215, -0.6450745591715517, 0.6515987571018682, 0.8933796252324896, -1.4405149589282995, -3.57439105208583, -0.2612995563739072]

>  <energy>  (23) 
-389.44561768183206

>  <inter_energy>  (23) 
-390.7934661020338

>  <intra_energy>  (23) 
3.4183477832409936

>  <rmsd>  (23) 
10.4657

>  <sdf_rank>  (23) 
0

$$$$

     RDKit          3D

 58 62  0  0  0  0  0  0  0  0999 V2000
   -4.8227   24.1617   -8.1100 C   0  0  0  0  0  0  0  0  0  0  0  0
   -8.6337   26.0969  -14.3848 C   0  0  0  0  0  0  0  0  0  0  0  0
   -3.5039   24.6526   -6.3125 C   0  0  0  0  0  0  0  0  0  0  0  0
   -4.6524   24.8029   -5.5123 C   0  0  0  0  0  0  0  0  0  0  0  0
   -7.6274   25.1507  -14.4585 C   0  0  0  0  0  0  0  0  0  0  0  0
   -4.5577   25.1680   -4.0639 C   0  0  0  0  0  0  0  0  0  0  0  0
   -5.2199   23.7791   -9.4543 C   0  0  0  0  0  0  0  0  0  0  0  0
   -8.6666   23.8455  -12.6890 C   0  0  0  0  0  0  0  0  0  0  0  0
   -7.8290   23.7567  -13.9238 C   0  0  0  0  0  0  0  0  0  0  0  0
   -6.4608   25.4897  -15.1168 C   0  0  0  0  0  0  0  0  0  0  0  0
   -6.2784   26.7596  -15.6392 C   0  0  0  0  0  0  0  0  0  0  0  0
   -3.5775   24.3274   -7.6115 N   0  0  0  0  0  0  0  0  0  0  0  0
   -5.8693   24.6368   -6.0066 N   0  0  0  0  0  0  0  0  0  0  0  0
   -5.9577   24.3171   -7.3024 C   0  0  0  0  0  0  0  0  0  0  0  0
   -4.3324   23.4833  -10.4193 N   0  0  0  0  0  0  0  0  0  0  0  0
   -7.2987   23.2118  -10.7919 C   0  0  0  0  0  0  0  0  0  0  0  0
   -8.4514   27.3734  -14.9012 C   0  0  0  0  0  0  0  0  0  0  0  0
   -7.2594   27.7266  -15.5233 C   0  0  0  0  0  0  0  0  0  0  0  0
   -7.0008   29.1038  -16.1034 C   0  0  1  0  0  0  0  0  0  0  0  0
   -6.9776   29.2920  -17.6000 C   0  0  0  0  0  0  0  0  0  0  0  0
   -6.8445   30.7823  -17.8442 C   0  0  2  0  0  0  0  0  0  0  0  0
   -6.5872   23.6608   -9.5917 C   0  0  0  0  0  0  0  0  0  0  0  0
   -5.8520   31.6042  -17.0131 C   0  0  0  0  0  0  0  0  0  0  0  0
   -6.6468   32.0653  -15.7680 C   0  0  0  0  0  0  0  0  0  0  0  0
   -8.0094   31.4387  -15.9766 C   0  0  2  0  0  0  0  0  0  0  0  0
   -8.0456   30.0274  -15.4332 C   0  0  0  0  0  0  0  0  0  0  0  0
   -7.8662   24.1657  -11.5181 N   0  0  0  0  0  0  0  0  0  0  0  0
   -8.1342   31.3920  -17.4420 N   0  0  0  0  0  0  0  0  0  0  0  0
   -7.3592   22.0132  -11.0741 O   0  0  0  0  0  0  0  0  0  0  0  0
   -7.4522   24.0603   -8.1304 S   0  0  0  0  0  0  0  0  0  0  0  0
   -9.5912   25.8349  -13.9109 H   0  0  0  0  0  0  0  0  0  0  0  0
   -2.5143   24.8069   -5.8577 H   0  0  0  0  0  0  0  0  0  0  0  0
   -4.7865   24.2860   -3.4477 H   0  0  0  0  0  0  0  0  0  0  0  0
   -3.5391   25.5177   -3.8398 H   0  0  0  0  0  0  0  0  0  0  0  0
   -5.2778   25.9688   -3.8398 H   0  0  0  0  0  0  0  0  0  0  0  0
   -9.4245   24.6305  -12.8281 H   0  0  0  0  0  0  0  0  0  0  0  0
   -9.1391   22.8660  -12.5240 H   0  0  0  0  0  0  0  0  0  0  0  0
   -8.3407   23.1395  -14.6770 H   0  0  0  0  0  0  0  0  0  0  0  0
   -6.8579   23.2953  -13.6913 H   0  0  0  0  0  0  0  0  0  0  0  0
   -5.6642   24.7393  -15.2277 H   0  0  0  0  0  0  0  0  0  0  0  0
   -5.3376   27.0024  -16.1547 H   0  0  0  0  0  0  0  0  0  0  0  0
   -4.6619   23.2171  -11.3581 H   0  0  0  0  0  0  0  0  0  0  0  0
   -3.3226   23.5228  -10.2199 H   0  0  0  0  0  0  0  0  0  0  0  0
   -9.2603   28.1140  -14.8168 H   0  0  0  0  0  0  0  0  0  0  0  0
   -5.9499   29.3397  -15.8801 H   0  0  0  0  0  0  0  0  0  0  0  0
   -6.1215   28.7573  -18.0370 H   0  0  0  0  0  0  0  0  0  0  0  0
   -7.8908   28.8925  -18.0654 H   0  0  0  0  0  0  0  0  0  0  0  0
   -6.5106   30.8207  -18.8916 H   0  0  0  0  0  0  0  0  0  0  0  0
   -4.9934   30.9846  -16.7147 H   0  0  0  0  0  0  0  0  0  0  0  0
   -5.4478   32.4555  -17.5805 H   0  0  0  0  0  0  0  0  0  0  0  0
   -6.1800   31.6960  -14.8429 H   0  0  0  0  0  0  0  0  0  0  0  0
   -6.6865   33.1595  -15.6621 H   0  0  0  0  0  0  0  0  0  0  0  0
   -8.8111   31.9969  -15.4710 H   0  0  0  0  0  0  0  0  0  0  0  0
   -9.0480   29.6090  -15.6064 H   0  0  0  0  0  0  0  0  0  0  0  0
   -7.8060   30.0776  -14.3608 H   0  0  0  0  0  0  0  0  0  0  0  0
   -7.7375   25.1512  -11.2477 H   0  0  0  0  0  0  0  0  0  0  0  0
   -8.2409   32.3366  -17.8384 H   0  0  0  0  0  0  0  0  0  0  0  0
   -8.9594   30.8709  -17.7712 H   0  0  0  0  0  0  0  0  0  0  0  0
  1  7  1  0
  1 12  2  0
  1 14  1  0
  2  5  2  0
  2 17  1  0
  3  4  2  0
  3 12  1  0
  4  6  1  0
  4 13  1  0
  5  9  1  0
  5 10  1  0
  7 15  1  0
  7 22  2  0
  8  9  1  0
  8 27  1  0
 10 11  2  0
 11 18  1  0
 13 14  2  0
 14 30  1  0
 16 22  1  0
 16 27  1  0
 16 29  2  0
 17 18  2  0
 19 18  1  0
 19 20  1  0
 19 26  1  0
 21 20  1  0
 21 23  1  0
 21 28  1  0
 22 30  1  0
 23 24  1  0
 25 24  1  0
 25 26  1  0
 25 28  1  0
  2 31  1  0
  3 32  1  0
  6 33  1  0
  6 34  1  0
  6 35  1  0
  8 36  1  0
  8 37  1  0
  9 38  1  0
  9 39  1  0
 10 40  1  0
 11 41  1  0
 15 42  1  0
 15 43  1  0
 17 44  1  0
 19 45  1  1
 20 46  1  0
 20 47  1  0
 21 48  1  6
 23 49  1  0
 23 50  1  0
 24 51  1  0
 24 52  1  0
 25 53  1  1
 26 54  1  0
 26 55  1  0
 27 56  1  0
 28 57  1  0
 28 58  1  0
M  CHG  1  28   1
M  END
>  <filename_input>  (24) 
7TUO_KL9_docked.sdf

>  <pdb_id>  (24) 
7TUO_KL9

>  <pose_rank>  (24) 
23

>  <num_atoms_heavy>  (24) 
30

>  <num_torsions>  (24) 
5

>  <pose>  (24) 
[-8.666553225380055, 23.845542307808007, -12.689003722942356, -0.8612836566007201, -1.802659355500382, 0.38234048526955267, 2.8014221593153317, 1.2724749788559333, 1.653723747980217, -2.168771865915715, 1.464346134869313]

>  <energy>  (24) 
-422.6276253885719

>  <inter_energy>  (24) 
-413.0982542570786

>  <intra_energy>  (24) 
2.454345553003751

>  <rmsd>  (24) 
11.4988

>  <sdf_rank>  (24) 
0

$$$$

     RDKit          3D

 58 62  0  0  0  0  0  0  0  0999 V2000
   -7.9050   28.9010  -16.5458 C   0  0  0  0  0  0  0  0  0  0  0  0
   -8.4779   24.1674   -9.6747 C   0  0  0  0  0  0  0  0  0  0  0  0
   -7.1124   30.5480  -17.9132 C   0  0  0  0  0  0  0  0  0  0  0  0
   -6.0059   29.7417  -18.2413 C   0  0  0  0  0  0  0  0  0  0  0  0
   -8.9664   25.4293   -9.9617 C   0  0  0  0  0  0  0  0  0  0  0  0
   -4.9420   30.2140  -19.1821 C   0  0  0  0  0  0  0  0  0  0  0  0
   -8.7789   28.1734  -15.6412 C   0  0  0  0  0  0  0  0  0  0  0  0
   -9.3886   25.0108  -12.3198 C   0  0  0  0  0  0  0  0  0  0  0  0
   -9.9437   25.6484  -11.0871 C   0  0  0  0  0  0  0  0  0  0  0  0
   -8.6038   26.4729   -9.1317 C   0  0  0  0  0  0  0  0  0  0  0  0
   -7.7301   26.2751   -8.0753 C   0  0  0  0  0  0  0  0  0  0  0  0
   -8.0704   30.1355  -17.0703 N   0  0  0  0  0  0  0  0  0  0  0  0
   -5.8514   28.5322  -17.7256 N   0  0  0  0  0  0  0  0  0  0  0  0
   -6.7971   28.1099  -16.8792 C   0  0  0  0  0  0  0  0  0  0  0  0
   -9.9594   28.6596  -15.2212 N   0  0  0  0  0  0  0  0  0  0  0  0
   -8.9963   25.8992  -14.5399 C   0  0  0  0  0  0  0  0  0  0  0  0
   -7.5959   23.9669   -8.6206 C   0  0  0  0  0  0  0  0  0  0  0  0
   -7.1968   25.0268   -7.8142 C   0  0  0  0  0  0  0  0  0  0  0  0
   -6.2355   24.8706   -6.6518 C   0  0  1  0  0  0  0  0  0  0  0  0
   -4.9029   25.5769   -6.6841 C   0  0  0  0  0  0  0  0  0  0  0  0
   -4.2564   25.3379   -5.3338 C   0  0  2  0  0  0  0  0  0  0  0  0
   -8.3099   26.9094  -15.3501 C   0  0  0  0  0  0  0  0  0  0  0  0
   -4.3001   23.9397   -4.7058 C   0  0  0  0  0  0  0  0  0  0  0  0
   -5.6084   23.9044   -3.8802 C   0  0  0  0  0  0  0  0  0  0  0  0
   -6.2153   25.2678   -4.1365 C   0  0  2  0  0  0  0  0  0  0  0  0
   -7.0520   25.2602   -5.3967 C   0  0  0  0  0  0  0  0  0  0  0  0
   -8.8253   25.9965  -13.2281 N   0  0  0  0  0  0  0  0  0  0  0  0
   -5.0367   26.1230   -4.3482 N   0  0  0  0  0  0  0  0  0  0  0  0
   -9.6726   25.0184  -15.0755 O   0  0  0  0  0  0  0  0  0  0  0  0
   -6.7743   26.5663  -16.1034 S   0  0  0  0  0  0  0  0  0  0  0  0
   -8.7921   23.3112  -10.2896 H   0  0  0  0  0  0  0  0  0  0  0  0
   -7.1937   31.5487  -18.3628 H   0  0  0  0  0  0  0  0  0  0  0  0
   -4.0855   30.5941  -18.6060 H   0  0  0  0  0  0  0  0  0  0  0  0
   -4.6149   29.3765  -19.8159 H   0  0  0  0  0  0  0  0  0  0  0  0
   -5.3436   31.0183  -19.8159 H   0  0  0  0  0  0  0  0  0  0  0  0
   -8.5996   24.3013  -12.0298 H   0  0  0  0  0  0  0  0  0  0  0  0
  -10.2103   24.4960  -12.8393 H   0  0  0  0  0  0  0  0  0  0  0  0
  -10.9112   25.1901  -10.8344 H   0  0  0  0  0  0  0  0  0  0  0  0
  -10.0967   26.7251  -11.2527 H   0  0  0  0  0  0  0  0  0  0  0  0
   -9.0156   27.4767   -9.3128 H   0  0  0  0  0  0  0  0  0  0  0  0
   -7.4560   27.1254   -7.4335 H   0  0  0  0  0  0  0  0  0  0  0  0
  -10.5451   28.1067  -14.5792 H   0  0  0  0  0  0  0  0  0  0  0  0
  -10.2784   29.5852  -15.5413 H   0  0  0  0  0  0  0  0  0  0  0  0
   -7.2083   22.9569   -8.4213 H   0  0  0  0  0  0  0  0  0  0  0  0
   -5.8832   23.8289   -6.6812 H   0  0  0  0  0  0  0  0  0  0  0  0
   -4.2730   25.1636   -7.4855 H   0  0  0  0  0  0  0  0  0  0  0  0
   -5.0271   26.6520   -6.8810 H   0  0  0  0  0  0  0  0  0  0  0  0
   -3.2015   25.5791   -5.5314 H   0  0  0  0  0  0  0  0  0  0  0  0
   -4.3168   23.1663   -5.4878 H   0  0  0  0  0  0  0  0  0  0  0  0
   -3.4158   23.7421   -4.0820 H   0  0  0  0  0  0  0  0  0  0  0  0
   -6.2753   23.1033   -4.2317 H   0  0  0  0  0  0  0  0  0  0  0  0
   -5.4397   23.7008   -2.8124 H   0  0  0  0  0  0  0  0  0  0  0  0
   -6.8726   25.5965   -3.3180 H   0  0  0  0  0  0  0  0  0  0  0  0
   -7.4708   26.2661   -5.5474 H   0  0  0  0  0  0  0  0  0  0  0  0
   -7.8424   24.5063   -5.2668 H   0  0  0  0  0  0  0  0  0  0  0  0
   -8.2835   26.7848  -12.8460 H   0  0  0  0  0  0  0  0  0  0  0  0
   -4.5090   26.2555   -3.4736 H   0  0  0  0  0  0  0  0  0  0  0  0
   -5.2673   27.0752   -4.6661 H   0  0  0  0  0  0  0  0  0  0  0  0
  1  7  1  0
  1 12  2  0
  1 14  1  0
  2  5  2  0
  2 17  1  0
  3  4  2  0
  3 12  1  0
  4  6  1  0
  4 13  1  0
  5  9  1  0
  5 10  1  0
  7 15  1  0
  7 22  2  0
  8  9  1  0
  8 27  1  0
 10 11  2  0
 11 18  1  0
 13 14  2  0
 14 30  1  0
 16 22  1  0
 16 27  1  0
 16 29  2  0
 17 18  2  0
 19 18  1  0
 19 20  1  0
 19 26  1  0
 21 20  1  0
 21 23  1  0
 21 28  1  0
 22 30  1  0
 23 24  1  0
 25 24  1  0
 25 26  1  0
 25 28  1  0
  2 31  1  0
  3 32  1  0
  6 33  1  0
  6 34  1  0
  6 35  1  0
  8 36  1  0
  8 37  1  0
  9 38  1  0
  9 39  1  0
 10 40  1  0
 11 41  1  0
 15 42  1  0
 15 43  1  0
 17 44  1  0
 19 45  1  1
 20 46  1  0
 20 47  1  0
 21 48  1  6
 23 49  1  0
 23 50  1  0
 24 51  1  0
 24 52  1  0
 25 53  1  1
 26 54  1  0
 26 55  1  0
 27 56  1  0
 28 57  1  0
 28 58  1  0
M  CHG  1  28   1
M  END
>  <filename_input>  (25) 
7TUO_KL9_docked.sdf

>  <pdb_id>  (25) 
7TUO_KL9

>  <pose_rank>  (25) 
24

>  <num_atoms_heavy>  (25) 
30

>  <num_torsions>  (25) 
5

>  <pose>  (25) 
[-9.388607226340424, 25.01080751201893, -12.319809170855088, 1.2050284582736897, 0.37232399901863006, -0.3054036607434051, 1.9040801905041798, 1.5929636894782575, 7.588424067941151, -2.4239633923868777, -0.9072380608019277]

>  <energy>  (25) 
-414.28250612410693

>  <inter_energy>  (25) 
-407.7411155881428

>  <intra_energy>  (25) 
0.2199219418253851

>  <rmsd>  (25) 
9.1867

>  <sdf_rank>  (25) 
0

$$$$

     RDKit          3D

 58 62  0  0  0  0  0  0  0  0999 V2000
    4.2390   23.4090  -15.4030 C   0  0  0  0  0  0  0  0  0  0  0  0
   -1.9160   25.4910   -9.5380 C   0  0  0  0  0  0  0  0  0  0  0  0
    5.5560   23.3660  -17.2670 C   0  0  0  0  0  0  0  0  0  0  0  0
    4.4510   22.9560  -18.0370 C   0  0  0  0  0  0  0  0  0  0  0  0
   -2.2870   24.5710  -10.5020 C   0  0  0  0  0  0  0  0  0  0  0  0
    4.5710   22.6960  -19.5060 C   0  0  0  0  0  0  0  0  0  0  0  0
    3.8180   23.6110  -14.0270 C   0  0  0  0  0  0  0  0  0  0  0  0
   -0.4110   23.3620  -11.4680 C   0  0  0  0  0  0  0  0  0  0  0  0
   -1.4680   24.3800  -11.7520 C   0  0  0  0  0  0  0  0  0  0  0  0
   -3.3810   23.7660  -10.2480 C   0  0  0  0  0  0  0  0  0  0  0  0
   -4.1220   23.9130   -9.0870 C   0  0  0  0  0  0  0  0  0  0  0  0
    5.4600   23.6000  -15.9500 N   0  0  0  0  0  0  0  0  0  0  0  0
    3.2570   22.7730  -17.4950 N   0  0  0  0  0  0  0  0  0  0  0  0
    3.1480   22.9980  -16.1810 C   0  0  0  0  0  0  0  0  0  0  0  0
    4.6410   24.0850  -13.0760 N   0  0  0  0  0  0  0  0  0  0  0  0
    1.7270   23.5490  -12.5930 C   0  0  0  0  0  0  0  0  0  0  0  0
   -2.6610   25.6460   -8.3760 C   0  0  0  0  0  0  0  0  0  0  0  0
   -3.7880   24.8660   -8.1430 C   0  0  0  0  0  0  0  0  0  0  0  0
   -4.6420   24.9910   -6.8960 C   0  0  1  0  0  0  0  0  0  0  0  0
   -5.9800   24.2970   -6.8340 C   0  0  0  0  0  0  0  0  0  0  0  0
   -6.5030   24.4960   -5.4250 C   0  0  2  0  0  0  0  0  0  0  0  0
    2.4750   23.3590  -13.8390 C   0  0  0  0  0  0  0  0  0  0  0  0
   -6.3890   25.8720   -4.7580 C   0  0  0  0  0  0  0  0  0  0  0  0
   -5.0130   25.8690   -4.0500 C   0  0  0  0  0  0  0  0  0  0  0  0
   -4.4460   24.5100   -4.4030 C   0  0  2  0  0  0  0  0  0  0  0  0
   -3.7230   24.5530   -5.7310 C   0  0  0  0  0  0  0  0  0  0  0  0
    0.4600   23.1570  -12.6140 N   0  0  0  0  0  0  0  0  0  0  0  0
   -5.6480   23.6720   -4.5380 N   0  0  0  0  0  0  0  0  0  0  0  0
    2.2670   24.0570  -11.6080 O   0  0  0  0  0  0  0  0  0  0  0  0
    1.6780   22.8140  -15.2920 S   0  0  0  0  0  0  0  0  0  0  0  0
   -1.0189   26.1082   -9.6937 H   0  0  0  0  0  0  0  0  0  0  0  0
    6.5295   23.4987  -17.7616 H   0  0  0  0  0  0  0  0  0  0  0  0
    5.0270   21.7081  -19.6675 H   0  0  0  0  0  0  0  0  0  0  0  0
    3.5716   22.7181  -19.9651 H   0  0  0  0  0  0  0  0  0  0  0  0
    5.2026   23.4708  -19.9651 H   0  0  0  0  0  0  0  0  0  0  0  0
    0.1950   23.7053  -10.6166 H   0  0  0  0  0  0  0  0  0  0  0  0
   -0.9071   22.4072  -11.2392 H   0  0  0  0  0  0  0  0  0  0  0  0
   -2.1138   24.0278  -12.5699 H   0  0  0  0  0  0  0  0  0  0  0  0
   -1.0068   25.3323  -12.0527 H   0  0  0  0  0  0  0  0  0  0  0  0
   -3.6680   22.9962  -10.9794 H   0  0  0  0  0  0  0  0  0  0  0  0
   -4.9905   23.2607   -8.9133 H   0  0  0  0  0  0  0  0  0  0  0  0
    4.2969   24.2114  -12.1134 H   0  0  0  0  0  0  0  0  0  0  0  0
    5.6158   24.3218  -13.3098 H   0  0  0  0  0  0  0  0  0  0  0  0
   -2.3555   26.3952   -7.6308 H   0  0  0  0  0  0  0  0  0  0  0  0
   -4.9839   26.0359   -6.8604 H   0  0  0  0  0  0  0  0  0  0  0  0
   -6.6731   24.7420   -7.5630 H   0  0  0  0  0  0  0  0  0  0  0  0
   -5.8854   23.2281   -7.0760 H   0  0  0  0  0  0  0  0  0  0  0  0
   -7.5737   24.2701   -5.5368 H   0  0  0  0  0  0  0  0  0  0  0  0
   -6.4323   26.6710   -5.5128 H   0  0  0  0  0  0  0  0  0  0  0  0
   -7.2130   26.0558   -4.0528 H   0  0  0  0  0  0  0  0  0  0  0  0
   -4.3707   26.6759   -4.4325 H   0  0  0  0  0  0  0  0  0  0  0  0
   -5.0852   26.0381   -2.9655 H   0  0  0  0  0  0  0  0  0  0  0  0
   -3.7231   24.1488   -3.6566 H   0  0  0  0  0  0  0  0  0  0  0  0
   -3.3301   23.5493   -5.9507 H   0  0  0  0  0  0  0  0  0  0  0  0
   -2.9159   25.2957   -5.6466 H   0  0  0  0  0  0  0  0  0  0  0  0
    0.0864   22.6990  -13.4575 H   0  0  0  0  0  0  0  0  0  0  0  0
   -6.0985   23.5146   -3.6252 H   0  0  0  0  0  0  0  0  0  0  0  0
   -5.4567   22.7291   -4.9059 H   0  0  0  0  0  0  0  0  0  0  0  0
  1  7  1  0
  1 12  2  0
  1 14  1  0
  2  5  2  0
  2 17  1  0
  3  4  2  0
  3 12  1  0
  4  6  1  0
  4 13  1  0
  5  9  1  0
  5 10  1  0
  7 15  1  0
  7 22  2  0
  8  9  1  0
  8 27  1  0
 10 11  2  0
 11 18  1  0
 13 14  2  0
 14 30  1  0
 16 22  1  0
 16 27  1  0
 16 29  2  0
 17 18  2  0
 19 18  1  0
 19 20  1  0
 19 26  1  0
 21 20  1  0
 21 23  1  0
 21 28  1  0
 22 30  1  0
 23 24  1  0
 25 24  1  0
 25 26  1  0
 25 28  1  0
  2 31  1  0
  3 32  1  0
  6 33  1  0
  6 34  1  0
  6 35  1  0
  8 36  1  0
  8 37  1  0
  9 38  1  0
  9 39  1  0
 10 40  1  0
 11 41  1  0
 15 42  1  0
 15 43  1  0
 17 44  1  0
 19 45  1  1
 20 46  1  0
 20 47  1  0
 21 48  1  6
 23 49  1  0
 23 50  1  0
 24 51  1  0
 24 52  1  0
 25 53  1  1
 26 54  1  0
 26 55  1  0
 27 56  1  0
 28 57  1  0
 28 58  1  0
M  CHG  1  28   1
M  END
>  <filename_input>  (26) 
7TUO_KL9_docked.sdf

>  <pdb_id>  (26) 
7TUO_KL9

>  <pose_rank>  (26) 
25

>  <num_atoms_heavy>  (26) 
30

>  <num_torsions>  (26) 
5

>  <pose>  (26) 
[-0.411, 23.362, -11.468, 1e-06, 1e-06, 1e-06, 0.0, 0.0, 0.0, 0.0, 0.0]

>  <energy>  (26) 
-847.3631228901567

>  <inter_energy>  (26) 
-859.2273033484854

>  <intra_energy>  (26) 
15.065170380503918

>  <rmsd>  (26) 
0.0

>  <sdf_rank>  (26) 
0

$$$$
