
     RDKit          3D

 30 30  0  0  0  0  0  0  0  0999 V2000
   28.1656   46.2287   90.5497 O   0  0  0  0  0  0  0  0  0  0  0  0
   29.2605   45.7873   90.9540 C   0  0  0  0  0  0  0  0  0  0  0  0
   29.3928   45.4702   92.1751 O   0  0  0  0  0  0  0  0  0  0  0  0
   30.4020   45.7105   89.9189 C   0  0  1  0  0  0  0  0  0  0  0  0
   31.3050   46.8668   90.0305 N   0  0  1  0  0  0  0  0  0  0  0  0
   31.7626   47.1604   91.3753 C   0  0  0  0  0  0  0  0  0  0  0  0
   32.4975   46.6607   89.2083 C   0  0  0  0  0  0  0  0  0  0  0  0
   30.6243   48.0666   89.5084 C   0  0  0  0  0  0  0  0  0  0  0  0
   31.1163   44.3493   90.0769 C   0  0  0  0  0  0  0  0  0  0  0  0
   30.2413   43.0689   90.0686 C   0  0  0  0  0  0  0  0  0  0  0  0
   30.5658   41.9104   90.6576 N   0  0  0  0  0  0  0  0  0  0  0  0
   29.5956   41.0080   90.4457 C   0  0  0  0  0  0  0  0  0  0  0  0
   29.5422   39.4605   90.9545 S   0  0  0  0  0  0  0  0  0  0  0  0
   28.6485   41.6018   89.7122 N   0  0  0  0  0  0  0  0  0  0  0  0
   29.0062   42.8495   89.4608 C   0  0  0  0  0  0  0  0  0  0  0  0
   29.9975   45.7649   88.8974 H   0  0  0  0  0  0  0  0  0  0  0  0
   31.0691   46.7154   92.1040 H   0  0  0  0  0  0  0  0  0  0  0  0
   32.7679   46.7384   91.5208 H   0  0  0  0  0  0  0  0  0  0  0  0
   31.7978   48.2502   91.5208 H   0  0  0  0  0  0  0  0  0  0  0  0
   33.3707   46.5098   89.8600 H   0  0  0  0  0  0  0  0  0  0  0  0
   32.3562   45.7736   88.5733 H   0  0  0  0  0  0  0  0  0  0  0  0
   32.6621   47.5437   88.5733 H   0  0  0  0  0  0  0  0  0  0  0  0
   30.2740   48.6842   90.3486 H   0  0  0  0  0  0  0  0  0  0  0  0
   31.3269   48.6484   88.8937 H   0  0  0  0  0  0  0  0  0  0  0  0
   29.7645   47.7621   88.8937 H   0  0  0  0  0  0  0  0  0  0  0  0
   31.8375   44.2594   89.2511 H   0  0  0  0  0  0  0  0  0  0  0  0
   31.5525   44.3806   91.0862 H   0  0  0  0  0  0  0  0  0  0  0  0
   31.4292   41.7383   91.1922 H   0  0  0  0  0  0  0  0  0  0  0  0
   27.7763   41.1566   89.3929 H   0  0  0  0  0  0  0  0  0  0  0  0
   28.4318   43.5833   88.8763 H   0  0  0  0  0  0  0  0  0  0  0  0
  1  2  1  0
  2  3  2  0
  2  4  1  0
  4  5  1  0
  4  9  1  0
  5  6  1  1
  5  7  1  0
  5  8  1  0
  9 10  1  0
 10 11  1  0
 10 15  2  0
 11 12  1  0
 12 13  2  0
 12 14  1  0
 14 15  1  0
  4 16  1  6
  6 17  1  0
  6 18  1  0
  6 19  1  0
  7 20  1  0
  7 21  1  0
  7 22  1  0
  8 23  1  0
  8 24  1  0
  8 25  1  0
  9 26  1  0
  9 27  1  0
 11 28  1  0
 14 29  1  0
 15 30  1  0
M  CHG  2   1  -1   5   1
M  END
>  <filename_input>  (1) 
7TXK_LW8_docked.sdf

>  <pdb_id>  (1) 
7TXK_LW8

>  <pose_rank>  (1) 
0

>  <num_atoms_heavy>  (1) 
15

>  <num_torsions>  (1) 
4

>  <pose>  (1) 
[30.4019589346185, 45.71049083756744, 89.91891077333888, -1.5689103334624135, -5.636341721485853, 0.6863323152710491, -0.29824823053982746, -3.185302724144444, -6.298641051923937, 0.03896967892610998]

>  <energy>  (1) 
-694.5668172965837

>  <inter_energy>  (1) 
-700.0806693757012

>  <intra_energy>  (1) 
23.942609359316833

>  <rmsd>  (1) 
0.512536

>  <sdf_rank>  (1) 
0

$$$$

     RDKit          3D

 30 30  0  0  0  0  0  0  0  0999 V2000
   31.2433   46.2591   92.6665 O   0  0  0  0  0  0  0  0  0  0  0  0
   31.6042   45.8947   91.5290 C   0  0  0  0  0  0  0  0  0  0  0  0
   32.8332   45.6747   91.3050 O   0  0  0  0  0  0  0  0  0  0  0  0
   30.5035   45.7889   90.4531 C   0  0  1  0  0  0  0  0  0  0  0  0
   30.3622   47.0484   89.7057 N   0  0  1  0  0  0  0  0  0  0  0  0
   29.1681   47.1462   88.8881 C   0  0  0  0  0  0  0  0  0  0  0  0
   30.3447   48.1855   90.6262 C   0  0  0  0  0  0  0  0  0  0  0  0
   31.5327   47.2249   88.8259 C   0  0  0  0  0  0  0  0  0  0  0  0
   30.8097   44.5679   89.5567 C   0  0  0  0  0  0  0  0  0  0  0  0
   30.0640   43.2426   89.8616 C   0  0  0  0  0  0  0  0  0  0  0  0
   30.5555   42.2325   90.5912 N   0  0  0  0  0  0  0  0  0  0  0  0
   29.6589   41.2358   90.6455 C   0  0  0  0  0  0  0  0  0  0  0  0
   29.8050   39.8009   91.4047 S   0  0  0  0  0  0  0  0  0  0  0  0
   28.5898   41.6188   89.9401 N   0  0  0  0  0  0  0  0  0  0  0  0
   28.7998   42.8273   89.4466 C   0  0  0  0  0  0  0  0  0  0  0  0
   29.5222   45.6271   90.9231 H   0  0  0  0  0  0  0  0  0  0  0  0
   28.2836   47.2186   89.5381 H   0  0  0  0  0  0  0  0  0  0  0  0
   29.2308   48.0422   88.2531 H   0  0  0  0  0  0  0  0  0  0  0  0
   29.0842   46.2519   88.2531 H   0  0  0  0  0  0  0  0  0  0  0  0
   30.3503   47.8181   91.6630 H   0  0  0  0  0  0  0  0  0  0  0  0
   31.2333   48.8105   90.4538 H   0  0  0  0  0  0  0  0  0  0  0  0
   29.4372   48.7829   90.4538 H   0  0  0  0  0  0  0  0  0  0  0  0
   32.4355   47.3610   89.4395 H   0  0  0  0  0  0  0  0  0  0  0  0
   31.6518   46.3345   88.1910 H   0  0  0  0  0  0  0  0  0  0  0  0
   31.3840   48.1108   88.1910 H   0  0  0  0  0  0  0  0  0  0  0  0
   30.5661   44.8510   88.5221 H   0  0  0  0  0  0  0  0  0  0  0  0
   31.8686   44.3410   89.7496 H   0  0  0  0  0  0  0  0  0  0  0  0
   31.4815   42.2224   91.0422 H   0  0  0  0  0  0  0  0  0  0  0  0
   27.7357   41.0597   89.8025 H   0  0  0  0  0  0  0  0  0  0  0  0
   28.1016   43.4023   88.8206 H   0  0  0  0  0  0  0  0  0  0  0  0
  1  2  1  0
  2  3  2  0
  2  4  1  0
  4  5  1  0
  4  9  1  0
  5  6  1  6
  5  7  1  0
  5  8  1  0
  9 10  1  0
 10 11  1  0
 10 15  2  0
 11 12  1  0
 12 13  2  0
 12 14  1  0
 14 15  1  0
  4 16  1  1
  6 17  1  0
  6 18  1  0
  6 19  1  0
  7 20  1  0
  7 21  1  0
  7 22  1  0
  8 23  1  0
  8 24  1  0
  8 25  1  0
  9 26  1  0
  9 27  1  0
 11 28  1  0
 14 29  1  0
 15 30  1  0
M  CHG  2   1  -1   5   1
M  END
>  <filename_input>  (2) 
7TXK_LW8_docked.sdf

>  <pdb_id>  (2) 
7TXK_LW8

>  <pose_rank>  (2) 
1

>  <num_atoms_heavy>  (2) 
15

>  <num_torsions>  (2) 
4

>  <pose>  (2) 
[30.503458481996358, 45.78889758175363, 90.4530744997226, -0.026902973304909417, 2.017847466869656, 0.10486108862726934, 2.2161673878069843, 15.543776418556593, 38.49239693454516, -17.810341041336788]

>  <energy>  (2) 
-619.7331555801178

>  <inter_energy>  (2) 
-620.2884526442842

>  <intra_energy>  (2) 
17.61160159457899

>  <rmsd>  (2) 
1.94051

>  <sdf_rank>  (2) 
0

$$$$

     RDKit          3D

 30 30  0  0  0  0  0  0  0  0999 V2000
   31.0915   41.6322   92.6306 O   0  0  0  0  0  0  0  0  0  0  0  0
   30.5449   42.4330   91.8451 C   0  0  0  0  0  0  0  0  0  0  0  0
   30.1883   43.5750   92.2664 O   0  0  0  0  0  0  0  0  0  0  0  0
   30.2987   41.9338   90.4062 C   0  0  1  0  0  0  0  0  0  0  0  0
   29.7163   40.5827   90.4002 N   0  0  1  0  0  0  0  0  0  0  0  0
   29.8309   39.8706   89.1418 C   0  0  0  0  0  0  0  0  0  0  0  0
   30.3529   39.7510   91.4219 C   0  0  0  0  0  0  0  0  0  0  0  0
   28.2851   40.6693   90.7462 C   0  0  0  0  0  0  0  0  0  0  0  0
   29.4393   42.9819   89.6639 C   0  0  0  0  0  0  0  0  0  0  0  0
   29.9933   44.4266   89.5583 C   0  0  0  0  0  0  0  0  0  0  0  0
   31.2876   44.7628   89.6352 N   0  0  0  0  0  0  0  0  0  0  0  0
   31.4169   46.0933   89.5193 C   0  0  0  0  0  0  0  0  0  0  0  0
   32.7898   46.9709   89.5604 S   0  0  0  0  0  0  0  0  0  0  0  0
   30.1905   46.6043   89.3701 N   0  0  0  0  0  0  0  0  0  0  0  0
   29.3019   45.6256   89.3928 C   0  0  0  0  0  0  0  0  0  0  0  0
   31.2521   41.8334   89.8668 H   0  0  0  0  0  0  0  0  0  0  0  0
   30.0028   38.8022   89.3394 H   0  0  0  0  0  0  0  0  0  0  0  0
   28.9016   39.9920   88.5658 H   0  0  0  0  0  0  0  0  0  0  0  0
   30.6751   40.2774   88.5658 H   0  0  0  0  0  0  0  0  0  0  0  0
   30.0722   40.1177   92.4203 H   0  0  0  0  0  0  0  0  0  0  0  0
   30.0194   38.7092   91.3067 H   0  0  0  0  0  0  0  0  0  0  0  0
   31.4457   39.8011   91.3067 H   0  0  0  0  0  0  0  0  0  0  0  0
   28.1722   40.6761   91.8404 H   0  0  0  0  0  0  0  0  0  0  0  0
   27.8621   41.5947   90.3282 H   0  0  0  0  0  0  0  0  0  0  0  0
   27.7536   39.8017   90.3282 H   0  0  0  0  0  0  0  0  0  0  0  0
   29.2853   42.6137   88.6389 H   0  0  0  0  0  0  0  0  0  0  0  0
   28.5298   43.0778   90.2751 H   0  0  0  0  0  0  0  0  0  0  0  0
   32.0658   44.1004   89.7638 H   0  0  0  0  0  0  0  0  0  0  0  0
   29.9721   47.6043   89.2555 H   0  0  0  0  0  0  0  0  0  0  0  0
   28.2117   45.7375   89.2980 H   0  0  0  0  0  0  0  0  0  0  0  0
  1  2  1  0
  2  3  2  0
  2  4  1  0
  4  5  1  0
  4  9  1  0
  5  6  1  6
  5  7  1  0
  5  8  1  0
  9 10  1  0
 10 11  1  0
 10 15  2  0
 11 12  1  0
 12 13  2  0
 12 14  1  0
 14 15  1  0
  4 16  1  6
  6 17  1  0
  6 18  1  0
  6 19  1  0
  7 20  1  0
  7 21  1  0
  7 22  1  0
  8 23  1  0
  8 24  1  0
  8 25  1  0
  9 26  1  0
  9 27  1  0
 11 28  1  0
 14 29  1  0
 15 30  1  0
M  CHG  2   1  -1   5   1
M  END
>  <filename_input>  (3) 
7TXK_LW8_docked.sdf

>  <pdb_id>  (3) 
7TXK_LW8

>  <pose_rank>  (3) 
2

>  <num_atoms_heavy>  (3) 
15

>  <num_torsions>  (3) 
4

>  <pose>  (3) 
[30.298697327521595, 41.93381552239616, 90.40615377869179, 1.436534194882749, -0.456416075897258, -2.4818548571854517, 2.3054331670551376, -4.098162830259625, 0.09805277199846854, -3.14155047176073]

>  <energy>  (3) 
-453.7570084890989

>  <inter_energy>  (3) 
-536.9413890420176

>  <intra_energy>  (3) 
73.76408435380561

>  <rmsd>  (3) 
5.3698

>  <sdf_rank>  (3) 
0

$$$$

     RDKit          3D

 30 30  0  0  0  0  0  0  0  0999 V2000
   27.7255   43.4174   89.5369 O   0  0  0  0  0  0  0  0  0  0  0  0
   28.7833   42.7599   89.4607 C   0  0  0  0  0  0  0  0  0  0  0  0
   29.3130   42.5598   88.3256 O   0  0  0  0  0  0  0  0  0  0  0  0
   29.3424   42.1903   90.7810 C   0  0  1  0  0  0  0  0  0  0  0  0
   29.6550   40.7579   90.6567 N   0  0  1  0  0  0  0  0  0  0  0  0
   28.8185   39.8763   91.4485 C   0  0  0  0  0  0  0  0  0  0  0  0
   29.5288   40.3300   89.2632 C   0  0  0  0  0  0  0  0  0  0  0  0
   31.0580   40.5311   91.0512 C   0  0  0  0  0  0  0  0  0  0  0  0
   30.5494   43.0522   91.2147 C   0  0  0  0  0  0  0  0  0  0  0  0
   30.5759   44.5365   90.7657 C   0  0  0  0  0  0  0  0  0  0  0  0
   31.0477   44.9781   89.5924 N   0  0  0  0  0  0  0  0  0  0  0  0
   30.9336   46.3137   89.5329 C   0  0  0  0  0  0  0  0  0  0  0  0
   31.3781   47.3009   88.3145 S   0  0  0  0  0  0  0  0  0  0  0  0
   30.3861   46.7213   90.6824 N   0  0  0  0  0  0  0  0  0  0  0  0
   30.1591   45.6735   91.4560 C   0  0  0  0  0  0  0  0  0  0  0  0
   28.5829   42.2463   91.5748 H   0  0  0  0  0  0  0  0  0  0  0  0
   28.9967   40.0641   92.5176 H   0  0  0  0  0  0  0  0  0  0  0  0
   27.7607   40.0662   91.2141 H   0  0  0  0  0  0  0  0  0  0  0  0
   29.0639   38.8299   91.2141 H   0  0  0  0  0  0  0  0  0  0  0  0
   29.2179   39.2754   89.2302 H   0  0  0  0  0  0  0  0  0  0  0  0
   28.7754   40.9505   88.7559 H   0  0  0  0  0  0  0  0  0  0  0  0
   30.4983   40.4425   88.7559 H   0  0  0  0  0  0  0  0  0  0  0  0
   31.1329   40.5190   92.1485 H   0  0  0  0  0  0  0  0  0  0  0  0
   31.4003   39.5660   90.6496 H   0  0  0  0  0  0  0  0  0  0  0  0
   31.6870   41.3392   90.6496 H   0  0  0  0  0  0  0  0  0  0  0  0
   30.5824   43.0413   92.3141 H   0  0  0  0  0  0  0  0  0  0  0  0
   31.4127   42.5944   90.7097 H   0  0  0  0  0  0  0  0  0  0  0  0
   31.4388   44.3825   88.8485 H   0  0  0  0  0  0  0  0  0  0  0  0
   30.1743   47.6991   90.9271 H   0  0  0  0  0  0  0  0  0  0  0  0
   29.7198   45.6951   92.4643 H   0  0  0  0  0  0  0  0  0  0  0  0
  1  2  1  0
  2  3  2  0
  2  4  1  0
  4  5  1  0
  4  9  1  0
  5  6  1  1
  5  7  1  0
  5  8  1  0
  9 10  1  0
 10 11  1  0
 10 15  2  0
 11 12  1  0
 12 13  2  0
 12 14  1  0
 14 15  1  0
  4 16  1  1
  6 17  1  0
  6 18  1  0
  6 19  1  0
  7 20  1  0
  7 21  1  0
  7 22  1  0
  8 23  1  0
  8 24  1  0
  8 25  1  0
  9 26  1  0
  9 27  1  0
 11 28  1  0
 14 29  1  0
 15 30  1  0
M  CHG  2   1  -1   5   1
M  END
>  <filename_input>  (4) 
7TXK_LW8_docked.sdf

>  <pdb_id>  (4) 
7TXK_LW8

>  <pose_rank>  (4) 
3

>  <num_atoms_heavy>  (4) 
15

>  <num_torsions>  (4) 
4

>  <pose>  (4) 
[29.34235149992616, 42.19030882554877, 90.78103555098488, 2.9972959369245578, -0.7181750574230654, 1.2485010254938032, -3.1257368991645387, -2.6339206949571055, -0.4329282966482504, -5.051082690575382]

>  <energy>  (4) 
-414.47521673030786

>  <inter_energy>  (4) 
-455.94740636158923

>  <intra_energy>  (4) 
55.74262336534266

>  <rmsd>  (4) 
5.2622

>  <sdf_rank>  (4) 
0

$$$$

     RDKit          3D

 30 30  0  0  0  0  0  0  0  0999 V2000
   28.4795   44.6356   89.5687 O   0  0  0  0  0  0  0  0  0  0  0  0
   29.1920   45.5423   90.0455 C   0  0  0  0  0  0  0  0  0  0  0  0
   28.6621   46.4317   90.7784 O   0  0  0  0  0  0  0  0  0  0  0  0
   30.6837   45.5313   89.6519 C   0  0  1  0  0  0  0  0  0  0  0  0
   31.3405   46.7993   90.0064 N   0  0  1  0  0  0  0  0  0  0  0  0
   31.2252   47.1813   91.4009 C   0  0  0  0  0  0  0  0  0  0  0  0
   32.7691   46.7347   89.6973 C   0  0  0  0  0  0  0  0  0  0  0  0
   30.7718   47.8863   89.1875 C   0  0  0  0  0  0  0  0  0  0  0  0
   31.3494   44.2901   90.2876 C   0  0  0  0  0  0  0  0  0  0  0  0
   31.2109   44.1015   91.8208 C   0  0  0  0  0  0  0  0  0  0  0  0
   30.0510   44.0494   92.4887 N   0  0  0  0  0  0  0  0  0  0  0  0
   30.2906   43.8928   93.7996 C   0  0  0  0  0  0  0  0  0  0  0  0
   29.2024   43.7860   95.0083 S   0  0  0  0  0  0  0  0  0  0  0  0
   31.6169   43.8482   93.9626 N   0  0  0  0  0  0  0  0  0  0  0  0
   32.2078   43.9754   92.7868 C   0  0  0  0  0  0  0  0  0  0  0  0
   30.7915   45.4523   88.5600 H   0  0  0  0  0  0  0  0  0  0  0  0
   31.4842   46.3233   92.0387 H   0  0  0  0  0  0  0  0  0  0  0  0
   31.9117   48.0147   91.6108 H   0  0  0  0  0  0  0  0  0  0  0  0
   30.1921   47.4955   91.6108 H   0  0  0  0  0  0  0  0  0  0  0  0
   33.3460   46.7086   90.6335 H   0  0  0  0  0  0  0  0  0  0  0  0
   32.9771   45.8262   89.1130 H   0  0  0  0  0  0  0  0  0  0  0  0
   33.0583   47.6207   89.1130 H   0  0  0  0  0  0  0  0  0  0  0  0
   30.3635   48.6667   89.8465 H   0  0  0  0  0  0  0  0  0  0  0  0
   31.5596   48.3178   88.5527 H   0  0  0  0  0  0  0  0  0  0  0  0
   29.9680   47.4851   88.5527 H   0  0  0  0  0  0  0  0  0  0  0  0
   30.9139   43.4017   89.8070 H   0  0  0  0  0  0  0  0  0  0  0  0
   32.4269   44.4384   90.1228 H   0  0  0  0  0  0  0  0  0  0  0  0
   29.1166   44.1190   92.0609 H   0  0  0  0  0  0  0  0  0  0  0  0
   32.1024   43.7327   94.8636 H   0  0  0  0  0  0  0  0  0  0  0  0
   33.2925   43.9808   92.6035 H   0  0  0  0  0  0  0  0  0  0  0  0
  1  2  1  0
  2  3  2  0
  2  4  1  0
  4  5  1  0
  4  9  1  0
  5  6  1  1
  5  7  1  0
  5  8  1  0
  9 10  1  0
 10 11  1  0
 10 15  2  0
 11 12  1  0
 12 13  2  0
 12 14  1  0
 14 15  1  0
  4 16  1  6
  6 17  1  0
  6 18  1  0
  6 19  1  0
  7 20  1  0
  7 21  1  0
  7 22  1  0
  8 23  1  0
  8 24  1  0
  8 25  1  0
  9 26  1  0
  9 27  1  0
 11 28  1  0
 14 29  1  0
 15 30  1  0
M  CHG  2   1  -1   5   1
M  END
>  <filename_input>  (5) 
7TXK_LW8_docked.sdf

>  <pdb_id>  (5) 
7TXK_LW8

>  <pose_rank>  (5) 
4

>  <num_atoms_heavy>  (5) 
15

>  <num_torsions>  (5) 
4

>  <pose>  (5) 
[30.683679999185973, 45.53134095719057, 89.65189220535606, -0.768230959302853, -5.2426937147056005, 3.58790823052731, -0.18640685258027012, -1.9941113806467816, 4.412413155514457, -2.578176322545397]

>  <energy>  (5) 
-451.7261081621692

>  <inter_energy>  (5) 
-516.1964756038118

>  <intra_energy>  (5) 
66.36695913827201

>  <rmsd>  (5) 
2.95922

>  <sdf_rank>  (5) 
0

$$$$

     RDKit          3D

 30 30  0  0  0  0  0  0  0  0999 V2000
   30.1576   40.0350   87.2179 O   0  0  0  0  0  0  0  0  0  0  0  0
   30.1223   39.9175   88.4597 C   0  0  0  0  0  0  0  0  0  0  0  0
   30.5442   38.8490   88.9974 O   0  0  0  0  0  0  0  0  0  0  0  0
   29.5071   41.0911   89.2500 C   0  0  1  0  0  0  0  0  0  0  0  0
   29.1905   40.6985   90.6322 N   0  0  1  0  0  0  0  0  0  0  0  0
   30.1599   41.1175   91.6264 C   0  0  0  0  0  0  0  0  0  0  0  0
   27.8980   41.2539   91.0342 C   0  0  0  0  0  0  0  0  0  0  0  0
   29.0692   39.2303   90.7042 C   0  0  0  0  0  0  0  0  0  0  0  0
   30.4627   42.3017   89.1535 C   0  0  0  0  0  0  0  0  0  0  0  0
   29.8941   43.7009   89.5058 C   0  0  0  0  0  0  0  0  0  0  0  0
   30.6224   44.7467   89.9183 N   0  0  0  0  0  0  0  0  0  0  0  0
   29.8178   45.7954   90.1486 C   0  0  0  0  0  0  0  0  0  0  0  0
   30.2379   47.2812   90.6709 S   0  0  0  0  0  0  0  0  0  0  0  0
   28.5665   45.4076   89.8814 N   0  0  0  0  0  0  0  0  0  0  0  0
   28.5725   44.1437   89.4932 C   0  0  0  0  0  0  0  0  0  0  0  0
   28.5421   41.3848   88.8111 H   0  0  0  0  0  0  0  0  0  0  0  0
   29.7524   40.9414   92.6329 H   0  0  0  0  0  0  0  0  0  0  0  0
   31.0876   40.5400   91.5002 H   0  0  0  0  0  0  0  0  0  0  0  0
   30.3749   42.1889   91.5002 H   0  0  0  0  0  0  0  0  0  0  0  0
   27.8359   41.2806   92.1321 H   0  0  0  0  0  0  0  0  0  0  0  0
   27.7978   42.2745   90.6363 H   0  0  0  0  0  0  0  0  0  0  0  0
   27.0886   40.6242   90.6363 H   0  0  0  0  0  0  0  0  0  0  0  0
   29.0432   38.9158   91.7580 H   0  0  0  0  0  0  0  0  0  0  0  0
   28.1418   38.9140   90.2042 H   0  0  0  0  0  0  0  0  0  0  0  0
   29.9320   38.7661   90.2042 H   0  0  0  0  0  0  0  0  0  0  0  0
   31.3058   42.1093   89.8333 H   0  0  0  0  0  0  0  0  0  0  0  0
   30.7197   42.3676   88.0859 H   0  0  0  0  0  0  0  0  0  0  0  0
   31.6452   44.7460   90.0402 H   0  0  0  0  0  0  0  0  0  0  0  0
   27.7287   46.0007   89.9650 H   0  0  0  0  0  0  0  0  0  0  0  0
   27.6919   43.5482   89.2106 H   0  0  0  0  0  0  0  0  0  0  0  0
  1  2  1  0
  2  3  2  0
  2  4  1  0
  4  5  1  0
  4  9  1  0
  5  6  1  1
  5  7  1  0
  5  8  1  0
  9 10  1  0
 10 11  1  0
 10 15  2  0
 11 12  1  0
 12 13  2  0
 12 14  1  0
 14 15  1  0
  4 16  1  6
  6 17  1  0
  6 18  1  0
  6 19  1  0
  7 20  1  0
  7 21  1  0
  7 22  1  0
  8 23  1  0
  8 24  1  0
  8 25  1  0
  9 26  1  0
  9 27  1  0
 11 28  1  0
 14 29  1  0
 15 30  1  0
M  CHG  2   1  -1   5   1
M  END
>  <filename_input>  (6) 
7TXK_LW8_docked.sdf

>  <pdb_id>  (6) 
7TXK_LW8

>  <pose_rank>  (6) 
5

>  <num_atoms_heavy>  (6) 
15

>  <num_torsions>  (6) 
4

>  <pose>  (6) 
[29.507085002099036, 41.09107611338523, 89.24995557939697, -2.3109399990793387, -0.5160751772481889, -3.0971437929776817, 0.5948921619437265, -2.0283721783346733, -4.361158523855713, -0.8352819067772549]

>  <energy>  (6) 
-383.3199210550016

>  <inter_energy>  (6) 
-449.54839438659997

>  <intra_energy>  (6) 
66.79564753054275

>  <rmsd>  (6) 
5.64413

>  <sdf_rank>  (6) 
0

$$$$

     RDKit          3D

 30 30  0  0  0  0  0  0  0  0999 V2000
   29.0722   41.4540   89.9373 O   0  0  0  0  0  0  0  0  0  0  0  0
   29.7701   42.4038   90.3472 C   0  0  0  0  0  0  0  0  0  0  0  0
   30.8173   42.7292   89.7096 O   0  0  0  0  0  0  0  0  0  0  0  0
   29.3149   43.0851   91.6545 C   0  0  1  0  0  0  0  0  0  0  0  0
   30.3153   42.9204   92.7208 N   0  0  1  0  0  0  0  0  0  0  0  0
   31.5531   43.6491   92.5187 C   0  0  0  0  0  0  0  0  0  0  0  0
   29.7658   43.3581   94.0042 C   0  0  0  0  0  0  0  0  0  0  0  0
   30.6460   41.4898   92.8596 C   0  0  0  0  0  0  0  0  0  0  0  0
   28.9757   44.5608   91.3460 C   0  0  0  0  0  0  0  0  0  0  0  0
   29.8635   45.3060   90.3156 C   0  0  0  0  0  0  0  0  0  0  0  0
   31.0250   45.9119   90.5951 N   0  0  0  0  0  0  0  0  0  0  0  0
   31.5240   46.4690   89.4811 C   0  0  0  0  0  0  0  0  0  0  0  0
   32.9057   47.3188   89.3218 S   0  0  0  0  0  0  0  0  0  0  0  0
   30.6671   46.2150   88.4868 N   0  0  0  0  0  0  0  0  0  0  0  0
   29.6470   45.5162   88.9547 C   0  0  0  0  0  0  0  0  0  0  0  0
   28.4059   42.6020   92.0422 H   0  0  0  0  0  0  0  0  0  0  0  0
   31.9905   43.9066   93.4946 H   0  0  0  0  0  0  0  0  0  0  0  0
   32.2594   43.0227   91.9542 H   0  0  0  0  0  0  0  0  0  0  0  0
   31.3481   44.5707   91.9542 H   0  0  0  0  0  0  0  0  0  0  0  0
   30.3397   42.9010   94.8238 H   0  0  0  0  0  0  0  0  0  0  0  0
   29.8319   44.4537   94.0769 H   0  0  0  0  0  0  0  0  0  0  0  0
   28.7128   43.0487   94.0769 H   0  0  0  0  0  0  0  0  0  0  0  0
   30.7063   41.2292   93.9266 H   0  0  0  0  0  0  0  0  0  0  0  0
   29.8642   40.8842   92.3779 H   0  0  0  0  0  0  0  0  0  0  0  0
   31.6143   41.2888   92.3779 H   0  0  0  0  0  0  0  0  0  0  0  0
   27.9425   44.5883   90.9697 H   0  0  0  0  0  0  0  0  0  0  0  0
   29.1491   45.0894   92.2950 H   0  0  0  0  0  0  0  0  0  0  0  0
   31.4680   45.9450   91.5244 H   0  0  0  0  0  0  0  0  0  0  0  0
   30.7835   46.5166   87.5089 H   0  0  0  0  0  0  0  0  0  0  0  0
   28.7819   45.1636   88.3739 H   0  0  0  0  0  0  0  0  0  0  0  0
  1  2  1  0
  2  3  2  0
  2  4  1  0
  4  5  1  0
  4  9  1  0
  5  6  1  6
  5  7  1  0
  5  8  1  0
  9 10  1  0
 10 11  1  0
 10 15  2  0
 11 12  1  0
 12 13  2  0
 12 14  1  0
 14 15  1  0
  4 16  1  1
  6 17  1  0
  6 18  1  0
  6 19  1  0
  7 20  1  0
  7 21  1  0
  7 22  1  0
  8 23  1  0
  8 24  1  0
  8 25  1  0
  9 26  1  0
  9 27  1  0
 11 28  1  0
 14 29  1  0
 15 30  1  0
M  CHG  2   1  -1   5   1
M  END
>  <filename_input>  (7) 
7TXK_LW8_docked.sdf

>  <pdb_id>  (7) 
7TXK_LW8

>  <pose_rank>  (7) 
6

>  <num_atoms_heavy>  (7) 
15

>  <num_torsions>  (7) 
4

>  <pose>  (7) 
[29.314890013792358, 43.08506684628856, 91.65448497995914, -2.238013735102442, -1.3357485866608587, -1.7416321762321967, 6.333016232662181, 3.4115533698053477, -20.41762006287031, 1.2504972987588254]

>  <energy>  (7) 
-423.52855986092084

>  <inter_energy>  (7) 
-483.42482286456436

>  <intra_energy>  (7) 
67.73214802897925

>  <rmsd>  (7) 
4.84154

>  <sdf_rank>  (7) 
0

$$$$

     RDKit          3D

 30 30  0  0  0  0  0  0  0  0999 V2000
   29.6079   44.2546   94.1182 O   0  0  0  0  0  0  0  0  0  0  0  0
   29.6204   44.7140   92.9581 C   0  0  0  0  0  0  0  0  0  0  0  0
   28.6301   45.3899   92.5441 O   0  0  0  0  0  0  0  0  0  0  0  0
   30.8476   44.3692   92.0890 C   0  0  1  0  0  0  0  0  0  0  0  0
   31.8915   45.3998   92.2034 N   0  0  1  0  0  0  0  0  0  0  0  0
   31.4042   46.7400   92.4691 C   0  0  0  0  0  0  0  0  0  0  0  0
   32.8226   45.0619   93.2802 C   0  0  0  0  0  0  0  0  0  0  0  0
   32.6744   45.4388   90.9540 C   0  0  0  0  0  0  0  0  0  0  0  0
   31.3331   42.9515   92.4664 C   0  0  0  0  0  0  0  0  0  0  0  0
   30.7359   41.7517   91.6861 C   0  0  0  0  0  0  0  0  0  0  0  0
   30.2354   41.8123   90.4451 N   0  0  0  0  0  0  0  0  0  0  0  0
   29.7906   40.6010   90.0772 C   0  0  0  0  0  0  0  0  0  0  0  0
   29.0929   40.1793   88.6658 S   0  0  0  0  0  0  0  0  0  0  0  0
   30.0097   39.7659   91.0980 N   0  0  0  0  0  0  0  0  0  0  0  0
   30.5773   40.4276   92.0920 C   0  0  0  0  0  0  0  0  0  0  0  0
   30.5731   44.3615   91.0238 H   0  0  0  0  0  0  0  0  0  0  0  0
   31.3460   46.9002   93.5558 H   0  0  0  0  0  0  0  0  0  0  0  0
   32.0927   47.4749   92.0264 H   0  0  0  0  0  0  0  0  0  0  0  0
   30.4045   46.8611   92.0264 H   0  0  0  0  0  0  0  0  0  0  0  0
   32.3384   45.2376   94.2522 H   0  0  0  0  0  0  0  0  0  0  0  0
   33.1082   44.0027   93.1990 H   0  0  0  0  0  0  0  0  0  0  0  0
   33.7211   45.6912   93.1990 H   0  0  0  0  0  0  0  0  0  0  0  0
   33.7464   45.4922   91.1945 H   0  0  0  0  0  0  0  0  0  0  0  0
   32.4749   44.5296   90.3678 H   0  0  0  0  0  0  0  0  0  0  0  0
   32.3856   46.3237   90.3678 H   0  0  0  0  0  0  0  0  0  0  0  0
   32.4231   42.9282   92.3204 H   0  0  0  0  0  0  0  0  0  0  0  0
   30.9900   42.8074   93.5016 H   0  0  0  0  0  0  0  0  0  0  0  0
   30.1977   42.6602   89.8616 H   0  0  0  0  0  0  0  0  0  0  0  0
   29.7733   38.7635   91.1084 H   0  0  0  0  0  0  0  0  0  0  0  0
   30.8717   40.0083   93.0653 H   0  0  0  0  0  0  0  0  0  0  0  0
  1  2  1  0
  2  3  2  0
  2  4  1  0
  4  5  1  0
  4  9  1  0
  5  6  1  1
  5  7  1  0
  5  8  1  0
  9 10  1  0
 10 11  1  0
 10 15  2  0
 11 12  1  0
 12 13  2  0
 12 14  1  0
 14 15  1  0
  4 16  1  6
  6 17  1  0
  6 18  1  0
  6 19  1  0
  7 20  1  0
  7 21  1  0
  7 22  1  0
  8 23  1  0
  8 24  1  0
  8 25  1  0
  9 26  1  0
  9 27  1  0
 11 28  1  0
 14 29  1  0
 15 30  1  0
M  CHG  2   1  -1   5   1
M  END
>  <filename_input>  (8) 
7TXK_LW8_docked.sdf

>  <pdb_id>  (8) 
7TXK_LW8

>  <pose_rank>  (8) 
7

>  <num_atoms_heavy>  (8) 
15

>  <num_torsions>  (8) 
4

>  <pose>  (8) 
[30.847632800151768, 44.36923787748112, 92.08900342427324, -0.5569498616167863, -4.621271929428237, 3.7353703079036533, -1.6786433044457034, 6.057980552070834, 0.6563240252550269, 3.1733039459685273]

>  <energy>  (8) 
-402.06863081503457

>  <inter_energy>  (8) 
-409.21047765622006

>  <intra_energy>  (8) 
9.325115888082957

>  <rmsd>  (8) 
2.54878

>  <sdf_rank>  (8) 
0

$$$$

     RDKit          3D

 30 30  0  0  0  0  0  0  0  0999 V2000
   27.9956   45.3200   89.9929 O   0  0  0  0  0  0  0  0  0  0  0  0
   28.7362   45.3708   90.9959 C   0  0  0  0  0  0  0  0  0  0  0  0
   28.2482   45.7153   92.1149 O   0  0  0  0  0  0  0  0  0  0  0  0
   30.2288   45.0509   90.7726 C   0  0  1  0  0  0  0  0  0  0  0  0
   31.0603   46.2580   90.8999 N   0  0  1  0  0  0  0  0  0  0  0  0
   31.7300   46.4100   92.1776 C   0  0  0  0  0  0  0  0  0  0  0  0
   32.0982   46.2705   89.8687 C   0  0  0  0  0  0  0  0  0  0  0  0
   30.2212   47.4510   90.6804 C   0  0  0  0  0  0  0  0  0  0  0  0
   30.6361   43.9138   91.7366 C   0  0  0  0  0  0  0  0  0  0  0  0
   30.5187   42.4549   91.2237 C   0  0  0  0  0  0  0  0  0  0  0  0
   29.8988   42.0823   90.0963 N   0  0  0  0  0  0  0  0  0  0  0  0
   29.9712   40.7495   89.9597 C   0  0  0  0  0  0  0  0  0  0  0  0
   29.3593   39.8337   88.7582 S   0  0  0  0  0  0  0  0  0  0  0  0
   30.6420   40.2738   91.0138 N   0  0  0  0  0  0  0  0  0  0  0  0
   30.9864   41.2767   91.8035 C   0  0  0  0  0  0  0  0  0  0  0  0
   30.3959   44.6994   89.7437 H   0  0  0  0  0  0  0  0  0  0  0  0
   31.0084   46.2463   92.9915 H   0  0  0  0  0  0  0  0  0  0  0  0
   32.5434   45.6735   92.2550 H   0  0  0  0  0  0  0  0  0  0  0  0
   32.1460   47.4253   92.2550 H   0  0  0  0  0  0  0  0  0  0  0  0
   33.0892   46.2825   90.3461 H   0  0  0  0  0  0  0  0  0  0  0  0
   32.0037   45.3712   89.2425 H   0  0  0  0  0  0  0  0  0  0  0  0
   31.9821   47.1673   89.2425 H   0  0  0  0  0  0  0  0  0  0  0  0
   29.9238   47.8738   91.6514 H   0  0  0  0  0  0  0  0  0  0  0  0
   30.7916   48.2012   90.1130 H   0  0  0  0  0  0  0  0  0  0  0  0
   29.3224   47.1677   90.1130 H   0  0  0  0  0  0  0  0  0  0  0  0
   31.6872   44.0803   92.0150 H   0  0  0  0  0  0  0  0  0  0  0  0
   29.9113   43.9769   92.5616 H   0  0  0  0  0  0  0  0  0  0  0  0
   29.4365   42.7220   89.4345 H   0  0  0  0  0  0  0  0  0  0  0  0
   30.8570   39.2810   91.1841 H   0  0  0  0  0  0  0  0  0  0  0  0
   31.5426   41.1958   92.7491 H   0  0  0  0  0  0  0  0  0  0  0  0
  1  2  1  0
  2  3  2  0
  2  4  1  0
  4  5  1  0
  4  9  1  0
  5  6  1  1
  5  7  1  0
  5  8  1  0
  9 10  1  0
 10 11  1  0
 10 15  2  0
 11 12  1  0
 12 13  2  0
 12 14  1  0
 14 15  1  0
  4 16  1  6
  6 17  1  0
  6 18  1  0
  6 19  1  0
  7 20  1  0
  7 21  1  0
  7 22  1  0
  8 23  1  0
  8 24  1  0
  8 25  1  0
  9 26  1  0
  9 27  1  0
 11 28  1  0
 14 29  1  0
 15 30  1  0
M  CHG  2   1  -1   5   1
M  END
>  <filename_input>  (9) 
7TXK_LW8_docked.sdf

>  <pdb_id>  (9) 
7TXK_LW8

>  <pose_rank>  (9) 
8

>  <num_atoms_heavy>  (9) 
15

>  <num_torsions>  (9) 
4

>  <pose>  (9) 
[30.228834121677867, 45.050851795846086, 90.77257692736391, -5.310615303607741, -3.5488593068807126, -1.6810429204949233, 6.869774787865814, 3.2879479751813063, -18.169680871207873, 2.532944233119104]

>  <energy>  (9) 
-528.9082521820236

>  <inter_energy>  (9) 
-540.1397819879356

>  <intra_energy>  (9) 
17.26668133055668

>  <rmsd>  (9) 
1.49499

>  <sdf_rank>  (9) 
0

$$$$

     RDKit          3D

 30 30  0  0  0  0  0  0  0  0999 V2000
   28.1299   46.0748   89.7012 O   0  0  0  0  0  0  0  0  0  0  0  0
   29.0526   45.7972   90.4941 C   0  0  0  0  0  0  0  0  0  0  0  0
   28.8104   45.7410   91.7379 O   0  0  0  0  0  0  0  0  0  0  0  0
   30.4538   45.5904   89.8824 C   0  0  1  0  0  0  0  0  0  0  0  0
   31.2862   46.7944   90.0312 N   0  0  1  0  0  0  0  0  0  0  0  0
   32.6551   46.6545   89.5725 C   0  0  0  0  0  0  0  0  0  0  0  0
   30.6992   47.9119   89.2915 C   0  0  0  0  0  0  0  0  0  0  0  0
   31.3197   47.1890   91.4520 C   0  0  0  0  0  0  0  0  0  0  0  0
   31.0797   44.3235   90.5079 C   0  0  0  0  0  0  0  0  0  0  0  0
   30.4531   42.9525   90.1432 C   0  0  0  0  0  0  0  0  0  0  0  0
   30.3511   41.9067   90.9740 N   0  0  0  0  0  0  0  0  0  0  0  0
   29.7733   40.8772   90.3363 C   0  0  0  0  0  0  0  0  0  0  0  0
   29.4458   39.3936   90.9263 S   0  0  0  0  0  0  0  0  0  0  0  0
   29.5096   41.2756   89.0876 N   0  0  0  0  0  0  0  0  0  0  0  0
   29.9108   42.5257   88.9320 C   0  0  0  0  0  0  0  0  0  0  0  0
   30.3784   45.4309   88.7966 H   0  0  0  0  0  0  0  0  0  0  0  0
   33.3275   46.5858   90.4404 H   0  0  0  0  0  0  0  0  0  0  0  0
   32.7468   45.7423   88.9646 H   0  0  0  0  0  0  0  0  0  0  0  0
   32.9293   47.5293   88.9646 H   0  0  0  0  0  0  0  0  0  0  0  0
   30.3083   48.6562   90.0009 H   0  0  0  0  0  0  0  0  0  0  0  0
   31.4692   48.3775   88.6587 H   0  0  0  0  0  0  0  0  0  0  0  0
   29.8789   47.5422   88.6587 H   0  0  0  0  0  0  0  0  0  0  0  0
   31.2437   46.2917   92.0837 H   0  0  0  0  0  0  0  0  0  0  0  0
   32.2650   47.7091   91.6660 H   0  0  0  0  0  0  0  0  0  0  0  0
   30.4752   47.8606   91.6660 H   0  0  0  0  0  0  0  0  0  0  0  0
   32.1357   44.2936   90.2015 H   0  0  0  0  0  0  0  0  0  0  0  0
   30.9021   44.4309   91.5881 H   0  0  0  0  0  0  0  0  0  0  0  0
   30.6681   41.8947   91.9539 H   0  0  0  0  0  0  0  0  0  0  0  0
   29.0635   40.6986   88.3603 H   0  0  0  0  0  0  0  0  0  0  0  0
   29.8310   43.1224   88.0114 H   0  0  0  0  0  0  0  0  0  0  0  0
  1  2  1  0
  2  3  2  0
  2  4  1  0
  4  5  1  0
  4  9  1  0
  5  6  1  6
  5  7  1  0
  5  8  1  0
  9 10  1  0
 10 11  1  0
 10 15  2  0
 11 12  1  0
 12 13  2  0
 12 14  1  0
 14 15  1  0
  4 16  1  6
  6 17  1  0
  6 18  1  0
  6 19  1  0
  7 20  1  0
  7 21  1  0
  7 22  1  0
  8 23  1  0
  8 24  1  0
  8 25  1  0
  9 26  1  0
  9 27  1  0
 11 28  1  0
 14 29  1  0
 15 30  1  0
M  CHG  2   1  -1   5   1
M  END
>  <filename_input>  (10) 
7TXK_LW8_docked.sdf

>  <pdb_id>  (10) 
7TXK_LW8

>  <pose_rank>  (10) 
9

>  <num_atoms_heavy>  (10) 
15

>  <num_torsions>  (10) 
4

>  <pose>  (10) 
[30.453751877008706, 45.59037052312905, 89.8823882342177, 4.630266128601249, -3.442641128444054, 2.182564634536295, 1.909639515354695, 3.116750218009744, 12.85067539830056, 6.481276815863461]

>  <energy>  (10) 
-639.1606477563838

>  <inter_energy>  (10) 
-665.9296839976789

>  <intra_energy>  (10) 
19.567394939544492

>  <rmsd>  (10) 
0.388821

>  <sdf_rank>  (10) 
0

$$$$

     RDKit          3D

 30 30  0  0  0  0  0  0  0  0999 V2000
   28.2596   43.2621   90.1095 O   0  0  0  0  0  0  0  0  0  0  0  0
   29.4363   43.0605   89.7464 C   0  0  0  0  0  0  0  0  0  0  0  0
   29.7210   41.9978   89.1150 O   0  0  0  0  0  0  0  0  0  0  0  0
   30.4785   44.1239   90.1506 C   0  0  1  0  0  0  0  0  0  0  0  0
   30.5096   45.2363   89.1882 N   0  0  1  0  0  0  0  0  0  0  0  0
   29.4830   45.1911   88.1645 C   0  0  0  0  0  0  0  0  0  0  0  0
   30.3629   46.5145   89.8850 C   0  0  0  0  0  0  0  0  0  0  0  0
   31.8225   45.2607   88.5164 C   0  0  0  0  0  0  0  0  0  0  0  0
   30.1879   44.5684   91.6018 C   0  0  0  0  0  0  0  0  0  0  0  0
   31.1222   44.0386   92.7206 C   0  0  0  0  0  0  0  0  0  0  0  0
   32.1704   43.2268   92.5287 N   0  0  0  0  0  0  0  0  0  0  0  0
   32.7511   42.9519   93.7067 C   0  0  0  0  0  0  0  0  0  0  0  0
   34.0487   42.0054   93.9839 S   0  0  0  0  0  0  0  0  0  0  0  0
   32.0608   43.5947   94.6541 N   0  0  0  0  0  0  0  0  0  0  0  0
   31.0644   44.2604   94.0955 C   0  0  0  0  0  0  0  0  0  0  0  0
   31.4920   43.6973   90.1230 H   0  0  0  0  0  0  0  0  0  0  0  0
   28.4923   45.1474   88.6405 H   0  0  0  0  0  0  0  0  0  0  0  0
   29.5496   46.0930   87.5384 H   0  0  0  0  0  0  0  0  0  0  0  0
   29.6287   44.2985   87.5384 H   0  0  0  0  0  0  0  0  0  0  0  0
   30.3824   46.3441   90.9715 H   0  0  0  0  0  0  0  0  0  0  0  0
   31.1902   47.1826   89.6036 H   0  0  0  0  0  0  0  0  0  0  0  0
   29.4056   46.9777   89.6036 H   0  0  0  0  0  0  0  0  0  0  0  0
   32.6211   45.2755   89.2727 H   0  0  0  0  0  0  0  0  0  0  0  0
   31.9294   44.3644   87.8878 H   0  0  0  0  0  0  0  0  0  0  0  0
   31.8961   46.1603   87.8878 H   0  0  0  0  0  0  0  0  0  0  0  0
   30.2385   45.6670   91.6249 H   0  0  0  0  0  0  0  0  0  0  0  0
   29.2042   44.1339   91.8332 H   0  0  0  0  0  0  0  0  0  0  0  0
   32.4831   42.8680   91.6153 H   0  0  0  0  0  0  0  0  0  0  0  0
   32.2723   43.5745   95.6620 H   0  0  0  0  0  0  0  0  0  0  0  0
   30.3223   44.8787   94.6218 H   0  0  0  0  0  0  0  0  0  0  0  0
  1  2  1  0
  2  3  2  0
  2  4  1  0
  4  5  1  0
  4  9  1  0
  5  6  1  6
  5  7  1  0
  5  8  1  0
  9 10  1  0
 10 11  1  0
 10 15  2  0
 11 12  1  0
 12 13  2  0
 12 14  1  0
 14 15  1  0
  4 16  1  1
  6 17  1  0
  6 18  1  0
  6 19  1  0
  7 20  1  0
  7 21  1  0
  7 22  1  0
  8 23  1  0
  8 24  1  0
  8 25  1  0
  9 26  1  0
  9 27  1  0
 11 28  1  0
 14 29  1  0
 15 30  1  0
M  CHG  2   1  -1   5   1
M  END
>  <filename_input>  (11) 
7TXK_LW8_docked.sdf

>  <pdb_id>  (11) 
7TXK_LW8

>  <pose_rank>  (11) 
10

>  <num_atoms_heavy>  (11) 
15

>  <num_torsions>  (11) 
4

>  <pose>  (11) 
[30.478500086344326, 44.12385798229238, 90.15064709958067, -1.1550145314274167, -1.008773548210133, 0.756214417145509, -1.0420531858271926, 6.183840307108138, 0.9099681314044459, 2.7327844802803853]

>  <energy>  (11) 
-322.85755337693564

>  <inter_energy>  (11) 
-340.19744124556007

>  <intra_energy>  (11) 
12.820934597790146

>  <rmsd>  (11) 
3.72825

>  <sdf_rank>  (11) 
0

$$$$

     RDKit          3D

 30 30  0  0  0  0  0  0  0  0999 V2000
   37.5767   35.3726   93.9948 O   0  0  0  0  0  0  0  0  0  0  0  0
   37.0606   36.4921   93.8016 C   0  0  0  0  0  0  0  0  0  0  0  0
   35.8875   36.5643   93.3246 O   0  0  0  0  0  0  0  0  0  0  0  0
   37.9346   37.7229   94.1205 C   0  0  1  0  0  0  0  0  0  0  0  0
   38.2105   38.5121   92.9098 N   0  0  1  0  0  0  0  0  0  0  0  0
   39.2784   39.4849   93.0415 C   0  0  0  0  0  0  0  0  0  0  0  0
   38.5703   37.6296   91.7997 C   0  0  0  0  0  0  0  0  0  0  0  0
   36.9863   39.2306   92.5090 C   0  0  0  0  0  0  0  0  0  0  0  0
   37.2500   38.5324   95.2448 C   0  0  0  0  0  0  0  0  0  0  0  0
   37.6642   38.2293   96.7083 C   0  0  0  0  0  0  0  0  0  0  0  0
   38.8192   37.6619   97.0802 N   0  0  0  0  0  0  0  0  0  0  0  0
   38.8498   37.5318   98.4153 C   0  0  0  0  0  0  0  0  0  0  0  0
   40.0377   36.8919   99.3297 S   0  0  0  0  0  0  0  0  0  0  0  0
   37.7002   38.0198   98.8926 N   0  0  0  0  0  0  0  0  0  0  0  0
   36.9547   38.4478   97.8881 C   0  0  0  0  0  0  0  0  0  0  0  0
   38.9236   37.4070   94.4839 H   0  0  0  0  0  0  0  0  0  0  0  0
   39.4787   39.6674   94.1076 H   0  0  0  0  0  0  0  0  0  0  0  0
   40.1880   39.0985   92.5584 H   0  0  0  0  0  0  0  0  0  0  0  0
   38.9783   40.4265   92.5584 H   0  0  0  0  0  0  0  0  0  0  0  0
   38.9575   36.6798   92.1970 H   0  0  0  0  0  0  0  0  0  0  0  0
   37.6802   37.4337   91.1837 H   0  0  0  0  0  0  0  0  0  0  0  0
   39.3436   38.1118   91.1837 H   0  0  0  0  0  0  0  0  0  0  0  0
   36.4389   39.5518   93.4075 H   0  0  0  0  0  0  0  0  0  0  0  0
   37.2581   40.1125   91.9104 H   0  0  0  0  0  0  0  0  0  0  0  0
   36.3489   38.5633   91.9104 H   0  0  0  0  0  0  0  0  0  0  0  0
   37.4597   39.5959   95.0578 H   0  0  0  0  0  0  0  0  0  0  0  0
   36.1906   38.2411   95.1905 H   0  0  0  0  0  0  0  0  0  0  0  0
   39.5700   37.3698   96.4385 H   0  0  0  0  0  0  0  0  0  0  0  0
   37.4365   38.0565   99.8876 H   0  0  0  0  0  0  0  0  0  0  0  0
   35.9535   38.8963   97.9690 H   0  0  0  0  0  0  0  0  0  0  0  0
  1  2  1  0
  2  3  2  0
  2  4  1  0
  4  5  1  0
  4  9  1  0
  5  6  1  1
  5  7  1  0
  5  8  1  0
  9 10  1  0
 10 11  1  0
 10 15  2  0
 11 12  1  0
 12 13  2  0
 12 14  1  0
 14 15  1  0
  4 16  1  1
  6 17  1  0
  6 18  1  0
  6 19  1  0
  7 20  1  0
  7 21  1  0
  7 22  1  0
  8 23  1  0
  8 24  1  0
  8 25  1  0
  9 26  1  0
  9 27  1  0
 11 28  1  0
 14 29  1  0
 15 30  1  0
M  CHG  2   1  -1   5   1
M  END
>  <filename_input>  (12) 
7TXK_LW8_docked.sdf

>  <pdb_id>  (12) 
7TXK_LW8

>  <pose_rank>  (12) 
11

>  <num_atoms_heavy>  (12) 
15

>  <num_torsions>  (12) 
4

>  <pose>  (12) 
[37.93461326452268, 37.72286986333536, 94.12048956334122, 3.0306358895368617, 2.3570975677296166, -1.652210228023426, -4.042346193253223, 3.4088751915237254, 0.704621393880103, 3.116328579642315]

>  <energy>  (12) 
-66.17434288114069

>  <inter_energy>  (12) 
-79.14970671272202

>  <intra_energy>  (12) 
16.958480631926058

>  <rmsd>  (12) 
11.9885

>  <sdf_rank>  (12) 
0

$$$$

     RDKit          3D

 30 30  0  0  0  0  0  0  0  0999 V2000
   35.2089   41.7430   95.7730 O   0  0  0  0  0  0  0  0  0  0  0  0
   36.4286   42.0026   95.8183 C   0  0  0  0  0  0  0  0  0  0  0  0
   36.8097   43.2125   95.8109 O   0  0  0  0  0  0  0  0  0  0  0  0
   37.3937   40.7990   95.8291 C   0  0  1  0  0  0  0  0  0  0  0  0
   37.7263   40.3913   97.2032 N   0  0  1  0  0  0  0  0  0  0  0  0
   36.7881   39.4687   97.8136 C   0  0  0  0  0  0  0  0  0  0  0  0
   39.0410   39.7503   97.2384 C   0  0  0  0  0  0  0  0  0  0  0  0
   37.8089   41.5900   98.0587 C   0  0  0  0  0  0  0  0  0  0  0  0
   36.7744   39.6662   94.9799 C   0  0  0  0  0  0  0  0  0  0  0  0
   37.3288   39.4512   93.5475 C   0  0  0  0  0  0  0  0  0  0  0  0
   38.5920   39.1173   93.2525 N   0  0  0  0  0  0  0  0  0  0  0  0
   38.7366   39.0259   91.9217 C   0  0  0  0  0  0  0  0  0  0  0  0
   40.0869   38.6571   91.0866 S   0  0  0  0  0  0  0  0  0  0  0  0
   37.5524   39.3077   91.3690 N   0  0  0  0  0  0  0  0  0  0  0  0
   36.6758   39.5744   92.3222 C   0  0  0  0  0  0  0  0  0  0  0  0
   38.3567   41.0756   95.3751 H   0  0  0  0  0  0  0  0  0  0  0  0
   36.8622   39.5415   98.9087 H   0  0  0  0  0  0  0  0  0  0  0  0
   35.7656   39.7228   97.4976 H   0  0  0  0  0  0  0  0  0  0  0  0
   37.0252   38.4421   97.4976 H   0  0  0  0  0  0  0  0  0  0  0  0
   39.3481   39.6006   98.2840 H   0  0  0  0  0  0  0  0  0  0  0  0
   38.9881   38.7769   96.7288 H   0  0  0  0  0  0  0  0  0  0  0  0
   39.7753   40.3915   96.7288 H   0  0  0  0  0  0  0  0  0  0  0  0
   37.7881   41.2879   99.1162 H   0  0  0  0  0  0  0  0  0  0  0  0
   38.7461   42.1263   97.8490 H   0  0  0  0  0  0  0  0  0  0  0  0
   36.9541   42.2498   97.8490 H   0  0  0  0  0  0  0  0  0  0  0  0
   36.9183   38.7258   95.5321 H   0  0  0  0  0  0  0  0  0  0  0  0
   35.7287   39.9726   94.8293 H   0  0  0  0  0  0  0  0  0  0  0  0
   39.3392   38.9554   93.9428 H   0  0  0  0  0  0  0  0  0  0  0  0
   37.3539   39.3158   90.3584 H   0  0  0  0  0  0  0  0  0  0  0  0
   35.6199   39.8451   92.1746 H   0  0  0  0  0  0  0  0  0  0  0  0
  1  2  1  0
  2  3  2  0
  2  4  1  0
  4  5  1  0
  4  9  1  0
  5  6  1  1
  5  7  1  0
  5  8  1  0
  9 10  1  0
 10 11  1  0
 10 15  2  0
 11 12  1  0
 12 13  2  0
 12 14  1  0
 14 15  1  0
  4 16  1  6
  6 17  1  0
  6 18  1  0
  6 19  1  0
  7 20  1  0
  7 21  1  0
  7 22  1  0
  8 23  1  0
  8 24  1  0
  8 25  1  0
  9 26  1  0
  9 27  1  0
 11 28  1  0
 14 29  1  0
 15 30  1  0
M  CHG  2   1  -1   5   1
M  END
>  <filename_input>  (13) 
7TXK_LW8_docked.sdf

>  <pdb_id>  (13) 
7TXK_LW8

>  <pose_rank>  (13) 
12

>  <num_atoms_heavy>  (13) 
15

>  <num_torsions>  (13) 
4

>  <pose>  (13) 
[37.393740290231634, 40.798959712220494, 95.82911328641556, -2.791061101730167, 2.5908422783791165, 2.7949464672710347, 0.3453124389154233, -0.2305557213829125, 0.8668513333872379, 3.805714496925686]

>  <energy>  (13) 
-119.83637373844593

>  <inter_energy>  (13) 
-132.42328808465157

>  <intra_energy>  (13) 
14.116812694283317

>  <rmsd>  (13) 
10.2164

>  <sdf_rank>  (13) 
0

$$$$

     RDKit          3D

 30 30  0  0  0  0  0  0  0  0999 V2000
   23.8797   49.8398   97.7212 O   0  0  0  0  0  0  0  0  0  0  0  0
   22.8623   50.4972   98.0207 C   0  0  0  0  0  0  0  0  0  0  0  0
   22.1475   50.1283   99.0014 O   0  0  0  0  0  0  0  0  0  0  0  0
   22.5256   51.7030   97.1190 C   0  0  1  0  0  0  0  0  0  0  0  0
   23.2256   52.9177   97.5655 N   0  0  1  0  0  0  0  0  0  0  0  0
   24.4605   53.2079   96.8623 C   0  0  0  0  0  0  0  0  0  0  0  0
   22.3605   54.0876   97.4114 C   0  0  0  0  0  0  0  0  0  0  0  0
   23.5364   52.7986   99.0024 C   0  0  0  0  0  0  0  0  0  0  0  0
   22.8269   51.3182   95.6530 C   0  0  0  0  0  0  0  0  0  0  0  0
   21.8193   51.7723   94.5650 C   0  0  0  0  0  0  0  0  0  0  0  0
   21.8764   52.9328   93.8984 N   0  0  0  0  0  0  0  0  0  0  0  0
   20.8464   53.0136   93.0422 C   0  0  0  0  0  0  0  0  0  0  0  0
   20.4868   54.2351   92.0248 S   0  0  0  0  0  0  0  0  0  0  0  0
   20.1286   51.8931   93.1709 N   0  0  0  0  0  0  0  0  0  0  0  0
   20.6847   51.1187   94.0869 C   0  0  0  0  0  0  0  0  0  0  0  0
   21.4561   51.9496   97.1920 H   0  0  0  0  0  0  0  0  0  0  0  0
   25.2622   53.3963   97.5916 H   0  0  0  0  0  0  0  0  0  0  0  0
   24.7335   52.3495   96.2310 H   0  0  0  0  0  0  0  0  0  0  0  0
   24.3225   54.0981   96.2310 H   0  0  0  0  0  0  0  0  0  0  0  0
   22.0788   54.4686   98.4042 H   0  0  0  0  0  0  0  0  0  0  0  0
   22.8983   54.8709   96.8572 H   0  0  0  0  0  0  0  0  0  0  0  0
   21.4540   53.8029   96.8572 H   0  0  0  0  0  0  0  0  0  0  0  0
   22.6703   53.1306   99.5937 H   0  0  0  0  0  0  0  0  0  0  0  0
   23.7639   51.7495   99.2426 H   0  0  0  0  0  0  0  0  0  0  0  0
   24.4068   53.4268   99.2426 H   0  0  0  0  0  0  0  0  0  0  0  0
   23.8053   51.7497   95.3948 H   0  0  0  0  0  0  0  0  0  0  0  0
   22.7744   50.2195   95.6383 H   0  0  0  0  0  0  0  0  0  0  0  0
   22.6011   53.6538   94.0241 H   0  0  0  0  0  0  0  0  0  0  0  0
   19.2756   51.6682   92.6393 H   0  0  0  0  0  0  0  0  0  0  0  0
   20.3176   50.1345   94.4134 H   0  0  0  0  0  0  0  0  0  0  0  0
  1  2  1  0
  2  3  2  0
  2  4  1  0
  4  5  1  0
  4  9  1  0
  5  6  1  6
  5  7  1  0
  5  8  1  0
  9 10  1  0
 10 11  1  0
 10 15  2  0
 11 12  1  0
 12 13  2  0
 12 14  1  0
 14 15  1  0
  4 16  1  6
  6 17  1  0
  6 18  1  0
  6 19  1  0
  7 20  1  0
  7 21  1  0
  7 22  1  0
  8 23  1  0
  8 24  1  0
  8 25  1  0
  9 26  1  0
  9 27  1  0
 11 28  1  0
 14 29  1  0
 15 30  1  0
M  CHG  2   1  -1   5   1
M  END
>  <filename_input>  (14) 
7TXK_LW8_docked.sdf

>  <pdb_id>  (14) 
7TXK_LW8

>  <pose_rank>  (14) 
13

>  <num_atoms_heavy>  (14) 
15

>  <num_torsions>  (14) 
4

>  <pose>  (14) 
[22.525636377821417, 51.70300139373304, 97.11896618232973, -2.4001289088928193, -3.6167439246858692, -1.220626846431645, 0.5344596680441247, -0.13775191315969787, -4.775141409664353, -1.989619792302562]

>  <energy>  (14) 
-143.738391372903

>  <inter_energy>  (14) 
-144.69314970971354

>  <intra_energy>  (14) 
14.709464847351834

>  <rmsd>  (14) 
13.0086

>  <sdf_rank>  (14) 
0

$$$$

     RDKit          3D

 30 30  0  0  0  0  0  0  0  0999 V2000
   31.5683   52.4972   81.9745 O   0  0  0  0  0  0  0  0  0  0  0  0
   32.4797   52.0303   82.6875 C   0  0  0  0  0  0  0  0  0  0  0  0
   32.2402   51.7486   83.9009 O   0  0  0  0  0  0  0  0  0  0  0  0
   33.8667   51.8790   82.0290 C   0  0  1  0  0  0  0  0  0  0  0  0
   34.7450   53.0109   82.3640 N   0  0  1  0  0  0  0  0  0  0  0  0
   35.9121   53.1543   81.5147 C   0  0  0  0  0  0  0  0  0  0  0  0
   34.0028   54.2694   82.2873 C   0  0  0  0  0  0  0  0  0  0  0  0
   35.2095   52.8694   83.7568 C   0  0  0  0  0  0  0  0  0  0  0  0
   34.4501   50.5040   82.4251 C   0  0  0  0  0  0  0  0  0  0  0  0
   33.9039   49.2497   81.6945 C   0  0  0  0  0  0  0  0  0  0  0  0
   32.6534   48.7811   81.7987 N   0  0  0  0  0  0  0  0  0  0  0  0
   32.5204   47.6766   81.0486 C   0  0  0  0  0  0  0  0  0  0  0  0
   31.1925   46.7501   80.8614 S   0  0  0  0  0  0  0  0  0  0  0  0
   33.7006   47.4427   80.4657 N   0  0  0  0  0  0  0  0  0  0  0  0
   34.5647   48.3723   80.8362 C   0  0  0  0  0  0  0  0  0  0  0  0
   33.7758   51.9060   80.9331 H   0  0  0  0  0  0  0  0  0  0  0  0
   36.8098   53.2647   82.1407 H   0  0  0  0  0  0  0  0  0  0  0  0
   36.0153   52.2621   80.8797 H   0  0  0  0  0  0  0  0  0  0  0  0
   35.7961   54.0450   80.8797 H   0  0  0  0  0  0  0  0  0  0  0  0
   33.7891   54.6316   83.3037 H   0  0  0  0  0  0  0  0  0  0  0  0
   34.6042   55.0176   81.7502 H   0  0  0  0  0  0  0  0  0  0  0  0
   33.0570   54.1050   81.7502 H   0  0  0  0  0  0  0  0  0  0  0  0
   34.3881   53.1196   84.4444 H   0  0  0  0  0  0  0  0  0  0  0  0
   35.5316   51.8324   83.9324 H   0  0  0  0  0  0  0  0  0  0  0  0
   36.0550   53.5508   83.9324 H   0  0  0  0  0  0  0  0  0  0  0  0
   35.5344   50.5431   82.2440 H   0  0  0  0  0  0  0  0  0  0  0  0
   34.1491   50.3668   83.4742 H   0  0  0  0  0  0  0  0  0  0  0  0
   31.9070   49.2045   82.3684 H   0  0  0  0  0  0  0  0  0  0  0  0
   33.9049   46.6604   79.8276 H   0  0  0  0  0  0  0  0  0  0  0  0
   35.6170   48.4410   80.5232 H   0  0  0  0  0  0  0  0  0  0  0  0
  1  2  1  0
  2  3  2  0
  2  4  1  0
  4  5  1  0
  4  9  1  0
  5  6  1  6
  5  7  1  0
  5  8  1  0
  9 10  1  0
 10 11  1  0
 10 15  2  0
 11 12  1  0
 12 13  2  0
 12 14  1  0
 14 15  1  0
  4 16  1  6
  6 17  1  0
  6 18  1  0
  6 19  1  0
  7 20  1  0
  7 21  1  0
  7 22  1  0
  8 23  1  0
  8 24  1  0
  8 25  1  0
  9 26  1  0
  9 27  1  0
 11 28  1  0
 14 29  1  0
 15 30  1  0
M  CHG  2   1  -1   5   1
M  END
>  <filename_input>  (15) 
7TXK_LW8_docked.sdf

>  <pdb_id>  (15) 
7TXK_LW8

>  <pose_rank>  (15) 
14

>  <num_atoms_heavy>  (15) 
15

>  <num_torsions>  (15) 
4

>  <pose>  (15) 
[33.86669674730694, 51.8789918040911, 82.0289891883757, -3.7551024947183866, -3.648186128729346, 3.222248893581379, 2.2730562381849135, -3.193592770380547, 0.43259801537992654, -4.715827653576356]

>  <energy>  (15) 
-142.95617754183567

>  <inter_energy>  (15) 
-143.6799645228037

>  <intra_energy>  (15) 
18.894142505763902

>  <rmsd>  (15) 
11.2053

>  <sdf_rank>  (15) 
0

$$$$

     RDKit          3D

 30 30  0  0  0  0  0  0  0  0999 V2000
   38.8797   37.0851   95.6723 O   0  0  0  0  0  0  0  0  0  0  0  0
   38.8422   36.7880   94.4609 C   0  0  0  0  0  0  0  0  0  0  0  0
   39.8503   36.2382   93.9220 O   0  0  0  0  0  0  0  0  0  0  0  0
   37.5600   37.1699   93.6926 C   0  0  1  0  0  0  0  0  0  0  0  0
   36.7692   35.9789   93.3447 N   0  0  1  0  0  0  0  0  0  0  0  0
   36.8274   34.8996   94.3119 C   0  0  0  0  0  0  0  0  0  0  0  0
   35.3591   36.3348   93.1851 C   0  0  0  0  0  0  0  0  0  0  0  0
   37.2299   35.4526   92.0461 C   0  0  0  0  0  0  0  0  0  0  0  0
   36.7791   38.2093   94.5280 C   0  0  0  0  0  0  0  0  0  0  0  0
   36.4724   39.5806   93.8717 C   0  0  0  0  0  0  0  0  0  0  0  0
   35.8407   40.5979   94.4721 N   0  0  0  0  0  0  0  0  0  0  0  0
   35.7282   41.6272   93.6188 C   0  0  0  0  0  0  0  0  0  0  0  0
   35.0300   43.0754   93.8869 S   0  0  0  0  0  0  0  0  0  0  0  0
   36.2926   41.2556   92.4652 N   0  0  0  0  0  0  0  0  0  0  0  0
   36.7510   40.0207   92.5788 C   0  0  0  0  0  0  0  0  0  0  0  0
   37.8146   37.6324   92.7276 H   0  0  0  0  0  0  0  0  0  0  0  0
   36.8049   35.3173   95.3292 H   0  0  0  0  0  0  0  0  0  0  0  0
   35.9639   34.2331   94.1700 H   0  0  0  0  0  0  0  0  0  0  0  0
   37.7576   34.3298   94.1700 H   0  0  0  0  0  0  0  0  0  0  0  0
   34.8960   36.4516   94.1760 H   0  0  0  0  0  0  0  0  0  0  0  0
   35.2803   37.2809   92.6296 H   0  0  0  0  0  0  0  0  0  0  0  0
   34.8407   35.5393   92.6296 H   0  0  0  0  0  0  0  0  0  0  0  0
   37.9458   34.6347   92.2150 H   0  0  0  0  0  0  0  0  0  0  0  0
   36.3679   35.0738   91.4774 H   0  0  0  0  0  0  0  0  0  0  0  0
   37.7195   36.2569   91.4774 H   0  0  0  0  0  0  0  0  0  0  0  0
   35.8160   37.7537   94.8017 H   0  0  0  0  0  0  0  0  0  0  0  0
   37.4470   38.4475   95.3689 H   0  0  0  0  0  0  0  0  0  0  0  0
   35.4939   40.5910   95.4419 H   0  0  0  0  0  0  0  0  0  0  0  0
   36.3599   41.8402   91.6198 H   0  0  0  0  0  0  0  0  0  0  0  0
   37.2611   39.4437   91.7934 H   0  0  0  0  0  0  0  0  0  0  0  0
  1  2  1  0
  2  3  2  0
  2  4  1  0
  4  5  1  0
  4  9  1  0
  5  6  1  1
  5  7  1  0
  5  8  1  0
  9 10  1  0
 10 11  1  0
 10 15  2  0
 11 12  1  0
 12 13  2  0
 12 14  1  0
 14 15  1  0
  4 16  1  6
  6 17  1  0
  6 18  1  0
  6 19  1  0
  7 20  1  0
  7 21  1  0
  7 22  1  0
  8 23  1  0
  8 24  1  0
  8 25  1  0
  9 26  1  0
  9 27  1  0
 11 28  1  0
 14 29  1  0
 15 30  1  0
M  CHG  2   1  -1   5   1
M  END
>  <filename_input>  (16) 
7TXK_LW8_docked.sdf

>  <pdb_id>  (16) 
7TXK_LW8

>  <pose_rank>  (16) 
15

>  <num_atoms_heavy>  (16) 
15

>  <num_torsions>  (16) 
4

>  <pose>  (16) 
[37.559961461395304, 37.16991300584738, 93.69264731347195, 0.37033496100224716, 0.5953608562810478, -3.084788797310782, -0.570111337803751, -0.5269336288789954, 1.214309817622769, -0.3803803599267225]

>  <energy>  (16) 
-141.65637270321807

>  <inter_energy>  (16) 
-138.70739295514818

>  <intra_energy>  (16) 
10.153769337229928

>  <rmsd>  (16) 
11.1659

>  <sdf_rank>  (16) 
0

$$$$

     RDKit          3D

 30 30  0  0  0  0  0  0  0  0999 V2000
   38.6393   39.6072   91.2909 O   0  0  0  0  0  0  0  0  0  0  0  0
   38.2225   39.0986   92.3514 C   0  0  0  0  0  0  0  0  0  0  0  0
   38.5805   37.9220   92.6619 O   0  0  0  0  0  0  0  0  0  0  0  0
   37.2436   39.9471   93.1894 C   0  0  1  0  0  0  0  0  0  0  0  0
   35.8446   39.6091   92.8835 N   0  0  1  0  0  0  0  0  0  0  0  0
   34.9129   40.7175   92.9683 C   0  0  0  0  0  0  0  0  0  0  0  0
   35.7385   39.0635   91.5301 C   0  0  0  0  0  0  0  0  0  0  0  0
   35.3860   38.5562   93.8091 C   0  0  0  0  0  0  0  0  0  0  0  0
   37.6079   39.7844   94.6823 C   0  0  0  0  0  0  0  0  0  0  0  0
   38.5539   40.8385   95.3142 C   0  0  0  0  0  0  0  0  0  0  0  0
   38.3414   41.4639   96.4795 N   0  0  0  0  0  0  0  0  0  0  0  0
   39.3453   42.3204   96.7227 C   0  0  0  0  0  0  0  0  0  0  0  0
   39.5262   43.3090   98.0059 S   0  0  0  0  0  0  0  0  0  0  0  0
   40.2005   42.2375   95.6985 N   0  0  0  0  0  0  0  0  0  0  0  0
   39.7528   41.3532   94.8236 C   0  0  0  0  0  0  0  0  0  0  0  0
   37.3406   41.0118   92.9305 H   0  0  0  0  0  0  0  0  0  0  0  0
   34.7164   40.9513   94.0250 H   0  0  0  0  0  0  0  0  0  0  0  0
   35.3454   41.5988   92.4720 H   0  0  0  0  0  0  0  0  0  0  0  0
   33.9704   40.4429   92.4720 H   0  0  0  0  0  0  0  0  0  0  0  0
   35.5288   37.9851   91.5849 H   0  0  0  0  0  0  0  0  0  0  0  0
   34.9219   39.5691   90.9940 H   0  0  0  0  0  0  0  0  0  0  0  0
   36.6851   39.2261   90.9940 H   0  0  0  0  0  0  0  0  0  0  0  0
   35.5319   38.8912   94.8467 H   0  0  0  0  0  0  0  0  0  0  0  0
   34.3186   38.3549   93.6355 H   0  0  0  0  0  0  0  0  0  0  0  0
   35.9654   37.6375   93.6355 H   0  0  0  0  0  0  0  0  0  0  0  0
   36.6679   39.8028   95.2534 H   0  0  0  0  0  0  0  0  0  0  0  0
   38.1727   38.8417   94.7288 H   0  0  0  0  0  0  0  0  0  0  0  0
   37.5303   41.3106   97.0956 H   0  0  0  0  0  0  0  0  0  0  0  0
   41.0722   42.7783   95.6055 H   0  0  0  0  0  0  0  0  0  0  0  0
   40.2394   41.0735   93.8775 H   0  0  0  0  0  0  0  0  0  0  0  0
  1  2  1  0
  2  3  2  0
  2  4  1  0
  4  5  1  0
  4  9  1  0
  5  6  1  6
  5  7  1  0
  5  8  1  0
  9 10  1  0
 10 11  1  0
 10 15  2  0
 11 12  1  0
 12 13  2  0
 12 14  1  0
 14 15  1  0
  4 16  1  6
  6 17  1  0
  6 18  1  0
  6 19  1  0
  7 20  1  0
  7 21  1  0
  7 22  1  0
  8 23  1  0
  8 24  1  0
  8 25  1  0
  9 26  1  0
  9 27  1  0
 11 28  1  0
 14 29  1  0
 15 30  1  0
M  CHG  2   1  -1   5   1
M  END
>  <filename_input>  (17) 
7TXK_LW8_docked.sdf

>  <pdb_id>  (17) 
7TXK_LW8

>  <pose_rank>  (17) 
16

>  <num_atoms_heavy>  (17) 
15

>  <num_torsions>  (17) 
4

>  <pose>  (17) 
[37.24360772624406, 39.94708265539387, 93.18936194245518, -0.7784317805162414, 2.2285422064051525, -2.915318620441955, 2.5674029746749376, -3.2464117055894346, 0.7255765259365938, -1.2490004185544403]

>  <energy>  (17) 
-136.3871254225424

>  <inter_energy>  (17) 
-145.95361764726687

>  <intra_energy>  (17) 
16.701619270877767

>  <rmsd>  (17) 
10.8053

>  <sdf_rank>  (17) 
0

$$$$

     RDKit          3D

 30 30  0  0  0  0  0  0  0  0999 V2000
   34.8037   53.3426   81.6269 O   0  0  0  0  0  0  0  0  0  0  0  0
   34.2952   52.6327   82.5182 C   0  0  0  0  0  0  0  0  0  0  0  0
   34.7734   52.6680   83.6925 O   0  0  0  0  0  0  0  0  0  0  0  0
   33.1318   51.7131   82.0926 C   0  0  1  0  0  0  0  0  0  0  0  0
   31.8471   52.4301   82.1133 N   0  0  1  0  0  0  0  0  0  0  0  0
   31.2846   52.7192   80.8080 C   0  0  0  0  0  0  0  0  0  0  0  0
   30.8461   51.6569   82.8488 C   0  0  0  0  0  0  0  0  0  0  0  0
   32.0158   53.7080   82.8302 C   0  0  0  0  0  0  0  0  0  0  0  0
   33.4734   51.0941   80.7185 C   0  0  0  0  0  0  0  0  0  0  0  0
   33.3272   49.5581   80.5614 C   0  0  0  0  0  0  0  0  0  0  0  0
   32.1642   48.8941   80.5318 N   0  0  0  0  0  0  0  0  0  0  0  0
   32.3974   47.5794   80.3994 C   0  0  0  0  0  0  0  0  0  0  0  0
   31.3035   46.3734   80.3252 S   0  0  0  0  0  0  0  0  0  0  0  0
   33.7225   47.4100   80.3475 N   0  0  0  0  0  0  0  0  0  0  0  0
   34.3192   48.5857   80.4466 C   0  0  0  0  0  0  0  0  0  0  0  0
   33.0090   50.8915   82.8137 H   0  0  0  0  0  0  0  0  0  0  0  0
   30.3123   53.2189   80.9303 H   0  0  0  0  0  0  0  0  0  0  0  0
   31.9680   53.3778   80.2519 H   0  0  0  0  0  0  0  0  0  0  0  0
   31.1469   51.7801   80.2519 H   0  0  0  0  0  0  0  0  0  0  0  0
   31.0079   51.7818   83.9297 H   0  0  0  0  0  0  0  0  0  0  0  0
   29.8400   52.0146   82.5849 H   0  0  0  0  0  0  0  0  0  0  0  0
   30.9380   50.5930   82.5849 H   0  0  0  0  0  0  0  0  0  0  0  0
   31.9917   53.5260   83.9148 H   0  0  0  0  0  0  0  0  0  0  0  0
   32.9811   54.1581   82.5553 H   0  0  0  0  0  0  0  0  0  0  0  0
   31.2003   54.3931   82.5553 H   0  0  0  0  0  0  0  0  0  0  0  0
   32.8145   51.5644   79.9737 H   0  0  0  0  0  0  0  0  0  0  0  0
   34.5489   51.2850   80.5881 H   0  0  0  0  0  0  0  0  0  0  0  0
   31.2322   49.3272   80.6003 H   0  0  0  0  0  0  0  0  0  0  0  0
   34.2035   46.5049   80.2461 H   0  0  0  0  0  0  0  0  0  0  0  0
   35.4046   48.7645   80.4397 H   0  0  0  0  0  0  0  0  0  0  0  0
  1  2  1  0
  2  3  2  0
  2  4  1  0
  4  5  1  0
  4  9  1  0
  5  6  1  6
  5  7  1  0
  5  8  1  0
  9 10  1  0
 10 11  1  0
 10 15  2  0
 11 12  1  0
 12 13  2  0
 12 14  1  0
 14 15  1  0
  4 16  1  1
  6 17  1  0
  6 18  1  0
  6 19  1  0
  7 20  1  0
  7 21  1  0
  7 22  1  0
  8 23  1  0
  8 24  1  0
  8 25  1  0
  9 26  1  0
  9 27  1  0
 11 28  1  0
 14 29  1  0
 15 30  1  0
M  CHG  2   1  -1   5   1
M  END
>  <filename_input>  (18) 
7TXK_LW8_docked.sdf

>  <pdb_id>  (18) 
7TXK_LW8

>  <pose_rank>  (18) 
17

>  <num_atoms_heavy>  (18) 
15

>  <num_torsions>  (18) 
4

>  <pose>  (18) 
[33.1317665207612, 51.713073313695794, 82.09260676344795, 0.9400103345650122, -3.155226820031803, -1.2455518189489219, 0.7387432962269593, -0.09998474401336195, 1.3552595123899667, 3.957704961235124]

>  <energy>  (18) 
-129.32867325103513

>  <inter_energy>  (18) 
-131.26908771866033

>  <intra_energy>  (18) 
17.223596923757505

>  <rmsd>  (18) 
11.6604

>  <sdf_rank>  (18) 
0

$$$$

     RDKit          3D

 30 30  0  0  0  0  0  0  0  0999 V2000
   24.4586   52.2839   82.7236 O   0  0  0  0  0  0  0  0  0  0  0  0
   23.4418   52.4358   83.4308 C   0  0  0  0  0  0  0  0  0  0  0  0
   23.5239   53.1035   84.5062 O   0  0  0  0  0  0  0  0  0  0  0  0
   22.1522   51.7389   82.9496 C   0  0  1  0  0  0  0  0  0  0  0  0
   21.1242   52.7195   82.5669 N   0  0  1  0  0  0  0  0  0  0  0  0
   20.2576   53.1531   83.6462 C   0  0  0  0  0  0  0  0  0  0  0  0
   21.7498   53.9201   82.0120 C   0  0  0  0  0  0  0  0  0  0  0  0
   20.2771   52.1455   81.5047 C   0  0  0  0  0  0  0  0  0  0  0  0
   22.5204   50.7538   81.8174 C   0  0  0  0  0  0  0  0  0  0  0  0
   22.5706   49.2426   82.1624 C   0  0  0  0  0  0  0  0  0  0  0  0
   21.5208   48.4111   82.1358 N   0  0  0  0  0  0  0  0  0  0  0  0
   21.9095   47.1801   82.5017 C   0  0  0  0  0  0  0  0  0  0  0  0
   20.9914   45.8395   82.6301 S   0  0  0  0  0  0  0  0  0  0  0  0
   23.2191   47.2344   82.7652 N   0  0  0  0  0  0  0  0  0  0  0  0
   23.6540   48.4684   82.5747 C   0  0  0  0  0  0  0  0  0  0  0  0
   21.7004   51.1604   83.7690 H   0  0  0  0  0  0  0  0  0  0  0  0
   20.7287   52.9174   84.6119 H   0  0  0  0  0  0  0  0  0  0  0  0
   20.0954   54.2386   83.5726 H   0  0  0  0  0  0  0  0  0  0  0  0
   19.2916   52.6321   83.5726 H   0  0  0  0  0  0  0  0  0  0  0  0
   22.0883   54.5698   82.8325 H   0  0  0  0  0  0  0  0  0  0  0  0
   22.6122   53.6316   81.3931 H   0  0  0  0  0  0  0  0  0  0  0  0
   21.0191   54.4616   81.3931 H   0  0  0  0  0  0  0  0  0  0  0  0
   19.4482   51.5838   81.9602 H   0  0  0  0  0  0  0  0  0  0  0  0
   19.8718   52.9558   80.8809 H   0  0  0  0  0  0  0  0  0  0  0  0
   20.8794   51.4687   80.8809 H   0  0  0  0  0  0  0  0  0  0  0  0
   21.7783   50.8829   81.0158 H   0  0  0  0  0  0  0  0  0  0  0  0
   23.5560   51.0120   81.5511 H   0  0  0  0  0  0  0  0  0  0  0  0
   20.5606   48.6765   81.8742 H   0  0  0  0  0  0  0  0  0  0  0  0
   23.7987   46.4391   83.0691 H   0  0  0  0  0  0  0  0  0  0  0  0
   24.6863   48.8210   82.7163 H   0  0  0  0  0  0  0  0  0  0  0  0
  1  2  1  0
  2  3  2  0
  2  4  1  0
  4  5  1  0
  4  9  1  0
  5  6  1  1
  5  7  1  0
  5  8  1  0
  9 10  1  0
 10 11  1  0
 10 15  2  0
 11 12  1  0
 12 13  2  0
 12 14  1  0
 14 15  1  0
  4 16  1  1
  6 17  1  0
  6 18  1  0
  6 19  1  0
  7 20  1  0
  7 21  1  0
  7 22  1  0
  8 23  1  0
  8 24  1  0
  8 25  1  0
  9 26  1  0
  9 27  1  0
 11 28  1  0
 14 29  1  0
 15 30  1  0
M  CHG  2   1  -1   5   1
M  END
>  <filename_input>  (19) 
7TXK_LW8_docked.sdf

>  <pdb_id>  (19) 
7TXK_LW8

>  <pose_rank>  (19) 
18

>  <num_atoms_heavy>  (19) 
15

>  <num_torsions>  (19) 
4

>  <pose>  (19) 
[22.152194835334562, 51.73886161123829, 82.9496495773279, 0.7612352949036887, -3.5542324724217114, -0.7686661171404724, -8.983280482427178, 5.6727966467363276, -17.960194944485284, -8.329739510015733]

>  <energy>  (19) 
-127.89463401242143

>  <inter_energy>  (19) 
-118.9910133169653

>  <intra_energy>  (19) 
10.943365178839136

>  <rmsd>  (19) 
12.8359

>  <sdf_rank>  (19) 
0

$$$$

     RDKit          3D

 30 30  0  0  0  0  0  0  0  0999 V2000
   35.5738   51.9033   81.4325 O   0  0  0  0  0  0  0  0  0  0  0  0
   34.8249   51.3994   82.2941 C   0  0  0  0  0  0  0  0  0  0  0  0
   34.7750   51.9114   83.4536 O   0  0  0  0  0  0  0  0  0  0  0  0
   34.0427   50.1359   81.8795 C   0  0  1  0  0  0  0  0  0  0  0  0
   32.6146   50.4303   81.6831 N   0  0  1  0  0  0  0  0  0  0  0  0
   32.3216   51.7798   81.2394 C   0  0  0  0  0  0  0  0  0  0  0  0
   32.0403   49.5200   80.6921 C   0  0  0  0  0  0  0  0  0  0  0  0
   31.8928   50.1997   82.9486 C   0  0  0  0  0  0  0  0  0  0  0  0
   34.7253   49.5227   80.6361 C   0  0  0  0  0  0  0  0  0  0  0  0
   35.5420   48.2185   80.8295 C   0  0  0  0  0  0  0  0  0  0  0  0
   35.0435   47.0555   81.2691 N   0  0  0  0  0  0  0  0  0  0  0  0
   36.0217   46.1392   81.3323 C   0  0  0  0  0  0  0  0  0  0  0  0
   35.9065   44.5868   81.8152 S   0  0  0  0  0  0  0  0  0  0  0  0
   37.1517   46.7302   80.9309 N   0  0  0  0  0  0  0  0  0  0  0  0
   36.9015   47.9912   80.6220 C   0  0  0  0  0  0  0  0  0  0  0  0
   34.0692   49.3871   82.6849 H   0  0  0  0  0  0  0  0  0  0  0  0
   32.1802   52.4310   82.1147 H   0  0  0  0  0  0  0  0  0  0  0  0
   33.1589   52.1565   80.6336 H   0  0  0  0  0  0  0  0  0  0  0  0
   31.4035   51.7754   80.6336 H   0  0  0  0  0  0  0  0  0  0  0  0
   31.5215   48.6977   81.2067 H   0  0  0  0  0  0  0  0  0  0  0  0
   31.3241   50.0681   80.0623 H   0  0  0  0  0  0  0  0  0  0  0  0
   32.8434   49.1097   80.0623 H   0  0  0  0  0  0  0  0  0  0  0  0
   32.5609   50.4132   83.7960 H   0  0  0  0  0  0  0  0  0  0  0  0
   31.0162   50.8625   82.9968 H   0  0  0  0  0  0  0  0  0  0  0  0
   31.5629   49.1515   82.9968 H   0  0  0  0  0  0  0  0  0  0  0  0
   33.9361   49.3095   79.9001 H   0  0  0  0  0  0  0  0  0  0  0  0
   35.4693   50.2729   80.3299 H   0  0  0  0  0  0  0  0  0  0  0  0
   34.0585   46.8897   81.5205 H   0  0  0  0  0  0  0  0  0  0  0  0
   38.0734   46.2743   80.8715 H   0  0  0  0  0  0  0  0  0  0  0  0
   37.6351   48.7290   80.2650 H   0  0  0  0  0  0  0  0  0  0  0  0
  1  2  1  0
  2  3  2  0
  2  4  1  0
  4  5  1  0
  4  9  1  0
  5  6  1  6
  5  7  1  0
  5  8  1  0
  9 10  1  0
 10 11  1  0
 10 15  2  0
 11 12  1  0
 12 13  2  0
 12 14  1  0
 14 15  1  0
  4 16  1  1
  6 17  1  0
  6 18  1  0
  6 19  1  0
  7 20  1  0
  7 21  1  0
  7 22  1  0
  8 23  1  0
  8 24  1  0
  8 25  1  0
  9 26  1  0
  9 27  1  0
 11 28  1  0
 14 29  1  0
 15 30  1  0
M  CHG  2   1  -1   5   1
M  END
>  <filename_input>  (20) 
7TXK_LW8_docked.sdf

>  <pdb_id>  (20) 
7TXK_LW8

>  <pose_rank>  (20) 
19

>  <num_atoms_heavy>  (20) 
15

>  <num_torsions>  (20) 
4

>  <pose>  (20) 
[34.042736856571864, 50.13585646755267, 81.87949707461537, -1.1968094219255103, 2.3789313579022604, 0.8691297174111292, -0.6327202324059942, -0.4903746956175477, 0.9443054254174041, -2.4926505855339025]

>  <energy>  (20) 
-127.43566393145383

>  <inter_energy>  (20) 
-128.02757873333837

>  <intra_energy>  (20) 
7.46912730363141

>  <rmsd>  (20) 
11.4696

>  <sdf_rank>  (20) 
0

$$$$

     RDKit          3D

 30 30  0  0  0  0  0  0  0  0999 V2000
   35.4136   39.0130   91.8992 O   0  0  0  0  0  0  0  0  0  0  0  0
   36.5222   38.4836   92.1182 C   0  0  0  0  0  0  0  0  0  0  0  0
   37.2174   38.0656   91.1430 O   0  0  0  0  0  0  0  0  0  0  0  0
   36.9394   38.3342   93.5960 C   0  0  1  0  0  0  0  0  0  0  0  0
   36.8923   36.9280   94.0263 N   0  0  1  0  0  0  0  0  0  0  0  0
   35.7493   36.1765   93.5438 C   0  0  0  0  0  0  0  0  0  0  0  0
   38.0908   36.2192   93.5769 C   0  0  0  0  0  0  0  0  0  0  0  0
   36.8859   36.8711   95.5002 C   0  0  0  0  0  0  0  0  0  0  0  0
   38.3246   38.9931   93.7834 C   0  0  0  0  0  0  0  0  0  0  0  0
   38.4385   40.1591   94.7996 C   0  0  0  0  0  0  0  0  0  0  0  0
   37.4518   40.5816   95.6010 N   0  0  0  0  0  0  0  0  0  0  0  0
   37.8818   41.6144   96.3419 C   0  0  0  0  0  0  0  0  0  0  0  0
   37.0438   42.4657   97.4508 S   0  0  0  0  0  0  0  0  0  0  0  0
   39.1536   41.8492   96.0032 N   0  0  0  0  0  0  0  0  0  0  0  0
   39.5245   40.9904   95.0689 C   0  0  0  0  0  0  0  0  0  0  0  0
   36.2248   38.8545   94.2506 H   0  0  0  0  0  0  0  0  0  0  0  0
   35.1721   35.7970   94.3998 H   0  0  0  0  0  0  0  0  0  0  0  0
   35.1111   36.8318   92.9328 H   0  0  0  0  0  0  0  0  0  0  0  0
   36.0979   35.3308   92.9328 H   0  0  0  0  0  0  0  0  0  0  0  0
   38.6653   35.8795   94.4513 H   0  0  0  0  0  0  0  0  0  0  0  0
   37.7969   35.3496   92.9708 H   0  0  0  0  0  0  0  0  0  0  0  0
   38.7112   36.8958   92.9708 H   0  0  0  0  0  0  0  0  0  0  0  0
   36.9995   37.8869   95.9068 H   0  0  0  0  0  0  0  0  0  0  0  0
   35.9342   36.4418   95.8464 H   0  0  0  0  0  0  0  0  0  0  0  0
   37.7194   36.2423   95.8464 H   0  0  0  0  0  0  0  0  0  0  0  0
   39.0212   38.2060   94.1076 H   0  0  0  0  0  0  0  0  0  0  0  0
   38.5475   39.4519   92.8089 H   0  0  0  0  0  0  0  0  0  0  0  0
   36.5062   40.1752   95.6423 H   0  0  0  0  0  0  0  0  0  0  0  0
   39.7512   42.5845   96.4070 H   0  0  0  0  0  0  0  0  0  0  0  0
   40.5135   40.9406   94.5898 H   0  0  0  0  0  0  0  0  0  0  0  0
  1  2  1  0
  2  3  2  0
  2  4  1  0
  4  5  1  0
  4  9  1  0
  5  6  1  6
  5  7  1  0
  5  8  1  0
  9 10  1  0
 10 11  1  0
 10 15  2  0
 11 12  1  0
 12 13  2  0
 12 14  1  0
 14 15  1  0
  4 16  1  1
  6 17  1  0
  6 18  1  0
  6 19  1  0
  7 20  1  0
  7 21  1  0
  7 22  1  0
  8 23  1  0
  8 24  1  0
  8 25  1  0
  9 26  1  0
  9 27  1  0
 11 28  1  0
 14 29  1  0
 15 30  1  0
M  CHG  2   1  -1   5   1
M  END
>  <filename_input>  (21) 
7TXK_LW8_docked.sdf

>  <pdb_id>  (21) 
7TXK_LW8

>  <pose_rank>  (21) 
20

>  <num_atoms_heavy>  (21) 
15

>  <num_torsions>  (21) 
4

>  <pose>  (21) 
[36.939395048126286, 38.33417929509921, 93.59599424360462, -2.929060155411976, 0.8402774656614533, -1.474287915914694, -20.72256046573076, -3.0079998279822333, 13.753747661718977, -3.4681801407012713]

>  <energy>  (21) 
-125.24026003374743

>  <inter_energy>  (21) 
-133.1090681456219

>  <intra_energy>  (21) 
9.745202229998164

>  <rmsd>  (21) 
11.1057

>  <sdf_rank>  (21) 
0

$$$$

     RDKit          3D

 30 30  0  0  0  0  0  0  0  0999 V2000
   35.4899   36.5233   92.5349 O   0  0  0  0  0  0  0  0  0  0  0  0
   36.5381   36.0825   93.0489 C   0  0  0  0  0  0  0  0  0  0  0  0
   37.2501   35.2555   92.4023 O   0  0  0  0  0  0  0  0  0  0  0  0
   36.8594   36.5548   94.4821 C   0  0  1  0  0  0  0  0  0  0  0  0
   36.6439   35.4784   95.4618 N   0  0  1  0  0  0  0  0  0  0  0  0
   35.3890   34.7644   95.3228 C   0  0  0  0  0  0  0  0  0  0  0  0
   37.7140   34.4850   95.3679 C   0  0  0  0  0  0  0  0  0  0  0  0
   36.6988   36.0428   96.8233 C   0  0  0  0  0  0  0  0  0  0  0  0
   38.2938   37.1295   94.4990 C   0  0  0  0  0  0  0  0  0  0  0  0
   38.4621   38.6437   94.7891 C   0  0  0  0  0  0  0  0  0  0  0  0
   37.4813   39.4660   95.1842 N   0  0  0  0  0  0  0  0  0  0  0  0
   37.9649   40.7090   95.3308 C   0  0  0  0  0  0  0  0  0  0  0  0
   37.1552   42.0489   95.7843 S   0  0  0  0  0  0  0  0  0  0  0  0
   39.2653   40.6727   95.0223 N   0  0  0  0  0  0  0  0  0  0  0  0
   39.6019   39.4394   94.6854 C   0  0  0  0  0  0  0  0  0  0  0  0
   36.1694   37.3559   94.7855 H   0  0  0  0  0  0  0  0  0  0  0  0
   34.9854   34.5347   96.3200 H   0  0  0  0  0  0  0  0  0  0  0  0
   34.6708   35.3890   94.7715 H   0  0  0  0  0  0  0  0  0  0  0  0
   35.5591   33.8278   94.7715 H   0  0  0  0  0  0  0  0  0  0  0  0
   38.0309   34.1908   96.3794 H   0  0  0  0  0  0  0  0  0  0  0  0
   37.3467   33.6005   94.8270 H   0  0  0  0  0  0  0  0  0  0  0  0
   38.5688   34.9169   94.8270 H   0  0  0  0  0  0  0  0  0  0  0  0
   36.6197   35.2303   97.5606 H   0  0  0  0  0  0  0  0  0  0  0  0
   37.6527   36.5726   96.9624 H   0  0  0  0  0  0  0  0  0  0  0  0
   35.8649   36.7466   96.9624 H   0  0  0  0  0  0  0  0  0  0  0  0
   38.8572   36.5830   95.2696 H   0  0  0  0  0  0  0  0  0  0  0  0
   38.6553   37.0029   93.4678 H   0  0  0  0  0  0  0  0  0  0  0  0
   36.5040   39.1865   95.3504 H   0  0  0  0  0  0  0  0  0  0  0  0
   39.9050   41.4797   95.0438 H   0  0  0  0  0  0  0  0  0  0  0  0
   40.6026   39.1015   94.3781 H   0  0  0  0  0  0  0  0  0  0  0  0
  1  2  1  0
  2  3  2  0
  2  4  1  0
  4  5  1  0
  4  9  1  0
  5  6  1  6
  5  7  1  0
  5  8  1  0
  9 10  1  0
 10 11  1  0
 10 15  2  0
 11 12  1  0
 12 13  2  0
 12 14  1  0
 14 15  1  0
  4 16  1  1
  6 17  1  0
  6 18  1  0
  6 19  1  0
  7 20  1  0
  7 21  1  0
  7 22  1  0
  8 23  1  0
  8 24  1  0
  8 25  1  0
  9 26  1  0
  9 27  1  0
 11 28  1  0
 14 29  1  0
 15 30  1  0
M  CHG  2   1  -1   5   1
M  END
>  <filename_input>  (22) 
7TXK_LW8_docked.sdf

>  <pdb_id>  (22) 
7TXK_LW8

>  <pose_rank>  (22) 
21

>  <num_atoms_heavy>  (22) 
15

>  <num_torsions>  (22) 
4

>  <pose>  (22) 
[36.85937487355434, 36.554822055324834, 94.48209976216891, -3.125093440588797, 0.7516692471566385, -2.002219171885009, -20.827565880329047, -3.031624011995489, 13.647017953247094, -3.4084018665149842]

>  <energy>  (22) 
-123.30940332330483

>  <inter_energy>  (22) 
-128.55547376949164

>  <intra_energy>  (22) 
10.677729030805423

>  <rmsd>  (22) 
12.1041

>  <sdf_rank>  (22) 
0

$$$$

     RDKit          3D

 30 30  0  0  0  0  0  0  0  0999 V2000
   32.0917   53.1323   84.1724 O   0  0  0  0  0  0  0  0  0  0  0  0
   32.8789   52.8848   83.2364 C   0  0  0  0  0  0  0  0  0  0  0  0
   33.8523   53.6678   83.0163 O   0  0  0  0  0  0  0  0  0  0  0  0
   32.5636   51.6444   82.3749 C   0  0  1  0  0  0  0  0  0  0  0  0
   31.3031   51.8126   81.6348 N   0  0  1  0  0  0  0  0  0  0  0  0
   30.1288   51.2710   82.2917 C   0  0  0  0  0  0  0  0  0  0  0  0
   31.0419   53.2318   81.3932 C   0  0  0  0  0  0  0  0  0  0  0  0
   31.4254   51.1667   80.3144 C   0  0  0  0  0  0  0  0  0  0  0  0
   33.7807   51.3553   81.4676 C   0  0  0  0  0  0  0  0  0  0  0  0
   34.2857   49.8916   81.3807 C   0  0  0  0  0  0  0  0  0  0  0  0
   35.4963   49.5190   80.9449 N   0  0  0  0  0  0  0  0  0  0  0  0
   35.6003   48.1819   80.9868 C   0  0  0  0  0  0  0  0  0  0  0  0
   36.8750   47.2648   80.5500 S   0  0  0  0  0  0  0  0  0  0  0  0
   34.4416   47.7036   81.4516 N   0  0  0  0  0  0  0  0  0  0  0  0
   33.6191   48.7091   81.6976 C   0  0  0  0  0  0  0  0  0  0  0  0
   32.4009   50.7645   83.0147 H   0  0  0  0  0  0  0  0  0  0  0  0
   30.2585   51.3308   83.3824 H   0  0  0  0  0  0  0  0  0  0  0  0
   29.2426   51.8513   81.9954 H   0  0  0  0  0  0  0  0  0  0  0  0
   29.9948   50.2202   81.9954 H   0  0  0  0  0  0  0  0  0  0  0  0
   30.9455   53.7558   82.3556 H   0  0  0  0  0  0  0  0  0  0  0  0
   31.8753   53.6658   80.8213 H   0  0  0  0  0  0  0  0  0  0  0  0
   30.1086   53.3407   80.8213 H   0  0  0  0  0  0  0  0  0  0  0  0
   31.6285   50.0940   80.4484 H   0  0  0  0  0  0  0  0  0  0  0  0
   30.4870   51.2952   79.7550 H   0  0  0  0  0  0  0  0  0  0  0  0
   32.2519   51.6293   79.7550 H   0  0  0  0  0  0  0  0  0  0  0  0
   33.5127   51.6711   80.4485 H   0  0  0  0  0  0  0  0  0  0  0  0
   34.6105   51.9078   81.9325 H   0  0  0  0  0  0  0  0  0  0  0  0
   36.2355   50.1616   80.6260 H   0  0  0  0  0  0  0  0  0  0  0  0
   34.2237   46.7073   81.5956 H   0  0  0  0  0  0  0  0  0  0  0  0
   32.5922   48.6272   82.0833 H   0  0  0  0  0  0  0  0  0  0  0  0
  1  2  1  0
  2  3  2  0
  2  4  1  0
  4  5  1  0
  4  9  1  0
  5  6  1  1
  5  7  1  0
  5  8  1  0
  9 10  1  0
 10 11  1  0
 10 15  2  0
 11 12  1  0
 12 13  2  0
 12 14  1  0
 14 15  1  0
  4 16  1  1
  6 17  1  0
  6 18  1  0
  6 19  1  0
  7 20  1  0
  7 21  1  0
  7 22  1  0
  8 23  1  0
  8 24  1  0
  8 25  1  0
  9 26  1  0
  9 27  1  0
 11 28  1  0
 14 29  1  0
 15 30  1  0
M  CHG  2   1  -1   5   1
M  END
>  <filename_input>  (23) 
7TXK_LW8_docked.sdf

>  <pdb_id>  (23) 
7TXK_LW8

>  <pose_rank>  (23) 
22

>  <num_atoms_heavy>  (23) 
15

>  <num_torsions>  (23) 
4

>  <pose>  (23) 
[32.563619627129405, 51.644384817683246, 82.37488257871739, -1.3493285237782482, 1.866905652257027, 0.7474733621587883, -2.7954618063113466, 2.5179830104248353, 1.4098878001435953, -0.09329197147791157]

>  <energy>  (23) 
-120.15689842273686

>  <inter_energy>  (23) 
-136.7516155940117

>  <intra_energy>  (23) 
26.588807564229274

>  <rmsd>  (23) 
11.6548

>  <sdf_rank>  (23) 
0

$$$$

     RDKit          3D

 30 30  0  0  0  0  0  0  0  0999 V2000
   30.6803   42.8826   91.2728 O   0  0  0  0  0  0  0  0  0  0  0  0
   30.3971   43.4507   90.1985 C   0  0  0  0  0  0  0  0  0  0  0  0
   30.0280   42.7557   89.2036 O   0  0  0  0  0  0  0  0  0  0  0  0
   30.5727   44.9830   90.1572 C   0  0  1  0  0  0  0  0  0  0  0  0
   29.3965   45.6721   90.7109 N   0  0  1  0  0  0  0  0  0  0  0  0
   29.4598   47.1207   90.6733 C   0  0  0  0  0  0  0  0  0  0  0  0
   28.1888   45.2777   89.9851 C   0  0  0  0  0  0  0  0  0  0  0  0
   29.2087   45.2603   92.1147 C   0  0  0  0  0  0  0  0  0  0  0  0
   31.8950   45.3444   90.8706 C   0  0  0  0  0  0  0  0  0  0  0  0
   32.1154   44.7966   92.3046 C   0  0  0  0  0  0  0  0  0  0  0  0
   33.0621   43.9164   92.6560 N   0  0  0  0  0  0  0  0  0  0  0  0
   32.9646   43.6465   93.9667 C   0  0  0  0  0  0  0  0  0  0  0  0
   33.8865   42.6325   94.8491 S   0  0  0  0  0  0  0  0  0  0  0  0
   31.9432   44.3617   94.4488 N   0  0  0  0  0  0  0  0  0  0  0  0
   31.4017   45.0677   93.4709 C   0  0  0  0  0  0  0  0  0  0  0  0
   30.6419   45.3330   89.1166 H   0  0  0  0  0  0  0  0  0  0  0  0
   29.4770   47.5137   91.7005 H   0  0  0  0  0  0  0  0  0  0  0  0
   30.3725   47.4342   90.1454 H   0  0  0  0  0  0  0  0  0  0  0  0
   28.5780   47.5127   90.1454 H   0  0  0  0  0  0  0  0  0  0  0  0
   27.3972   45.0191   90.7038 H   0  0  0  0  0  0  0  0  0  0  0  0
   27.8519   46.1124   89.3530 H   0  0  0  0  0  0  0  0  0  0  0  0
   28.4095   44.4049   89.3530 H   0  0  0  0  0  0  0  0  0  0  0  0
   29.5716   46.0560   92.7819 H   0  0  0  0  0  0  0  0  0  0  0  0
   28.1401   45.0816   92.3046 H   0  0  0  0  0  0  0  0  0  0  0  0
   29.7744   44.3362   92.3046 H   0  0  0  0  0  0  0  0  0  0  0  0
   32.7184   44.9686   90.2455 H   0  0  0  0  0  0  0  0  0  0  0  0
   31.8537   46.4366   90.9943 H   0  0  0  0  0  0  0  0  0  0  0  0
   33.7593   43.5087   92.0168 H   0  0  0  0  0  0  0  0  0  0  0  0
   31.6274   44.3627   95.4292 H   0  0  0  0  0  0  0  0  0  0  0  0
   30.5416   45.7475   93.5613 H   0  0  0  0  0  0  0  0  0  0  0  0
  1  2  1  0
  2  3  2  0
  2  4  1  0
  4  5  1  0
  4  9  1  0
  5  6  1  1
  5  7  1  0
  5  8  1  0
  9 10  1  0
 10 11  1  0
 10 15  2  0
 11 12  1  0
 12 13  2  0
 12 14  1  0
 14 15  1  0
  4 16  1  6
  6 17  1  0
  6 18  1  0
  6 19  1  0
  7 20  1  0
  7 21  1  0
  7 22  1  0
  8 23  1  0
  8 24  1  0
  8 25  1  0
  9 26  1  0
  9 27  1  0
 11 28  1  0
 14 29  1  0
 15 30  1  0
M  CHG  2   1  -1   5   1
M  END
>  <filename_input>  (24) 
7TXK_LW8_docked.sdf

>  <pdb_id>  (24) 
7TXK_LW8

>  <pose_rank>  (24) 
23

>  <num_atoms_heavy>  (24) 
15

>  <num_torsions>  (24) 
4

>  <pose>  (24) 
[30.572671699521536, 44.98296145833094, 90.15715543017058, -6.104015006104246, 5.864725252174353, -35.14725523877878, -4.265223976701848, -0.07831241904704181, -20.68828861644326, -1.551339765219994]

>  <energy>  (24) 
-276.8370133458329

>  <inter_energy>  (24) 
-398.75753136343263

>  <intra_energy>  (24) 
130.17949991751937

>  <rmsd>  (24) 
4.03335

>  <sdf_rank>  (24) 
0

$$$$

     RDKit          3D

 30 30  0  0  0  0  0  0  0  0999 V2000
   32.5547   53.6230   84.1142 O   0  0  0  0  0  0  0  0  0  0  0  0
   32.8746   53.4708   82.9177 C   0  0  0  0  0  0  0  0  0  0  0  0
   32.5440   54.3514   82.0667 O   0  0  0  0  0  0  0  0  0  0  0  0
   33.6194   52.1680   82.5594 C   0  0  1  0  0  0  0  0  0  0  0  0
   32.7316   51.2139   81.8765 N   0  0  1  0  0  0  0  0  0  0  0  0
   33.3019   49.8997   81.6491 C   0  0  0  0  0  0  0  0  0  0  0  0
   31.5045   51.0199   82.6493 C   0  0  0  0  0  0  0  0  0  0  0  0
   32.3338   51.7705   80.5698 C   0  0  0  0  0  0  0  0  0  0  0  0
   34.8808   52.5326   81.7446 C   0  0  0  0  0  0  0  0  0  0  0  0
   36.2223   52.6672   82.5111 C   0  0  0  0  0  0  0  0  0  0  0  0
   37.1841   51.7357   82.5497 N   0  0  0  0  0  0  0  0  0  0  0  0
   38.2008   52.1668   83.3120 C   0  0  0  0  0  0  0  0  0  0  0  0
   39.5866   51.3847   83.6644 S   0  0  0  0  0  0  0  0  0  0  0  0
   37.8769   53.3832   83.7625 N   0  0  0  0  0  0  0  0  0  0  0  0
   36.6838   53.7183   83.3017 C   0  0  0  0  0  0  0  0  0  0  0  0
   33.9441   51.6484   83.4730 H   0  0  0  0  0  0  0  0  0  0  0  0
   33.5107   49.4184   82.6159 H   0  0  0  0  0  0  0  0  0  0  0  0
   32.5897   49.2846   81.0795 H   0  0  0  0  0  0  0  0  0  0  0  0
   34.2376   49.9996   81.0795 H   0  0  0  0  0  0  0  0  0  0  0  0
   31.7380   51.0568   83.7236 H   0  0  0  0  0  0  0  0  0  0  0  0
   30.7862   51.8156   82.4027 H   0  0  0  0  0  0  0  0  0  0  0  0
   31.0667   50.0414   82.4027 H   0  0  0  0  0  0  0  0  0  0  0  0
   31.7007   52.6564   80.7260 H   0  0  0  0  0  0  0  0  0  0  0  0
   33.2328   52.0573   80.0044 H   0  0  0  0  0  0  0  0  0  0  0  0
   31.7713   51.0129   80.0044 H   0  0  0  0  0  0  0  0  0  0  0  0
   35.0156   51.7518   80.9816 H   0  0  0  0  0  0  0  0  0  0  0  0
   34.6793   53.5429   81.3589 H   0  0  0  0  0  0  0  0  0  0  0  0
   37.1487   50.8263   82.0674 H   0  0  0  0  0  0  0  0  0  0  0  0
   38.4650   53.9680   84.3732 H   0  0  0  0  0  0  0  0  0  0  0  0
   36.1507   54.6586   83.5058 H   0  0  0  0  0  0  0  0  0  0  0  0
  1  2  1  0
  2  3  2  0
  2  4  1  0
  4  5  1  0
  4  9  1  0
  5  6  1  6
  5  7  1  0
  5  8  1  0
  9 10  1  0
 10 11  1  0
 10 15  2  0
 11 12  1  0
 12 13  2  0
 12 14  1  0
 14 15  1  0
  4 16  1  1
  6 17  1  0
  6 18  1  0
  6 19  1  0
  7 20  1  0
  7 21  1  0
  7 22  1  0
  8 23  1  0
  8 24  1  0
  8 25  1  0
  9 26  1  0
  9 27  1  0
 11 28  1  0
 14 29  1  0
 15 30  1  0
M  CHG  2   1  -1   5   1
M  END
>  <filename_input>  (25) 
7TXK_LW8_docked.sdf

>  <pdb_id>  (25) 
7TXK_LW8

>  <pose_rank>  (25) 
24

>  <num_atoms_heavy>  (25) 
15

>  <num_torsions>  (25) 
4

>  <pose>  (25) 
[33.619401027362116, 52.16802275166285, 82.55943353810788, 2.8355092437677896, -1.7736814393537357, -0.8581413813814017, 2.1126806179813635, -3.081805532439174, 0.7513288754269958, -1.7920141937931509]

>  <energy>  (25) 
-113.89544239968261

>  <inter_energy>  (25) 
-117.0897060466152

>  <intra_energy>  (25) 
16.88824351863146

>  <rmsd>  (25) 
12.9358

>  <sdf_rank>  (25) 
0

$$$$

     RDKit          3D

 30 30  0  0  0  0  0  0  0  0999 V2000
   28.7110   45.3740   91.6380 O   0  0  0  0  0  0  0  0  0  0  0  0
   28.8740   45.5850   90.4190 C   0  0  0  0  0  0  0  0  0  0  0  0
   27.8660   45.8240   89.6870 O   0  0  0  0  0  0  0  0  0  0  0  0
   30.3180   45.4850   89.8850 C   0  0  1  0  0  0  0  0  0  0  0  0
   31.0870   46.7020   90.1890 N   0  0  1  0  0  0  0  0  0  0  0  0
   31.3350   46.9350   91.5990 C   0  0  0  0  0  0  0  0  0  0  0  0
   32.3910   46.6570   89.5270 C   0  0  0  0  0  0  0  0  0  0  0  0
   30.3720   47.8750   89.6520 C   0  0  0  0  0  0  0  0  0  0  0  0
   30.9580   44.1930   90.4410 C   0  0  0  0  0  0  0  0  0  0  0  0
   30.1900   42.8610   90.2380 C   0  0  0  0  0  0  0  0  0  0  0  0
   30.3310   41.7670   90.9980 N   0  0  0  0  0  0  0  0  0  0  0  0
   29.5310   40.7920   90.5400 C   0  0  0  0  0  0  0  0  0  0  0  0
   29.3610   39.2810   91.1270 S   0  0  0  0  0  0  0  0  0  0  0  0
   28.8790   41.2740   89.4770 N   0  0  0  0  0  0  0  0  0  0  0  0
   29.2550   42.5230   89.2610 C   0  0  0  0  0  0  0  0  0  0  0  0
   30.3170   45.4178   88.7871 H   0  0  0  0  0  0  0  0  0  0  0  0
   30.6629   46.3036   92.1987 H   0  0  0  0  0  0  0  0  0  0  0  0
   32.3800   46.6845   91.8338 H   0  0  0  0  0  0  0  0  0  0  0  0
   31.1501   47.9936   91.8338 H   0  0  0  0  0  0  0  0  0  0  0  0
   33.1868   46.6295   90.2860 H   0  0  0  0  0  0  0  0  0  0  0  0
   32.4523   45.7562   88.8987 H   0  0  0  0  0  0  0  0  0  0  0  0
   32.5143   47.5514   88.8987 H   0  0  0  0  0  0  0  0  0  0  0  0
   29.9977   48.4890   90.4844 H   0  0  0  0  0  0  0  0  0  0  0  0
   31.0594   48.4729   89.0355 H   0  0  0  0  0  0  0  0  0  0  0  0
   29.5256   47.5379   89.0355 H   0  0  0  0  0  0  0  0  0  0  0  0
   31.9415   44.0812   89.9612 H   0  0  0  0  0  0  0  0  0  0  0  0
   30.9759   44.3394   91.5311 H   0  0  0  0  0  0  0  0  0  0  0  0
   30.9585   41.6864   91.8108 H   0  0  0  0  0  0  0  0  0  0  0  0
   28.1911   40.7535   88.9141 H   0  0  0  0  0  0  0  0  0  0  0  0
   28.8944   43.1783   88.4544 H   0  0  0  0  0  0  0  0  0  0  0  0
  1  2  1  0
  2  3  2  0
  2  4  1  0
  4  5  1  0
  4  9  1  0
  5  6  1  1
  5  7  1  0
  5  8  1  0
  9 10  1  0
 10 11  1  0
 10 15  2  0
 11 12  1  0
 12 13  2  0
 12 14  1  0
 14 15  1  0
  4 16  1  6
  6 17  1  0
  6 18  1  0
  6 19  1  0
  7 20  1  0
  7 21  1  0
  7 22  1  0
  8 23  1  0
  8 24  1  0
  8 25  1  0
  9 26  1  0
  9 27  1  0
 11 28  1  0
 14 29  1  0
 15 30  1  0
M  CHG  2   1  -1   5   1
M  END
>  <filename_input>  (26) 
7TXK_LW8_docked.sdf

>  <pdb_id>  (26) 
7TXK_LW8

>  <pose_rank>  (26) 
25

>  <num_atoms_heavy>  (26) 
15

>  <num_torsions>  (26) 
4

>  <pose>  (26) 
[30.318, 45.485, 89.885, 1e-06, 1e-06, 1e-06, 0.0, 0.0, 0.0, 0.0]

>  <energy>  (26) 
-622.8281797115144

>  <inter_energy>  (26) 
-644.9188863014031

>  <intra_energy>  (26) 
24.515361557750055

>  <rmsd>  (26) 
0.0

>  <sdf_rank>  (26) 
0

$$$$
