
     RDKit          3D

 66 71  0  0  0  0  0  0  0  0999 V2000
  -36.0004    5.4675   27.2394 N   0  0  0  0  0  0  0  0  0  0  0  0
  -33.6325    7.9702   22.5274 C   0  0  0  0  0  0  0  0  0  0  0  0
  -32.0941    8.6122   20.8179 C   0  0  0  0  0  0  0  0  0  0  0  0
  -33.1842    8.8758   21.6243 N   0  0  0  0  0  0  0  0  0  0  0  0
  -31.4138    7.4344   20.9857 C   0  0  0  0  0  0  0  0  0  0  0  0
  -35.8960    9.2810   24.8352 O   0  0  0  0  0  0  0  0  0  0  0  0
  -35.2442    6.1705   26.3932 C   0  0  0  0  0  0  0  0  0  0  0  0
  -34.5646    6.6612   24.0411 C   0  0  0  0  0  0  0  0  0  0  0  0
  -34.6680    7.9448   23.4311 C   0  0  0  0  0  0  0  0  0  0  0  0
  -32.9899    6.7847   22.6234 N   0  0  0  0  0  0  0  0  0  0  0  0
  -36.9354    4.6670   26.7265 C   0  0  0  0  0  0  0  0  0  0  0  0
  -37.1369    4.5608   25.3831 C   0  0  0  0  0  0  0  0  0  0  0  0
  -35.4609    6.0541   24.9965 C   0  0  0  0  0  0  0  0  0  0  0  0
  -33.5475    5.9797   23.5491 N   0  0  0  0  0  0  0  0  0  0  0  0
  -36.4197    5.2613   24.5051 N   0  0  0  0  0  0  0  0  0  0  0  0
  -34.1767    7.0175   27.0144 C   0  0  0  0  0  0  0  0  0  0  0  0
  -31.2489    5.4162   22.1705 O   0  0  0  0  0  0  0  0  0  0  0  0
  -31.8199    6.4583   21.9338 C   0  0  0  0  0  0  0  0  0  0  0  0
  -31.7395    9.6268   19.7956 C   0  0  0  0  0  0  0  0  0  0  0  0
  -32.6579   10.5709   19.3533 C   0  0  0  0  0  0  0  0  0  0  0  0
  -32.3375   11.4448   18.3482 C   0  0  0  0  0  0  0  0  0  0  0  0
  -31.1104   11.4021   17.7254 C   0  0  0  0  0  0  0  0  0  0  0  0
  -30.1844   10.4853   18.1772 C   0  0  0  0  0  0  0  0  0  0  0  0
  -30.4845    9.6219   19.2027 C   0  0  0  0  0  0  0  0  0  0  0  0
  -30.8494   12.3000   16.5389 C   0  0  2  0  0  0  0  0  0  0  0  0
  -30.7626   11.5677   15.2138 C   0  0  0  0  0  0  0  0  0  0  0  0
  -30.7068   12.5497   14.0541 C   0  0  0  0  0  0  0  0  0  0  0  0
  -29.5428   13.4987   14.1989 C   0  0  0  0  0  0  0  0  0  0  0  0
  -29.5545   14.1878   15.5427 C   0  0  0  0  0  0  0  0  0  0  0  0
  -29.6347   13.1909   16.6838 C   0  0  0  0  0  0  0  0  0  0  0  0
  -35.6827    8.9778   23.6960 C   0  0  0  0  0  0  0  0  0  0  0  0
  -37.4075   10.5271   22.6567 C   0  0  0  0  0  0  0  0  0  0  0  0
  -37.4786   10.3690   21.1450 C   0  0  2  0  0  0  0  0  0  0  0  0
  -36.4641    9.2127   21.2456 C   0  0  0  0  0  0  0  0  0  0  0  0
  -36.9764   11.5423   20.3662 C   0  0  0  0  0  0  0  0  0  0  0  0
  -36.7872   11.1937   19.1383 F   0  0  0  0  0  0  0  0  0  0  0  0
  -36.3401    9.5205   22.6692 N   0  0  0  0  0  0  0  0  0  0  0  0
  -33.6674    9.7813   21.5373 H   0  0  0  0  0  0  0  0  0  0  0  0
  -30.5256    7.2391   20.3667 H   0  0  0  0  0  0  0  0  0  0  0  0
  -37.5630    4.0745   27.4085 H   0  0  0  0  0  0  0  0  0  0  0  0
  -37.9145    3.8767   25.0124 H   0  0  0  0  0  0  0  0  0  0  0  0
  -34.2523    6.9574   28.1102 H   0  0  0  0  0  0  0  0  0  0  0  0
  -33.1886    6.6549   26.6947 H   0  0  0  0  0  0  0  0  0  0  0  0
  -34.3050    8.0621   26.6947 H   0  0  0  0  0  0  0  0  0  0  0  0
  -33.6548   10.6172   19.8160 H   0  0  0  0  0  0  0  0  0  0  0  0
  -33.0760   12.1963   18.0321 H   0  0  0  0  0  0  0  0  0  0  0  0
  -29.1898   10.4448   17.7091 H   0  0  0  0  0  0  0  0  0  0  0  0
  -29.7192    8.9167   19.5591 H   0  0  0  0  0  0  0  0  0  0  0  0
  -31.7458   12.9375   16.5292 H   0  0  0  0  0  0  0  0  0  0  0  0
  -29.8546   10.9469   15.2042 H   0  0  0  0  0  0  0  0  0  0  0  0
  -31.6585   10.9397   15.0999 H   0  0  0  0  0  0  0  0  0  0  0  0
  -30.5979   11.9890   13.1140 H   0  0  0  0  0  0  0  0  0  0  0  0
  -31.6369   13.1370   14.0496 H   0  0  0  0  0  0  0  0  0  0  0  0
  -28.6053   12.9328   14.0955 H   0  0  0  0  0  0  0  0  0  0  0  0
  -29.6247   14.2672   13.4162 H   0  0  0  0  0  0  0  0  0  0  0  0
  -28.6321   14.7777   15.6488 H   0  0  0  0  0  0  0  0  0  0  0  0
  -30.4433   14.8342   15.5890 H   0  0  0  0  0  0  0  0  0  0  0  0
  -29.7009   13.7379   17.6359 H   0  0  0  0  0  0  0  0  0  0  0  0
  -28.7329   12.5612   16.6642 H   0  0  0  0  0  0  0  0  0  0  0  0
  -37.0957   11.5259   22.9960 H   0  0  0  0  0  0  0  0  0  0  0  0
  -38.3035   10.4174   23.2853 H   0  0  0  0  0  0  0  0  0  0  0  0
  -38.4491   10.2397   20.6435 H   0  0  0  0  0  0  0  0  0  0  0  0
  -36.8804    8.2183   21.0270 H   0  0  0  0  0  0  0  0  0  0  0  0
  -35.5833    9.1603   20.5888 H   0  0  0  0  0  0  0  0  0  0  0  0
  -37.7176   12.3540   20.4069 H   0  0  0  0  0  0  0  0  0  0  0  0
  -36.0271   11.8908   20.7990 H   0  0  0  0  0  0  0  0  0  0  0  0
  1  7  2  0
  1 11  1  0
  2  4  1  0
  2  9  2  0
  2 10  1  0
  3  4  1  0
  3  5  2  0
  3 19  1  0
  5 18  1  0
  6 31  2  0
  7 13  1  0
  7 16  1  0
  8  9  1  0
  8 13  1  0
  8 14  2  0
  9 31  1  0
 10 14  1  0
 10 18  1  0
 11 12  2  0
 12 15  1  0
 13 15  2  0
 17 18  2  0
 19 20  2  0
 19 24  1  0
 20 21  1  0
 21 22  2  0
 22 23  1  0
 25 22  1  0
 23 24  2  0
 25 26  1  0
 25 30  1  0
 26 27  1  0
 27 28  1  0
 28 29  1  0
 29 30  1  0
 31 37  1  0
 32 33  1  0
 32 37  1  0
 33 34  1  0
 33 35  1  0
 34 37  1  0
 35 36  1  0
  4 38  1  0
  5 39  1  0
 11 40  1  0
 12 41  1  0
 16 42  1  0
 16 43  1  0
 16 44  1  0
 20 45  1  0
 21 46  1  0
 23 47  1  0
 24 48  1  0
 25 49  1  6
 26 50  1  0
 26 51  1  0
 27 52  1  0
 27 53  1  0
 28 54  1  0
 28 55  1  0
 29 56  1  0
 29 57  1  0
 30 58  1  0
 30 59  1  0
 32 60  1  0
 32 61  1  0
 33 62  1  1
 34 63  1  0
 34 64  1  0
 35 65  1  0
 35 66  1  0
M  END
>  <filename_input>  (1) 
7TYP_KUR_docked.sdf

>  <pdb_id>  (1) 
7TYP_KUR

>  <pose_rank>  (1) 
0

>  <num_atoms_heavy>  (1) 
37

>  <num_torsions>  (1) 
5

>  <pose>  (1) 
[-33.632530207797906, 7.970151435735091, 22.527430315319265, 1.377722830254556, -2.2297912257081944, 5.621248782649733, 0.6362157456991852, -6.0921462672193805, -0.12893024862076163, 0.08393447033375069, -0.14007326324855926]

>  <energy>  (1) 
-1081.2681335838893

>  <inter_energy>  (1) 
-1082.5364832932364

>  <intra_energy>  (1) 
15.61487833761797

>  <rmsd>  (1) 
0.484328

>  <sdf_rank>  (1) 
0

$$$$

     RDKit          3D

 66 71  0  0  0  0  0  0  0  0999 V2000
  -35.8246    5.0456   27.3219 N   0  0  0  0  0  0  0  0  0  0  0  0
  -33.7319    7.7991   22.5663 C   0  0  0  0  0  0  0  0  0  0  0  0
  -32.1549    8.5303   20.9292 C   0  0  0  0  0  0  0  0  0  0  0  0
  -33.3703    8.6495   21.5749 N   0  0  0  0  0  0  0  0  0  0  0  0
  -31.2712    7.5710   21.3498 C   0  0  0  0  0  0  0  0  0  0  0  0
  -36.7242    8.5096   22.3467 O   0  0  0  0  0  0  0  0  0  0  0  0
  -35.0813    5.7931   26.5028 C   0  0  0  0  0  0  0  0  0  0  0  0
  -34.5567    6.5347   24.1770 C   0  0  0  0  0  0  0  0  0  0  0  0
  -34.8464    7.6654   23.3597 C   0  0  0  0  0  0  0  0  0  0  0  0
  -32.8739    6.8140   22.9141 N   0  0  0  0  0  0  0  0  0  0  0  0
  -36.8659    4.3941   26.8027 C   0  0  0  0  0  0  0  0  0  0  0  0
  -37.1858    4.4813   25.4811 C   0  0  0  0  0  0  0  0  0  0  0  0
  -35.4216    5.8783   25.1288 C   0  0  0  0  0  0  0  0  0  0  0  0
  -33.3654    6.0392   23.9010 N   0  0  0  0  0  0  0  0  0  0  0  0
  -36.4841    5.2335   24.6340 N   0  0  0  0  0  0  0  0  0  0  0  0
  -33.8955    6.4660   27.1225 C   0  0  0  0  0  0  0  0  0  0  0  0
  -30.8424    5.8247   22.8569 O   0  0  0  0  0  0  0  0  0  0  0  0
  -31.5829    6.6684   22.4009 C   0  0  0  0  0  0  0  0  0  0  0  0
  -31.8916    9.4481   19.7941 C   0  0  0  0  0  0  0  0  0  0  0  0
  -30.6522    9.4998   19.1682 C   0  0  0  0  0  0  0  0  0  0  0  0
  -30.4034   10.4133   18.1781 C   0  0  0  0  0  0  0  0  0  0  0  0
  -31.3580   11.3256   17.7882 C   0  0  0  0  0  0  0  0  0  0  0  0
  -32.5990   11.2626   18.3865 C   0  0  0  0  0  0  0  0  0  0  0  0
  -32.8692   10.3332   19.3613 C   0  0  0  0  0  0  0  0  0  0  0  0
  -30.9960   12.3939   16.7833 C   0  0  2  0  0  0  0  0  0  0  0  0
  -30.9752   11.9120   15.3457 C   0  0  0  0  0  0  0  0  0  0  0  0
  -30.8088   13.0788   14.3849 C   0  0  0  0  0  0  0  0  0  0  0  0
  -29.5539   13.8597   14.6878 C   0  0  0  0  0  0  0  0  0  0  0  0
  -29.5045   14.2882   16.1351 C   0  0  0  0  0  0  0  0  0  0  0  0
  -29.6966   13.1127   17.0752 C   0  0  0  0  0  0  0  0  0  0  0  0
  -36.0796    8.4691   23.3557 C   0  0  0  0  0  0  0  0  0  0  0  0
  -37.5629   10.0261   24.7088 C   0  0  0  0  0  0  0  0  0  0  0  0
  -37.0025   10.2814   26.1002 C   0  0  2  0  0  0  0  0  0  0  0  0
  -35.7558    9.4586   25.7192 C   0  0  0  0  0  0  0  0  0  0  0  0
  -37.7974    9.6844   27.2170 C   0  0  0  0  0  0  0  0  0  0  0  0
  -37.5193    8.4286   27.3188 F   0  0  0  0  0  0  0  0  0  0  0  0
  -36.4228    9.1371   24.4589 N   0  0  0  0  0  0  0  0  0  0  0  0
  -34.0164    9.4018   21.2965 H   0  0  0  0  0  0  0  0  0  0  0  0
  -30.2900    7.4979   20.8580 H   0  0  0  0  0  0  0  0  0  0  0  0
  -37.4853    3.7674   27.4613 H   0  0  0  0  0  0  0  0  0  0  0  0
  -38.0487    3.9140   25.1022 H   0  0  0  0  0  0  0  0  0  0  0  0
  -33.9783    6.4190   28.2183 H   0  0  0  0  0  0  0  0  0  0  0  0
  -32.9753    5.9555   26.8021 H   0  0  0  0  0  0  0  0  0  0  0  0
  -33.8618    7.5178   26.8021 H   0  0  0  0  0  0  0  0  0  0  0  0
  -29.8609    8.7984   19.4714 H   0  0  0  0  0  0  0  0  0  0  0  0
  -29.4204   10.4181   17.6844 H   0  0  0  0  0  0  0  0  0  0  0  0
  -33.3849   11.9678   18.0782 H   0  0  0  0  0  0  0  0  0  0  0  0
  -33.8747   10.2898   19.8052 H   0  0  0  0  0  0  0  0  0  0  0  0
  -31.8214   13.1115   16.9008 H   0  0  0  0  0  0  0  0  0  0  0  0
  -30.1364   11.2130   15.2122 H   0  0  0  0  0  0  0  0  0  0  0  0
  -31.9305   11.4115   15.1288 H   0  0  0  0  0  0  0  0  0  0  0  0
  -30.7513   12.6918   13.3568 H   0  0  0  0  0  0  0  0  0  0  0  0
  -31.6729   13.7499   14.4986 H   0  0  0  0  0  0  0  0  0  0  0  0
  -28.6793   13.2285   14.4719 H   0  0  0  0  0  0  0  0  0  0  0  0
  -29.5495   14.7629   14.0601 H   0  0  0  0  0  0  0  0  0  0  0  0
  -28.5268   14.7500   16.3370 H   0  0  0  0  0  0  0  0  0  0  0  0
  -30.3219   15.0035   16.3090 H   0  0  0  0  0  0  0  0  0  0  0  0
  -29.7132   13.4798   18.1120 H   0  0  0  0  0  0  0  0  0  0  0  0
  -28.8649   12.4075   16.9304 H   0  0  0  0  0  0  0  0  0  0  0  0
  -38.5422    9.5253   24.6970 H   0  0  0  0  0  0  0  0  0  0  0  0
  -37.8000   10.8564   24.0273 H   0  0  0  0  0  0  0  0  0  0  0  0
  -36.9174   11.3076   26.4869 H   0  0  0  0  0  0  0  0  0  0  0  0
  -34.8336   10.0485   25.6114 H   0  0  0  0  0  0  0  0  0  0  0  0
  -35.3609    8.6721   26.3790 H   0  0  0  0  0  0  0  0  0  0  0  0
  -37.5457   10.1933   28.1592 H   0  0  0  0  0  0  0  0  0  0  0  0
  -38.8707    9.8070   27.0098 H   0  0  0  0  0  0  0  0  0  0  0  0
  1  7  2  0
  1 11  1  0
  2  4  1  0
  2  9  2  0
  2 10  1  0
  3  4  1  0
  3  5  2  0
  3 19  1  0
  5 18  1  0
  6 31  2  0
  7 13  1  0
  7 16  1  0
  8  9  1  0
  8 13  1  0
  8 14  2  0
  9 31  1  0
 10 14  1  0
 10 18  1  0
 11 12  2  0
 12 15  1  0
 13 15  2  0
 17 18  2  0
 19 20  2  0
 19 24  1  0
 20 21  1  0
 21 22  2  0
 22 23  1  0
 25 22  1  0
 23 24  2  0
 25 26  1  0
 25 30  1  0
 26 27  1  0
 27 28  1  0
 28 29  1  0
 29 30  1  0
 31 37  1  0
 32 33  1  0
 32 37  1  0
 33 34  1  0
 33 35  1  0
 34 37  1  0
 35 36  1  0
  4 38  1  0
  5 39  1  0
 11 40  1  0
 12 41  1  0
 16 42  1  0
 16 43  1  0
 16 44  1  0
 20 45  1  0
 21 46  1  0
 23 47  1  0
 24 48  1  0
 25 49  1  6
 26 50  1  0
 26 51  1  0
 27 52  1  0
 27 53  1  0
 28 54  1  0
 28 55  1  0
 29 56  1  0
 29 57  1  0
 30 58  1  0
 30 59  1  0
 32 60  1  0
 32 61  1  0
 33 62  1  1
 34 63  1  0
 34 64  1  0
 35 65  1  0
 35 66  1  0
M  END
>  <filename_input>  (2) 
7TYP_KUR_docked.sdf

>  <pdb_id>  (2) 
7TYP_KUR

>  <pose_rank>  (2) 
1

>  <num_atoms_heavy>  (2) 
37

>  <num_torsions>  (2) 
5

>  <pose>  (2) 
[-33.73185558170734, 7.799114372279598, 22.566327394890266, 4.2491686611690636, 2.3097551912305603, -3.6236422524327914, 0.1765127550249653, -2.7478633953994636, -1.6170938934225563, -2.817529688601864, -3.1406942239206552]

>  <energy>  (2) 
-967.7895966517946

>  <inter_energy>  (2) 
-979.801573814344

>  <intra_energy>  (2) 
11.646623286896236

>  <rmsd>  (2) 
2.2989

>  <sdf_rank>  (2) 
0

$$$$

     RDKit          3D

 66 71  0  0  0  0  0  0  0  0999 V2000
  -29.1793   13.4378   16.6911 N   0  0  0  0  0  0  0  0  0  0  0  0
  -32.1978    9.6525   19.8473 C   0  0  0  0  0  0  0  0  0  0  0  0
  -32.6418    8.0141   21.5266 C   0  0  0  0  0  0  0  0  0  0  0  0
  -32.9821    9.1621   20.8379 N   0  0  0  0  0  0  0  0  0  0  0  0
  -31.5197    7.3227   21.1508 C   0  0  0  0  0  0  0  0  0  0  0  0
  -33.0601   12.7898   18.3385 O   0  0  0  0  0  0  0  0  0  0  0  0
  -29.5061   12.4717   17.5524 C   0  0  0  0  0  0  0  0  0  0  0  0
  -31.0847   10.6590   18.2282 C   0  0  0  0  0  0  0  0  0  0  0  0
  -32.2673   10.7467   19.0182 C   0  0  0  0  0  0  0  0  0  0  0  0
  -31.0571    8.9937   19.5438 N   0  0  0  0  0  0  0  0  0  0  0  0
  -29.9030   13.5545   15.5771 C   0  0  0  0  0  0  0  0  0  0  0  0
  -30.9429   12.7185   15.3011 C   0  0  0  0  0  0  0  0  0  0  0  0
  -30.5897   11.6059   17.2571 C   0  0  0  0  0  0  0  0  0  0  0  0
  -30.3723    9.5967   18.5522 N   0  0  0  0  0  0  0  0  0  0  0  0
  -31.2880   11.7275   16.1226 N   0  0  0  0  0  0  0  0  0  0  0  0
  -28.6956   12.4115   18.8104 C   0  0  0  0  0  0  0  0  0  0  0  0
  -29.6917    7.1979   19.6855 O   0  0  0  0  0  0  0  0  0  0  0  0
  -30.6732    7.7726   20.1032 C   0  0  0  0  0  0  0  0  0  0  0  0
  -33.5145    7.6112   22.6563 C   0  0  0  0  0  0  0  0  0  0  0  0
  -34.2641    8.5396   23.3681 C   0  0  0  0  0  0  0  0  0  0  0  0
  -34.9977    8.1599   24.4610 C   0  0  0  0  0  0  0  0  0  0  0  0
  -34.9977    6.8573   24.9069 C   0  0  0  0  0  0  0  0  0  0  0  0
  -34.2773    5.9254   24.1895 C   0  0  0  0  0  0  0  0  0  0  0  0
  -33.5596    6.2890   23.0760 C   0  0  0  0  0  0  0  0  0  0  0  0
  -35.7191    6.5124   26.1885 C   0  0  2  0  0  0  0  0  0  0  0  0
  -36.7029    5.3659   26.0574 C   0  0  0  0  0  0  0  0  0  0  0  0
  -37.2305    4.9453   27.4202 C   0  0  0  0  0  0  0  0  0  0  0  0
  -37.8785    6.1050   28.1354 C   0  0  0  0  0  0  0  0  0  0  0  0
  -36.9515    7.2947   28.2138 C   0  0  0  0  0  0  0  0  0  0  0  0
  -36.4185    7.6818   26.8470 C   0  0  0  0  0  0  0  0  0  0  0  0
  -33.2962   11.7982   18.9679 C   0  0  0  0  0  0  0  0  0  0  0  0
  -35.5945   12.5130   19.7817 C   0  0  0  0  0  0  0  0  0  0  0  0
  -36.2161   11.4819   20.7122 C   0  0  2  0  0  0  0  0  0  0  0  0
  -34.9096   10.6672   20.6376 C   0  0  0  0  0  0  0  0  0  0  0  0
  -37.4032   10.7654   20.1527 C   0  0  0  0  0  0  0  0  0  0  0  0
  -37.4566   10.9532   18.8773 F   0  0  0  0  0  0  0  0  0  0  0  0
  -34.4374   11.6226   19.6371 N   0  0  0  0  0  0  0  0  0  0  0  0
  -33.8518    9.6567   21.0827 H   0  0  0  0  0  0  0  0  0  0  0  0
  -31.2670    6.3904   21.6771 H   0  0  0  0  0  0  0  0  0  0  0  0
  -29.6528   14.3496   14.8593 H   0  0  0  0  0  0  0  0  0  0  0  0
  -31.5144   12.8658   14.3729 H   0  0  0  0  0  0  0  0  0  0  0  0
  -29.3659   12.4613   19.6812 H   0  0  0  0  0  0  0  0  0  0  0  0
  -28.1294   11.4687   18.8370 H   0  0  0  0  0  0  0  0  0  0  0  0
  -27.9962   13.2601   18.8370 H   0  0  0  0  0  0  0  0  0  0  0  0
  -34.2685    9.5927   23.0502 H   0  0  0  0  0  0  0  0  0  0  0  0
  -35.5992    8.9114   24.9934 H   0  0  0  0  0  0  0  0  0  0  0  0
  -34.2774    4.8744   24.5141 H   0  0  0  0  0  0  0  0  0  0  0  0
  -33.0129    5.5212   22.5089 H   0  0  0  0  0  0  0  0  0  0  0  0
  -34.8929    6.1927   26.8405 H   0  0  0  0  0  0  0  0  0  0  0  0
  -37.5463    5.6852   25.4276 H   0  0  0  0  0  0  0  0  0  0  0  0
  -36.1855    4.5091   25.6011 H   0  0  0  0  0  0  0  0  0  0  0  0
  -37.9739    4.1457   27.2862 H   0  0  0  0  0  0  0  0  0  0  0  0
  -36.3845    4.5904   28.0271 H   0  0  0  0  0  0  0  0  0  0  0  0
  -38.7891    6.3966   27.5915 H   0  0  0  0  0  0  0  0  0  0  0  0
  -38.1195    5.7871   29.1605 H   0  0  0  0  0  0  0  0  0  0  0  0
  -37.5018    8.1481   28.6367 H   0  0  0  0  0  0  0  0  0  0  0  0
  -36.0969    7.0221   28.8506 H   0  0  0  0  0  0  0  0  0  0  0  0
  -35.7044    8.5108   26.9605 H   0  0  0  0  0  0  0  0  0  0  0  0
  -37.2644    7.9870   26.2136 H   0  0  0  0  0  0  0  0  0  0  0  0
  -36.1563   12.6845   18.8517 H   0  0  0  0  0  0  0  0  0  0  0  0
  -35.4732   13.5617   20.0908 H   0  0  0  0  0  0  0  0  0  0  0  0
  -36.6470   11.7896   21.6764 H   0  0  0  0  0  0  0  0  0  0  0  0
  -34.3249   10.6536   21.5692 H   0  0  0  0  0  0  0  0  0  0  0  0
  -34.9161    9.5846   20.4424 H   0  0  0  0  0  0  0  0  0  0  0  0
  -37.3139    9.6891   20.3615 H   0  0  0  0  0  0  0  0  0  0  0  0
  -38.3201   11.1544   20.6196 H   0  0  0  0  0  0  0  0  0  0  0  0
  1  7  2  0
  1 11  1  0
  2  4  1  0
  2  9  2  0
  2 10  1  0
  3  4  1  0
  3  5  2  0
  3 19  1  0
  5 18  1  0
  6 31  2  0
  7 13  1  0
  7 16  1  0
  8  9  1  0
  8 13  1  0
  8 14  2  0
  9 31  1  0
 10 14  1  0
 10 18  1  0
 11 12  2  0
 12 15  1  0
 13 15  2  0
 17 18  2  0
 19 20  2  0
 19 24  1  0
 20 21  1  0
 21 22  2  0
 22 23  1  0
 25 22  1  0
 23 24  2  0
 25 26  1  0
 25 30  1  0
 26 27  1  0
 27 28  1  0
 28 29  1  0
 29 30  1  0
 31 37  1  0
 32 33  1  0
 32 37  1  0
 33 34  1  0
 33 35  1  0
 34 37  1  0
 35 36  1  0
  4 38  1  0
  5 39  1  0
 11 40  1  0
 12 41  1  0
 16 42  1  0
 16 43  1  0
 16 44  1  0
 20 45  1  0
 21 46  1  0
 23 47  1  0
 24 48  1  0
 25 49  1  1
 26 50  1  0
 26 51  1  0
 27 52  1  0
 27 53  1  0
 28 54  1  0
 28 55  1  0
 29 56  1  0
 29 57  1  0
 30 58  1  0
 30 59  1  0
 32 60  1  0
 32 61  1  0
 33 62  1  1
 34 63  1  0
 34 64  1  0
 35 65  1  0
 35 66  1  0
M  END
>  <filename_input>  (3) 
7TYP_KUR_docked.sdf

>  <pdb_id>  (3) 
7TYP_KUR

>  <pose_rank>  (3) 
2

>  <num_atoms_heavy>  (3) 
37

>  <num_torsions>  (3) 
5

>  <pose>  (3) 
[-32.19781434695448, 9.652500108323258, 19.84727392562614, -2.3288173445640115, 2.214072727395629, 0.2272396857593546, 4.071152450075998, -0.8731208575656609, 3.536919301921524, -0.02481800336411724, -2.289334337429817]

>  <energy>  (3) 
-757.2061683556017

>  <inter_energy>  (3) 
-867.2176704796494

>  <intra_energy>  (3) 
103.18038541810361

>  <rmsd>  (3) 
9.32756

>  <sdf_rank>  (3) 
0

$$$$

     RDKit          3D

 66 71  0  0  0  0  0  0  0  0999 V2000
  -36.3171    6.4378   27.6464 N   0  0  0  0  0  0  0  0  0  0  0  0
  -35.1297    8.7459   22.5440 C   0  0  0  0  0  0  0  0  0  0  0  0
  -34.7241   10.3170   20.7922 C   0  0  0  0  0  0  0  0  0  0  0  0
  -34.3296    9.2467   21.5713 N   0  0  0  0  0  0  0  0  0  0  0  0
  -35.9800   10.8372   20.9659 C   0  0  0  0  0  0  0  0  0  0  0  0
  -34.0144    5.9116   24.4485 O   0  0  0  0  0  0  0  0  0  0  0  0
  -36.0714    7.2736   26.6348 C   0  0  0  0  0  0  0  0  0  0  0  0
  -36.2287    7.7743   24.1937 C   0  0  0  0  0  0  0  0  0  0  0  0
  -35.0081    7.7282   23.4599 C   0  0  0  0  0  0  0  0  0  0  0  0
  -36.3351    9.3232   22.7464 N   0  0  0  0  0  0  0  0  0  0  0  0
  -37.0558    5.3555   27.3990 C   0  0  0  0  0  0  0  0  0  0  0  0
  -37.5627    5.0951   26.1613 C   0  0  0  0  0  0  0  0  0  0  0  0
  -36.6031    6.9949   25.3500 C   0  0  0  0  0  0  0  0  0  0  0  0
  -37.0172    8.7339   23.7481 N   0  0  0  0  0  0  0  0  0  0  0  0
  -37.3603    5.9144   25.1299 N   0  0  0  0  0  0  0  0  0  0  0  0
  -35.1976    8.4482   26.9506 C   0  0  0  0  0  0  0  0  0  0  0  0
  -38.0096   10.7135   22.1363 O   0  0  0  0  0  0  0  0  0  0  0  0
  -36.8729   10.3374   21.9506 C   0  0  0  0  0  0  0  0  0  0  0  0
  -33.7407   10.8528   19.8195 C   0  0  0  0  0  0  0  0  0  0  0  0
  -33.9902   12.0081   19.0890 C   0  0  0  0  0  0  0  0  0  0  0  0
  -33.1070   12.4397   18.1348 C   0  0  0  0  0  0  0  0  0  0  0  0
  -31.9601   11.7340   17.8481 C   0  0  0  0  0  0  0  0  0  0  0  0
  -31.6929   10.6010   18.5877 C   0  0  0  0  0  0  0  0  0  0  0  0
  -32.5573   10.1733   19.5659 C   0  0  0  0  0  0  0  0  0  0  0  0
  -31.0824   12.1795   16.7022 C   0  0  2  0  0  0  0  0  0  0  0  0
  -30.5560   13.5952   16.8378 C   0  0  0  0  0  0  0  0  0  0  0  0
  -29.5239   13.8955   15.7622 C   0  0  0  0  0  0  0  0  0  0  0  0
  -30.0975   13.6858   14.3826 C   0  0  0  0  0  0  0  0  0  0  0  0
  -30.7027   12.3098   14.2381 C   0  0  0  0  0  0  0  0  0  0  0  0
  -31.7113   12.0223   15.3347 C   0  0  0  0  0  0  0  0  0  0  0  0
  -33.8734    6.8155   23.6751 C   0  0  0  0  0  0  0  0  0  0  0  0
  -31.4543    6.3139   23.0822 C   0  0  0  0  0  0  0  0  0  0  0  0
  -30.8775    7.3429   22.1211 C   0  0  2  0  0  0  0  0  0  0  0  0
  -32.1944    8.1375   22.2248 C   0  0  0  0  0  0  0  0  0  0  0  0
  -30.5932    6.8287   20.7463 C   0  0  0  0  0  0  0  0  0  0  0  0
  -31.7047    6.6520   20.1154 F   0  0  0  0  0  0  0  0  0  0  0  0
  -32.7296    7.0370   23.0242 N   0  0  0  0  0  0  0  0  0  0  0  0
  -33.4065    8.8194   21.4094 H   0  0  0  0  0  0  0  0  0  0  0  0
  -36.3066   11.6676   20.3226 H   0  0  0  0  0  0  0  0  0  0  0  0
  -37.2622    4.6518   28.2189 H   0  0  0  0  0  0  0  0  0  0  0  0
  -38.1564    4.1818   26.0090 H   0  0  0  0  0  0  0  0  0  0  0  0
  -35.1142    8.5603   28.0417 H   0  0  0  0  0  0  0  0  0  0  0  0
  -34.1978    8.2874   26.5210 H   0  0  0  0  0  0  0  0  0  0  0  0
  -35.6391    9.3596   26.5210 H   0  0  0  0  0  0  0  0  0  0  0  0
  -34.9082   12.5834   19.2793 H   0  0  0  0  0  0  0  0  0  0  0  0
  -33.3186   13.3694   17.5863 H   0  0  0  0  0  0  0  0  0  0  0  0
  -30.7730   10.0307   18.3911 H   0  0  0  0  0  0  0  0  0  0  0  0
  -32.3081    9.2794   20.1566 H   0  0  0  0  0  0  0  0  0  0  0  0
  -30.2350   11.4819   16.7747 H   0  0  0  0  0  0  0  0  0  0  0  0
  -31.3935   14.3017   16.7406 H   0  0  0  0  0  0  0  0  0  0  0  0
  -30.0778   13.6996   17.8229 H   0  0  0  0  0  0  0  0  0  0  0  0
  -29.1974   14.9413   15.8601 H   0  0  0  0  0  0  0  0  0  0  0  0
  -28.6737   13.2101   15.8940 H   0  0  0  0  0  0  0  0  0  0  0  0
  -30.8774   14.4401   14.2014 H   0  0  0  0  0  0  0  0  0  0  0  0
  -29.2816   13.7826   13.6512 H   0  0  0  0  0  0  0  0  0  0  0  0
  -31.2075   12.2429   13.2631 H   0  0  0  0  0  0  0  0  0  0  0  0
  -29.8929   11.5692   14.3143 H   0  0  0  0  0  0  0  0  0  0  0  0
  -32.0796   10.9917   15.2241 H   0  0  0  0  0  0  0  0  0  0  0  0
  -32.5411   12.7388   15.2453 H   0  0  0  0  0  0  0  0  0  0  0  0
  -31.4929    5.2895   22.6833 H   0  0  0  0  0  0  0  0  0  0  0  0
  -30.9661    6.0928   24.0428 H   0  0  0  0  0  0  0  0  0  0  0  0
  -29.9048    7.8136   22.3269 H   0  0  0  0  0  0  0  0  0  0  0  0
  -32.1107    9.0942   22.7611 H   0  0  0  0  0  0  0  0  0  0  0  0
  -32.7166    8.5063   21.3296 H   0  0  0  0  0  0  0  0  0  0  0  0
  -29.9747    7.5580   20.2025 H   0  0  0  0  0  0  0  0  0  0  0  0
  -30.0549    5.8719   20.8164 H   0  0  0  0  0  0  0  0  0  0  0  0
  1  7  2  0
  1 11  1  0
  2  4  1  0
  2  9  2  0
  2 10  1  0
  3  4  1  0
  3  5  2  0
  3 19  1  0
  5 18  1  0
  6 31  2  0
  7 13  1  0
  7 16  1  0
  8  9  1  0
  8 13  1  0
  8 14  2  0
  9 31  1  0
 10 14  1  0
 10 18  1  0
 11 12  2  0
 12 15  1  0
 13 15  2  0
 17 18  2  0
 19 20  2  0
 19 24  1  0
 20 21  1  0
 21 22  2  0
 22 23  1  0
 25 22  1  0
 23 24  2  0
 25 26  1  0
 25 30  1  0
 26 27  1  0
 27 28  1  0
 28 29  1  0
 29 30  1  0
 31 37  1  0
 32 33  1  0
 32 37  1  0
 33 34  1  0
 33 35  1  0
 34 37  1  0
 35 36  1  0
  4 38  1  0
  5 39  1  0
 11 40  1  0
 12 41  1  0
 16 42  1  0
 16 43  1  0
 16 44  1  0
 20 45  1  0
 21 46  1  0
 23 47  1  0
 24 48  1  0
 25 49  1  6
 26 50  1  0
 26 51  1  0
 27 52  1  0
 27 53  1  0
 28 54  1  0
 28 55  1  0
 29 56  1  0
 29 57  1  0
 30 58  1  0
 30 59  1  0
 32 60  1  0
 32 61  1  0
 33 62  1  1
 34 63  1  0
 34 64  1  0
 35 65  1  0
 35 66  1  0
M  END
>  <filename_input>  (4) 
7TYP_KUR_docked.sdf

>  <pdb_id>  (4) 
7TYP_KUR

>  <pose_rank>  (4) 
3

>  <num_atoms_heavy>  (4) 
37

>  <num_torsions>  (4) 
5

>  <pose>  (4) 
[-35.129660284225636, 8.745882555353433, 22.543954033685274, -1.4879105826040087, -1.8283157386671376, 2.4376063929172065, -2.7079564028766407, -0.5306891162342454, -1.7356879109032606, 3.697182736147151, -3.4879183208012368]

>  <energy>  (4) 
-828.7327357330737

>  <inter_energy>  (4) 
-921.0214445729351

>  <intra_energy>  (4) 
95.06508267298926

>  <rmsd>  (4) 
3.76369

>  <sdf_rank>  (4) 
0

$$$$

     RDKit          3D

 66 71  0  0  0  0  0  0  0  0999 V2000
  -30.1473   12.0102   15.6240 N   0  0  0  0  0  0  0  0  0  0  0  0
  -33.4881   10.7830   20.1231 C   0  0  0  0  0  0  0  0  0  0  0  0
  -35.3384   10.0325   21.4326 C   0  0  0  0  0  0  0  0  0  0  0  0
  -33.9911   10.0250   21.1278 N   0  0  0  0  0  0  0  0  0  0  0  0
  -36.1699   10.8772   20.7447 C   0  0  0  0  0  0  0  0  0  0  0  0
  -29.9672   11.0001   19.9555 O   0  0  0  0  0  0  0  0  0  0  0  0
  -31.1518   11.6160   16.4099 C   0  0  0  0  0  0  0  0  0  0  0  0
  -32.4379   11.8957   18.5318 C   0  0  0  0  0  0  0  0  0  0  0  0
  -32.2330   10.9688   19.5944 C   0  0  0  0  0  0  0  0  0  0  0  0
  -34.3398   11.5530   19.4095 N   0  0  0  0  0  0  0  0  0  0  0  0
  -29.4755   13.1088   15.9703 C   0  0  0  0  0  0  0  0  0  0  0  0
  -29.7930   13.8282   17.0830 C   0  0  0  0  0  0  0  0  0  0  0  0
  -31.4756   12.3709   17.5659 C   0  0  0  0  0  0  0  0  0  0  0  0
  -33.7079   12.2414   18.4386 N   0  0  0  0  0  0  0  0  0  0  0  0
  -30.8020   13.4825   17.8820 N   0  0  0  0  0  0  0  0  0  0  0  0
  -31.8442   10.3508   16.0061 C   0  0  0  0  0  0  0  0  0  0  0  0
  -36.3574   12.5158   19.0761 O   0  0  0  0  0  0  0  0  0  0  0  0
  -35.6966   11.7143   19.6997 C   0  0  0  0  0  0  0  0  0  0  0  0
  -35.8057    9.0977   22.4853 C   0  0  0  0  0  0  0  0  0  0  0  0
  -36.9988    9.3023   23.1673 C   0  0  0  0  0  0  0  0  0  0  0  0
  -37.3712    8.4751   24.1939 C   0  0  0  0  0  0  0  0  0  0  0  0
  -36.5689    7.4333   24.6020 C   0  0  0  0  0  0  0  0  0  0  0  0
  -35.3961    7.2082   23.9122 C   0  0  0  0  0  0  0  0  0  0  0  0
  -35.0250    8.0142   22.8635 C   0  0  0  0  0  0  0  0  0  0  0  0
  -36.9609    6.6281   25.8186 C   0  0  2  0  0  0  0  0  0  0  0  0
  -36.4161    7.1726   27.1249 C   0  0  0  0  0  0  0  0  0  0  0  0
  -37.0181    6.4374   28.3120 C   0  0  0  0  0  0  0  0  0  0  0  0
  -36.7610    4.9535   28.2217 C   0  0  0  0  0  0  0  0  0  0  0  0
  -37.2208    4.3918   26.8974 C   0  0  0  0  0  0  0  0  0  0  0  0
  -36.6274    5.1548   25.7278 C   0  0  0  0  0  0  0  0  0  0  0  0
  -30.9645   10.3374   19.9934 C   0  0  0  0  0  0  0  0  0  0  0  0
  -29.8527    8.1860   20.7619 C   0  0  0  0  0  0  0  0  0  0  0  0
  -30.8449    7.0371   20.8665 C   0  0  2  0  0  0  0  0  0  0  0  0
  -31.9358    7.9632   20.2931 C   0  0  0  0  0  0  0  0  0  0  0  0
  -31.1235    6.5725   22.2600 C   0  0  0  0  0  0  0  0  0  0  0  0
  -32.1374    5.7745   22.2522 F   0  0  0  0  0  0  0  0  0  0  0  0
  -30.9649    9.0539   20.3591 N   0  0  0  0  0  0  0  0  0  0  0  0
  -33.3542    9.4299   21.6766 H   0  0  0  0  0  0  0  0  0  0  0  0
  -37.2369   10.9077   21.0101 H   0  0  0  0  0  0  0  0  0  0  0  0
  -28.6399   13.4444   15.3385 H   0  0  0  0  0  0  0  0  0  0  0  0
  -29.1989   14.7207   17.3291 H   0  0  0  0  0  0  0  0  0  0  0  0
  -32.1479    9.7959   16.9060 H   0  0  0  0  0  0  0  0  0  0  0  0
  -32.7345   10.5949   15.4080 H   0  0  0  0  0  0  0  0  0  0  0  0
  -31.1587    9.7325   15.4080 H   0  0  0  0  0  0  0  0  0  0  0  0
  -37.6524   10.1389   22.8795 H   0  0  0  0  0  0  0  0  0  0  0  0
  -38.3312    8.6469   24.7027 H   0  0  0  0  0  0  0  0  0  0  0  0
  -34.7474    6.3699   24.2065 H   0  0  0  0  0  0  0  0  0  0  0  0
  -34.0960    7.7978   22.3157 H   0  0  0  0  0  0  0  0  0  0  0  0
  -38.0558    6.7345   25.8239 H   0  0  0  0  0  0  0  0  0  0  0  0
  -35.3234    7.0467   27.1397 H   0  0  0  0  0  0  0  0  0  0  0  0
  -36.6811    8.2375   27.1997 H   0  0  0  0  0  0  0  0  0  0  0  0
  -36.5688    6.8237   29.2388 H   0  0  0  0  0  0  0  0  0  0  0  0
  -38.1055    6.6035   28.3099 H   0  0  0  0  0  0  0  0  0  0  0  0
  -35.6820    4.7703   28.3324 H   0  0  0  0  0  0  0  0  0  0  0  0
  -37.3269    4.4557   29.0229 H   0  0  0  0  0  0  0  0  0  0  0  0
  -36.9108    3.3385   26.8300 H   0  0  0  0  0  0  0  0  0  0  0  0
  -38.3157    4.4844   26.8472 H   0  0  0  0  0  0  0  0  0  0  0  0
  -37.0355    4.7504   24.7898 H   0  0  0  0  0  0  0  0  0  0  0  0
  -35.5337    5.0401   25.7522 H   0  0  0  0  0  0  0  0  0  0  0  0
  -29.3780    8.4660   21.7138 H   0  0  0  0  0  0  0  0  0  0  0  0
  -28.9433    8.1013   20.1488 H   0  0  0  0  0  0  0  0  0  0  0  0
  -30.6194    6.0628   20.4084 H   0  0  0  0  0  0  0  0  0  0  0  0
  -32.2664    7.7058   19.2761 H   0  0  0  0  0  0  0  0  0  0  0  0
  -32.9271    8.0451   20.7627 H   0  0  0  0  0  0  0  0  0  0  0  0
  -30.2430    6.0429   22.6530 H   0  0  0  0  0  0  0  0  0  0  0  0
  -31.3445    7.4402   22.8989 H   0  0  0  0  0  0  0  0  0  0  0  0
  1  7  2  0
  1 11  1  0
  2  4  1  0
  2  9  2  0
  2 10  1  0
  3  4  1  0
  3  5  2  0
  3 19  1  0
  5 18  1  0
  6 31  2  0
  7 13  1  0
  7 16  1  0
  8  9  1  0
  8 13  1  0
  8 14  2  0
  9 31  1  0
 10 14  1  0
 10 18  1  0
 11 12  2  0
 12 15  1  0
 13 15  2  0
 17 18  2  0
 19 20  2  0
 19 24  1  0
 20 21  1  0
 21 22  2  0
 22 23  1  0
 25 22  1  0
 23 24  2  0
 25 26  1  0
 25 30  1  0
 26 27  1  0
 27 28  1  0
 28 29  1  0
 29 30  1  0
 31 37  1  0
 32 33  1  0
 32 37  1  0
 33 34  1  0
 33 35  1  0
 34 37  1  0
 35 36  1  0
  4 38  1  0
  5 39  1  0
 11 40  1  0
 12 41  1  0
 16 42  1  0
 16 43  1  0
 16 44  1  0
 20 45  1  0
 21 46  1  0
 23 47  1  0
 24 48  1  0
 25 49  1  1
 26 50  1  0
 26 51  1  0
 27 52  1  0
 27 53  1  0
 28 54  1  0
 28 55  1  0
 29 56  1  0
 29 57  1  0
 30 58  1  0
 30 59  1  0
 32 60  1  0
 32 61  1  0
 33 62  1  6
 34 63  1  0
 34 64  1  0
 35 65  1  0
 35 66  1  0
M  END
>  <filename_input>  (5) 
7TYP_KUR_docked.sdf

>  <pdb_id>  (5) 
7TYP_KUR

>  <pose_rank>  (5) 
4

>  <num_atoms_heavy>  (5) 
37

>  <num_torsions>  (5) 
5

>  <pose>  (5) 
[-33.488121262048395, 10.782964007725406, 20.123080602787212, 1.0706120550666318, 1.7995378554287615, 2.156817054454525, -2.590809293772242, -0.008444781899020544, -0.06549836390751208, 3.2127817987994525, 0.20345603829232606]

>  <energy>  (5) 
-773.7418297525611

>  <inter_energy>  (5) 
-808.1717110250801

>  <intra_energy>  (5) 
34.73398743516349

>  <rmsd>  (5) 
10.0167

>  <sdf_rank>  (5) 
0

$$$$

     RDKit          3D

 66 71  0  0  0  0  0  0  0  0999 V2000
  -29.9138   12.3542   15.1202 N   0  0  0  0  0  0  0  0  0  0  0  0
  -32.3352    9.9057   19.8981 C   0  0  0  0  0  0  0  0  0  0  0  0
  -32.6991    8.2816   21.6103 C   0  0  0  0  0  0  0  0  0  0  0  0
  -33.0953    9.3972   20.8984 N   0  0  0  0  0  0  0  0  0  0  0  0
  -31.5437    7.6393   21.2486 C   0  0  0  0  0  0  0  0  0  0  0  0
  -33.3385   12.9802   18.3532 O   0  0  0  0  0  0  0  0  0  0  0  0
  -30.4715   11.4762   15.9569 C   0  0  0  0  0  0  0  0  0  0  0  0
  -31.2718   10.9332   18.2590 C   0  0  0  0  0  0  0  0  0  0  0  0
  -32.4581   10.9781   19.0470 C   0  0  0  0  0  0  0  0  0  0  0  0
  -31.1629    9.2983   19.6081 N   0  0  0  0  0  0  0  0  0  0  0  0
  -29.7001   13.5933   15.5641 C   0  0  0  0  0  0  0  0  0  0  0  0
  -30.0410   13.9766   16.8264 C   0  0  0  0  0  0  0  0  0  0  0  0
  -30.8234   11.8837   17.2689 C   0  0  0  0  0  0  0  0  0  0  0  0
  -30.5078    9.9143   18.6045 N   0  0  0  0  0  0  0  0  0  0  0  0
  -30.6199   13.1384   17.6856 N   0  0  0  0  0  0  0  0  0  0  0  0
  -30.6468   10.0856   15.4290 C   0  0  0  0  0  0  0  0  0  0  0  0
  -29.7103    7.5757   19.7861 O   0  0  0  0  0  0  0  0  0  0  0  0
  -30.7195    8.1093   20.1921 C   0  0  0  0  0  0  0  0  0  0  0  0
  -33.5519    7.8589   22.7479 C   0  0  0  0  0  0  0  0  0  0  0  0
  -33.4871    6.5737   23.2721 C   0  0  0  0  0  0  0  0  0  0  0  0
  -34.3421    6.1773   24.2663 C   0  0  0  0  0  0  0  0  0  0  0  0
  -35.3083    7.0242   24.7607 C   0  0  0  0  0  0  0  0  0  0  0  0
  -35.3610    8.3097   24.2639 C   0  0  0  0  0  0  0  0  0  0  0  0
  -34.4913    8.7275   23.2861 C   0  0  0  0  0  0  0  0  0  0  0  0
  -36.3086    6.5020   25.7653 C   0  0  2  0  0  0  0  0  0  0  0  0
  -36.3602    7.2929   27.0581 C   0  0  0  0  0  0  0  0  0  0  0  0
  -37.5233    6.8386   27.9258 C   0  0  0  0  0  0  0  0  0  0  0  0
  -37.4364    5.3623   28.2245 C   0  0  0  0  0  0  0  0  0  0  0  0
  -37.3037    4.5484   26.9593 C   0  0  0  0  0  0  0  0  0  0  0  0
  -36.1528    5.0340   26.0979 C   0  0  0  0  0  0  0  0  0  0  0  0
  -33.5378   11.9761   18.9754 C   0  0  0  0  0  0  0  0  0  0  0  0
  -35.8872   12.5706   19.7385 C   0  0  0  0  0  0  0  0  0  0  0  0
  -36.4762   11.5064   20.6529 C   0  0  2  0  0  0  0  0  0  0  0  0
  -35.1285   10.7595   20.6063 C   0  0  0  0  0  0  0  0  0  0  0  0
  -37.6124   10.7321   20.0655 C   0  0  0  0  0  0  0  0  0  0  0  0
  -37.9394    9.7749   20.8665 F   0  0  0  0  0  0  0  0  0  0  0  0
  -34.6833   11.7406   19.6184 N   0  0  0  0  0  0  0  0  0  0  0  0
  -33.9886    9.8529   21.1332 H   0  0  0  0  0  0  0  0  0  0  0  0
  -31.2456    6.7315   21.7937 H   0  0  0  0  0  0  0  0  0  0  0  0
  -29.2346   14.3283   14.8909 H   0  0  0  0  0  0  0  0  0  0  0  0
  -29.8322   15.0083   17.1458 H   0  0  0  0  0  0  0  0  0  0  0  0
  -30.7354    9.3825   16.2702 H   0  0  0  0  0  0  0  0  0  0  0  0
  -31.5579   10.0388   14.8144 H   0  0  0  0  0  0  0  0  0  0  0  0
  -29.7757    9.8143   14.8144 H   0  0  0  0  0  0  0  0  0  0  0  0
  -32.7400    5.8659   22.8838 H   0  0  0  0  0  0  0  0  0  0  0  0
  -34.2547    5.1610   24.6782 H   0  0  0  0  0  0  0  0  0  0  0  0
  -36.1113    9.0116   24.6568 H   0  0  0  0  0  0  0  0  0  0  0  0
  -34.5400    9.7652   22.9245 H   0  0  0  0  0  0  0  0  0  0  0  0
  -37.2622    6.6362   25.2337 H   0  0  0  0  0  0  0  0  0  0  0  0
  -35.4199    7.1440   27.6092 H   0  0  0  0  0  0  0  0  0  0  0  0
  -36.4980    8.3566   26.8142 H   0  0  0  0  0  0  0  0  0  0  0  0
  -37.5047    7.3981   28.8726 H   0  0  0  0  0  0  0  0  0  0  0  0
  -38.4598    7.0294   27.3811 H   0  0  0  0  0  0  0  0  0  0  0  0
  -36.5591    5.1777   28.8620 H   0  0  0  0  0  0  0  0  0  0  0  0
  -38.3622    5.0583   28.7349 H   0  0  0  0  0  0  0  0  0  0  0  0
  -37.1281    3.4965   27.2289 H   0  0  0  0  0  0  0  0  0  0  0  0
  -38.2338    4.6575   26.3822 H   0  0  0  0  0  0  0  0  0  0  0  0
  -36.1322    4.4533   25.1639 H   0  0  0  0  0  0  0  0  0  0  0  0
  -35.2146    4.8979   26.6559 H   0  0  0  0  0  0  0  0  0  0  0  0
  -36.4360   12.7161   18.7963 H   0  0  0  0  0  0  0  0  0  0  0  0
  -35.8264   13.6232   20.0521 H   0  0  0  0  0  0  0  0  0  0  0  0
  -36.9437   11.7891   21.6076 H   0  0  0  0  0  0  0  0  0  0  0  0
  -34.5649   10.7730   21.5508 H   0  0  0  0  0  0  0  0  0  0  0  0
  -35.0755    9.6786   20.4091 H   0  0  0  0  0  0  0  0  0  0  0  0
  -38.4747   11.3995   19.9202 H   0  0  0  0  0  0  0  0  0  0  0  0
  -37.3073   10.3113   19.0961 H   0  0  0  0  0  0  0  0  0  0  0  0
  1  7  2  0
  1 11  1  0
  2  4  1  0
  2  9  2  0
  2 10  1  0
  3  4  1  0
  3  5  2  0
  3 19  1  0
  5 18  1  0
  6 31  2  0
  7 13  1  0
  7 16  1  0
  8  9  1  0
  8 13  1  0
  8 14  2  0
  9 31  1  0
 10 14  1  0
 10 18  1  0
 11 12  2  0
 12 15  1  0
 13 15  2  0
 17 18  2  0
 19 20  2  0
 19 24  1  0
 20 21  1  0
 21 22  2  0
 22 23  1  0
 25 22  1  0
 23 24  2  0
 25 26  1  0
 25 30  1  0
 26 27  1  0
 27 28  1  0
 28 29  1  0
 29 30  1  0
 31 37  1  0
 32 33  1  0
 32 37  1  0
 33 34  1  0
 33 35  1  0
 34 37  1  0
 35 36  1  0
  4 38  1  0
  5 39  1  0
 11 40  1  0
 12 41  1  0
 16 42  1  0
 16 43  1  0
 16 44  1  0
 20 45  1  0
 21 46  1  0
 23 47  1  0
 24 48  1  0
 25 49  1  6
 26 50  1  0
 26 51  1  0
 27 52  1  0
 27 53  1  0
 28 54  1  0
 28 55  1  0
 29 56  1  0
 29 57  1  0
 30 58  1  0
 30 59  1  0
 32 60  1  0
 32 61  1  0
 33 62  1  1
 34 63  1  0
 34 64  1  0
 35 65  1  0
 35 66  1  0
M  END
>  <filename_input>  (6) 
7TYP_KUR_docked.sdf

>  <pdb_id>  (6) 
7TYP_KUR

>  <pose_rank>  (6) 
5

>  <num_atoms_heavy>  (6) 
37

>  <num_torsions>  (6) 
5

>  <pose>  (6) 
[-32.33521937158675, 9.905706894648477, 19.898109632978546, 2.2514625210575185, -2.039873708746335, -0.18995445096453484, -6.240526715470675, -13.471062198832223, 0.01759304665244139, 3.243926764078542, -2.3460342693332463]

>  <energy>  (6) 
-820.1343610618467

>  <inter_energy>  (6) 
-930.162554734512

>  <intra_energy>  (6) 
115.33307881479827

>  <rmsd>  (6) 
9.42877

>  <sdf_rank>  (6) 
0

$$$$

     RDKit          3D

 66 71  0  0  0  0  0  0  0  0999 V2000
  -38.3527    6.5889   28.0272 N   0  0  0  0  0  0  0  0  0  0  0  0
  -35.5589    8.6091   23.2318 C   0  0  0  0  0  0  0  0  0  0  0  0
  -35.3617    9.7338   21.1347 C   0  0  0  0  0  0  0  0  0  0  0  0
  -34.8230    8.9712   22.1528 N   0  0  0  0  0  0  0  0  0  0  0  0
  -36.6886   10.0723   21.1898 C   0  0  0  0  0  0  0  0  0  0  0  0
  -33.0158    7.8261   24.5654 O   0  0  0  0  0  0  0  0  0  0  0  0
  -38.0907    6.9079   26.7577 C   0  0  0  0  0  0  0  0  0  0  0  0
  -36.5330    7.9197   25.0890 C   0  0  0  0  0  0  0  0  0  0  0  0
  -35.3015    7.8873   24.3729 C   0  0  0  0  0  0  0  0  0  0  0  0
  -36.8457    9.0175   23.2996 N   0  0  0  0  0  0  0  0  0  0  0  0
  -37.3860    6.7638   28.9289 C   0  0  0  0  0  0  0  0  0  0  0  0
  -36.1575    7.2433   28.5863 C   0  0  0  0  0  0  0  0  0  0  0  0
  -36.8094    7.4061   26.4098 C   0  0  0  0  0  0  0  0  0  0  0  0
  -37.4519    8.5970   24.4273 N   0  0  0  0  0  0  0  0  0  0  0  0
  -35.8473    7.5526   27.3276 N   0  0  0  0  0  0  0  0  0  0  0  0
  -39.2224    6.7399   25.7912 C   0  0  0  0  0  0  0  0  0  0  0  0
  -38.7031    9.9224   22.3829 O   0  0  0  0  0  0  0  0  0  0  0  0
  -37.5165    9.6993   22.2816 C   0  0  0  0  0  0  0  0  0  0  0  0
  -34.4505   10.1588   20.0442 C   0  0  0  0  0  0  0  0  0  0  0  0
  -33.1397    9.7045   19.9681 C   0  0  0  0  0  0  0  0  0  0  0  0
  -32.2890   10.1741   19.0024 C   0  0  0  0  0  0  0  0  0  0  0  0
  -32.6917   11.1273   18.0943 C   0  0  0  0  0  0  0  0  0  0  0  0
  -33.9991   11.5632   18.1472 C   0  0  0  0  0  0  0  0  0  0  0  0
  -34.8694   11.0796   19.0937 C   0  0  0  0  0  0  0  0  0  0  0  0
  -31.6828   11.7064   17.1305 C   0  0  2  0  0  0  0  0  0  0  0  0
  -31.3254   10.7862   15.9794 C   0  0  0  0  0  0  0  0  0  0  0  0
  -30.4724   11.5112   14.9502 C   0  0  0  0  0  0  0  0  0  0  0  0
  -29.2181   12.0683   15.5769 C   0  0  0  0  0  0  0  0  0  0  0  0
  -29.5342   12.9278   16.7778 C   0  0  0  0  0  0  0  0  0  0  0  0
  -30.4055   12.1934   17.7798 C   0  0  0  0  0  0  0  0  0  0  0  0
  -34.0422    7.2524   24.7949 C   0  0  0  0  0  0  0  0  0  0  0  0
  -32.9938    5.2048   25.8736 C   0  0  0  0  0  0  0  0  0  0  0  0
  -34.0369    4.1662   26.2590 C   0  0  2  0  0  0  0  0  0  0  0  0
  -35.1170    5.0460   25.5989 C   0  0  0  0  0  0  0  0  0  0  0  0
  -34.2280    3.9837   27.7306 C   0  0  0  0  0  0  0  0  0  0  0  0
  -33.6592    2.8877   28.1050 F   0  0  0  0  0  0  0  0  0  0  0  0
  -34.0847    6.0602   25.3931 N   0  0  0  0  0  0  0  0  0  0  0  0
  -33.8397    8.6710   22.0905 H   0  0  0  0  0  0  0  0  0  0  0  0
  -37.1258   10.6509   20.3627 H   0  0  0  0  0  0  0  0  0  0  0  0
  -37.5864    6.5133   29.9811 H   0  0  0  0  0  0  0  0  0  0  0  0
  -35.3995    7.3792   29.3717 H   0  0  0  0  0  0  0  0  0  0  0  0
  -40.1615    6.6005   26.3468 H   0  0  0  0  0  0  0  0  0  0  0  0
  -39.3003    7.6363   25.1584 H   0  0  0  0  0  0  0  0  0  0  0  0
  -39.0366    5.8595   25.1584 H   0  0  0  0  0  0  0  0  0  0  0  0
  -32.7805    8.9584   20.6922 H   0  0  0  0  0  0  0  0  0  0  0  0
  -31.2627    9.7814   18.9516 H   0  0  0  0  0  0  0  0  0  0  0  0
  -34.3506   12.3099   17.4200 H   0  0  0  0  0  0  0  0  0  0  0  0
  -35.9130   11.4270   19.0985 H   0  0  0  0  0  0  0  0  0  0  0  0
  -32.2200   12.5782   16.7289 H   0  0  0  0  0  0  0  0  0  0  0  0
  -30.7648    9.9235   16.3685 H   0  0  0  0  0  0  0  0  0  0  0  0
  -32.2546   10.4532   15.4940 H   0  0  0  0  0  0  0  0  0  0  0  0
  -30.1929   10.8052   14.1543 H   0  0  0  0  0  0  0  0  0  0  0  0
  -31.0575   12.3470   14.5391 H   0  0  0  0  0  0  0  0  0  0  0  0
  -28.5758   11.2335   15.8939 H   0  0  0  0  0  0  0  0  0  0  0  0
  -28.7074   12.6936   14.8298 H   0  0  0  0  0  0  0  0  0  0  0  0
  -28.5924   13.2157   17.2679 H   0  0  0  0  0  0  0  0  0  0  0  0
  -30.0845   13.8144   16.4297 H   0  0  0  0  0  0  0  0  0  0  0  0
  -30.6584   12.8754   18.6050 H   0  0  0  0  0  0  0  0  0  0  0  0
  -29.8492   11.3228   18.1573 H   0  0  0  0  0  0  0  0  0  0  0  0
  -32.4293    5.6198   26.7216 H   0  0  0  0  0  0  0  0  0  0  0  0
  -32.1428    4.9468   25.2262 H   0  0  0  0  0  0  0  0  0  0  0  0
  -33.9036    3.1115   25.9767 H   0  0  0  0  0  0  0  0  0  0  0  0
  -35.5422    4.6312   24.6730 H   0  0  0  0  0  0  0  0  0  0  0  0
  -36.0613    5.2809   26.1119 H   0  0  0  0  0  0  0  0  0  0  0  0
  -33.7782    4.8322   28.2669 H   0  0  0  0  0  0  0  0  0  0  0  0
  -35.3032    3.9351   27.9577 H   0  0  0  0  0  0  0  0  0  0  0  0
  1  7  2  0
  1 11  1  0
  2  4  1  0
  2  9  2  0
  2 10  1  0
  3  4  1  0
  3  5  2  0
  3 19  1  0
  5 18  1  0
  6 31  2  0
  7 13  1  0
  7 16  1  0
  8  9  1  0
  8 13  1  0
  8 14  2  0
  9 31  1  0
 10 14  1  0
 10 18  1  0
 11 12  2  0
 12 15  1  0
 13 15  2  0
 17 18  2  0
 19 20  2  0
 19 24  1  0
 20 21  1  0
 21 22  2  0
 22 23  1  0
 25 22  1  0
 23 24  2  0
 25 26  1  0
 25 30  1  0
 26 27  1  0
 27 28  1  0
 28 29  1  0
 29 30  1  0
 31 37  1  0
 32 33  1  0
 32 37  1  0
 33 34  1  0
 33 35  1  0
 34 37  1  0
 35 36  1  0
  4 38  1  0
  5 39  1  0
 11 40  1  0
 12 41  1  0
 16 42  1  0
 16 43  1  0
 16 44  1  0
 20 45  1  0
 21 46  1  0
 23 47  1  0
 24 48  1  0
 25 49  1  6
 26 50  1  0
 26 51  1  0
 27 52  1  0
 27 53  1  0
 28 54  1  0
 28 55  1  0
 29 56  1  0
 29 57  1  0
 30 58  1  0
 30 59  1  0
 32 60  1  0
 32 61  1  0
 33 62  1  6
 34 63  1  0
 34 64  1  0
 35 65  1  0
 35 66  1  0
M  END
>  <filename_input>  (7) 
7TYP_KUR_docked.sdf

>  <pdb_id>  (7) 
7TYP_KUR

>  <pose_rank>  (7) 
6

>  <num_atoms_heavy>  (7) 
37

>  <num_torsions>  (7) 
5

>  <pose>  (7) 
[-35.55885224074476, 8.609116343566601, 23.231805004998723, -1.3925900507346571, -1.7630055707031513, 2.8403785724576163, -0.3354198606311372, 3.152392212303627, 1.453409621507828, 0.5491080042126408, 3.0950398880208665]

>  <energy>  (7) 
-712.4738386126057

>  <inter_energy>  (7) 
-793.8888525366492

>  <intra_energy>  (7) 
86.62755186514106

>  <rmsd>  (7) 
4.87494

>  <sdf_rank>  (7) 
0

$$$$

     RDKit          3D

 66 71  0  0  0  0  0  0  0  0999 V2000
  -30.5607   12.6894   14.7721 N   0  0  0  0  0  0  0  0  0  0  0  0
  -32.2231    9.7005   19.5397 C   0  0  0  0  0  0  0  0  0  0  0  0
  -32.3378    7.9611   21.1715 C   0  0  0  0  0  0  0  0  0  0  0  0
  -32.8909    9.0473   20.5216 N   0  0  0  0  0  0  0  0  0  0  0  0
  -31.1144    7.4966   20.7645 C   0  0  0  0  0  0  0  0  0  0  0  0
  -33.6272   12.7218   18.2393 O   0  0  0  0  0  0  0  0  0  0  0  0
  -30.9947   11.7375   15.6013 C   0  0  0  0  0  0  0  0  0  0  0  0
  -31.3348   10.9388   17.9425 C   0  0  0  0  0  0  0  0  0  0  0  0
  -32.5022   10.7871   18.7454 C   0  0  0  0  0  0  0  0  0  0  0  0
  -30.9862    9.2693   19.2058 N   0  0  0  0  0  0  0  0  0  0  0  0
  -30.1685   13.8492   15.3008 C   0  0  0  0  0  0  0  0  0  0  0  0
  -30.2094   14.0811   16.6429 C   0  0  0  0  0  0  0  0  0  0  0  0
  -31.0341   11.9875   16.9967 C   0  0  0  0  0  0  0  0  0  0  0  0
  -30.4367   10.0151   18.2272 N   0  0  0  0  0  0  0  0  0  0  0  0
  -30.6565   13.1666   17.5031 N   0  0  0  0  0  0  0  0  0  0  0  0
  -31.3780   10.4370   14.9652 C   0  0  0  0  0  0  0  0  0  0  0  0
  -29.3154    7.7487   19.2797 O   0  0  0  0  0  0  0  0  0  0  0  0
  -30.3788    8.1229   19.7237 C   0  0  0  0  0  0  0  0  0  0  0  0
  -33.1064    7.3738   22.2960 C   0  0  0  0  0  0  0  0  0  0  0  0
  -33.9160    8.1527   23.1136 C   0  0  0  0  0  0  0  0  0  0  0  0
  -34.5507    7.6068   24.1980 C   0  0  0  0  0  0  0  0  0  0  0  0
  -34.3893    6.2806   24.5304 C   0  0  0  0  0  0  0  0  0  0  0  0
  -33.6086    5.4955   23.7080 C   0  0  0  0  0  0  0  0  0  0  0  0
  -32.9889    6.0252   22.6024 C   0  0  0  0  0  0  0  0  0  0  0  0
  -35.0065    5.7552   25.8052 C   0  0  2  0  0  0  0  0  0  0  0  0
  -35.8425    4.5037   25.6198 C   0  0  0  0  0  0  0  0  0  0  0  0
  -36.2546    3.9228   26.9633 C   0  0  0  0  0  0  0  0  0  0  0  0
  -37.0129    4.9354   27.7855 C   0  0  0  0  0  0  0  0  0  0  0  0
  -36.2409    6.2260   27.9235 C   0  0  0  0  0  0  0  0  0  0  0  0
  -35.8193    6.7749   26.5732 C   0  0  0  0  0  0  0  0  0  0  0  0
  -33.7056   11.6349   18.7368 C   0  0  0  0  0  0  0  0  0  0  0  0
  -36.1354   11.8206   19.4557 C   0  0  0  0  0  0  0  0  0  0  0  0
  -36.5999   10.5892   20.2193 C   0  0  2  0  0  0  0  0  0  0  0  0
  -35.1620   10.0377   20.1503 C   0  0  0  0  0  0  0  0  0  0  0  0
  -37.6020    9.7445   19.4997 C   0  0  0  0  0  0  0  0  0  0  0  0
  -38.2606    9.0372   20.3546 F   0  0  0  0  0  0  0  0  0  0  0  0
  -34.8264   11.1769   19.2981 N   0  0  0  0  0  0  0  0  0  0  0  0
  -33.8323    9.3681   20.7894 H   0  0  0  0  0  0  0  0  0  0  0  0
  -30.6889    6.6111   21.2595 H   0  0  0  0  0  0  0  0  0  0  0  0
  -29.8009   14.6425   14.6333 H   0  0  0  0  0  0  0  0  0  0  0  0
  -29.8633   15.0517   17.0276 H   0  0  0  0  0  0  0  0  0  0  0  0
  -31.5964    9.6960   15.7484 H   0  0  0  0  0  0  0  0  0  0  0  0
  -32.2711   10.5837   14.3400 H   0  0  0  0  0  0  0  0  0  0  0  0
  -30.5481   10.0759   14.3400 H   0  0  0  0  0  0  0  0  0  0  0  0
  -34.0488    9.2210   22.8875 H   0  0  0  0  0  0  0  0  0  0  0  0
  -35.2030    8.2414   24.8160 H   0  0  0  0  0  0  0  0  0  0  0  0
  -33.4801    4.4282   23.9412 H   0  0  0  0  0  0  0  0  0  0  0  0
  -32.3911    5.3712   21.9506 H   0  0  0  0  0  0  0  0  0  0  0  0
  -34.1197    5.4991   26.4035 H   0  0  0  0  0  0  0  0  0  0  0  0
  -36.7453    4.7556   25.0441 H   0  0  0  0  0  0  0  0  0  0  0  0
  -35.2410    3.7554   25.0829 H   0  0  0  0  0  0  0  0  0  0  0  0
  -36.8962    3.0456   26.7935 H   0  0  0  0  0  0  0  0  0  0  0  0
  -35.3457    3.6376   27.5133 H   0  0  0  0  0  0  0  0  0  0  0  0
  -37.9752    5.1452   27.2956 H   0  0  0  0  0  0  0  0  0  0  0  0
  -37.1683    4.5170   28.7908 H   0  0  0  0  0  0  0  0  0  0  0  0
  -36.8760    6.9692   28.4278 H   0  0  0  0  0  0  0  0  0  0  0  0
  -35.3326    6.0214   28.5092 H   0  0  0  0  0  0  0  0  0  0  0  0
  -35.2114    7.6788   26.7258 H   0  0  0  0  0  0  0  0  0  0  0  0
  -36.7231    7.0128   25.9930 H   0  0  0  0  0  0  0  0  0  0  0  0
  -36.6712   12.0003   18.5119 H   0  0  0  0  0  0  0  0  0  0  0  0
  -36.2282   12.8285   19.8864 H   0  0  0  0  0  0  0  0  0  0  0  0
  -37.1293   10.6949   21.1777 H   0  0  0  0  0  0  0  0  0  0  0  0
  -34.6334   10.0162   21.1147 H   0  0  0  0  0  0  0  0  0  0  0  0
  -34.9561    9.0036   19.8371 H   0  0  0  0  0  0  0  0  0  0  0  0
  -38.2977   10.3923   18.9462 H   0  0  0  0  0  0  0  0  0  0  0  0
  -37.0823    9.0786   18.7952 H   0  0  0  0  0  0  0  0  0  0  0  0
  1  7  2  0
  1 11  1  0
  2  4  1  0
  2  9  2  0
  2 10  1  0
  3  4  1  0
  3  5  2  0
  3 19  1  0
  5 18  1  0
  6 31  2  0
  7 13  1  0
  7 16  1  0
  8  9  1  0
  8 13  1  0
  8 14  2  0
  9 31  1  0
 10 14  1  0
 10 18  1  0
 11 12  2  0
 12 15  1  0
 13 15  2  0
 17 18  2  0
 19 20  2  0
 19 24  1  0
 20 21  1  0
 21 22  2  0
 22 23  1  0
 25 22  1  0
 23 24  2  0
 25 26  1  0
 25 30  1  0
 26 27  1  0
 27 28  1  0
 28 29  1  0
 29 30  1  0
 31 37  1  0
 32 33  1  0
 32 37  1  0
 33 34  1  0
 33 35  1  0
 34 37  1  0
 35 36  1  0
  4 38  1  0
  5 39  1  0
 11 40  1  0
 12 41  1  0
 16 42  1  0
 16 43  1  0
 16 44  1  0
 20 45  1  0
 21 46  1  0
 23 47  1  0
 24 48  1  0
 25 49  1  1
 26 50  1  0
 26 51  1  0
 27 52  1  0
 27 53  1  0
 28 54  1  0
 28 55  1  0
 29 56  1  0
 29 57  1  0
 30 58  1  0
 30 59  1  0
 32 60  1  0
 32 61  1  0
 33 62  1  1
 34 63  1  0
 34 64  1  0
 35 65  1  0
 35 66  1  0
M  END
>  <filename_input>  (8) 
7TYP_KUR_docked.sdf

>  <pdb_id>  (8) 
7TYP_KUR

>  <pose_rank>  (8) 
7

>  <num_atoms_heavy>  (8) 
37

>  <num_torsions>  (8) 
5

>  <pose>  (8) 
[-32.2230993318402, 9.700486391496234, 19.539655190432335, -2.520667673409877, 1.987097769889283, 0.2612463627527912, 0.33088213321907645, 5.295990182003143, 0.5198512088389212, -0.12104803863550327, 4.0155908102015605]

>  <energy>  (8) 
-814.1747849294788

>  <inter_energy>  (8) 
-898.0795092532846

>  <intra_energy>  (8) 
88.03436452294804

>  <rmsd>  (8) 
9.43514

>  <sdf_rank>  (8) 
0

$$$$

     RDKit          3D

 66 71  0  0  0  0  0  0  0  0999 V2000
  -29.4487   14.1939   15.1530 N   0  0  0  0  0  0  0  0  0  0  0  0
  -32.6981   11.2395   18.9877 C   0  0  0  0  0  0  0  0  0  0  0  0
  -34.2648   10.6690   20.6970 C   0  0  0  0  0  0  0  0  0  0  0  0
  -33.0867   10.4420   20.0124 N   0  0  0  0  0  0  0  0  0  0  0  0
  -35.0201   11.7656   20.3728 C   0  0  0  0  0  0  0  0  0  0  0  0
  -30.3864    9.4923   18.9376 O   0  0  0  0  0  0  0  0  0  0  0  0
  -30.0254   13.7031   16.2523 C   0  0  0  0  0  0  0  0  0  0  0  0
  -31.8665   12.3669   17.2817 C   0  0  0  0  0  0  0  0  0  0  0  0
  -31.6185   11.2546   18.1370 C   0  0  0  0  0  0  0  0  0  0  0  0
  -33.4969   12.2723   18.6374 N   0  0  0  0  0  0  0  0  0  0  0  0
  -29.9268   13.8078   13.9695 C   0  0  0  0  0  0  0  0  0  0  0  0
  -30.9657   12.9328   13.8615 C   0  0  0  0  0  0  0  0  0  0  0  0
  -31.1059   12.7927   16.1306 C   0  0  0  0  0  0  0  0  0  0  0  0
  -32.9955   12.9711   17.6000 N   0  0  0  0  0  0  0  0  0  0  0  0
  -31.5549   12.4021   14.9326 N   0  0  0  0  0  0  0  0  0  0  0  0
  -29.4853   14.2034   17.5566 C   0  0  0  0  0  0  0  0  0  0  0  0
  -35.2401   13.6622   19.0092 O   0  0  0  0  0  0  0  0  0  0  0  0
  -34.6509   12.6522   19.3267 C   0  0  0  0  0  0  0  0  0  0  0  0
  -34.6498    9.6858   21.7387 C   0  0  0  0  0  0  0  0  0  0  0  0
  -35.9289    9.6581   22.2807 C   0  0  0  0  0  0  0  0  0  0  0  0
  -36.2404    8.7988   23.3012 C   0  0  0  0  0  0  0  0  0  0  0  0
  -35.2959    7.9554   23.8415 C   0  0  0  0  0  0  0  0  0  0  0  0
  -34.0315    7.9586   23.2907 C   0  0  0  0  0  0  0  0  0  0  0  0
  -33.7146    8.7962   22.2491 C   0  0  0  0  0  0  0  0  0  0  0  0
  -35.6523    7.1186   25.0477 C   0  0  2  0  0  0  0  0  0  0  0  0
  -36.4334    7.8650   26.1117 C   0  0  0  0  0  0  0  0  0  0  0  0
  -36.9301    6.9126   27.1881 C   0  0  0  0  0  0  0  0  0  0  0  0
  -35.7858    6.1583   27.8188 C   0  0  0  0  0  0  0  0  0  0  0  0
  -34.9385    5.4662   26.7777 C   0  0  0  0  0  0  0  0  0  0  0  0
  -34.4741    6.4296   25.7013 C   0  0  0  0  0  0  0  0  0  0  0  0
  -30.4792   10.3242   18.0807 C   0  0  0  0  0  0  0  0  0  0  0  0
  -28.3574    9.6927   16.8339 C   0  0  0  0  0  0  0  0  0  0  0  0
  -28.0907   10.6188   15.6565 C   0  0  2  0  0  0  0  0  0  0  0  0
  -29.3080   11.4640   16.0809 C   0  0  0  0  0  0  0  0  0  0  0  0
  -28.2403    9.9839   14.3111 C   0  0  0  0  0  0  0  0  0  0  0  0
  -28.8443   10.8006   13.5155 F   0  0  0  0  0  0  0  0  0  0  0  0
  -29.5846   10.4520   17.0987 N   0  0  0  0  0  0  0  0  0  0  0  0
  -32.4900    9.6485   20.2868 H   0  0  0  0  0  0  0  0  0  0  0  0
  -35.9410   11.9653   20.9404 H   0  0  0  0  0  0  0  0  0  0  0  0
  -29.4688   14.2078   13.0529 H   0  0  0  0  0  0  0  0  0  0  0  0
  -31.3288   12.6562   12.8607 H   0  0  0  0  0  0  0  0  0  0  0  0
  -30.0157   13.7121   18.3856 H   0  0  0  0  0  0  0  0  0  0  0  0
  -28.4115   13.9738   17.6210 H   0  0  0  0  0  0  0  0  0  0  0  0
  -29.6322   15.2916   17.6210 H   0  0  0  0  0  0  0  0  0  0  0  0
  -36.7011   10.3345   21.8854 H   0  0  0  0  0  0  0  0  0  0  0  0
  -37.2665    8.7825   23.6971 H   0  0  0  0  0  0  0  0  0  0  0  0
  -33.2646    7.2796   23.6919 H   0  0  0  0  0  0  0  0  0  0  0  0
  -32.7052    8.7615   21.8133 H   0  0  0  0  0  0  0  0  0  0  0  0
  -36.3038    6.3477   24.6104 H   0  0  0  0  0  0  0  0  0  0  0  0
  -35.7815    8.6214   26.5730 H   0  0  0  0  0  0  0  0  0  0  0  0
  -37.3028    8.3445   25.6382 H   0  0  0  0  0  0  0  0  0  0  0  0
  -37.4511    7.4903   27.9658 H   0  0  0  0  0  0  0  0  0  0  0  0
  -37.6122    6.1859   26.7227 H   0  0  0  0  0  0  0  0  0  0  0  0
  -35.1568    6.8659   28.3789 H   0  0  0  0  0  0  0  0  0  0  0  0
  -36.2046    5.3922   28.4879 H   0  0  0  0  0  0  0  0  0  0  0  0
  -34.0570    5.0286   27.2690 H   0  0  0  0  0  0  0  0  0  0  0  0
  -35.5508    4.6873   26.2998 H   0  0  0  0  0  0  0  0  0  0  0  0
  -33.9134    5.8720   24.9367 H   0  0  0  0  0  0  0  0  0  0  0  0
  -33.8340    7.1939   26.1664 H   0  0  0  0  0  0  0  0  0  0  0  0
  -28.5232    8.6409   16.5577 H   0  0  0  0  0  0  0  0  0  0  0  0
  -27.6029    9.5346   17.6187 H   0  0  0  0  0  0  0  0  0  0  0  0
  -27.0977   11.0711   15.5173 H   0  0  0  0  0  0  0  0  0  0  0  0
  -29.0582   12.4582   16.4800 H   0  0  0  0  0  0  0  0  0  0  0  0
  -30.0739   11.7759   15.3555 H   0  0  0  0  0  0  0  0  0  0  0  0
  -27.2460    9.7448   13.9058 H   0  0  0  0  0  0  0  0  0  0  0  0
  -28.8296    9.0598   14.4050 H   0  0  0  0  0  0  0  0  0  0  0  0
  1  7  2  0
  1 11  1  0
  2  4  1  0
  2  9  2  0
  2 10  1  0
  3  4  1  0
  3  5  2  0
  3 19  1  0
  5 18  1  0
  6 31  2  0
  7 13  1  0
  7 16  1  0
  8  9  1  0
  8 13  1  0
  8 14  2  0
  9 31  1  0
 10 14  1  0
 10 18  1  0
 11 12  2  0
 12 15  1  0
 13 15  2  0
 17 18  2  0
 19 20  2  0
 19 24  1  0
 20 21  1  0
 21 22  2  0
 22 23  1  0
 25 22  1  0
 23 24  2  0
 25 26  1  0
 25 30  1  0
 26 27  1  0
 27 28  1  0
 28 29  1  0
 29 30  1  0
 31 37  1  0
 32 33  1  0
 32 37  1  0
 33 34  1  0
 33 35  1  0
 34 37  1  0
 35 36  1  0
  4 38  1  0
  5 39  1  0
 11 40  1  0
 12 41  1  0
 16 42  1  0
 16 43  1  0
 16 44  1  0
 20 45  1  0
 21 46  1  0
 23 47  1  0
 24 48  1  0
 25 49  1  6
 26 50  1  0
 26 51  1  0
 27 52  1  0
 27 53  1  0
 28 54  1  0
 28 55  1  0
 29 56  1  0
 29 57  1  0
 30 58  1  0
 30 59  1  0
 32 60  1  0
 32 61  1  0
 33 62  1  1
 34 63  1  0
 34 64  1  0
 35 65  1  0
 35 66  1  0
M  END
>  <filename_input>  (9) 
7TYP_KUR_docked.sdf

>  <pdb_id>  (9) 
7TYP_KUR

>  <pose_rank>  (9) 
8

>  <num_atoms_heavy>  (9) 
37

>  <num_torsions>  (9) 
5

>  <pose>  (9) 
[-32.69810490294408, 11.239454120917596, 18.987742803827842, -1.6788156638992044, -1.6319982170094771, -2.2072507973968056, 0.6983173975722142, -3.905643148328949, -0.5930135322374211, -2.460408542042177, 1.0120874450379806]

>  <energy>  (9) 
-540.2725443443267

>  <inter_energy>  (9) 
-823.2789193055744

>  <intra_energy>  (9) 
276.0266148040232

>  <rmsd>  (9) 
10.4774

>  <sdf_rank>  (9) 
0

$$$$

     RDKit          3D

 66 71  0  0  0  0  0  0  0  0999 V2000
  -30.5015   13.1570   15.5561 N   0  0  0  0  0  0  0  0  0  0  0  0
  -32.4796    9.9466   20.0238 C   0  0  0  0  0  0  0  0  0  0  0  0
  -32.8479    8.1219   21.5192 C   0  0  0  0  0  0  0  0  0  0  0  0
  -33.2641    9.2919   20.9143 N   0  0  0  0  0  0  0  0  0  0  0  0
  -31.6424    7.5798   21.1571 C   0  0  0  0  0  0  0  0  0  0  0  0
  -33.5666   13.1202   18.7573 O   0  0  0  0  0  0  0  0  0  0  0  0
  -31.0684   12.2170   16.3158 C   0  0  0  0  0  0  0  0  0  0  0  0
  -31.3860   11.2037   18.5757 C   0  0  0  0  0  0  0  0  0  0  0  0
  -32.6135   11.1026   19.2922 C   0  0  0  0  0  0  0  0  0  0  0  0
  -31.2629    9.4318   19.7376 N   0  0  0  0  0  0  0  0  0  0  0  0
  -29.8173   14.1259   16.1655 C   0  0  0  0  0  0  0  0  0  0  0  0
  -29.6950   14.1800   17.5215 C   0  0  0  0  0  0  0  0  0  0  0  0
  -30.9364   12.2812   17.7263 C   0  0  0  0  0  0  0  0  0  0  0  0
  -30.5887   10.1887   18.8497 N   0  0  0  0  0  0  0  0  0  0  0  0
  -30.2637   13.2750   18.3174 N   0  0  0  0  0  0  0  0  0  0  0  0
  -31.7844   11.1242   15.5835 C   0  0  0  0  0  0  0  0  0  0  0  0
  -29.7325    7.7699   19.8077 O   0  0  0  0  0  0  0  0  0  0  0  0
  -30.7889    8.2058   20.2103 C   0  0  0  0  0  0  0  0  0  0  0  0
  -33.7367    7.5322   22.5500 C   0  0  0  0  0  0  0  0  0  0  0  0
  -34.8734    8.1928   22.9996 C   0  0  0  0  0  0  0  0  0  0  0  0
  -35.6343    7.6707   24.0121 C   0  0  0  0  0  0  0  0  0  0  0  0
  -35.2877    6.4929   24.6351 C   0  0  0  0  0  0  0  0  0  0  0  0
  -34.1757    5.8184   24.1761 C   0  0  0  0  0  0  0  0  0  0  0  0
  -33.4202    6.3181   23.1434 C   0  0  0  0  0  0  0  0  0  0  0  0
  -36.0851    6.0230   25.8291 C   0  0  2  0  0  0  0  0  0  0  0  0
  -37.2190    5.0770   25.4845 C   0  0  0  0  0  0  0  0  0  0  0  0
  -37.8375    4.4903   26.7436 C   0  0  0  0  0  0  0  0  0  0  0  0
  -38.3317    5.5775   27.6656 C   0  0  0  0  0  0  0  0  0  0  0  0
  -37.2464    6.5836   27.9667 C   0  0  0  0  0  0  0  0  0  0  0  0
  -36.6272    7.1378   26.6972 C   0  0  0  0  0  0  0  0  0  0  0  0
  -33.7393   12.0507   19.2688 C   0  0  0  0  0  0  0  0  0  0  0  0
  -36.1454   12.4548   19.9777 C   0  0  0  0  0  0  0  0  0  0  0  0
  -36.7158   11.2783   20.7560 C   0  0  2  0  0  0  0  0  0  0  0  0
  -35.3308   10.6041   20.6987 C   0  0  0  0  0  0  0  0  0  0  0  0
  -37.7857   10.5137   20.0446 C   0  0  0  0  0  0  0  0  0  0  0  0
  -37.6112   10.6152   18.7702 F   0  0  0  0  0  0  0  0  0  0  0  0
  -34.8965   11.6986   19.8326 N   0  0  0  0  0  0  0  0  0  0  0  0
  -34.1916    9.6755   21.1453 H   0  0  0  0  0  0  0  0  0  0  0  0
  -31.3261    6.6305   21.6139 H   0  0  0  0  0  0  0  0  0  0  0  0
  -29.3371   14.9049   15.5551 H   0  0  0  0  0  0  0  0  0  0  0  0
  -29.1097   14.9948   17.9726 H   0  0  0  0  0  0  0  0  0  0  0  0
  -32.2376   10.4325   16.3089 H   0  0  0  0  0  0  0  0  0  0  0  0
  -32.5720   11.5610   14.9519 H   0  0  0  0  0  0  0  0  0  0  0  0
  -31.0695   10.5765   14.9519 H   0  0  0  0  0  0  0  0  0  0  0  0
  -35.1659    9.1469   22.5369 H   0  0  0  0  0  0  0  0  0  0  0  0
  -36.5412    8.2036   24.3340 H   0  0  0  0  0  0  0  0  0  0  0  0
  -33.8894    4.8651   24.6444 H   0  0  0  0  0  0  0  0  0  0  0  0
  -32.5519    5.7478   22.7815 H   0  0  0  0  0  0  0  0  0  0  0  0
  -35.3308    5.4702   26.4082 H   0  0  0  0  0  0  0  0  0  0  0  0
  -37.9908    5.6278   24.9270 H   0  0  0  0  0  0  0  0  0  0  0  0
  -36.8175    4.2547   24.8740 H   0  0  0  0  0  0  0  0  0  0  0  0
  -38.6838    3.8468   26.4615 H   0  0  0  0  0  0  0  0  0  0  0  0
  -37.0676    3.9087   27.2718 H   0  0  0  0  0  0  0  0  0  0  0  0
  -39.1763    6.0951   27.1874 H   0  0  0  0  0  0  0  0  0  0  0  0
  -38.6431    5.1120   28.6124 H   0  0  0  0  0  0  0  0  0  0  0  0
  -37.6800    7.4137   28.5437 H   0  0  0  0  0  0  0  0  0  0  0  0
  -36.4570    6.0753   28.5398 H   0  0  0  0  0  0  0  0  0  0  0  0
  -35.8051    7.8180   26.9648 H   0  0  0  0  0  0  0  0  0  0  0  0
  -37.4035    7.6760   26.1336 H   0  0  0  0  0  0  0  0  0  0  0  0
  -36.6619   12.6674   19.0301 H   0  0  0  0  0  0  0  0  0  0  0  0
  -36.1518   13.4726   20.3949 H   0  0  0  0  0  0  0  0  0  0  0  0
  -37.2360   11.4421   21.7114 H   0  0  0  0  0  0  0  0  0  0  0  0
  -34.8078   10.5499   21.6649 H   0  0  0  0  0  0  0  0  0  0  0  0
  -35.2142    9.5519   20.3997 H   0  0  0  0  0  0  0  0  0  0  0  0
  -37.7368    9.4548   20.3383 H   0  0  0  0  0  0  0  0  0  0  0  0
  -38.7704   10.9234   20.3138 H   0  0  0  0  0  0  0  0  0  0  0  0
  1  7  2  0
  1 11  1  0
  2  4  1  0
  2  9  2  0
  2 10  1  0
  3  4  1  0
  3  5  2  0
  3 19  1  0
  5 18  1  0
  6 31  2  0
  7 13  1  0
  7 16  1  0
  8  9  1  0
  8 13  1  0
  8 14  2  0
  9 31  1  0
 10 14  1  0
 10 18  1  0
 11 12  2  0
 12 15  1  0
 13 15  2  0
 17 18  2  0
 19 20  2  0
 19 24  1  0
 20 21  1  0
 21 22  2  0
 22 23  1  0
 25 22  1  0
 23 24  2  0
 25 26  1  0
 25 30  1  0
 26 27  1  0
 27 28  1  0
 28 29  1  0
 29 30  1  0
 31 37  1  0
 32 33  1  0
 32 37  1  0
 33 34  1  0
 33 35  1  0
 34 37  1  0
 35 36  1  0
  4 38  1  0
  5 39  1  0
 11 40  1  0
 12 41  1  0
 16 42  1  0
 16 43  1  0
 16 44  1  0
 20 45  1  0
 21 46  1  0
 23 47  1  0
 24 48  1  0
 25 49  1  1
 26 50  1  0
 26 51  1  0
 27 52  1  0
 27 53  1  0
 28 54  1  0
 28 55  1  0
 29 56  1  0
 29 57  1  0
 30 58  1  0
 30 59  1  0
 32 60  1  0
 32 61  1  0
 33 62  1  1
 34 63  1  0
 34 64  1  0
 35 65  1  0
 35 66  1  0
M  END
>  <filename_input>  (10) 
7TYP_KUR_docked.sdf

>  <pdb_id>  (10) 
7TYP_KUR

>  <pose_rank>  (10) 
9

>  <num_atoms_heavy>  (10) 
37

>  <num_torsions>  (10) 
5

>  <pose>  (10) 
[-32.47963883630649, 9.946649322704301, 20.023848581462097, -2.3662603530388067, 2.019449863279904, 0.24361475618034242, 0.5493201658466722, 5.3981825943131865, -2.5239961691692145, 0.32205178253724376, 3.387887677798128]

>  <energy>  (10) 
-801.1127460309684

>  <inter_energy>  (10) 
-893.1550301385352

>  <intra_energy>  (10) 
94.60565826902587

>  <rmsd>  (10) 
9.39041

>  <sdf_rank>  (10) 
0

$$$$

     RDKit          3D

 66 71  0  0  0  0  0  0  0  0999 V2000
  -29.3199   12.0850   13.6527 N   0  0  0  0  0  0  0  0  0  0  0  0
  -31.8882   10.0169   18.4901 C   0  0  0  0  0  0  0  0  0  0  0  0
  -32.1911    9.1544   20.6960 C   0  0  0  0  0  0  0  0  0  0  0  0
  -32.6103    9.3035   19.3882 N   0  0  0  0  0  0  0  0  0  0  0  0
  -30.9845    9.6853   21.0708 C   0  0  0  0  0  0  0  0  0  0  0  0
  -33.7236   10.8693   15.6837 O   0  0  0  0  0  0  0  0  0  0  0  0
  -29.6811   11.3362   14.6971 C   0  0  0  0  0  0  0  0  0  0  0  0
  -30.9142   11.1422   16.8597 C   0  0  0  0  0  0  0  0  0  0  0  0
  -32.0522   10.3407   17.1643 C   0  0  0  0  0  0  0  0  0  0  0  0
  -30.7374   10.5939   18.9024 N   0  0  0  0  0  0  0  0  0  0  0  0
  -29.8596   13.2989   13.5361 C   0  0  0  0  0  0  0  0  0  0  0  0
  -30.7613   13.7775   14.4386 C   0  0  0  0  0  0  0  0  0  0  0  0
  -30.6203   11.8421   15.6314 C   0  0  0  0  0  0  0  0  0  0  0  0
  -30.1313   11.2791   17.9129 N   0  0  0  0  0  0  0  0  0  0  0  0
  -31.1658   13.0544   15.4825 N   0  0  0  0  0  0  0  0  0  0  0  0
  -29.0119   10.0012   14.8109 C   0  0  0  0  0  0  0  0  0  0  0  0
  -29.0778   10.8819   20.4097 O   0  0  0  0  0  0  0  0  0  0  0  0
  -30.1715   10.4200   20.1676 C   0  0  0  0  0  0  0  0  0  0  0  0
  -33.0969    8.4370   21.6260 C   0  0  0  0  0  0  0  0  0  0  0  0
  -33.6528    7.2058   21.3007 C   0  0  0  0  0  0  0  0  0  0  0  0
  -34.5531    6.5994   22.1364 C   0  0  0  0  0  0  0  0  0  0  0  0
  -34.9577    7.1967   23.3090 C   0  0  0  0  0  0  0  0  0  0  0  0
  -34.3901    8.4062   23.6511 C   0  0  0  0  0  0  0  0  0  0  0  0
  -33.4658    9.0112   22.8346 C   0  0  0  0  0  0  0  0  0  0  0  0
  -36.0458    6.5500   24.1336 C   0  0  2  0  0  0  0  0  0  0  0  0
  -36.4971    7.3760   25.3226 C   0  0  0  0  0  0  0  0  0  0  0  0
  -37.7248    6.7609   25.9757 C   0  0  0  0  0  0  0  0  0  0  0  0
  -37.4597    5.3386   26.4035 C   0  0  0  0  0  0  0  0  0  0  0  0
  -36.9322    4.5057   25.2595 C   0  0  0  0  0  0  0  0  0  0  0  0
  -35.7228    5.1496   24.6076 C   0  0  0  0  0  0  0  0  0  0  0  0
  -33.1585    9.9846   16.2609 C   0  0  0  0  0  0  0  0  0  0  0  0
  -34.5769    8.0877   15.3414 C   0  0  0  0  0  0  0  0  0  0  0  0
  -34.1785    6.7415   15.9283 C   0  0  2  0  0  0  0  0  0  0  0  0
  -33.1755    7.4690   16.8454 C   0  0  0  0  0  0  0  0  0  0  0  0
  -33.5344    5.8003   14.9614 C   0  0  0  0  0  0  0  0  0  0  0  0
  -34.3752    5.4992   14.0302 F   0  0  0  0  0  0  0  0  0  0  0  0
  -33.5058    8.7023   16.1337 N   0  0  0  0  0  0  0  0  0  0  0  0
  -33.4916    8.8625   19.0888 H   0  0  0  0  0  0  0  0  0  0  0  0
  -30.6350    9.5378   22.1034 H   0  0  0  0  0  0  0  0  0  0  0  0
  -29.5681   13.9329   12.6858 H   0  0  0  0  0  0  0  0  0  0  0  0
  -31.1674   14.7905   14.3015 H   0  0  0  0  0  0  0  0  0  0  0  0
  -28.8834    9.7448   15.8729 H   0  0  0  0  0  0  0  0  0  0  0  0
  -29.6333    9.2366   14.3218 H   0  0  0  0  0  0  0  0  0  0  0  0
  -28.0275   10.0416   14.3218 H   0  0  0  0  0  0  0  0  0  0  0  0
  -33.3663    6.7119   20.3605 H   0  0  0  0  0  0  0  0  0  0  0  0
  -34.9614    5.6147   21.8648 H   0  0  0  0  0  0  0  0  0  0  0  0
  -34.6821    8.8941   24.5927 H   0  0  0  0  0  0  0  0  0  0  0  0
  -33.0114    9.9643   23.1431 H   0  0  0  0  0  0  0  0  0  0  0  0
  -36.8757    6.4882   23.4143 H   0  0  0  0  0  0  0  0  0  0  0  0
  -35.6818    7.4219   26.0596 H   0  0  0  0  0  0  0  0  0  0  0  0
  -36.7546    8.3862   24.9714 H   0  0  0  0  0  0  0  0  0  0  0  0
  -37.9977    7.3565   26.8593 H   0  0  0  0  0  0  0  0  0  0  0  0
  -38.5447    6.7572   25.2424 H   0  0  0  0  0  0  0  0  0  0  0  0
  -36.7172    5.3420   27.2152 H   0  0  0  0  0  0  0  0  0  0  0  0
  -38.4086    4.8976   26.7427 H   0  0  0  0  0  0  0  0  0  0  0  0
  -36.6457    3.5150   25.6423 H   0  0  0  0  0  0  0  0  0  0  0  0
  -37.7257    4.4214   24.5024 H   0  0  0  0  0  0  0  0  0  0  0  0
  -35.4113    4.5407   23.7460 H   0  0  0  0  0  0  0  0  0  0  0  0
  -34.9131    5.2080   25.3499 H   0  0  0  0  0  0  0  0  0  0  0  0
  -34.4415    8.1680   14.2527 H   0  0  0  0  0  0  0  0  0  0  0  0
  -35.6128    8.4527   15.4008 H   0  0  0  0  0  0  0  0  0  0  0  0
  -34.9427    6.0636   16.3361 H   0  0  0  0  0  0  0  0  0  0  0  0
  -33.4470    7.4691   17.9114 H   0  0  0  0  0  0  0  0  0  0  0  0
  -32.1360    7.1249   16.9498 H   0  0  0  0  0  0  0  0  0  0  0  0
  -32.6503    6.2800   14.5163 H   0  0  0  0  0  0  0  0  0  0  0  0
  -33.2280    4.8851   15.4891 H   0  0  0  0  0  0  0  0  0  0  0  0
  1  7  2  0
  1 11  1  0
  2  4  1  0
  2  9  2  0
  2 10  1  0
  3  4  1  0
  3  5  2  0
  3 19  1  0
  5 18  1  0
  6 31  2  0
  7 13  1  0
  7 16  1  0
  8  9  1  0
  8 13  1  0
  8 14  2  0
  9 31  1  0
 10 14  1  0
 10 18  1  0
 11 12  2  0
 12 15  1  0
 13 15  2  0
 17 18  2  0
 19 20  2  0
 19 24  1  0
 20 21  1  0
 21 22  2  0
 22 23  1  0
 25 22  1  0
 23 24  2  0
 25 26  1  0
 25 30  1  0
 26 27  1  0
 27 28  1  0
 28 29  1  0
 29 30  1  0
 31 37  1  0
 32 33  1  0
 32 37  1  0
 33 34  1  0
 33 35  1  0
 34 37  1  0
 35 36  1  0
  4 38  1  0
  5 39  1  0
 11 40  1  0
 12 41  1  0
 16 42  1  0
 16 43  1  0
 16 44  1  0
 20 45  1  0
 21 46  1  0
 23 47  1  0
 24 48  1  0
 25 49  1  6
 26 50  1  0
 26 51  1  0
 27 52  1  0
 27 53  1  0
 28 54  1  0
 28 55  1  0
 29 56  1  0
 29 57  1  0
 30 58  1  0
 30 59  1  0
 32 60  1  0
 32 61  1  0
 33 62  1  1
 34 63  1  0
 34 64  1  0
 35 65  1  0
 35 66  1  0
M  END
>  <filename_input>  (11) 
7TYP_KUR_docked.sdf

>  <pdb_id>  (11) 
7TYP_KUR

>  <pose_rank>  (11) 
10

>  <num_atoms_heavy>  (11) 
37

>  <num_torsions>  (11) 
5

>  <pose>  (11) 
[-31.888223724729354, 10.016927544543925, 18.490079800542773, -2.9807162568675354, 0.9299694358906244, -1.0228567121979952, 0.46986285215280443, 4.684860151593931, 2.1661041079597543, 1.3041998492924076, -1.2735187738077036]

>  <energy>  (11) 
-587.9416903972332

>  <inter_energy>  (11) 
-601.6536470939197

>  <intra_energy>  (11) 
21.400868404727227

>  <rmsd>  (11) 
9.96999

>  <sdf_rank>  (11) 
0

$$$$

     RDKit          3D

 66 71  0  0  0  0  0  0  0  0999 V2000
  -37.2969   11.0603   19.7929 N   0  0  0  0  0  0  0  0  0  0  0  0
  -35.1174    7.5988   23.9762 C   0  0  0  0  0  0  0  0  0  0  0  0
  -35.2341    6.1417   25.8643 C   0  0  0  0  0  0  0  0  0  0  0  0
  -34.6106    6.5797   24.7121 N   0  0  0  0  0  0  0  0  0  0  0  0
  -36.3528    6.7995   26.3047 C   0  0  0  0  0  0  0  0  0  0  0  0
  -32.6395    8.6845   22.0078 O   0  0  0  0  0  0  0  0  0  0  0  0
  -37.1974   10.3693   20.9307 C   0  0  0  0  0  0  0  0  0  0  0  0
  -35.7524    9.2050   22.6014 C   0  0  0  0  0  0  0  0  0  0  0  0
  -34.7386    8.2265   22.8135 C   0  0  0  0  0  0  0  0  0  0  0  0
  -36.2632    8.1843   24.3908 N   0  0  0  0  0  0  0  0  0  0  0  0
  -36.1698   11.4537   19.1987 C   0  0  0  0  0  0  0  0  0  0  0  0
  -34.9430   11.1780   19.7236 C   0  0  0  0  0  0  0  0  0  0  0  0
  -35.9166   10.0870   21.4701 C   0  0  0  0  0  0  0  0  0  0  0  0
  -36.6570    9.1705   23.5614 N   0  0  0  0  0  0  0  0  0  0  0  0
  -34.7996   10.5108   20.8683 N   0  0  0  0  0  0  0  0  0  0  0  0
  -38.4883    9.9082   21.5343 C   0  0  0  0  0  0  0  0  0  0  0  0
  -37.8727    8.5482   25.9355 O   0  0  0  0  0  0  0  0  0  0  0  0
  -36.9151    7.8907   25.5908 C   0  0  0  0  0  0  0  0  0  0  0  0
  -34.6549    4.9590   26.5470 C   0  0  0  0  0  0  0  0  0  0  0  0
  -34.0273    5.0626   27.7823 C   0  0  0  0  0  0  0  0  0  0  0  0
  -33.4246    3.9748   28.3568 C   0  0  0  0  0  0  0  0  0  0  0  0
  -33.3959    2.7531   27.7226 C   0  0  0  0  0  0  0  0  0  0  0  0
  -34.0399    2.6364   26.5086 C   0  0  0  0  0  0  0  0  0  0  0  0
  -34.6713    3.7133   25.9352 C   0  0  0  0  0  0  0  0  0  0  0  0
  -32.6110    1.6174   28.3361 C   0  0  2  0  0  0  0  0  0  0  0  0
  -31.4169    1.1732   27.5137 C   0  0  0  0  0  0  0  0  0  0  0  0
  -30.5655    0.1786   28.2871 C   0  0  0  0  0  0  0  0  0  0  0  0
  -31.3776   -1.0202   28.7110 C   0  0  0  0  0  0  0  0  0  0  0  0
  -32.6191   -0.6087   29.4660 C   0  0  0  0  0  0  0  0  0  0  0  0
  -33.4407    0.4014   28.6869 C   0  0  0  0  0  0  0  0  0  0  0  0
  -33.5793    7.9437   21.9516 C   0  0  0  0  0  0  0  0  0  0  0  0
  -32.6358    6.4161   20.1539 C   0  0  0  0  0  0  0  0  0  0  0  0
  -33.6242    5.3318   19.7507 C   0  0  2  0  0  0  0  0  0  0  0  0
  -34.6696    5.9765   20.6822 C   0  0  0  0  0  0  0  0  0  0  0  0
  -33.2350    3.9455   20.1534 C   0  0  0  0  0  0  0  0  0  0  0  0
  -32.0922    3.9768   20.7518 F   0  0  0  0  0  0  0  0  0  0  0  0
  -33.6230    6.8943   21.1283 N   0  0  0  0  0  0  0  0  0  0  0  0
  -33.7407    6.1214   24.4052 H   0  0  0  0  0  0  0  0  0  0  0  0
  -36.8299    6.4721   27.2403 H   0  0  0  0  0  0  0  0  0  0  0  0
  -36.2323   12.0177   18.2564 H   0  0  0  0  0  0  0  0  0  0  0  0
  -34.0444   11.5161   19.1867 H   0  0  0  0  0  0  0  0  0  0  0  0
  -38.4107    9.9359   22.6312 H   0  0  0  0  0  0  0  0  0  0  0  0
  -39.3032   10.5709   21.2074 H   0  0  0  0  0  0  0  0  0  0  0  0
  -38.6989    8.8793   21.2074 H   0  0  0  0  0  0  0  0  0  0  0  0
  -34.0142    6.0302   28.3054 H   0  0  0  0  0  0  0  0  0  0  0  0
  -32.9537    4.0796   29.3454 H   0  0  0  0  0  0  0  0  0  0  0  0
  -34.0481    1.6656   25.9914 H   0  0  0  0  0  0  0  0  0  0  0  0
  -35.1973    3.5865   24.9775 H   0  0  0  0  0  0  0  0  0  0  0  0
  -32.2453    2.0672   29.2710 H   0  0  0  0  0  0  0  0  0  0  0  0
  -31.7737    0.6985   26.5878 H   0  0  0  0  0  0  0  0  0  0  0  0
  -30.8026    2.0555   27.2810 H   0  0  0  0  0  0  0  0  0  0  0  0
  -29.7362   -0.1577   27.6474 H   0  0  0  0  0  0  0  0  0  0  0  0
  -30.1815    0.6763   29.1898 H   0  0  0  0  0  0  0  0  0  0  0  0
  -31.6747   -1.5855   27.8154 H   0  0  0  0  0  0  0  0  0  0  0  0
  -30.7579   -1.6389   29.3768 H   0  0  0  0  0  0  0  0  0  0  0  0
  -33.2349   -1.5009   29.6528 H   0  0  0  0  0  0  0  0  0  0  0  0
  -32.3065   -0.1407   30.4111 H   0  0  0  0  0  0  0  0  0  0  0  0
  -34.2994    0.7156   29.2984 H   0  0  0  0  0  0  0  0  0  0  0  0
  -33.7847   -0.0700   27.7544 H   0  0  0  0  0  0  0  0  0  0  0  0
  -31.7027    6.0395   20.5983 H   0  0  0  0  0  0  0  0  0  0  0  0
  -32.1952    7.0936   19.4077 H   0  0  0  0  0  0  0  0  0  0  0  0
  -33.8402    5.1419   18.6889 H   0  0  0  0  0  0  0  0  0  0  0  0
  -35.5102    6.4591   20.1621 H   0  0  0  0  0  0  0  0  0  0  0  0
  -35.2525    5.3766   21.3965 H   0  0  0  0  0  0  0  0  0  0  0  0
  -33.9946    3.5346   20.8347 H   0  0  0  0  0  0  0  0  0  0  0  0
  -33.1633    3.3099   19.2585 H   0  0  0  0  0  0  0  0  0  0  0  0
  1  7  2  0
  1 11  1  0
  2  4  1  0
  2  9  2  0
  2 10  1  0
  3  4  1  0
  3  5  2  0
  3 19  1  0
  5 18  1  0
  6 31  2  0
  7 13  1  0
  7 16  1  0
  8  9  1  0
  8 13  1  0
  8 14  2  0
  9 31  1  0
 10 14  1  0
 10 18  1  0
 11 12  2  0
 12 15  1  0
 13 15  2  0
 17 18  2  0
 19 20  2  0
 19 24  1  0
 20 21  1  0
 21 22  2  0
 22 23  1  0
 25 22  1  0
 23 24  2  0
 25 26  1  0
 25 30  1  0
 26 27  1  0
 27 28  1  0
 28 29  1  0
 29 30  1  0
 31 37  1  0
 32 33  1  0
 32 37  1  0
 33 34  1  0
 33 35  1  0
 34 37  1  0
 35 36  1  0
  4 38  1  0
  5 39  1  0
 11 40  1  0
 12 41  1  0
 16 42  1  0
 16 43  1  0
 16 44  1  0
 20 45  1  0
 21 46  1  0
 23 47  1  0
 24 48  1  0
 25 49  1  1
 26 50  1  0
 26 51  1  0
 27 52  1  0
 27 53  1  0
 28 54  1  0
 28 55  1  0
 29 56  1  0
 29 57  1  0
 30 58  1  0
 30 59  1  0
 32 60  1  0
 32 61  1  0
 33 62  1  6
 34 63  1  0
 34 64  1  0
 35 65  1  0
 35 66  1  0
M  END
>  <filename_input>  (12) 
7TYP_KUR_docked.sdf

>  <pdb_id>  (12) 
7TYP_KUR

>  <pose_rank>  (12) 
11

>  <num_atoms_heavy>  (12) 
37

>  <num_torsions>  (12) 
5

>  <pose>  (12) 
[-35.11742216869338, 7.598782118381768, 23.976227046707837, 2.2251745912418075, 1.9902304039542758, 2.298665848532647, -1.579293613424077, 0.6817275839587545, 3.2504141797588395, 2.3782596601578705, -0.2278420551743518]

>  <energy>  (12) 
-608.2017247148194

>  <inter_energy>  (12) 
-650.4038373790296

>  <intra_energy>  (12) 
42.11516712994561

>  <rmsd>  (12) 
10.2014

>  <sdf_rank>  (12) 
0

$$$$

     RDKit          3D

 66 71  0  0  0  0  0  0  0  0999 V2000
  -32.0555    4.9338   21.3304 N   0  0  0  0  0  0  0  0  0  0  0  0
  -35.5697    9.4479   21.3708 C   0  0  0  0  0  0  0  0  0  0  0  0
  -37.2103   11.0589   22.0147 C   0  0  0  0  0  0  0  0  0  0  0  0
  -35.9256   10.7301   21.6280 N   0  0  0  0  0  0  0  0  0  0  0  0
  -38.1591   10.0717   22.0730 C   0  0  0  0  0  0  0  0  0  0  0  0
  -32.1999    9.2063   21.5214 O   0  0  0  0  0  0  0  0  0  0  0  0
  -32.9520    5.8688   21.6529 C   0  0  0  0  0  0  0  0  0  0  0  0
  -34.7425    7.4501   20.9259 C   0  0  0  0  0  0  0  0  0  0  0  0
  -34.4008    8.8319   20.9917 C   0  0  0  0  0  0  0  0  0  0  0  0
  -36.5046    8.4809   21.5067 N   0  0  0  0  0  0  0  0  0  0  0  0
  -32.0560    4.4709   20.0798 C   0  0  0  0  0  0  0  0  0  0  0  0
  -32.9414    4.9174   19.1453 C   0  0  0  0  0  0  0  0  0  0  0  0
  -33.8699    6.3276   20.6741 C   0  0  0  0  0  0  0  0  0  0  0  0
  -36.0114    7.2574   21.2318 N   0  0  0  0  0  0  0  0  0  0  0  0
  -33.8666    5.8330   19.4313 N   0  0  0  0  0  0  0  0  0  0  0  0
  -32.8805    6.3918   23.0545 C   0  0  0  0  0  0  0  0  0  0  0  0
  -38.6412    7.7948   21.7769 O   0  0  0  0  0  0  0  0  0  0  0  0
  -37.8525    8.7145   21.7890 C   0  0  0  0  0  0  0  0  0  0  0  0
  -37.4765   12.4753   22.3658 C   0  0  0  0  0  0  0  0  0  0  0  0
  -37.0337   13.5222   21.5668 C   0  0  0  0  0  0  0  0  0  0  0  0
  -37.2157   14.8243   21.9514 C   0  0  0  0  0  0  0  0  0  0  0  0
  -37.8166   15.1407   23.1490 C   0  0  0  0  0  0  0  0  0  0  0  0
  -38.2825   14.1073   23.9346 C   0  0  0  0  0  0  0  0  0  0  0  0
  -38.1302   12.7983   23.5468 C   0  0  0  0  0  0  0  0  0  0  0  0
  -37.8807   16.5848   23.5878 C   0  0  2  0  0  0  0  0  0  0  0  0
  -36.7461   17.4435   23.0635 C   0  0  0  0  0  0  0  0  0  0  0  0
  -36.9901   18.9123   23.3723 C   0  0  0  0  0  0  0  0  0  0  0  0
  -37.1670   19.1357   24.8538 C   0  0  0  0  0  0  0  0  0  0  0  0
  -38.2379   18.2369   25.4251 C   0  0  0  0  0  0  0  0  0  0  0  0
  -37.9877   16.7796   25.0847 C   0  0  0  0  0  0  0  0  0  0  0  0
  -33.0816    9.4361   20.7437 C   0  0  0  0  0  0  0  0  0  0  0  0
  -31.7396   10.9749   19.2316 C   0  0  0  0  0  0  0  0  0  0  0  0
  -32.5863   11.5474   18.1044 C   0  0  2  0  0  0  0  0  0  0  0  0
  -33.8211   10.8594   18.7195 C   0  0  0  0  0  0  0  0  0  0  0  0
  -32.2374   11.0463   16.7396 C   0  0  0  0  0  0  0  0  0  0  0  0
  -31.8317   12.0311   16.0112 F   0  0  0  0  0  0  0  0  0  0  0  0
  -32.9201   10.2299   19.6831 N   0  0  0  0  0  0  0  0  0  0  0  0
  -35.2220   11.4764   21.5330 H   0  0  0  0  0  0  0  0  0  0  0  0
  -39.1900   10.3389   22.3483 H   0  0  0  0  0  0  0  0  0  0  0  0
  -31.3195    3.7055   19.7940 H   0  0  0  0  0  0  0  0  0  0  0  0
  -32.8910    4.5102   18.1247 H   0  0  0  0  0  0  0  0  0  0  0  0
  -32.9945    5.5582   23.7632 H   0  0  0  0  0  0  0  0  0  0  0  0
  -31.9074    6.8789   23.2149 H   0  0  0  0  0  0  0  0  0  0  0  0
  -33.6871    7.1223   23.2149 H   0  0  0  0  0  0  0  0  0  0  0  0
  -36.5306   13.3026   20.6135 H   0  0  0  0  0  0  0  0  0  0  0  0
  -36.8746   15.6340   21.2895 H   0  0  0  0  0  0  0  0  0  0  0  0
  -38.7840   14.3349   24.8869 H   0  0  0  0  0  0  0  0  0  0  0  0
  -38.5321   11.9947   24.1814 H   0  0  0  0  0  0  0  0  0  0  0  0
  -38.8199   16.9253   23.1274 H   0  0  0  0  0  0  0  0  0  0  0  0
  -35.8057   17.1269   23.5383 H   0  0  0  0  0  0  0  0  0  0  0  0
  -36.6863   17.3189   21.9722 H   0  0  0  0  0  0  0  0  0  0  0  0
  -36.1297   19.5006   23.0209 H   0  0  0  0  0  0  0  0  0  0  0  0
  -37.9108   19.2279   22.8598 H   0  0  0  0  0  0  0  0  0  0  0  0
  -36.2150   18.9257   25.3632 H   0  0  0  0  0  0  0  0  0  0  0  0
  -37.4732   20.1804   25.0112 H   0  0  0  0  0  0  0  0  0  0  0  0
  -38.2521   18.3502   26.5191 H   0  0  0  0  0  0  0  0  0  0  0  0
  -39.2026   18.5309   24.9858 H   0  0  0  0  0  0  0  0  0  0  0  0
  -38.8207   16.1721   25.4682 H   0  0  0  0  0  0  0  0  0  0  0  0
  -37.0398   16.4684   25.5481 H   0  0  0  0  0  0  0  0  0  0  0  0
  -30.9029   10.3437   18.8975 H   0  0  0  0  0  0  0  0  0  0  0  0
  -31.1815   11.6304   19.9164 H   0  0  0  0  0  0  0  0  0  0  0  0
  -32.5759   12.6268   17.8928 H   0  0  0  0  0  0  0  0  0  0  0  0
  -34.5557   11.5482   19.1621 H   0  0  0  0  0  0  0  0  0  0  0  0
  -34.5148   10.2655   18.1062 H   0  0  0  0  0  0  0  0  0  0  0  0
  -31.4382   10.2946   16.8181 H   0  0  0  0  0  0  0  0  0  0  0  0
  -33.1256   10.5901   16.2781 H   0  0  0  0  0  0  0  0  0  0  0  0
  1  7  2  0
  1 11  1  0
  2  4  1  0
  2  9  2  0
  2 10  1  0
  3  4  1  0
  3  5  2  0
  3 19  1  0
  5 18  1  0
  6 31  2  0
  7 13  1  0
  7 16  1  0
  8  9  1  0
  8 13  1  0
  8 14  2  0
  9 31  1  0
 10 14  1  0
 10 18  1  0
 11 12  2  0
 12 15  1  0
 13 15  2  0
 17 18  2  0
 19 20  2  0
 19 24  1  0
 20 21  1  0
 21 22  2  0
 22 23  1  0
 25 22  1  0
 23 24  2  0
 25 26  1  0
 25 30  1  0
 26 27  1  0
 27 28  1  0
 28 29  1  0
 29 30  1  0
 31 37  1  0
 32 33  1  0
 32 37  1  0
 33 34  1  0
 33 35  1  0
 34 37  1  0
 35 36  1  0
  4 38  1  0
  5 39  1  0
 11 40  1  0
 12 41  1  0
 16 42  1  0
 16 43  1  0
 16 44  1  0
 20 45  1  0
 21 46  1  0
 23 47  1  0
 24 48  1  0
 25 49  1  6
 26 50  1  0
 26 51  1  0
 27 52  1  0
 27 53  1  0
 28 54  1  0
 28 55  1  0
 29 56  1  0
 29 57  1  0
 30 58  1  0
 30 59  1  0
 32 60  1  0
 32 61  1  0
 33 62  1  6
 34 63  1  0
 34 64  1  0
 35 65  1  0
 35 66  1  0
M  END
>  <filename_input>  (13) 
7TYP_KUR_docked.sdf

>  <pdb_id>  (13) 
7TYP_KUR

>  <pose_rank>  (13) 
12

>  <num_atoms_heavy>  (13) 
37

>  <num_torsions>  (13) 
5

>  <pose>  (13) 
[-35.569726455154665, 9.447909689403119, 21.370765807627855, -0.3222469815185577, -3.3264074927414935, 0.7510628682377343, -2.7468552690092563, 4.417847706259171, -5.054337924041653, 1.2494498005485306, 1.265545888554059]

>  <energy>  (13) 
-483.48434294930814

>  <inter_energy>  (13) 
-494.7144430628829

>  <intra_energy>  (13) 
10.85977715417726

>  <rmsd>  (13) 
7.42696

>  <sdf_rank>  (13) 
0

$$$$

     RDKit          3D

 66 71  0  0  0  0  0  0  0  0999 V2000
  -33.0050   -1.0833   30.2498 N   0  0  0  0  0  0  0  0  0  0  0  0
  -33.3262    3.4941   26.7119 C   0  0  0  0  0  0  0  0  0  0  0  0
  -33.9272    5.4911   25.5491 C   0  0  0  0  0  0  0  0  0  0  0  0
  -33.4136    4.2089   25.5637 N   0  0  0  0  0  0  0  0  0  0  0  0
  -34.4196    6.0223   26.7126 C   0  0  0  0  0  0  0  0  0  0  0  0
  -33.0020    0.5925   25.4394 O   0  0  0  0  0  0  0  0  0  0  0  0
  -33.2998   -0.1791   29.3131 C   0  0  0  0  0  0  0  0  0  0  0  0
  -33.0548    2.1473   28.4399 C   0  0  0  0  0  0  0  0  0  0  0  0
  -32.8635    2.2397   27.0309 C   0  0  0  0  0  0  0  0  0  0  0  0
  -33.7503    4.0671   27.8606 N   0  0  0  0  0  0  0  0  0  0  0  0
  -32.1049   -0.7537   31.1769 C   0  0  0  0  0  0  0  0  0  0  0  0
  -31.4855    0.4600   31.1821 C   0  0  0  0  0  0  0  0  0  0  0  0
  -32.6503    1.0814   29.3259 C   0  0  0  0  0  0  0  0  0  0  0  0
  -33.5943    3.2509   28.9214 N   0  0  0  0  0  0  0  0  0  0  0  0
  -31.7341    1.3824   30.2529 N   0  0  0  0  0  0  0  0  0  0  0  0
  -34.3510   -0.5775   28.3234 C   0  0  0  0  0  0  0  0  0  0  0  0
  -34.8311    5.6934   28.9988 O   0  0  0  0  0  0  0  0  0  0  0  0
  -34.3798    5.3114   27.9413 C   0  0  0  0  0  0  0  0  0  0  0  0
  -33.8927    6.2261   24.2611 C   0  0  0  0  0  0  0  0  0  0  0  0
  -32.9526    5.9372   23.2796 C   0  0  0  0  0  0  0  0  0  0  0  0
  -32.8832    6.6832   22.1328 C   0  0  0  0  0  0  0  0  0  0  0  0
  -33.7199    7.7566   21.9242 C   0  0  0  0  0  0  0  0  0  0  0  0
  -34.6730    8.0327   22.8821 C   0  0  0  0  0  0  0  0  0  0  0  0
  -34.7703    7.2749   24.0238 C   0  0  0  0  0  0  0  0  0  0  0  0
  -33.5216    8.6253   20.7043 C   0  0  2  0  0  0  0  0  0  0  0  0
  -32.1490    9.2634   20.6136 C   0  0  0  0  0  0  0  0  0  0  0  0
  -31.9564    9.9469   19.2690 C   0  0  0  0  0  0  0  0  0  0  0  0
  -33.0264   10.9824   19.0257 C   0  0  0  0  0  0  0  0  0  0  0  0
  -34.4094   10.3975   19.1865 C   0  0  0  0  0  0  0  0  0  0  0  0
  -34.5716    9.7001   20.5243 C   0  0  0  0  0  0  0  0  0  0  0  0
  -32.2691    1.2260   26.1443 C   0  0  0  0  0  0  0  0  0  0  0  0
  -30.1178    0.0787   25.4296 C   0  0  0  0  0  0  0  0  0  0  0  0
  -28.9118    0.5988   26.1979 C   0  0  2  0  0  0  0  0  0  0  0  0
  -29.8614    1.4670   27.0469 C   0  0  0  0  0  0  0  0  0  0  0  0
  -27.9413    1.3917   25.3824 C   0  0  0  0  0  0  0  0  0  0  0  0
  -26.7420    1.1630   25.7996 F   0  0  0  0  0  0  0  0  0  0  0  0
  -30.9489    1.0334   26.1717 N   0  0  0  0  0  0  0  0  0  0  0  0
  -33.0898    3.7864   24.6820 H   0  0  0  0  0  0  0  0  0  0  0  0
  -34.8593    7.0304   26.6941 H   0  0  0  0  0  0  0  0  0  0  0  0
  -31.8548   -1.4835   31.9610 H   0  0  0  0  0  0  0  0  0  0  0  0
  -30.7590    0.6851   31.9767 H   0  0  0  0  0  0  0  0  0  0  0  0
  -35.2492   -0.9178   28.8595 H   0  0  0  0  0  0  0  0  0  0  0  0
  -34.6062    0.2863   27.6919 H   0  0  0  0  0  0  0  0  0  0  0  0
  -33.9697   -1.3934   27.6919 H   0  0  0  0  0  0  0  0  0  0  0  0
  -32.2554    5.0989   23.4252 H   0  0  0  0  0  0  0  0  0  0  0  0
  -32.1437    6.4193   21.3625 H   0  0  0  0  0  0  0  0  0  0  0  0
  -35.3662    8.8730   22.7295 H   0  0  0  0  0  0  0  0  0  0  0  0
  -35.5548    7.5026   24.7604 H   0  0  0  0  0  0  0  0  0  0  0  0
  -33.6260    7.8999   19.8840 H   0  0  0  0  0  0  0  0  0  0  0  0
  -32.0450   10.0096   21.4151 H   0  0  0  0  0  0  0  0  0  0  0  0
  -31.3877    8.4766   20.7202 H   0  0  0  0  0  0  0  0  0  0  0  0
  -30.9720   10.4376   19.2535 H   0  0  0  0  0  0  0  0  0  0  0  0
  -32.0223    9.1852   18.4781 H   0  0  0  0  0  0  0  0  0  0  0  0
  -32.8995   11.8036   19.7465 H   0  0  0  0  0  0  0  0  0  0  0  0
  -32.9243   11.3482   17.9933 H   0  0  0  0  0  0  0  0  0  0  0  0
  -35.1498   11.2079   19.1149 H   0  0  0  0  0  0  0  0  0  0  0  0
  -34.5616    9.6531   18.3911 H   0  0  0  0  0  0  0  0  0  0  0  0
  -35.5696    9.2400   20.5719 H   0  0  0  0  0  0  0  0  0  0  0  0
  -34.4530   10.4447   21.3253 H   0  0  0  0  0  0  0  0  0  0  0  0
  -30.0780    0.2565   24.3448 H   0  0  0  0  0  0  0  0  0  0  0  0
  -30.3615   -0.9937   25.4068 H   0  0  0  0  0  0  0  0  0  0  0  0
  -28.2035   -0.1021   26.6638 H   0  0  0  0  0  0  0  0  0  0  0  0
  -29.9613    1.1461   28.0943 H   0  0  0  0  0  0  0  0  0  0  0  0
  -29.6590    2.5327   27.2295 H   0  0  0  0  0  0  0  0  0  0  0  0
  -28.0243    1.0979   24.3256 H   0  0  0  0  0  0  0  0  0  0  0  0
  -28.1669    2.4636   25.4835 H   0  0  0  0  0  0  0  0  0  0  0  0
  1  7  2  0
  1 11  1  0
  2  4  1  0
  2  9  2  0
  2 10  1  0
  3  4  1  0
  3  5  2  0
  3 19  1  0
  5 18  1  0
  6 31  2  0
  7 13  1  0
  7 16  1  0
  8  9  1  0
  8 13  1  0
  8 14  2  0
  9 31  1  0
 10 14  1  0
 10 18  1  0
 11 12  2  0
 12 15  1  0
 13 15  2  0
 17 18  2  0
 19 20  2  0
 19 24  1  0
 20 21  1  0
 21 22  2  0
 22 23  1  0
 25 22  1  0
 23 24  2  0
 25 26  1  0
 25 30  1  0
 26 27  1  0
 27 28  1  0
 28 29  1  0
 29 30  1  0
 31 37  1  0
 32 33  1  0
 32 37  1  0
 33 34  1  0
 33 35  1  0
 34 37  1  0
 35 36  1  0
  4 38  1  0
  5 39  1  0
 11 40  1  0
 12 41  1  0
 16 42  1  0
 16 43  1  0
 16 44  1  0
 20 45  1  0
 21 46  1  0
 23 47  1  0
 24 48  1  0
 25 49  1  6
 26 50  1  0
 26 51  1  0
 27 52  1  0
 27 53  1  0
 28 54  1  0
 28 55  1  0
 29 56  1  0
 29 57  1  0
 30 58  1  0
 30 59  1  0
 32 60  1  0
 32 61  1  0
 33 62  1  1
 34 63  1  0
 34 64  1  0
 35 65  1  0
 35 66  1  0
M  END
>  <filename_input>  (14) 
7TYP_KUR_docked.sdf

>  <pdb_id>  (14) 
7TYP_KUR

>  <pose_rank>  (14) 
13

>  <num_atoms_heavy>  (14) 
37

>  <num_torsions>  (14) 
5

>  <pose>  (14) 
[-33.326194529251204, 3.494131046285175, 26.711940974918743, 0.5608339968667077, 2.149340958497562, -2.876583047827994, 1.012177649594737, 1.148848032153266, 0.7455649216712953, -0.012045065574709822, 0.7410581495472546]

>  <energy>  (14) 
-422.0685357932838

>  <inter_energy>  (14) 
-435.26141234241913

>  <intra_energy>  (14) 
11.957518791004674

>  <rmsd>  (14) 
8.24961

>  <sdf_rank>  (14) 
0

$$$$

     RDKit          3D

 66 71  0  0  0  0  0  0  0  0999 V2000
  -31.6475   -1.0885   30.7808 N   0  0  0  0  0  0  0  0  0  0  0  0
  -33.0745    3.2994   27.2045 C   0  0  0  0  0  0  0  0  0  0  0  0
  -33.9301    5.3605   26.3552 C   0  0  0  0  0  0  0  0  0  0  0  0
  -33.5909    4.0320   26.1878 N   0  0  0  0  0  0  0  0  0  0  0  0
  -33.8023    5.9268   27.5967 C   0  0  0  0  0  0  0  0  0  0  0  0
  -33.6200    0.3531   26.0675 O   0  0  0  0  0  0  0  0  0  0  0  0
  -32.2915   -0.1675   30.0603 C   0  0  0  0  0  0  0  0  0  0  0  0
  -32.1992    1.9128   28.6825 C   0  0  0  0  0  0  0  0  0  0  0  0
  -32.6432    2.0004   27.3314 C   0  0  0  0  0  0  0  0  0  0  0  0
  -32.8883    3.9004   28.4009 N   0  0  0  0  0  0  0  0  0  0  0  0
  -30.3146   -1.0519   30.7963 C   0  0  0  0  0  0  0  0  0  0  0  0
  -29.6101   -0.1174   30.0983 C   0  0  0  0  0  0  0  0  0  0  0  0
  -31.5504    0.8011   29.3368 C   0  0  0  0  0  0  0  0  0  0  0  0
  -32.3594    3.0609   29.3127 N   0  0  0  0  0  0  0  0  0  0  0  0
  -30.2128    0.8054   29.3491 N   0  0  0  0  0  0  0  0  0  0  0  0
  -33.7873   -0.2200   30.1132 C   0  0  0  0  0  0  0  0  0  0  0  0
  -33.1895    5.6172   29.8401 O   0  0  0  0  0  0  0  0  0  0  0  0
  -33.2924    5.2022   28.7064 C   0  0  0  0  0  0  0  0  0  0  0  0
  -34.3976    6.1021   25.1587 C   0  0  0  0  0  0  0  0  0  0  0  0
  -34.1570    5.6386   23.8712 C   0  0  0  0  0  0  0  0  0  0  0  0
  -34.5222    6.3798   22.7785 C   0  0  0  0  0  0  0  0  0  0  0  0
  -35.1134    7.6156   22.9158 C   0  0  0  0  0  0  0  0  0  0  0  0
  -35.3795    8.0701   24.1905 C   0  0  0  0  0  0  0  0  0  0  0  0
  -35.0427    7.3237   25.2935 C   0  0  0  0  0  0  0  0  0  0  0  0
  -35.3820    8.4499   21.6854 C   0  0  2  0  0  0  0  0  0  0  0  0
  -34.1395    9.0601   21.0662 C   0  0  0  0  0  0  0  0  0  0  0  0
  -34.4618    9.7063   19.7280 C   0  0  0  0  0  0  0  0  0  0  0  0
  -35.5365   10.7551   19.8740 C   0  0  0  0  0  0  0  0  0  0  0  0
  -36.7618   10.2001   20.5604 C   0  0  0  0  0  0  0  0  0  0  0  0
  -36.4141    9.5392   21.8813 C   0  0  0  0  0  0  0  0  0  0  0  0
  -32.6046    0.9406   26.3105 C   0  0  0  0  0  0  0  0  0  0  0  0
  -31.1273   -0.3584   24.7025 C   0  0  0  0  0  0  0  0  0  0  0  0
  -29.6735    0.0839   24.7798 C   0  0  2  0  0  0  0  0  0  0  0  0
  -30.0495    1.0228   25.9432 C   0  0  0  0  0  0  0  0  0  0  0  0
  -29.1695    0.8009   23.5685 C   0  0  0  0  0  0  0  0  0  0  0  0
  -28.7176   -0.0577   22.7180 F   0  0  0  0  0  0  0  0  0  0  0  0
  -31.4459    0.6576   25.7119 N   0  0  0  0  0  0  0  0  0  0  0  0
  -33.7336    3.5880   25.2694 H   0  0  0  0  0  0  0  0  0  0  0  0
  -34.1041    6.9752   27.7379 H   0  0  0  0  0  0  0  0  0  0  0  0
  -29.7673   -1.7985   31.3904 H   0  0  0  0  0  0  0  0  0  0  0  0
  -28.5116   -0.1250   30.1548 H   0  0  0  0  0  0  0  0  0  0  0  0
  -34.1170   -0.2316   31.1625 H   0  0  0  0  0  0  0  0  0  0  0  0
  -34.2033    0.6641   29.6079 H   0  0  0  0  0  0  0  0  0  0  0  0
  -34.1403   -1.1311   29.6079 H   0  0  0  0  0  0  0  0  0  0  0  0
  -33.6670    4.6642   23.7274 H   0  0  0  0  0  0  0  0  0  0  0  0
  -34.3393    5.9793   21.7705 H   0  0  0  0  0  0  0  0  0  0  0  0
  -35.8692    9.0457   24.3261 H   0  0  0  0  0  0  0  0  0  0  0  0
  -35.2877    7.6996   26.2978 H   0  0  0  0  0  0  0  0  0  0  0  0
  -35.7931    7.7064   20.9867 H   0  0  0  0  0  0  0  0  0  0  0  0
  -33.7356    9.8238   21.7471 H   0  0  0  0  0  0  0  0  0  0  0  0
  -33.4002    8.2621   20.9023 H   0  0  0  0  0  0  0  0  0  0  0  0
  -33.5518   10.1781   19.3289 H   0  0  0  0  0  0  0  0  0  0  0  0
  -34.8264    8.9265   19.0432 H   0  0  0  0  0  0  0  0  0  0  0  0
  -35.1413   11.5914   20.4692 H   0  0  0  0  0  0  0  0  0  0  0  0
  -35.8276   11.0932   18.8685 H   0  0  0  0  0  0  0  0  0  0  0  0
  -37.4683   11.0220   20.7482 H   0  0  0  0  0  0  0  0  0  0  0  0
  -37.2080    9.4391   19.9032 H   0  0  0  0  0  0  0  0  0  0  0  0
  -37.3244    9.0990   22.3143 H   0  0  0  0  0  0  0  0  0  0  0  0
  -35.9969   10.3011   22.5562 H   0  0  0  0  0  0  0  0  0  0  0  0
  -31.6023   -0.1931   23.7242 H   0  0  0  0  0  0  0  0  0  0  0  0
  -31.4122   -1.4116   24.8424 H   0  0  0  0  0  0  0  0  0  0  0  0
  -28.8694   -0.6602   24.8790 H   0  0  0  0  0  0  0  0  0  0  0  0
  -29.6532    0.7186   26.9232 H   0  0  0  0  0  0  0  0  0  0  0  0
  -29.7246    2.0735   25.9635 H   0  0  0  0  0  0  0  0  0  0  0  0
  -29.9914    1.3718   23.1118 H   0  0  0  0  0  0  0  0  0  0  0  0
  -28.3624    1.4895   23.8590 H   0  0  0  0  0  0  0  0  0  0  0  0
  1  7  2  0
  1 11  1  0
  2  4  1  0
  2  9  2  0
  2 10  1  0
  3  4  1  0
  3  5  2  0
  3 19  1  0
  5 18  1  0
  6 31  2  0
  7 13  1  0
  7 16  1  0
  8  9  1  0
  8 13  1  0
  8 14  2  0
  9 31  1  0
 10 14  1  0
 10 18  1  0
 11 12  2  0
 12 15  1  0
 13 15  2  0
 17 18  2  0
 19 20  2  0
 19 24  1  0
 20 21  1  0
 21 22  2  0
 22 23  1  0
 25 22  1  0
 23 24  2  0
 25 26  1  0
 25 30  1  0
 26 27  1  0
 27 28  1  0
 28 29  1  0
 29 30  1  0
 31 37  1  0
 32 33  1  0
 32 37  1  0
 33 34  1  0
 33 35  1  0
 34 37  1  0
 35 36  1  0
  4 38  1  0
  5 39  1  0
 11 40  1  0
 12 41  1  0
 16 42  1  0
 16 43  1  0
 16 44  1  0
 20 45  1  0
 21 46  1  0
 23 47  1  0
 24 48  1  0
 25 49  1  6
 26 50  1  0
 26 51  1  0
 27 52  1  0
 27 53  1  0
 28 54  1  0
 28 55  1  0
 29 56  1  0
 29 57  1  0
 30 58  1  0
 30 59  1  0
 32 60  1  0
 32 61  1  0
 33 62  1  1
 34 63  1  0
 34 64  1  0
 35 65  1  0
 35 66  1  0
M  END
>  <filename_input>  (15) 
7TYP_KUR_docked.sdf

>  <pdb_id>  (15) 
7TYP_KUR

>  <pose_rank>  (15) 
14

>  <num_atoms_heavy>  (15) 
37

>  <num_torsions>  (15) 
5

>  <pose>  (15) 
[-33.07445896089342, 3.299424455842761, 27.20445360113617, -0.005822687188781854, -1.2351769276701126, 1.946149890989339, 0.6298786958539628, 1.0916172999266738, -4.542875569256433, 0.1251608842404981, 0.49013025740189275]

>  <energy>  (15) 
-450.6897170249502

>  <inter_energy>  (15) 
-453.0194563793647

>  <intra_energy>  (15) 
4.181627041485033

>  <rmsd>  (15) 
8.78513

>  <sdf_rank>  (15) 
0

$$$$

     RDKit          3D

 66 71  0  0  0  0  0  0  0  0999 V2000
  -32.2081    0.3305   29.4424 N   0  0  0  0  0  0  0  0  0  0  0  0
  -34.1904    4.8857   26.3423 C   0  0  0  0  0  0  0  0  0  0  0  0
  -35.6799    6.3814   25.2262 C   0  0  0  0  0  0  0  0  0  0  0  0
  -34.4281    5.8209   25.3906 N   0  0  0  0  0  0  0  0  0  0  0  0
  -36.7164    5.9296   26.0007 C   0  0  0  0  0  0  0  0  0  0  0  0
  -30.8912    3.4964   26.6618 O   0  0  0  0  0  0  0  0  0  0  0  0
  -32.8017    1.1045   28.5311 C   0  0  0  0  0  0  0  0  0  0  0  0
  -33.5480    3.3797   27.8231 C   0  0  0  0  0  0  0  0  0  0  0  0
  -33.0805    4.1789   26.7400 C   0  0  0  0  0  0  0  0  0  0  0  0
  -35.2117    4.5092   27.1439 N   0  0  0  0  0  0  0  0  0  0  0  0
  -31.6200    0.9249   30.4812 C   0  0  0  0  0  0  0  0  0  0  0  0
  -31.6050    2.2799   30.6239 C   0  0  0  0  0  0  0  0  0  0  0  0
  -32.7810    2.5138   28.6873 C   0  0  0  0  0  0  0  0  0  0  0  0
  -34.8317    3.5854   28.0484 N   0  0  0  0  0  0  0  0  0  0  0  0
  -32.1658    3.0896   29.7262 N   0  0  0  0  0  0  0  0  0  0  0  0
  -33.4896    0.3892   27.4094 C   0  0  0  0  0  0  0  0  0  0  0  0
  -37.4047    4.4525   27.6886 O   0  0  0  0  0  0  0  0  0  0  0  0
  -36.5344    4.9331   26.9959 C   0  0  0  0  0  0  0  0  0  0  0  0
  -35.8168    7.4646   24.2221 C   0  0  0  0  0  0  0  0  0  0  0  0
  -35.0943    7.4568   23.0353 C   0  0  0  0  0  0  0  0  0  0  0  0
  -35.1708    8.5079   22.1601 C   0  0  0  0  0  0  0  0  0  0  0  0
  -35.9411    9.6154   22.4354 C   0  0  0  0  0  0  0  0  0  0  0  0
  -36.6816    9.6182   23.5989 C   0  0  0  0  0  0  0  0  0  0  0  0
  -36.6343    8.5583   24.4714 C   0  0  0  0  0  0  0  0  0  0  0  0
  -35.8943   10.8019   21.5016 C   0  0  2  0  0  0  0  0  0  0  0  0
  -37.1752   11.6127   21.4640 C   0  0  0  0  0  0  0  0  0  0  0  0
  -36.9824   12.8949   20.6695 C   0  0  0  0  0  0  0  0  0  0  0  0
  -36.5136   12.6011   19.2659 C   0  0  0  0  0  0  0  0  0  0  0  0
  -35.2818   11.7273   19.2653 C   0  0  0  0  0  0  0  0  0  0  0  0
  -35.4882   10.4659   20.0830 C   0  0  0  0  0  0  0  0  0  0  0  0
  -31.7092    4.2454   26.2090 C   0  0  0  0  0  0  0  0  0  0  0  0
  -30.1472    5.4413   24.6011 C   0  0  0  0  0  0  0  0  0  0  0  0
  -30.8494    6.5654   23.8538 C   0  0  2  0  0  0  0  0  0  0  0  0
  -32.1123    6.3000   24.6970 C   0  0  0  0  0  0  0  0  0  0  0  0
  -31.0423    6.3231   22.3911 C   0  0  0  0  0  0  0  0  0  0  0  0
  -31.3729    5.0906   22.1998 F   0  0  0  0  0  0  0  0  0  0  0  0
  -31.4210    5.1445   25.2658 N   0  0  0  0  0  0  0  0  0  0  0  0
  -33.6579    6.1206   24.7759 H   0  0  0  0  0  0  0  0  0  0  0  0
  -37.7203    6.3520   25.8467 H   0  0  0  0  0  0  0  0  0  0  0  0
  -31.1323    0.3026   31.2460 H   0  0  0  0  0  0  0  0  0  0  0  0
  -31.1156    2.7184   31.5060 H   0  0  0  0  0  0  0  0  0  0  0  0
  -34.1964   -0.3458   27.8221 H   0  0  0  0  0  0  0  0  0  0  0  0
  -34.0362    1.1165   26.7912 H   0  0  0  0  0  0  0  0  0  0  0  0
  -32.7415   -0.1286   26.7912 H   0  0  0  0  0  0  0  0  0  0  0  0
  -34.4529    6.5960   22.7956 H   0  0  0  0  0  0  0  0  0  0  0  0
  -34.6051    8.4662   21.2176 H   0  0  0  0  0  0  0  0  0  0  0  0
  -37.3202   10.4830   23.8319 H   0  0  0  0  0  0  0  0  0  0  0  0
  -37.2532    8.5765   25.3806 H   0  0  0  0  0  0  0  0  0  0  0  0
  -35.1018   11.4188   21.9506 H   0  0  0  0  0  0  0  0  0  0  0  0
  -37.9675   11.0126   20.9927 H   0  0  0  0  0  0  0  0  0  0  0  0
  -37.4548   11.8764   22.4946 H   0  0  0  0  0  0  0  0  0  0  0  0
  -37.9393   13.4353   20.6226 H   0  0  0  0  0  0  0  0  0  0  0  0
  -36.2171   13.5046   21.1721 H   0  0  0  0  0  0  0  0  0  0  0  0
  -37.3179   12.0854   18.7209 H   0  0  0  0  0  0  0  0  0  0  0  0
  -36.2603   13.5549   18.7799 H   0  0  0  0  0  0  0  0  0  0  0  0
  -35.0452   11.4453   18.2287 H   0  0  0  0  0  0  0  0  0  0  0  0
  -34.4566   12.2975   19.7168 H   0  0  0  0  0  0  0  0  0  0  0  0
  -34.5498    9.8924   20.1034 H   0  0  0  0  0  0  0  0  0  0  0  0
  -36.2907    9.8738   19.6189 H   0  0  0  0  0  0  0  0  0  0  0  0
  -29.7699    4.6327   23.9578 H   0  0  0  0  0  0  0  0  0  0  0  0
  -29.2302    5.6257   25.1800 H   0  0  0  0  0  0  0  0  0  0  0  0
  -30.3956    7.5659   23.7981 H   0  0  0  0  0  0  0  0  0  0  0  0
  -32.3533    7.0916   25.4219 H   0  0  0  0  0  0  0  0  0  0  0  0
  -33.1054    6.2064   24.2333 H   0  0  0  0  0  0  0  0  0  0  0  0
  -31.8395    6.9797   22.0125 H   0  0  0  0  0  0  0  0  0  0  0  0
  -30.1053    6.5388   21.8568 H   0  0  0  0  0  0  0  0  0  0  0  0
  1  7  2  0
  1 11  1  0
  2  4  1  0
  2  9  2  0
  2 10  1  0
  3  4  1  0
  3  5  2  0
  3 19  1  0
  5 18  1  0
  6 31  2  0
  7 13  1  0
  7 16  1  0
  8  9  1  0
  8 13  1  0
  8 14  2  0
  9 31  1  0
 10 14  1  0
 10 18  1  0
 11 12  2  0
 12 15  1  0
 13 15  2  0
 17 18  2  0
 19 20  2  0
 19 24  1  0
 20 21  1  0
 21 22  2  0
 22 23  1  0
 25 22  1  0
 23 24  2  0
 25 26  1  0
 25 30  1  0
 26 27  1  0
 27 28  1  0
 28 29  1  0
 29 30  1  0
 31 37  1  0
 32 33  1  0
 32 37  1  0
 33 34  1  0
 33 35  1  0
 34 37  1  0
 35 36  1  0
  4 38  1  0
  5 39  1  0
 11 40  1  0
 12 41  1  0
 16 42  1  0
 16 43  1  0
 16 44  1  0
 20 45  1  0
 21 46  1  0
 23 47  1  0
 24 48  1  0
 25 49  1  1
 26 50  1  0
 26 51  1  0
 27 52  1  0
 27 53  1  0
 28 54  1  0
 28 55  1  0
 29 56  1  0
 29 57  1  0
 30 58  1  0
 30 59  1  0
 32 60  1  0
 32 61  1  0
 33 62  1  6
 34 63  1  0
 34 64  1  0
 35 65  1  0
 35 66  1  0
M  END
>  <filename_input>  (16) 
7TYP_KUR_docked.sdf

>  <pdb_id>  (16) 
7TYP_KUR

>  <pose_rank>  (16) 
15

>  <num_atoms_heavy>  (16) 
37

>  <num_torsions>  (16) 
5

>  <pose>  (16) 
[-34.19038269224209, 4.885717406289646, 26.34230606344901, 0.1634986782633992, 2.074830447083589, -1.8289286752341591, 0.45565170805695765, 5.6904659605042625, -2.3097788700669217, 1.059899894763565, -1.8792523339760878]

>  <energy>  (16) 
-405.6907878243835

>  <inter_energy>  (16) 
-497.3204748346333

>  <intra_energy>  (16) 
91.40535144745141

>  <rmsd>  (16) 
6.96296

>  <sdf_rank>  (16) 
0

$$$$

     RDKit          3D

 66 71  0  0  0  0  0  0  0  0999 V2000
  -35.9553    5.2258   27.0620 N   0  0  0  0  0  0  0  0  0  0  0  0
  -33.6779    7.9901   22.4524 C   0  0  0  0  0  0  0  0  0  0  0  0
  -32.1513    8.7849   20.7973 C   0  0  0  0  0  0  0  0  0  0  0  0
  -33.2830    8.9432   21.5735 N   0  0  0  0  0  0  0  0  0  0  0  0
  -31.3775    7.6674   20.9721 C   0  0  0  0  0  0  0  0  0  0  0  0
  -36.2227    8.9420   24.6967 O   0  0  0  0  0  0  0  0  0  0  0  0
  -35.2378    6.0026   26.2473 C   0  0  0  0  0  0  0  0  0  0  0  0
  -34.5376    6.5855   23.9225 C   0  0  0  0  0  0  0  0  0  0  0  0
  -34.7330    7.8639   23.3242 C   0  0  0  0  0  0  0  0  0  0  0  0
  -32.9389    6.8628   22.5543 N   0  0  0  0  0  0  0  0  0  0  0  0
  -36.8059    4.3586   26.5119 C   0  0  0  0  0  0  0  0  0  0  0  0
  -36.9611    4.2574   25.1619 C   0  0  0  0  0  0  0  0  0  0  0  0
  -35.4058    5.8908   24.8436 C   0  0  0  0  0  0  0  0  0  0  0  0
  -33.4519    6.0003   23.4537 N   0  0  0  0  0  0  0  0  0  0  0  0
  -36.2812    5.0290   24.3143 N   0  0  0  0  0  0  0  0  0  0  0  0
  -34.2621    6.9254   26.9102 C   0  0  0  0  0  0  0  0  0  0  0  0
  -31.0744    5.6545   22.1386 O   0  0  0  0  0  0  0  0  0  0  0  0
  -31.7256    6.6471   21.8965 C   0  0  0  0  0  0  0  0  0  0  0  0
  -31.8556    9.8401   19.7977 C   0  0  0  0  0  0  0  0  0  0  0  0
  -31.0256    9.6036   18.7088 C   0  0  0  0  0  0  0  0  0  0  0  0
  -30.6971   10.6140   17.8439 C   0  0  0  0  0  0  0  0  0  0  0  0
  -31.1533   11.8987   18.0362 C   0  0  0  0  0  0  0  0  0  0  0  0
  -31.9990   12.1351   19.0997 C   0  0  0  0  0  0  0  0  0  0  0  0
  -32.3575   11.1242   19.9581 C   0  0  0  0  0  0  0  0  0  0  0  0
  -30.6623   13.0033   17.1302 C   0  0  2  0  0  0  0  0  0  0  0  0
  -31.7446   13.9675   16.6848 C   0  0  0  0  0  0  0  0  0  0  0  0
  -31.1434   15.1574   15.9533 C   0  0  0  0  0  0  0  0  0  0  0  0
  -30.3262   14.7112   14.7661 C   0  0  0  0  0  0  0  0  0  0  0  0
  -29.2881   13.6883   15.1617 C   0  0  0  0  0  0  0  0  0  0  0  0
  -29.9060   12.5224   15.9108 C   0  0  0  0  0  0  0  0  0  0  0  0
  -35.8400    8.8026   23.5701 C   0  0  0  0  0  0  0  0  0  0  0  0
  -37.5096   10.3904   22.4992 C   0  0  0  0  0  0  0  0  0  0  0  0
  -37.3682   10.4301   20.9848 C   0  0  2  0  0  0  0  0  0  0  0  0
  -36.3020    9.3211   21.0826 C   0  0  0  0  0  0  0  0  0  0  0  0
  -36.8453   11.7189   20.4361 C   0  0  0  0  0  0  0  0  0  0  0  0
  -35.7302   11.5040   19.8234 F   0  0  0  0  0  0  0  0  0  0  0  0
  -36.3893    9.4437   22.5365 N   0  0  0  0  0  0  0  0  0  0  0  0
  -33.8393    9.8052   21.4821 H   0  0  0  0  0  0  0  0  0  0  0  0
  -30.4583    7.5573   20.3780 H   0  0  0  0  0  0  0  0  0  0  0  0
  -37.4002    3.7052   27.1676 H   0  0  0  0  0  0  0  0  0  0  0  0
  -37.6683    3.5170   24.7599 H   0  0  0  0  0  0  0  0  0  0  0  0
  -34.3567    6.8359   28.0025 H   0  0  0  0  0  0  0  0  0  0  0  0
  -33.2393    6.6565   26.6076 H   0  0  0  0  0  0  0  0  0  0  0  0
  -34.4736    7.9615   26.6076 H   0  0  0  0  0  0  0  0  0  0  0  0
  -30.6273    8.5924   18.5390 H   0  0  0  0  0  0  0  0  0  0  0  0
  -30.0556   10.3943   16.9778 H   0  0  0  0  0  0  0  0  0  0  0  0
  -32.3928   13.1491   19.2631 H   0  0  0  0  0  0  0  0  0  0  0  0
  -33.0522   11.3355   20.7844 H   0  0  0  0  0  0  0  0  0  0  0  0
  -29.9591   13.5422   17.7821 H   0  0  0  0  0  0  0  0  0  0  0  0
  -32.4387   13.4437   16.0111 H   0  0  0  0  0  0  0  0  0  0  0  0
  -32.2767   14.3343   17.5749 H   0  0  0  0  0  0  0  0  0  0  0  0
  -31.9557   15.8119   15.6043 H   0  0  0  0  0  0  0  0  0  0  0  0
  -30.4828   15.6963   16.6483 H   0  0  0  0  0  0  0  0  0  0  0  0
  -30.9978   14.2674   14.0164 H   0  0  0  0  0  0  0  0  0  0  0  0
  -29.8065   15.5893   14.3552 H   0  0  0  0  0  0  0  0  0  0  0  0
  -28.7974   13.3086   14.2534 H   0  0  0  0  0  0  0  0  0  0  0  0
  -28.5613   14.1770   15.8273 H   0  0  0  0  0  0  0  0  0  0  0  0
  -29.1081   11.8357   16.2296 H   0  0  0  0  0  0  0  0  0  0  0  0
  -30.6107   12.0082   15.2406 H   0  0  0  0  0  0  0  0  0  0  0  0
  -37.3123   11.3495   23.0005 H   0  0  0  0  0  0  0  0  0  0  0  0
  -38.4721   10.1555   22.9771 H   0  0  0  0  0  0  0  0  0  0  0  0
  -38.2526   10.3216   20.3397 H   0  0  0  0  0  0  0  0  0  0  0  0
  -36.6189    8.3453   20.6858 H   0  0  0  0  0  0  0  0  0  0  0  0
  -35.3401    9.3985   20.5546 H   0  0  0  0  0  0  0  0  0  0  0  0
  -37.5762   12.1405   19.7304 H   0  0  0  0  0  0  0  0  0  0  0  0
  -36.6803   12.4285   21.2602 H   0  0  0  0  0  0  0  0  0  0  0  0
  1  7  2  0
  1 11  1  0
  2  4  1  0
  2  9  2  0
  2 10  1  0
  3  4  1  0
  3  5  2  0
  3 19  1  0
  5 18  1  0
  6 31  2  0
  7 13  1  0
  7 16  1  0
  8  9  1  0
  8 13  1  0
  8 14  2  0
  9 31  1  0
 10 14  1  0
 10 18  1  0
 11 12  2  0
 12 15  1  0
 13 15  2  0
 17 18  2  0
 19 20  2  0
 19 24  1  0
 20 21  1  0
 21 22  2  0
 22 23  1  0
 25 22  1  0
 23 24  2  0
 25 26  1  0
 25 30  1  0
 26 27  1  0
 27 28  1  0
 28 29  1  0
 29 30  1  0
 31 37  1  0
 32 33  1  0
 32 37  1  0
 33 34  1  0
 33 35  1  0
 34 37  1  0
 35 36  1  0
  4 38  1  0
  5 39  1  0
 11 40  1  0
 12 41  1  0
 16 42  1  0
 16 43  1  0
 16 44  1  0
 20 45  1  0
 21 46  1  0
 23 47  1  0
 24 48  1  0
 25 49  1  1
 26 50  1  0
 26 51  1  0
 27 52  1  0
 27 53  1  0
 28 54  1  0
 28 55  1  0
 29 56  1  0
 29 57  1  0
 30 58  1  0
 30 59  1  0
 32 60  1  0
 32 61  1  0
 33 62  1  6
 34 63  1  0
 34 64  1  0
 35 65  1  0
 35 66  1  0
M  END
>  <filename_input>  (17) 
7TYP_KUR_docked.sdf

>  <pdb_id>  (17) 
7TYP_KUR

>  <pose_rank>  (17) 
16

>  <num_atoms_heavy>  (17) 
37

>  <num_torsions>  (17) 
5

>  <pose>  (17) 
[-33.67785040729782, 7.990123246069978, 22.452426228266937, -2.5680689657390636, -0.3758605865473761, 5.737028479343219, 6.915786481710627, 6.312872768631624, -0.9410043269011887, -2.344250392658146, -2.1154069781681537]

>  <energy>  (17) 
-979.5163573879997

>  <inter_energy>  (17) 
-1009.5097677032426

>  <intra_energy>  (17) 
30.009213197090425

>  <rmsd>  (17) 
0.828771

>  <sdf_rank>  (17) 
0

$$$$

     RDKit          3D

 66 71  0  0  0  0  0  0  0  0999 V2000
  -35.8509    7.2636   24.4852 N   0  0  0  0  0  0  0  0  0  0  0  0
  -33.5696    5.3239   19.4426 C   0  0  0  0  0  0  0  0  0  0  0  0
  -33.2044    3.9565   17.5195 C   0  0  0  0  0  0  0  0  0  0  0  0
  -32.7686    4.8910   18.4386 N   0  0  0  0  0  0  0  0  0  0  0  0
  -34.4514    3.4085   17.6704 C   0  0  0  0  0  0  0  0  0  0  0  0
  -32.0458    8.0284   20.1166 O   0  0  0  0  0  0  0  0  0  0  0  0
  -35.2894    6.5092   23.5378 C   0  0  0  0  0  0  0  0  0  0  0  0
  -34.6817    6.2016   21.1355 C   0  0  0  0  0  0  0  0  0  0  0  0
  -33.4229    6.2270   20.4683 C   0  0  0  0  0  0  0  0  0  0  0  0
  -34.8224    4.8234   19.5276 N   0  0  0  0  0  0  0  0  0  0  0  0
  -36.2494    8.4921   24.1530 C   0  0  0  0  0  0  0  0  0  0  0  0
  -36.0900    8.9866   22.8934 C   0  0  0  0  0  0  0  0  0  0  0  0
  -35.1272    7.0320   22.2295 C   0  0  0  0  0  0  0  0  0  0  0  0
  -35.5087    5.3485   20.5616 N   0  0  0  0  0  0  0  0  0  0  0  0
  -35.5144    8.2755   21.9244 N   0  0  0  0  0  0  0  0  0  0  0  0
  -34.9029    5.1212   23.9465 C   0  0  0  0  0  0  0  0  0  0  0  0
  -36.4213    3.3366   18.9427 O   0  0  0  0  0  0  0  0  0  0  0  0
  -35.3257    3.8024   18.7178 C   0  0  0  0  0  0  0  0  0  0  0  0
  -32.2886    3.6182   16.4027 C   0  0  0  0  0  0  0  0  0  0  0  0
  -32.5692    3.9821   15.0915 C   0  0  0  0  0  0  0  0  0  0  0  0
  -31.7541    3.5872   14.0637 C   0  0  0  0  0  0  0  0  0  0  0  0
  -30.6487    2.7978   14.2882 C   0  0  0  0  0  0  0  0  0  0  0  0
  -30.3492    2.4550   15.5901 C   0  0  0  0  0  0  0  0  0  0  0  0
  -31.1437    2.8678   16.6320 C   0  0  0  0  0  0  0  0  0  0  0  0
  -29.8536    2.2831   13.1113 C   0  0  2  0  0  0  0  0  0  0  0  0
  -28.6170    1.4939   13.4955 C   0  0  0  0  0  0  0  0  0  0  0  0
  -27.9904    0.8393   12.2744 C   0  0  0  0  0  0  0  0  0  0  0  0
  -27.6448    1.8648   11.2231 C   0  0  0  0  0  0  0  0  0  0  0  0
  -28.8375    2.7227   10.8737 C   0  0  0  0  0  0  0  0  0  0  0  0
  -29.4612    3.3463   12.1084 C   0  0  0  0  0  0  0  0  0  0  0  0
  -32.2578    7.0648   20.7962 C   0  0  0  0  0  0  0  0  0  0  0  0
  -30.2472    7.3413   22.3247 C   0  0  0  0  0  0  0  0  0  0  0  0
  -30.1377    6.2075   23.3336 C   0  0  2  0  0  0  0  0  0  0  0  0
  -31.3401    5.5230   22.6538 C   0  0  0  0  0  0  0  0  0  0  0  0
  -30.3950    6.6021   24.7527 C   0  0  0  0  0  0  0  0  0  0  0  0
  -31.0173    5.6476   25.3579 F   0  0  0  0  0  0  0  0  0  0  0  0
  -31.4718    6.7135   21.8159 N   0  0  0  0  0  0  0  0  0  0  0  0
  -31.8132    5.2676   18.3591 H   0  0  0  0  0  0  0  0  0  0  0  0
  -34.7855    2.6397   16.9581 H   0  0  0  0  0  0  0  0  0  0  0  0
  -36.7209    9.1253   24.9190 H   0  0  0  0  0  0  0  0  0  0  0  0
  -36.4470   10.0027   22.6698 H   0  0  0  0  0  0  0  0  0  0  0  0
  -34.8842    5.0540   25.0443 H   0  0  0  0  0  0  0  0  0  0  0  0
  -35.6355    4.4041   23.5477 H   0  0  0  0  0  0  0  0  0  0  0  0
  -33.9050    4.8860   23.5477 H   0  0  0  0  0  0  0  0  0  0  0  0
  -33.4568    4.5950   14.8760 H   0  0  0  0  0  0  0  0  0  0  0  0
  -31.9876    3.9076   13.0376 H   0  0  0  0  0  0  0  0  0  0  0  0
  -29.4601    1.8414   15.7975 H   0  0  0  0  0  0  0  0  0  0  0  0
  -30.8686    2.5997   17.6628 H   0  0  0  0  0  0  0  0  0  0  0  0
  -30.5692    1.6009   12.6291 H   0  0  0  0  0  0  0  0  0  0  0  0
  -27.8846    2.1735   13.9556 H   0  0  0  0  0  0  0  0  0  0  0  0
  -28.9091    0.7063   14.2056 H   0  0  0  0  0  0  0  0  0  0  0  0
  -27.0728    0.3149   12.5795 H   0  0  0  0  0  0  0  0  0  0  0  0
  -28.7167    0.1326   11.8465 H   0  0  0  0  0  0  0  0  0  0  0  0
  -26.8397    2.5102   11.6044 H   0  0  0  0  0  0  0  0  0  0  0  0
  -27.3239    1.3335   10.3150 H   0  0  0  0  0  0  0  0  0  0  0  0
  -28.5130    3.5248   10.1945 H   0  0  0  0  0  0  0  0  0  0  0  0
  -29.5924    2.0819   10.3946 H   0  0  0  0  0  0  0  0  0  0  0  0
  -30.3578    3.9109   11.8129 H   0  0  0  0  0  0  0  0  0  0  0  0
  -28.7228    4.0144   12.5757 H   0  0  0  0  0  0  0  0  0  0  0  0
  -30.3966    8.3354   22.7712 H   0  0  0  0  0  0  0  0  0  0  0  0
  -29.4122    7.5914   21.6537 H   0  0  0  0  0  0  0  0  0  0  0  0
  -29.1830    5.6807   23.4782 H   0  0  0  0  0  0  0  0  0  0  0  0
  -31.0925    4.6023   22.1052 H   0  0  0  0  0  0  0  0  0  0  0  0
  -32.1868    5.1330   23.2377 H   0  0  0  0  0  0  0  0  0  0  0  0
  -29.4377    6.7949   25.2590 H   0  0  0  0  0  0  0  0  0  0  0  0
  -31.0108    7.5133   24.7742 H   0  0  0  0  0  0  0  0  0  0  0  0
  1  7  2  0
  1 11  1  0
  2  4  1  0
  2  9  2  0
  2 10  1  0
  3  4  1  0
  3  5  2  0
  3 19  1  0
  5 18  1  0
  6 31  2  0
  7 13  1  0
  7 16  1  0
  8  9  1  0
  8 13  1  0
  8 14  2  0
  9 31  1  0
 10 14  1  0
 10 18  1  0
 11 12  2  0
 12 15  1  0
 13 15  2  0
 17 18  2  0
 19 20  2  0
 19 24  1  0
 20 21  1  0
 21 22  2  0
 22 23  1  0
 25 22  1  0
 23 24  2  0
 25 26  1  0
 25 30  1  0
 26 27  1  0
 27 28  1  0
 28 29  1  0
 29 30  1  0
 31 37  1  0
 32 33  1  0
 32 37  1  0
 33 34  1  0
 33 35  1  0
 34 37  1  0
 35 36  1  0
  4 38  1  0
  5 39  1  0
 11 40  1  0
 12 41  1  0
 16 42  1  0
 16 43  1  0
 16 44  1  0
 20 45  1  0
 21 46  1  0
 23 47  1  0
 24 48  1  0
 25 49  1  6
 26 50  1  0
 26 51  1  0
 27 52  1  0
 27 53  1  0
 28 54  1  0
 28 55  1  0
 29 56  1  0
 29 57  1  0
 30 58  1  0
 30 59  1  0
 32 60  1  0
 32 61  1  0
 33 62  1  1
 34 63  1  0
 34 64  1  0
 35 65  1  0
 35 66  1  0
M  END
>  <filename_input>  (18) 
7TYP_KUR_docked.sdf

>  <pdb_id>  (18) 
7TYP_KUR

>  <pose_rank>  (18) 
17

>  <num_atoms_heavy>  (18) 
37

>  <num_torsions>  (18) 
5

>  <pose>  (18) 
[-33.569569872259756, 5.323856099166583, 19.4425810999748, -0.17384638117601225, -0.46974476067647064, 4.479262571453841, 6.644020570080361, 3.814306598580689, -0.5054307887616591, -1.5004537822878334, -1.4356926430838604]

>  <energy>  (18) 
-302.83780581699364

>  <inter_energy>  (18) 
-306.64428579671824

>  <intra_energy>  (18) 
2.136923125541074

>  <rmsd>  (18) 
7.40886

>  <sdf_rank>  (18) 
0

$$$$

     RDKit          3D

 66 71  0  0  0  0  0  0  0  0999 V2000
  -32.3568   -0.9429   11.5382 N   0  0  0  0  0  0  0  0  0  0  0  0
  -32.4453    3.1377   15.5627 C   0  0  0  0  0  0  0  0  0  0  0  0
  -33.2123    4.8219   17.0717 C   0  0  0  0  0  0  0  0  0  0  0  0
  -32.5449    3.6394   16.8179 N   0  0  0  0  0  0  0  0  0  0  0  0
  -33.7253    5.5337   16.0189 C   0  0  0  0  0  0  0  0  0  0  0  0
  -31.7668    0.2101   16.4359 O   0  0  0  0  0  0  0  0  0  0  0  0
  -32.7268    0.0066   12.4005 C   0  0  0  0  0  0  0  0  0  0  0  0
  -32.1710    2.1078   13.6295 C   0  0  0  0  0  0  0  0  0  0  0  0
  -31.8728    2.0123   15.0196 C   0  0  0  0  0  0  0  0  0  0  0  0
  -33.0235    3.8202   14.5492 N   0  0  0  0  0  0  0  0  0  0  0  0
  -31.2021   -0.7846   10.8902 C   0  0  0  0  0  0  0  0  0  0  0  0
  -30.4122    0.3093   11.0798 C   0  0  0  0  0  0  0  0  0  0  0  0
  -31.8987    1.1419   12.5914 C   0  0  0  0  0  0  0  0  0  0  0  0
  -32.8571    3.2030   13.3629 N   0  0  0  0  0  0  0  0  0  0  0  0
  -30.7549    1.2905   11.9139 N   0  0  0  0  0  0  0  0  0  0  0  0
  -34.0063   -0.2393   13.1391 C   0  0  0  0  0  0  0  0  0  0  0  0
  -34.0174    5.6617   13.6945 O   0  0  0  0  0  0  0  0  0  0  0  0
  -33.6289    5.0723   14.6793 C   0  0  0  0  0  0  0  0  0  0  0  0
  -33.3489    5.2385   18.4887 C   0  0  0  0  0  0  0  0  0  0  0  0
  -32.2836    5.1668   19.3777 C   0  0  0  0  0  0  0  0  0  0  0  0
  -32.4521    5.4758   20.7017 C   0  0  0  0  0  0  0  0  0  0  0  0
  -33.6819    5.8407   21.2016 C   0  0  0  0  0  0  0  0  0  0  0  0
  -34.7378    5.9398   20.3200 C   0  0  0  0  0  0  0  0  0  0  0  0
  -34.5750    5.6589   18.9852 C   0  0  0  0  0  0  0  0  0  0  0  0
  -33.8458    6.0483   22.6890 C   0  0  2  0  0  0  0  0  0  0  0  0
  -34.7984    5.0714   23.3505 C   0  0  0  0  0  0  0  0  0  0  0  0
  -34.7518    5.2092   24.8642 C   0  0  0  0  0  0  0  0  0  0  0  0
  -35.0746    6.6190   25.2935 C   0  0  0  0  0  0  0  0  0  0  0  0
  -34.1950    7.6263   24.5918 C   0  0  0  0  0  0  0  0  0  0  0  0
  -34.2380    7.4554   23.0847 C   0  0  0  0  0  0  0  0  0  0  0  0
  -31.1485    0.9281   15.7028 C   0  0  0  0  0  0  0  0  0  0  0  0
  -28.8829   -0.1596   16.0763 C   0  0  0  0  0  0  0  0  0  0  0  0
  -27.7745    0.5573   15.3194 C   0  0  2  0  0  0  0  0  0  0  0  0
  -28.8015    1.6171   14.8740 C   0  0  0  0  0  0  0  0  0  0  0  0
  -27.1833   -0.2191   14.1867 C   0  0  0  0  0  0  0  0  0  0  0  0
  -25.8964   -0.1992   14.2777 F   0  0  0  0  0  0  0  0  0  0  0  0
  -29.8358    0.7967   15.5015 N   0  0  0  0  0  0  0  0  0  0  0  0
  -32.1131    3.1272   17.6003 H   0  0  0  0  0  0  0  0  0  0  0  0
  -34.2273    6.4920   16.2177 H   0  0  0  0  0  0  0  0  0  0  0  0
  -30.8775   -1.5605   10.1812 H   0  0  0  0  0  0  0  0  0  0  0  0
  -29.4636    0.3848   10.5280 H   0  0  0  0  0  0  0  0  0  0  0  0
  -33.8172   -0.2030   14.2221 H   0  0  0  0  0  0  0  0  0  0  0  0
  -34.7402    0.5342   12.8689 H   0  0  0  0  0  0  0  0  0  0  0  0
  -34.4011   -1.2298   12.8689 H   0  0  0  0  0  0  0  0  0  0  0  0
  -31.2924    4.8580   19.0140 H   0  0  0  0  0  0  0  0  0  0  0  0
  -31.5868    5.4314   21.3794 H   0  0  0  0  0  0  0  0  0  0  0  0
  -35.7261    6.2486   20.6916 H   0  0  0  0  0  0  0  0  0  0  0  0
  -35.4286    5.7687   18.3000 H   0  0  0  0  0  0  0  0  0  0  0  0
  -32.8296    5.8551   23.0631 H   0  0  0  0  0  0  0  0  0  0  0  0
  -35.8218    5.2741   23.0018 H   0  0  0  0  0  0  0  0  0  0  0  0
  -34.4963    4.0486   23.0811 H   0  0  0  0  0  0  0  0  0  0  0  0
  -35.4855    4.5214   25.3099 H   0  0  0  0  0  0  0  0  0  0  0  0
  -33.7349    4.9652   25.2052 H   0  0  0  0  0  0  0  0  0  0  0  0
  -36.1262    6.8340   25.0530 H   0  0  0  0  0  0  0  0  0  0  0  0
  -34.8961    6.6997   26.3759 H   0  0  0  0  0  0  0  0  0  0  0  0
  -34.5404    8.6393   24.8456 H   0  0  0  0  0  0  0  0  0  0  0  0
  -33.1588    7.4680   24.9254 H   0  0  0  0  0  0  0  0  0  0  0  0
  -33.5394    8.1676   22.6214 H   0  0  0  0  0  0  0  0  0  0  0  0
  -35.2650    7.6441   22.7390 H   0  0  0  0  0  0  0  0  0  0  0  0
  -29.0434   -1.2034   15.7684 H   0  0  0  0  0  0  0  0  0  0  0  0
  -28.8208   -0.3212   17.1625 H   0  0  0  0  0  0  0  0  0  0  0  0
  -26.8428    0.8397   15.8315 H   0  0  0  0  0  0  0  0  0  0  0  0
  -28.6638    2.6082   15.3309 H   0  0  0  0  0  0  0  0  0  0  0  0
  -28.8791    1.9390   13.8250 H   0  0  0  0  0  0  0  0  0  0  0  0
  -27.5380   -1.2594   14.2304 H   0  0  0  0  0  0  0  0  0  0  0  0
  -27.4906    0.2330   13.2321 H   0  0  0  0  0  0  0  0  0  0  0  0
  1  7  2  0
  1 11  1  0
  2  4  1  0
  2  9  2  0
  2 10  1  0
  3  4  1  0
  3  5  2  0
  3 19  1  0
  5 18  1  0
  6 31  2  0
  7 13  1  0
  7 16  1  0
  8  9  1  0
  8 13  1  0
  8 14  2  0
  9 31  1  0
 10 14  1  0
 10 18  1  0
 11 12  2  0
 12 15  1  0
 13 15  2  0
 17 18  2  0
 19 20  2  0
 19 24  1  0
 20 21  1  0
 21 22  2  0
 22 23  1  0
 25 22  1  0
 23 24  2  0
 25 26  1  0
 25 30  1  0
 26 27  1  0
 27 28  1  0
 28 29  1  0
 29 30  1  0
 31 37  1  0
 32 33  1  0
 32 37  1  0
 33 34  1  0
 33 35  1  0
 34 37  1  0
 35 36  1  0
  4 38  1  0
  5 39  1  0
 11 40  1  0
 12 41  1  0
 16 42  1  0
 16 43  1  0
 16 44  1  0
 20 45  1  0
 21 46  1  0
 23 47  1  0
 24 48  1  0
 25 49  1  1
 26 50  1  0
 26 51  1  0
 27 52  1  0
 27 53  1  0
 28 54  1  0
 28 55  1  0
 29 56  1  0
 29 57  1  0
 30 58  1  0
 30 59  1  0
 32 60  1  0
 32 61  1  0
 33 62  1  1
 34 63  1  0
 34 64  1  0
 35 65  1  0
 35 66  1  0
M  END
>  <filename_input>  (19) 
7TYP_KUR_docked.sdf

>  <pdb_id>  (19) 
7TYP_KUR

>  <pose_rank>  (19) 
18

>  <num_atoms_heavy>  (19) 
37

>  <num_torsions>  (19) 
5

>  <pose>  (19) 
[-32.44533578496248, 3.137745927898832, 15.562737494977322, 1.652856214714599, 1.633994703369629, 0.7388754057156726, -2.6344909764582995, -2.6068801611791987, 0.9910962388879355, 1.214168591749233, -0.2593946754244798]

>  <energy>  (19) 
-275.9607729323061

>  <inter_energy>  (19) 
-276.8900456867083

>  <intra_energy>  (19) 
2.9325926853150914

>  <rmsd>  (19) 
11.7058

>  <sdf_rank>  (19) 
0

$$$$

     RDKit          3D

 66 71  0  0  0  0  0  0  0  0999 V2000
  -25.3895   15.9917   30.5871 N   0  0  0  0  0  0  0  0  0  0  0  0
  -25.2899   12.9006   25.7367 C   0  0  0  0  0  0  0  0  0  0  0  0
  -24.4582   11.8155   23.7791 C   0  0  0  0  0  0  0  0  0  0  0  0
  -25.1850   11.7993   24.9537 N   0  0  0  0  0  0  0  0  0  0  0  0
  -23.8884   12.9919   23.3673 C   0  0  0  0  0  0  0  0  0  0  0  0
  -27.9019   12.3753   27.7497 O   0  0  0  0  0  0  0  0  0  0  0  0
  -25.0038   15.3865   29.4615 C   0  0  0  0  0  0  0  0  0  0  0  0
  -25.5866   14.5390   27.1862 C   0  0  0  0  0  0  0  0  0  0  0  0
  -25.9139   13.1761   26.9302 C   0  0  0  0  0  0  0  0  0  0  0  0
  -24.6575   14.0300   25.3471 N   0  0  0  0  0  0  0  0  0  0  0  0
  -26.6169   16.5113   30.6297 C   0  0  0  0  0  0  0  0  0  0  0  0
  -27.4654   16.4465   29.5655 C   0  0  0  0  0  0  0  0  0  0  0  0
  -25.8932   15.3238   28.3588 C   0  0  0  0  0  0  0  0  0  0  0  0
  -24.8368   15.0388   26.2223 N   0  0  0  0  0  0  0  0  0  0  0  0
  -27.1123   15.8716   28.4163 N   0  0  0  0  0  0  0  0  0  0  0  0
  -23.6360   14.7767   29.4790 C   0  0  0  0  0  0  0  0  0  0  0  0
  -23.5491   15.2696   23.8161 O   0  0  0  0  0  0  0  0  0  0  0  0
  -23.9865   14.1847   24.1317 C   0  0  0  0  0  0  0  0  0  0  0  0
  -24.3237   10.5357   23.0415 C   0  0  0  0  0  0  0  0  0  0  0  0
  -24.1323    9.3281   23.7016 C   0  0  0  0  0  0  0  0  0  0  0  0
  -23.9257    8.1697   23.0001 C   0  0  0  0  0  0  0  0  0  0  0  0
  -23.8740    8.1644   21.6243 C   0  0  0  0  0  0  0  0  0  0  0  0
  -24.0896    9.3547   20.9619 C   0  0  0  0  0  0  0  0  0  0  0  0
  -24.3249   10.5179   21.6536 C   0  0  0  0  0  0  0  0  0  0  0  0
  -23.5178    6.8871   20.9006 C   0  0  2  0  0  0  0  0  0  0  0  0
  -23.9580    6.8526   19.4499 C   0  0  0  0  0  0  0  0  0  0  0  0
  -23.3872    5.6357   18.7388 C   0  0  0  0  0  0  0  0  0  0  0  0
  -23.7914    4.3589   19.4335 C   0  0  0  0  0  0  0  0  0  0  0  0
  -23.4382    4.3918   20.9014 C   0  0  0  0  0  0  0  0  0  0  0  0
  -23.9970    5.6256   21.5855 C   0  0  0  0  0  0  0  0  0  0  0  0
  -26.7085   12.2757   27.7816 C   0  0  0  0  0  0  0  0  0  0  0  0
  -26.6190   10.4311   29.5265 C   0  0  0  0  0  0  0  0  0  0  0  0
  -25.1892   10.0623   29.8936 C   0  0  2  0  0  0  0  0  0  0  0  0
  -24.6905   11.2033   28.9848 C   0  0  0  0  0  0  0  0  0  0  0  0
  -24.7555    8.7038   29.4444 C   0  0  0  0  0  0  0  0  0  0  0  0
  -25.7162    8.1395   28.7937 F   0  0  0  0  0  0  0  0  0  0  0  0
  -26.0777   11.4023   28.5692 N   0  0  0  0  0  0  0  0  0  0  0  0
  -25.6579   10.9306   25.2410 H   0  0  0  0  0  0  0  0  0  0  0  0
  -23.3381   13.0129   22.4151 H   0  0  0  0  0  0  0  0  0  0  0  0
  -26.9545   17.0073   31.5517 H   0  0  0  0  0  0  0  0  0  0  0  0
  -28.4715   16.8814   29.6578 H   0  0  0  0  0  0  0  0  0  0  0  0
  -23.3122   14.6324   30.5203 H   0  0  0  0  0  0  0  0  0  0  0  0
  -23.6613   13.8047   28.9648 H   0  0  0  0  0  0  0  0  0  0  0  0
  -22.9299   15.4453   28.9648 H   0  0  0  0  0  0  0  0  0  0  0  0
  -24.1469    9.3019   24.8012 H   0  0  0  0  0  0  0  0  0  0  0  0
  -23.7985    7.2240   23.5475 H   0  0  0  0  0  0  0  0  0  0  0  0
  -24.0729    9.3728   19.8622 H   0  0  0  0  0  0  0  0  0  0  0  0
  -24.5170   11.4487   21.0997 H   0  0  0  0  0  0  0  0  0  0  0  0
  -22.4184    6.9013   20.9333 H   0  0  0  0  0  0  0  0  0  0  0  0
  -25.0564    6.8121   19.4077 H   0  0  0  0  0  0  0  0  0  0  0  0
  -23.5874    7.7588   18.9484 H   0  0  0  0  0  0  0  0  0  0  0  0
  -23.7618    5.6158   17.7047 H   0  0  0  0  0  0  0  0  0  0  0  0
  -22.2896    5.7073   18.7520 H   0  0  0  0  0  0  0  0  0  0  0  0
  -24.8783    4.2245   19.3303 H   0  0  0  0  0  0  0  0  0  0  0  0
  -23.2476    3.5247   18.9663 H   0  0  0  0  0  0  0  0  0  0  0  0
  -23.8520    3.4962   21.3879 H   0  0  0  0  0  0  0  0  0  0  0  0
  -22.3421    4.4175   20.9899 H   0  0  0  0  0  0  0  0  0  0  0  0
  -23.6654    5.6371   22.6343 H   0  0  0  0  0  0  0  0  0  0  0  0
  -25.0951    5.5911   21.5298 H   0  0  0  0  0  0  0  0  0  0  0  0
  -27.1969    9.6144   29.0692 H   0  0  0  0  0  0  0  0  0  0  0  0
  -27.3468   10.7310   30.2948 H   0  0  0  0  0  0  0  0  0  0  0  0
  -24.8850    9.9934   30.9485 H   0  0  0  0  0  0  0  0  0  0  0  0
  -24.2468   12.0549   29.5212 H   0  0  0  0  0  0  0  0  0  0  0  0
  -23.8863   11.0456   28.2511 H   0  0  0  0  0  0  0  0  0  0  0  0
  -23.8753    8.7971   28.7913 H   0  0  0  0  0  0  0  0  0  0  0  0
  -24.4976    8.0922   30.3216 H   0  0  0  0  0  0  0  0  0  0  0  0
  1  7  2  0
  1 11  1  0
  2  4  1  0
  2  9  2  0
  2 10  1  0
  3  4  1  0
  3  5  2  0
  3 19  1  0
  5 18  1  0
  6 31  2  0
  7 13  1  0
  7 16  1  0
  8  9  1  0
  8 13  1  0
  8 14  2  0
  9 31  1  0
 10 14  1  0
 10 18  1  0
 11 12  2  0
 12 15  1  0
 13 15  2  0
 17 18  2  0
 19 20  2  0
 19 24  1  0
 20 21  1  0
 21 22  2  0
 22 23  1  0
 25 22  1  0
 23 24  2  0
 25 26  1  0
 25 30  1  0
 26 27  1  0
 27 28  1  0
 28 29  1  0
 29 30  1  0
 31 37  1  0
 32 33  1  0
 32 37  1  0
 33 34  1  0
 33 35  1  0
 34 37  1  0
 35 36  1  0
  4 38  1  0
  5 39  1  0
 11 40  1  0
 12 41  1  0
 16 42  1  0
 16 43  1  0
 16 44  1  0
 20 45  1  0
 21 46  1  0
 23 47  1  0
 24 48  1  0
 25 49  1  6
 26 50  1  0
 26 51  1  0
 27 52  1  0
 27 53  1  0
 28 54  1  0
 28 55  1  0
 29 56  1  0
 29 57  1  0
 30 58  1  0
 30 59  1  0
 32 60  1  0
 32 61  1  0
 33 62  1  1
 34 63  1  0
 34 64  1  0
 35 65  1  0
 35 66  1  0
M  END
>  <filename_input>  (20) 
7TYP_KUR_docked.sdf

>  <pdb_id>  (20) 
7TYP_KUR

>  <pose_rank>  (20) 
19

>  <num_atoms_heavy>  (20) 
37

>  <num_torsions>  (20) 
5

>  <pose>  (20) 
[-25.289944260898864, 12.90061083027766, 25.73674349871149, 2.5426748351751813, -0.4970264575455457, -2.8094945515097196, 3.8377838726157147, 0.701355811993996, -2.9821326009983418, -0.24721800815746042, -1.7359880123403255]

>  <energy>  (20) 
-254.0386866426017

>  <inter_energy>  (20) 
-249.21552336476148

>  <intra_energy>  (20) 
1.7595250731252956

>  <rmsd>  (20) 
12.099

>  <sdf_rank>  (20) 
0

$$$$

     RDKit          3D

 66 71  0  0  0  0  0  0  0  0999 V2000
  -29.2835   14.3689   18.1612 N   0  0  0  0  0  0  0  0  0  0  0  0
  -30.1174    9.5649   15.1524 C   0  0  0  0  0  0  0  0  0  0  0  0
  -29.7553    7.4624   14.0801 C   0  0  0  0  0  0  0  0  0  0  0  0
  -30.4516    8.2653   14.9625 N   0  0  0  0  0  0  0  0  0  0  0  0
  -28.7478    8.0151   13.3332 C   0  0  0  0  0  0  0  0  0  0  0  0
  -32.8193   10.7516   16.5102 O   0  0  0  0  0  0  0  0  0  0  0  0
  -29.1388   13.1931   17.5460 C   0  0  0  0  0  0  0  0  0  0  0  0
  -29.7547   11.6838   15.6544 C   0  0  0  0  0  0  0  0  0  0  0  0
  -30.6017   10.5761   15.9475 C   0  0  0  0  0  0  0  0  0  0  0  0
  -29.0722   10.0686   14.4585 N   0  0  0  0  0  0  0  0  0  0  0  0
  -30.0075   15.3090   17.5527 C   0  0  0  0  0  0  0  0  0  0  0  0
  -30.5838   15.1011   16.3356 C   0  0  0  0  0  0  0  0  0  0  0  0
  -29.7418   12.9854   16.2793 C   0  0  0  0  0  0  0  0  0  0  0  0
  -28.8455   11.3638   14.7533 N   0  0  0  0  0  0  0  0  0  0  0  0
  -30.4456   13.9507   15.6773 N   0  0  0  0  0  0  0  0  0  0  0  0
  -28.3585   12.1538   18.2903 C   0  0  0  0  0  0  0  0  0  0  0  0
  -27.5224    9.9482   12.8176 O   0  0  0  0  0  0  0  0  0  0  0  0
  -28.3697    9.3772   13.4688 C   0  0  0  0  0  0  0  0  0  0  0  0
  -30.1361    6.0304   14.0133 C   0  0  0  0  0  0  0  0  0  0  0  0
  -31.1334    5.5006   14.8228 C   0  0  0  0  0  0  0  0  0  0  0  0
  -31.4121    4.1595   14.8067 C   0  0  0  0  0  0  0  0  0  0  0  0
  -30.7003    3.2890   14.0122 C   0  0  0  0  0  0  0  0  0  0  0  0
  -29.7270    3.8115   13.1865 C   0  0  0  0  0  0  0  0  0  0  0  0
  -29.4570    5.1583   13.1737 C   0  0  0  0  0  0  0  0  0  0  0  0
  -30.9580    1.8046   14.1227 C   0  0  2  0  0  0  0  0  0  0  0  0
  -29.7429    0.9414   13.8434 C   0  0  0  0  0  0  0  0  0  0  0  0
  -30.0250   -0.5157   14.1743 C   0  0  0  0  0  0  0  0  0  0  0  0
  -31.2145   -1.0297   13.4014 C   0  0  0  0  0  0  0  0  0  0  0  0
  -32.4239   -0.1461   13.5946 C   0  0  0  0  0  0  0  0  0  0  0  0
  -32.1135    1.3060   13.2823 C   0  0  0  0  0  0  0  0  0  0  0  0
  -31.7121   10.5349   16.9131 C   0  0  0  0  0  0  0  0  0  0  0  0
  -32.3488   10.2193   19.3524 C   0  0  0  0  0  0  0  0  0  0  0  0
  -31.1316    9.9775   20.2328 C   0  0  2  0  0  0  0  0  0  0  0  0
  -30.2308   10.2058   19.0029 C   0  0  0  0  0  0  0  0  0  0  0  0
  -31.0319    8.5986   20.8023 C   0  0  0  0  0  0  0  0  0  0  0  0
  -32.1605    7.9907   20.6557 F   0  0  0  0  0  0  0  0  0  0  0  0
  -31.4475   10.2818   18.1964 N   0  0  0  0  0  0  0  0  0  0  0  0
  -31.2428    7.8671   15.4882 H   0  0  0  0  0  0  0  0  0  0  0  0
  -28.2156    7.3840   12.6063 H   0  0  0  0  0  0  0  0  0  0  0  0
  -30.1437   16.2816   18.0482 H   0  0  0  0  0  0  0  0  0  0  0  0
  -31.1806   15.9067   15.8830 H   0  0  0  0  0  0  0  0  0  0  0  0
  -28.4769   12.3116   19.3725 H   0  0  0  0  0  0  0  0  0  0  0  0
  -28.7309   11.1540   18.0226 H   0  0  0  0  0  0  0  0  0  0  0  0
  -27.2945   12.2326   18.0226 H   0  0  0  0  0  0  0  0  0  0  0  0
  -31.7064    6.1665   15.4849 H   0  0  0  0  0  0  0  0  0  0  0  0
  -32.2214    3.7699   15.4417 H   0  0  0  0  0  0  0  0  0  0  0  0
  -29.1579    3.1391   12.5277 H   0  0  0  0  0  0  0  0  0  0  0  0
  -28.6916    5.5514   12.4883 H   0  0  0  0  0  0  0  0  0  0  0  0
  -31.2298    1.6950   15.1830 H   0  0  0  0  0  0  0  0  0  0  0  0
  -29.4791    1.0245   12.7788 H   0  0  0  0  0  0  0  0  0  0  0  0
  -28.9115    1.2904   14.4735 H   0  0  0  0  0  0  0  0  0  0  0  0
  -29.1421   -1.1195   13.9176 H   0  0  0  0  0  0  0  0  0  0  0  0
  -30.2480   -0.5923   15.2487 H   0  0  0  0  0  0  0  0  0  0  0  0
  -30.9602   -1.0587   12.3316 H   0  0  0  0  0  0  0  0  0  0  0  0
  -31.4591   -2.0356   13.7731 H   0  0  0  0  0  0  0  0  0  0  0  0
  -33.2273   -0.4905   12.9269 H   0  0  0  0  0  0  0  0  0  0  0  0
  -32.7319   -0.2119   14.6485 H   0  0  0  0  0  0  0  0  0  0  0  0
  -33.0029    1.9178   13.4938 H   0  0  0  0  0  0  0  0  0  0  0  0
  -31.8358    1.3854   12.2209 H   0  0  0  0  0  0  0  0  0  0  0  0
  -33.0654    9.3850   19.3267 H   0  0  0  0  0  0  0  0  0  0  0  0
  -33.0578   11.0321   19.5686 H   0  0  0  0  0  0  0  0  0  0  0  0
  -30.9928   10.5511   21.1611 H   0  0  0  0  0  0  0  0  0  0  0  0
  -29.6426   11.1349   19.0326 H   0  0  0  0  0  0  0  0  0  0  0  0
  -29.4144    9.5132   18.7502 H   0  0  0  0  0  0  0  0  0  0  0  0
  -30.2436    8.0405   20.2760 H   0  0  0  0  0  0  0  0  0  0  0  0
  -30.7849    8.6606   21.8724 H   0  0  0  0  0  0  0  0  0  0  0  0
  1  7  2  0
  1 11  1  0
  2  4  1  0
  2  9  2  0
  2 10  1  0
  3  4  1  0
  3  5  2  0
  3 19  1  0
  5 18  1  0
  6 31  2  0
  7 13  1  0
  7 16  1  0
  8  9  1  0
  8 13  1  0
  8 14  2  0
  9 31  1  0
 10 14  1  0
 10 18  1  0
 11 12  2  0
 12 15  1  0
 13 15  2  0
 17 18  2  0
 19 20  2  0
 19 24  1  0
 20 21  1  0
 21 22  2  0
 22 23  1  0
 25 22  1  0
 23 24  2  0
 25 26  1  0
 25 30  1  0
 26 27  1  0
 27 28  1  0
 28 29  1  0
 29 30  1  0
 31 37  1  0
 32 33  1  0
 32 37  1  0
 33 34  1  0
 33 35  1  0
 34 37  1  0
 35 36  1  0
  4 38  1  0
  5 39  1  0
 11 40  1  0
 12 41  1  0
 16 42  1  0
 16 43  1  0
 16 44  1  0
 20 45  1  0
 21 46  1  0
 23 47  1  0
 24 48  1  0
 25 49  1  1
 26 50  1  0
 26 51  1  0
 27 52  1  0
 27 53  1  0
 28 54  1  0
 28 55  1  0
 29 56  1  0
 29 57  1  0
 30 58  1  0
 30 59  1  0
 32 60  1  0
 32 61  1  0
 33 62  1  1
 34 63  1  0
 34 64  1  0
 35 65  1  0
 35 66  1  0
M  END
>  <filename_input>  (21) 
7TYP_KUR_docked.sdf

>  <pdb_id>  (21) 
7TYP_KUR

>  <pose_rank>  (21) 
20

>  <num_atoms_heavy>  (21) 
37

>  <num_torsions>  (21) 
5

>  <pose>  (21) 
[-30.11736686227254, 9.56493418058288, 15.152359640580395, 2.7529826655427394, -1.5348553521552804, -2.075059048456234, 3.6227788027706906, 0.9668369279059185, 3.030665144345316, 0.4156508683725878, -0.8315242607747303]

>  <energy>  (21) 
-126.24105608104459

>  <inter_energy>  (21) 
-163.40719079534747

>  <intra_energy>  (21) 
34.8974700824307

>  <rmsd>  (21) 
10.3991

>  <sdf_rank>  (21) 
0

$$$$

     RDKit          3D

 66 71  0  0  0  0  0  0  0  0999 V2000
  -38.9573    0.3731   11.3497 N   0  0  0  0  0  0  0  0  0  0  0  0
  -35.9017    3.7819   14.8684 C   0  0  0  0  0  0  0  0  0  0  0  0
  -34.1704    5.2614   15.5861 C   0  0  0  0  0  0  0  0  0  0  0  0
  -35.5027    4.9034   15.5163 N   0  0  0  0  0  0  0  0  0  0  0  0
  -33.2293    4.4254   15.0442 C   0  0  0  0  0  0  0  0  0  0  0  0
  -38.8212    3.4265   16.1494 O   0  0  0  0  0  0  0  0  0  0  0  0
  -37.9983    1.1528   11.8540 C   0  0  0  0  0  0  0  0  0  0  0  0
  -36.7997    2.0364   13.8583 C   0  0  0  0  0  0  0  0  0  0  0  0
  -37.1198    3.1921   14.6278 C   0  0  0  0  0  0  0  0  0  0  0  0
  -34.9614    3.0110   14.2775 N   0  0  0  0  0  0  0  0  0  0  0  0
  -39.6159   -0.4298   12.1863 C   0  0  0  0  0  0  0  0  0  0  0  0
  -39.3295   -0.4762   13.5176 C   0  0  0  0  0  0  0  0  0  0  0  0
  -37.7067    1.0979   13.2407 C   0  0  0  0  0  0  0  0  0  0  0  0
  -35.4985    1.9390   13.6625 N   0  0  0  0  0  0  0  0  0  0  0  0
  -38.3654    0.2686   14.0578 N   0  0  0  0  0  0  0  0  0  0  0  0
  -37.3208    2.0713   10.8842 C   0  0  0  0  0  0  0  0  0  0  0  0
  -32.8125    2.4140   13.9105 O   0  0  0  0  0  0  0  0  0  0  0  0
  -33.5844    3.2236   14.3763 C   0  0  0  0  0  0  0  0  0  0  0  0
  -33.8437    6.5549   16.2343 C   0  0  0  0  0  0  0  0  0  0  0  0
  -33.3584    7.6349   15.5071 C   0  0  0  0  0  0  0  0  0  0  0  0
  -32.9827    8.7925   16.1359 C   0  0  0  0  0  0  0  0  0  0  0  0
  -33.0470    8.9177   17.5055 C   0  0  0  0  0  0  0  0  0  0  0  0
  -33.5528    7.8595   18.2312 C   0  0  0  0  0  0  0  0  0  0  0  0
  -33.9582    6.7036   17.6095 C   0  0  0  0  0  0  0  0  0  0  0  0
  -32.5034   10.1647   18.1625 C   0  0  2  0  0  0  0  0  0  0  0  0
  -33.3225   10.6520   19.3419 C   0  0  0  0  0  0  0  0  0  0  0  0
  -32.6062   11.7775   20.0717 C   0  0  0  0  0  0  0  0  0  0  0  0
  -32.3044   12.9256   19.1406 C   0  0  0  0  0  0  0  0  0  0  0  0
  -31.5565   12.4612   17.9136 C   0  0  0  0  0  0  0  0  0  0  0  0
  -32.2763   11.3227   17.2151 C   0  0  0  0  0  0  0  0  0  0  0  0
  -38.4593    3.6516   15.0298 C   0  0  0  0  0  0  0  0  0  0  0  0
  -40.5924    4.7984   14.2616 C   0  0  0  0  0  0  0  0  0  0  0  0
  -40.5318    5.1905   12.7926 C   0  0  2  0  0  0  0  0  0  0  0  0
  -39.1623    4.4901   12.6904 C   0  0  0  0  0  0  0  0  0  0  0  0
  -40.4738    6.6625   12.5370 C   0  0  0  0  0  0  0  0  0  0  0  0
  -41.6514    7.1701   12.6807 F   0  0  0  0  0  0  0  0  0  0  0  0
  -39.2264    4.2779   14.1353 N   0  0  0  0  0  0  0  0  0  0  0  0
  -36.2091    5.5026   15.9669 H   0  0  0  0  0  0  0  0  0  0  0  0
  -32.1659    4.6936   15.1293 H   0  0  0  0  0  0  0  0  0  0  0  0
  -40.4145   -1.0740   11.7896 H   0  0  0  0  0  0  0  0  0  0  0  0
  -39.9113   -1.1482   14.1656 H   0  0  0  0  0  0  0  0  0  0  0  0
  -36.7563    2.8366   11.4372 H   0  0  0  0  0  0  0  0  0  0  0  0
  -36.6315    1.4929   10.2516 H   0  0  0  0  0  0  0  0  0  0  0  0
  -38.0770    2.5591   10.2516 H   0  0  0  0  0  0  0  0  0  0  0  0
  -33.2747    7.5594   14.4129 H   0  0  0  0  0  0  0  0  0  0  0  0
  -32.6222    9.6398   15.5341 H   0  0  0  0  0  0  0  0  0  0  0  0
  -33.6328    7.9425   19.3252 H   0  0  0  0  0  0  0  0  0  0  0  0
  -34.3797    5.8841   18.2102 H   0  0  0  0  0  0  0  0  0  0  0  0
  -31.5249    9.8240   18.5320 H   0  0  0  0  0  0  0  0  0  0  0  0
  -34.2938   11.0190   18.9788 H   0  0  0  0  0  0  0  0  0  0  0  0
  -33.4652    9.8147   20.0408 H   0  0  0  0  0  0  0  0  0  0  0  0
  -33.2456   12.1382   20.8908 H   0  0  0  0  0  0  0  0  0  0  0  0
  -31.6554   11.3883   20.4648 H   0  0  0  0  0  0  0  0  0  0  0  0
  -33.2510   13.3903   18.8277 H   0  0  0  0  0  0  0  0  0  0  0  0
  -31.6721   13.6482   19.6773 H   0  0  0  0  0  0  0  0  0  0  0  0
  -31.4604   13.3047   17.2141 H   0  0  0  0  0  0  0  0  0  0  0  0
  -30.5679   12.0982   18.2314 H   0  0  0  0  0  0  0  0  0  0  0  0
  -31.6676   10.9790   16.3658 H   0  0  0  0  0  0  0  0  0  0  0  0
  -33.2535   11.6870   16.8652 H   0  0  0  0  0  0  0  0  0  0  0  0
  -40.6945    5.6459   14.9554 H   0  0  0  0  0  0  0  0  0  0  0  0
  -41.4082    4.1727   14.6527 H   0  0  0  0  0  0  0  0  0  0  0  0
  -41.3591    4.9363   12.1137 H   0  0  0  0  0  0  0  0  0  0  0  0
  -39.1638    3.5672   12.0919 H   0  0  0  0  0  0  0  0  0  0  0  0
  -38.2984    4.9804   12.2180 H   0  0  0  0  0  0  0  0  0  0  0  0
  -39.7823    7.1320   13.2521 H   0  0  0  0  0  0  0  0  0  0  0  0
  -40.1190    6.8431   11.5116 H   0  0  0  0  0  0  0  0  0  0  0  0
  1  7  2  0
  1 11  1  0
  2  4  1  0
  2  9  2  0
  2 10  1  0
  3  4  1  0
  3  5  2  0
  3 19  1  0
  5 18  1  0
  6 31  2  0
  7 13  1  0
  7 16  1  0
  8  9  1  0
  8 13  1  0
  8 14  2  0
  9 31  1  0
 10 14  1  0
 10 18  1  0
 11 12  2  0
 12 15  1  0
 13 15  2  0
 17 18  2  0
 19 20  2  0
 19 24  1  0
 20 21  1  0
 21 22  2  0
 22 23  1  0
 25 22  1  0
 23 24  2  0
 25 26  1  0
 25 30  1  0
 26 27  1  0
 27 28  1  0
 28 29  1  0
 29 30  1  0
 31 37  1  0
 32 33  1  0
 32 37  1  0
 33 34  1  0
 33 35  1  0
 34 37  1  0
 35 36  1  0
  4 38  1  0
  5 39  1  0
 11 40  1  0
 12 41  1  0
 16 42  1  0
 16 43  1  0
 16 44  1  0
 20 45  1  0
 21 46  1  0
 23 47  1  0
 24 48  1  0
 25 49  1  1
 26 50  1  0
 26 51  1  0
 27 52  1  0
 27 53  1  0
 28 54  1  0
 28 55  1  0
 29 56  1  0
 29 57  1  0
 30 58  1  0
 30 59  1  0
 32 60  1  0
 32 61  1  0
 33 62  1  6
 34 63  1  0
 34 64  1  0
 35 65  1  0
 35 66  1  0
M  END
>  <filename_input>  (22) 
7TYP_KUR_docked.sdf

>  <pdb_id>  (22) 
7TYP_KUR

>  <pose_rank>  (22) 
21

>  <num_atoms_heavy>  (22) 
37

>  <num_torsions>  (22) 
5

>  <pose>  (22) 
[-35.90171648141176, 3.781874305586397, 14.86837651906545, -4.573409384533326, 2.1942203243669436, -0.26413777616958856, -2.2588360676506714, -5.200520967951966, 1.917514874344457, -1.4968382807038436, -2.0385486657744383]

>  <energy>  (22) 
-150.31546243745092

>  <inter_energy>  (22) 
-144.30446235651135

>  <intra_energy>  (22) 
9.556641858253856

>  <rmsd>  (22) 
9.48389

>  <sdf_rank>  (22) 
0

$$$$

     RDKit          3D

 66 71  0  0  0  0  0  0  0  0999 V2000
  -40.0845   18.2068   23.9319 N   0  0  0  0  0  0  0  0  0  0  0  0
  -34.9260   17.2422   26.5872 C   0  0  0  0  0  0  0  0  0  0  0  0
  -33.3856   16.7235   28.3364 C   0  0  0  0  0  0  0  0  0  0  0  0
  -33.6678   17.2504   27.0910 N   0  0  0  0  0  0  0  0  0  0  0  0
  -34.4154   16.2439   29.1031 C   0  0  0  0  0  0  0  0  0  0  0  0
  -35.4396   19.1603   23.6674 O   0  0  0  0  0  0  0  0  0  0  0  0
  -39.0673   18.2417   24.7956 C   0  0  0  0  0  0  0  0  0  0  0  0
  -36.8691   17.3225   25.5425 C   0  0  0  0  0  0  0  0  0  0  0  0
  -35.4932   17.6684   25.4099 C   0  0  0  0  0  0  0  0  0  0  0  0
  -35.9138   16.6964   27.3314 N   0  0  0  0  0  0  0  0  0  0  0  0
  -39.9779   17.4060   22.8710 C   0  0  0  0  0  0  0  0  0  0  0  0
  -38.8699   16.6444   22.6500 C   0  0  0  0  0  0  0  0  0  0  0  0
  -37.9178   17.4459   24.5577 C   0  0  0  0  0  0  0  0  0  0  0  0
  -37.1059   16.7454   26.7052 N   0  0  0  0  0  0  0  0  0  0  0  0
  -37.8233   16.6664   23.4748 N   0  0  0  0  0  0  0  0  0  0  0  0
  -39.2539   19.1184   25.9954 C   0  0  0  0  0  0  0  0  0  0  0  0
  -36.7250   15.8673   29.2714 O   0  0  0  0  0  0  0  0  0  0  0  0
  -35.7578   16.2331   28.6400 C   0  0  0  0  0  0  0  0  0  0  0  0
  -31.9641   16.6928   28.7589 C   0  0  0  0  0  0  0  0  0  0  0  0
  -31.0415   17.6191   28.2883 C   0  0  0  0  0  0  0  0  0  0  0  0
  -29.7167   17.5229   28.6237 C   0  0  0  0  0  0  0  0  0  0  0  0
  -29.2498   16.4957   29.4127 C   0  0  0  0  0  0  0  0  0  0  0  0
  -30.1641   15.5881   29.9051 C   0  0  0  0  0  0  0  0  0  0  0  0
  -31.4992   15.6898   29.5981 C   0  0  0  0  0  0  0  0  0  0  0  0
  -27.7642   16.3597   29.6504 C   0  0  2  0  0  0  0  0  0  0  0  0
  -26.9076   16.7453   28.4600 C   0  0  0  0  0  0  0  0  0  0  0  0
  -25.4356   16.7810   28.8399 C   0  0  0  0  0  0  0  0  0  0  0  0
  -24.9836   15.4529   29.3952 C   0  0  0  0  0  0  0  0  0  0  0  0
  -25.8660   15.0000   30.5340 C   0  0  0  0  0  0  0  0  0  0  0  0
  -27.3315   14.9949   30.1406 C   0  0  0  0  0  0  0  0  0  0  0  0
  -34.8417   18.3025   24.2521 C   0  0  0  0  0  0  0  0  0  0  0  0
  -32.7829   18.3190   22.7633 C   0  0  0  0  0  0  0  0  0  0  0  0
  -31.7719   17.2597   23.1766 C   0  0  2  0  0  0  0  0  0  0  0  0
  -32.7723   16.7574   24.2364 C   0  0  0  0  0  0  0  0  0  0  0  0
  -30.5019   17.7953   23.7560 C   0  0  0  0  0  0  0  0  0  0  0  0
  -29.5396   16.9691   23.5191 F   0  0  0  0  0  0  0  0  0  0  0  0
  -33.6278   17.8887   23.8830 N   0  0  0  0  0  0  0  0  0  0  0  0
  -32.9047   17.6587   26.5326 H   0  0  0  0  0  0  0  0  0  0  0  0
  -34.1952   15.8552   30.1083 H   0  0  0  0  0  0  0  0  0  0  0  0
  -40.8096   17.3588   22.1525 H   0  0  0  0  0  0  0  0  0  0  0  0
  -38.8383   15.9922   21.7648 H   0  0  0  0  0  0  0  0  0  0  0  0
  -39.1266   18.5205   26.9098 H   0  0  0  0  0  0  0  0  0  0  0  0
  -38.5076   19.9264   25.9787 H   0  0  0  0  0  0  0  0  0  0  0  0
  -40.2646   19.5524   25.9787 H   0  0  0  0  0  0  0  0  0  0  0  0
  -31.3790   18.4399   27.6385 H   0  0  0  0  0  0  0  0  0  0  0  0
  -29.0113   18.2821   28.2549 H   0  0  0  0  0  0  0  0  0  0  0  0
  -29.8187   14.7697   30.5539 H   0  0  0  0  0  0  0  0  0  0  0  0
  -32.2099   14.9660   30.0234 H   0  0  0  0  0  0  0  0  0  0  0  0
  -27.5912   17.0871   30.4573 H   0  0  0  0  0  0  0  0  0  0  0  0
  -27.0545   16.0083   27.6567 H   0  0  0  0  0  0  0  0  0  0  0  0
  -27.2075   17.7478   28.1210 H   0  0  0  0  0  0  0  0  0  0  0  0
  -24.8399   17.0177   27.9460 H   0  0  0  0  0  0  0  0  0  0  0  0
  -25.2941   17.5490   29.6146 H   0  0  0  0  0  0  0  0  0  0  0  0
  -25.0191   14.6999   28.5941 H   0  0  0  0  0  0  0  0  0  0  0  0
  -23.9589   15.5696   29.7778 H   0  0  0  0  0  0  0  0  0  0  0  0
  -25.5726   13.9817   30.8291 H   0  0  0  0  0  0  0  0  0  0  0  0
  -25.7375   15.7048   31.3687 H   0  0  0  0  0  0  0  0  0  0  0  0
  -27.9382   14.7175   31.0152 H   0  0  0  0  0  0  0  0  0  0  0  0
  -27.4744   14.2681   29.3274 H   0  0  0  0  0  0  0  0  0  0  0  0
  -32.4164   19.3533   22.8406 H   0  0  0  0  0  0  0  0  0  0  0  0
  -33.1749   18.3648   21.7366 H   0  0  0  0  0  0  0  0  0  0  0  0
  -31.3391   16.5803   22.4275 H   0  0  0  0  0  0  0  0  0  0  0  0
  -33.2078   15.7701   24.0230 H   0  0  0  0  0  0  0  0  0  0  0  0
  -32.4649   16.5703   25.2759 H   0  0  0  0  0  0  0  0  0  0  0  0
  -30.2712   18.7683   23.2976 H   0  0  0  0  0  0  0  0  0  0  0  0
  -30.6186   17.9208   24.8426 H   0  0  0  0  0  0  0  0  0  0  0  0
  1  7  2  0
  1 11  1  0
  2  4  1  0
  2  9  2  0
  2 10  1  0
  3  4  1  0
  3  5  2  0
  3 19  1  0
  5 18  1  0
  6 31  2  0
  7 13  1  0
  7 16  1  0
  8  9  1  0
  8 13  1  0
  8 14  2  0
  9 31  1  0
 10 14  1  0
 10 18  1  0
 11 12  2  0
 12 15  1  0
 13 15  2  0
 17 18  2  0
 19 20  2  0
 19 24  1  0
 20 21  1  0
 21 22  2  0
 22 23  1  0
 25 22  1  0
 23 24  2  0
 25 26  1  0
 25 30  1  0
 26 27  1  0
 27 28  1  0
 28 29  1  0
 29 30  1  0
 31 37  1  0
 32 33  1  0
 32 37  1  0
 33 34  1  0
 33 35  1  0
 34 37  1  0
 35 36  1  0
  4 38  1  0
  5 39  1  0
 11 40  1  0
 12 41  1  0
 16 42  1  0
 16 43  1  0
 16 44  1  0
 20 45  1  0
 21 46  1  0
 23 47  1  0
 24 48  1  0
 25 49  1  1
 26 50  1  0
 26 51  1  0
 27 52  1  0
 27 53  1  0
 28 54  1  0
 28 55  1  0
 29 56  1  0
 29 57  1  0
 30 58  1  0
 30 59  1  0
 32 60  1  0
 32 61  1  0
 33 62  1  6
 34 63  1  0
 34 64  1  0
 35 65  1  0
 35 66  1  0
M  END
>  <filename_input>  (23) 
7TYP_KUR_docked.sdf

>  <pdb_id>  (23) 
7TYP_KUR

>  <pose_rank>  (23) 
22

>  <num_atoms_heavy>  (23) 
37

>  <num_torsions>  (23) 
5

>  <pose>  (23) 
[-34.92599619144875, 17.24215182217496, 26.587166772276827, 1.8357362710629999, 3.744718120681501, 1.4323802249676905, -6.123593770425711, 31.410060858726162, 0.6302234118368756, 7.21208413330233, 7.431540862120846]

>  <energy>  (23) 
-179.9261323575914

>  <inter_energy>  (23) 
-218.8432502275304

>  <intra_energy>  (23) 
39.567115261183396

>  <rmsd>  (23) 
12.1941

>  <sdf_rank>  (23) 
0

$$$$

     RDKit          3D

 66 71  0  0  0  0  0  0  0  0999 V2000
  -37.2427    4.0806   25.5875 N   0  0  0  0  0  0  0  0  0  0  0  0
  -33.2789    7.8296   27.7754 C   0  0  0  0  0  0  0  0  0  0  0  0
  -31.6515    8.7334   29.2707 C   0  0  0  0  0  0  0  0  0  0  0  0
  -32.5641    8.8812   28.2443 N   0  0  0  0  0  0  0  0  0  0  0  0
  -31.5188    7.5079   29.8695 C   0  0  0  0  0  0  0  0  0  0  0  0
  -33.9946    9.3227   25.2099 O   0  0  0  0  0  0  0  0  0  0  0  0
  -36.5617    4.8871   26.4047 C   0  0  0  0  0  0  0  0  0  0  0  0
  -34.5335    6.2817   26.8249 C   0  0  0  0  0  0  0  0  0  0  0  0
  -34.2209    7.6713   26.7869 C   0  0  0  0  0  0  0  0  0  0  0  0
  -33.0770    6.6145   28.3325 N   0  0  0  0  0  0  0  0  0  0  0  0
  -36.7816    3.9113   24.3478 C   0  0  0  0  0  0  0  0  0  0  0  0
  -35.6568    4.5393   23.9040 C   0  0  0  0  0  0  0  0  0  0  0  0
  -35.3922    5.5369   25.9345 C   0  0  0  0  0  0  0  0  0  0  0  0
  -33.8425    5.6627   27.7633 N   0  0  0  0  0  0  0  0  0  0  0  0
  -34.9602    5.3695   24.6796 N   0  0  0  0  0  0  0  0  0  0  0  0
  -37.0913    5.0072   27.8005 C   0  0  0  0  0  0  0  0  0  0  0  0
  -32.2303    5.2734   29.9429 O   0  0  0  0  0  0  0  0  0  0  0  0
  -32.2596    6.3752   29.4396 C   0  0  0  0  0  0  0  0  0  0  0  0
  -30.8499    9.9229   29.6485 C   0  0  0  0  0  0  0  0  0  0  0  0
  -29.4866    9.9977   29.3905 C   0  0  0  0  0  0  0  0  0  0  0  0
  -28.7481   11.0675   29.8227 C   0  0  0  0  0  0  0  0  0  0  0  0
  -29.3213   12.0885   30.5470 C   0  0  0  0  0  0  0  0  0  0  0  0
  -30.6789   12.0340   30.7837 C   0  0  0  0  0  0  0  0  0  0  0  0
  -31.4351   10.9798   30.3320 C   0  0  0  0  0  0  0  0  0  0  0  0
  -28.4438   13.1817   31.1100 C   0  0  2  0  0  0  0  0  0  0  0  0
  -28.7382   14.5616   30.5543 C   0  0  0  0  0  0  0  0  0  0  0  0
  -27.9646   15.6283   31.3132 C   0  0  0  0  0  0  0  0  0  0  0  0
  -26.4807   15.3587   31.2717 C   0  0  0  0  0  0  0  0  0  0  0  0
  -26.1587   13.9612   31.7450 C   0  0  0  0  0  0  0  0  0  0  0  0
  -26.9588   12.9152   30.9914 C   0  0  0  0  0  0  0  0  0  0  0  0
  -34.7658    8.6821   25.8657 C   0  0  0  0  0  0  0  0  0  0  0  0
  -36.8764    9.8137   25.0173 C   0  0  0  0  0  0  0  0  0  0  0  0
  -38.1247    9.2825   25.7065 C   0  0  2  0  0  0  0  0  0  0  0  0
  -37.2241    8.4202   26.6129 C   0  0  0  0  0  0  0  0  0  0  0  0
  -39.0348    8.4836   24.8296 C   0  0  0  0  0  0  0  0  0  0  0  0
  -38.4749    8.3020   23.6814 F   0  0  0  0  0  0  0  0  0  0  0  0
  -36.0866    8.8642   25.8093 N   0  0  0  0  0  0  0  0  0  0  0  0
  -32.7044    9.8119   27.8258 H   0  0  0  0  0  0  0  0  0  0  0  0
  -30.8165    7.3981   30.7090 H   0  0  0  0  0  0  0  0  0  0  0  0
  -37.3257    3.2445   23.6627 H   0  0  0  0  0  0  0  0  0  0  0  0
  -35.3135    4.3556   22.8752 H   0  0  0  0  0  0  0  0  0  0  0  0
  -36.2784    4.8229   28.5182 H   0  0  0  0  0  0  0  0  0  0  0  0
  -37.4935    6.0195   27.9542 H   0  0  0  0  0  0  0  0  0  0  0  0
  -37.8909    4.2677   27.9542 H   0  0  0  0  0  0  0  0  0  0  0  0
  -28.9942    9.1878   28.8324 H   0  0  0  0  0  0  0  0  0  0  0  0
  -27.6748   11.1118   29.5860 H   0  0  0  0  0  0  0  0  0  0  0  0
  -31.1640   12.8475   31.3431 H   0  0  0  0  0  0  0  0  0  0  0  0
  -32.5198   10.9732   30.5144 H   0  0  0  0  0  0  0  0  0  0  0  0
  -28.7128   13.1684   32.1765 H   0  0  0  0  0  0  0  0  0  0  0  0
  -28.4480   14.5922   29.4937 H   0  0  0  0  0  0  0  0  0  0  0  0
  -29.8141   14.7626   30.6641 H   0  0  0  0  0  0  0  0  0  0  0  0
  -28.1641   16.6091   30.8569 H   0  0  0  0  0  0  0  0  0  0  0  0
  -28.2919   15.6155   32.3633 H   0  0  0  0  0  0  0  0  0  0  0  0
  -26.1248   15.4768   30.2376 H   0  0  0  0  0  0  0  0  0  0  0  0
  -25.9812   16.0738   31.9418 H   0  0  0  0  0  0  0  0  0  0  0  0
  -25.0866   13.7703   31.5894 H   0  0  0  0  0  0  0  0  0  0  0  0
  -26.4208   13.8912   32.8110 H   0  0  0  0  0  0  0  0  0  0  0  0
  -26.7368   11.9221   31.4091 H   0  0  0  0  0  0  0  0  0  0  0  0
  -26.6783   12.9567   29.9286 H   0  0  0  0  0  0  0  0  0  0  0  0
  -36.8456    9.6377   23.9319 H   0  0  0  0  0  0  0  0  0  0  0  0
  -36.6403   10.8880   25.0117 H   0  0  0  0  0  0  0  0  0  0  0  0
  -38.8668    9.9769   26.1274 H   0  0  0  0  0  0  0  0  0  0  0  0
  -37.1936    8.7397   27.6650 H   0  0  0  0  0  0  0  0  0  0  0  0
  -37.4291    7.3525   26.7806 H   0  0  0  0  0  0  0  0  0  0  0  0
  -39.2338    7.5088   25.2989 H   0  0  0  0  0  0  0  0  0  0  0  0
  -39.9825    9.0253   24.6941 H   0  0  0  0  0  0  0  0  0  0  0  0
  1  7  2  0
  1 11  1  0
  2  4  1  0
  2  9  2  0
  2 10  1  0
  3  4  1  0
  3  5  2  0
  3 19  1  0
  5 18  1  0
  6 31  2  0
  7 13  1  0
  7 16  1  0
  8  9  1  0
  8 13  1  0
  8 14  2  0
  9 31  1  0
 10 14  1  0
 10 18  1  0
 11 12  2  0
 12 15  1  0
 13 15  2  0
 17 18  2  0
 19 20  2  0
 19 24  1  0
 20 21  1  0
 21 22  2  0
 22 23  1  0
 25 22  1  0
 23 24  2  0
 25 26  1  0
 25 30  1  0
 26 27  1  0
 27 28  1  0
 28 29  1  0
 29 30  1  0
 31 37  1  0
 32 33  1  0
 32 37  1  0
 33 34  1  0
 33 35  1  0
 34 37  1  0
 35 36  1  0
  4 38  1  0
  5 39  1  0
 11 40  1  0
 12 41  1  0
 16 42  1  0
 16 43  1  0
 16 44  1  0
 20 45  1  0
 21 46  1  0
 23 47  1  0
 24 48  1  0
 25 49  1  1
 26 50  1  0
 26 51  1  0
 27 52  1  0
 27 53  1  0
 28 54  1  0
 28 55  1  0
 29 56  1  0
 29 57  1  0
 30 58  1  0
 30 59  1  0
 32 60  1  0
 32 61  1  0
 33 62  1  1
 34 63  1  0
 34 64  1  0
 35 65  1  0
 35 66  1  0
M  END
>  <filename_input>  (24) 
7TYP_KUR_docked.sdf

>  <pdb_id>  (24) 
7TYP_KUR

>  <pose_rank>  (24) 
23

>  <num_atoms_heavy>  (24) 
37

>  <num_torsions>  (24) 
5

>  <pose>  (24) 
[-33.27894865922216, 7.829582057266236, 27.775399034458225, -0.8390327177009724, 4.715253655275013, -0.1534397058851795, 0.20292369129759366, 3.4384700917005935, -2.8932736501048804, -1.4863728794416893, -2.475126037836741]

>  <energy>  (24) 
-153.5595134732827

>  <inter_energy>  (24) 
-158.79269160116633

>  <intra_energy>  (24) 
17.59908971488227

>  <rmsd>  (24) 
8.92268

>  <sdf_rank>  (24) 
0

$$$$

     RDKit          3D

 66 71  0  0  0  0  0  0  0  0999 V2000
  -29.9401   18.5390   30.6998 N   0  0  0  0  0  0  0  0  0  0  0  0
  -30.8510   13.0803   29.1013 C   0  0  0  0  0  0  0  0  0  0  0  0
  -31.3829   10.7581   29.2620 C   0  0  0  0  0  0  0  0  0  0  0  0
  -31.5319   11.9937   28.6626 N   0  0  0  0  0  0  0  0  0  0  0  0
  -30.4751   10.6190   30.2793 C   0  0  0  0  0  0  0  0  0  0  0  0
  -31.0694   15.0977   26.5553 O   0  0  0  0  0  0  0  0  0  0  0  0
  -30.1833   17.2265   30.7123 C   0  0  0  0  0  0  0  0  0  0  0  0
  -29.8851   14.9902   29.6422 C   0  0  0  0  0  0  0  0  0  0  0  0
  -30.8036   14.4017   28.7255 C   0  0  0  0  0  0  0  0  0  0  0  0
  -30.0160   12.9347   30.1544 N   0  0  0  0  0  0  0  0  0  0  0  0
  -29.0874   19.0091   29.7886 C   0  0  0  0  0  0  0  0  0  0  0  0
  -28.4645   18.1920   28.8937 C   0  0  0  0  0  0  0  0  0  0  0  0
  -29.5304   16.3834   29.7774 C   0  0  0  0  0  0  0  0  0  0  0  0
  -29.4164   14.0940   30.4896 N   0  0  0  0  0  0  0  0  0  0  0  0
  -28.6617   16.8740   28.8864 N   0  0  0  0  0  0  0  0  0  0  0  0
  -31.1840   16.7534   31.7212 C   0  0  0  0  0  0  0  0  0  0  0  0
  -28.8641   11.6644   31.6270 O   0  0  0  0  0  0  0  0  0  0  0  0
  -29.7134   11.7150   30.7643 C   0  0  0  0  0  0  0  0  0  0  0  0
  -32.2422    9.6530   28.7716 C   0  0  0  0  0  0  0  0  0  0  0  0
  -33.0264    9.7871   27.6325 C   0  0  0  0  0  0  0  0  0  0  0  0
  -33.8769    8.7859   27.2439 C   0  0  0  0  0  0  0  0  0  0  0  0
  -34.0044    7.6284   27.9784 C   0  0  0  0  0  0  0  0  0  0  0  0
  -33.2096    7.4773   29.0954 C   0  0  0  0  0  0  0  0  0  0  0  0
  -32.3331    8.4627   29.4798 C   0  0  0  0  0  0  0  0  0  0  0  0
  -35.0461    6.6090   27.5811 C   0  0  2  0  0  0  0  0  0  0  0  0
  -34.5292    5.5196   26.6616 C   0  0  0  0  0  0  0  0  0  0  0  0
  -35.5708    4.4275   26.4755 C   0  0  0  0  0  0  0  0  0  0  0  0
  -36.8618    4.9918   25.9358 C   0  0  0  0  0  0  0  0  0  0  0  0
  -37.3645    6.1344   26.7858 C   0  0  0  0  0  0  0  0  0  0  0  0
  -36.3019    7.2004   26.9783 C   0  0  0  0  0  0  0  0  0  0  0  0
  -31.5494   15.0799   27.6528 C   0  0  0  0  0  0  0  0  0  0  0  0
  -33.6262   16.4274   27.0818 C   0  0  0  0  0  0  0  0  0  0  0  0
  -34.4962   16.6799   28.3044 C   0  0  2  0  0  0  0  0  0  0  0  0
  -33.4215   15.9998   29.1756 C   0  0  0  0  0  0  0  0  0  0  0  0
  -35.8082   15.9630   28.3009 C   0  0  0  0  0  0  0  0  0  0  0  0
  -36.7283   16.7532   27.8607 F   0  0  0  0  0  0  0  0  0  0  0  0
  -32.7133   15.6656   27.9413 N   0  0  0  0  0  0  0  0  0  0  0  0
  -32.1751   12.0914   27.8641 H   0  0  0  0  0  0  0  0  0  0  0  0
  -30.3321    9.6277   30.7341 H   0  0  0  0  0  0  0  0  0  0  0  0
  -28.8806   20.0891   29.7587 H   0  0  0  0  0  0  0  0  0  0  0  0
  -27.7787   18.6332   28.1555 H   0  0  0  0  0  0  0  0  0  0  0  0
  -30.7973   16.9362   32.7346 H   0  0  0  0  0  0  0  0  0  0  0  0
  -32.1286   17.3003   31.5849 H   0  0  0  0  0  0  0  0  0  0  0  0
  -31.3609   15.6763   31.5849 H   0  0  0  0  0  0  0  0  0  0  0  0
  -32.9635   10.7087   27.0352 H   0  0  0  0  0  0  0  0  0  0  0  0
  -34.4703    8.9093   26.3260 H   0  0  0  0  0  0  0  0  0  0  0  0
  -33.2786    6.5530   29.6878 H   0  0  0  0  0  0  0  0  0  0  0  0
  -31.6942    8.3062   30.3614 H   0  0  0  0  0  0  0  0  0  0  0  0
  -35.3079    6.1562   28.5488 H   0  0  0  0  0  0  0  0  0  0  0  0
  -34.2889    5.9589   25.6822 H   0  0  0  0  0  0  0  0  0  0  0  0
  -33.6305    5.0749   27.1140 H   0  0  0  0  0  0  0  0  0  0  0  0
  -35.1834    3.6787   25.7690 H   0  0  0  0  0  0  0  0  0  0  0  0
  -35.7734    3.9686   27.4544 H   0  0  0  0  0  0  0  0  0  0  0  0
  -36.6922    5.3558   24.9117 H   0  0  0  0  0  0  0  0  0  0  0  0
  -37.6188    4.1939   25.9475 H   0  0  0  0  0  0  0  0  0  0  0  0
  -38.2383    6.5869   26.2942 H   0  0  0  0  0  0  0  0  0  0  0  0
  -37.6319    5.7342   27.7749 H   0  0  0  0  0  0  0  0  0  0  0  0
  -36.6913    7.9797   27.6499 H   0  0  0  0  0  0  0  0  0  0  0  0
  -36.0521    7.6287   25.9964 H   0  0  0  0  0  0  0  0  0  0  0  0
  -34.1108   15.8337   26.2927 H   0  0  0  0  0  0  0  0  0  0  0  0
  -33.2638   17.2574   26.4574 H   0  0  0  0  0  0  0  0  0  0  0  0
  -34.8610   17.6930   28.5289 H   0  0  0  0  0  0  0  0  0  0  0  0
  -32.8769   16.6813   29.8456 H   0  0  0  0  0  0  0  0  0  0  0  0
  -33.6829   15.2297   29.9163 H   0  0  0  0  0  0  0  0  0  0  0  0
  -35.7414   15.0790   27.6496 H   0  0  0  0  0  0  0  0  0  0  0  0
  -36.0558   15.6458   29.3247 H   0  0  0  0  0  0  0  0  0  0  0  0
  1  7  2  0
  1 11  1  0
  2  4  1  0
  2  9  2  0
  2 10  1  0
  3  4  1  0
  3  5  2  0
  3 19  1  0
  5 18  1  0
  6 31  2  0
  7 13  1  0
  7 16  1  0
  8  9  1  0
  8 13  1  0
  8 14  2  0
  9 31  1  0
 10 14  1  0
 10 18  1  0
 11 12  2  0
 12 15  1  0
 13 15  2  0
 17 18  2  0
 19 20  2  0
 19 24  1  0
 20 21  1  0
 21 22  2  0
 22 23  1  0
 25 22  1  0
 23 24  2  0
 25 26  1  0
 25 30  1  0
 26 27  1  0
 27 28  1  0
 28 29  1  0
 29 30  1  0
 31 37  1  0
 32 33  1  0
 32 37  1  0
 33 34  1  0
 33 35  1  0
 34 37  1  0
 35 36  1  0
  4 38  1  0
  5 39  1  0
 11 40  1  0
 12 41  1  0
 16 42  1  0
 16 43  1  0
 16 44  1  0
 20 45  1  0
 21 46  1  0
 23 47  1  0
 24 48  1  0
 25 49  1  1
 26 50  1  0
 26 51  1  0
 27 52  1  0
 27 53  1  0
 28 54  1  0
 28 55  1  0
 29 56  1  0
 29 57  1  0
 30 58  1  0
 30 59  1  0
 32 60  1  0
 32 61  1  0
 33 62  1  1
 34 63  1  0
 34 64  1  0
 35 65  1  0
 35 66  1  0
M  END
>  <filename_input>  (25) 
7TYP_KUR_docked.sdf

>  <pdb_id>  (25) 
7TYP_KUR

>  <pose_rank>  (25) 
24

>  <num_atoms_heavy>  (25) 
37

>  <num_torsions>  (25) 
5

>  <pose>  (25) 
[-30.85096011011087, 13.080334819418933, 29.101271775662468, 3.5404299706620947, -1.6164882295202074, 1.2661414657980035, 3.90768674951369, 0.945987026767721, -4.692070899900688, 0.599458741066642, -2.887291476425441]

>  <energy>  (25) 
-23.557886866406918

>  <inter_energy>  (25) 
-20.309317673784538

>  <intra_energy>  (25) 
6.008173031478988

>  <rmsd>  (25) 
11.8122

>  <sdf_rank>  (25) 
0

$$$$

     RDKit          3D

 66 71  0  0  0  0  0  0  0  0999 V2000
  -35.7580    4.4520   26.7920 N   0  0  0  0  0  0  0  0  0  0  0  0
  -33.6880    7.8600   22.4540 C   0  0  0  0  0  0  0  0  0  0  0  0
  -32.1530    8.6450   20.8020 C   0  0  0  0  0  0  0  0  0  0  0  0
  -33.2820    8.8130   21.5800 N   0  0  0  0  0  0  0  0  0  0  0  0
  -31.3930    7.5170   20.9700 C   0  0  0  0  0  0  0  0  0  0  0  0
  -36.2400    8.8080   24.7010 O   0  0  0  0  0  0  0  0  0  0  0  0
  -34.9550    5.2150   26.0470 C   0  0  0  0  0  0  0  0  0  0  0  0
  -34.5640    6.4580   23.9170 C   0  0  0  0  0  0  0  0  0  0  0  0
  -34.7440    7.7420   23.3260 C   0  0  0  0  0  0  0  0  0  0  0  0
  -32.9630    6.7230   22.5490 N   0  0  0  0  0  0  0  0  0  0  0  0
  -36.9980    4.2330   26.3530 C   0  0  0  0  0  0  0  0  0  0  0  0
  -37.4560    4.7690   25.1870 C   0  0  0  0  0  0  0  0  0  0  0  0
  -35.4400    5.7690   24.8350 C   0  0  0  0  0  0  0  0  0  0  0  0
  -33.4860    5.8620   23.4440 N   0  0  0  0  0  0  0  0  0  0  0  0
  -36.6950    5.5540   24.4250 N   0  0  0  0  0  0  0  0  0  0  0  0
  -33.5580    5.3920   26.5570 C   0  0  0  0  0  0  0  0  0  0  0  0
  -31.1140    5.4940   22.1250 O   0  0  0  0  0  0  0  0  0  0  0  0
  -31.7530    6.4960   21.8890 C   0  0  0  0  0  0  0  0  0  0  0  0
  -31.8450    9.7020   19.8080 C   0  0  0  0  0  0  0  0  0  0  0  0
  -32.8360   10.5210   19.2810 C   0  0  0  0  0  0  0  0  0  0  0  0
  -32.5450   11.4340   18.3020 C   0  0  0  0  0  0  0  0  0  0  0  0
  -31.2730   11.5540   17.7890 C   0  0  0  0  0  0  0  0  0  0  0  0
  -30.2790   10.7630   18.3260 C   0  0  0  0  0  0  0  0  0  0  0  0
  -30.5530    9.8630   19.3270 C   0  0  0  0  0  0  0  0  0  0  0  0
  -31.0280   12.4840   16.6240 C   0  0  2  0  0  0  0  0  0  0  0  0
  -30.9220   11.7840   15.2830 C   0  0  0  0  0  0  0  0  0  0  0  0
  -30.8840   12.7930   14.1460 C   0  0  0  0  0  0  0  0  0  0  0  0
  -29.7410   13.7630   14.3160 C   0  0  0  0  0  0  0  0  0  0  0  0
  -29.7710   14.4210   15.6750 C   0  0  0  0  0  0  0  0  0  0  0  0
  -29.8330   13.3970   16.7930 C   0  0  0  0  0  0  0  0  0  0  0  0
  -35.8390    8.6930   23.5780 C   0  0  0  0  0  0  0  0  0  0  0  0
  -37.4610   10.3390   22.5220 C   0  0  0  0  0  0  0  0  0  0  0  0
  -37.2910   10.4180   21.0120 C   0  0  2  0  0  0  0  0  0  0  0  0
  -36.2460    9.2880   21.0980 C   0  0  0  0  0  0  0  0  0  0  0  0
  -36.7360   11.7120   20.5090 C   0  0  0  0  0  0  0  0  0  0  0  0
  -36.4870   11.6110   19.2470 F   0  0  0  0  0  0  0  0  0  0  0  0
  -36.3580    9.3720   22.5530 N   0  0  0  0  0  0  0  0  0  0  0  0
  -33.8277    9.6823   21.4939 H   0  0  0  0  0  0  0  0  0  0  0  0
  -30.4757    7.3988   20.3745 H   0  0  0  0  0  0  0  0  0  0  0  0
  -37.6714    3.6006   26.9502 H   0  0  0  0  0  0  0  0  0  0  0  0
  -38.4842    4.5472   24.8652 H   0  0  0  0  0  0  0  0  0  0  0  0
  -33.5663    5.3909   27.6570 H   0  0  0  0  0  0  0  0  0  0  0  0
  -32.9279    4.5665   26.1943 H   0  0  0  0  0  0  0  0  0  0  0  0
  -33.1537    6.3485   26.1943 H   0  0  0  0  0  0  0  0  0  0  0  0
  -33.8671   10.4352   19.6545 H   0  0  0  0  0  0  0  0  0  0  0  0
  -33.3443   12.0848   17.9178 H   0  0  0  0  0  0  0  0  0  0  0  0
  -29.2505   10.8542   17.9467 H   0  0  0  0  0  0  0  0  0  0  0  0
  -29.7368    9.2613   19.7534 H   0  0  0  0  0  0  0  0  0  0  0  0
  -31.9378   13.1023   16.6259 H   0  0  0  0  0  0  0  0  0  0  0  0
  -30.0009   11.1831   15.2622 H   0  0  0  0  0  0  0  0  0  0  0  0
  -31.8040   11.1398   15.1520 H   0  0  0  0  0  0  0  0  0  0  0  0
  -30.7606   12.2563   13.1938 H   0  0  0  0  0  0  0  0  0  0  0  0
  -31.8264   13.3603   14.1518 H   0  0  0  0  0  0  0  0  0  0  0  0
  -28.7913   13.2197   14.2028 H   0  0  0  0  0  0  0  0  0  0  0  0
  -29.8371   14.5472   13.5506 H   0  0  0  0  0  0  0  0  0  0  0  0
  -28.8618   15.0279   15.7974 H   0  0  0  0  0  0  0  0  0  0  0  0
  -30.6736   15.0471   15.7330 H   0  0  0  0  0  0  0  0  0  0  0  0
  -29.9135   13.9208   17.7569 H   0  0  0  0  0  0  0  0  0  0  0  0
  -28.9180   12.7873   16.7620 H   0  0  0  0  0  0  0  0  0  0  0  0
  -37.2566   11.2803   23.0533 H   0  0  0  0  0  0  0  0  0  0  0  0
  -38.4361   10.1080   22.9758 H   0  0  0  0  0  0  0  0  0  0  0  0
  -38.1650   10.3429   20.3484 H   0  0  0  0  0  0  0  0  0  0  0  0
  -36.5722    8.3293   20.6685 H   0  0  0  0  0  0  0  0  0  0  0  0
  -35.2733    9.3630   20.5898 H   0  0  0  0  0  0  0  0  0  0  0  0
  -37.4694   12.5149   20.6751 H   0  0  0  0  0  0  0  0  0  0  0  0
  -35.8068   11.9472   21.0487 H   0  0  0  0  0  0  0  0  0  0  0  0
  1  7  2  0
  1 11  1  0
  2  4  1  0
  2  9  2  0
  2 10  1  0
  3  4  1  0
  3  5  2  0
  3 19  1  0
  5 18  1  0
  6 31  2  0
  7 13  1  0
  7 16  1  0
  8  9  1  0
  8 13  1  0
  8 14  2  0
  9 31  1  0
 10 14  1  0
 10 18  1  0
 11 12  2  0
 12 15  1  0
 13 15  2  0
 17 18  2  0
 19 20  2  0
 19 24  1  0
 20 21  1  0
 21 22  2  0
 22 23  1  0
 25 22  1  0
 23 24  2  0
 25 26  1  0
 25 30  1  0
 26 27  1  0
 27 28  1  0
 28 29  1  0
 29 30  1  0
 31 37  1  0
 32 33  1  0
 32 37  1  0
 33 34  1  0
 33 35  1  0
 34 37  1  0
 35 36  1  0
  4 38  1  0
  5 39  1  0
 11 40  1  0
 12 41  1  0
 16 42  1  0
 16 43  1  0
 16 44  1  0
 20 45  1  0
 21 46  1  0
 23 47  1  0
 24 48  1  0
 25 49  1  6
 26 50  1  0
 26 51  1  0
 27 52  1  0
 27 53  1  0
 28 54  1  0
 28 55  1  0
 29 56  1  0
 29 57  1  0
 30 58  1  0
 30 59  1  0
 32 60  1  0
 32 61  1  0
 33 62  1  6
 34 63  1  0
 34 64  1  0
 35 65  1  0
 35 66  1  0
M  END
>  <filename_input>  (26) 
7TYP_KUR_docked.sdf

>  <pdb_id>  (26) 
7TYP_KUR

>  <pose_rank>  (26) 
25

>  <num_atoms_heavy>  (26) 
37

>  <num_torsions>  (26) 
5

>  <pose>  (26) 
[-33.688, 7.86, 22.454, 1e-06, 1e-06, 1e-06, 0.0, 0.0, 0.0, 0.0, 0.0]

>  <energy>  (26) 
-992.7058966811865

>  <inter_energy>  (26) 
-1046.8674908346225

>  <intra_energy>  (26) 
46.01273173488877

>  <rmsd>  (26) 
0.0

>  <sdf_rank>  (26) 
0

$$$$
