
     RDKit          3D

126129  0  0  0  0  0  0  0  0999 V2000
  -34.2731  -14.6938  -25.5902 C   0  0  0  0  0  0  0  0  0  0  0  0
  -35.1092  -14.4392  -26.8104 C   0  0  2  0  0  0  0  0  0  0  0  0
  -35.4898  -15.7797  -27.4505 C   0  0  0  0  0  0  0  0  0  0  0  0
  -34.2860  -16.4703  -28.1037 C   0  0  0  0  0  0  0  0  0  0  0  0
  -33.5882  -15.5485  -29.1102 C   0  0  0  0  0  0  0  0  0  0  0  0
  -33.1785  -14.2275  -28.4444 C   0  0  0  0  0  0  0  0  0  0  0  0
  -34.7594  -12.3899  -28.0436 C   0  0  0  0  0  0  0  0  0  0  0  0
  -34.1429  -11.5565  -28.9663 C   0  0  0  0  0  0  0  0  0  0  0  0
  -33.0359  -10.5927  -28.5574 C   0  0  1  0  0  0  0  0  0  0  0  0
  -33.2316  -10.0682  -27.1306 C   0  0  1  0  0  0  0  0  0  0  0  0
  -31.9286   -9.4603  -26.5998 C   0  0  0  0  0  0  0  0  0  0  0  0
  -30.7403  -10.3942  -26.8689 C   0  0  1  0  0  0  0  0  0  0  0  0
  -30.6587  -10.6910  -28.3644 C   0  0  1  0  0  0  0  0  0  0  0  0
  -29.5197  -11.6359  -28.7843 C   0  0  2  0  0  0  0  0  0  0  0  0
  -29.4025  -12.8604  -27.8811 C   0  0  0  0  0  0  0  0  0  0  0  0
  -28.4312  -13.9422  -28.3783 C   0  0  2  0  0  0  0  0  0  0  0  0
  -26.9957  -13.5985  -27.9549 C   0  0  0  0  0  0  0  0  0  0  0  0
  -26.7718  -13.9809  -26.5159 C   0  0  0  0  0  0  0  0  0  0  0  0
  -26.8601  -12.9443  -25.4824 C   0  0  0  0  0  0  0  0  0  0  0  0
  -26.6835  -13.2740  -24.0251 C   0  0  2  0  0  0  0  0  0  0  0  0
  -28.0421  -13.5326  -23.4520 C   0  0  0  0  0  0  0  0  0  0  0  0
  -28.6569  -14.9222  -23.4385 C   0  0  0  0  0  0  0  0  0  0  0  0
  -30.1635  -14.9010  -23.1688 C   0  0  1  0  0  0  0  0  0  0  0  0
  -31.0053  -14.6277  -24.4277 C   0  0  2  0  0  0  0  0  0  0  0  0
  -32.5071  -14.4795  -24.1652 C   0  0  1  0  0  0  0  0  0  0  0  0
  -32.7378  -13.3486  -23.1911 C   0  0  0  0  0  0  0  0  0  0  0  0
  -33.4429  -13.6329  -21.9499 C   0  0  0  0  0  0  0  0  0  0  0  0
  -33.6558  -12.6089  -20.8736 C   0  0  1  0  0  0  0  0  0  0  0  0
  -35.1273  -12.6714  -20.4662 C   0  0  0  0  0  0  0  0  0  0  0  0
  -35.4136  -11.6900  -19.3360 C   0  0  2  0  0  0  0  0  0  0  0  0
  -34.5364  -12.0070  -18.1228 C   0  0  1  0  0  0  0  0  0  0  0  0
  -33.0555  -11.9897  -18.4970 C   0  0  0  0  0  0  0  0  0  0  0  0
  -32.7521  -12.9392  -19.6713 C   0  0  0  0  0  0  0  0  0  0  0  0
  -34.3833   -9.0589  -27.0224 C   0  0  0  0  0  0  0  0  0  0  0  0
  -28.5146  -14.1228  -29.9011 C   0  0  0  0  0  0  0  0  0  0  0  0
  -26.4416  -15.4059  -26.1682 C   0  0  0  0  0  0  0  0  0  0  0  0
  -26.0882  -12.0461  -23.3409 C   0  0  0  0  0  0  0  0  0  0  0  0
  -25.0256  -12.4892  -22.3538 C   0  0  0  0  0  0  0  0  0  0  0  0
  -23.6511  -12.6380  -22.8238 C   0  0  0  0  0  0  0  0  0  0  0  0
  -30.8074  -15.7111  -25.4924 C   0  0  0  0  0  0  0  0  0  0  0  0
  -32.2198  -11.9674  -23.5196 C   0  0  0  0  0  0  0  0  0  0  0  0
  -29.7216   -8.3946  -26.2175 C   0  0  0  0  0  0  0  0  0  0  0  0
  -28.1954  -10.1298  -29.9962 C   0  0  0  0  0  0  0  0  0  0  0  0
  -37.2191  -13.1264  -18.7853 C   0  0  0  0  0  0  0  0  0  0  0  0
  -34.3439  -13.6368  -27.7730 N   0  0  0  0  0  0  0  0  0  0  0  0
  -33.1245  -14.1701  -25.4126 O   0  0  0  0  0  0  0  0  0  0  0  0
  -34.8288  -15.5197  -24.6423 O   0  0  0  0  0  0  0  0  0  0  0  0
  -35.8567  -11.8923  -27.3725 O   0  0  0  0  0  0  0  0  0  0  0  0
  -34.5202  -11.5988  -30.3041 O   0  0  0  0  0  0  0  0  0  0  0  0
  -31.8582  -11.3524  -28.7028 O   0  0  0  0  0  0  0  0  0  0  0  0
  -33.0104   -9.4823  -29.4764 O   0  0  0  0  0  0  0  0  0  0  0  0
  -29.5419   -9.7877  -26.4053 O   0  0  0  0  0  0  0  0  0  0  0  0
  -28.2875  -10.9575  -28.8519 O   0  0  0  0  0  0  0  0  0  0  0  0
  -28.7353  -12.4358  -22.9558 O   0  0  0  0  0  0  0  0  0  0  0  0
  -30.5068  -16.1631  -22.6414 O   0  0  0  0  0  0  0  0  0  0  0  0
  -36.7635  -11.7912  -18.9493 O   0  0  0  0  0  0  0  0  0  0  0  0
  -34.7908  -11.0411  -17.1161 O   0  0  0  0  0  0  0  0  0  0  0  0
  -36.0205  -13.8933  -26.5248 H   0  0  0  0  0  0  0  0  0  0  0  0
  -35.8986  -16.4409  -26.6723 H   0  0  0  0  0  0  0  0  0  0  0  0
  -36.2332  -15.5805  -28.2365 H   0  0  0  0  0  0  0  0  0  0  0  0
  -33.5676  -16.7532  -27.3202 H   0  0  0  0  0  0  0  0  0  0  0  0
  -34.6478  -17.3587  -28.6421 H   0  0  0  0  0  0  0  0  0  0  0  0
  -32.6898  -16.0513  -29.4975 H   0  0  0  0  0  0  0  0  0  0  0  0
  -34.2868  -15.3285  -29.9310 H   0  0  0  0  0  0  0  0  0  0  0  0
  -32.3873  -14.4194  -27.7048 H   0  0  0  0  0  0  0  0  0  0  0  0
  -32.8037  -13.5315  -29.2093 H   0  0  0  0  0  0  0  0  0  0  0  0
  -33.5076  -10.9315  -26.5072 H   0  0  0  0  0  0  0  0  0  0  0  0
  -31.7504   -8.4970  -27.1001 H   0  0  0  0  0  0  0  0  0  0  0  0
  -32.0243   -9.3165  -25.5135 H   0  0  0  0  0  0  0  0  0  0  0  0
  -30.8789  -11.3429  -26.3296 H   0  0  0  0  0  0  0  0  0  0  0  0
  -30.4822   -9.7298  -28.8692 H   0  0  0  0  0  0  0  0  0  0  0  0
  -29.7799  -11.9973  -29.7901 H   0  0  0  0  0  0  0  0  0  0  0  0
  -29.0605  -12.5233  -26.8914 H   0  0  0  0  0  0  0  0  0  0  0  0
  -30.3989  -13.3261  -27.8629 H   0  0  0  0  0  0  0  0  0  0  0  0
  -28.7237  -14.8966  -27.9162 H   0  0  0  0  0  0  0  0  0  0  0  0
  -26.2876  -14.1492  -28.5915 H   0  0  0  0  0  0  0  0  0  0  0  0
  -26.8382  -12.5156  -28.0669 H   0  0  0  0  0  0  0  0  0  0  0  0
  -27.0597  -11.9040  -25.7788 H   0  0  0  0  0  0  0  0  0  0  0  0
  -26.0310  -14.1482  -23.8837 H   0  0  0  0  0  0  0  0  0  0  0  0
  -28.4814  -15.3937  -24.4167 H   0  0  0  0  0  0  0  0  0  0  0  0
  -28.1820  -15.4868  -22.6226 H   0  0  0  0  0  0  0  0  0  0  0  0
  -30.3815  -14.0789  -22.4712 H   0  0  0  0  0  0  0  0  0  0  0  0
  -30.6312  -13.6587  -24.7897 H   0  0  0  0  0  0  0  0  0  0  0  0
  -32.9265  -15.4028  -23.7388 H   0  0  0  0  0  0  0  0  0  0  0  0
  -33.8387  -14.6472  -21.7932 H   0  0  0  0  0  0  0  0  0  0  0  0
  -33.4035  -11.5990  -21.2291 H   0  0  0  0  0  0  0  0  0  0  0  0
  -35.7537  -12.4164  -21.3337 H   0  0  0  0  0  0  0  0  0  0  0  0
  -35.3557  -13.6895  -20.1178 H   0  0  0  0  0  0  0  0  0  0  0  0
  -35.1958  -10.6733  -19.6949 H   0  0  0  0  0  0  0  0  0  0  0  0
  -34.7793  -13.0150  -17.7554 H   0  0  0  0  0  0  0  0  0  0  0  0
  -32.7726  -10.9663  -18.7841 H   0  0  0  0  0  0  0  0  0  0  0  0
  -32.4779  -12.3290  -17.6244 H   0  0  0  0  0  0  0  0  0  0  0  0
  -32.9340  -13.9770  -19.3551 H   0  0  0  0  0  0  0  0  0  0  0  0
  -31.7006  -12.8147  -19.9694 H   0  0  0  0  0  0  0  0  0  0  0  0
  -34.6033   -8.8660  -25.9620 H   0  0  0  0  0  0  0  0  0  0  0  0
  -34.0938   -8.1183  -27.5138 H   0  0  0  0  0  0  0  0  0  0  0  0
  -35.2778   -9.4691  -27.5138 H   0  0  0  0  0  0  0  0  0  0  0  0
  -28.9659  -15.0994  -30.1303 H   0  0  0  0  0  0  0  0  0  0  0  0
  -29.1342  -13.3224  -30.3318 H   0  0  0  0  0  0  0  0  0  0  0  0
  -27.5036  -14.0758  -30.3318 H   0  0  0  0  0  0  0  0  0  0  0  0
  -26.4152  -15.5198  -25.0745 H   0  0  0  0  0  0  0  0  0  0  0  0
  -27.2089  -16.0730  -26.5879 H   0  0  0  0  0  0  0  0  0  0  0  0
  -25.4590  -15.6674  -26.5879 H   0  0  0  0  0  0  0  0  0  0  0  0
  -25.6359  -11.3872  -24.0968 H   0  0  0  0  0  0  0  0  0  0  0  0
  -26.8809  -11.4997  -22.8089 H   0  0  0  0  0  0  0  0  0  0  0  0
  -25.2850  -12.6943  -21.3047 H   0  0  0  0  0  0  0  0  0  0  0  0
  -22.8629  -12.9582  -22.1265 H   0  0  0  0  0  0  0  0  0  0  0  0
  -23.4038  -12.4300  -23.8753 H   0  0  0  0  0  0  0  0  0  0  0  0
  -30.6306  -16.6795  -25.0016 H   0  0  0  0  0  0  0  0  0  0  0  0
  -31.7084  -15.7772  -26.1200 H   0  0  0  0  0  0  0  0  0  0  0  0
  -29.9413  -15.4545  -26.1200 H   0  0  0  0  0  0  0  0  0  0  0  0
  -32.0150  -11.4212  -22.5870 H   0  0  0  0  0  0  0  0  0  0  0  0
  -31.2928  -12.0532  -24.1054 H   0  0  0  0  0  0  0  0  0  0  0  0
  -32.9746  -11.4224  -24.1054 H   0  0  0  0  0  0  0  0  0  0  0  0
  -29.7505   -8.1705  -25.1409 H   0  0  0  0  0  0  0  0  0  0  0  0
  -28.8861   -7.8511  -26.6828 H   0  0  0  0  0  0  0  0  0  0  0  0
  -30.6676   -8.0809  -26.6828 H   0  0  0  0  0  0  0  0  0  0  0  0
  -28.0789   -9.0820  -29.6824 H   0  0  0  0  0  0  0  0  0  0  0  0
  -27.3253  -10.4314  -30.5978 H   0  0  0  0  0  0  0  0  0  0  0  0
  -29.1106  -10.2328  -30.5978 H   0  0  0  0  0  0  0  0  0  0  0  0
  -37.2981  -13.3578  -17.7128 H   0  0  0  0  0  0  0  0  0  0  0  0
  -38.2061  -13.2377  -19.2581 H   0  0  0  0  0  0  0  0  0  0  0  0
  -36.5061  -13.8178  -19.2581 H   0  0  0  0  0  0  0  0  0  0  0  0
  -32.9908   -8.6332  -28.9676 H   0  0  0  0  0  0  0  0  0  0  0  0
  -30.4956  -16.1216  -21.6523 H   0  0  0  0  0  0  0  0  0  0  0  0
  -34.6813  -11.4571  -16.2244 H   0  0  0  0  0  0  0  0  0  0  0  0
  1  2  1  0
  1 46  1  0
  1 47  2  0
  2  3  1  0
  2 45  1  0
  3  4  1  0
  4  5  1  0
  5  6  1  0
  6 45  1  0
  7  8  1  0
  7 45  1  0
  7 48  2  0
  8  9  1  0
  8 49  2  0
  9 10  1  0
  9 50  1  0
  9 51  1  6
 10 11  1  0
 10 34  1  0
 11 12  1  0
 12 13  1  0
 12 52  1  0
 13 14  1  0
 13 50  1  0
 14 15  1  0
 14 53  1  0
 15 16  1  0
 16 17  1  0
 16 35  1  0
 17 18  1  0
 18 19  2  3
 18 36  1  0
 19 20  1  0
 20 21  1  0
 20 37  1  0
 21 22  1  0
 21 54  2  0
 22 23  1  0
 23 24  1  0
 23 55  1  0
 24 25  1  0
 24 40  1  0
 25 26  1  0
 25 46  1  0
 26 27  2  3
 26 41  1  0
 28 27  1  0
 28 29  1  0
 28 33  1  0
 29 30  1  0
 30 31  1  0
 30 56  1  0
 31 32  1  0
 31 57  1  0
 32 33  1  0
 37 38  1  0
 38 39  2  0
 42 52  1  0
 43 53  1  0
 44 56  1  0
  2 58  1  1
  3 59  1  0
  3 60  1  0
  4 61  1  0
  4 62  1  0
  5 63  1  0
  5 64  1  0
  6 65  1  0
  6 66  1  0
 10 67  1  1
 11 68  1  0
 11 69  1  0
 12 70  1  1
 13 71  1  6
 14 72  1  6
 15 73  1  0
 15 74  1  0
 16 75  1  1
 17 76  1  0
 17 77  1  0
 19 78  1  0
 20 79  1  6
 22 80  1  0
 22 81  1  0
 23 82  1  1
 24 83  1  6
 25 84  1  1
 27 85  1  0
 28 86  1  6
 29 87  1  0
 29 88  1  0
 30 89  1  6
 31 90  1  1
 32 91  1  0
 32 92  1  0
 33 93  1  0
 33 94  1  0
 34 95  1  0
 34 96  1  0
 34 97  1  0
 35 98  1  0
 35 99  1  0
 35100  1  0
 36101  1  0
 36102  1  0
 36103  1  0
 37104  1  0
 37105  1  0
 38106  1  0
 39107  1  0
 39108  1  0
 40109  1  0
 40110  1  0
 40111  1  0
 41112  1  0
 41113  1  0
 41114  1  0
 42115  1  0
 42116  1  0
 42117  1  0
 43118  1  0
 43119  1  0
 43120  1  0
 44121  1  0
 44122  1  0
 44123  1  0
 51124  1  0
 55125  1  0
 57126  1  0
M  END
>  <filename_input>  (1) 
7U0U_FK5_docked.sdf

>  <pdb_id>  (1) 
7U0U_FK5

>  <pose_rank>  (1) 
0

>  <num_atoms_heavy>  (1) 
57

>  <num_torsions>  (1) 
7

>  <pose>  (1) 
[-34.27307322718617, -14.6938475927366, -25.59018103068528, -0.14194281596337588, -2.759001208247352, -5.526465780108839, -0.17155469516422892, -0.24965881863718428, 2.1618152973241282, -1.7890056556141682, -6.1353835117226785, -1.4155377008116345, -2.807435651240649]

>  <energy>  (1) 
-1116.937621214748

>  <inter_energy>  (1) 
-1109.2679086126984

>  <intra_energy>  (1) 
1.4671242059570166

>  <rmsd>  (1) 
0.660938

>  <sdf_rank>  (1) 
0

$$$$

     RDKit          3D

126129  0  0  0  0  0  0  0  0999 V2000
  -27.6003  -13.5548  -24.6466 C   0  0  0  0  0  0  0  0  0  0  0  0
  -27.1743  -14.9940  -24.6580 C   0  0  2  0  0  0  0  0  0  0  0  0
  -25.9621  -15.1546  -25.5834 C   0  0  0  0  0  0  0  0  0  0  0  0
  -26.3373  -14.9862  -27.0611 C   0  0  0  0  0  0  0  0  0  0  0  0
  -27.4757  -15.9310  -27.4623 C   0  0  0  0  0  0  0  0  0  0  0  0
  -28.6952  -15.7303  -26.5519 C   0  0  0  0  0  0  0  0  0  0  0  0
  -28.8508  -16.6979  -24.2990 C   0  0  0  0  0  0  0  0  0  0  0  0
  -29.8697  -17.5682  -24.6600 C   0  0  0  0  0  0  0  0  0  0  0  0
  -31.3370  -17.1844  -24.5144 C   0  0  1  0  0  0  0  0  0  0  0  0
  -31.5705  -16.2597  -23.3146 C   0  0  1  0  0  0  0  0  0  0  0  0
  -32.9298  -15.5617  -23.4326 C   0  0  0  0  0  0  0  0  0  0  0  0
  -33.1257  -14.9811  -24.8402 C   0  0  1  0  0  0  0  0  0  0  0  0
  -32.9694  -16.0947  -25.8730 C   0  0  1  0  0  0  0  0  0  0  0  0
  -33.1217  -15.6553  -27.3394 C   0  0  2  0  0  0  0  0  0  0  0  0
  -32.3540  -14.3750  -27.6568 C   0  0  0  0  0  0  0  0  0  0  0  0
  -32.2903  -14.0103  -29.1481 C   0  0  2  0  0  0  0  0  0  0  0  0
  -33.5591  -13.2504  -29.5610 C   0  0  0  0  0  0  0  0  0  0  0  0
  -33.4591  -11.8063  -29.1468 C   0  0  0  0  0  0  0  0  0  0  0  0
  -34.1254  -11.3717  -27.9150 C   0  0  0  0  0  0  0  0  0  0  0  0
  -34.0284   -9.9503  -27.4314 C   0  0  2  0  0  0  0  0  0  0  0  0
  -32.8787   -9.8752  -26.4755 C   0  0  0  0  0  0  0  0  0  0  0  0
  -31.4679   -9.5539  -26.9397 C   0  0  0  0  0  0  0  0  0  0  0  0
  -30.4064   -9.8983  -25.8919 C   0  0  1  0  0  0  0  0  0  0  0  0
  -29.9893  -11.3795  -25.9096 C   0  0  2  0  0  0  0  0  0  0  0  0
  -29.0200  -11.7776  -24.7922 C   0  0  1  0  0  0  0  0  0  0  0  0
  -29.6502  -11.4829  -23.4516 C   0  0  0  0  0  0  0  0  0  0  0  0
  -30.9509  -12.0632  -23.1522 C   0  0  0  0  0  0  0  0  0  0  0  0
  -31.6335  -11.9075  -21.8247 C   0  0  1  0  0  0  0  0  0  0  0  0
  -33.0399  -12.4892  -21.9614 C   0  0  0  0  0  0  0  0  0  0  0  0
  -33.7838  -12.4130  -20.6336 C   0  0  2  0  0  0  0  0  0  0  0  0
  -33.0194  -13.1799  -19.5522 C   0  0  1  0  0  0  0  0  0  0  0  0
  -31.5935  -12.6512  -19.4087 C   0  0  0  0  0  0  0  0  0  0  0  0
  -30.8385  -12.6734  -20.7511 C   0  0  0  0  0  0  0  0  0  0  0  0
  -31.4528  -16.9914  -21.9701 C   0  0  0  0  0  0  0  0  0  0  0  0
  -32.0970  -15.2537  -30.0284 C   0  0  0  0  0  0  0  0  0  0  0  0
  -32.7010  -10.8364  -30.0101 C   0  0  0  0  0  0  0  0  0  0  0  0
  -35.3156   -9.6286  -26.6766 C   0  0  0  0  0  0  0  0  0  0  0  0
  -36.4285   -9.3683  -27.6735 C   0  0  0  0  0  0  0  0  0  0  0  0
  -37.1881  -10.5043  -28.1879 C   0  0  0  0  0  0  0  0  0  0  0  0
  -29.3685  -11.7812  -27.2510 C   0  0  0  0  0  0  0  0  0  0  0  0
  -28.9124  -10.6155  -22.4582 C   0  0  0  0  0  0  0  0  0  0  0  0
  -35.1558  -14.5956  -23.7490 C   0  0  0  0  0  0  0  0  0  0  0  0
  -35.0899  -16.7616  -27.9658 C   0  0  0  0  0  0  0  0  0  0  0  0
  -35.1072  -14.3738  -20.4585 C   0  0  0  0  0  0  0  0  0  0  0  0
  -28.2778  -15.8302  -25.1471 N   0  0  0  0  0  0  0  0  0  0  0  0
  -28.7887  -13.1792  -24.9145 O   0  0  0  0  0  0  0  0  0  0  0  0
  -26.6302  -12.6435  -24.3033 O   0  0  0  0  0  0  0  0  0  0  0  0
  -28.4170  -16.7364  -22.9903 O   0  0  0  0  0  0  0  0  0  0  0  0
  -29.5638  -18.8196  -25.1840 O   0  0  0  0  0  0  0  0  0  0  0  0
  -31.6476  -16.5713  -25.7444 O   0  0  0  0  0  0  0  0  0  0  0  0
  -32.1269  -18.3802  -24.3582 O   0  0  0  0  0  0  0  0  0  0  0  0
  -34.4090  -14.3782  -24.9336 O   0  0  0  0  0  0  0  0  0  0  0  0
  -34.4767  -15.5150  -27.6960 O   0  0  0  0  0  0  0  0  0  0  0  0
  -33.1518  -10.1427  -25.1400 O   0  0  0  0  0  0  0  0  0  0  0  0
  -29.2814   -9.0923  -26.1626 O   0  0  0  0  0  0  0  0  0  0  0  0
  -35.0611  -12.9889  -20.7706 O   0  0  0  0  0  0  0  0  0  0  0  0
  -33.7121  -13.0390  -18.3227 O   0  0  0  0  0  0  0  0  0  0  0  0
  -26.9055  -15.3064  -23.6381 H   0  0  0  0  0  0  0  0  0  0  0  0
  -25.2114  -14.3952  -25.3194 H   0  0  0  0  0  0  0  0  0  0  0  0
  -25.5659  -16.1718  -25.4487 H   0  0  0  0  0  0  0  0  0  0  0  0
  -26.6572  -13.9478  -27.2327 H   0  0  0  0  0  0  0  0  0  0  0  0
  -25.4550  -15.2297  -27.6713 H   0  0  0  0  0  0  0  0  0  0  0  0
  -27.7650  -15.7258  -28.5036 H   0  0  0  0  0  0  0  0  0  0  0  0
  -27.1258  -16.9689  -27.3603 H   0  0  0  0  0  0  0  0  0  0  0  0
  -29.1306  -14.7370  -26.7356 H   0  0  0  0  0  0  0  0  0  0  0  0
  -29.4460  -16.5047  -26.7678 H   0  0  0  0  0  0  0  0  0  0  0  0
  -30.7728  -15.5026  -23.3338 H   0  0  0  0  0  0  0  0  0  0  0  0
  -33.7281  -16.2906  -23.2292 H   0  0  0  0  0  0  0  0  0  0  0  0
  -32.9672  -14.7385  -22.7040 H   0  0  0  0  0  0  0  0  0  0  0  0
  -32.3662  -14.2102  -25.0372 H   0  0  0  0  0  0  0  0  0  0  0  0
  -33.7650  -16.8273  -25.6722 H   0  0  0  0  0  0  0  0  0  0  0  0
  -32.6780  -16.4592  -27.9451 H   0  0  0  0  0  0  0  0  0  0  0  0
  -32.8390  -13.5448  -27.1227 H   0  0  0  0  0  0  0  0  0  0  0  0
  -31.3160  -14.5514  -27.3384 H   0  0  0  0  0  0  0  0  0  0  0  0
  -31.4163  -13.3597  -29.2993 H   0  0  0  0  0  0  0  0  0  0  0  0
  -33.6777  -13.3078  -30.6530 H   0  0  0  0  0  0  0  0  0  0  0  0
  -34.4280  -13.7066  -29.0641 H   0  0  0  0  0  0  0  0  0  0  0  0
  -34.7083  -12.1001  -27.3323 H   0  0  0  0  0  0  0  0  0  0  0  0
  -33.8847   -9.2476  -28.2654 H   0  0  0  0  0  0  0  0  0  0  0  0
  -31.2591  -10.1289  -27.8539 H   0  0  0  0  0  0  0  0  0  0  0  0
  -31.4169   -8.4698  -27.1192 H   0  0  0  0  0  0  0  0  0  0  0  0
  -30.8285   -9.7118  -24.8934 H   0  0  0  0  0  0  0  0  0  0  0  0
  -30.9324  -11.9210  -25.7438 H   0  0  0  0  0  0  0  0  0  0  0  0
  -28.0769  -11.2167  -24.8692 H   0  0  0  0  0  0  0  0  0  0  0  0
  -31.4582  -12.6439  -23.9367 H   0  0  0  0  0  0  0  0  0  0  0  0
  -31.6880  -10.8500  -21.5266 H   0  0  0  0  0  0  0  0  0  0  0  0
  -33.5951  -11.9181  -22.7201 H   0  0  0  0  0  0  0  0  0  0  0  0
  -32.9594  -13.5442  -22.2625 H   0  0  0  0  0  0  0  0  0  0  0  0
  -33.8723  -11.3552  -20.3449 H   0  0  0  0  0  0  0  0  0  0  0  0
  -32.9583  -14.2407  -19.8370 H   0  0  0  0  0  0  0  0  0  0  0  0
  -31.6330  -11.6159  -19.0392 H   0  0  0  0  0  0  0  0  0  0  0  0
  -31.0564  -13.3021  -18.7031 H   0  0  0  0  0  0  0  0  0  0  0  0
  -30.7038  -13.7161  -21.0744 H   0  0  0  0  0  0  0  0  0  0  0  0
  -29.8592  -12.1901  -20.6186 H   0  0  0  0  0  0  0  0  0  0  0  0
  -31.5689  -16.2695  -21.1483 H   0  0  0  0  0  0  0  0  0  0  0  0
  -32.2393  -17.7572  -21.8993 H   0  0  0  0  0  0  0  0  0  0  0  0
  -30.4658  -17.4719  -21.8993 H   0  0  0  0  0  0  0  0  0  0  0  0
  -31.9595  -16.1380  -29.3888 H   0  0  0  0  0  0  0  0  0  0  0  0
  -32.9840  -15.3948  -30.6635 H   0  0  0  0  0  0  0  0  0  0  0  0
  -31.2090  -15.1189  -30.6635 H   0  0  0  0  0  0  0  0  0  0  0  0
  -32.1495  -10.1307  -29.3715 H   0  0  0  0  0  0  0  0  0  0  0  0
  -31.9918  -11.3875  -30.6452 H   0  0  0  0  0  0  0  0  0  0  0  0
  -33.4071  -10.2813  -30.6452 H   0  0  0  0  0  0  0  0  0  0  0  0
  -35.5882  -10.4797  -26.0353 H   0  0  0  0  0  0  0  0  0  0  0  0
  -35.1636   -8.7359  -26.0521 H   0  0  0  0  0  0  0  0  0  0  0  0
  -36.6588   -8.3442  -28.0024 H   0  0  0  0  0  0  0  0  0  0  0  0
  -38.0000  -10.3406  -28.9118 H   0  0  0  0  0  0  0  0  0  0  0  0
  -36.9485  -11.5239  -27.8515 H   0  0  0  0  0  0  0  0  0  0  0  0
  -28.4573  -12.3708  -27.0715 H   0  0  0  0  0  0  0  0  0  0  0  0
  -30.0890  -12.3848  -27.8225 H   0  0  0  0  0  0  0  0  0  0  0  0
  -29.1132  -10.8766  -27.8225 H   0  0  0  0  0  0  0  0  0  0  0  0
  -29.1751  -10.9243  -21.4356 H   0  0  0  0  0  0  0  0  0  0  0  0
  -27.8284  -10.7272  -22.6079 H   0  0  0  0  0  0  0  0  0  0  0  0
  -29.1967   -9.5634  -22.6079 H   0  0  0  0  0  0  0  0  0  0  0  0
  -34.5167  -14.4095  -22.8733 H   0  0  0  0  0  0  0  0  0  0  0  0
  -36.0163  -13.9106  -23.7272 H   0  0  0  0  0  0  0  0  0  0  0  0
  -35.5142  -15.6353  -23.7272 H   0  0  0  0  0  0  0  0  0  0  0  0
  -35.3360  -17.2621  -27.0177 H   0  0  0  0  0  0  0  0  0  0  0  0
  -36.0110  -16.5995  -28.5448 H   0  0  0  0  0  0  0  0  0  0  0  0
  -34.3992  -17.3923  -28.5448 H   0  0  0  0  0  0  0  0  0  0  0  0
  -35.1115  -14.5034  -19.3661 H   0  0  0  0  0  0  0  0  0  0  0  0
  -36.0205  -14.8153  -20.8837 H   0  0  0  0  0  0  0  0  0  0  0  0
  -34.2252  -14.8750  -20.8837 H   0  0  0  0  0  0  0  0  0  0  0  0
  -32.2519  -18.5695  -23.3946 H   0  0  0  0  0  0  0  0  0  0  0  0
  -28.8725   -8.7993  -25.3100 H   0  0  0  0  0  0  0  0  0  0  0  0
  -33.0804  -13.1675  -17.5714 H   0  0  0  0  0  0  0  0  0  0  0  0
  1  2  1  0
  1 46  1  0
  1 47  2  0
  2  3  1  0
  2 45  1  0
  3  4  1  0
  4  5  1  0
  5  6  1  0
  6 45  1  0
  7  8  1  0
  7 45  1  0
  7 48  2  0
  8  9  1  0
  8 49  2  0
  9 10  1  0
  9 50  1  0
  9 51  1  1
 10 11  1  0
 10 34  1  0
 11 12  1  0
 12 13  1  0
 12 52  1  0
 13 14  1  0
 13 50  1  0
 14 15  1  0
 14 53  1  0
 15 16  1  0
 16 17  1  0
 16 35  1  0
 17 18  1  0
 18 19  2  3
 18 36  1  0
 19 20  1  0
 20 21  1  0
 20 37  1  0
 21 22  1  0
 21 54  2  0
 22 23  1  0
 23 24  1  0
 23 55  1  0
 24 25  1  0
 24 40  1  0
 25 26  1  0
 25 46  1  0
 26 27  2  3
 26 41  1  0
 28 27  1  0
 28 29  1  0
 28 33  1  0
 29 30  1  0
 30 31  1  0
 30 56  1  0
 31 32  1  0
 31 57  1  0
 32 33  1  0
 37 38  1  0
 38 39  2  0
 42 52  1  0
 43 53  1  0
 44 56  1  0
  2 58  1  1
  3 59  1  0
  3 60  1  0
  4 61  1  0
  4 62  1  0
  5 63  1  0
  5 64  1  0
  6 65  1  0
  6 66  1  0
 10 67  1  1
 11 68  1  0
 11 69  1  0
 12 70  1  6
 13 71  1  1
 14 72  1  6
 15 73  1  0
 15 74  1  0
 16 75  1  1
 17 76  1  0
 17 77  1  0
 19 78  1  0
 20 79  1  6
 22 80  1  0
 22 81  1  0
 23 82  1  1
 24 83  1  1
 25 84  1  6
 27 85  1  0
 28 86  1  1
 29 87  1  0
 29 88  1  0
 30 89  1  1
 31 90  1  6
 32 91  1  0
 32 92  1  0
 33 93  1  0
 33 94  1  0
 34 95  1  0
 34 96  1  0
 34 97  1  0
 35 98  1  0
 35 99  1  0
 35100  1  0
 36101  1  0
 36102  1  0
 36103  1  0
 37104  1  0
 37105  1  0
 38106  1  0
 39107  1  0
 39108  1  0
 40109  1  0
 40110  1  0
 40111  1  0
 41112  1  0
 41113  1  0
 41114  1  0
 42115  1  0
 42116  1  0
 42117  1  0
 43118  1  0
 43119  1  0
 43120  1  0
 44121  1  0
 44122  1  0
 44123  1  0
 51124  1  0
 55125  1  0
 57126  1  0
M  END
>  <filename_input>  (2) 
7U0U_FK5_docked.sdf

>  <pdb_id>  (2) 
7U0U_FK5

>  <pose_rank>  (2) 
1

>  <num_atoms_heavy>  (2) 
57

>  <num_torsions>  (2) 
7

>  <pose>  (2) 
[-27.60027505621431, -13.554784923985867, -24.646639976182456, 0.6988687533382059, -1.7806673010028893, -3.1810970714648477, -9.636221061771716, -5.8306380997927, 2.9537441028232903, -1.5699345433814837, 0.0723212879969515, 5.939464847966128, -2.8561304747020335]

>  <energy>  (2) 
-698.7265411296239

>  <inter_energy>  (2) 
-756.6203329096426

>  <intra_energy>  (2) 
53.11519919709158

>  <rmsd>  (2) 
7.07689

>  <sdf_rank>  (2) 
0

$$$$

     RDKit          3D

126129  0  0  0  0  0  0  0  0999 V2000
  -27.7459  -12.7376  -22.4112 C   0  0  0  0  0  0  0  0  0  0  0  0
  -26.9248  -13.9917  -22.3352 C   0  0  2  0  0  0  0  0  0  0  0  0
  -25.4471  -13.6184  -22.1662 C   0  0  0  0  0  0  0  0  0  0  0  0
  -24.8575  -13.0023  -23.4411 C   0  0  0  0  0  0  0  0  0  0  0  0
  -25.0680  -13.9149  -24.6546 C   0  0  0  0  0  0  0  0  0  0  0  0
  -26.5559  -14.2471  -24.8335 C   0  0  0  0  0  0  0  0  0  0  0  0
  -27.7094  -15.9587  -23.5008 C   0  0  0  0  0  0  0  0  0  0  0  0
  -27.8878  -16.7975  -24.5920 C   0  0  0  0  0  0  0  0  0  0  0  0
  -29.1425  -16.7309  -25.4538 C   0  0  1  0  0  0  0  0  0  0  0  0
  -30.3784  -16.3394  -24.6363 C   0  0  1  0  0  0  0  0  0  0  0  0
  -31.5073  -15.8729  -25.5620 C   0  0  0  0  0  0  0  0  0  0  0  0
  -30.9833  -14.8727  -26.6020 C   0  0  1  0  0  0  0  0  0  0  0  0
  -29.8368  -15.5098  -27.3837 C   0  0  1  0  0  0  0  0  0  0  0  0
  -29.1953  -14.6121  -28.4556 C   0  0  2  0  0  0  0  0  0  0  0  0
  -28.9208  -13.1965  -27.9557 C   0  0  0  0  0  0  0  0  0  0  0  0
  -28.0859  -12.3240  -28.9058 C   0  0  2  0  0  0  0  0  0  0  0  0
  -28.9916  -11.6820  -29.9667 C   0  0  0  0  0  0  0  0  0  0  0  0
  -29.6949  -10.4807  -29.3928 C   0  0  0  0  0  0  0  0  0  0  0  0
  -31.0780  -10.6218  -28.9262 C   0  0  0  0  0  0  0  0  0  0  0  0
  -31.8182   -9.4665  -28.3090 C   0  0  2  0  0  0  0  0  0  0  0  0
  -31.6306   -9.5496  -26.8261 C   0  0  0  0  0  0  0  0  0  0  0  0
  -30.4715   -8.8628  -26.1234 C   0  0  0  0  0  0  0  0  0  0  0  0
  -30.2520   -9.3791  -24.6992 C   0  0  1  0  0  0  0  0  0  0  0  0
  -29.4182  -10.6712  -24.6401 C   0  0  2  0  0  0  0  0  0  0  0  0
  -29.2869  -11.2764  -23.2390 C   0  0  1  0  0  0  0  0  0  0  0  0
  -30.6617  -11.5789  -22.6915 C   0  0  0  0  0  0  0  0  0  0  0  0
  -30.9981  -11.1058  -21.3568 C   0  0  0  0  0  0  0  0  0  0  0  0
  -32.3577  -11.2752  -20.7443 C   0  0  1  0  0  0  0  0  0  0  0  0
  -32.5892  -12.7731  -20.5495 C   0  0  0  0  0  0  0  0  0  0  0  0
  -33.9360  -13.0258  -19.8825 C   0  0  2  0  0  0  0  0  0  0  0  0
  -33.9965  -12.3214  -18.5252 C   0  0  1  0  0  0  0  0  0  0  0  0
  -33.7342  -10.8238  -18.6722 C   0  0  0  0  0  0  0  0  0  0  0  0
  -32.3994  -10.5455  -19.3890 C   0  0  0  0  0  0  0  0  0  0  0  0
  -30.8641  -17.4692  -23.7172 C   0  0  0  0  0  0  0  0  0  0  0  0
  -26.9612  -13.1286  -29.5737 C   0  0  0  0  0  0  0  0  0  0  0  0
  -28.9788   -9.1603  -29.3291 C   0  0  0  0  0  0  0  0  0  0  0  0
  -33.3008   -9.6432  -28.6265 C   0  0  0  0  0  0  0  0  0  0  0  0
  -33.5561  -11.0794  -29.0411 C   0  0  0  0  0  0  0  0  0  0  0  0
  -34.7353  -11.7614  -28.5150 C   0  0  0  0  0  0  0  0  0  0  0  0
  -28.0111  -10.4685  -25.2104 C   0  0  0  0  0  0  0  0  0  0  0  0
  -31.6492  -12.3429  -23.5430 C   0  0  0  0  0  0  0  0  0  0  0  0
  -33.2995  -14.6928  -26.8541 C   0  0  0  0  0  0  0  0  0  0  0  0
  -29.4762  -15.4444  -30.6278 C   0  0  0  0  0  0  0  0  0  0  0  0
  -33.0289  -15.2030  -20.1349 C   0  0  0  0  0  0  0  0  0  0  0  0
  -27.0955  -14.7675  -23.5703 N   0  0  0  0  0  0  0  0  0  0  0  0
  -28.5470  -12.4880  -23.3709 O   0  0  0  0  0  0  0  0  0  0  0  0
  -27.6055  -11.8626  -21.3605 O   0  0  0  0  0  0  0  0  0  0  0  0
  -28.2002  -16.3860  -22.2847 O   0  0  0  0  0  0  0  0  0  0  0  0
  -26.9015  -17.7169  -24.9321 O   0  0  0  0  0  0  0  0  0  0  0  0
  -28.8201  -15.7819  -26.4440 O   0  0  0  0  0  0  0  0  0  0  0  0
  -29.3633  -18.0154  -26.0700 O   0  0  0  0  0  0  0  0  0  0  0  0
  -32.0401  -14.4903  -27.4715 O   0  0  0  0  0  0  0  0  0  0  0  0
  -29.9740  -14.5749  -29.6283 O   0  0  0  0  0  0  0  0  0  0  0  0
  -32.5508  -10.3111  -26.1168 O   0  0  0  0  0  0  0  0  0  0  0  0
  -29.5862   -8.3597  -23.9878 O   0  0  0  0  0  0  0  0  0  0  0  0
  -34.1125  -14.4073  -19.6765 O   0  0  0  0  0  0  0  0  0  0  0  0
  -35.2811  -12.5332  -17.9628 O   0  0  0  0  0  0  0  0  0  0  0  0
  -27.2545  -14.5962  -21.4774 H   0  0  0  0  0  0  0  0  0  0  0  0
  -25.3568  -12.8908  -21.3462 H   0  0  0  0  0  0  0  0  0  0  0  0
  -24.8883  -14.5399  -21.9459 H   0  0  0  0  0  0  0  0  0  0  0  0
  -25.3477  -12.0361  -23.6310 H   0  0  0  0  0  0  0  0  0  0  0  0
  -23.7757  -12.8697  -23.2922 H   0  0  0  0  0  0  0  0  0  0  0  0
  -24.7010  -13.4050  -25.5576 H   0  0  0  0  0  0  0  0  0  0  0  0
  -24.5140  -14.8513  -24.4927 H   0  0  0  0  0  0  0  0  0  0  0  0
  -27.1034  -13.3367  -25.1189 H   0  0  0  0  0  0  0  0  0  0  0  0
  -26.6706  -15.0055  -25.6219 H   0  0  0  0  0  0  0  0  0  0  0  0
  -30.0795  -15.5064  -23.9830 H   0  0  0  0  0  0  0  0  0  0  0  0
  -31.9306  -16.7450  -26.0820 H   0  0  0  0  0  0  0  0  0  0  0  0
  -32.2786  -15.3770  -24.9543 H   0  0  0  0  0  0  0  0  0  0  0  0
  -30.6063  -13.9704  -26.0984 H   0  0  0  0  0  0  0  0  0  0  0  0
  -30.2552  -16.3839  -27.9042 H   0  0  0  0  0  0  0  0  0  0  0  0
  -28.2225  -15.0681  -28.6914 H   0  0  0  0  0  0  0  0  0  0  0  0
  -29.8878  -12.6975  -27.7951 H   0  0  0  0  0  0  0  0  0  0  0  0
  -28.3275  -13.3045  -27.0357 H   0  0  0  0  0  0  0  0  0  0  0  0
  -27.6139  -11.5304  -28.3080 H   0  0  0  0  0  0  0  0  0  0  0  0
  -28.3795  -11.3687  -30.8253 H   0  0  0  0  0  0  0  0  0  0  0  0
  -29.7432  -12.4175  -30.2893 H   0  0  0  0  0  0  0  0  0  0  0  0
  -31.5848  -11.5925  -29.0297 H   0  0  0  0  0  0  0  0  0  0  0  0
  -31.4545   -8.5015  -28.6916 H   0  0  0  0  0  0  0  0  0  0  0  0
  -29.5546   -9.0367  -26.7057 H   0  0  0  0  0  0  0  0  0  0  0  0
  -30.7135   -7.7920  -26.0541 H   0  0  0  0  0  0  0  0  0  0  0  0
  -31.2311   -9.6273  -24.2634 H   0  0  0  0  0  0  0  0  0  0  0  0
  -29.9867  -11.3804  -25.2596 H   0  0  0  0  0  0  0  0  0  0  0  0
  -28.7803  -10.5805  -22.5541 H   0  0  0  0  0  0  0  0  0  0  0  0
  -30.2183  -10.5998  -20.7688 H   0  0  0  0  0  0  0  0  0  0  0  0
  -33.1410  -10.8514  -21.3899 H   0  0  0  0  0  0  0  0  0  0  0  0
  -32.5721  -13.2719  -21.5297 H   0  0  0  0  0  0  0  0  0  0  0  0
  -31.7934  -13.1738  -19.9044 H   0  0  0  0  0  0  0  0  0  0  0  0
  -34.7277  -12.6347  -20.5384 H   0  0  0  0  0  0  0  0  0  0  0  0
  -33.2184  -12.7368  -17.8680 H   0  0  0  0  0  0  0  0  0  0  0  0
  -34.5518  -10.3744  -19.2548 H   0  0  0  0  0  0  0  0  0  0  0  0
  -33.6797  -10.3853  -17.6649 H   0  0  0  0  0  0  0  0  0  0  0  0
  -31.5693  -10.9001  -18.7604 H   0  0  0  0  0  0  0  0  0  0  0  0
  -32.3055   -9.4633  -19.5624 H   0  0  0  0  0  0  0  0  0  0  0  0
  -30.7349  -17.1686  -22.6670 H   0  0  0  0  0  0  0  0  0  0  0  0
  -31.9278  -17.6695  -23.9131 H   0  0  0  0  0  0  0  0  0  0  0  0
  -30.2775  -18.3789  -23.9131 H   0  0  0  0  0  0  0  0  0  0  0  0
  -26.3259  -13.5832  -28.7993 H   0  0  0  0  0  0  0  0  0  0  0  0
  -27.3987  -13.9200  -30.2001 H   0  0  0  0  0  0  0  0  0  0  0  0
  -26.3535  -12.4590  -30.2001 H   0  0  0  0  0  0  0  0  0  0  0  0
  -28.8251   -8.8769  -28.2774 H   0  0  0  0  0  0  0  0  0  0  0  0
  -28.0042   -9.2471  -29.8316 H   0  0  0  0  0  0  0  0  0  0  0  0
  -29.5832   -8.3907  -29.8316 H   0  0  0  0  0  0  0  0  0  0  0  0
  -33.8986   -9.4064  -27.7340 H   0  0  0  0  0  0  0  0  0  0  0  0
  -33.5857   -8.9666  -29.4457 H   0  0  0  0  0  0  0  0  0  0  0  0
  -32.8669  -11.5971  -29.7244 H   0  0  0  0  0  0  0  0  0  0  0  0
  -34.9416  -12.8033  -28.8013 H   0  0  0  0  0  0  0  0  0  0  0  0
  -35.4173  -11.2333  -27.8323 H   0  0  0  0  0  0  0  0  0  0  0  0
  -27.2920  -10.3649  -24.3845 H   0  0  0  0  0  0  0  0  0  0  0  0
  -27.7373  -11.3364  -25.8282 H   0  0  0  0  0  0  0  0  0  0  0  0
  -27.9934   -9.5585  -25.8282 H   0  0  0  0  0  0  0  0  0  0  0  0
  -32.3509  -12.8858  -22.8928 H   0  0  0  0  0  0  0  0  0  0  0  0
  -32.2073  -11.6391  -24.1780 H   0  0  0  0  0  0  0  0  0  0  0  0
  -31.1081  -13.0599  -24.1780 H   0  0  0  0  0  0  0  0  0  0  0  0
  -33.1792  -14.6735  -25.7608 H   0  0  0  0  0  0  0  0  0  0  0  0
  -33.9910  -13.8943  -27.1611 H   0  0  0  0  0  0  0  0  0  0  0  0
  -33.7059  -15.6678  -27.1611 H   0  0  0  0  0  0  0  0  0  0  0  0
  -28.9834  -16.3054  -30.1525 H   0  0  0  0  0  0  0  0  0  0  0  0
  -30.3087  -15.7981  -31.2539 H   0  0  0  0  0  0  0  0  0  0  0  0
  -28.7497  -14.9057  -31.2539 H   0  0  0  0  0  0  0  0  0  0  0  0
  -32.4794  -15.6066  -19.2717 H   0  0  0  0  0  0  0  0  0  0  0  0
  -33.4157  -16.0333  -20.7441 H   0  0  0  0  0  0  0  0  0  0  0  0
  -32.3525  -14.5854  -20.7441 H   0  0  0  0  0  0  0  0  0  0  0  0
  -29.4815  -18.7026  -25.3673 H   0  0  0  0  0  0  0  0  0  0  0  0
  -29.6878   -8.5153  -23.0155 H   0  0  0  0  0  0  0  0  0  0  0  0
  -35.2148  -12.5222  -16.9751 H   0  0  0  0  0  0  0  0  0  0  0  0
  1  2  1  0
  1 46  1  0
  1 47  2  0
  2  3  1  0
  2 45  1  0
  3  4  1  0
  4  5  1  0
  5  6  1  0
  6 45  1  0
  7  8  1  0
  7 45  1  0
  7 48  2  0
  8  9  1  0
  8 49  2  0
  9 10  1  0
  9 50  1  0
  9 51  1  6
 10 11  1  0
 10 34  1  0
 11 12  1  0
 12 13  1  0
 12 52  1  0
 13 14  1  0
 13 50  1  0
 14 15  1  0
 14 53  1  0
 15 16  1  0
 16 17  1  0
 16 35  1  0
 17 18  1  0
 18 19  2  3
 18 36  1  0
 19 20  1  0
 20 21  1  0
 20 37  1  0
 21 22  1  0
 21 54  2  0
 22 23  1  0
 23 24  1  0
 23 55  1  0
 24 25  1  0
 24 40  1  0
 25 26  1  0
 25 46  1  0
 26 27  2  3
 26 41  1  0
 28 27  1  0
 28 29  1  0
 28 33  1  0
 29 30  1  0
 30 31  1  0
 30 56  1  0
 31 32  1  0
 31 57  1  0
 32 33  1  0
 37 38  1  0
 38 39  2  0
 42 52  1  0
 43 53  1  0
 44 56  1  0
  2 58  1  1
  3 59  1  0
  3 60  1  0
  4 61  1  0
  4 62  1  0
  5 63  1  0
  5 64  1  0
  6 65  1  0
  6 66  1  0
 10 67  1  1
 11 68  1  0
 11 69  1  0
 12 70  1  1
 13 71  1  6
 14 72  1  6
 15 73  1  0
 15 74  1  0
 16 75  1  1
 17 76  1  0
 17 77  1  0
 19 78  1  0
 20 79  1  6
 22 80  1  0
 22 81  1  0
 23 82  1  1
 24 83  1  6
 25 84  1  1
 27 85  1  0
 28 86  1  6
 29 87  1  0
 29 88  1  0
 30 89  1  6
 31 90  1  1
 32 91  1  0
 32 92  1  0
 33 93  1  0
 33 94  1  0
 34 95  1  0
 34 96  1  0
 34 97  1  0
 35 98  1  0
 35 99  1  0
 35100  1  0
 36101  1  0
 36102  1  0
 36103  1  0
 37104  1  0
 37105  1  0
 38106  1  0
 39107  1  0
 39108  1  0
 40109  1  0
 40110  1  0
 40111  1  0
 41112  1  0
 41113  1  0
 41114  1  0
 42115  1  0
 42116  1  0
 42117  1  0
 43118  1  0
 43119  1  0
 43120  1  0
 44121  1  0
 44122  1  0
 44123  1  0
 51124  1  0
 55125  1  0
 57126  1  0
M  END
>  <filename_input>  (3) 
7U0U_FK5_docked.sdf

>  <pdb_id>  (3) 
7U0U_FK5

>  <pose_rank>  (3) 
2

>  <num_atoms_heavy>  (3) 
57

>  <num_torsions>  (3) 
7

>  <pose>  (3) 
[-27.745932478554963, -12.737599543052749, -22.411217523265105, -1.2759466813122733, 0.4703506464520111, 2.060837036186567, -0.3036391034568283, -1.415436516742024, 1.3516169053083622, -1.0832922850316913, -0.28589493664760096, 1.3159167866820474, -1.9671256492470675]

>  <energy>  (3) 
-739.7231138414178

>  <inter_energy>  (3) 
-763.131593965426

>  <intra_energy>  (3) 
24.10372477484789

>  <rmsd>  (3) 
6.84821

>  <sdf_rank>  (3) 
0

$$$$

     RDKit          3D

126129  0  0  0  0  0  0  0  0999 V2000
  -27.7092  -15.1866  -27.2837 C   0  0  0  0  0  0  0  0  0  0  0  0
  -26.6857  -15.3421  -26.1968 C   0  0  2  0  0  0  0  0  0  0  0  0
  -26.2376  -16.8072  -26.1309 C   0  0  0  0  0  0  0  0  0  0  0  0
  -27.3377  -17.7235  -25.5807 C   0  0  0  0  0  0  0  0  0  0  0  0
  -27.8481  -17.2336  -24.2208 C   0  0  0  0  0  0  0  0  0  0  0  0
  -28.3295  -15.7789  -24.3127 C   0  0  0  0  0  0  0  0  0  0  0  0
  -26.7929  -13.8620  -24.2888 C   0  0  0  0  0  0  0  0  0  0  0  0
  -27.2381  -13.4229  -23.0498 C   0  0  0  0  0  0  0  0  0  0  0  0
  -28.3749  -12.4168  -22.9203 C   0  0  1  0  0  0  0  0  0  0  0  0
  -28.3957  -11.4231  -24.0871 C   0  0  1  0  0  0  0  0  0  0  0  0
  -29.7528  -10.7150  -24.1638 C   0  0  0  0  0  0  0  0  0  0  0  0
  -30.9034  -11.7255  -24.0557 C   0  0  1  0  0  0  0  0  0  0  0  0
  -30.7543  -12.5256  -22.7639 C   0  0  1  0  0  0  0  0  0  0  0  0
  -31.8327  -13.5970  -22.5279 C   0  0  2  0  0  0  0  0  0  0  0  0
  -32.1171  -14.4352  -23.7711 C   0  0  0  0  0  0  0  0  0  0  0  0
  -33.0206  -15.6558  -23.5374 C   0  0  2  0  0  0  0  0  0  0  0  0
  -34.4972  -15.2373  -23.5862 C   0  0  0  0  0  0  0  0  0  0  0  0
  -34.9535  -15.1040  -25.0149 C   0  0  0  0  0  0  0  0  0  0  0  0
  -35.0073  -13.7708  -25.6231 C   0  0  0  0  0  0  0  0  0  0  0  0
  -35.4186  -13.5801  -27.0576 C   0  0  2  0  0  0  0  0  0  0  0  0
  -34.1733  -13.5757  -27.8884 C   0  0  0  0  0  0  0  0  0  0  0  0
  -33.5981  -14.8516  -28.4803 C   0  0  0  0  0  0  0  0  0  0  0  0
  -32.1528  -14.6851  -28.9562 C   0  0  1  0  0  0  0  0  0  0  0  0
  -31.1173  -14.8363  -27.8279 C   0  0  2  0  0  0  0  0  0  0  0  0
  -29.6729  -14.5533  -28.2522 C   0  0  1  0  0  0  0  0  0  0  0  0
  -29.5747  -13.1472  -28.7947 C   0  0  0  0  0  0  0  0  0  0  0  0
  -30.5197  -12.1495  -28.3152 C   0  0  0  0  0  0  0  0  0  0  0  0
  -30.4650  -10.7054  -28.7203 C   0  0  1  0  0  0  0  0  0  0  0  0
  -31.9017  -10.1866  -28.7629 C   0  0  0  0  0  0  0  0  0  0  0  0
  -31.9273   -8.7054  -29.1204 C   0  0  2  0  0  0  0  0  0  0  0  0
  -31.1257   -7.8985  -28.0965 C   0  0  1  0  0  0  0  0  0  0  0  0
  -29.6898   -8.4101  -27.9975 C   0  0  0  0  0  0  0  0  0  0  0  0
  -29.6410   -9.9176  -27.6851 C   0  0  0  0  0  0  0  0  0  0  0  0
  -27.2542  -10.3990  -24.0145 C   0  0  0  0  0  0  0  0  0  0  0  0
  -32.7018  -16.3506  -22.2054 C   0  0  0  0  0  0  0  0  0  0  0  0
  -35.3648  -16.3305  -25.7812 C   0  0  0  0  0  0  0  0  0  0  0  0
  -36.0881  -12.2129  -27.1701 C   0  0  0  0  0  0  0  0  0  0  0  0
  -37.5906  -12.3974  -27.2614 C   0  0  0  0  0  0  0  0  0  0  0  0
  -38.1173  -13.7314  -27.5356 C   0  0  0  0  0  0  0  0  0  0  0  0
  -31.1677  -16.2281  -27.1902 C   0  0  0  0  0  0  0  0  0  0  0  0
  -28.4965  -12.8116  -29.7990 C   0  0  0  0  0  0  0  0  0  0  0  0
  -32.2836  -10.2978  -25.2875 C   0  0  0  0  0  0  0  0  0  0  0  0
  -32.9984  -12.8625  -20.6326 C   0  0  0  0  0  0  0  0  0  0  0  0
  -34.1702   -9.1038  -28.4590 C   0  0  0  0  0  0  0  0  0  0  0  0
  -27.2723  -14.9512  -24.9086 N   0  0  0  0  0  0  0  0  0  0  0  0
  -28.8600  -14.6746  -27.0871 O   0  0  0  0  0  0  0  0  0  0  0  0
  -27.3278  -15.6120  -28.5338 O   0  0  0  0  0  0  0  0  0  0  0  0
  -25.8048  -13.1240  -24.9063 O   0  0  0  0  0  0  0  0  0  0  0  0
  -26.6554  -13.9136  -21.8864 O   0  0  0  0  0  0  0  0  0  0  0  0
  -29.5309  -13.2206  -22.8676 O   0  0  0  0  0  0  0  0  0  0  0  0
  -28.2315  -11.6959  -21.6801 O   0  0  0  0  0  0  0  0  0  0  0  0
  -32.1468  -11.0384  -24.0870 O   0  0  0  0  0  0  0  0  0  0  0  0
  -33.0241  -13.0281  -22.0378 O   0  0  0  0  0  0  0  0  0  0  0  0
  -33.5438  -12.3512  -28.0729 O   0  0  0  0  0  0  0  0  0  0  0  0
  -31.9240  -15.6727  -29.9365 O   0  0  0  0  0  0  0  0  0  0  0  0
  -33.2553   -8.2382  -29.1158 O   0  0  0  0  0  0  0  0  0  0  0  0
  -31.1263   -6.5369  -28.4934 O   0  0  0  0  0  0  0  0  0  0  0  0
  -25.8195  -14.6992  -26.4122 H   0  0  0  0  0  0  0  0  0  0  0  0
  -25.9709  -17.1423  -27.1441 H   0  0  0  0  0  0  0  0  0  0  0  0
  -25.3755  -16.8671  -25.4504 H   0  0  0  0  0  0  0  0  0  0  0  0
  -28.1766  -17.7419  -26.2919 H   0  0  0  0  0  0  0  0  0  0  0  0
  -26.9146  -18.7302  -25.4485 H   0  0  0  0  0  0  0  0  0  0  0  0
  -28.6847  -17.8708  -23.8984 H   0  0  0  0  0  0  0  0  0  0  0  0
  -27.0242  -17.2877  -23.4940 H   0  0  0  0  0  0  0  0  0  0  0  0
  -29.2315  -15.7299  -24.9405 H   0  0  0  0  0  0  0  0  0  0  0  0
  -28.5640  -15.4054  -23.3050 H   0  0  0  0  0  0  0  0  0  0  0  0
  -28.2399  -12.0060  -25.0069 H   0  0  0  0  0  0  0  0  0  0  0  0
  -29.8293   -9.9922  -23.3381 H   0  0  0  0  0  0  0  0  0  0  0  0
  -29.8267  -10.1998  -25.1328 H   0  0  0  0  0  0  0  0  0  0  0  0
  -30.8720  -12.4225  -24.9061 H   0  0  0  0  0  0  0  0  0  0  0  0
  -30.8284  -11.8062  -21.9351 H   0  0  0  0  0  0  0  0  0  0  0  0
  -31.4248  -14.2756  -21.7643 H   0  0  0  0  0  0  0  0  0  0  0  0
  -32.6036  -13.7877  -24.5155 H   0  0  0  0  0  0  0  0  0  0  0  0
  -31.1462  -14.8302  -24.1048 H   0  0  0  0  0  0  0  0  0  0  0  0
  -32.8251  -16.3795  -24.3423 H   0  0  0  0  0  0  0  0  0  0  0  0
  -35.1077  -15.9993  -23.0795 H   0  0  0  0  0  0  0  0  0  0  0  0
  -34.6119  -14.2669  -23.0811 H   0  0  0  0  0  0  0  0  0  0  0  0
  -34.7413  -12.8917  -25.0177 H   0  0  0  0  0  0  0  0  0  0  0  0
  -36.1037  -14.3733  -27.3914 H   0  0  0  0  0  0  0  0  0  0  0  0
  -33.6270  -15.6392  -27.7129 H   0  0  0  0  0  0  0  0  0  0  0  0
  -34.2077  -15.1143  -29.3574 H   0  0  0  0  0  0  0  0  0  0  0  0
  -32.0302  -13.6648  -29.3487 H   0  0  0  0  0  0  0  0  0  0  0  0
  -31.4089  -14.0670  -27.0977 H   0  0  0  0  0  0  0  0  0  0  0  0
  -29.3459  -15.2558  -29.0330 H   0  0  0  0  0  0  0  0  0  0  0  0
  -31.3122  -12.4692  -27.6226 H   0  0  0  0  0  0  0  0  0  0  0  0
  -29.9894  -10.5857  -29.7050 H   0  0  0  0  0  0  0  0  0  0  0  0
  -32.4674  -10.7507  -29.5191 H   0  0  0  0  0  0  0  0  0  0  0  0
  -32.3562  -10.3195  -27.7700 H   0  0  0  0  0  0  0  0  0  0  0  0
  -31.4837   -8.5811  -30.1193 H   0  0  0  0  0  0  0  0  0  0  0  0
  -31.5915   -8.0081  -27.1061 H   0  0  0  0  0  0  0  0  0  0  0  0
  -29.1799   -8.2280  -28.9550 H   0  0  0  0  0  0  0  0  0  0  0  0
  -29.1912   -7.8740  -27.1765 H   0  0  0  0  0  0  0  0  0  0  0  0
  -30.0556  -10.0938  -26.6815 H   0  0  0  0  0  0  0  0  0  0  0  0
  -28.5957  -10.2577  -27.7264 H   0  0  0  0  0  0  0  0  0  0  0  0
  -27.0182  -10.1872  -22.9612 H   0  0  0  0  0  0  0  0  0  0  0  0
  -26.3636  -10.8066  -24.5151 H   0  0  0  0  0  0  0  0  0  0  0  0
  -27.5631   -9.4695  -24.5151 H   0  0  0  0  0  0  0  0  0  0  0  0
  -33.0008  -15.6990  -21.3711 H   0  0  0  0  0  0  0  0  0  0  0  0
  -33.2545  -17.2998  -22.1456 H   0  0  0  0  0  0  0  0  0  0  0  0
  -31.6218  -16.5508  -22.1456 H   0  0  0  0  0  0  0  0  0  0  0  0
  -35.6332  -17.1307  -25.0759 H   0  0  0  0  0  0  0  0  0  0  0  0
  -36.2326  -16.0934  -26.4143 H   0  0  0  0  0  0  0  0  0  0  0  0
  -34.5295  -16.6645  -26.4143 H   0  0  0  0  0  0  0  0  0  0  0  0
  -35.8450  -11.6104  -26.2824 H   0  0  0  0  0  0  0  0  0  0  0  0
  -35.7244  -11.6972  -28.0711 H   0  0  0  0  0  0  0  0  0  0  0  0
  -38.2701  -11.5433  -27.1238 H   0  0  0  0  0  0  0  0  0  0  0  0
  -39.2035  -13.8900  -27.6065 H   0  0  0  0  0  0  0  0  0  0  0  0
  -37.4279  -14.5777  -27.6714 H   0  0  0  0  0  0  0  0  0  0  0  0
  -31.1642  -16.1298  -26.0946 H   0  0  0  0  0  0  0  0  0  0  0  0
  -32.0852  -16.7444  -27.5091 H   0  0  0  0  0  0  0  0  0  0  0  0
  -30.2901  -16.8095  -27.5091 H   0  0  0  0  0  0  0  0  0  0  0  0
  -27.5768  -12.5254  -29.2677 H   0  0  0  0  0  0  0  0  0  0  0  0
  -28.2970  -13.6902  -30.4301 H   0  0  0  0  0  0  0  0  0  0  0  0
  -28.8308  -11.9751  -30.4301 H   0  0  0  0  0  0  0  0  0  0  0  0
  -32.4787   -9.2423  -25.0469 H   0  0  0  0  0  0  0  0  0  0  0  0
  -31.3560  -10.3749  -25.8737 H   0  0  0  0  0  0  0  0  0  0  0  0
  -33.1224  -10.7013  -25.8737 H   0  0  0  0  0  0  0  0  0  0  0  0
  -33.1496  -13.8372  -20.1457 H   0  0  0  0  0  0  0  0  0  0  0  0
  -32.0252  -12.4484  -20.3299 H   0  0  0  0  0  0  0  0  0  0  0  0
  -33.8003  -12.1730  -20.3299 H   0  0  0  0  0  0  0  0  0  0  0  0
  -34.0579   -8.9976  -27.3699 H   0  0  0  0  0  0  0  0  0  0  0  0
  -35.1978   -8.8396  -28.7492 H   0  0  0  0  0  0  0  0  0  0  0  0
  -33.9632  -10.1444  -28.7492 H   0  0  0  0  0  0  0  0  0  0  0  0
  -28.3554  -12.3185  -20.9204 H   0  0  0  0  0  0  0  0  0  0  0  0
  -31.7240  -16.5359  -29.4950 H   0  0  0  0  0  0  0  0  0  0  0  0
  -31.1266   -5.9590  -27.6896 H   0  0  0  0  0  0  0  0  0  0  0  0
  1  2  1  0
  1 46  1  0
  1 47  2  0
  2  3  1  0
  2 45  1  0
  3  4  1  0
  4  5  1  0
  5  6  1  0
  6 45  1  0
  7  8  1  0
  7 45  1  0
  7 48  2  0
  8  9  1  0
  8 49  2  0
  9 10  1  0
  9 50  1  0
  9 51  1  1
 10 11  1  0
 10 34  1  0
 11 12  1  0
 12 13  1  0
 12 52  1  0
 13 14  1  0
 13 50  1  0
 14 15  1  0
 14 53  1  0
 15 16  1  0
 16 17  1  0
 16 35  1  0
 17 18  1  0
 18 19  2  3
 18 36  1  0
 19 20  1  0
 20 21  1  0
 20 37  1  0
 21 22  1  0
 21 54  2  0
 22 23  1  0
 23 24  1  0
 23 55  1  0
 24 25  1  0
 24 40  1  0
 25 26  1  0
 25 46  1  0
 26 27  2  3
 26 41  1  0
 28 27  1  0
 28 29  1  0
 28 33  1  0
 29 30  1  0
 30 31  1  0
 30 56  1  0
 31 32  1  0
 31 57  1  0
 32 33  1  0
 37 38  1  0
 38 39  2  0
 42 52  1  0
 43 53  1  0
 44 56  1  0
  2 58  1  6
  3 59  1  0
  3 60  1  0
  4 61  1  0
  4 62  1  0
  5 63  1  0
  5 64  1  0
  6 65  1  0
  6 66  1  0
 10 67  1  6
 11 68  1  0
 11 69  1  0
 12 70  1  6
 13 71  1  1
 14 72  1  1
 15 73  1  0
 15 74  1  0
 16 75  1  6
 17 76  1  0
 17 77  1  0
 19 78  1  0
 20 79  1  6
 22 80  1  0
 22 81  1  0
 23 82  1  6
 24 83  1  1
 25 84  1  6
 27 85  1  0
 28 86  1  6
 29 87  1  0
 29 88  1  0
 30 89  1  6
 31 90  1  1
 32 91  1  0
 32 92  1  0
 33 93  1  0
 33 94  1  0
 34 95  1  0
 34 96  1  0
 34 97  1  0
 35 98  1  0
 35 99  1  0
 35100  1  0
 36101  1  0
 36102  1  0
 36103  1  0
 37104  1  0
 37105  1  0
 38106  1  0
 39107  1  0
 39108  1  0
 40109  1  0
 40110  1  0
 40111  1  0
 41112  1  0
 41113  1  0
 41114  1  0
 42115  1  0
 42116  1  0
 42117  1  0
 43118  1  0
 43119  1  0
 43120  1  0
 44121  1  0
 44122  1  0
 44123  1  0
 51124  1  0
 55125  1  0
 57126  1  0
M  END
>  <filename_input>  (4) 
7U0U_FK5_docked.sdf

>  <pdb_id>  (4) 
7U0U_FK5

>  <pose_rank>  (4) 
3

>  <num_atoms_heavy>  (4) 
57

>  <num_torsions>  (4) 
7

>  <pose>  (4) 
[-27.709195474716083, -15.186647057523697, -27.28367964185841, -0.11199451642787776, -2.8731552362657564, -0.505189836165529, 8.724452428639632, -6.276390972884699, 1.6343543522197481, -0.44876499069869535, -0.027415077536703206, -0.8028274613432561, 1.6864719411375246]

>  <energy>  (4) 
-685.0717114471887

>  <inter_energy>  (4) 
-741.093877561051

>  <intra_energy>  (4) 
56.78668059461596

>  <rmsd>  (4) 
8.42438

>  <sdf_rank>  (4) 
0

$$$$

     RDKit          3D

126129  0  0  0  0  0  0  0  0999 V2000
  -29.1932  -11.9796  -29.9288 C   0  0  0  0  0  0  0  0  0  0  0  0
  -29.4350  -10.5021  -30.0358 C   0  0  2  0  0  0  0  0  0  0  0  0
  -28.2160   -9.8367  -30.6860 C   0  0  0  0  0  0  0  0  0  0  0  0
  -26.9964   -9.8306  -29.7559 C   0  0  0  0  0  0  0  0  0  0  0  0
  -27.3262   -9.1914  -28.4022 C   0  0  0  0  0  0  0  0  0  0  0  0
  -28.5232   -9.8939  -27.7464 C   0  0  0  0  0  0  0  0  0  0  0  0
  -30.8509   -9.4409  -28.3889 C   0  0  0  0  0  0  0  0  0  0  0  0
  -31.1513   -8.8452  -27.1720 C   0  0  0  0  0  0  0  0  0  0  0  0
  -31.7095   -9.6501  -26.0050 C   0  0  1  0  0  0  0  0  0  0  0  0
  -32.5962  -10.8068  -26.4795 C   0  0  1  0  0  0  0  0  0  0  0  0
  -32.7921  -11.8283  -25.3538 C   0  0  0  0  0  0  0  0  0  0  0  0
  -31.4522  -12.1721  -24.6883 C   0  0  1  0  0  0  0  0  0  0  0  0
  -30.7953  -10.8902  -24.1817 C   0  0  1  0  0  0  0  0  0  0  0  0
  -29.4272  -11.0780  -23.5038 C   0  0  2  0  0  0  0  0  0  0  0  0
  -28.5015  -12.0063  -24.2850 C   0  0  0  0  0  0  0  0  0  0  0  0
  -27.0533  -12.0579  -23.7740 C   0  0  2  0  0  0  0  0  0  0  0  0
  -26.9373  -13.0578  -22.6145 C   0  0  0  0  0  0  0  0  0  0  0  0
  -26.8582  -14.4644  -23.1459 C   0  0  0  0  0  0  0  0  0  0  0  0
  -28.0708  -15.2887  -23.1602 C   0  0  0  0  0  0  0  0  0  0  0  0
  -28.0608  -16.6874  -23.7142 C   0  0  2  0  0  0  0  0  0  0  0  0
  -28.4650  -16.6068  -25.1534 C   0  0  0  0  0  0  0  0  0  0  0  0
  -27.4453  -16.4230  -26.2649 C   0  0  0  0  0  0  0  0  0  0  0  0
  -28.0822  -15.9895  -27.5877 C   0  0  1  0  0  0  0  0  0  0  0  0
  -28.3335  -14.4738  -27.6763 C   0  0  2  0  0  0  0  0  0  0  0  0
  -29.0810  -14.0287  -28.9371 C   0  0  1  0  0  0  0  0  0  0  0  0
  -30.4164  -14.7311  -29.0038 C   0  0  0  0  0  0  0  0  0  0  0  0
  -31.4024  -14.4496  -27.9709 C   0  0  0  0  0  0  0  0  0  0  0  0
  -32.7890  -15.0239  -27.9811 C   0  0  1  0  0  0  0  0  0  0  0  0
  -33.2886  -15.0409  -26.5371 C   0  0  0  0  0  0  0  0  0  0  0  0
  -34.7171  -15.5675  -26.4695 C   0  0  2  0  0  0  0  0  0  0  0  0
  -35.6450  -14.6953  -27.3181 C   0  0  1  0  0  0  0  0  0  0  0  0
  -35.1591  -14.6231  -28.7645 C   0  0  0  0  0  0  0  0  0  0  0  0
  -33.6993  -14.1395  -28.8530 C   0  0  0  0  0  0  0  0  0  0  0  0
  -33.9518  -10.3314  -27.0209 C   0  0  0  0  0  0  0  0  0  0  0  0
  -26.5549  -10.6713  -23.3411 C   0  0  0  0  0  0  0  0  0  0  0  0
  -25.5403  -15.0033  -23.6290 C   0  0  0  0  0  0  0  0  0  0  0  0
  -29.1104  -17.4945  -22.9545 C   0  0  0  0  0  0  0  0  0  0  0  0
  -28.6956  -18.9529  -22.9253 C   0  0  0  0  0  0  0  0  0  0  0  0
  -29.4250  -19.8714  -22.0554 C   0  0  0  0  0  0  0  0  0  0  0  0
  -27.0310  -13.6732  -27.5812 C   0  0  0  0  0  0  0  0  0  0  0  0
  -30.6980  -15.6858  -30.1409 C   0  0  0  0  0  0  0  0  0  0  0  0
  -32.6533  -12.5965  -22.7293 C   0  0  0  0  0  0  0  0  0  0  0  0
  -29.2106  -10.5371  -21.2342 C   0  0  0  0  0  0  0  0  0  0  0  0
  -34.1611  -15.2298  -24.1884 C   0  0  0  0  0  0  0  0  0  0  0  0
  -29.6432   -9.9390  -28.6957 N   0  0  0  0  0  0  0  0  0  0  0  0
  -29.2851  -12.6216  -28.8313 O   0  0  0  0  0  0  0  0  0  0  0  0
  -28.8834  -12.6244  -31.1024 O   0  0  0  0  0  0  0  0  0  0  0  0
  -31.8623   -9.5215  -29.3231 O   0  0  0  0  0  0  0  0  0  0  0  0
  -30.9296   -7.4846  -26.9891 O   0  0  0  0  0  0  0  0  0  0  0  0
  -30.5597  -10.0897  -25.3194 O   0  0  0  0  0  0  0  0  0  0  0  0
  -32.4766   -8.7780  -25.1510 O   0  0  0  0  0  0  0  0  0  0  0  0
  -31.6689  -13.0870  -23.6230 O   0  0  0  0  0  0  0  0  0  0  0  0
  -29.5683  -11.5297  -22.1775 O   0  0  0  0  0  0  0  0  0  0  0  0
  -29.8244  -16.6777  -25.4305 O   0  0  0  0  0  0  0  0  0  0  0  0
  -27.2013  -16.3786  -28.6178 O   0  0  0  0  0  0  0  0  0  0  0  0
  -35.1719  -15.5383  -25.1374 O   0  0  0  0  0  0  0  0  0  0  0  0
  -36.9502  -15.2484  -27.2748 O   0  0  0  0  0  0  0  0  0  0  0  0
  -30.3287  -10.3188  -30.6503 H   0  0  0  0  0  0  0  0  0  0  0  0
  -27.9594  -10.3863  -31.6036 H   0  0  0  0  0  0  0  0  0  0  0  0
  -28.4785   -8.7915  -30.9067 H   0  0  0  0  0  0  0  0  0  0  0  0
  -26.6673  -10.8672  -29.5910 H   0  0  0  0  0  0  0  0  0  0  0  0
  -26.2013   -9.2388  -30.2327 H   0  0  0  0  0  0  0  0  0  0  0  0
  -26.4515   -9.2757  -27.7406 H   0  0  0  0  0  0  0  0  0  0  0  0
  -27.5825   -8.1340  -28.5641 H   0  0  0  0  0  0  0  0  0  0  0  0
  -28.2385  -10.9187  -27.4659 H   0  0  0  0  0  0  0  0  0  0  0  0
  -28.8267   -9.3389  -26.8465 H   0  0  0  0  0  0  0  0  0  0  0  0
  -32.0720  -11.2890  -27.3177 H   0  0  0  0  0  0  0  0  0  0  0  0
  -33.4718  -11.4065  -24.5987 H   0  0  0  0  0  0  0  0  0  0  0  0
  -33.2181  -12.7473  -25.7827 H   0  0  0  0  0  0  0  0  0  0  0  0
  -30.7805  -12.6456  -25.4195 H   0  0  0  0  0  0  0  0  0  0  0  0
  -31.4727  -10.4638  -23.4272 H   0  0  0  0  0  0  0  0  0  0  0  0
  -28.9557  -10.0842  -23.4906 H   0  0  0  0  0  0  0  0  0  0  0  0
  -28.9173  -13.0235  -24.2359 H   0  0  0  0  0  0  0  0  0  0  0  0
  -28.4531  -11.6038  -25.3075 H   0  0  0  0  0  0  0  0  0  0  0  0
  -26.4144  -12.3940  -24.6040 H   0  0  0  0  0  0  0  0  0  0  0  0
  -26.0293  -12.8372  -22.0341 H   0  0  0  0  0  0  0  0  0  0  0  0
  -27.8255  -12.9666  -21.9720 H   0  0  0  0  0  0  0  0  0  0  0  0
  -29.0074  -14.8758  -22.7574 H   0  0  0  0  0  0  0  0  0  0  0  0
  -27.0699  -17.1549  -23.6162 H   0  0  0  0  0  0  0  0  0  0  0  0
  -26.7217  -15.6549  -25.9547 H   0  0  0  0  0  0  0  0  0  0  0  0
  -26.9602  -17.3958  -26.4338 H   0  0  0  0  0  0  0  0  0  0  0  0
  -29.0689  -16.4682  -27.6732 H   0  0  0  0  0  0  0  0  0  0  0  0
  -28.9797  -14.2627  -26.8115 H   0  0  0  0  0  0  0  0  0  0  0  0
  -28.5080  -14.2745  -29.8433 H   0  0  0  0  0  0  0  0  0  0  0  0
  -31.1176  -13.7839  -27.1428 H   0  0  0  0  0  0  0  0  0  0  0  0
  -32.7951  -16.0424  -28.3964 H   0  0  0  0  0  0  0  0  0  0  0  0
  -32.6351  -15.6904  -25.9362 H   0  0  0  0  0  0  0  0  0  0  0  0
  -33.2705  -14.0139  -26.1436 H   0  0  0  0  0  0  0  0  0  0  0  0
  -34.7259  -16.5989  -26.8520 H   0  0  0  0  0  0  0  0  0  0  0  0
  -35.6496  -13.6727  -26.9128 H   0  0  0  0  0  0  0  0  0  0  0  0
  -35.2307  -15.6242  -29.2147 H   0  0  0  0  0  0  0  0  0  0  0  0
  -35.7919  -13.9020  -29.3026 H   0  0  0  0  0  0  0  0  0  0  0  0
  -33.6398  -13.0991  -28.5006 H   0  0  0  0  0  0  0  0  0  0  0  0
  -33.3644  -14.2031  -29.8988 H   0  0  0  0  0  0  0  0  0  0  0  0
  -34.6208  -10.0968  -26.1798 H   0  0  0  0  0  0  0  0  0  0  0  0
  -33.8058   -9.4308  -27.6355 H   0  0  0  0  0  0  0  0  0  0  0  0
  -34.4002  -11.1259  -27.6355 H   0  0  0  0  0  0  0  0  0  0  0  0
  -26.5348  -10.6154  -22.2427 H   0  0  0  0  0  0  0  0  0  0  0  0
  -25.5413  -10.5065  -23.7353 H   0  0  0  0  0  0  0  0  0  0  0  0
  -27.2317   -9.8989  -23.7353 H   0  0  0  0  0  0  0  0  0  0  0  0
  -24.9105  -15.2609  -22.7648 H   0  0  0  0  0  0  0  0  0  0  0  0
  -25.7131  -15.9030  -24.2379 H   0  0  0  0  0  0  0  0  0  0  0  0
  -25.0332  -14.2403  -24.2379 H   0  0  0  0  0  0  0  0  0  0  0  0
  -29.1920  -17.1148  -21.9254 H   0  0  0  0  0  0  0  0  0  0  0  0
  -30.0844  -17.3981  -23.4566 H   0  0  0  0  0  0  0  0  0  0  0  0
  -27.8620  -19.3117  -23.5469 H   0  0  0  0  0  0  0  0  0  0  0  0
  -29.1425  -20.9339  -22.0171 H   0  0  0  0  0  0  0  0  0  0  0  0
  -30.2568  -19.5009  -21.4384 H   0  0  0  0  0  0  0  0  0  0  0  0
  -26.7741  -13.5153  -26.5234 H   0  0  0  0  0  0  0  0  0  0  0  0
  -26.2215  -14.2299  -28.0760 H   0  0  0  0  0  0  0  0  0  0  0  0
  -27.1621  -12.6996  -28.0760 H   0  0  0  0  0  0  0  0  0  0  0  0
  -30.9871  -16.6659  -29.7337 H   0  0  0  0  0  0  0  0  0  0  0  0
  -31.5174  -15.2892  -30.7583 H   0  0  0  0  0  0  0  0  0  0  0  0
  -29.7945  -15.7974  -30.7583 H   0  0  0  0  0  0  0  0  0  0  0  0
  -32.3226  -12.7613  -21.6932 H   0  0  0  0  0  0  0  0  0  0  0  0
  -32.8000  -11.5198  -22.9005 H   0  0  0  0  0  0  0  0  0  0  0  0
  -33.6013  -13.1275  -22.9005 H   0  0  0  0  0  0  0  0  0  0  0  0
  -29.3523  -10.9302  -20.2167 H   0  0  0  0  0  0  0  0  0  0  0  0
  -28.1558  -10.2593  -21.3764 H   0  0  0  0  0  0  0  0  0  0  0  0
  -29.8457   -9.6503  -21.3764 H   0  0  0  0  0  0  0  0  0  0  0  0
  -34.5630  -15.3524  -23.1718 H   0  0  0  0  0  0  0  0  0  0  0  0
  -33.3067  -15.9081  -24.3292 H   0  0  0  0  0  0  0  0  0  0  0  0
  -33.8310  -14.1900  -24.3292 H   0  0  0  0  0  0  0  0  0  0  0  0
  -32.2870   -8.9935  -24.2035 H   0  0  0  0  0  0  0  0  0  0  0  0
  -26.3714  -16.7452  -28.2215 H   0  0  0  0  0  0  0  0  0  0  0  0
  -37.2276  -15.3659  -26.3317 H   0  0  0  0  0  0  0  0  0  0  0  0
  1  2  1  0
  1 46  1  0
  1 47  2  0
  2  3  1  0
  2 45  1  0
  3  4  1  0
  4  5  1  0
  5  6  1  0
  6 45  1  0
  7  8  1  0
  7 45  1  0
  7 48  2  0
  8  9  1  0
  8 49  2  0
  9 10  1  0
  9 50  1  0
  9 51  1  1
 10 11  1  0
 10 34  1  0
 11 12  1  0
 12 13  1  0
 12 52  1  0
 13 14  1  0
 13 50  1  0
 14 15  1  0
 14 53  1  0
 15 16  1  0
 16 17  1  0
 16 35  1  0
 17 18  1  0
 18 19  2  3
 18 36  1  0
 19 20  1  0
 20 21  1  0
 20 37  1  0
 21 22  1  0
 21 54  2  0
 22 23  1  0
 23 24  1  0
 23 55  1  0
 24 25  1  0
 24 40  1  0
 25 26  1  0
 25 46  1  0
 26 27  2  3
 26 41  1  0
 28 27  1  0
 28 29  1  0
 28 33  1  0
 29 30  1  0
 30 31  1  0
 30 56  1  0
 31 32  1  0
 31 57  1  0
 32 33  1  0
 37 38  1  0
 38 39  2  0
 42 52  1  0
 43 53  1  0
 44 56  1  0
  2 58  1  6
  3 59  1  0
  3 60  1  0
  4 61  1  0
  4 62  1  0
  5 63  1  0
  5 64  1  0
  6 65  1  0
  6 66  1  0
 10 67  1  6
 11 68  1  0
 11 69  1  0
 12 70  1  6
 13 71  1  1
 14 72  1  1
 15 73  1  0
 15 74  1  0
 16 75  1  6
 17 76  1  0
 17 77  1  0
 19 78  1  0
 20 79  1  6
 22 80  1  0
 22 81  1  0
 23 82  1  6
 24 83  1  1
 25 84  1  6
 27 85  1  0
 28 86  1  6
 29 87  1  0
 29 88  1  0
 30 89  1  6
 31 90  1  1
 32 91  1  0
 32 92  1  0
 33 93  1  0
 33 94  1  0
 34 95  1  0
 34 96  1  0
 34 97  1  0
 35 98  1  0
 35 99  1  0
 35100  1  0
 36101  1  0
 36102  1  0
 36103  1  0
 37104  1  0
 37105  1  0
 38106  1  0
 39107  1  0
 39108  1  0
 40109  1  0
 40110  1  0
 40111  1  0
 41112  1  0
 41113  1  0
 41114  1  0
 42115  1  0
 42116  1  0
 42117  1  0
 43118  1  0
 43119  1  0
 43120  1  0
 44121  1  0
 44122  1  0
 44123  1  0
 51124  1  0
 55125  1  0
 57126  1  0
M  END
>  <filename_input>  (5) 
7U0U_FK5_docked.sdf

>  <pdb_id>  (5) 
7U0U_FK5

>  <pose_rank>  (5) 
4

>  <num_atoms_heavy>  (5) 
57

>  <num_torsions>  (5) 
7

>  <pose>  (5) 
[-29.193241259723795, -11.979561631966734, -29.92880163720264, -3.0418992202720854, 2.6219612213169223, -1.2771583875535597, 9.373195190358123, 6.4357048845525435, 1.2048259179704404, -2.4063850118809755, -0.4693615580145567, 4.64994100632342, -1.4001951272367763]

>  <energy>  (5) 
-667.5791674609918

>  <inter_energy>  (5) 
-687.804593621315

>  <intra_energy>  (5) 
22.537934306592867

>  <rmsd>  (5) 
6.49525

>  <sdf_rank>  (5) 
0

$$$$

     RDKit          3D

126129  0  0  0  0  0  0  0  0999 V2000
  -29.4356  -12.6325  -22.4440 C   0  0  0  0  0  0  0  0  0  0  0  0
  -28.0328  -13.1662  -22.4549 C   0  0  2  0  0  0  0  0  0  0  0  0
  -27.1316  -12.2347  -21.6353 C   0  0  0  0  0  0  0  0  0  0  0  0
  -26.9004  -10.8904  -22.3367 C   0  0  0  0  0  0  0  0  0  0  0  0
  -26.3584  -11.0845  -23.7574 C   0  0  0  0  0  0  0  0  0  0  0  0
  -27.2916  -11.9867  -24.5767 C   0  0  0  0  0  0  0  0  0  0  0  0
  -27.2944  -14.4353  -24.3751 C   0  0  0  0  0  0  0  0  0  0  0  0
  -26.7874  -14.6177  -25.6541 C   0  0  0  0  0  0  0  0  0  0  0  0
  -27.7034  -14.7913  -26.8591 C   0  0  1  0  0  0  0  0  0  0  0  0
  -29.0043  -15.5129  -26.4901 C   0  0  1  0  0  0  0  0  0  0  0  0
  -30.0611  -15.3033  -27.5802 C   0  0  0  0  0  0  0  0  0  0  0  0
  -30.1453  -13.8243  -27.9828 C   0  0  1  0  0  0  0  0  0  0  0  0
  -28.7671  -13.3425  -28.4299 C   0  0  1  0  0  0  0  0  0  0  0  0
  -28.6930  -11.8638  -28.8476 C   0  0  2  0  0  0  0  0  0  0  0  0
  -29.4101  -10.9358  -27.8710 C   0  0  0  0  0  0  0  0  0  0  0  0
  -29.1842   -9.4361  -28.1173 C   0  0  2  0  0  0  0  0  0  0  0  0
  -30.1591   -8.9235  -29.1872 C   0  0  0  0  0  0  0  0  0  0  0  0
  -31.5148   -8.6760  -28.5805 C   0  0  0  0  0  0  0  0  0  0  0  0
  -32.5606   -9.6918  -28.7377 C   0  0  0  0  0  0  0  0  0  0  0  0
  -33.9218   -9.5166  -28.1213 C   0  0  2  0  0  0  0  0  0  0  0  0
  -33.9006  -10.1831  -26.7810 C   0  0  0  0  0  0  0  0  0  0  0  0
  -33.5040   -9.4359  -25.5187 C   0  0  0  0  0  0  0  0  0  0  0  0
  -33.1841  -10.3729  -24.3512 C   0  0  1  0  0  0  0  0  0  0  0  0
  -31.7460  -10.9198  -24.3837 C   0  0  2  0  0  0  0  0  0  0  0  0
  -31.4374  -11.9544  -23.2971 C   0  0  1  0  0  0  0  0  0  0  0  0
  -32.3870  -13.1214  -23.4303 C   0  0  0  0  0  0  0  0  0  0  0  0
  -32.6251  -13.6764  -24.7545 C   0  0  0  0  0  0  0  0  0  0  0  0
  -33.4815  -14.8849  -24.9963 C   0  0  1  0  0  0  0  0  0  0  0  0
  -34.6440  -14.4517  -25.8886 C   0  0  0  0  0  0  0  0  0  0  0  0
  -35.5370  -15.6408  -26.2219 C   0  0  2  0  0  0  0  0  0  0  0  0
  -34.7287  -16.7287  -26.9327 C   0  0  1  0  0  0  0  0  0  0  0  0
  -33.5338  -17.1651  -26.0871 C   0  0  0  0  0  0  0  0  0  0  0  0
  -32.6435  -15.9702  -25.6970 C   0  0  0  0  0  0  0  0  0  0  0  0
  -28.7960  -17.0095  -26.2187 C   0  0  0  0  0  0  0  0  0  0  0  0
  -27.7334   -9.1404  -28.5249 C   0  0  0  0  0  0  0  0  0  0  0  0
  -31.7775   -7.3897  -27.8478 C   0  0  0  0  0  0  0  0  0  0  0  0
  -34.9302  -10.2379  -29.0118 C   0  0  0  0  0  0  0  0  0  0  0  0
  -36.2906  -10.2223  -28.3417 C   0  0  0  0  0  0  0  0  0  0  0  0
  -37.4746   -9.9932  -29.1651 C   0  0  0  0  0  0  0  0  0  0  0  0
  -30.7070   -9.7981  -24.2892 C   0  0  0  0  0  0  0  0  0  0  0  0
  -33.0455  -13.6885  -22.1939 C   0  0  0  0  0  0  0  0  0  0  0  0
  -32.1900  -14.5553  -28.8461 C   0  0  0  0  0  0  0  0  0  0  0  0
  -28.2417  -12.0556  -31.1388 C   0  0  0  0  0  0  0  0  0  0  0  0
  -36.1485  -14.4237  -28.1639 C   0  0  0  0  0  0  0  0  0  0  0  0
  -27.5414  -13.2311  -23.8372 N   0  0  0  0  0  0  0  0  0  0  0  0
  -30.0994  -12.3999  -23.5071 O   0  0  0  0  0  0  0  0  0  0  0  0
  -29.9896  -12.4239  -21.2035 O   0  0  0  0  0  0  0  0  0  0  0  0
  -27.5580  -15.5654  -23.6297 O   0  0  0  0  0  0  0  0  0  0  0  0
  -25.4126  -14.6294  -25.8630 O   0  0  0  0  0  0  0  0  0  0  0  0
  -27.9191  -13.4739  -27.3100 O   0  0  0  0  0  0  0  0  0  0  0  0
  -27.0114  -15.5423  -27.8766 O   0  0  0  0  0  0  0  0  0  0  0  0
  -31.1007  -13.6661  -29.0225 O   0  0  0  0  0  0  0  0  0  0  0  0
  -29.1833  -11.6734  -30.1539 O   0  0  0  0  0  0  0  0  0  0  0  0
  -34.2326  -11.5314  -26.7430 O   0  0  0  0  0  0  0  0  0  0  0  0
  -33.3775   -9.6359  -23.1646 O   0  0  0  0  0  0  0  0  0  0  0  0
  -36.5780  -15.2288  -27.0755 O   0  0  0  0  0  0  0  0  0  0  0  0
  -35.5787  -17.8377  -27.1753 O   0  0  0  0  0  0  0  0  0  0  0  0
  -28.0192  -14.1749  -22.0163 H   0  0  0  0  0  0  0  0  0  0  0  0
  -27.6066  -12.0490  -20.6607 H   0  0  0  0  0  0  0  0  0  0  0  0
  -26.1550  -12.7268  -21.5165 H   0  0  0  0  0  0  0  0  0  0  0  0
  -27.8546  -10.3458  -22.3894 H   0  0  0  0  0  0  0  0  0  0  0  0
  -26.1570  -10.3223  -21.7581 H   0  0  0  0  0  0  0  0  0  0  0  0
  -26.2793  -10.1044  -24.2505 H   0  0  0  0  0  0  0  0  0  0  0  0
  -25.3695  -11.5623  -23.6959 H   0  0  0  0  0  0  0  0  0  0  0  0
  -28.2448  -11.4662  -24.7515 H   0  0  0  0  0  0  0  0  0  0  0  0
  -26.8204  -12.2218  -25.5424 H   0  0  0  0  0  0  0  0  0  0  0  0
  -29.3619  -15.0675  -25.5500 H   0  0  0  0  0  0  0  0  0  0  0  0
  -29.7920  -15.9023  -28.4628 H   0  0  0  0  0  0  0  0  0  0  0  0
  -31.0393  -15.6173  -27.1871 H   0  0  0  0  0  0  0  0  0  0  0  0
  -30.4669  -13.2189  -27.1225 H   0  0  0  0  0  0  0  0  0  0  0  0
  -28.4931  -13.9402  -29.3117 H   0  0  0  0  0  0  0  0  0  0  0  0
  -27.6264  -11.5956  -28.8276 H   0  0  0  0  0  0  0  0  0  0  0  0
  -30.4897  -11.1346  -27.9413 H   0  0  0  0  0  0  0  0  0  0  0  0
  -28.9907  -11.1512  -26.8772 H   0  0  0  0  0  0  0  0  0  0  0  0
  -29.3761   -8.9063  -27.1725 H   0  0  0  0  0  0  0  0  0  0  0  0
  -29.7733   -7.9841  -29.6099 H   0  0  0  0  0  0  0  0  0  0  0  0
  -30.2534   -9.6812  -29.9790 H   0  0  0  0  0  0  0  0  0  0  0  0
  -32.3454  -10.6009  -29.3184 H   0  0  0  0  0  0  0  0  0  0  0  0
  -34.1873   -8.4539  -28.0209 H   0  0  0  0  0  0  0  0  0  0  0  0
  -32.6135   -8.8276  -25.7353 H   0  0  0  0  0  0  0  0  0  0  0  0
  -34.3600   -8.8135  -25.2191 H   0  0  0  0  0  0  0  0  0  0  0  0
  -33.8457  -11.2493  -24.4160 H   0  0  0  0  0  0  0  0  0  0  0  0
  -31.6786  -11.4264  -25.3578 H   0  0  0  0  0  0  0  0  0  0  0  0
  -31.5526  -11.5193  -22.2934 H   0  0  0  0  0  0  0  0  0  0  0  0
  -32.1547  -13.1864  -25.6198 H   0  0  0  0  0  0  0  0  0  0  0  0
  -33.8629  -15.2984  -24.0510 H   0  0  0  0  0  0  0  0  0  0  0  0
  -35.2383  -13.6895  -25.3633 H   0  0  0  0  0  0  0  0  0  0  0  0
  -34.2382  -14.0398  -26.8244 H   0  0  0  0  0  0  0  0  0  0  0  0
  -35.9497  -16.0395  -25.2835 H   0  0  0  0  0  0  0  0  0  0  0  0
  -34.3418  -16.3289  -27.8816 H   0  0  0  0  0  0  0  0  0  0  0  0
  -33.9034  -17.6482  -25.1706 H   0  0  0  0  0  0  0  0  0  0  0  0
  -32.9282  -17.8626  -26.6844 H   0  0  0  0  0  0  0  0  0  0  0  0
  -32.1867  -15.5469  -26.6037 H   0  0  0  0  0  0  0  0  0  0  0  0
  -31.8603  -16.3180  -25.0073 H   0  0  0  0  0  0  0  0  0  0  0  0
  -28.7716  -17.1854  -25.1332 H   0  0  0  0  0  0  0  0  0  0  0  0
  -29.6232  -17.5815  -26.6643 H   0  0  0  0  0  0  0  0  0  0  0  0
  -27.8441  -17.3339  -26.6643 H   0  0  0  0  0  0  0  0  0  0  0  0
  -27.1173   -9.0148  -27.6224 H   0  0  0  0  0  0  0  0  0  0  0  0
  -27.3425   -9.9773  -29.1222 H   0  0  0  0  0  0  0  0  0  0  0  0
  -27.7013   -8.2172  -29.1222 H   0  0  0  0  0  0  0  0  0  0  0  0
  -31.7405   -7.5712  -26.7636 H   0  0  0  0  0  0  0  0  0  0  0  0
  -31.0122   -6.6486  -28.1220 H   0  0  0  0  0  0  0  0  0  0  0  0
  -32.7722   -7.0081  -28.1220 H   0  0  0  0  0  0  0  0  0  0  0  0
  -34.9935   -9.7271  -29.9840 H   0  0  0  0  0  0  0  0  0  0  0  0
  -34.6075  -11.2779  -29.1671 H   0  0  0  0  0  0  0  0  0  0  0  0
  -36.3836  -10.3804  -27.2571 H   0  0  0  0  0  0  0  0  0  0  0  0
  -38.4721   -9.9774  -28.7017 H   0  0  0  0  0  0  0  0  0  0  0  0
  -37.3690   -9.8363  -30.2487 H   0  0  0  0  0  0  0  0  0  0  0  0
  -30.5019   -9.5766  -23.2314 H   0  0  0  0  0  0  0  0  0  0  0  0
  -29.7777  -10.1165  -24.7841 H   0  0  0  0  0  0  0  0  0  0  0  0
  -31.0955   -8.8958  -24.7841 H   0  0  0  0  0  0  0  0  0  0  0  0
  -32.5624  -13.2725  -21.2976 H   0  0  0  0  0  0  0  0  0  0  0  0
  -34.1128  -13.4223  -22.1922 H   0  0  0  0  0  0  0  0  0  0  0  0
  -32.9407  -14.7835  -22.1922 H   0  0  0  0  0  0  0  0  0  0  0  0
  -32.3718  -14.7037  -27.7714 H   0  0  0  0  0  0  0  0  0  0  0  0
  -33.0898  -14.1304  -29.3150 H   0  0  0  0  0  0  0  0  0  0  0  0
  -31.9539  -15.5220  -29.3150 H   0  0  0  0  0  0  0  0  0  0  0  0
  -27.3289  -12.4261  -30.6493 H   0  0  0  0  0  0  0  0  0  0  0  0
  -28.6699  -12.8511  -31.7664 H   0  0  0  0  0  0  0  0  0  0  0  0
  -27.9943  -11.1867  -31.7664 H   0  0  0  0  0  0  0  0  0  0  0  0
  -35.6635  -13.5146  -27.7786 H   0  0  0  0  0  0  0  0  0  0  0  0
  -35.4322  -14.9891  -28.7781 H   0  0  0  0  0  0  0  0  0  0  0  0
  -37.0170  -14.1437  -28.7781 H   0  0  0  0  0  0  0  0  0  0  0  0
  -26.4066  -16.1987  -27.4484 H   0  0  0  0  0  0  0  0  0  0  0  0
  -33.2234  -10.2230  -22.3826 H   0  0  0  0  0  0  0  0  0  0  0  0
  -35.8736  -18.2225  -26.3121 H   0  0  0  0  0  0  0  0  0  0  0  0
  1  2  1  0
  1 46  1  0
  1 47  2  0
  2  3  1  0
  2 45  1  0
  3  4  1  0
  4  5  1  0
  5  6  1  0
  6 45  1  0
  7  8  1  0
  7 45  1  0
  7 48  2  0
  8  9  1  0
  8 49  2  0
  9 10  1  0
  9 50  1  0
  9 51  1  6
 10 11  1  0
 10 34  1  0
 11 12  1  0
 12 13  1  0
 12 52  1  0
 13 14  1  0
 13 50  1  0
 14 15  1  0
 14 53  1  0
 15 16  1  0
 16 17  1  0
 16 35  1  0
 17 18  1  0
 18 19  2  3
 18 36  1  0
 19 20  1  0
 20 21  1  0
 20 37  1  0
 21 22  1  0
 21 54  2  0
 22 23  1  0
 23 24  1  0
 23 55  1  0
 24 25  1  0
 24 40  1  0
 25 26  1  0
 25 46  1  0
 26 27  2  3
 26 41  1  0
 28 27  1  0
 28 29  1  0
 28 33  1  0
 29 30  1  0
 30 31  1  0
 30 56  1  0
 31 32  1  0
 31 57  1  0
 32 33  1  0
 37 38  1  0
 38 39  2  0
 42 52  1  0
 43 53  1  0
 44 56  1  0
  2 58  1  1
  3 59  1  0
  3 60  1  0
  4 61  1  0
  4 62  1  0
  5 63  1  0
  5 64  1  0
  6 65  1  0
  6 66  1  0
 10 67  1  1
 11 68  1  0
 11 69  1  0
 12 70  1  1
 13 71  1  6
 14 72  1  6
 15 73  1  0
 15 74  1  0
 16 75  1  1
 17 76  1  0
 17 77  1  0
 19 78  1  0
 20 79  1  1
 22 80  1  0
 22 81  1  0
 23 82  1  1
 24 83  1  6
 25 84  1  1
 27 85  1  0
 28 86  1  1
 29 87  1  0
 29 88  1  0
 30 89  1  1
 31 90  1  6
 32 91  1  0
 32 92  1  0
 33 93  1  0
 33 94  1  0
 34 95  1  0
 34 96  1  0
 34 97  1  0
 35 98  1  0
 35 99  1  0
 35100  1  0
 36101  1  0
 36102  1  0
 36103  1  0
 37104  1  0
 37105  1  0
 38106  1  0
 39107  1  0
 39108  1  0
 40109  1  0
 40110  1  0
 40111  1  0
 41112  1  0
 41113  1  0
 41114  1  0
 42115  1  0
 42116  1  0
 42117  1  0
 43118  1  0
 43119  1  0
 43120  1  0
 44121  1  0
 44122  1  0
 44123  1  0
 51124  1  0
 55125  1  0
 57126  1  0
M  END
>  <filename_input>  (6) 
7U0U_FK5_docked.sdf

>  <pdb_id>  (6) 
7U0U_FK5

>  <pose_rank>  (6) 
5

>  <num_atoms_heavy>  (6) 
57

>  <num_torsions>  (6) 
7

>  <pose>  (6) 
[-29.435564087295674, -12.632492101708046, -22.44397029793806, 1.9372785675201356, 0.7001067044544887, -2.8631954956137955, 2.7594951866405903, -6.770600311339364, 2.1741115013742682, -0.8583630512925828, 0.08609197991709809, -2.2485466589763177, 4.365182506850915]

>  <energy>  (6) 
-643.216373671158

>  <inter_energy>  (6) 
-689.1158853378195

>  <intra_energy>  (6) 
42.30105628314005

>  <rmsd>  (6) 
7.6952

>  <sdf_rank>  (6) 
0

$$$$

     RDKit          3D

126129  0  0  0  0  0  0  0  0999 V2000
  -30.5553  -14.9778  -22.9026 C   0  0  0  0  0  0  0  0  0  0  0  0
  -30.9088  -16.3876  -23.2773 C   0  0  2  0  0  0  0  0  0  0  0  0
  -29.6578  -17.2678  -23.1687 C   0  0  0  0  0  0  0  0  0  0  0  0
  -28.6361  -16.9579  -24.2698 C   0  0  0  0  0  0  0  0  0  0  0  0
  -29.2669  -17.0531  -25.6636 C   0  0  0  0  0  0  0  0  0  0  0  0
  -30.4939  -16.1368  -25.7688 C   0  0  0  0  0  0  0  0  0  0  0  0
  -32.6954  -16.7476  -24.8652 C   0  0  0  0  0  0  0  0  0  0  0  0
  -33.2684  -16.8526  -26.1249 C   0  0  0  0  0  0  0  0  0  0  0  0
  -33.9549  -15.6669  -26.7914 C   0  0  1  0  0  0  0  0  0  0  0  0
  -34.6284  -14.7459  -25.7680 C   0  0  1  0  0  0  0  0  0  0  0  0
  -34.9327  -13.3807  -26.3945 C   0  0  0  0  0  0  0  0  0  0  0  0
  -33.7121  -12.8440  -27.1552 C   0  0  1  0  0  0  0  0  0  0  0  0
  -33.2810  -13.8654  -28.2051 C   0  0  1  0  0  0  0  0  0  0  0  0
  -32.0496  -13.4701  -29.0380 C   0  0  2  0  0  0  0  0  0  0  0  0
  -30.9142  -12.9086  -28.1867 C   0  0  0  0  0  0  0  0  0  0  0  0
  -29.5863  -12.7024  -28.9317 C   0  0  2  0  0  0  0  0  0  0  0  0
  -29.5936  -11.3510  -29.6608 C   0  0  0  0  0  0  0  0  0  0  0  0
  -29.2884  -10.2368  -28.6951 C   0  0  0  0  0  0  0  0  0  0  0  0
  -30.3962   -9.4510  -28.1423 C   0  0  0  0  0  0  0  0  0  0  0  0
  -30.1552   -8.3511  -27.1446 C   0  0  2  0  0  0  0  0  0  0  0  0
  -30.2934   -8.9431  -25.7766 C   0  0  0  0  0  0  0  0  0  0  0  0
  -29.1081   -9.5392  -25.0358 C   0  0  0  0  0  0  0  0  0  0  0  0
  -29.5280  -10.4127  -23.8510 C   0  0  1  0  0  0  0  0  0  0  0  0
  -29.8978  -11.8512  -24.2540 C   0  0  2  0  0  0  0  0  0  0  0  0
  -30.4385  -12.7107  -23.1071 C   0  0  1  0  0  0  0  0  0  0  0  0
  -31.6681  -12.0552  -22.5244 C   0  0  0  0  0  0  0  0  0  0  0  0
  -31.8770  -12.1242  -21.0856 C   0  0  0  0  0  0  0  0  0  0  0  0
  -33.0163  -11.4405  -20.3878 C   0  0  1  0  0  0  0  0  0  0  0  0
  -34.0654  -12.5056  -20.0714 C   0  0  0  0  0  0  0  0  0  0  0  0
  -35.2386  -11.8953  -19.3139 C   0  0  2  0  0  0  0  0  0  0  0  0
  -34.7540  -11.2561  -18.0106 C   0  0  1  0  0  0  0  0  0  0  0  0
  -33.6760  -10.2082  -18.2811 C   0  0  0  0  0  0  0  0  0  0  0  0
  -32.5019  -10.7922  -19.0893 C   0  0  0  0  0  0  0  0  0  0  0  0
  -35.8993  -15.3596  -25.1638 C   0  0  0  0  0  0  0  0  0  0  0  0
  -29.3064  -13.8451  -29.9188 C   0  0  0  0  0  0  0  0  0  0  0  0
  -27.8601   -9.9368  -28.3339 C   0  0  0  0  0  0  0  0  0  0  0  0
  -31.2474   -7.3024  -27.3379 C   0  0  0  0  0  0  0  0  0  0  0  0
  -32.1804   -7.7500  -28.4466 C   0  0  0  0  0  0  0  0  0  0  0  0
  -33.5879   -7.9752  -28.1296 C   0  0  0  0  0  0  0  0  0  0  0  0
  -28.7147  -12.5871  -24.8905 C   0  0  0  0  0  0  0  0  0  0  0  0
  -32.6317  -11.3362  -23.4400 C   0  0  0  0  0  0  0  0  0  0  0  0
  -35.4262  -11.3417  -27.6703 C   0  0  0  0  0  0  0  0  0  0  0  0
  -32.7820  -11.3035  -29.5480 C   0  0  0  0  0  0  0  0  0  0  0  0
  -35.7793  -14.2034  -19.3979 C   0  0  0  0  0  0  0  0  0  0  0  0
  -31.4112  -16.4192  -24.6568 N   0  0  0  0  0  0  0  0  0  0  0  0
  -30.7878  -13.9782  -23.6588 O   0  0  0  0  0  0  0  0  0  0  0  0
  -29.9766  -14.8113  -21.6671 O   0  0  0  0  0  0  0  0  0  0  0  0
  -33.5059  -16.9935  -23.7767 O   0  0  0  0  0  0  0  0  0  0  0  0
  -33.2108  -18.0569  -26.8179 O   0  0  0  0  0  0  0  0  0  0  0  0
  -32.9152  -15.0301  -27.4976 O   0  0  0  0  0  0  0  0  0  0  0  0
  -34.9432  -16.1527  -27.7217 O   0  0  0  0  0  0  0  0  0  0  0  0
  -34.0356  -11.5996  -27.7600 O   0  0  0  0  0  0  0  0  0  0  0  0
  -32.3899  -12.5632  -30.0602 O   0  0  0  0  0  0  0  0  0  0  0  0
  -31.5661   -8.9517  -25.2199 O   0  0  0  0  0  0  0  0  0  0  0  0
  -28.4405  -10.4431  -22.9538 O   0  0  0  0  0  0  0  0  0  0  0  0
  -36.1740  -12.8989  -18.9979 O   0  0  0  0  0  0  0  0  0  0  0  0
  -35.8622  -10.6523  -17.3638 O   0  0  0  0  0  0  0  0  0  0  0  0
  -31.6873  -16.7649  -22.5979 H   0  0  0  0  0  0  0  0  0  0  0  0
  -29.1871  -17.0956  -22.1895 H   0  0  0  0  0  0  0  0  0  0  0  0
  -29.9707  -18.3162  -23.2826 H   0  0  0  0  0  0  0  0  0  0  0  0
  -28.2485  -15.9392  -24.1216 H   0  0  0  0  0  0  0  0  0  0  0  0
  -27.8249  -17.6982  -24.2065 H   0  0  0  0  0  0  0  0  0  0  0  0
  -28.5248  -16.7504  -26.4171 H   0  0  0  0  0  0  0  0  0  0  0  0
  -29.5857  -18.0916  -25.8369 H   0  0  0  0  0  0  0  0  0  0  0  0
  -30.1722  -15.0860  -25.7213 H   0  0  0  0  0  0  0  0  0  0  0  0
  -31.0078  -16.3195  -26.7241 H   0  0  0  0  0  0  0  0  0  0  0  0
  -33.9166  -14.6127  -24.9399 H   0  0  0  0  0  0  0  0  0  0  0  0
  -35.7757  -13.4848  -27.0935 H   0  0  0  0  0  0  0  0  0  0  0  0
  -35.1857  -12.6733  -25.5911 H   0  0  0  0  0  0  0  0  0  0  0  0
  -32.8765  -12.6829  -26.4582 H   0  0  0  0  0  0  0  0  0  0  0  0
  -34.1221  -13.9742  -28.9056 H   0  0  0  0  0  0  0  0  0  0  0  0
  -31.6825  -14.3995  -29.4977 H   0  0  0  0  0  0  0  0  0  0  0  0
  -31.2361  -11.9356  -27.7870 H   0  0  0  0  0  0  0  0  0  0  0  0
  -30.7159  -13.6571  -27.4055 H   0  0  0  0  0  0  0  0  0  0  0  0
  -28.7773  -12.7045  -28.1864 H   0  0  0  0  0  0  0  0  0  0  0  0
  -28.8322  -11.3624  -30.4546 H   0  0  0  0  0  0  0  0  0  0  0  0
  -30.5894  -11.1844  -30.0974 H   0  0  0  0  0  0  0  0  0  0  0  0
  -31.4250   -9.6704  -28.4639 H   0  0  0  0  0  0  0  0  0  0  0  0
  -29.1603   -7.8994  -27.2721 H   0  0  0  0  0  0  0  0  0  0  0  0
  -28.5280  -10.1552  -25.7387 H   0  0  0  0  0  0  0  0  0  0  0  0
  -28.5124   -8.7046  -24.6376 H   0  0  0  0  0  0  0  0  0  0  0  0
  -30.4336   -9.9791  -23.4016 H   0  0  0  0  0  0  0  0  0  0  0  0
  -30.7087  -11.7198  -24.9855 H   0  0  0  0  0  0  0  0  0  0  0  0
  -29.6883  -12.8234  -22.3105 H   0  0  0  0  0  0  0  0  0  0  0  0
  -31.1656  -12.7055  -20.4806 H   0  0  0  0  0  0  0  0  0  0  0  0
  -33.4543  -10.6526  -21.0183 H   0  0  0  0  0  0  0  0  0  0  0  0
  -34.4310  -12.9435  -21.0119 H   0  0  0  0  0  0  0  0  0  0  0  0
  -33.6039  -13.2823  -19.4439 H   0  0  0  0  0  0  0  0  0  0  0  0
  -35.7034  -11.1291  -19.9517 H   0  0  0  0  0  0  0  0  0  0  0  0
  -34.3142  -12.0339  -17.3690 H   0  0  0  0  0  0  0  0  0  0  0  0
  -34.1210   -9.3777  -18.8488 H   0  0  0  0  0  0  0  0  0  0  0  0
  -33.2860   -9.8605  -17.3131 H   0  0  0  0  0  0  0  0  0  0  0  0
  -31.9871  -11.5524  -18.4835 H   0  0  0  0  0  0  0  0  0  0  0  0
  -31.8059   -9.9801  -19.3464 H   0  0  0  0  0  0  0  0  0  0  0  0
  -35.8352  -15.3287  -24.0661 H   0  0  0  0  0  0  0  0  0  0  0  0
  -36.7771  -14.7861  -25.4962 H   0  0  0  0  0  0  0  0  0  0  0  0
  -35.9961  -16.4037  -25.4962 H   0  0  0  0  0  0  0  0  0  0  0  0
  -29.0809  -14.7654  -29.3600 H   0  0  0  0  0  0  0  0  0  0  0  0
  -30.1912  -14.0079  -30.5518 H   0  0  0  0  0  0  0  0  0  0  0  0
  -28.4465  -13.5805  -30.5518 H   0  0  0  0  0  0  0  0  0  0  0  0
  -27.7556   -9.9149  -27.2391 H   0  0  0  0  0  0  0  0  0  0  0  0
  -27.2052  -10.7170  -28.7491 H   0  0  0  0  0  0  0  0  0  0  0  0
  -27.5744   -8.9591  -28.7491 H   0  0  0  0  0  0  0  0  0  0  0  0
  -31.8159   -7.1872  -26.4032 H   0  0  0  0  0  0  0  0  0  0  0  0
  -30.7901   -6.3389  -27.6072 H   0  0  0  0  0  0  0  0  0  0  0  0
  -31.8043   -7.9019  -29.4691 H   0  0  0  0  0  0  0  0  0  0  0  0
  -34.2839   -8.3001  -28.9170 H   0  0  0  0  0  0  0  0  0  0  0  0
  -33.9522   -7.8199  -27.1034 H   0  0  0  0  0  0  0  0  0  0  0  0
  -28.0656  -12.9909  -24.0996 H   0  0  0  0  0  0  0  0  0  0  0  0
  -29.0889  -13.4120  -25.5145 H   0  0  0  0  0  0  0  0  0  0  0  0
  -28.1401  -11.8868  -25.5145 H   0  0  0  0  0  0  0  0  0  0  0  0
  -33.3691  -10.7860  -22.8371 H   0  0  0  0  0  0  0  0  0  0  0  0
  -32.0765  -10.6298  -24.0747 H   0  0  0  0  0  0  0  0  0  0  0  0
  -33.1508  -12.0695  -24.0747 H   0  0  0  0  0  0  0  0  0  0  0  0
  -35.7215  -11.2869  -26.6121 H   0  0  0  0  0  0  0  0  0  0  0  0
  -35.6545  -10.3859  -28.1646 H   0  0  0  0  0  0  0  0  0  0  0  0
  -35.9821  -12.1521  -28.1646 H   0  0  0  0  0  0  0  0  0  0  0  0
  -32.7720  -11.3355  -28.4485 H   0  0  0  0  0  0  0  0  0  0  0  0
  -32.0817  -10.5311  -29.8987 H   0  0  0  0  0  0  0  0  0  0  0  0
  -33.7969  -11.0649  -29.8987 H   0  0  0  0  0  0  0  0  0  0  0  0
  -35.5929  -14.8197  -18.5061 H   0  0  0  0  0  0  0  0  0  0  0  0
  -36.5794  -14.6604  -19.9988 H   0  0  0  0  0  0  0  0  0  0  0  0
  -34.8601  -14.1403  -19.9988 H   0  0  0  0  0  0  0  0  0  0  0  0
  -35.7101  -16.5295  -27.2217 H   0  0  0  0  0  0  0  0  0  0  0  0
  -28.7796  -10.4336  -22.0237 H   0  0  0  0  0  0  0  0  0  0  0  0
  -35.7463  -10.7155  -16.3826 H   0  0  0  0  0  0  0  0  0  0  0  0
  1  2  1  0
  1 46  1  0
  1 47  2  0
  2  3  1  0
  2 45  1  0
  3  4  1  0
  4  5  1  0
  5  6  1  0
  6 45  1  0
  7  8  1  0
  7 45  1  0
  7 48  2  0
  8  9  1  0
  8 49  2  0
  9 10  1  0
  9 50  1  0
  9 51  1  6
 10 11  1  0
 10 34  1  0
 11 12  1  0
 12 13  1  0
 12 52  1  0
 13 14  1  0
 13 50  1  0
 14 15  1  0
 14 53  1  0
 15 16  1  0
 16 17  1  0
 16 35  1  0
 17 18  1  0
 18 19  2  3
 18 36  1  0
 19 20  1  0
 20 21  1  0
 20 37  1  0
 21 22  1  0
 21 54  2  0
 22 23  1  0
 23 24  1  0
 23 55  1  0
 24 25  1  0
 24 40  1  0
 25 26  1  0
 25 46  1  0
 26 27  2  3
 26 41  1  0
 28 27  1  0
 28 29  1  0
 28 33  1  0
 29 30  1  0
 30 31  1  0
 30 56  1  0
 31 32  1  0
 31 57  1  0
 32 33  1  0
 37 38  1  0
 38 39  2  0
 42 52  1  0
 43 53  1  0
 44 56  1  0
  2 58  1  1
  3 59  1  0
  3 60  1  0
  4 61  1  0
  4 62  1  0
  5 63  1  0
  5 64  1  0
  6 65  1  0
  6 66  1  0
 10 67  1  1
 11 68  1  0
 11 69  1  0
 12 70  1  1
 13 71  1  6
 14 72  1  6
 15 73  1  0
 15 74  1  0
 16 75  1  1
 17 76  1  0
 17 77  1  0
 19 78  1  0
 20 79  1  1
 22 80  1  0
 22 81  1  0
 23 82  1  1
 24 83  1  6
 25 84  1  1
 27 85  1  0
 28 86  1  6
 29 87  1  0
 29 88  1  0
 30 89  1  6
 31 90  1  1
 32 91  1  0
 32 92  1  0
 33 93  1  0
 33 94  1  0
 34 95  1  0
 34 96  1  0
 34 97  1  0
 35 98  1  0
 35 99  1  0
 35100  1  0
 36101  1  0
 36102  1  0
 36103  1  0
 37104  1  0
 37105  1  0
 38106  1  0
 39107  1  0
 39108  1  0
 40109  1  0
 40110  1  0
 40111  1  0
 41112  1  0
 41113  1  0
 41114  1  0
 42115  1  0
 42116  1  0
 42117  1  0
 43118  1  0
 43119  1  0
 43120  1  0
 44121  1  0
 44122  1  0
 44123  1  0
 51124  1  0
 55125  1  0
 57126  1  0
M  END
>  <filename_input>  (7) 
7U0U_FK5_docked.sdf

>  <pdb_id>  (7) 
7U0U_FK5

>  <pose_rank>  (7) 
6

>  <num_atoms_heavy>  (7) 
57

>  <num_torsions>  (7) 
7

>  <pose>  (7) 
[-30.55531715416054, -14.977774545553547, -22.902640546139676, 2.0928068370384714, -1.4996976824404122, -3.888800706416133, -0.5255868526501519, -0.7710424674510121, 1.4031585944226737, -1.6514341818397715, 2.6329227490699774, 1.0159696874869497, -2.2851078042371396]

>  <energy>  (7) 
-587.8723974376421

>  <inter_energy>  (7) 
-714.8868629333634

>  <intra_energy>  (7) 
127.3290235469343

>  <rmsd>  (7) 
5.2694

>  <sdf_rank>  (7) 
0

$$$$

     RDKit          3D

126129  0  0  0  0  0  0  0  0999 V2000
  -30.0646  -13.0740  -22.3087 C   0  0  0  0  0  0  0  0  0  0  0  0
  -28.6609  -12.6318  -22.0141 C   0  0  2  0  0  0  0  0  0  0  0  0
  -28.7006  -11.3946  -21.1089 C   0  0  0  0  0  0  0  0  0  0  0  0
  -29.2108  -10.1526  -21.8503 C   0  0  0  0  0  0  0  0  0  0  0  0
  -28.4005   -9.8872  -23.1242 C   0  0  0  0  0  0  0  0  0  0  0  0
  -28.4034  -11.1210  -24.0373 C   0  0  0  0  0  0  0  0  0  0  0  0
  -26.9444  -13.0617  -23.6609 C   0  0  0  0  0  0  0  0  0  0  0  0
  -26.1957  -12.8169  -24.8036 C   0  0  0  0  0  0  0  0  0  0  0  0
  -26.5568  -13.4437  -26.1445 C   0  0  1  0  0  0  0  0  0  0  0  0
  -27.1830  -14.8327  -25.9771 C   0  0  1  0  0  0  0  0  0  0  0  0
  -27.9090  -15.2512  -27.2604 C   0  0  0  0  0  0  0  0  0  0  0  0
  -28.8014  -14.1149  -27.7789 C   0  0  1  0  0  0  0  0  0  0  0  0
  -27.9540  -12.8625  -27.9905 C   0  0  1  0  0  0  0  0  0  0  0  0
  -28.7220  -11.6283  -28.4939 C   0  0  2  0  0  0  0  0  0  0  0  0
  -30.0298  -11.3971  -27.7418 C   0  0  0  0  0  0  0  0  0  0  0  0
  -30.7278  -10.0635  -28.0501 C   0  0  2  0  0  0  0  0  0  0  0  0
  -31.5806  -10.1945  -29.3202 C   0  0  0  0  0  0  0  0  0  0  0  0
  -32.8887  -10.8688  -29.0017 C   0  0  0  0  0  0  0  0  0  0  0  0
  -33.0370  -12.3009  -29.2795 C   0  0  0  0  0  0  0  0  0  0  0  0
  -34.3068  -13.0361  -28.9472 C   0  0  2  0  0  0  0  0  0  0  0  0
  -34.1427  -13.6281  -27.5820 C   0  0  0  0  0  0  0  0  0  0  0  0
  -34.5421  -12.8724  -26.3256 C   0  0  0  0  0  0  0  0  0  0  0  0
  -33.9499  -13.4834  -25.0531 C   0  0  1  0  0  0  0  0  0  0  0  0
  -32.5068  -13.0286  -24.7720 C   0  0  2  0  0  0  0  0  0  0  0  0
  -31.8477  -13.7186  -23.5737 C   0  0  1  0  0  0  0  0  0  0  0  0
  -31.8343  -15.2120  -23.7986 C   0  0  0  0  0  0  0  0  0  0  0  0
  -30.5546  -15.8712  -24.0140 C   0  0  0  0  0  0  0  0  0  0  0  0
  -30.4119  -17.3575  -24.1651 C   0  0  1  0  0  0  0  0  0  0  0  0
  -29.0131  -17.6298  -24.7171 C   0  0  0  0  0  0  0  0  0  0  0  0
  -28.7719  -19.1284  -24.8527 C   0  0  2  0  0  0  0  0  0  0  0  0
  -28.9249  -19.8157  -23.4940 C   0  0  1  0  0  0  0  0  0  0  0  0
  -30.3003  -19.5380  -22.8904 C   0  0  0  0  0  0  0  0  0  0  0  0
  -30.5852  -18.0276  -22.7896 C   0  0  0  0  0  0  0  0  0  0  0  0
  -26.1592  -15.8987  -25.5622 C   0  0  0  0  0  0  0  0  0  0  0  0
  -29.7183   -8.9153  -28.1956 C   0  0  0  0  0  0  0  0  0  0  0  0
  -34.0205  -10.0619  -28.4285 C   0  0  0  0  0  0  0  0  0  0  0  0
  -34.4643  -14.1694  -29.9575 C   0  0  0  0  0  0  0  0  0  0  0  0
  -35.0527  -15.3818  -29.2619 C   0  0  0  0  0  0  0  0  0  0  0  0
  -36.4964  -15.4357  -29.0494 C   0  0  0  0  0  0  0  0  0  0  0  0
  -32.4165  -11.5136  -24.5645 C   0  0  0  0  0  0  0  0  0  0  0  0
  -33.1364  -15.9787  -23.7769 C   0  0  0  0  0  0  0  0  0  0  0  0
  -28.4933  -15.1216  -29.8651 C   0  0  0  0  0  0  0  0  0  0  0  0
  -27.7833  -11.4882  -30.6362 C   0  0  0  0  0  0  0  0  0  0  0  0
  -26.4783  -18.5393  -24.7159 C   0  0  0  0  0  0  0  0  0  0  0  0
  -27.9760  -12.2981  -23.2694 N   0  0  0  0  0  0  0  0  0  0  0  0
  -30.5090  -13.2347  -23.4927 O   0  0  0  0  0  0  0  0  0  0  0  0
  -30.8580  -13.3247  -21.2146 O   0  0  0  0  0  0  0  0  0  0  0  0
  -26.5989  -14.1576  -22.8982 O   0  0  0  0  0  0  0  0  0  0  0  0
  -25.0948  -11.9693  -24.7464 O   0  0  0  0  0  0  0  0  0  0  0  0
  -27.4416  -12.5125  -26.7235 O   0  0  0  0  0  0  0  0  0  0  0  0
  -25.3688  -13.5486  -26.9543 O   0  0  0  0  0  0  0  0  0  0  0  0
  -29.4282  -14.5147  -28.9899 O   0  0  0  0  0  0  0  0  0  0  0  0
  -28.9604  -11.7010  -29.8798 O   0  0  0  0  0  0  0  0  0  0  0  0
  -33.5783  -14.8953  -27.5089 O   0  0  0  0  0  0  0  0  0  0  0  0
  -34.7803  -13.0936  -23.9821 O   0  0  0  0  0  0  0  0  0  0  0  0
  -27.4658  -19.3588  -25.3248 O   0  0  0  0  0  0  0  0  0  0  0  0
  -28.7488  -21.2117  -23.6711 O   0  0  0  0  0  0  0  0  0  0  0  0
  -28.1177  -13.4436  -21.5080 H   0  0  0  0  0  0  0  0  0  0  0  0
  -29.3676  -11.5988  -20.2584 H   0  0  0  0  0  0  0  0  0  0  0  0
  -27.6740  -11.1893  -20.7711 H   0  0  0  0  0  0  0  0  0  0  0  0
  -30.2652  -10.3069  -22.1229 H   0  0  0  0  0  0  0  0  0  0  0  0
  -29.1019   -9.2839  -21.1844 H   0  0  0  0  0  0  0  0  0  0  0  0
  -28.8445   -9.0377  -23.6639 H   0  0  0  0  0  0  0  0  0  0  0  0
  -27.3621   -9.6596  -22.8413 H   0  0  0  0  0  0  0  0  0  0  0  0
  -29.4185  -11.2863  -24.4276 H   0  0  0  0  0  0  0  0  0  0  0  0
  -27.7106  -10.9586  -24.8762 H   0  0  0  0  0  0  0  0  0  0  0  0
  -27.9125  -14.7583  -25.1572 H   0  0  0  0  0  0  0  0  0  0  0  0
  -27.1644  -15.5043  -28.0295 H   0  0  0  0  0  0  0  0  0  0  0  0
  -28.5424  -16.1227  -27.0381 H   0  0  0  0  0  0  0  0  0  0  0  0
  -29.5860  -13.8877  -27.0421 H   0  0  0  0  0  0  0  0  0  0  0  0
  -27.2064  -13.1116  -28.7581 H   0  0  0  0  0  0  0  0  0  0  0  0
  -28.0732  -10.7634  -28.2916 H   0  0  0  0  0  0  0  0  0  0  0  0
  -30.7213  -12.2123  -28.0009 H   0  0  0  0  0  0  0  0  0  0  0  0
  -29.7697  -11.3688  -26.6734 H   0  0  0  0  0  0  0  0  0  0  0  0
  -31.3830   -9.8212  -27.2003 H   0  0  0  0  0  0  0  0  0  0  0  0
  -31.7785   -9.1930  -29.7298 H   0  0  0  0  0  0  0  0  0  0  0  0
  -31.0347  -10.8011  -30.0578 H   0  0  0  0  0  0  0  0  0  0  0  0
  -32.2022  -12.8493  -29.7406 H   0  0  0  0  0  0  0  0  0  0  0  0
  -35.1809  -12.3689  -28.9772 H   0  0  0  0  0  0  0  0  0  0  0  0
  -34.1905  -11.8338  -26.4134 H   0  0  0  0  0  0  0  0  0  0  0  0
  -35.6374  -12.9263  -26.2404 H   0  0  0  0  0  0  0  0  0  0  0  0
  -33.9071  -14.5755  -25.1778 H   0  0  0  0  0  0  0  0  0  0  0  0
  -31.9554  -13.3274  -25.6757 H   0  0  0  0  0  0  0  0  0  0  0  0
  -32.3976  -13.5072  -22.6447 H   0  0  0  0  0  0  0  0  0  0  0  0
  -29.6484  -15.2500  -24.0687 H   0  0  0  0  0  0  0  0  0  0  0  0
  -31.1739  -17.7635  -24.8466 H   0  0  0  0  0  0  0  0  0  0  0  0
  -28.9164  -17.1572  -25.7057 H   0  0  0  0  0  0  0  0  0  0  0  0
  -28.2702  -17.2128  -24.0214 H   0  0  0  0  0  0  0  0  0  0  0  0
  -29.5095  -19.5367  -25.5594 H   0  0  0  0  0  0  0  0  0  0  0  0
  -28.1670  -19.4197  -22.8020 H   0  0  0  0  0  0  0  0  0  0  0  0
  -31.0685  -20.0039  -23.5250 H   0  0  0  0  0  0  0  0  0  0  0  0
  -30.3194  -19.9585  -21.8741 H   0  0  0  0  0  0  0  0  0  0  0  0
  -29.8844  -17.5731  -22.0738 H   0  0  0  0  0  0  0  0  0  0  0  0
  -31.6206  -17.8810  -22.4484 H   0  0  0  0  0  0  0  0  0  0  0  0
  -26.1088  -15.9512  -24.4646 H   0  0  0  0  0  0  0  0  0  0  0  0
  -26.4654  -16.8766  -25.9623 H   0  0  0  0  0  0  0  0  0  0  0  0
  -25.1698  -15.6324  -25.9623 H   0  0  0  0  0  0  0  0  0  0  0  0
  -29.4124   -8.5674  -27.1979 H   0  0  0  0  0  0  0  0  0  0  0  0
  -28.8352   -9.2711  -28.7465 H   0  0  0  0  0  0  0  0  0  0  0  0
  -30.1842   -8.0850  -28.7465 H   0  0  0  0  0  0  0  0  0  0  0  0
  -33.9746  -10.0947  -27.3299 H   0  0  0  0  0  0  0  0  0  0  0  0
  -33.9362   -9.0191  -28.7681 H   0  0  0  0  0  0  0  0  0  0  0  0
  -34.9789  -10.4818  -28.7681 H   0  0  0  0  0  0  0  0  0  0  0  0
  -35.1356  -13.8489  -30.7679 H   0  0  0  0  0  0  0  0  0  0  0  0
  -33.4815  -14.4269  -30.3791 H   0  0  0  0  0  0  0  0  0  0  0  0
  -34.4049  -16.2042  -28.9241 H   0  0  0  0  0  0  0  0  0  0  0  0
  -36.9463  -16.3048  -28.5471 H   0  0  0  0  0  0  0  0  0  0  0  0
  -37.1340  -14.6072  -29.3916 H   0  0  0  0  0  0  0  0  0  0  0  0
  -32.4033  -11.2912  -23.4873 H   0  0  0  0  0  0  0  0  0  0  0  0
  -31.4942  -11.1343  -25.0286 H   0  0  0  0  0  0  0  0  0  0  0  0
  -33.2873  -11.0274  -25.0286 H   0  0  0  0  0  0  0  0  0  0  0  0
  -33.4395  -16.1572  -22.7347 H   0  0  0  0  0  0  0  0  0  0  0  0
  -33.9144  -15.3945  -24.2902 H   0  0  0  0  0  0  0  0  0  0  0  0
  -33.0031  -16.9424  -24.2902 H   0  0  0  0  0  0  0  0  0  0  0  0
  -27.7142  -15.6274  -29.2759 H   0  0  0  0  0  0  0  0  0  0  0  0
  -29.0091  -15.8575  -30.4994 H   0  0  0  0  0  0  0  0  0  0  0  0
  -28.0310  -14.3509  -30.4994 H   0  0  0  0  0  0  0  0  0  0  0  0
  -26.9329  -11.3345  -29.9556 H   0  0  0  0  0  0  0  0  0  0  0  0
  -27.5913  -12.3662  -31.2704 H   0  0  0  0  0  0  0  0  0  0  0  0
  -27.9108  -10.5985  -31.2704 H   0  0  0  0  0  0  0  0  0  0  0  0
  -26.5656  -18.6117  -23.6217 H   0  0  0  0  0  0  0  0  0  0  0  0
  -25.4787  -18.8769  -25.0271 H   0  0  0  0  0  0  0  0  0  0  0  0
  -26.6259  -17.4946  -25.0271 H   0  0  0  0  0  0  0  0  0  0  0  0
  -24.5745  -13.6187  -26.3675 H   0  0  0  0  0  0  0  0  0  0  0  0
  -34.3329  -13.3036  -23.1243 H   0  0  0  0  0  0  0  0  0  0  0  0
  -28.6932  -21.6522  -22.7862 H   0  0  0  0  0  0  0  0  0  0  0  0
  1  2  1  0
  1 46  1  0
  1 47  2  0
  2  3  1  0
  2 45  1  0
  3  4  1  0
  4  5  1  0
  5  6  1  0
  6 45  1  0
  7  8  1  0
  7 45  1  0
  7 48  2  0
  8  9  1  0
  8 49  2  0
  9 10  1  0
  9 50  1  0
  9 51  1  6
 10 11  1  0
 10 34  1  0
 11 12  1  0
 12 13  1  0
 12 52  1  0
 13 14  1  0
 13 50  1  0
 14 15  1  0
 14 53  1  0
 15 16  1  0
 16 17  1  0
 16 35  1  0
 17 18  1  0
 18 19  2  3
 18 36  1  0
 19 20  1  0
 20 21  1  0
 20 37  1  0
 21 22  1  0
 21 54  2  0
 22 23  1  0
 23 24  1  0
 23 55  1  0
 24 25  1  0
 24 40  1  0
 25 26  1  0
 25 46  1  0
 26 27  2  3
 26 41  1  0
 28 27  1  0
 28 29  1  0
 28 33  1  0
 29 30  1  0
 30 31  1  0
 30 56  1  0
 31 32  1  0
 31 57  1  0
 32 33  1  0
 37 38  1  0
 38 39  2  0
 42 52  1  0
 43 53  1  0
 44 56  1  0
  2 58  1  1
  3 59  1  0
  3 60  1  0
  4 61  1  0
  4 62  1  0
  5 63  1  0
  5 64  1  0
  6 65  1  0
  6 66  1  0
 10 67  1  1
 11 68  1  0
 11 69  1  0
 12 70  1  1
 13 71  1  6
 14 72  1  6
 15 73  1  0
 15 74  1  0
 16 75  1  1
 17 76  1  0
 17 77  1  0
 19 78  1  0
 20 79  1  1
 22 80  1  0
 22 81  1  0
 23 82  1  6
 24 83  1  6
 25 84  1  1
 27 85  1  0
 28 86  1  6
 29 87  1  0
 29 88  1  0
 30 89  1  6
 31 90  1  1
 32 91  1  0
 32 92  1  0
 33 93  1  0
 33 94  1  0
 34 95  1  0
 34 96  1  0
 34 97  1  0
 35 98  1  0
 35 99  1  0
 35100  1  0
 36101  1  0
 36102  1  0
 36103  1  0
 37104  1  0
 37105  1  0
 38106  1  0
 39107  1  0
 39108  1  0
 40109  1  0
 40110  1  0
 40111  1  0
 41112  1  0
 41113  1  0
 41114  1  0
 42115  1  0
 42116  1  0
 42117  1  0
 43118  1  0
 43119  1  0
 43120  1  0
 44121  1  0
 44122  1  0
 44123  1  0
 51124  1  0
 55125  1  0
 57126  1  0
M  END
>  <filename_input>  (8) 
7U0U_FK5_docked.sdf

>  <pdb_id>  (8) 
7U0U_FK5

>  <pose_rank>  (8) 
7

>  <num_atoms_heavy>  (8) 
57

>  <num_torsions>  (8) 
7

>  <pose>  (8) 
[-30.06459497029372, -13.074023080942169, -22.308715981302253, -1.765799306706308, -1.263765766762164, 2.545093410131307, 3.9149526720275745, 0.3379190571367494, -4.181148799998919, -2.2846548962987323, 0.18340567019564638, -2.7790459480566434, -2.938071463949048]

>  <energy>  (8) 
-591.5788167195668

>  <inter_energy>  (8) 
-716.9138834578279

>  <intra_energy>  (8) 
130.99461002580347

>  <rmsd>  (8) 
7.999

>  <sdf_rank>  (8) 
0

$$$$

     RDKit          3D

126129  0  0  0  0  0  0  0  0999 V2000
  -29.0145  -16.9032  -25.6124 C   0  0  0  0  0  0  0  0  0  0  0  0
  -27.8888  -16.5586  -26.5435 C   0  0  2  0  0  0  0  0  0  0  0  0
  -26.5824  -17.1454  -25.9952 C   0  0  0  0  0  0  0  0  0  0  0  0
  -26.1054  -16.4144  -24.7340 C   0  0  0  0  0  0  0  0  0  0  0  0
  -25.9833  -14.9051  -24.9724 C   0  0  0  0  0  0  0  0  0  0  0  0
  -27.3102  -14.3263  -25.4831 C   0  0  0  0  0  0  0  0  0  0  0  0
  -28.0333  -14.5134  -27.8237 C   0  0  0  0  0  0  0  0  0  0  0  0
  -27.9082  -13.1501  -28.0513 C   0  0  0  0  0  0  0  0  0  0  0  0
  -29.0775  -12.1953  -27.8453 C   0  0  1  0  0  0  0  0  0  0  0  0
  -30.4216  -12.8588  -28.1653 C   0  0  1  0  0  0  0  0  0  0  0  0
  -31.5753  -12.0505  -27.5615 C   0  0  0  0  0  0  0  0  0  0  0  0
  -31.2806  -11.6850  -26.1000 C   0  0  1  0  0  0  0  0  0  0  0  0
  -29.9576  -10.9264  -26.0251 C   0  0  1  0  0  0  0  0  0  0  0  0
  -29.5202  -10.5087  -24.6107 C   0  0  2  0  0  0  0  0  0  0  0  0
  -29.6737  -11.6308  -23.5877 C   0  0  0  0  0  0  0  0  0  0  0  0
  -29.0513  -11.3439  -22.2125 C   0  0  2  0  0  0  0  0  0  0  0  0
  -30.0302  -10.5370  -21.3473 C   0  0  0  0  0  0  0  0  0  0  0  0
  -31.0687  -11.4481  -20.7486 C   0  0  0  0  0  0  0  0  0  0  0  0
  -32.3869  -11.5389  -21.3844 C   0  0  0  0  0  0  0  0  0  0  0  0
  -33.4510  -12.4605  -20.8534 C   0  0  2  0  0  0  0  0  0  0  0  0
  -33.3402  -13.7552  -21.5969 C   0  0  0  0  0  0  0  0  0  0  0  0
  -32.4582  -14.8907  -21.1052 C   0  0  0  0  0  0  0  0  0  0  0  0
  -32.1949  -15.9457  -22.1826 C   0  0  1  0  0  0  0  0  0  0  0  0
  -31.0455  -15.5718  -23.1352 C   0  0  2  0  0  0  0  0  0  0  0  0
  -30.8413  -16.5505  -24.2957 C   0  0  1  0  0  0  0  0  0  0  0  0
  -32.1125  -16.6413  -25.1062 C   0  0  0  0  0  0  0  0  0  0  0  0
  -32.6248  -15.4321  -25.7338 C   0  0  0  0  0  0  0  0  0  0  0  0
  -33.8301  -15.4186  -26.6279 C   0  0  1  0  0  0  0  0  0  0  0  0
  -34.4107  -14.0055  -26.5932 C   0  0  0  0  0  0  0  0  0  0  0  0
  -35.6154  -13.8971  -27.5203 C   0  0  2  0  0  0  0  0  0  0  0  0
  -35.2140  -14.2467  -28.9551 C   0  0  1  0  0  0  0  0  0  0  0  0
  -34.5950  -15.6413  -29.0274 C   0  0  0  0  0  0  0  0  0  0  0  0
  -33.4046  -15.7884  -28.0609 C   0  0  0  0  0  0  0  0  0  0  0  0
  -30.6366  -13.0674  -29.6709 C   0  0  0  0  0  0  0  0  0  0  0  0
  -27.7106  -10.6057  -22.3396 C   0  0  0  0  0  0  0  0  0  0  0  0
  -30.7452  -12.2271  -19.5040 C   0  0  0  0  0  0  0  0  0  0  0  0
  -34.8065  -11.8311  -21.1640 C   0  0  0  0  0  0  0  0  0  0  0  0
  -35.6240  -11.7492  -19.8893 C   0  0  0  0  0  0  0  0  0  0  0  0
  -35.7798  -12.9534  -19.0782 C   0  0  0  0  0  0  0  0  0  0  0  0
  -29.7145  -15.4222  -22.3919 C   0  0  0  0  0  0  0  0  0  0  0  0
  -32.8037  -17.9766  -25.2575 C   0  0  0  0  0  0  0  0  0  0  0  0
  -33.2889  -10.5965  -26.5923 C   0  0  0  0  0  0  0  0  0  0  0  0
  -29.9719   -8.2478  -25.0283 C   0  0  0  0  0  0  0  0  0  0  0  0
  -37.3594  -12.4395  -26.8417 C   0  0  0  0  0  0  0  0  0  0  0  0
  -27.7645  -15.0991  -26.6468 N   0  0  0  0  0  0  0  0  0  0  0  0
  -29.7923  -16.0282  -25.1079 O   0  0  0  0  0  0  0  0  0  0  0  0
  -29.1835  -18.2403  -25.3426 O   0  0  0  0  0  0  0  0  0  0  0  0
  -28.4633  -15.2956  -28.8751 O   0  0  0  0  0  0  0  0  0  0  0  0
  -26.6893  -12.6217  -28.4627 O   0  0  0  0  0  0  0  0  0  0  0  0
  -28.9655  -11.8134  -26.4937 O   0  0  0  0  0  0  0  0  0  0  0  0
  -28.9010  -11.0400  -28.6894 O   0  0  0  0  0  0  0  0  0  0  0  0
  -32.3456  -10.9014  -25.5796 O   0  0  0  0  0  0  0  0  0  0  0  0
  -30.2052   -9.3563  -24.1799 O   0  0  0  0  0  0  0  0  0  0  0  0
  -34.0598  -13.8654  -22.7800 O   0  0  0  0  0  0  0  0  0  0  0  0
  -31.8778  -17.1473  -21.5160 O   0  0  0  0  0  0  0  0  0  0  0  0
  -36.1106  -12.5794  -27.5039 O   0  0  0  0  0  0  0  0  0  0  0  0
  -36.3699  -14.1890  -29.7747 O   0  0  0  0  0  0  0  0  0  0  0  0
  -28.0936  -16.9777  -27.5397 H   0  0  0  0  0  0  0  0  0  0  0  0
  -26.7450  -18.2054  -25.7506 H   0  0  0  0  0  0  0  0  0  0  0  0
  -25.8082  -17.0279  -26.7678 H   0  0  0  0  0  0  0  0  0  0  0  0
  -26.8278  -16.5911  -23.9235 H   0  0  0  0  0  0  0  0  0  0  0  0
  -25.1122  -16.8029  -24.4645 H   0  0  0  0  0  0  0  0  0  0  0  0
  -25.7141  -14.4110  -24.0272 H   0  0  0  0  0  0  0  0  0  0  0  0
  -25.2061  -14.7290  -25.7306 H   0  0  0  0  0  0  0  0  0  0  0  0
  -28.0664  -14.3839  -24.6864 H   0  0  0  0  0  0  0  0  0  0  0  0
  -27.1645  -13.2756  -25.7743 H   0  0  0  0  0  0  0  0  0  0  0  0
  -30.4023  -13.8586  -27.7068 H   0  0  0  0  0  0  0  0  0  0  0  0
  -31.7115  -11.1270  -28.1435 H   0  0  0  0  0  0  0  0  0  0  0  0
  -32.4887  -12.6626  -27.5939 H   0  0  0  0  0  0  0  0  0  0  0  0
  -31.1959  -12.5992  -25.4942 H   0  0  0  0  0  0  0  0  0  0  0  0
  -30.0886  -10.0024  -26.6075 H   0  0  0  0  0  0  0  0  0  0  0  0
  -28.4472  -10.2768  -24.6805 H   0  0  0  0  0  0  0  0  0  0  0  0
  -30.7482  -11.8172  -23.4440 H   0  0  0  0  0  0  0  0  0  0  0  0
  -29.1317  -12.4963  -23.9964 H   0  0  0  0  0  0  0  0  0  0  0  0
  -28.8516  -12.3093  -21.7244 H   0  0  0  0  0  0  0  0  0  0  0  0
  -29.4748  -10.0386  -20.5391 H   0  0  0  0  0  0  0  0  0  0  0  0
  -30.5311   -9.7870  -21.9771 H   0  0  0  0  0  0  0  0  0  0  0  0
  -32.6023  -10.9203  -22.2681 H   0  0  0  0  0  0  0  0  0  0  0  0
  -33.3413  -12.6250  -19.7714 H   0  0  0  0  0  0  0  0  0  0  0  0
  -31.4943  -14.4719  -20.7803 H   0  0  0  0  0  0  0  0  0  0  0  0
  -32.9869  -15.3867  -20.2779 H   0  0  0  0  0  0  0  0  0  0  0  0
  -33.0942  -16.0359  -22.8097 H   0  0  0  0  0  0  0  0  0  0  0  0
  -31.3595  -14.6075  -23.5614 H   0  0  0  0  0  0  0  0  0  0  0  0
  -30.5871  -17.5546  -23.9254 H   0  0  0  0  0  0  0  0  0  0  0  0
  -32.1034  -14.4824  -25.5437 H   0  0  0  0  0  0  0  0  0  0  0  0
  -34.5835  -16.1462  -26.2918 H   0  0  0  0  0  0  0  0  0  0  0  0
  -34.7229  -13.7681  -25.5655 H   0  0  0  0  0  0  0  0  0  0  0  0
  -33.6394  -13.2971  -26.9300 H   0  0  0  0  0  0  0  0  0  0  0  0
  -36.3874  -14.5982  -27.1705 H   0  0  0  0  0  0  0  0  0  0  0  0
  -34.4610  -13.5253  -29.3051 H   0  0  0  0  0  0  0  0  0  0  0  0
  -35.3614  -16.3853  -28.7645 H   0  0  0  0  0  0  0  0  0  0  0  0
  -34.2260  -15.7994  -30.0515 H   0  0  0  0  0  0  0  0  0  0  0  0
  -32.5920  -15.1202  -28.3818 H   0  0  0  0  0  0  0  0  0  0  0  0
  -33.0609  -16.8332  -28.0734 H   0  0  0  0  0  0  0  0  0  0  0  0
  -31.4182  -13.8254  -29.8282 H   0  0  0  0  0  0  0  0  0  0  0  0
  -30.9482  -12.1184  -30.1317 H   0  0  0  0  0  0  0  0  0  0  0  0
  -29.6976  -13.4079  -30.1317 H   0  0  0  0  0  0  0  0  0  0  0  0
  -27.3154  -10.3881  -21.3364 H   0  0  0  0  0  0  0  0  0  0  0  0
  -26.9949  -11.2370  -22.8867 H   0  0  0  0  0  0  0  0  0  0  0  0
  -27.8613   -9.6634  -22.8867 H   0  0  0  0  0  0  0  0  0  0  0  0
  -30.9955  -11.6242  -18.6186 H   0  0  0  0  0  0  0  0  0  0  0  0
  -31.3313  -13.1579  -19.4914 H   0  0  0  0  0  0  0  0  0  0  0  0
  -29.6723  -12.4692  -19.4914 H   0  0  0  0  0  0  0  0  0  0  0  0
  -34.6578  -10.8200  -21.5709 H   0  0  0  0  0  0  0  0  0  0  0  0
  -35.3382  -12.4471  -21.9042 H   0  0  0  0  0  0  0  0  0  0  0  0
  -36.0903  -10.8015  -19.5818 H   0  0  0  0  0  0  0  0  0  0  0  0
  -36.3682  -12.9187  -18.1495 H   0  0  0  0  0  0  0  0  0  0  0  0
  -35.3088  -13.8953  -19.3960 H   0  0  0  0  0  0  0  0  0  0  0  0
  -29.8960  -15.4426  -21.3072 H   0  0  0  0  0  0  0  0  0  0  0  0
  -29.0456  -16.2508  -22.6674 H   0  0  0  0  0  0  0  0  0  0  0  0
  -29.2462  -14.4657  -22.6674 H   0  0  0  0  0  0  0  0  0  0  0  0
  -33.0192  -18.3929  -24.2624 H   0  0  0  0  0  0  0  0  0  0  0  0
  -33.7452  -17.8417  -25.8102 H   0  0  0  0  0  0  0  0  0  0  0  0
  -32.1499  -18.6674  -25.8102 H   0  0  0  0  0  0  0  0  0  0  0  0
  -34.2382  -10.2898  -26.1288 H   0  0  0  0  0  0  0  0  0  0  0  0
  -32.9042   -9.7770  -27.2171 H   0  0  0  0  0  0  0  0  0  0  0  0
  -33.4566  -11.4862  -27.2171 H   0  0  0  0  0  0  0  0  0  0  0  0
  -29.7834   -7.3522  -24.4179 H   0  0  0  0  0  0  0  0  0  0  0  0
  -29.0966   -8.4498  -25.6631 H   0  0  0  0  0  0  0  0  0  0  0  0
  -30.8543   -8.0797  -25.6631 H   0  0  0  0  0  0  0  0  0  0  0  0
  -37.2012  -12.4572  -25.7533 H   0  0  0  0  0  0  0  0  0  0  0  0
  -37.8220  -11.4840  -27.1295 H   0  0  0  0  0  0  0  0  0  0  0  0
  -38.0219  -13.2691  -27.1295 H   0  0  0  0  0  0  0  0  0  0  0  0
  -28.7780  -10.2353  -28.1260 H   0  0  0  0  0  0  0  0  0  0  0  0
  -31.9161  -17.0018  -20.5375 H   0  0  0  0  0  0  0  0  0  0  0  0
  -37.1776  -14.1486  -29.2037 H   0  0  0  0  0  0  0  0  0  0  0  0
  1  2  1  0
  1 46  1  0
  1 47  2  0
  2  3  1  0
  2 45  1  0
  3  4  1  0
  4  5  1  0
  5  6  1  0
  6 45  1  0
  7  8  1  0
  7 45  1  0
  7 48  2  0
  8  9  1  0
  8 49  2  0
  9 10  1  0
  9 50  1  0
  9 51  1  6
 10 11  1  0
 10 34  1  0
 11 12  1  0
 12 13  1  0
 12 52  1  0
 13 14  1  0
 13 50  1  0
 14 15  1  0
 14 53  1  0
 15 16  1  0
 16 17  1  0
 16 35  1  0
 17 18  1  0
 18 19  2  3
 18 36  1  0
 19 20  1  0
 20 21  1  0
 20 37  1  0
 21 22  1  0
 21 54  2  0
 22 23  1  0
 23 24  1  0
 23 55  1  0
 24 25  1  0
 24 40  1  0
 25 26  1  0
 25 46  1  0
 26 27  2  3
 26 41  1  0
 28 27  1  0
 28 29  1  0
 28 33  1  0
 29 30  1  0
 30 31  1  0
 30 56  1  0
 31 32  1  0
 31 57  1  0
 32 33  1  0
 37 38  1  0
 38 39  2  0
 42 52  1  0
 43 53  1  0
 44 56  1  0
  2 58  1  6
  3 59  1  0
  3 60  1  0
  4 61  1  0
  4 62  1  0
  5 63  1  0
  5 64  1  0
  6 65  1  0
  6 66  1  0
 10 67  1  1
 11 68  1  0
 11 69  1  0
 12 70  1  1
 13 71  1  6
 14 72  1  6
 15 73  1  0
 15 74  1  0
 16 75  1  1
 17 76  1  0
 17 77  1  0
 19 78  1  0
 20 79  1  1
 22 80  1  0
 22 81  1  0
 23 82  1  6
 24 83  1  6
 25 84  1  1
 27 85  1  0
 28 86  1  1
 29 87  1  0
 29 88  1  0
 30 89  1  1
 31 90  1  6
 32 91  1  0
 32 92  1  0
 33 93  1  0
 33 94  1  0
 34 95  1  0
 34 96  1  0
 34 97  1  0
 35 98  1  0
 35 99  1  0
 35100  1  0
 36101  1  0
 36102  1  0
 36103  1  0
 37104  1  0
 37105  1  0
 38106  1  0
 39107  1  0
 39108  1  0
 40109  1  0
 40110  1  0
 40111  1  0
 41112  1  0
 41113  1  0
 41114  1  0
 42115  1  0
 42116  1  0
 42117  1  0
 43118  1  0
 43119  1  0
 43120  1  0
 44121  1  0
 44122  1  0
 44123  1  0
 51124  1  0
 55125  1  0
 57126  1  0
M  END
>  <filename_input>  (9) 
7U0U_FK5_docked.sdf

>  <pdb_id>  (9) 
7U0U_FK5

>  <pose_rank>  (9) 
8

>  <num_atoms_heavy>  (9) 
57

>  <num_torsions>  (9) 
7

>  <pose>  (9) 
[-29.014532263243755, -16.9032002073838, -25.61241656924053, -0.190134974373039, -1.5102958604062109, 1.1771953837162188, -3.2662890784713636, 6.44232590724848, -0.5454494944271825, -1.5732393862351262, -5.881734369593391, -1.2145333715992395, 1.0288682137839176]

>  <energy>  (9) 
-647.2059032117729

>  <inter_energy>  (9) 
-651.2949949915717

>  <intra_energy>  (9) 
6.43986802462254

>  <rmsd>  (9) 
6.93023

>  <sdf_rank>  (9) 
0

$$$$

     RDKit          3D

126129  0  0  0  0  0  0  0  0999 V2000
  -29.9717   -9.5810  -25.5409 C   0  0  0  0  0  0  0  0  0  0  0  0
  -29.6523   -9.4273  -26.9994 C   0  0  2  0  0  0  0  0  0  0  0  0
  -30.4201   -8.2243  -27.5605 C   0  0  0  0  0  0  0  0  0  0  0  0
  -31.9271   -8.4937  -27.6546 C   0  0  0  0  0  0  0  0  0  0  0  0
  -32.2206   -9.7671  -28.4560 C   0  0  0  0  0  0  0  0  0  0  0  0
  -31.4763  -10.9693  -27.8584 C   0  0  0  0  0  0  0  0  0  0  0  0
  -29.0942  -11.4037  -28.2743 C   0  0  0  0  0  0  0  0  0  0  0  0
  -29.3538  -12.5479  -29.0157 C   0  0  0  0  0  0  0  0  0  0  0  0
  -29.4137  -13.9244  -28.3653 C   0  0  1  0  0  0  0  0  0  0  0  0
  -28.4525  -14.0385  -27.1770 C   0  0  1  0  0  0  0  0  0  0  0  0
  -28.8248  -15.2391  -26.3001 C   0  0  0  0  0  0  0  0  0  0  0  0
  -30.3327  -15.2598  -26.0133 C   0  0  1  0  0  0  0  0  0  0  0  0
  -31.0988  -15.2640  -27.3340 C   0  0  1  0  0  0  0  0  0  0  0  0
  -32.6316  -15.2652  -27.2031 C   0  0  2  0  0  0  0  0  0  0  0  0
  -33.1388  -14.2611  -26.1718 C   0  0  0  0  0  0  0  0  0  0  0  0
  -34.6624  -14.0629  -26.1548 C   0  0  2  0  0  0  0  0  0  0  0  0
  -35.3272  -15.1497  -25.2977 C   0  0  0  0  0  0  0  0  0  0  0  0
  -35.2106  -14.8044  -23.8368 C   0  0  0  0  0  0  0  0  0  0  0  0
  -34.1542  -15.4351  -23.0389 C   0  0  0  0  0  0  0  0  0  0  0  0
  -33.9655  -15.1003  -21.5843 C   0  0  2  0  0  0  0  0  0  0  0  0
  -32.9521  -14.0016  -21.5009 C   0  0  0  0  0  0  0  0  0  0  0  0
  -33.3519  -12.5360  -21.5327 C   0  0  0  0  0  0  0  0  0  0  0  0
  -32.1704  -11.6054  -21.8177 C   0  0  1  0  0  0  0  0  0  0  0  0
  -31.8494  -11.4679  -23.3164 C   0  0  2  0  0  0  0  0  0  0  0  0
  -30.5968  -10.6409  -23.6223 C   0  0  1  0  0  0  0  0  0  0  0  0
  -29.4027  -11.2668  -22.9415 C   0  0  0  0  0  0  0  0  0  0  0  0
  -28.4069  -11.9386  -23.7633 C   0  0  0  0  0  0  0  0  0  0  0  0
  -27.1415  -12.5227  -23.2066 C   0  0  1  0  0  0  0  0  0  0  0  0
  -26.9320  -13.8817  -23.8732 C   0  0  0  0  0  0  0  0  0  0  0  0
  -25.6337  -14.5201  -23.3943 C   0  0  2  0  0  0  0  0  0  0  0  0
  -24.4456  -13.6094  -23.7122 C   0  0  1  0  0  0  0  0  0  0  0  0
  -24.6334  -12.2261  -23.0921 C   0  0  0  0  0  0  0  0  0  0  0  0
  -25.9643  -11.5824  -23.5245 C   0  0  0  0  0  0  0  0  0  0  0  0
  -26.9817  -14.1194  -27.6093 C   0  0  0  0  0  0  0  0  0  0  0  0
  -35.2500  -14.0617  -27.5736 C   0  0  0  0  0  0  0  0  0  0  0  0
  -36.1873  -13.8419  -23.2203 C   0  0  0  0  0  0  0  0  0  0  0  0
  -33.4035  -16.3395  -20.8925 C   0  0  0  0  0  0  0  0  0  0  0  0
  -34.2998  -16.7119  -19.7273 C   0  0  0  0  0  0  0  0  0  0  0  0
  -33.9625  -17.8895  -18.9323 C   0  0  0  0  0  0  0  0  0  0  0  0
  -33.0232  -10.8707  -24.0987 C   0  0  0  0  0  0  0  0  0  0  0  0
  -29.2654  -11.1651  -21.4399 C   0  0  0  0  0  0  0  0  0  0  0  0
  -29.8883  -16.4368  -24.0441 C   0  0  0  0  0  0  0  0  0  0  0  0
  -34.3656  -16.8043  -27.5418 C   0  0  0  0  0  0  0  0  0  0  0  0
  -26.5388  -16.1586  -24.8513 C   0  0  0  0  0  0  0  0  0  0  0  0
  -30.0508  -10.6424  -27.7213 N   0  0  0  0  0  0  0  0  0  0  0  0
  -30.4097  -10.6663  -25.0355 O   0  0  0  0  0  0  0  0  0  0  0  0
  -29.7420   -8.4765  -24.7556 O   0  0  0  0  0  0  0  0  0  0  0  0
  -27.7737  -11.0451  -28.1018 O   0  0  0  0  0  0  0  0  0  0  0  0
  -29.5828  -12.4539  -30.3841 O   0  0  0  0  0  0  0  0  0  0  0  0
  -30.7648  -14.0600  -27.9893 O   0  0  0  0  0  0  0  0  0  0  0  0
  -29.0829  -14.9274  -29.3466 O   0  0  0  0  0  0  0  0  0  0  0  0
  -30.6551  -16.4043  -25.2354 O   0  0  0  0  0  0  0  0  0  0  0  0
  -33.1219  -16.5534  -26.9148 O   0  0  0  0  0  0  0  0  0  0  0  0
  -31.6179  -14.3804  -21.4225 O   0  0  0  0  0  0  0  0  0  0  0  0
  -32.5050  -10.3399  -21.2929 O   0  0  0  0  0  0  0  0  0  0  0  0
  -25.4398  -15.7514  -24.0488 O   0  0  0  0  0  0  0  0  0  0  0  0
  -23.2664  -14.2103  -23.2029 O   0  0  0  0  0  0  0  0  0  0  0  0
  -28.5712   -9.2678  -27.1247 H   0  0  0  0  0  0  0  0  0  0  0  0
  -30.2550   -7.3595  -26.9011 H   0  0  0  0  0  0  0  0  0  0  0  0
  -30.0471   -8.0289  -28.5767 H   0  0  0  0  0  0  0  0  0  0  0  0
  -32.3339   -8.6087  -26.6391 H   0  0  0  0  0  0  0  0  0  0  0  0
  -32.3982   -7.6444  -28.1710 H   0  0  0  0  0  0  0  0  0  0  0  0
  -33.3023   -9.9655  -28.4349 H   0  0  0  0  0  0  0  0  0  0  0  0
  -31.8792   -9.6194  -29.4912 H   0  0  0  0  0  0  0  0  0  0  0  0
  -31.8954  -11.2053  -26.8691 H   0  0  0  0  0  0  0  0  0  0  0  0
  -31.5914  -11.8391  -28.5217 H   0  0  0  0  0  0  0  0  0  0  0  0
  -28.5592  -13.1149  -26.5891 H   0  0  0  0  0  0  0  0  0  0  0  0
  -28.5442  -16.1665  -26.8209 H   0  0  0  0  0  0  0  0  0  0  0  0
  -28.2859  -15.1576  -25.3446 H   0  0  0  0  0  0  0  0  0  0  0  0
  -30.6189  -14.3631  -25.4441 H   0  0  0  0  0  0  0  0  0  0  0  0
  -30.8199  -16.1893  -27.8594 H   0  0  0  0  0  0  0  0  0  0  0  0
  -33.0204  -14.9500  -28.1826 H   0  0  0  0  0  0  0  0  0  0  0  0
  -32.8286  -14.6089  -25.1754 H   0  0  0  0  0  0  0  0  0  0  0  0
  -32.7049  -13.2891  -26.4491 H   0  0  0  0  0  0  0  0  0  0  0  0
  -34.8696  -13.0780  -25.7109 H   0  0  0  0  0  0  0  0  0  0  0  0
  -36.3904  -15.2265  -25.5691 H   0  0  0  0  0  0  0  0  0  0  0  0
  -34.8223  -16.1097  -25.4808 H   0  0  0  0  0  0  0  0  0  0  0  0
  -33.4858  -16.1684  -23.5138 H   0  0  0  0  0  0  0  0  0  0  0  0
  -34.9106  -14.7915  -21.1138 H   0  0  0  0  0  0  0  0  0  0  0  0
  -34.1082  -12.3949  -22.3189 H   0  0  0  0  0  0  0  0  0  0  0  0
  -33.7447  -12.2780  -20.5381 H   0  0  0  0  0  0  0  0  0  0  0  0
  -31.2703  -12.0313  -21.3503 H   0  0  0  0  0  0  0  0  0  0  0  0
  -31.6561  -12.5011  -23.6405 H   0  0  0  0  0  0  0  0  0  0  0  0
  -30.7074   -9.6081  -23.2602 H   0  0  0  0  0  0  0  0  0  0  0  0
  -28.5906  -12.0221  -24.8447 H   0  0  0  0  0  0  0  0  0  0  0  0
  -27.2045  -12.6418  -22.1148 H   0  0  0  0  0  0  0  0  0  0  0  0
  -27.7744  -14.5422  -23.6201 H   0  0  0  0  0  0  0  0  0  0  0  0
  -26.8753  -13.7373  -24.9622 H   0  0  0  0  0  0  0  0  0  0  0  0
  -25.7021  -14.6737  -22.3072 H   0  0  0  0  0  0  0  0  0  0  0  0
  -24.3697  -13.4825  -24.8022 H   0  0  0  0  0  0  0  0  0  0  0  0
  -24.6237  -12.3226  -21.9964 H   0  0  0  0  0  0  0  0  0  0  0  0
  -23.8125  -11.5812  -23.4390 H   0  0  0  0  0  0  0  0  0  0  0  0
  -25.9381  -11.3870  -24.6067 H   0  0  0  0  0  0  0  0  0  0  0  0
  -26.1010  -10.6397  -22.9743 H   0  0  0  0  0  0  0  0  0  0  0  0
  -26.3387  -14.1548  -26.7175 H   0  0  0  0  0  0  0  0  0  0  0  0
  -26.8256  -15.0275  -28.2102 H   0  0  0  0  0  0  0  0  0  0  0  0
  -26.7268  -13.2340  -28.2102 H   0  0  0  0  0  0  0  0  0  0  0  0
  -36.3485  -14.0596  -27.5155 H   0  0  0  0  0  0  0  0  0  0  0  0
  -34.9095  -13.1642  -28.1108 H   0  0  0  0  0  0  0  0  0  0  0  0
  -34.9130  -14.9605  -28.1108 H   0  0  0  0  0  0  0  0  0  0  0  0
  -36.1226  -13.9056  -22.1241 H   0  0  0  0  0  0  0  0  0  0  0  0
  -35.9465  -12.8182  -23.5429 H   0  0  0  0  0  0  0  0  0  0  0  0
  -37.2074  -14.0976  -23.5429 H   0  0  0  0  0  0  0  0  0  0  0  0
  -33.3648  -17.1742  -21.6080 H   0  0  0  0  0  0  0  0  0  0  0  0
  -32.3887  -16.1280  -20.5243 H   0  0  0  0  0  0  0  0  0  0  0  0
  -35.1863  -16.1071  -19.4857 H   0  0  0  0  0  0  0  0  0  0  0  0
  -34.5976  -18.1796  -18.0823 H   0  0  0  0  0  0  0  0  0  0  0  0
  -33.0734  -18.4865  -19.1836 H   0  0  0  0  0  0  0  0  0  0  0  0
  -33.7762  -10.4876  -23.3943 H   0  0  0  0  0  0  0  0  0  0  0  0
  -32.6609  -10.0473  -24.7318 H   0  0  0  0  0  0  0  0  0  0  0  0
  -33.4754  -11.6484  -24.7318 H   0  0  0  0  0  0  0  0  0  0  0  0
  -30.0601  -11.7538  -20.9583 H   0  0  0  0  0  0  0  0  0  0  0  0
  -28.2834  -11.5554  -21.1343 H   0  0  0  0  0  0  0  0  0  0  0  0
  -29.3527  -10.1120  -21.1343 H   0  0  0  0  0  0  0  0  0  0  0  0
  -30.5610  -16.4083  -23.1742 H   0  0  0  0  0  0  0  0  0  0  0  0
  -29.2924  -17.3610  -24.0166 H   0  0  0  0  0  0  0  0  0  0  0  0
  -29.2164  -15.5663  -24.0166 H   0  0  0  0  0  0  0  0  0  0  0  0
  -35.1383  -16.9601  -26.7746 H   0  0  0  0  0  0  0  0  0  0  0  0
  -34.6402  -15.9434  -28.1692 H   0  0  0  0  0  0  0  0  0  0  0  0
  -34.2850  -17.7043  -28.1692 H   0  0  0  0  0  0  0  0  0  0  0  0
  -27.3719  -16.4673  -24.2027 H   0  0  0  0  0  0  0  0  0  0  0  0
  -26.8599  -15.3197  -25.4863 H   0  0  0  0  0  0  0  0  0  0  0  0
  -26.2357  -17.0041  -25.4863 H   0  0  0  0  0  0  0  0  0  0  0  0
  -28.8082  -15.7603  -28.8874 H   0  0  0  0  0  0  0  0  0  0  0  0
  -32.4945  -10.3796  -20.3038 H   0  0  0  0  0  0  0  0  0  0  0  0
  -23.2906  -14.1980  -22.2132 H   0  0  0  0  0  0  0  0  0  0  0  0
  1  2  1  0
  1 46  1  0
  1 47  2  0
  2  3  1  0
  2 45  1  0
  3  4  1  0
  4  5  1  0
  5  6  1  0
  6 45  1  0
  7  8  1  0
  7 45  1  0
  7 48  2  0
  8  9  1  0
  8 49  2  0
  9 10  1  0
  9 50  1  0
  9 51  1  6
 10 11  1  0
 10 34  1  0
 11 12  1  0
 12 13  1  0
 12 52  1  0
 13 14  1  0
 13 50  1  0
 14 15  1  0
 14 53  1  0
 15 16  1  0
 16 17  1  0
 16 35  1  0
 17 18  1  0
 18 19  2  3
 18 36  1  0
 19 20  1  0
 20 21  1  0
 20 37  1  0
 21 22  1  0
 21 54  2  0
 22 23  1  0
 23 24  1  0
 23 55  1  0
 24 25  1  0
 24 40  1  0
 25 26  1  0
 25 46  1  0
 26 27  2  3
 26 41  1  0
 28 27  1  0
 28 29  1  0
 28 33  1  0
 29 30  1  0
 30 31  1  0
 30 56  1  0
 31 32  1  0
 31 57  1  0
 32 33  1  0
 37 38  1  0
 38 39  2  0
 42 52  1  0
 43 53  1  0
 44 56  1  0
  2 58  1  1
  3 59  1  0
  3 60  1  0
  4 61  1  0
  4 62  1  0
  5 63  1  0
  5 64  1  0
  6 65  1  0
  6 66  1  0
 10 67  1  1
 11 68  1  0
 11 69  1  0
 12 70  1  1
 13 71  1  6
 14 72  1  6
 15 73  1  0
 15 74  1  0
 16 75  1  1
 17 76  1  0
 17 77  1  0
 19 78  1  0
 20 79  1  1
 22 80  1  0
 22 81  1  0
 23 82  1  1
 24 83  1  6
 25 84  1  1
 27 85  1  0
 28 86  1  1
 29 87  1  0
 29 88  1  0
 30 89  1  1
 31 90  1  6
 32 91  1  0
 32 92  1  0
 33 93  1  0
 33 94  1  0
 34 95  1  0
 34 96  1  0
 34 97  1  0
 35 98  1  0
 35 99  1  0
 35100  1  0
 36101  1  0
 36102  1  0
 36103  1  0
 37104  1  0
 37105  1  0
 38106  1  0
 39107  1  0
 39108  1  0
 40109  1  0
 40110  1  0
 40111  1  0
 41112  1  0
 41113  1  0
 41114  1  0
 42115  1  0
 42116  1  0
 42117  1  0
 43118  1  0
 43119  1  0
 43120  1  0
 44121  1  0
 44122  1  0
 44123  1  0
 51124  1  0
 55125  1  0
 57126  1  0
M  END
>  <filename_input>  (10) 
7U0U_FK5_docked.sdf

>  <pdb_id>  (10) 
7U0U_FK5

>  <pose_rank>  (10) 
9

>  <num_atoms_heavy>  (10) 
57

>  <num_torsions>  (10) 
7

>  <pose>  (10) 
[-29.97168454693808, -9.581009697074865, -25.540868447442477, 0.7082235309780825, -0.06376532010589528, 3.8357655455107627, -2.4241602387579, -0.1635112616420142, 1.240586686911734, -0.5065493197051371, -1.067935783702166, -1.1722410532371756, 5.049187601103389]

>  <energy>  (10) 
-590.5630060294193

>  <inter_energy>  (10) 
-727.5873572549928

>  <intra_energy>  (10) 
132.16971247590996

>  <rmsd>  (10) 
7.46243

>  <sdf_rank>  (10) 
0

$$$$

     RDKit          3D

126129  0  0  0  0  0  0  0  0999 V2000
  -33.4020  -12.2491  -22.2464 C   0  0  0  0  0  0  0  0  0  0  0  0
  -34.5987  -13.1456  -22.1159 C   0  0  2  0  0  0  0  0  0  0  0  0
  -34.8026  -13.5039  -20.6389 C   0  0  0  0  0  0  0  0  0  0  0  0
  -33.7142  -14.4511  -20.1187 C   0  0  0  0  0  0  0  0  0  0  0  0
  -33.6019  -15.7084  -20.9883 C   0  0  0  0  0  0  0  0  0  0  0  0
  -33.3586  -15.3338  -22.4569 C   0  0  0  0  0  0  0  0  0  0  0  0
  -35.1575  -14.6025  -23.9620 C   0  0  0  0  0  0  0  0  0  0  0  0
  -35.0731  -15.7465  -24.7432 C   0  0  0  0  0  0  0  0  0  0  0  0
  -34.1740  -15.8102  -25.9716 C   0  0  1  0  0  0  0  0  0  0  0  0
  -34.0622  -14.4506  -26.6703 C   0  0  1  0  0  0  0  0  0  0  0  0
  -32.8570  -14.4322  -27.6170 C   0  0  0  0  0  0  0  0  0  0  0  0
  -31.6076  -14.9915  -26.9221 C   0  0  1  0  0  0  0  0  0  0  0  0
  -31.9021  -16.3985  -26.4075 C   0  0  1  0  0  0  0  0  0  0  0  0
  -30.7401  -17.0826  -25.6670 C   0  0  2  0  0  0  0  0  0  0  0  0
  -30.0562  -16.1624  -24.6597 C   0  0  0  0  0  0  0  0  0  0  0  0
  -29.0373  -16.8520  -23.7393 C   0  0  2  0  0  0  0  0  0  0  0  0
  -27.6755  -16.9545  -24.4413 C   0  0  0  0  0  0  0  0  0  0  0  0
  -26.9457  -15.6402  -24.3561 C   0  0  0  0  0  0  0  0  0  0  0  0
  -26.9805  -14.7314  -25.5064 C   0  0  0  0  0  0  0  0  0  0  0  0
  -26.3021  -13.3892  -25.4651 C   0  0  2  0  0  0  0  0  0  0  0  0
  -27.3185  -12.3821  -25.0248 C   0  0  0  0  0  0  0  0  0  0  0  0
  -27.5317  -12.0444  -23.5586 C   0  0  0  0  0  0  0  0  0  0  0  0
  -28.8449  -11.2990  -23.3071 C   0  0  1  0  0  0  0  0  0  0  0  0
  -30.0629  -12.2319  -23.1871 C   0  0  2  0  0  0  0  0  0  0  0  0
  -31.4057  -11.5061  -23.0577 C   0  0  1  0  0  0  0  0  0  0  0  0
  -31.6130  -10.6149  -24.2593 C   0  0  0  0  0  0  0  0  0  0  0  0
  -32.6602  -10.9608  -25.2092 C   0  0  0  0  0  0  0  0  0  0  0  0
  -33.0107  -10.1062  -26.3920 C   0  0  1  0  0  0  0  0  0  0  0  0
  -31.7084   -9.7733  -27.1190 C   0  0  0  0  0  0  0  0  0  0  0  0
  -31.9871   -8.9443  -28.3670 C   0  0  2  0  0  0  0  0  0  0  0  0
  -32.9172   -9.7064  -29.3136 C   0  0  1  0  0  0  0  0  0  0  0  0
  -34.2191  -10.0898  -28.6127 C   0  0  0  0  0  0  0  0  0  0  0  0
  -33.9587  -10.8871  -27.3207 C   0  0  0  0  0  0  0  0  0  0  0  0
  -35.3446  -14.0614  -27.4192 C   0  0  0  0  0  0  0  0  0  0  0  0
  -29.5211  -18.2410  -23.2976 C   0  0  0  0  0  0  0  0  0  0  0  0
  -26.1802  -15.2947  -23.1091 C   0  0  0  0  0  0  0  0  0  0  0  0
  -25.8590  -13.0498  -26.8859 C   0  0  0  0  0  0  0  0  0  0  0  0
  -26.3542  -14.1243  -27.8347 C   0  0  0  0  0  0  0  0  0  0  0  0
  -26.6024  -13.7678  -29.2288 C   0  0  0  0  0  0  0  0  0  0  0  0
  -29.9247  -13.2017  -22.0095 C   0  0  0  0  0  0  0  0  0  0  0  0
  -30.7472   -9.3885  -24.4333 C   0  0  0  0  0  0  0  0  0  0  0  0
  -30.4361  -13.7733  -28.5358 C   0  0  0  0  0  0  0  0  0  0  0  0
  -30.0372  -18.9741  -26.8579 C   0  0  0  0  0  0  0  0  0  0  0  0
  -29.6440   -9.3029  -28.4582 C   0  0  0  0  0  0  0  0  0  0  0  0
  -34.3812  -14.3731  -22.8919 N   0  0  0  0  0  0  0  0  0  0  0  0
  -32.4227  -12.5048  -23.0215 O   0  0  0  0  0  0  0  0  0  0  0  0
  -33.4249  -11.1020  -21.4895 O   0  0  0  0  0  0  0  0  0  0  0  0
  -36.0941  -13.6560  -24.3215 O   0  0  0  0  0  0  0  0  0  0  0  0
  -35.8075  -16.8775  -24.4035 O   0  0  0  0  0  0  0  0  0  0  0  0
  -32.9414  -16.2651  -25.4627 O   0  0  0  0  0  0  0  0  0  0  0  0
  -34.7024  -16.7817  -26.8963 O   0  0  0  0  0  0  0  0  0  0  0  0
  -30.5182  -15.0019  -27.8343 O   0  0  0  0  0  0  0  0  0  0  0  0
  -29.7955  -17.6101  -26.5684 O   0  0  0  0  0  0  0  0  0  0  0  0
  -28.0853  -11.7858  -26.0179 O   0  0  0  0  0  0  0  0  0  0  0  0
  -28.6874  -10.5783  -22.1052 O   0  0  0  0  0  0  0  0  0  0  0  0
  -30.7801   -8.6821  -29.0426 O   0  0  0  0  0  0  0  0  0  0  0  0
  -33.1968   -8.8822  -30.4333 O   0  0  0  0  0  0  0  0  0  0  0  0
  -35.4905  -12.6271  -22.4977 H   0  0  0  0  0  0  0  0  0  0  0  0
  -34.7820  -12.5791  -20.0436 H   0  0  0  0  0  0  0  0  0  0  0  0
  -35.7709  -14.0174  -20.5458 H   0  0  0  0  0  0  0  0  0  0  0  0
  -32.7485  -13.9243  -20.1255 H   0  0  0  0  0  0  0  0  0  0  0  0
  -33.9841  -14.7600  -19.0981 H   0  0  0  0  0  0  0  0  0  0  0  0
  -32.7630  -16.3223  -20.6287 H   0  0  0  0  0  0  0  0  0  0  0  0
  -34.5445  -16.2712  -20.9189 H   0  0  0  0  0  0  0  0  0  0  0  0
  -32.3618  -14.8802  -22.5595 H   0  0  0  0  0  0  0  0  0  0  0  0
  -33.4153  -16.2381  -23.0807 H   0  0  0  0  0  0  0  0  0  0  0  0
  -33.9145  -13.6970  -25.8828 H   0  0  0  0  0  0  0  0  0  0  0  0
  -33.0834  -15.0469  -28.5006 H   0  0  0  0  0  0  0  0  0  0  0  0
  -32.6585  -13.3918  -27.9139 H   0  0  0  0  0  0  0  0  0  0  0  0
  -31.3367  -14.3544  -26.0672 H   0  0  0  0  0  0  0  0  0  0  0  0
  -32.1309  -17.0167  -27.2881 H   0  0  0  0  0  0  0  0  0  0  0  0
  -31.1878  -17.9113  -25.0988 H   0  0  0  0  0  0  0  0  0  0  0  0
  -29.5319  -15.3735  -25.2189 H   0  0  0  0  0  0  0  0  0  0  0  0
  -30.8517  -15.7776  -24.0046 H   0  0  0  0  0  0  0  0  0  0  0  0
  -28.9297  -16.2367  -22.8339 H   0  0  0  0  0  0  0  0  0  0  0  0
  -27.0739  -17.7363  -23.9547 H   0  0  0  0  0  0  0  0  0  0  0  0
  -27.8358  -17.2078  -25.4997 H   0  0  0  0  0  0  0  0  0  0  0  0
  -27.5138  -15.0374  -26.4185 H   0  0  0  0  0  0  0  0  0  0  0  0
  -25.4394  -13.3921  -24.7827 H   0  0  0  0  0  0  0  0  0  0  0  0
  -27.5422  -12.9801  -22.9803 H   0  0  0  0  0  0  0  0  0  0  0  0
  -26.7100  -11.3823  -23.2481 H   0  0  0  0  0  0  0  0  0  0  0  0
  -29.0450  -10.6446  -24.1683 H   0  0  0  0  0  0  0  0  0  0  0  0
  -30.0693  -12.7811  -24.1401 H   0  0  0  0  0  0  0  0  0  0  0  0
  -31.4334  -10.8856  -22.1499 H   0  0  0  0  0  0  0  0  0  0  0  0
  -33.2217  -11.8937  -25.0526 H   0  0  0  0  0  0  0  0  0  0  0  0
  -33.5171   -9.1812  -26.0789 H   0  0  0  0  0  0  0  0  0  0  0  0
  -31.0537   -9.2021  -26.4444 H   0  0  0  0  0  0  0  0  0  0  0  0
  -31.2200  -10.7122  -27.4189 H   0  0  0  0  0  0  0  0  0  0  0  0
  -32.4633   -8.0018  -28.0591 H   0  0  0  0  0  0  0  0  0  0  0  0
  -32.4223  -10.6343  -29.6362 H   0  0  0  0  0  0  0  0  0  0  0  0
  -34.7712   -9.1725  -28.3601 H   0  0  0  0  0  0  0  0  0  0  0  0
  -34.8013  -10.7256  -29.2959 H   0  0  0  0  0  0  0  0  0  0  0  0
  -33.5005  -11.8537  -27.5771 H   0  0  0  0  0  0  0  0  0  0  0  0
  -34.9149  -11.0490  -26.8016 H   0  0  0  0  0  0  0  0  0  0  0  0
  -36.1350  -13.8215  -26.6928 H   0  0  0  0  0  0  0  0  0  0  0  0
  -35.1480  -13.1825  -28.0508 H   0  0  0  0  0  0  0  0  0  0  0  0
  -35.6697  -14.9013  -28.0508 H   0  0  0  0  0  0  0  0  0  0  0  0
  -29.5385  -18.2910  -22.1989 H   0  0  0  0  0  0  0  0  0  0  0  0
  -30.5338  -18.4181  -23.6888 H   0  0  0  0  0  0  0  0  0  0  0  0
  -28.8375  -19.0089  -23.6888 H   0  0  0  0  0  0  0  0  0  0  0  0
  -26.7775  -15.5643  -22.2257 H   0  0  0  0  0  0  0  0  0  0  0  0
  -25.2320  -15.8520  -23.0947 H   0  0  0  0  0  0  0  0  0  0  0  0
  -25.9711  -14.2148  -23.0947 H   0  0  0  0  0  0  0  0  0  0  0  0
  -26.2804  -12.0772  -27.1799 H   0  0  0  0  0  0  0  0  0  0  0  0
  -24.7610  -12.9986  -26.9274 H   0  0  0  0  0  0  0  0  0  0  0  0
  -26.5230  -15.1517  -27.4797 H   0  0  0  0  0  0  0  0  0  0  0  0
  -26.9619  -14.5299  -29.9358 H   0  0  0  0  0  0  0  0  0  0  0  0
  -26.4300  -12.7370  -29.5719 H   0  0  0  0  0  0  0  0  0  0  0  0
  -30.0041  -12.6446  -21.0644 H   0  0  0  0  0  0  0  0  0  0  0  0
  -30.7246  -13.9552  -22.0593 H   0  0  0  0  0  0  0  0  0  0  0  0
  -28.9462  -13.7018  -22.0593 H   0  0  0  0  0  0  0  0  0  0  0  0
  -30.4683   -8.9935  -23.4453 H   0  0  0  0  0  0  0  0  0  0  0  0
  -29.8379   -9.6577  -24.9906 H   0  0  0  0  0  0  0  0  0  0  0  0
  -31.3053   -8.6217  -24.9906 H   0  0  0  0  0  0  0  0  0  0  0  0
  -30.3806  -12.9432  -27.8162 H   0  0  0  0  0  0  0  0  0  0  0  0
  -29.5358  -13.7714  -29.1679 H   0  0  0  0  0  0  0  0  0  0  0  0
  -31.3281  -13.6516  -29.1679 H   0  0  0  0  0  0  0  0  0  0  0  0
  -30.1368  -19.5364  -25.9177 H   0  0  0  0  0  0  0  0  0  0  0  0
  -30.9656  -19.0664  -27.4404 H   0  0  0  0  0  0  0  0  0  0  0  0
  -29.1969  -19.3798  -27.4404 H   0  0  0  0  0  0  0  0  0  0  0  0
  -29.7252   -9.2586  -27.3621 H   0  0  0  0  0  0  0  0  0  0  0  0
  -29.5943  -10.3536  -28.7800 H   0  0  0  0  0  0  0  0  0  0  0  0
  -28.7329   -8.7773  -28.7800 H   0  0  0  0  0  0  0  0  0  0  0  0
  -35.1095  -17.5301  -26.3919 H   0  0  0  0  0  0  0  0  0  0  0  0
  -28.8203  -11.1867  -21.3357 H   0  0  0  0  0  0  0  0  0  0  0  0
  -33.4986   -7.9925  -30.1210 H   0  0  0  0  0  0  0  0  0  0  0  0
  1  2  1  0
  1 46  1  0
  1 47  2  0
  2  3  1  0
  2 45  1  0
  3  4  1  0
  4  5  1  0
  5  6  1  0
  6 45  1  0
  7  8  1  0
  7 45  1  0
  7 48  2  0
  8  9  1  0
  8 49  2  0
  9 10  1  0
  9 50  1  0
  9 51  1  6
 10 11  1  0
 10 34  1  0
 11 12  1  0
 12 13  1  0
 12 52  1  0
 13 14  1  0
 13 50  1  0
 14 15  1  0
 14 53  1  0
 15 16  1  0
 16 17  1  0
 16 35  1  0
 17 18  1  0
 18 19  2  3
 18 36  1  0
 19 20  1  0
 20 21  1  0
 20 37  1  0
 21 22  1  0
 21 54  2  0
 22 23  1  0
 23 24  1  0
 23 55  1  0
 24 25  1  0
 24 40  1  0
 25 26  1  0
 25 46  1  0
 26 27  2  3
 26 41  1  0
 28 27  1  0
 28 29  1  0
 28 33  1  0
 29 30  1  0
 30 31  1  0
 30 56  1  0
 31 32  1  0
 31 57  1  0
 32 33  1  0
 37 38  1  0
 38 39  2  0
 42 52  1  0
 43 53  1  0
 44 56  1  0
  2 58  1  6
  3 59  1  0
  3 60  1  0
  4 61  1  0
  4 62  1  0
  5 63  1  0
  5 64  1  0
  6 65  1  0
  6 66  1  0
 10 67  1  1
 11 68  1  0
 11 69  1  0
 12 70  1  1
 13 71  1  6
 14 72  1  1
 15 73  1  0
 15 74  1  0
 16 75  1  1
 17 76  1  0
 17 77  1  0
 19 78  1  0
 20 79  1  1
 22 80  1  0
 22 81  1  0
 23 82  1  6
 24 83  1  6
 25 84  1  1
 27 85  1  0
 28 86  1  1
 29 87  1  0
 29 88  1  0
 30 89  1  1
 31 90  1  6
 32 91  1  0
 32 92  1  0
 33 93  1  0
 33 94  1  0
 34 95  1  0
 34 96  1  0
 34 97  1  0
 35 98  1  0
 35 99  1  0
 35100  1  0
 36101  1  0
 36102  1  0
 36103  1  0
 37104  1  0
 37105  1  0
 38106  1  0
 39107  1  0
 39108  1  0
 40109  1  0
 40110  1  0
 40111  1  0
 41112  1  0
 41113  1  0
 41114  1  0
 42115  1  0
 42116  1  0
 42117  1  0
 43118  1  0
 43119  1  0
 43120  1  0
 44121  1  0
 44122  1  0
 44123  1  0
 51124  1  0
 55125  1  0
 57126  1  0
M  END
>  <filename_input>  (11) 
7U0U_FK5_docked.sdf

>  <pdb_id>  (11) 
7U0U_FK5

>  <pose_rank>  (11) 
10

>  <num_atoms_heavy>  (11) 
57

>  <num_torsions>  (11) 
7

>  <pose>  (11) 
[-33.401962204915144, -12.249052007083515, -22.246435359973493, -1.6534142694265612, 0.5594685819400139, -0.03815352623735739, 3.910354242765501, 4.58815916495046, -4.86377527229153, -0.6803742322545259, -0.19350334907992173, 1.0839501242365859, -1.693989084599559]

>  <energy>  (11) 
-582.5042180059389

>  <inter_energy>  (11) 
-642.9469878343602

>  <intra_energy>  (11) 
63.724507755459555

>  <rmsd>  (11) 
6.47156

>  <sdf_rank>  (11) 
0

$$$$

     RDKit          3D

126129  0  0  0  0  0  0  0  0999 V2000
  -33.1316  -14.8989  -22.0739 C   0  0  0  0  0  0  0  0  0  0  0  0
  -32.9775  -14.0192  -20.8675 C   0  0  2  0  0  0  0  0  0  0  0  0
  -34.3448  -13.8367  -20.1976 C   0  0  0  0  0  0  0  0  0  0  0  0
  -35.2861  -12.9618  -21.0349 C   0  0  0  0  0  0  0  0  0  0  0  0
  -34.6447  -11.6111  -21.3728 C   0  0  0  0  0  0  0  0  0  0  0  0
  -33.2960  -11.8110  -22.0780 C   0  0  0  0  0  0  0  0  0  0  0  0
  -31.2267  -12.3526  -20.8691 C   0  0  0  0  0  0  0  0  0  0  0  0
  -30.6470  -11.1249  -21.1567 C   0  0  0  0  0  0  0  0  0  0  0  0
  -29.7814  -10.9205  -22.3937 C   0  0  1  0  0  0  0  0  0  0  0  0
  -29.0048  -12.1886  -22.7650 C   0  0  1  0  0  0  0  0  0  0  0  0
  -28.4922  -12.1002  -24.2067 C   0  0  0  0  0  0  0  0  0  0  0  0
  -29.6051  -11.6318  -25.1547 C   0  0  1  0  0  0  0  0  0  0  0  0
  -30.1558  -10.2940  -24.6665 C   0  0  1  0  0  0  0  0  0  0  0  0
  -31.2981   -9.7068  -25.5131 C   0  0  2  0  0  0  0  0  0  0  0  0
  -32.3591  -10.7420  -25.8759 C   0  0  0  0  0  0  0  0  0  0  0  0
  -33.6262  -10.1698  -26.5300 C   0  0  2  0  0  0  0  0  0  0  0  0
  -33.4071   -9.9908  -28.0392 C   0  0  0  0  0  0  0  0  0  0  0  0
  -33.5695  -11.3089  -28.7488 C   0  0  0  0  0  0  0  0  0  0  0  0
  -32.3723  -12.0757  -29.1079 C   0  0  0  0  0  0  0  0  0  0  0  0
  -32.4739  -13.4162  -29.7833 C   0  0  2  0  0  0  0  0  0  0  0  0
  -32.4534  -14.4640  -28.7144 C   0  0  0  0  0  0  0  0  0  0  0  0
  -33.7288  -14.9713  -28.0623 C   0  0  0  0  0  0  0  0  0  0  0  0
  -33.4662  -15.7358  -26.7624 C   0  0  1  0  0  0  0  0  0  0  0  0
  -33.2995  -14.8187  -25.5379 C   0  0  2  0  0  0  0  0  0  0  0  0
  -32.9147  -15.5491  -24.2476 C   0  0  1  0  0  0  0  0  0  0  0  0
  -31.6165  -16.2917  -24.4586 C   0  0  0  0  0  0  0  0  0  0  0  0
  -30.3745  -15.5329  -24.4639 C   0  0  0  0  0  0  0  0  0  0  0  0
  -29.0220  -16.1728  -24.5815 C   0  0  1  0  0  0  0  0  0  0  0  0
  -28.9465  -17.2809  -23.5319 C   0  0  0  0  0  0  0  0  0  0  0  0
  -27.6141  -18.0151  -23.6213 C   0  0  2  0  0  0  0  0  0  0  0  0
  -27.4349  -18.6219  -25.0148 C   0  0  1  0  0  0  0  0  0  0  0  0
  -27.5396  -17.5497  -26.0976 C   0  0  0  0  0  0  0  0  0  0  0  0
  -28.8590  -16.7614  -25.9951 C   0  0  0  0  0  0  0  0  0  0  0  0
  -27.8499  -12.4817  -21.7969 C   0  0  0  0  0  0  0  0  0  0  0  0
  -34.0463   -8.8406  -25.8857 C   0  0  0  0  0  0  0  0  0  0  0  0
  -34.9471  -11.8022  -29.0944 C   0  0  0  0  0  0  0  0  0  0  0  0
  -31.2374  -13.5875  -30.6619 C   0  0  0  0  0  0  0  0  0  0  0  0
  -30.1207  -12.7094  -30.1309 C   0  0  0  0  0  0  0  0  0  0  0  0
  -28.7442  -13.1850  -30.2382 C   0  0  0  0  0  0  0  0  0  0  0  0
  -34.5621  -13.9949  -25.2663 C   0  0  0  0  0  0  0  0  0  0  0  0
  -31.6393  -17.7919  -24.6396 C   0  0  0  0  0  0  0  0  0  0  0  0
  -28.2177  -12.5943  -26.7701 C   0  0  0  0  0  0  0  0  0  0  0  0
  -30.8748   -7.6694  -26.5903 C   0  0  0  0  0  0  0  0  0  0  0  0
  -26.5962  -18.8861  -21.6638 C   0  0  0  0  0  0  0  0  0  0  0  0
  -32.4543  -12.7096  -21.2768 N   0  0  0  0  0  0  0  0  0  0  0  0
  -32.7402  -14.5576  -23.2380 O   0  0  0  0  0  0  0  0  0  0  0  0
  -33.7077  -16.1271  -21.8525 O   0  0  0  0  0  0  0  0  0  0  0  0
  -30.4849  -13.2463  -20.1254 O   0  0  0  0  0  0  0  0  0  0  0  0
  -30.8626  -10.0388  -20.3153 O   0  0  0  0  0  0  0  0  0  0  0  0
  -30.7020  -10.5336  -23.3879 O   0  0  0  0  0  0  0  0  0  0  0  0
  -28.8532   -9.8446  -22.1507 O   0  0  0  0  0  0  0  0  0  0  0  0
  -29.0915  -11.5184  -26.4747 O   0  0  0  0  0  0  0  0  0  0  0  0
  -30.8074   -9.0805  -26.6750 O   0  0  0  0  0  0  0  0  0  0  0  0
  -31.2081  -14.9360  -28.3192 O   0  0  0  0  0  0  0  0  0  0  0  0
  -34.5665  -16.5938  -26.5579 O   0  0  0  0  0  0  0  0  0  0  0  0
  -27.5804  -19.0558  -22.6737 O   0  0  0  0  0  0  0  0  0  0  0  0
  -26.1632  -19.2466  -25.0758 O   0  0  0  0  0  0  0  0  0  0  0  0
  -32.2772  -14.4855  -20.1589 H   0  0  0  0  0  0  0  0  0  0  0  0
  -34.8075  -14.8252  -20.0609 H   0  0  0  0  0  0  0  0  0  0  0  0
  -34.1844  -13.3338  -19.2325 H   0  0  0  0  0  0  0  0  0  0  0  0
  -35.5254  -13.4880  -21.9708 H   0  0  0  0  0  0  0  0  0  0  0  0
  -36.1970  -12.7742  -20.4475 H   0  0  0  0  0  0  0  0  0  0  0  0
  -35.3181  -11.0474  -22.0351 H   0  0  0  0  0  0  0  0  0  0  0  0
  -34.4756  -11.0567  -20.4379 H   0  0  0  0  0  0  0  0  0  0  0  0
  -33.4632  -12.2534  -23.0711 H   0  0  0  0  0  0  0  0  0  0  0  0
  -32.7927  -10.8394  -22.1901 H   0  0  0  0  0  0  0  0  0  0  0  0
  -29.7082  -13.0304  -22.6827 H   0  0  0  0  0  0  0  0  0  0  0  0
  -27.6578  -11.3848  -24.2492 H   0  0  0  0  0  0  0  0  0  0  0  0
  -28.1576  -13.0992  -24.5231 H   0  0  0  0  0  0  0  0  0  0  0  0
  -30.4239  -12.3663  -25.1642 H   0  0  0  0  0  0  0  0  0  0  0  0
  -29.3238   -9.5755  -24.7056 H   0  0  0  0  0  0  0  0  0  0  0  0
  -31.7854   -8.9490  -24.8820 H   0  0  0  0  0  0  0  0  0  0  0  0
  -31.9089  -11.4616  -26.5755 H   0  0  0  0  0  0  0  0  0  0  0  0
  -32.6810  -11.1982  -24.9281 H   0  0  0  0  0  0  0  0  0  0  0  0
  -34.4435  -10.8880  -26.3679 H   0  0  0  0  0  0  0  0  0  0  0  0
  -34.1442   -9.2743  -28.4308 H   0  0  0  0  0  0  0  0  0  0  0  0
  -32.3882   -9.6139  -28.2115 H   0  0  0  0  0  0  0  0  0  0  0  0
  -31.3791  -11.6622  -28.8786 H   0  0  0  0  0  0  0  0  0  0  0  0
  -33.3898  -13.4972  -30.3871 H   0  0  0  0  0  0  0  0  0  0  0  0
  -34.3760  -14.1103  -27.8392 H   0  0  0  0  0  0  0  0  0  0  0  0
  -34.2062  -15.6687  -28.7663 H   0  0  0  0  0  0  0  0  0  0  0  0
  -32.5177  -16.2833  -26.8652 H   0  0  0  0  0  0  0  0  0  0  0  0
  -32.4620  -14.1609  -25.8132 H   0  0  0  0  0  0  0  0  0  0  0  0
  -33.6909  -16.2722  -23.9566 H   0  0  0  0  0  0  0  0  0  0  0  0
  -30.4297  -14.4377  -24.3776 H   0  0  0  0  0  0  0  0  0  0  0  0
  -28.2188  -15.4395  -24.4170 H   0  0  0  0  0  0  0  0  0  0  0  0
  -29.0484  -16.8376  -22.5304 H   0  0  0  0  0  0  0  0  0  0  0  0
  -29.7597  -17.9987  -23.7151 H   0  0  0  0  0  0  0  0  0  0  0  0
  -26.8063  -17.2949  -23.4243 H   0  0  0  0  0  0  0  0  0  0  0  0
  -28.2317  -19.3591  -25.1925 H   0  0  0  0  0  0  0  0  0  0  0  0
  -26.6974  -16.8504  -25.9891 H   0  0  0  0  0  0  0  0  0  0  0  0
  -27.5144  -18.0490  -27.0774 H   0  0  0  0  0  0  0  0  0  0  0  0
  -29.7018  -17.4357  -26.2067 H   0  0  0  0  0  0  0  0  0  0  0  0
  -28.8417  -15.9387  -26.7251 H   0  0  0  0  0  0  0  0  0  0  0  0
  -28.2080  -12.3908  -20.7608 H   0  0  0  0  0  0  0  0  0  0  0  0
  -27.4780  -13.5026  -21.9682 H   0  0  0  0  0  0  0  0  0  0  0  0
  -27.0363  -11.7615  -21.9682 H   0  0  0  0  0  0  0  0  0  0  0  0
  -34.0155   -8.9381  -24.7904 H   0  0  0  0  0  0  0  0  0  0  0  0
  -33.3558   -8.0451  -26.2025 H   0  0  0  0  0  0  0  0  0  0  0  0
  -35.0686   -8.5865  -26.2025 H   0  0  0  0  0  0  0  0  0  0  0  0
  -35.5075  -12.0028  -28.1694 H   0  0  0  0  0  0  0  0  0  0  0  0
  -35.4736  -11.0367  -29.6833 H   0  0  0  0  0  0  0  0  0  0  0  0
  -34.8681  -12.7278  -29.6833 H   0  0  0  0  0  0  0  0  0  0  0  0
  -30.9173  -14.6398  -30.6448 H   0  0  0  0  0  0  0  0  0  0  0  0
  -31.4760  -13.2961  -31.6954 H   0  0  0  0  0  0  0  0  0  0  0  0
  -30.3432  -11.7337  -29.6742 H   0  0  0  0  0  0  0  0  0  0  0  0
  -27.9174  -12.5658  -29.8602 H   0  0  0  0  0  0  0  0  0  0  0  0
  -28.5342  -14.1624  -30.6969 H   0  0  0  0  0  0  0  0  0  0  0  0
  -34.7103  -13.8982  -24.1806 H   0  0  0  0  0  0  0  0  0  0  0  0
  -34.4505  -12.9953  -25.7116 H   0  0  0  0  0  0  0  0  0  0  0  0
  -35.4321  -14.4997  -25.7116 H   0  0  0  0  0  0  0  0  0  0  0  0
  -31.6467  -18.2800  -23.6539 H   0  0  0  0  0  0  0  0  0  0  0  0
  -32.5420  -18.0801  -25.1983 H   0  0  0  0  0  0  0  0  0  0  0  0
  -30.7459  -18.1074  -25.1983 H   0  0  0  0  0  0  0  0  0  0  0  0
  -27.8554  -13.0405  -25.8322 H   0  0  0  0  0  0  0  0  0  0  0  0
  -28.7570  -13.3550  -27.3537 H   0  0  0  0  0  0  0  0  0  0  0  0
  -27.3626  -12.2226  -27.3537 H   0  0  0  0  0  0  0  0  0  0  0  0
  -30.8893   -7.3658  -25.5331 H   0  0  0  0  0  0  0  0  0  0  0  0
  -29.9966   -7.2300  -27.0860 H   0  0  0  0  0  0  0  0  0  0  0  0
  -31.7908   -7.3157  -27.0860 H   0  0  0  0  0  0  0  0  0  0  0  0
  -27.0689  -18.9676  -20.6738 H   0  0  0  0  0  0  0  0  0  0  0  0
  -25.8262  -19.6648  -21.7676 H   0  0  0  0  0  0  0  0  0  0  0  0
  -26.1314  -17.8946  -21.7676 H   0  0  0  0  0  0  0  0  0  0  0  0
  -28.7435   -9.7174  -21.1751 H   0  0  0  0  0  0  0  0  0  0  0  0
  -34.7172  -16.7114  -25.5866 H   0  0  0  0  0  0  0  0  0  0  0  0
  -25.8312  -19.4096  -24.1574 H   0  0  0  0  0  0  0  0  0  0  0  0
  1  2  1  0
  1 46  1  0
  1 47  2  0
  2  3  1  0
  2 45  1  0
  3  4  1  0
  4  5  1  0
  5  6  1  0
  6 45  1  0
  7  8  1  0
  7 45  1  0
  7 48  2  0
  8  9  1  0
  8 49  2  0
  9 10  1  0
  9 50  1  0
  9 51  1  1
 10 11  1  0
 10 34  1  0
 11 12  1  0
 12 13  1  0
 12 52  1  0
 13 14  1  0
 13 50  1  0
 14 15  1  0
 14 53  1  0
 15 16  1  0
 16 17  1  0
 16 35  1  0
 17 18  1  0
 18 19  2  3
 18 36  1  0
 19 20  1  0
 20 21  1  0
 20 37  1  0
 21 22  1  0
 21 54  2  0
 22 23  1  0
 23 24  1  0
 23 55  1  0
 24 25  1  0
 24 40  1  0
 25 26  1  0
 25 46  1  0
 26 27  2  3
 26 41  1  0
 28 27  1  0
 28 29  1  0
 28 33  1  0
 29 30  1  0
 30 31  1  0
 30 56  1  0
 31 32  1  0
 31 57  1  0
 32 33  1  0
 37 38  1  0
 38 39  2  0
 42 52  1  0
 43 53  1  0
 44 56  1  0
  2 58  1  1
  3 59  1  0
  3 60  1  0
  4 61  1  0
  4 62  1  0
  5 63  1  0
  5 64  1  0
  6 65  1  0
  6 66  1  0
 10 67  1  6
 11 68  1  0
 11 69  1  0
 12 70  1  6
 13 71  1  1
 14 72  1  1
 15 73  1  0
 15 74  1  0
 16 75  1  6
 17 76  1  0
 17 77  1  0
 19 78  1  0
 20 79  1  6
 22 80  1  0
 22 81  1  0
 23 82  1  6
 24 83  1  6
 25 84  1  1
 27 85  1  0
 28 86  1  1
 29 87  1  0
 29 88  1  0
 30 89  1  1
 31 90  1  6
 32 91  1  0
 32 92  1  0
 33 93  1  0
 33 94  1  0
 34 95  1  0
 34 96  1  0
 34 97  1  0
 35 98  1  0
 35 99  1  0
 35100  1  0
 36101  1  0
 36102  1  0
 36103  1  0
 37104  1  0
 37105  1  0
 38106  1  0
 39107  1  0
 39108  1  0
 40109  1  0
 40110  1  0
 40111  1  0
 41112  1  0
 41113  1  0
 41114  1  0
 42115  1  0
 42116  1  0
 42117  1  0
 43118  1  0
 43119  1  0
 43120  1  0
 44121  1  0
 44122  1  0
 44123  1  0
 51124  1  0
 55125  1  0
 57126  1  0
M  END
>  <filename_input>  (12) 
7U0U_FK5_docked.sdf

>  <pdb_id>  (12) 
7U0U_FK5

>  <pose_rank>  (12) 
11

>  <num_atoms_heavy>  (12) 
57

>  <num_torsions>  (12) 
7

>  <pose>  (12) 
[-33.131635459819, -14.898922530198197, -22.073854545023632, -2.4196468986824753, -2.8157559312944844, 1.5213652252026366, 3.29551078186872, -3.4496489706670377, -0.6563055770462665, -0.7752464740362706, -0.408430099627287, 1.421749572226287, -1.81445788922868]

>  <energy>  (12) 
-567.5317036848921

>  <inter_energy>  (12) 
-611.9970870197304

>  <intra_energy>  (12) 
48.333247012936795

>  <rmsd>  (12) 
7.41605

>  <sdf_rank>  (12) 
0

$$$$

     RDKit          3D

126129  0  0  0  0  0  0  0  0999 V2000
  -29.6155  -10.3766  -24.0868 C   0  0  0  0  0  0  0  0  0  0  0  0
  -30.0220  -10.6415  -22.6665 C   0  0  2  0  0  0  0  0  0  0  0  0
  -28.8839  -10.2212  -21.7287 C   0  0  0  0  0  0  0  0  0  0  0  0
  -27.6756  -11.1606  -21.8295 C   0  0  0  0  0  0  0  0  0  0  0  0
  -28.0794  -12.6212  -21.5984 C   0  0  0  0  0  0  0  0  0  0  0  0
  -29.1915  -13.0381  -22.5708 C   0  0  0  0  0  0  0  0  0  0  0  0
  -31.5535  -12.4583  -22.2228 C   0  0  0  0  0  0  0  0  0  0  0  0
  -31.9228  -13.7766  -21.9953 C   0  0  0  0  0  0  0  0  0  0  0  0
  -32.3903  -14.6819  -23.1281 C   0  0  1  0  0  0  0  0  0  0  0  0
  -33.1395  -13.9007  -24.2133 C   0  0  1  0  0  0  0  0  0  0  0  0
  -33.2224  -14.7225  -25.5044 C   0  0  0  0  0  0  0  0  0  0  0  0
  -31.8542  -15.3209  -25.8603 C   0  0  1  0  0  0  0  0  0  0  0  0
  -31.3476  -16.1577  -24.6879 C   0  0  1  0  0  0  0  0  0  0  0  0
  -29.9691  -16.8087  -24.8940 C   0  0  2  0  0  0  0  0  0  0  0  0
  -28.9423  -15.8468  -25.4852 C   0  0  0  0  0  0  0  0  0  0  0  0
  -27.4991  -16.3736  -25.5091 C   0  0  2  0  0  0  0  0  0  0  0  0
  -27.2746  -17.2436  -26.7543 C   0  0  0  0  0  0  0  0  0  0  0  0
  -27.0357  -16.3745  -27.9604 C   0  0  0  0  0  0  0  0  0  0  0  0
  -28.1477  -16.1123  -28.8797 C   0  0  0  0  0  0  0  0  0  0  0  0
  -27.9784  -15.2211  -30.0800 C   0  0  2  0  0  0  0  0  0  0  0  0
  -28.3847  -13.8378  -29.6771 C   0  0  0  0  0  0  0  0  0  0  0  0
  -27.3889  -12.8426  -29.1052 C   0  0  0  0  0  0  0  0  0  0  0  0
  -28.0665  -11.6542  -28.4185 C   0  0  1  0  0  0  0  0  0  0  0  0
  -28.4869  -11.9463  -26.9672 C   0  0  2  0  0  0  0  0  0  0  0  0
  -29.2760  -10.8172  -26.2972 C   0  0  1  0  0  0  0  0  0  0  0  0
  -30.5235  -10.5314  -27.0992 C   0  0  0  0  0  0  0  0  0  0  0  0
  -31.5333  -11.5738  -27.2091 C   0  0  0  0  0  0  0  0  0  0  0  0
  -32.8460  -11.3746  -27.9088 C   0  0  1  0  0  0  0  0  0  0  0  0
  -33.8617  -12.3087  -27.2522 C   0  0  0  0  0  0  0  0  0  0  0  0
  -35.2396  -12.1285  -27.8778 C   0  0  2  0  0  0  0  0  0  0  0  0
  -35.7073  -10.6796  -27.7231 C   0  0  1  0  0  0  0  0  0  0  0  0
  -34.6996   -9.7093  -28.3366 C   0  0  0  0  0  0  0  0  0  0  0  0
  -33.2879   -9.9077  -27.7532 C   0  0  0  0  0  0  0  0  0  0  0  0
  -34.5384  -13.4552  -23.7645 C   0  0  0  0  0  0  0  0  0  0  0  0
  -27.1615  -17.1608  -24.2344 C   0  0  0  0  0  0  0  0  0  0  0  0
  -25.6641  -15.8123  -28.2115 C   0  0  0  0  0  0  0  0  0  0  0  0
  -28.9325  -15.7166  -31.1635 C   0  0  0  0  0  0  0  0  0  0  0  0
  -28.3056  -16.8964  -31.8812 C   0  0  0  0  0  0  0  0  0  0  0  0
  -27.5785  -16.6545  -33.1242 C   0  0  0  0  0  0  0  0  0  0  0  0
  -27.2833  -12.2834  -26.0817 C   0  0  0  0  0  0  0  0  0  0  0  0
  -30.6971   -9.1767  -27.7461 C   0  0  0  0  0  0  0  0  0  0  0  0
  -32.7488  -15.4462  -28.0154 C   0  0  0  0  0  0  0  0  0  0  0  0
  -30.0336  -19.1509  -24.9022 C   0  0  0  0  0  0  0  0  0  0  0  0
  -36.1891  -14.2974  -27.7337 C   0  0  0  0  0  0  0  0  0  0  0  0
  -30.2965  -12.0735  -22.4919 N   0  0  0  0  0  0  0  0  0  0  0  0
  -29.6378  -11.2710  -24.9949 O   0  0  0  0  0  0  0  0  0  0  0  0
  -29.2314   -9.0880  -24.3717 O   0  0  0  0  0  0  0  0  0  0  0  0
  -32.5466  -11.5027  -22.1701 O   0  0  0  0  0  0  0  0  0  0  0  0
  -31.8565  -14.3067  -20.7114 O   0  0  0  0  0  0  0  0  0  0  0  0
  -31.2003  -15.2693  -23.6018 O   0  0  0  0  0  0  0  0  0  0  0  0
  -33.2533  -15.7049  -22.5924 O   0  0  0  0  0  0  0  0  0  0  0  0
  -31.9696  -16.1108  -27.0357 O   0  0  0  0  0  0  0  0  0  0  0  0
  -30.0624  -17.9712  -25.6833 O   0  0  0  0  0  0  0  0  0  0  0  0
  -29.7266  -13.5086  -29.8213 O   0  0  0  0  0  0  0  0  0  0  0  0
  -27.1442  -10.5875  -28.4327 O   0  0  0  0  0  0  0  0  0  0  0  0
  -36.1676  -12.9683  -27.2333 O   0  0  0  0  0  0  0  0  0  0  0  0
  -36.9642  -10.5393  -28.3648 O   0  0  0  0  0  0  0  0  0  0  0  0
  -30.9288  -10.0658  -22.4295 H   0  0  0  0  0  0  0  0  0  0  0  0
  -28.5641   -9.2026  -21.9935 H   0  0  0  0  0  0  0  0  0  0  0  0
  -29.2619  -10.2656  -20.6966 H   0  0  0  0  0  0  0  0  0  0  0  0
  -27.2322  -11.0665  -22.8318 H   0  0  0  0  0  0  0  0  0  0  0  0
  -26.9508  -10.8756  -21.0527 H   0  0  0  0  0  0  0  0  0  0  0  0
  -27.2027  -13.2670  -21.7543 H   0  0  0  0  0  0  0  0  0  0  0  0
  -28.4528  -12.7257  -20.5690 H   0  0  0  0  0  0  0  0  0  0  0  0
  -28.7940  -13.0575  -23.5963 H   0  0  0  0  0  0  0  0  0  0  0  0
  -29.5584  -14.0395  -22.3014 H   0  0  0  0  0  0  0  0  0  0  0  0
  -32.5617  -12.9845  -24.4048 H   0  0  0  0  0  0  0  0  0  0  0  0
  -33.9475  -15.5381  -25.3665 H   0  0  0  0  0  0  0  0  0  0  0  0
  -33.5407  -14.0605  -26.3231 H   0  0  0  0  0  0  0  0  0  0  0  0
  -31.1312  -14.5150  -26.0548 H   0  0  0  0  0  0  0  0  0  0  0  0
  -32.0710  -16.9740  -24.5451 H   0  0  0  0  0  0  0  0  0  0  0  0
  -29.6127  -17.0894  -23.8920 H   0  0  0  0  0  0  0  0  0  0  0  0
  -29.2409  -15.6221  -26.5198 H   0  0  0  0  0  0  0  0  0  0  0  0
  -28.9364  -14.9625  -24.8311 H   0  0  0  0  0  0  0  0  0  0  0  0
  -26.8238  -15.5062  -25.5499 H   0  0  0  0  0  0  0  0  0  0  0  0
  -26.3990  -17.8896  -26.5930 H   0  0  0  0  0  0  0  0  0  0  0  0
  -28.1693  -17.8595  -26.9276 H   0  0  0  0  0  0  0  0  0  0  0  0
  -29.1261  -16.5769  -28.6878 H   0  0  0  0  0  0  0  0  0  0  0  0
  -26.9414  -15.2284  -30.4469 H   0  0  0  0  0  0  0  0  0  0  0  0
  -26.7574  -13.3610  -28.3687 H   0  0  0  0  0  0  0  0  0  0  0  0
  -26.7967  -12.4473  -29.9437 H   0  0  0  0  0  0  0  0  0  0  0  0
  -28.9927  -11.4183  -28.9631 H   0  0  0  0  0  0  0  0  0  0  0  0
  -29.1553  -12.8153  -27.0561 H   0  0  0  0  0  0  0  0  0  0  0  0
  -28.6762   -9.8969  -26.2388 H   0  0  0  0  0  0  0  0  0  0  0  0
  -31.3243  -12.5549  -26.7577 H   0  0  0  0  0  0  0  0  0  0  0  0
  -32.7632  -11.5992  -28.9824 H   0  0  0  0  0  0  0  0  0  0  0  0
  -33.5360  -13.3504  -27.3892 H   0  0  0  0  0  0  0  0  0  0  0  0
  -33.9245  -12.0672  -26.1809 H   0  0  0  0  0  0  0  0  0  0  0  0
  -35.1727  -12.3841  -28.9456 H   0  0  0  0  0  0  0  0  0  0  0  0
  -35.7959  -10.4414  -26.6529 H   0  0  0  0  0  0  0  0  0  0  0  0
  -34.6624   -9.8743  -29.4235 H   0  0  0  0  0  0  0  0  0  0  0  0
  -35.0254   -8.6848  -28.1037 H   0  0  0  0  0  0  0  0  0  0  0  0
  -33.2959   -9.6426  -26.6857 H   0  0  0  0  0  0  0  0  0  0  0  0
  -32.5823   -9.2622  -28.2968 H   0  0  0  0  0  0  0  0  0  0  0  0
  -34.5836  -13.4408  -22.6656 H   0  0  0  0  0  0  0  0  0  0  0  0
  -34.7444  -12.4470  -24.1533 H   0  0  0  0  0  0  0  0  0  0  0  0
  -35.2895  -14.1586  -24.1533 H   0  0  0  0  0  0  0  0  0  0  0  0
  -27.4202  -16.5576  -23.3516 H   0  0  0  0  0  0  0  0  0  0  0  0
  -27.7367  -18.0983  -24.2193 H   0  0  0  0  0  0  0  0  0  0  0  0
  -26.0858  -17.3904  -24.2193 H   0  0  0  0  0  0  0  0  0  0  0  0
  -25.1693  -15.6095  -27.2502 H   0  0  0  0  0  0  0  0  0  0  0  0
  -25.0691  -16.5391  -28.7840 H   0  0  0  0  0  0  0  0  0  0  0  0
  -25.7503  -14.8770  -28.7840 H   0  0  0  0  0  0  0  0  0  0  0  0
  -29.8815  -16.0285  -30.7030 H   0  0  0  0  0  0  0  0  0  0  0  0
  -29.1255  -14.9073  -31.8832 H   0  0  0  0  0  0  0  0  0  0  0  0
  -28.3967  -17.9139  -31.4735 H   0  0  0  0  0  0  0  0  0  0  0  0
  -27.1152  -17.4943  -33.6628 H   0  0  0  0  0  0  0  0  0  0  0  0
  -27.4941  -15.6324  -33.5221 H   0  0  0  0  0  0  0  0  0  0  0  0
  -27.5724  -12.2024  -25.0235 H   0  0  0  0  0  0  0  0  0  0  0  0
  -26.9488  -13.3098  -26.2929 H   0  0  0  0  0  0  0  0  0  0  0  0
  -26.4643  -11.5801  -26.2929 H   0  0  0  0  0  0  0  0  0  0  0  0
  -30.7957   -8.4077  -26.9658 H   0  0  0  0  0  0  0  0  0  0  0  0
  -29.8202   -8.9540  -28.3717 H   0  0  0  0  0  0  0  0  0  0  0  0
  -31.6019   -9.1824  -28.3717 H   0  0  0  0  0  0  0  0  0  0  0  0
  -33.4958  -14.8091  -27.5195 H   0  0  0  0  0  0  0  0  0  0  0  0
  -32.0948  -14.8236  -28.6436 H   0  0  0  0  0  0  0  0  0  0  0  0
  -33.2604  -16.1903  -28.6436 H   0  0  0  0  0  0  0  0  0  0  0  0
  -30.0401  -18.8843  -23.8350 H   0  0  0  0  0  0  0  0  0  0  0  0
  -30.9171  -19.7646  -25.1322 H   0  0  0  0  0  0  0  0  0  0  0  0
  -29.1213  -19.7208  -25.1322 H   0  0  0  0  0  0  0  0  0  0  0  0
  -36.2006  -15.0059  -26.8923 H   0  0  0  0  0  0  0  0  0  0  0  0
  -37.0898  -14.4433  -28.3482 H   0  0  0  0  0  0  0  0  0  0  0  0
  -35.2937  -14.4724  -28.3482 H   0  0  0  0  0  0  0  0  0  0  0  0
  -33.2273  -15.6740  -21.6033 H   0  0  0  0  0  0  0  0  0  0  0  0
  -26.9223  -10.3308  -27.5027 H   0  0  0  0  0  0  0  0  0  0  0  0
  -37.6764  -10.4599  -27.6818 H   0  0  0  0  0  0  0  0  0  0  0  0
  1  2  1  0
  1 46  1  0
  1 47  2  0
  2  3  1  0
  2 45  1  0
  3  4  1  0
  4  5  1  0
  5  6  1  0
  6 45  1  0
  7  8  1  0
  7 45  1  0
  7 48  2  0
  8  9  1  0
  8 49  2  0
  9 10  1  0
  9 50  1  0
  9 51  1  1
 10 11  1  0
 10 34  1  0
 11 12  1  0
 12 13  1  0
 12 52  1  0
 13 14  1  0
 13 50  1  0
 14 15  1  0
 14 53  1  0
 15 16  1  0
 16 17  1  0
 16 35  1  0
 17 18  1  0
 18 19  2  3
 18 36  1  0
 19 20  1  0
 20 21  1  0
 20 37  1  0
 21 22  1  0
 21 54  2  0
 22 23  1  0
 23 24  1  0
 23 55  1  0
 24 25  1  0
 24 40  1  0
 25 26  1  0
 25 46  1  0
 26 27  2  3
 26 41  1  0
 28 27  1  0
 28 29  1  0
 28 33  1  0
 29 30  1  0
 30 31  1  0
 30 56  1  0
 31 32  1  0
 31 57  1  0
 32 33  1  0
 37 38  1  0
 38 39  2  0
 42 52  1  0
 43 53  1  0
 44 56  1  0
  2 58  1  1
  3 59  1  0
  3 60  1  0
  4 61  1  0
  4 62  1  0
  5 63  1  0
  5 64  1  0
  6 65  1  0
  6 66  1  0
 10 67  1  6
 11 68  1  0
 11 69  1  0
 12 70  1  6
 13 71  1  1
 14 72  1  1
 15 73  1  0
 15 74  1  0
 16 75  1  6
 17 76  1  0
 17 77  1  0
 19 78  1  0
 20 79  1  6
 22 80  1  0
 22 81  1  0
 23 82  1  6
 24 83  1  6
 25 84  1  1
 27 85  1  0
 28 86  1  6
 29 87  1  0
 29 88  1  0
 30 89  1  6
 31 90  1  1
 32 91  1  0
 32 92  1  0
 33 93  1  0
 33 94  1  0
 34 95  1  0
 34 96  1  0
 34 97  1  0
 35 98  1  0
 35 99  1  0
 35100  1  0
 36101  1  0
 36102  1  0
 36103  1  0
 37104  1  0
 37105  1  0
 38106  1  0
 39107  1  0
 39108  1  0
 40109  1  0
 40110  1  0
 40111  1  0
 41112  1  0
 41113  1  0
 41114  1  0
 42115  1  0
 42116  1  0
 42117  1  0
 43118  1  0
 43119  1  0
 43120  1  0
 44121  1  0
 44122  1  0
 44123  1  0
 51124  1  0
 55125  1  0
 57126  1  0
M  END
>  <filename_input>  (13) 
7U0U_FK5_docked.sdf

>  <pdb_id>  (13) 
7U0U_FK5

>  <pose_rank>  (13) 
12

>  <num_atoms_heavy>  (13) 
57

>  <num_torsions>  (13) 
7

>  <pose>  (13) 
[-29.615533894957725, -10.376592779304575, -24.08684161097838, 2.8797933386404595, -1.953445553859347, -0.8014499768508822, 3.081734899788008, 1.0782560052970287, -0.10802383271263499, -0.7121202340448107, -6.588918520604216, -0.41124862007074914, 0.25742234510916995]

>  <energy>  (13) 
-596.0204122896615

>  <inter_energy>  (13) 
-656.9529633677625

>  <intra_energy>  (13) 
64.59780933277135

>  <rmsd>  (13) 
7.47371

>  <sdf_rank>  (13) 
0

$$$$

     RDKit          3D

126129  0  0  0  0  0  0  0  0999 V2000
  -29.4124  -14.9600  -29.2001 C   0  0  0  0  0  0  0  0  0  0  0  0
  -28.3740  -14.1430  -29.9122 C   0  0  2  0  0  0  0  0  0  0  0  0
  -27.0772  -14.9546  -30.0168 C   0  0  0  0  0  0  0  0  0  0  0  0
  -26.3869  -15.1184  -28.6569 C   0  0  0  0  0  0  0  0  0  0  0  0
  -26.1449  -13.7627  -27.9835 C   0  0  0  0  0  0  0  0  0  0  0  0
  -27.4583  -12.9795  -27.8505 C   0  0  0  0  0  0  0  0  0  0  0  0
  -28.4635  -11.7354  -29.7155 C   0  0  0  0  0  0  0  0  0  0  0  0
  -28.2315  -10.5038  -29.1194 C   0  0  0  0  0  0  0  0  0  0  0  0
  -29.2689   -9.8441  -28.2193 C   0  0  1  0  0  0  0  0  0  0  0  0
  -30.7000  -10.1744  -28.6576 C   0  0  1  0  0  0  0  0  0  0  0  0
  -31.6902   -9.8685  -27.5284 C   0  0  0  0  0  0  0  0  0  0  0  0
  -31.1929  -10.4434  -26.1947 C   0  0  1  0  0  0  0  0  0  0  0  0
  -29.8018   -9.8910  -25.8930 C   0  0  1  0  0  0  0  0  0  0  0  0
  -29.1638  -10.3975  -24.5880 C   0  0  2  0  0  0  0  0  0  0  0  0
  -29.3076  -11.9058  -24.4049 C   0  0  0  0  0  0  0  0  0  0  0  0
  -28.5043  -12.4964  -23.2358 C   0  0  2  0  0  0  0  0  0  0  0  0
  -29.2914  -12.3484  -21.9257 C   0  0  0  0  0  0  0  0  0  0  0  0
  -30.3383  -13.4258  -21.8228 C   0  0  0  0  0  0  0  0  0  0  0  0
  -31.7239  -13.1079  -22.1822 C   0  0  0  0  0  0  0  0  0  0  0  0
  -32.8049  -14.1532  -22.1355 C   0  0  2  0  0  0  0  0  0  0  0  0
  -32.9097  -14.7567  -23.5015 C   0  0  0  0  0  0  0  0  0  0  0  0
  -32.0931  -15.9723  -23.9074 C   0  0  0  0  0  0  0  0  0  0  0  0
  -32.0624  -16.1865  -25.4228 C   0  0  1  0  0  0  0  0  0  0  0  0
  -31.0002  -15.3333  -26.1384 C   0  0  2  0  0  0  0  0  0  0  0  0
  -31.0300  -15.4362  -27.6665 C   0  0  1  0  0  0  0  0  0  0  0  0
  -32.3895  -15.0153  -28.1721 C   0  0  0  0  0  0  0  0  0  0  0  0
  -32.7536  -13.6080  -28.0984 C   0  0  0  0  0  0  0  0  0  0  0  0
  -34.0408  -13.0634  -28.6450 C   0  0  1  0  0  0  0  0  0  0  0  0
  -34.5480  -12.0108  -27.6600 C   0  0  0  0  0  0  0  0  0  0  0  0
  -35.8335  -11.3720  -28.1718 C   0  0  2  0  0  0  0  0  0  0  0  0
  -35.5954  -10.7192  -29.5353 C   0  0  1  0  0  0  0  0  0  0  0  0
  -35.0529  -11.7325  -30.5414 C   0  0  0  0  0  0  0  0  0  0  0  0
  -33.7795  -12.4267  -30.0225 C   0  0  0  0  0  0  0  0  0  0  0  0
  -31.1081   -9.4479  -29.9469 C   0  0  0  0  0  0  0  0  0  0  0  0
  -27.1211  -11.8411  -23.1097 C   0  0  0  0  0  0  0  0  0  0  0  0
  -29.9510  -14.7943  -21.3352 C   0  0  0  0  0  0  0  0  0  0  0  0
  -34.1185  -13.4475  -21.8090 C   0  0  0  0  0  0  0  0  0  0  0  0
  -34.1138  -13.0311  -20.3508 C   0  0  0  0  0  0  0  0  0  0  0  0
  -35.2428  -13.4163  -19.5085 C   0  0  0  0  0  0  0  0  0  0  0  0
  -29.5837  -15.6677  -25.6611 C   0  0  0  0  0  0  0  0  0  0  0  0
  -33.3210  -16.0542  -28.7523 C   0  0  0  0  0  0  0  0  0  0  0  0
  -33.0424  -11.1543  -24.9559 C   0  0  0  0  0  0  0  0  0  0  0  0
  -28.9472   -8.5398  -23.1766 C   0  0  0  0  0  0  0  0  0  0  0  0
  -35.3941   -9.2578  -27.1900 C   0  0  0  0  0  0  0  0  0  0  0  0
  -28.1190  -12.9075  -29.1605 N   0  0  0  0  0  0  0  0  0  0  0  0
  -30.0360  -14.5457  -28.1683 O   0  0  0  0  0  0  0  0  0  0  0  0
  -29.6802  -16.1950  -29.7406 O   0  0  0  0  0  0  0  0  0  0  0  0
  -29.0879  -11.7379  -30.9452 O   0  0  0  0  0  0  0  0  0  0  0  0
  -27.0226   -9.8477  -29.3240 O   0  0  0  0  0  0  0  0  0  0  0  0
  -28.9634  -10.3386  -26.9358 O   0  0  0  0  0  0  0  0  0  0  0  0
  -29.0784   -8.4154  -28.2439 O   0  0  0  0  0  0  0  0  0  0  0  0
  -32.1076  -10.1090  -25.1600 O   0  0  0  0  0  0  0  0  0  0  0  0
  -29.6769   -9.7171  -23.4670 O   0  0  0  0  0  0  0  0  0  0  0  0
  -33.7693  -14.1367  -24.3995 O   0  0  0  0  0  0  0  0  0  0  0  0
  -31.7902  -17.5527  -25.6417 O   0  0  0  0  0  0  0  0  0  0  0  0
  -36.2623  -10.3791  -27.2705 O   0  0  0  0  0  0  0  0  0  0  0  0
  -36.8240  -10.1864  -30.0021 O   0  0  0  0  0  0  0  0  0  0  0  0
  -28.7336  -13.8880  -30.9200 H   0  0  0  0  0  0  0  0  0  0  0  0
  -27.3142  -15.9516  -30.4165 H   0  0  0  0  0  0  0  0  0  0  0  0
  -26.3902  -14.4106  -30.6817 H   0  0  0  0  0  0  0  0  0  0  0  0
  -27.0242  -15.7331  -28.0042 H   0  0  0  0  0  0  0  0  0  0  0  0
  -25.4124  -15.6018  -28.8202 H   0  0  0  0  0  0  0  0  0  0  0  0
  -25.7202  -13.9278  -26.9824 H   0  0  0  0  0  0  0  0  0  0  0  0
  -25.4474  -13.1801  -28.6033 H   0  0  0  0  0  0  0  0  0  0  0  0
  -28.1188  -13.4898  -27.1341 H   0  0  0  0  0  0  0  0  0  0  0  0
  -27.2444  -11.9622  -27.4908 H   0  0  0  0  0  0  0  0  0  0  0  0
  -30.7264  -11.2515  -28.8792 H   0  0  0  0  0  0  0  0  0  0  0  0
  -31.8012   -8.7784  -27.4319 H   0  0  0  0  0  0  0  0  0  0  0  0
  -32.6571  -10.3324  -27.7729 H   0  0  0  0  0  0  0  0  0  0  0  0
  -31.1292  -11.5396  -26.2589 H   0  0  0  0  0  0  0  0  0  0  0  0
  -29.9077   -8.8003  -25.7974 H   0  0  0  0  0  0  0  0  0  0  0  0
  -28.0886  -10.1810  -24.6715 H   0  0  0  0  0  0  0  0  0  0  0  0
  -30.3712  -12.1294  -24.2358 H   0  0  0  0  0  0  0  0  0  0  0  0
  -28.9049  -12.3667  -25.3190 H   0  0  0  0  0  0  0  0  0  0  0  0
  -28.3456  -13.5653  -23.4413 H   0  0  0  0  0  0  0  0  0  0  0  0
  -28.5994  -12.4319  -21.0748 H   0  0  0  0  0  0  0  0  0  0  0  0
  -29.7856  -11.3658  -21.9132 H   0  0  0  0  0  0  0  0  0  0  0  0
  -31.9784  -12.0836  -22.4923 H   0  0  0  0  0  0  0  0  0  0  0  0
  -32.5870  -14.9281  -21.3858 H   0  0  0  0  0  0  0  0  0  0  0  0
  -31.0614  -15.8379  -23.5503 H   0  0  0  0  0  0  0  0  0  0  0  0
  -32.5686  -16.8562  -23.4573 H   0  0  0  0  0  0  0  0  0  0  0  0
  -33.0329  -15.8778  -25.8384 H   0  0  0  0  0  0  0  0  0  0  0  0
  -31.2647  -14.3007  -25.8669 H   0  0  0  0  0  0  0  0  0  0  0  0
  -30.8350  -16.4672  -27.9967 H   0  0  0  0  0  0  0  0  0  0  0  0
  -32.0515  -12.9100  -27.6190 H   0  0  0  0  0  0  0  0  0  0  0  0
  -34.7898  -13.8595  -28.7680 H   0  0  0  0  0  0  0  0  0  0  0  0
  -34.7438  -12.4892  -26.6890 H   0  0  0  0  0  0  0  0  0  0  0  0
  -33.7822  -11.2286  -27.5516 H   0  0  0  0  0  0  0  0  0  0  0  0
  -36.5985  -12.1569  -28.2654 H   0  0  0  0  0  0  0  0  0  0  0  0
  -34.8485   -9.9190  -29.4268 H   0  0  0  0  0  0  0  0  0  0  0  0
  -35.8230  -12.4951  -30.7295 H   0  0  0  0  0  0  0  0  0  0  0  0
  -34.7967  -11.1937  -31.4656 H   0  0  0  0  0  0  0  0  0  0  0  0
  -32.9729  -11.6844  -29.9319 H   0  0  0  0  0  0  0  0  0  0  0  0
  -33.4881  -13.2156  -30.7316 H   0  0  0  0  0  0  0  0  0  0  0  0
  -31.6321   -8.5149  -29.6919 H   0  0  0  0  0  0  0  0  0  0  0  0
  -30.2092   -9.2142  -30.5363 H   0  0  0  0  0  0  0  0  0  0  0  0
  -31.7754  -10.0939  -30.5363 H   0  0  0  0  0  0  0  0  0  0  0  0
  -26.8678  -11.7211  -22.0460 H   0  0  0  0  0  0  0  0  0  0  0  0
  -26.3679  -12.4781  -23.5964 H   0  0  0  0  0  0  0  0  0  0  0  0
  -27.1369  -10.8547  -23.5964 H   0  0  0  0  0  0  0  0  0  0  0  0
  -29.9481  -14.8043  -20.2352 H   0  0  0  0  0  0  0  0  0  0  0  0
  -30.6749  -15.5344  -21.7068 H   0  0  0  0  0  0  0  0  0  0  0  0
  -28.9465  -15.0452  -21.7068 H   0  0  0  0  0  0  0  0  0  0  0  0
  -34.2252  -12.5567  -22.4454 H   0  0  0  0  0  0  0  0  0  0  0  0
  -34.9603  -14.1308  -21.9948 H   0  0  0  0  0  0  0  0  0  0  0  0
  -33.2768  -12.4504  -19.9358 H   0  0  0  0  0  0  0  0  0  0  0  0
  -35.2619  -13.1258  -18.4478 H   0  0  0  0  0  0  0  0  0  0  0  0
  -36.0741  -13.9970  -19.9349 H   0  0  0  0  0  0  0  0  0  0  0  0
  -29.5591  -15.6735  -24.5613 H   0  0  0  0  0  0  0  0  0  0  0  0
  -29.2936  -16.6590  -26.0395 H   0  0  0  0  0  0  0  0  0  0  0  0
  -28.8809  -14.9108  -26.0395 H   0  0  0  0  0  0  0  0  0  0  0  0
  -33.8129  -16.6027  -27.9355 H   0  0  0  0  0  0  0  0  0  0  0  0
  -34.0829  -15.5585  -29.3719 H   0  0  0  0  0  0  0  0  0  0  0  0
  -32.7455  -16.7577  -29.3719 H   0  0  0  0  0  0  0  0  0  0  0  0
  -33.1847  -11.3135  -23.8768 H   0  0  0  0  0  0  0  0  0  0  0  0
  -34.0035  -10.8818  -25.4162 H   0  0  0  0  0  0  0  0  0  0  0  0
  -32.6646  -12.0792  -25.4162 H   0  0  0  0  0  0  0  0  0  0  0  0
  -28.8702   -8.4156  -22.0864 H   0  0  0  0  0  0  0  0  0  0  0  0
  -27.9386   -8.6175  -23.6089 H   0  0  0  0  0  0  0  0  0  0  0  0
  -29.4654   -7.6711  -23.6089 H   0  0  0  0  0  0  0  0  0  0  0  0
  -35.2060   -9.0148  -26.1338 H   0  0  0  0  0  0  0  0  0  0  0  0
  -34.4419   -9.4950  -27.6869 H   0  0  0  0  0  0  0  0  0  0  0  0
  -35.8622   -8.3953  -27.6869 H   0  0  0  0  0  0  0  0  0  0  0  0
  -29.0326   -8.0725  -27.3163 H   0  0  0  0  0  0  0  0  0  0  0  0
  -31.6982  -18.0146  -24.7709 H   0  0  0  0  0  0  0  0  0  0  0  0
  -37.3917   -9.9401  -29.2293 H   0  0  0  0  0  0  0  0  0  0  0  0
  1  2  1  0
  1 46  1  0
  1 47  2  0
  2  3  1  0
  2 45  1  0
  3  4  1  0
  4  5  1  0
  5  6  1  0
  6 45  1  0
  7  8  1  0
  7 45  1  0
  7 48  2  0
  8  9  1  0
  8 49  2  0
  9 10  1  0
  9 50  1  0
  9 51  1  1
 10 11  1  0
 10 34  1  0
 11 12  1  0
 12 13  1  0
 12 52  1  0
 13 14  1  0
 13 50  1  0
 14 15  1  0
 14 53  1  0
 15 16  1  0
 16 17  1  0
 16 35  1  0
 17 18  1  0
 18 19  2  3
 18 36  1  0
 19 20  1  0
 20 21  1  0
 20 37  1  0
 21 22  1  0
 21 54  2  0
 22 23  1  0
 23 24  1  0
 23 55  1  0
 24 25  1  0
 24 40  1  0
 25 26  1  0
 25 46  1  0
 26 27  2  3
 26 41  1  0
 28 27  1  0
 28 29  1  0
 28 33  1  0
 29 30  1  0
 30 31  1  0
 30 56  1  0
 31 32  1  0
 31 57  1  0
 32 33  1  0
 37 38  1  0
 38 39  2  0
 42 52  1  0
 43 53  1  0
 44 56  1  0
  2 58  1  6
  3 59  1  0
  3 60  1  0
  4 61  1  0
  4 62  1  0
  5 63  1  0
  5 64  1  0
  6 65  1  0
  6 66  1  0
 10 67  1  6
 11 68  1  0
 11 69  1  0
 12 70  1  6
 13 71  1  1
 14 72  1  6
 15 73  1  0
 15 74  1  0
 16 75  1  6
 17 76  1  0
 17 77  1  0
 19 78  1  0
 20 79  1  1
 22 80  1  0
 22 81  1  0
 23 82  1  6
 24 83  1  6
 25 84  1  1
 27 85  1  0
 28 86  1  6
 29 87  1  0
 29 88  1  0
 30 89  1  6
 31 90  1  1
 32 91  1  0
 32 92  1  0
 33 93  1  0
 33 94  1  0
 34 95  1  0
 34 96  1  0
 34 97  1  0
 35 98  1  0
 35 99  1  0
 35100  1  0
 36101  1  0
 36102  1  0
 36103  1  0
 37104  1  0
 37105  1  0
 38106  1  0
 39107  1  0
 39108  1  0
 40109  1  0
 40110  1  0
 40111  1  0
 41112  1  0
 41113  1  0
 41114  1  0
 42115  1  0
 42116  1  0
 42117  1  0
 43118  1  0
 43119  1  0
 43120  1  0
 44121  1  0
 44122  1  0
 44123  1  0
 51124  1  0
 55125  1  0
 57126  1  0
M  END
>  <filename_input>  (14) 
7U0U_FK5_docked.sdf

>  <pdb_id>  (14) 
7U0U_FK5

>  <pose_rank>  (14) 
13

>  <num_atoms_heavy>  (14) 
57

>  <num_torsions>  (14) 
7

>  <pose>  (14) 
[-29.41242695537331, -14.959965815287532, -29.200073304622972, -0.6791421025191196, 4.174431558892762, -1.5284844889309726, 3.2031880264490358, -0.10437122923200341, -3.7618654990610154, 0.16638268865688877, -6.375578057080636, -0.26689585865760773, -0.3055554476955641]

>  <energy>  (14) 
-563.6272763907702

>  <inter_energy>  (14) 
-592.3480070335562

>  <intra_energy>  (14) 
24.373041663278837

>  <rmsd>  (14) 
6.76547

>  <sdf_rank>  (14) 
0

$$$$

     RDKit          3D

126129  0  0  0  0  0  0  0  0999 V2000
  -27.4411  -15.0641  -27.5600 C   0  0  0  0  0  0  0  0  0  0  0  0
  -27.5155  -14.6362  -28.9968 C   0  0  2  0  0  0  0  0  0  0  0  0
  -26.2170  -13.9144  -29.3767 C   0  0  0  0  0  0  0  0  0  0  0  0
  -26.1023  -12.5402  -28.7051 C   0  0  0  0  0  0  0  0  0  0  0  0
  -27.3306  -11.6699  -28.9944 C   0  0  0  0  0  0  0  0  0  0  0  0
  -28.6187  -12.3901  -28.5723 C   0  0  0  0  0  0  0  0  0  0  0  0
  -29.6827  -14.1311  -29.9409 C   0  0  0  0  0  0  0  0  0  0  0  0
  -30.7894  -13.3421  -30.2211 C   0  0  0  0  0  0  0  0  0  0  0  0
  -32.0359  -13.3748  -29.3455 C   0  0  1  0  0  0  0  0  0  0  0  0
  -32.2750  -14.7632  -28.7417 C   0  0  1  0  0  0  0  0  0  0  0  0
  -33.2508  -14.6740  -27.5632 C   0  0  0  0  0  0  0  0  0  0  0  0
  -32.8597  -13.5320  -26.6148 C   0  0  1  0  0  0  0  0  0  0  0  0
  -32.7968  -12.2229  -27.3982 C   0  0  1  0  0  0  0  0  0  0  0  0
  -32.3957  -10.9857  -26.5768 C   0  0  2  0  0  0  0  0  0  0  0  0
  -31.2007  -11.2432  -25.6631 C   0  0  0  0  0  0  0  0  0  0  0  0
  -30.6209   -9.9918  -24.9858 C   0  0  2  0  0  0  0  0  0  0  0  0
  -31.4148   -9.6641  -23.7129 C   0  0  0  0  0  0  0  0  0  0  0  0
  -30.9709  -10.5506  -22.5797 C   0  0  0  0  0  0  0  0  0  0  0  0
  -31.7691  -11.7353  -22.2486 C   0  0  0  0  0  0  0  0  0  0  0  0
  -31.3541  -12.6781  -21.1520 C   0  0  2  0  0  0  0  0  0  0  0  0
  -30.5464  -13.7722  -21.7778 C   0  0  0  0  0  0  0  0  0  0  0  0
  -29.0374  -13.6722  -21.9264 C   0  0  0  0  0  0  0  0  0  0  0  0
  -28.4698  -14.6964  -22.9123 C   0  0  1  0  0  0  0  0  0  0  0  0
  -28.5642  -14.2471  -24.3811 C   0  0  2  0  0  0  0  0  0  0  0  0
  -28.1163  -15.3032  -25.3962 C   0  0  1  0  0  0  0  0  0  0  0  0
  -28.9564  -16.5474  -25.2306 C   0  0  0  0  0  0  0  0  0  0  0  0
  -28.3055  -17.7722  -24.7893 C   0  0  0  0  0  0  0  0  0  0  0  0
  -29.0518  -19.0442  -24.5113 C   0  0  1  0  0  0  0  0  0  0  0  0
  -28.0325  -20.1828  -24.5111 C   0  0  0  0  0  0  0  0  0  0  0  0
  -28.7090  -21.5089  -24.1850 C   0  0  2  0  0  0  0  0  0  0  0  0
  -29.3890  -21.4353  -22.8160 C   0  0  1  0  0  0  0  0  0  0  0  0
  -30.3922  -20.2846  -22.7629 C   0  0  0  0  0  0  0  0  0  0  0  0
  -29.7398  -18.9404  -23.1376 C   0  0  0  0  0  0  0  0  0  0  0  0
  -32.7686  -15.7834  -29.7772 C   0  0  0  0  0  0  0  0  0  0  0  0
  -30.6078   -8.7865  -25.9373 C   0  0  0  0  0  0  0  0  0  0  0  0
  -29.7366  -10.1955  -21.7980 C   0  0  0  0  0  0  0  0  0  0  0  0
  -32.6225  -13.2838  -20.5568 C   0  0  0  0  0  0  0  0  0  0  0  0
  -33.7237  -12.2411  -20.5587 C   0  0  0  0  0  0  0  0  0  0  0  0
  -34.9591  -12.5254  -19.8340 C   0  0  0  0  0  0  0  0  0  0  0  0
  -27.7668  -12.9646  -24.6376 C   0  0  0  0  0  0  0  0  0  0  0  0
  -30.4406  -16.4845  -25.5081 C   0  0  0  0  0  0  0  0  0  0  0  0
  -35.0990  -13.8050  -26.0055 C   0  0  0  0  0  0  0  0  0  0  0  0
  -34.1669   -9.4530  -26.5136 C   0  0  0  0  0  0  0  0  0  0  0  0
  -27.2457  -22.9009  -25.4290 C   0  0  0  0  0  0  0  0  0  0  0  0
  -28.6533  -13.7264  -29.1812 N   0  0  0  0  0  0  0  0  0  0  0  0
  -28.3252  -14.7543  -26.6955 O   0  0  0  0  0  0  0  0  0  0  0  0
  -26.3606  -15.8427  -27.2200 O   0  0  0  0  0  0  0  0  0  0  0  0
  -29.6565  -15.4014  -30.4774 O   0  0  0  0  0  0  0  0  0  0  0  0
  -30.7732  -12.4826  -31.3143 O   0  0  0  0  0  0  0  0  0  0  0  0
  -31.7865  -12.3905  -28.3687 O   0  0  0  0  0  0  0  0  0  0  0  0
  -33.1801  -12.9925  -30.1347 O   0  0  0  0  0  0  0  0  0  0  0  0
  -33.8038  -13.4457  -25.5564 O   0  0  0  0  0  0  0  0  0  0  0  0
  -33.4827  -10.4880  -25.8327 O   0  0  0  0  0  0  0  0  0  0  0  0
  -31.2424  -14.8787  -22.2477 O   0  0  0  0  0  0  0  0  0  0  0  0
  -27.1162  -14.8941  -22.5696 O   0  0  0  0  0  0  0  0  0  0  0  0
  -27.7479  -22.5371  -24.1512 O   0  0  0  0  0  0  0  0  0  0  0  0
  -30.0524  -22.6651  -22.5740 O   0  0  0  0  0  0  0  0  0  0  0  0
  -27.6490  -15.5202  -29.6377 H   0  0  0  0  0  0  0  0  0  0  0  0
  -25.3629  -14.5337  -29.0652 H   0  0  0  0  0  0  0  0  0  0  0  0
  -26.2221  -13.7595  -30.4657 H   0  0  0  0  0  0  0  0  0  0  0  0
  -26.0112  -12.6800  -27.6179 H   0  0  0  0  0  0  0  0  0  0  0  0
  -25.2152  -12.0310  -29.1098 H   0  0  0  0  0  0  0  0  0  0  0  0
  -27.2445  -10.7268  -28.4349 H   0  0  0  0  0  0  0  0  0  0  0  0
  -27.3754  -11.4704  -30.0752 H   0  0  0  0  0  0  0  0  0  0  0  0
  -28.6436  -12.4854  -27.4767 H   0  0  0  0  0  0  0  0  0  0  0  0
  -29.4908  -11.8104  -28.9092 H   0  0  0  0  0  0  0  0  0  0  0  0
  -31.3022  -15.1262  -28.3784 H   0  0  0  0  0  0  0  0  0  0  0  0
  -34.2650  -14.4914  -27.9481 H   0  0  0  0  0  0  0  0  0  0  0  0
  -33.2169  -15.6217  -27.0057 H   0  0  0  0  0  0  0  0  0  0  0  0
  -31.8689  -13.7285  -26.1792 H   0  0  0  0  0  0  0  0  0  0  0  0
  -33.8090  -12.0371  -27.7867 H   0  0  0  0  0  0  0  0  0  0  0  0
  -32.0882  -10.2227  -27.3071 H   0  0  0  0  0  0  0  0  0  0  0  0
  -31.5178  -11.9421  -24.8751 H   0  0  0  0  0  0  0  0  0  0  0  0
  -30.4025  -11.6433  -26.3056 H   0  0  0  0  0  0  0  0  0  0  0  0
  -29.5775  -10.2084  -24.7130 H   0  0  0  0  0  0  0  0  0  0  0  0
  -31.2447   -8.6123  -23.4394 H   0  0  0  0  0  0  0  0  0  0  0  0
  -32.4847   -9.8346  -23.9037 H   0  0  0  0  0  0  0  0  0  0  0  0
  -32.6906  -11.9389  -22.8137 H   0  0  0  0  0  0  0  0  0  0  0  0
  -30.7711  -12.1632  -20.3742 H   0  0  0  0  0  0  0  0  0  0  0  0
  -28.7855  -12.6629  -22.2840 H   0  0  0  0  0  0  0  0  0  0  0  0
  -28.5930  -13.8786  -20.9415 H   0  0  0  0  0  0  0  0  0  0  0  0
  -29.0632  -15.6195  -22.8366 H   0  0  0  0  0  0  0  0  0  0  0  0
  -29.6390  -14.0698  -24.5341 H   0  0  0  0  0  0  0  0  0  0  0  0
  -27.0593  -15.5696  -25.2487 H   0  0  0  0  0  0  0  0  0  0  0  0
  -27.2140  -17.7651  -24.6530 H   0  0  0  0  0  0  0  0  0  0  0  0
  -29.8244  -19.2272  -25.2726 H   0  0  0  0  0  0  0  0  0  0  0  0
  -27.5656  -20.2500  -25.5048 H   0  0  0  0  0  0  0  0  0  0  0  0
  -27.2703  -19.9761  -23.7455 H   0  0  0  0  0  0  0  0  0  0  0  0
  -29.4605  -21.7159  -24.9612 H   0  0  0  0  0  0  0  0  0  0  0  0
  -28.6269  -21.2537  -22.0439 H   0  0  0  0  0  0  0  0  0  0  0  0
  -31.2103  -20.4923  -23.4683 H   0  0  0  0  0  0  0  0  0  0  0  0
  -30.7695  -20.2066  -21.7326 H   0  0  0  0  0  0  0  0  0  0  0  0
  -28.9914  -18.6757  -22.3761 H   0  0  0  0  0  0  0  0  0  0  0  0
  -30.5192  -18.1657  -23.1857 H   0  0  0  0  0  0  0  0  0  0  0  0
  -33.1912  -16.6567  -29.2588 H   0  0  0  0  0  0  0  0  0  0  0  0
  -33.5427  -15.3210  -30.4073 H   0  0  0  0  0  0  0  0  0  0  0  0
  -31.9257  -16.1034  -30.4073 H   0  0  0  0  0  0  0  0  0  0  0  0
  -30.5976   -7.8561  -25.3505 H   0  0  0  0  0  0  0  0  0  0  0  0
  -29.7100   -8.8298  -26.5715 H   0  0  0  0  0  0  0  0  0  0  0  0
  -31.5062   -8.8101  -26.5715 H   0  0  0  0  0  0  0  0  0  0  0  0
  -29.9538  -10.2580  -20.7215 H   0  0  0  0  0  0  0  0  0  0  0  0
  -28.9282  -10.8975  -22.0503 H   0  0  0  0  0  0  0  0  0  0  0  0
  -29.4249   -9.1712  -22.0503 H   0  0  0  0  0  0  0  0  0  0  0  0
  -32.9346  -14.1492  -21.1599 H   0  0  0  0  0  0  0  0  0  0  0  0
  -32.4260  -13.6108  -19.5250 H   0  0  0  0  0  0  0  0  0  0  0  0
  -33.5943  -11.2896  -21.0954 H   0  0  0  0  0  0  0  0  0  0  0  0
  -35.7721  -11.7846  -19.8210 H   0  0  0  0  0  0  0  0  0  0  0  0
  -35.0767  -13.4805  -19.3011 H   0  0  0  0  0  0  0  0  0  0  0  0
  -27.4843  -12.5101  -23.6765 H   0  0  0  0  0  0  0  0  0  0  0  0
  -26.8591  -13.2055  -25.2102 H   0  0  0  0  0  0  0  0  0  0  0  0
  -28.3846  -12.2571  -25.2102 H   0  0  0  0  0  0  0  0  0  0  0  0
  -30.9909  -16.4611  -24.5559 H   0  0  0  0  0  0  0  0  0  0  0  0
  -30.6675  -15.5759  -26.0851 H   0  0  0  0  0  0  0  0  0  0  0  0
  -30.7437  -17.3706  -26.0851 H   0  0  0  0  0  0  0  0  0  0  0  0
  -35.7508  -13.9859  -25.1380 H   0  0  0  0  0  0  0  0  0  0  0  0
  -35.5159  -12.9886  -26.6135 H   0  0  0  0  0  0  0  0  0  0  0  0
  -35.0357  -14.7196  -26.6135 H   0  0  0  0  0  0  0  0  0  0  0  0
  -34.6193   -8.7686  -25.7808 H   0  0  0  0  0  0  0  0  0  0  0  0
  -33.4573   -8.8977  -27.1446 H   0  0  0  0  0  0  0  0  0  0  0  0
  -34.9558   -9.8882  -27.1446 H   0  0  0  0  0  0  0  0  0  0  0  0
  -26.3605  -23.5422  -25.3060 H   0  0  0  0  0  0  0  0  0  0  0  0
  -28.0207  -23.4485  -25.9853 H   0  0  0  0  0  0  0  0  0  0  0  0
  -26.9669  -21.9938  -25.9853 H   0  0  0  0  0  0  0  0  0  0  0  0
  -33.9267  -12.7431  -29.5343 H   0  0  0  0  0  0  0  0  0  0  0  0
  -27.0239  -14.9075  -21.5840 H   0  0  0  0  0  0  0  0  0  0  0  0
  -30.1312  -22.8111  -21.5980 H   0  0  0  0  0  0  0  0  0  0  0  0
  1  2  1  0
  1 46  1  0
  1 47  2  0
  2  3  1  0
  2 45  1  0
  3  4  1  0
  4  5  1  0
  5  6  1  0
  6 45  1  0
  7  8  1  0
  7 45  1  0
  7 48  2  0
  8  9  1  0
  8 49  2  0
  9 10  1  0
  9 50  1  0
  9 51  1  6
 10 11  1  0
 10 34  1  0
 11 12  1  0
 12 13  1  0
 12 52  1  0
 13 14  1  0
 13 50  1  0
 14 15  1  0
 14 53  1  0
 15 16  1  0
 16 17  1  0
 16 35  1  0
 17 18  1  0
 18 19  2  3
 18 36  1  0
 19 20  1  0
 20 21  1  0
 20 37  1  0
 21 22  1  0
 21 54  2  0
 22 23  1  0
 23 24  1  0
 23 55  1  0
 24 25  1  0
 24 40  1  0
 25 26  1  0
 25 46  1  0
 26 27  2  3
 26 41  1  0
 28 27  1  0
 28 29  1  0
 28 33  1  0
 29 30  1  0
 30 31  1  0
 30 56  1  0
 31 32  1  0
 31 57  1  0
 32 33  1  0
 37 38  1  0
 38 39  2  0
 42 52  1  0
 43 53  1  0
 44 56  1  0
  2 58  1  6
  3 59  1  0
  3 60  1  0
  4 61  1  0
  4 62  1  0
  5 63  1  0
  5 64  1  0
  6 65  1  0
  6 66  1  0
 10 67  1  1
 11 68  1  0
 11 69  1  0
 12 70  1  1
 13 71  1  6
 14 72  1  6
 15 73  1  0
 15 74  1  0
 16 75  1  1
 17 76  1  0
 17 77  1  0
 19 78  1  0
 20 79  1  1
 22 80  1  0
 22 81  1  0
 23 82  1  6
 24 83  1  6
 25 84  1  1
 27 85  1  0
 28 86  1  6
 29 87  1  0
 29 88  1  0
 30 89  1  6
 31 90  1  1
 32 91  1  0
 32 92  1  0
 33 93  1  0
 33 94  1  0
 34 95  1  0
 34 96  1  0
 34 97  1  0
 35 98  1  0
 35 99  1  0
 35100  1  0
 36101  1  0
 36102  1  0
 36103  1  0
 37104  1  0
 37105  1  0
 38106  1  0
 39107  1  0
 39108  1  0
 40109  1  0
 40110  1  0
 40111  1  0
 41112  1  0
 41113  1  0
 41114  1  0
 42115  1  0
 42116  1  0
 42117  1  0
 43118  1  0
 43119  1  0
 43120  1  0
 44121  1  0
 44122  1  0
 44123  1  0
 51124  1  0
 55125  1  0
 57126  1  0
M  END
>  <filename_input>  (15) 
7U0U_FK5_docked.sdf

>  <pdb_id>  (15) 
7U0U_FK5

>  <pose_rank>  (15) 
14

>  <num_atoms_heavy>  (15) 
57

>  <num_torsions>  (15) 
7

>  <pose>  (15) 
[-27.44105227740764, -15.064100655403946, -27.560017655525073, 0.6369096093577937, -0.8235767043822502, 1.941322753596507, -0.044551731430381526, 0.2752069123066626, 0.09945695528120872, -2.060600319612721, -0.19828925573472134, 0.3872693444554803, -1.0397439781467817]

>  <energy>  (15) 
-601.2031990743236

>  <inter_energy>  (15) 
-587.2956708937091

>  <intra_energy>  (15) 
4.8419621327024185

>  <rmsd>  (15) 
7.41488

>  <sdf_rank>  (15) 
0

$$$$

     RDKit          3D

126129  0  0  0  0  0  0  0  0999 V2000
  -30.3827   -9.5570  -25.8350 C   0  0  0  0  0  0  0  0  0  0  0  0
  -30.9610   -9.1455  -27.1575 C   0  0  2  0  0  0  0  0  0  0  0  0
  -31.7969   -7.8737  -26.9695 C   0  0  0  0  0  0  0  0  0  0  0  0
  -33.0932   -8.1437  -26.1952 C   0  0  0  0  0  0  0  0  0  0  0  0
  -33.9147   -9.2609  -26.8484 C   0  0  0  0  0  0  0  0  0  0  0  0
  -33.0764  -10.5386  -26.9935 C   0  0  0  0  0  0  0  0  0  0  0  0
  -31.4361  -10.8597  -28.7942 C   0  0  0  0  0  0  0  0  0  0  0  0
  -32.1834  -11.8598  -29.4005 C   0  0  0  0  0  0  0  0  0  0  0  0
  -31.9796  -13.3297  -29.0553 C   0  0  1  0  0  0  0  0  0  0  0  0
  -30.5214  -13.6367  -28.6968 C   0  0  1  0  0  0  0  0  0  0  0  0
  -30.4214  -14.9776  -27.9612 C   0  0  0  0  0  0  0  0  0  0  0  0
  -31.4733  -15.0696  -26.8470 C   0  0  1  0  0  0  0  0  0  0  0  0
  -32.8621  -14.8530  -27.4433 C   0  0  1  0  0  0  0  0  0  0  0  0
  -34.0232  -14.8988  -26.4352 C   0  0  2  0  0  0  0  0  0  0  0  0
  -33.7387  -14.0983  -25.1674 C   0  0  0  0  0  0  0  0  0  0  0  0
  -34.9404  -13.9276  -24.2251 C   0  0  2  0  0  0  0  0  0  0  0  0
  -35.0776  -15.1571  -23.3156 C   0  0  0  0  0  0  0  0  0  0  0  0
  -34.0999  -15.0716  -22.1737 C   0  0  0  0  0  0  0  0  0  0  0  0
  -32.8402  -15.8175  -22.2585 C   0  0  0  0  0  0  0  0  0  0  0  0
  -31.8089  -15.7402  -21.1658 C   0  0  2  0  0  0  0  0  0  0  0  0
  -30.8409  -14.6589  -21.5331 C   0  0  0  0  0  0  0  0  0  0  0  0
  -31.0470  -13.2162  -21.1029 C   0  0  0  0  0  0  0  0  0  0  0  0
  -30.1736  -12.2334  -21.8869 C   0  0  1  0  0  0  0  0  0  0  0  0
  -30.7756  -11.8309  -23.2448 C   0  0  2  0  0  0  0  0  0  0  0  0
  -29.8665  -10.9454  -24.1027 C   0  0  1  0  0  0  0  0  0  0  0  0
  -28.5635  -11.6641  -24.3609 C   0  0  0  0  0  0  0  0  0  0  0  0
  -28.4778  -12.5584  -25.5061 C   0  0  0  0  0  0  0  0  0  0  0  0
  -27.2130  -13.2596  -25.9074 C   0  0  1  0  0  0  0  0  0  0  0  0
  -27.3250  -14.7101  -25.4398 C   0  0  0  0  0  0  0  0  0  0  0  0
  -26.0932  -15.5050  -25.8560 C   0  0  2  0  0  0  0  0  0  0  0  0
  -25.9297  -15.4725  -27.3773 C   0  0  1  0  0  0  0  0  0  0  0  0
  -25.8495  -14.0358  -27.8899 C   0  0  0  0  0  0  0  0  0  0  0  0
  -27.0622  -13.2000  -27.4386 C   0  0  0  0  0  0  0  0  0  0  0  0
  -29.5937  -13.6199  -29.9199 C   0  0  0  0  0  0  0  0  0  0  0  0
  -36.2418  -13.6860  -25.0038 C   0  0  0  0  0  0  0  0  0  0  0  0
  -34.4401  -14.2459  -20.9642 C   0  0  0  0  0  0  0  0  0  0  0  0
  -31.0662  -17.0734  -21.1341 C   0  0  0  0  0  0  0  0  0  0  0  0
  -31.5337  -17.8783  -19.9368 C   0  0  0  0  0  0  0  0  0  0  0  0
  -30.7855  -19.0749  -19.5617 C   0  0  0  0  0  0  0  0  0  0  0  0
  -32.1241  -11.1224  -23.0833 C   0  0  0  0  0  0  0  0  0  0  0  0
  -27.3878  -11.4247  -23.4421 C   0  0  0  0  0  0  0  0  0  0  0  0
  -30.3288  -16.3558  -25.2670 C   0  0  0  0  0  0  0  0  0  0  0  0
  -33.2721  -16.9513  -25.5908 C   0  0  0  0  0  0  0  0  0  0  0  0
  -26.9890  -17.0136  -24.2597 C   0  0  0  0  0  0  0  0  0  0  0  0
  -31.8157  -10.2207  -27.6770 N   0  0  0  0  0  0  0  0  0  0  0  0
  -30.5417  -10.7201  -25.3381 O   0  0  0  0  0  0  0  0  0  0  0  0
  -29.6376   -8.6041  -25.1822 O   0  0  0  0  0  0  0  0  0  0  0  0
  -30.2366  -10.5182  -29.3829 O   0  0  0  0  0  0  0  0  0  0  0  0
  -33.1575  -11.5306  -30.3369 O   0  0  0  0  0  0  0  0  0  0  0  0
  -32.8635  -13.5482  -27.9800 O   0  0  0  0  0  0  0  0  0  0  0  0
  -32.3772  -14.1404  -30.1791 O   0  0  0  0  0  0  0  0  0  0  0  0
  -31.3857  -16.3371  -26.2110 O   0  0  0  0  0  0  0  0  0  0  0  0
  -34.3697  -16.2243  -26.1099 O   0  0  0  0  0  0  0  0  0  0  0  0
  -29.7531  -15.0267  -22.3149 O   0  0  0  0  0  0  0  0  0  0  0  0
  -30.0210  -11.0844  -21.0837 O   0  0  0  0  0  0  0  0  0  0  0  0
  -26.2336  -16.8459  -25.4508 O   0  0  0  0  0  0  0  0  0  0  0  0
  -24.7455  -16.1736  -27.7198 O   0  0  0  0  0  0  0  0  0  0  0  0
  -30.1467   -8.9513  -27.8710 H   0  0  0  0  0  0  0  0  0  0  0  0
  -31.1995   -7.1356  -26.4143 H   0  0  0  0  0  0  0  0  0  0  0  0
  -32.0703   -7.4979  -27.9665 H   0  0  0  0  0  0  0  0  0  0  0  0
  -32.8401   -8.4406  -25.1667 H   0  0  0  0  0  0  0  0  0  0  0  0
  -33.6962   -7.2237  -26.1997 H   0  0  0  0  0  0  0  0  0  0  0  0
  -34.7940   -9.4752  -26.2231 H   0  0  0  0  0  0  0  0  0  0  0  0
  -34.2291   -8.9292  -27.8490 H   0  0  0  0  0  0  0  0  0  0  0  0
  -32.8597  -10.9503  -25.9967 H   0  0  0  0  0  0  0  0  0  0  0  0
  -33.6363  -11.2802  -27.5821 H   0  0  0  0  0  0  0  0  0  0  0  0
  -30.1796  -12.8321  -28.0291 H   0  0  0  0  0  0  0  0  0  0  0  0
  -30.5841  -15.7953  -28.6788 H   0  0  0  0  0  0  0  0  0  0  0  0
  -29.4218  -15.0573  -27.5090 H   0  0  0  0  0  0  0  0  0  0  0  0
  -31.2898  -14.2906  -26.0923 H   0  0  0  0  0  0  0  0  0  0  0  0
  -33.0286  -15.6678  -28.1632 H   0  0  0  0  0  0  0  0  0  0  0  0
  -34.8791  -14.4222  -26.9356 H   0  0  0  0  0  0  0  0  0  0  0  0
  -32.9395  -14.6109  -24.6120 H   0  0  0  0  0  0  0  0  0  0  0  0
  -33.4605  -13.0866  -25.4979 H   0  0  0  0  0  0  0  0  0  0  0  0
  -34.7580  -13.0387  -23.6032 H   0  0  0  0  0  0  0  0  0  0  0  0
  -36.1012  -15.2001  -22.9150 H   0  0  0  0  0  0  0  0  0  0  0  0
  -34.8653  -16.0629  -23.9025 H   0  0  0  0  0  0  0  0  0  0  0  0
  -32.6451  -16.4466  -23.1395 H   0  0  0  0  0  0  0  0  0  0  0  0
  -32.2690  -15.5320  -20.1886 H   0  0  0  0  0  0  0  0  0  0  0  0
  -32.1028  -12.9501  -21.2592 H   0  0  0  0  0  0  0  0  0  0  0  0
  -30.7604  -13.1421  -20.0435 H   0  0  0  0  0  0  0  0  0  0  0  0
  -29.2138  -12.7219  -22.1110 H   0  0  0  0  0  0  0  0  0  0  0  0
  -30.9038  -12.7885  -23.7706 H   0  0  0  0  0  0  0  0  0  0  0  0
  -29.6494   -9.9938  -23.5955 H   0  0  0  0  0  0  0  0  0  0  0  0
  -29.3837  -12.7285  -26.1064 H   0  0  0  0  0  0  0  0  0  0  0  0
  -26.3318  -12.7821  -25.4539 H   0  0  0  0  0  0  0  0  0  0  0  0
  -27.4150  -14.7306  -24.3436 H   0  0  0  0  0  0  0  0  0  0  0  0
  -28.2132  -15.1643  -25.9032 H   0  0  0  0  0  0  0  0  0  0  0  0
  -25.2107  -15.0537  -25.3790 H   0  0  0  0  0  0  0  0  0  0  0  0
  -26.8044  -15.9486  -27.8444 H   0  0  0  0  0  0  0  0  0  0  0  0
  -24.9316  -13.5699  -27.5021 H   0  0  0  0  0  0  0  0  0  0  0  0
  -25.8436  -14.0645  -28.9895 H   0  0  0  0  0  0  0  0  0  0  0  0
  -27.9731  -13.5993  -27.9086 H   0  0  0  0  0  0  0  0  0  0  0  0
  -26.9085  -12.1540  -27.7424 H   0  0  0  0  0  0  0  0  0  0  0  0
  -28.5460  -13.6008  -29.5852 H   0  0  0  0  0  0  0  0  0  0  0  0
  -29.7688  -14.5213  -30.5254 H   0  0  0  0  0  0  0  0  0  0  0  0
  -29.8014  -12.7253  -30.5254 H   0  0  0  0  0  0  0  0  0  0  0  0
  -37.0696  -13.5324  -24.2958 H   0  0  0  0  0  0  0  0  0  0  0  0
  -36.1302  -12.7933  -25.6367 H   0  0  0  0  0  0  0  0  0  0  0  0
  -36.4580  -14.5594  -25.6367 H   0  0  0  0  0  0  0  0  0  0  0  0
  -34.2053  -14.8160  -20.0532 H   0  0  0  0  0  0  0  0  0  0  0  0
  -33.8516  -13.3167  -20.9772 H   0  0  0  0  0  0  0  0  0  0  0  0
  -35.5124  -14.0010  -20.9772 H   0  0  0  0  0  0  0  0  0  0  0  0
  -31.2758  -17.6329  -22.0577 H   0  0  0  0  0  0  0  0  0  0  0  0
  -29.9843  -16.8910  -21.0563 H   0  0  0  0  0  0  0  0  0  0  0  0
  -32.4187  -17.5670  -19.3625 H   0  0  0  0  0  0  0  0  0  0  0  0
  -31.1052  -19.6750  -18.6971 H   0  0  0  0  0  0  0  0  0  0  0  0
  -29.9020  -19.3762  -20.1438 H   0  0  0  0  0  0  0  0  0  0  0  0
  -32.3501  -11.0037  -22.0133 H   0  0  0  0  0  0  0  0  0  0  0  0
  -32.0775  -10.1323  -23.5603 H   0  0  0  0  0  0  0  0  0  0  0  0
  -32.9129  -11.7225  -23.5603 H   0  0  0  0  0  0  0  0  0  0  0  0
  -27.7204  -11.4925  -22.3958 H   0  0  0  0  0  0  0  0  0  0  0  0
  -26.6144  -12.1838  -23.6308 H   0  0  0  0  0  0  0  0  0  0  0  0
  -26.9728  -10.4236  -23.6308 H   0  0  0  0  0  0  0  0  0  0  0  0
  -30.7461  -16.3484  -24.2492 H   0  0  0  0  0  0  0  0  0  0  0  0
  -29.7259  -17.2647  -25.4095 H   0  0  0  0  0  0  0  0  0  0  0  0
  -29.6942  -15.4687  -25.4095 H   0  0  0  0  0  0  0  0  0  0  0  0
  -33.3048  -16.9296  -24.4915 H   0  0  0  0  0  0  0  0  0  0  0  0
  -33.3251  -17.9935  -25.9387 H   0  0  0  0  0  0  0  0  0  0  0  0
  -32.3332  -16.4960  -25.9387 H   0  0  0  0  0  0  0  0  0  0  0  0
  -26.3351  -16.8684  -23.3872 H   0  0  0  0  0  0  0  0  0  0  0  0
  -27.8032  -16.2743  -24.2348 H   0  0  0  0  0  0  0  0  0  0  0  0
  -27.4139  -18.0279  -24.2348 H   0  0  0  0  0  0  0  0  0  0  0  0
  -32.7886  -14.9792  -29.8518 H   0  0  0  0  0  0  0  0  0  0  0  0
  -30.0553  -11.3425  -20.1286 H   0  0  0  0  0  0  0  0  0  0  0  0
  -24.2760  -16.4516  -26.8937 H   0  0  0  0  0  0  0  0  0  0  0  0
  1  2  1  0
  1 46  1  0
  1 47  2  0
  2  3  1  0
  2 45  1  0
  3  4  1  0
  4  5  1  0
  5  6  1  0
  6 45  1  0
  7  8  1  0
  7 45  1  0
  7 48  2  0
  8  9  1  0
  8 49  2  0
  9 10  1  0
  9 50  1  0
  9 51  1  6
 10 11  1  0
 10 34  1  0
 11 12  1  0
 12 13  1  0
 12 52  1  0
 13 14  1  0
 13 50  1  0
 14 15  1  0
 14 53  1  0
 15 16  1  0
 16 17  1  0
 16 35  1  0
 17 18  1  0
 18 19  2  3
 18 36  1  0
 19 20  1  0
 20 21  1  0
 20 37  1  0
 21 22  1  0
 21 54  2  0
 22 23  1  0
 23 24  1  0
 23 55  1  0
 24 25  1  0
 24 40  1  0
 25 26  1  0
 25 46  1  0
 26 27  2  3
 26 41  1  0
 28 27  1  0
 28 29  1  0
 28 33  1  0
 29 30  1  0
 30 31  1  0
 30 56  1  0
 31 32  1  0
 31 57  1  0
 32 33  1  0
 37 38  1  0
 38 39  2  0
 42 52  1  0
 43 53  1  0
 44 56  1  0
  2 58  1  6
  3 59  1  0
  3 60  1  0
  4 61  1  0
  4 62  1  0
  5 63  1  0
  5 64  1  0
  6 65  1  0
  6 66  1  0
 10 67  1  1
 11 68  1  0
 11 69  1  0
 12 70  1  1
 13 71  1  6
 14 72  1  6
 15 73  1  0
 15 74  1  0
 16 75  1  1
 17 76  1  0
 17 77  1  0
 19 78  1  0
 20 79  1  1
 22 80  1  0
 22 81  1  0
 23 82  1  6
 24 83  1  6
 25 84  1  1
 27 85  1  0
 28 86  1  1
 29 87  1  0
 29 88  1  0
 30 89  1  1
 31 90  1  6
 32 91  1  0
 32 92  1  0
 33 93  1  0
 33 94  1  0
 34 95  1  0
 34 96  1  0
 34 97  1  0
 35 98  1  0
 35 99  1  0
 35100  1  0
 36101  1  0
 36102  1  0
 36103  1  0
 37104  1  0
 37105  1  0
 38106  1  0
 39107  1  0
 39108  1  0
 40109  1  0
 40110  1  0
 40111  1  0
 41112  1  0
 41113  1  0
 41114  1  0
 42115  1  0
 42116  1  0
 42117  1  0
 43118  1  0
 43119  1  0
 43120  1  0
 44121  1  0
 44122  1  0
 44123  1  0
 51124  1  0
 55125  1  0
 57126  1  0
M  END
>  <filename_input>  (16) 
7U0U_FK5_docked.sdf

>  <pdb_id>  (16) 
7U0U_FK5

>  <pose_rank>  (16) 
15

>  <num_atoms_heavy>  (16) 
57

>  <num_torsions>  (16) 
7

>  <pose>  (16) 
[-30.38268121994457, -9.55695708556346, -25.83497202121834, 1.67667380692768, -0.8623333289817972, 3.344577714852548, -2.795051934109815, -0.7686985900857735, -5.471213156990568, -0.07806849785657644, 2.448442507989116, 5.455120749851559, -1.017168563358551]

>  <energy>  (16) 
-523.9387024150881

>  <inter_energy>  (16) 
-674.148446920492

>  <intra_energy>  (16) 
139.30821627447386

>  <rmsd>  (16) 
7.42009

>  <sdf_rank>  (16) 
0

$$$$

     RDKit          3D

126129  0  0  0  0  0  0  0  0999 V2000
  -27.6833  -15.7087  -26.8583 C   0  0  0  0  0  0  0  0  0  0  0  0
  -26.9442  -16.1362  -25.6239 C   0  0  2  0  0  0  0  0  0  0  0  0
  -27.0656  -17.6564  -25.4636 C   0  0  0  0  0  0  0  0  0  0  0  0
  -28.4859  -18.0846  -25.0738 C   0  0  0  0  0  0  0  0  0  0  0  0
  -28.9687  -17.3501  -23.8180 C   0  0  0  0  0  0  0  0  0  0  0  0
  -28.8782  -15.8297  -24.0088 C   0  0  0  0  0  0  0  0  0  0  0  0
  -26.7749  -14.5803  -23.7817 C   0  0  0  0  0  0  0  0  0  0  0  0
  -27.1991  -13.9248  -22.6344 C   0  0  0  0  0  0  0  0  0  0  0  0
  -27.9052  -12.5763  -22.6998 C   0  0  1  0  0  0  0  0  0  0  0  0
  -27.4067  -11.7255  -23.8732 C   0  0  1  0  0  0  0  0  0  0  0  0
  -28.3947  -10.5922  -24.1710 C   0  0  0  0  0  0  0  0  0  0  0  0
  -29.8345  -11.1222  -24.2242 C   0  0  1  0  0  0  0  0  0  0  0  0
  -30.1623  -11.8287  -22.9109 C   0  0  1  0  0  0  0  0  0  0  0  0
  -31.5749  -12.4317  -22.8253 C   0  0  2  0  0  0  0  0  0  0  0  0
  -31.9668  -13.2029  -24.0826 C   0  0  0  0  0  0  0  0  0  0  0  0
  -33.2713  -14.0069  -23.9697 C   0  0  2  0  0  0  0  0  0  0  0  0
  -34.4774  -13.0999  -24.2534 C   0  0  0  0  0  0  0  0  0  0  0  0
  -34.6537  -12.9174  -25.7376 C   0  0  0  0  0  0  0  0  0  0  0  0
  -34.1408  -11.6979  -26.3702 C   0  0  0  0  0  0  0  0  0  0  0  0
  -34.2542  -11.4780  -27.8542 C   0  0  2  0  0  0  0  0  0  0  0  0
  -32.9885  -11.9721  -28.4827 C   0  0  0  0  0  0  0  0  0  0  0  0
  -32.8340  -13.4078  -28.9559 C   0  0  0  0  0  0  0  0  0  0  0  0
  -31.3744  -13.7956  -29.2058 C   0  0  1  0  0  0  0  0  0  0  0  0
  -30.6284  -14.2204  -27.9285 C   0  0  2  0  0  0  0  0  0  0  0  0
  -29.1350  -14.4956  -28.1296 C   0  0  1  0  0  0  0  0  0  0  0  0
  -28.4648  -13.2569  -28.6751 C   0  0  0  0  0  0  0  0  0  0  0  0
  -27.7359  -13.3567  -29.9310 C   0  0  0  0  0  0  0  0  0  0  0  0
  -27.1023  -12.1769  -30.6085 C   0  0  1  0  0  0  0  0  0  0  0  0
  -28.2054  -11.1525  -30.8712 C   0  0  0  0  0  0  0  0  0  0  0  0
  -27.6299   -9.8974  -31.5162 C   0  0  2  0  0  0  0  0  0  0  0  0
  -26.5645   -9.2760  -30.6103 C   0  0  1  0  0  0  0  0  0  0  0  0
  -25.4590  -10.2815  -30.2939 C   0  0  0  0  0  0  0  0  0  0  0  0
  -26.0242  -11.5790  -29.6858 C   0  0  0  0  0  0  0  0  0  0  0  0
  -25.9954  -11.1666  -23.6432 C   0  0  0  0  0  0  0  0  0  0  0  0
  -33.4102  -14.6721  -22.5924 C   0  0  0  0  0  0  0  0  0  0  0  0
  -35.3679  -13.9720  -26.5365 C   0  0  0  0  0  0  0  0  0  0  0  0
  -34.3658   -9.9745  -28.0929 C   0  0  0  0  0  0  0  0  0  0  0  0
  -35.8030   -9.5394  -27.8802 C   0  0  0  0  0  0  0  0  0  0  0  0
  -36.0808   -8.1228  -27.6599 C   0  0  0  0  0  0  0  0  0  0  0  0
  -31.2626  -15.4557  -27.2818 C   0  0  0  0  0  0  0  0  0  0  0  0
  -28.5822  -11.9540  -27.9186 C   0  0  0  0  0  0  0  0  0  0  0  0
  -30.4266   -9.3926  -25.6797 C   0  0  0  0  0  0  0  0  0  0  0  0
  -32.7649  -11.3138  -21.1447 C   0  0  0  0  0  0  0  0  0  0  0  0
  -28.5119   -8.1850  -32.9006 C   0  0  0  0  0  0  0  0  0  0  0  0
  -27.5230  -15.4724  -24.4488 N   0  0  0  0  0  0  0  0  0  0  0  0
  -28.5888  -14.8115  -26.8510 O   0  0  0  0  0  0  0  0  0  0  0  0
  -27.3114  -16.3297  -28.0268 O   0  0  0  0  0  0  0  0  0  0  0  0
  -25.5128  -14.2840  -24.2521 O   0  0  0  0  0  0  0  0  0  0  0  0
  -26.9978  -14.5045  -21.3864 O   0  0  0  0  0  0  0  0  0  0  0  0
  -29.2681  -12.9156  -22.8121 O   0  0  0  0  0  0  0  0  0  0  0  0
  -27.6850  -11.8652  -21.4652 O   0  0  0  0  0  0  0  0  0  0  0  0
  -30.7312  -10.0454  -24.4593 O   0  0  0  0  0  0  0  0  0  0  0  0
  -32.5379  -11.4461  -22.5354 O   0  0  0  0  0  0  0  0  0  0  0  0
  -31.9424  -11.0644  -28.5892 O   0  0  0  0  0  0  0  0  0  0  0  0
  -31.3825  -14.8681  -30.1214 O   0  0  0  0  0  0  0  0  0  0  0  0
  -28.6544   -8.9521  -31.7137 O   0  0  0  0  0  0  0  0  0  0  0  0
  -26.0150   -8.1460  -31.2679 O   0  0  0  0  0  0  0  0  0  0  0  0
  -25.8841  -15.8568  -25.7141 H   0  0  0  0  0  0  0  0  0  0  0  0
  -26.8000  -18.1358  -26.4174 H   0  0  0  0  0  0  0  0  0  0  0  0
  -26.3851  -17.9672  -24.6572 H   0  0  0  0  0  0  0  0  0  0  0  0
  -29.1689  -17.8574  -25.9057 H   0  0  0  0  0  0  0  0  0  0  0  0
  -28.4750  -19.1636  -24.8601 H   0  0  0  0  0  0  0  0  0  0  0  0
  -30.0143  -17.6270  -23.6175 H   0  0  0  0  0  0  0  0  0  0  0  0
  -28.3279  -17.6386  -22.9718 H   0  0  0  0  0  0  0  0  0  0  0  0
  -29.6066  -15.5113  -24.7691 H   0  0  0  0  0  0  0  0  0  0  0  0
  -29.0996  -15.3262  -23.0562 H   0  0  0  0  0  0  0  0  0  0  0  0
  -27.3453  -12.3903  -24.7474 H   0  0  0  0  0  0  0  0  0  0  0  0
  -28.3197   -9.8315  -23.3800 H   0  0  0  0  0  0  0  0  0  0  0  0
  -28.1443  -10.1549  -25.1488 H   0  0  0  0  0  0  0  0  0  0  0  0
  -29.9383  -11.8447  -25.0471 H   0  0  0  0  0  0  0  0  0  0  0  0
  -30.0867  -11.0717  -22.1163 H   0  0  0  0  0  0  0  0  0  0  0  0
  -31.5473  -13.1539  -21.9961 H   0  0  0  0  0  0  0  0  0  0  0  0
  -32.0808  -12.4808  -24.9045 H   0  0  0  0  0  0  0  0  0  0  0  0
  -31.1664  -13.9375  -24.2552 H   0  0  0  0  0  0  0  0  0  0  0  0
  -33.2396  -14.8090  -24.7218 H   0  0  0  0  0  0  0  0  0  0  0  0
  -35.3843  -13.5596  -23.8337 H   0  0  0  0  0  0  0  0  0  0  0  0
  -34.3046  -12.1177  -23.7893 H   0  0  0  0  0  0  0  0  0  0  0  0
  -33.6632  -10.9278  -25.7467 H   0  0  0  0  0  0  0  0  0  0  0  0
  -35.1253  -12.0009  -28.2758 H   0  0  0  0  0  0  0  0  0  0  0  0
  -33.2492  -14.0776  -28.1884 H   0  0  0  0  0  0  0  0  0  0  0  0
  -33.3700  -13.5012  -29.9119 H   0  0  0  0  0  0  0  0  0  0  0  0
  -30.8408  -12.9149  -29.5925 H   0  0  0  0  0  0  0  0  0  0  0  0
  -30.7221  -13.3475  -27.2658 H   0  0  0  0  0  0  0  0  0  0  0  0
  -28.9776  -15.3223  -28.8379 H   0  0  0  0  0  0  0  0  0  0  0  0
  -27.6449  -14.3445  -30.4065 H   0  0  0  0  0  0  0  0  0  0  0  0
  -26.6244  -12.4703  -31.5548 H   0  0  0  0  0  0  0  0  0  0  0  0
  -28.9553  -11.5935  -31.5445 H   0  0  0  0  0  0  0  0  0  0  0  0
  -28.6694  -10.8775  -29.9125 H   0  0  0  0  0  0  0  0  0  0  0  0
  -27.1793  -10.1771  -32.4799 H   0  0  0  0  0  0  0  0  0  0  0  0
  -27.0295   -8.9762  -29.6595 H   0  0  0  0  0  0  0  0  0  0  0  0
  -24.9242  -10.5271  -31.2233 H   0  0  0  0  0  0  0  0  0  0  0  0
  -24.7815   -9.8250  -29.5573 H   0  0  0  0  0  0  0  0  0  0  0  0
  -26.4692  -11.3561  -28.7049 H   0  0  0  0  0  0  0  0  0  0  0  0
  -25.2069  -12.3065  -29.5727 H   0  0  0  0  0  0  0  0  0  0  0  0
  -25.8028  -11.0903  -22.5628 H   0  0  0  0  0  0  0  0  0  0  0  0
  -25.2555  -11.8396  -24.1009 H   0  0  0  0  0  0  0  0  0  0  0  0
  -25.9168  -10.1695  -24.1009 H   0  0  0  0  0  0  0  0  0  0  0  0
  -33.2532  -13.9205  -21.8048 H   0  0  0  0  0  0  0  0  0  0  0  0
  -34.4176  -15.1025  -22.4930 H   0  0  0  0  0  0  0  0  0  0  0  0
  -32.6592  -15.4697  -22.4930 H   0  0  0  0  0  0  0  0  0  0  0  0
  -35.8511  -14.6854  -25.8527 H   0  0  0  0  0  0  0  0  0  0  0  0
  -36.1312  -13.4974  -27.1706 H   0  0  0  0  0  0  0  0  0  0  0  0
  -34.6439  -14.5047  -27.1706 H   0  0  0  0  0  0  0  0  0  0  0  0
  -33.7120   -9.4408  -27.3875 H   0  0  0  0  0  0  0  0  0  0  0  0
  -34.0583   -9.7407  -29.1228 H   0  0  0  0  0  0  0  0  0  0  0  0
  -36.6198  -10.2761  -27.8917 H   0  0  0  0  0  0  0  0  0  0  0  0
  -37.1153   -7.7831  -27.5033 H   0  0  0  0  0  0  0  0  0  0  0  0
  -35.2557   -7.3955  -27.6505 H   0  0  0  0  0  0  0  0  0  0  0  0
  -31.2144  -15.3619  -26.1869 H   0  0  0  0  0  0  0  0  0  0  0  0
  -32.3134  -15.5360  -27.5971 H   0  0  0  0  0  0  0  0  0  0  0  0
  -30.7154  -16.3564  -27.5971 H   0  0  0  0  0  0  0  0  0  0  0  0
  -28.5641  -12.1549  -26.8373 H   0  0  0  0  0  0  0  0  0  0  0  0
  -27.7394  -11.2987  -28.1840 H   0  0  0  0  0  0  0  0  0  0  0  0
  -29.5285  -11.4599  -28.1840 H   0  0  0  0  0  0  0  0  0  0  0  0
  -29.9701   -8.4144  -25.4684 H   0  0  0  0  0  0  0  0  0  0  0  0
  -29.7227  -10.0083  -26.2591 H   0  0  0  0  0  0  0  0  0  0  0  0
  -31.3505   -9.2486  -26.2591 H   0  0  0  0  0  0  0  0  0  0  0  0
  -31.9433  -11.7927  -20.5919 H   0  0  0  0  0  0  0  0  0  0  0  0
  -32.8116  -10.2470  -20.8807 H   0  0  0  0  0  0  0  0  0  0  0  0
  -33.7162  -11.7989  -20.8807 H   0  0  0  0  0  0  0  0  0  0  0  0
  -28.3170   -7.1349  -32.6373 H   0  0  0  0  0  0  0  0  0  0  0  0
  -27.6712   -8.5769  -33.4918 H   0  0  0  0  0  0  0  0  0  0  0  0
  -29.4373   -8.2490  -33.4918 H   0  0  0  0  0  0  0  0  0  0  0  0
  -27.8710  -12.4660  -20.7007 H   0  0  0  0  0  0  0  0  0  0  0  0
  -31.3890  -15.7251  -29.6257 H   0  0  0  0  0  0  0  0  0  0  0  0
  -25.6979   -7.4938  -30.5940 H   0  0  0  0  0  0  0  0  0  0  0  0
  1  2  1  0
  1 46  1  0
  1 47  2  0
  2  3  1  0
  2 45  1  0
  3  4  1  0
  4  5  1  0
  5  6  1  0
  6 45  1  0
  7  8  1  0
  7 45  1  0
  7 48  2  0
  8  9  1  0
  8 49  2  0
  9 10  1  0
  9 50  1  0
  9 51  1  1
 10 11  1  0
 10 34  1  0
 11 12  1  0
 12 13  1  0
 12 52  1  0
 13 14  1  0
 13 50  1  0
 14 15  1  0
 14 53  1  0
 15 16  1  0
 16 17  1  0
 16 35  1  0
 17 18  1  0
 18 19  2  3
 18 36  1  0
 19 20  1  0
 20 21  1  0
 20 37  1  0
 21 22  1  0
 21 54  2  0
 22 23  1  0
 23 24  1  0
 23 55  1  0
 24 25  1  0
 24 40  1  0
 25 26  1  0
 25 46  1  0
 26 27  2  3
 26 41  1  0
 28 27  1  0
 28 29  1  0
 28 33  1  0
 29 30  1  0
 30 31  1  0
 30 56  1  0
 31 32  1  0
 31 57  1  0
 32 33  1  0
 37 38  1  0
 38 39  2  0
 42 52  1  0
 43 53  1  0
 44 56  1  0
  2 58  1  6
  3 59  1  0
  3 60  1  0
  4 61  1  0
  4 62  1  0
  5 63  1  0
  5 64  1  0
  6 65  1  0
  6 66  1  0
 10 67  1  6
 11 68  1  0
 11 69  1  0
 12 70  1  6
 13 71  1  1
 14 72  1  1
 15 73  1  0
 15 74  1  0
 16 75  1  6
 17 76  1  0
 17 77  1  0
 19 78  1  0
 20 79  1  6
 22 80  1  0
 22 81  1  0
 23 82  1  6
 24 83  1  1
 25 84  1  6
 27 85  1  0
 28 86  1  6
 29 87  1  0
 29 88  1  0
 30 89  1  6
 31 90  1  1
 32 91  1  0
 32 92  1  0
 33 93  1  0
 33 94  1  0
 34 95  1  0
 34 96  1  0
 34 97  1  0
 35 98  1  0
 35 99  1  0
 35100  1  0
 36101  1  0
 36102  1  0
 36103  1  0
 37104  1  0
 37105  1  0
 38106  1  0
 39107  1  0
 39108  1  0
 40109  1  0
 40110  1  0
 40111  1  0
 41112  1  0
 41113  1  0
 41114  1  0
 42115  1  0
 42116  1  0
 42117  1  0
 43118  1  0
 43119  1  0
 43120  1  0
 44121  1  0
 44122  1  0
 44123  1  0
 51124  1  0
 55125  1  0
 57126  1  0
M  END
>  <filename_input>  (17) 
7U0U_FK5_docked.sdf

>  <pdb_id>  (17) 
7U0U_FK5

>  <pose_rank>  (17) 
16

>  <num_atoms_heavy>  (17) 
57

>  <num_torsions>  (17) 
7

>  <pose>  (17) 
[-27.68325236493251, -15.708670168047483, -26.858322537489187, 0.643897727267, 3.036047443682156, 0.5329455002986555, -0.18822681387455992, 2.711606650449583, -1.1615851607327146, -0.4481896726025507, -0.15180363117830425, -0.42452009494040854, -1.5304180363176938]

>  <energy>  (17) 
-535.1337104809362

>  <inter_energy>  (17) 
-578.890176254869

>  <intra_energy>  (17) 
42.15899436384082

>  <rmsd>  (17) 
9.25521

>  <sdf_rank>  (17) 
0

$$$$

     RDKit          3D

126129  0  0  0  0  0  0  0  0999 V2000
  -26.7531  -14.2030  -23.4986 C   0  0  0  0  0  0  0  0  0  0  0  0
  -25.8322  -13.6688  -24.5566 C   0  0  2  0  0  0  0  0  0  0  0  0
  -24.8570  -12.6709  -23.9205 C   0  0  0  0  0  0  0  0  0  0  0  0
  -25.5526  -11.3688  -23.5043 C   0  0  0  0  0  0  0  0  0  0  0  0
  -26.3113  -10.7381  -24.6775 C   0  0  0  0  0  0  0  0  0  0  0  0
  -27.3111  -11.7362  -25.2779 C   0  0  0  0  0  0  0  0  0  0  0  0
  -26.6447  -13.5216  -26.8285 C   0  0  0  0  0  0  0  0  0  0  0  0
  -27.3149  -12.9468  -27.8991 C   0  0  0  0  0  0  0  0  0  0  0  0
  -28.7592  -13.3075  -28.2239 C   0  0  1  0  0  0  0  0  0  0  0  0
  -29.0781  -14.7649  -27.8726 C   0  0  1  0  0  0  0  0  0  0  0  0
  -30.5941  -14.9804  -27.8053 C   0  0  0  0  0  0  0  0  0  0  0  0
  -31.2672  -13.8750  -26.9797 C   0  0  1  0  0  0  0  0  0  0  0  0
  -30.9146  -12.5136  -27.5742 C   0  0  1  0  0  0  0  0  0  0  0  0
  -31.5071  -11.3017  -26.8349 C   0  0  2  0  0  0  0  0  0  0  0  0
  -31.3520  -11.3984  -25.3197 C   0  0  0  0  0  0  0  0  0  0  0  0
  -31.7258  -10.1239  -24.5472 C   0  0  2  0  0  0  0  0  0  0  0  0
  -33.2412  -10.0790  -24.3035 C   0  0  0  0  0  0  0  0  0  0  0  0
  -33.6074  -10.9591  -23.1380 C   0  0  0  0  0  0  0  0  0  0  0  0
  -34.1294  -12.3044  -23.3988 C   0  0  0  0  0  0  0  0  0  0  0  0
  -34.4761  -13.2418  -22.2744 C   0  0  2  0  0  0  0  0  0  0  0  0
  -33.2727  -14.0910  -22.0061 C   0  0  0  0  0  0  0  0  0  0  0  0
  -32.2059  -13.6790  -21.0055 C   0  0  0  0  0  0  0  0  0  0  0  0
  -30.9077  -14.4748  -21.1619 C   0  0  1  0  0  0  0  0  0  0  0  0
  -29.9804  -13.9208  -22.2580 C   0  0  2  0  0  0  0  0  0  0  0  0
  -28.7319  -14.7690  -22.5193 C   0  0  1  0  0  0  0  0  0  0  0  0
  -29.1474  -16.1655  -22.9171 C   0  0  0  0  0  0  0  0  0  0  0  0
  -28.3322  -17.2865  -22.4730 C   0  0  0  0  0  0  0  0  0  0  0  0
  -28.6927  -18.7192  -22.7370 C   0  0  1  0  0  0  0  0  0  0  0  0
  -27.7323  -19.2444  -23.8034 C   0  0  0  0  0  0  0  0  0  0  0  0
  -28.0036  -20.7159  -24.0923 C   0  0  2  0  0  0  0  0  0  0  0  0
  -27.8478  -21.5449  -22.8154 C   0  0  1  0  0  0  0  0  0  0  0  0
  -28.7673  -21.0284  -21.7104 C   0  0  0  0  0  0  0  0  0  0  0  0
  -28.5439  -19.5292  -21.4359 C   0  0  0  0  0  0  0  0  0  0  0  0
  -28.4320  -15.7639  -28.8428 C   0  0  0  0  0  0  0  0  0  0  0  0
  -31.2610   -8.8582  -25.2823 C   0  0  0  0  0  0  0  0  0  0  0  0
  -33.4533  -10.4381  -21.7360 C   0  0  0  0  0  0  0  0  0  0  0  0
  -35.6133  -14.1402  -22.7537 C   0  0  0  0  0  0  0  0  0  0  0  0
  -36.2948  -14.7683  -21.5533 C   0  0  0  0  0  0  0  0  0  0  0  0
  -36.4503  -13.9716  -20.3395 C   0  0  0  0  0  0  0  0  0  0  0  0
  -29.5336  -12.4871  -21.9561 C   0  0  0  0  0  0  0  0  0  0  0  0
  -30.3973  -16.3621  -23.7436 C   0  0  0  0  0  0  0  0  0  0  0  0
  -33.1566  -14.3278  -28.2780 C   0  0  0  0  0  0  0  0  0  0  0  0
  -33.0240  -10.0395  -28.0983 C   0  0  0  0  0  0  0  0  0  0  0  0
  -25.7744  -20.6601  -24.9012 C   0  0  0  0  0  0  0  0  0  0  0  0
  -26.6172  -12.9911  -25.5962 N   0  0  0  0  0  0  0  0  0  0  0  0
  -28.0234  -14.1561  -23.5942 O   0  0  0  0  0  0  0  0  0  0  0  0
  -26.1460  -14.7784  -22.4079 O   0  0  0  0  0  0  0  0  0  0  0  0
  -25.9779  -14.7067  -27.0593 O   0  0  0  0  0  0  0  0  0  0  0  0
  -26.6745  -12.0050  -28.6971 O   0  0  0  0  0  0  0  0  0  0  0  0
  -29.5133  -12.3868  -27.4696 O   0  0  0  0  0  0  0  0  0  0  0  0
  -28.9979  -13.0904  -29.6289 O   0  0  0  0  0  0  0  0  0  0  0  0
  -32.6738  -14.0760  -26.9696 O   0  0  0  0  0  0  0  0  0  0  0  0
  -32.8583  -11.1010  -27.1770 O   0  0  0  0  0  0  0  0  0  0  0  0
  -33.1558  -15.2663  -22.7373 O   0  0  0  0  0  0  0  0  0  0  0  0
  -30.2425  -14.4292  -19.9193 O   0  0  0  0  0  0  0  0  0  0  0  0
  -27.0841  -21.1901  -25.0471 O   0  0  0  0  0  0  0  0  0  0  0  0
  -28.1619  -22.8956  -23.1122 O   0  0  0  0  0  0  0  0  0  0  0  0
  -25.2699  -14.4992  -25.0087 H   0  0  0  0  0  0  0  0  0  0  0  0
  -24.4076  -13.1333  -23.0293 H   0  0  0  0  0  0  0  0  0  0  0  0
  -24.0915  -12.4211  -24.6699 H   0  0  0  0  0  0  0  0  0  0  0  0
  -26.2641  -11.5866  -22.6942 H   0  0  0  0  0  0  0  0  0  0  0  0
  -24.7830  -10.6581  -23.1687 H   0  0  0  0  0  0  0  0  0  0  0  0
  -26.8564   -9.8520  -24.3202 H   0  0  0  0  0  0  0  0  0  0  0  0
  -25.5866  -10.4534  -25.4546 H   0  0  0  0  0  0  0  0  0  0  0  0
  -28.1128  -11.9344  -24.5512 H   0  0  0  0  0  0  0  0  0  0  0  0
  -27.7454  -11.3137  -26.1959 H   0  0  0  0  0  0  0  0  0  0  0  0
  -28.6415  -14.9584  -26.8817 H   0  0  0  0  0  0  0  0  0  0  0  0
  -31.0053  -14.9692  -28.8255 H   0  0  0  0  0  0  0  0  0  0  0  0
  -30.7908  -15.9492  -27.3230 H   0  0  0  0  0  0  0  0  0  0  0  0
  -30.9056  -13.9091  -25.9414 H   0  0  0  0  0  0  0  0  0  0  0  0
  -31.3225  -12.4985  -28.5957 H   0  0  0  0  0  0  0  0  0  0  0  0
  -30.9250  -10.4292  -27.1664 H   0  0  0  0  0  0  0  0  0  0  0  0
  -31.9956  -12.2156  -24.9621 H   0  0  0  0  0  0  0  0  0  0  0  0
  -30.2823  -11.5707  -25.1301 H   0  0  0  0  0  0  0  0  0  0  0  0
  -31.2064  -10.1522  -23.5779 H   0  0  0  0  0  0  0  0  0  0  0  0
  -33.5437   -9.0439  -24.0862 H   0  0  0  0  0  0  0  0  0  0  0  0
  -33.7601  -10.4411  -25.2033 H   0  0  0  0  0  0  0  0  0  0  0  0
  -34.2705  -12.6350  -24.4384 H   0  0  0  0  0  0  0  0  0  0  0  0
  -34.7734  -12.6945  -21.3677 H   0  0  0  0  0  0  0  0  0  0  0  0
  -31.9832  -12.6113  -21.1486 H   0  0  0  0  0  0  0  0  0  0  0  0
  -32.5998  -13.8819  -19.9987 H   0  0  0  0  0  0  0  0  0  0  0  0
  -31.1620  -15.5007  -21.4668 H   0  0  0  0  0  0  0  0  0  0  0  0
  -30.6002  -13.9481  -23.1663 H   0  0  0  0  0  0  0  0  0  0  0  0
  -28.1017  -14.8316  -21.6199 H   0  0  0  0  0  0  0  0  0  0  0  0
  -27.4073  -17.0733  -21.9170 H   0  0  0  0  0  0  0  0  0  0  0  0
  -29.7322  -18.8107  -23.0850 H   0  0  0  0  0  0  0  0  0  0  0  0
  -27.8665  -18.6638  -24.7281 H   0  0  0  0  0  0  0  0  0  0  0  0
  -26.7014  -19.1398  -23.4344 H   0  0  0  0  0  0  0  0  0  0  0  0
  -29.0311  -20.8118  -24.4731 H   0  0  0  0  0  0  0  0  0  0  0  0
  -26.8111  -21.4636  -22.4566 H   0  0  0  0  0  0  0  0  0  0  0  0
  -29.8127  -21.1828  -22.0157 H   0  0  0  0  0  0  0  0  0  0  0  0
  -28.5392  -21.5830  -20.7881 H   0  0  0  0  0  0  0  0  0  0  0  0
  -27.5322  -19.3815  -21.0303 H   0  0  0  0  0  0  0  0  0  0  0  0
  -29.2952  -19.1826  -20.7111 H   0  0  0  0  0  0  0  0  0  0  0  0
  -27.9218  -16.5529  -28.2708 H   0  0  0  0  0  0  0  0  0  0  0  0
  -29.2098  -16.2151  -29.4764 H   0  0  0  0  0  0  0  0  0  0  0  0
  -27.7015  -15.2396  -29.4764 H   0  0  0  0  0  0  0  0  0  0  0  0
  -30.9789   -8.0900  -24.5472 H   0  0  0  0  0  0  0  0  0  0  0  0
  -30.3925   -9.0986  -25.9131 H   0  0  0  0  0  0  0  0  0  0  0  0
  -32.0787   -8.4794  -25.9131 H   0  0  0  0  0  0  0  0  0  0  0  0
  -33.6900  -11.2384  -21.0194 H   0  0  0  0  0  0  0  0  0  0  0  0
  -32.4174  -10.1022  -21.5815 H   0  0  0  0  0  0  0  0  0  0  0  0
  -34.1399   -9.5927  -21.5815 H   0  0  0  0  0  0  0  0  0  0  0  0
  -36.3424  -13.5405  -23.3183 H   0  0  0  0  0  0  0  0  0  0  0  0
  -35.2100  -14.9303  -23.4041 H   0  0  0  0  0  0  0  0  0  0  0  0
  -36.6646  -15.8034  -21.5962 H   0  0  0  0  0  0  0  0  0  0  0  0
  -36.9414  -14.4055  -19.4560 H   0  0  0  0  0  0  0  0  0  0  0  0
  -36.0764  -12.9376  -20.3087 H   0  0  0  0  0  0  0  0  0  0  0  0
  -29.4875  -12.3391  -20.8670 H   0  0  0  0  0  0  0  0  0  0  0  0
  -28.5388  -12.3135  -22.3921 H   0  0  0  0  0  0  0  0  0  0  0  0
  -30.2537  -11.7791  -22.3921 H   0  0  0  0  0  0  0  0  0  0  0  0
  -31.2608  -16.4979  -23.0758 H   0  0  0  0  0  0  0  0  0  0  0  0
  -30.5599  -15.4785  -24.3782 H   0  0  0  0  0  0  0  0  0  0  0  0
  -30.2808  -17.2530  -24.3782 H   0  0  0  0  0  0  0  0  0  0  0  0
  -34.1305  -14.8358  -28.2179 H   0  0  0  0  0  0  0  0  0  0  0  0
  -33.2725  -13.3753  -28.8157 H   0  0  0  0  0  0  0  0  0  0  0  0
  -32.4417  -14.9679  -28.8157 H   0  0  0  0  0  0  0  0  0  0  0  0
  -33.1711   -9.0975  -27.5497 H   0  0  0  0  0  0  0  0  0  0  0  0
  -32.1275   -9.9595  -28.7306 H   0  0  0  0  0  0  0  0  0  0  0  0
  -33.9023  -10.2366  -28.7306 H   0  0  0  0  0  0  0  0  0  0  0  0
  -25.5351  -20.5633  -23.8320 H   0  0  0  0  0  0  0  0  0  0  0  0
  -25.0500  -21.3359  -25.3794 H   0  0  0  0  0  0  0  0  0  0  0  0
  -25.7239  -19.6708  -25.3794 H   0  0  0  0  0  0  0  0  0  0  0  0
  -29.7255  -12.4286  -29.7416 H   0  0  0  0  0  0  0  0  0  0  0  0
  -30.9074  -14.4748  -19.1872 H   0  0  0  0  0  0  0  0  0  0  0  0
  -28.2792  -23.4002  -22.2685 H   0  0  0  0  0  0  0  0  0  0  0  0
  1  2  1  0
  1 46  1  0
  1 47  2  0
  2  3  1  0
  2 45  1  0
  3  4  1  0
  4  5  1  0
  5  6  1  0
  6 45  1  0
  7  8  1  0
  7 45  1  0
  7 48  2  0
  8  9  1  0
  8 49  2  0
  9 10  1  0
  9 50  1  0
  9 51  1  6
 10 11  1  0
 10 34  1  0
 11 12  1  0
 12 13  1  0
 12 52  1  0
 13 14  1  0
 13 50  1  0
 14 15  1  0
 14 53  1  0
 15 16  1  0
 16 17  1  0
 16 35  1  0
 17 18  1  0
 18 19  2  3
 18 36  1  0
 19 20  1  0
 20 21  1  0
 20 37  1  0
 21 22  1  0
 21 54  2  0
 22 23  1  0
 23 24  1  0
 23 55  1  0
 24 25  1  0
 24 40  1  0
 25 26  1  0
 25 46  1  0
 26 27  2  3
 26 41  1  0
 28 27  1  0
 28 29  1  0
 28 33  1  0
 29 30  1  0
 30 31  1  0
 30 56  1  0
 31 32  1  0
 31 57  1  0
 32 33  1  0
 37 38  1  0
 38 39  2  0
 42 52  1  0
 43 53  1  0
 44 56  1  0
  2 58  1  6
  3 59  1  0
  3 60  1  0
  4 61  1  0
  4 62  1  0
  5 63  1  0
  5 64  1  0
  6 65  1  0
  6 66  1  0
 10 67  1  1
 11 68  1  0
 11 69  1  0
 12 70  1  1
 13 71  1  6
 14 72  1  6
 15 73  1  0
 15 74  1  0
 16 75  1  1
 17 76  1  0
 17 77  1  0
 19 78  1  0
 20 79  1  1
 22 80  1  0
 22 81  1  0
 23 82  1  6
 24 83  1  6
 25 84  1  1
 27 85  1  0
 28 86  1  6
 29 87  1  0
 29 88  1  0
 30 89  1  6
 31 90  1  1
 32 91  1  0
 32 92  1  0
 33 93  1  0
 33 94  1  0
 34 95  1  0
 34 96  1  0
 34 97  1  0
 35 98  1  0
 35 99  1  0
 35100  1  0
 36101  1  0
 36102  1  0
 36103  1  0
 37104  1  0
 37105  1  0
 38106  1  0
 39107  1  0
 39108  1  0
 40109  1  0
 40110  1  0
 40111  1  0
 41112  1  0
 41113  1  0
 41114  1  0
 42115  1  0
 42116  1  0
 42117  1  0
 43118  1  0
 43119  1  0
 43120  1  0
 44121  1  0
 44122  1  0
 44123  1  0
 51124  1  0
 55125  1  0
 57126  1  0
M  END
>  <filename_input>  (18) 
7U0U_FK5_docked.sdf

>  <pdb_id>  (18) 
7U0U_FK5

>  <pose_rank>  (18) 
17

>  <num_atoms_heavy>  (18) 
57

>  <num_torsions>  (18) 
7

>  <pose>  (18) 
[-26.75310511756328, -14.202972432768917, -23.49860251435856, -0.1313372120739821, -1.2888724607613797, 2.4394891070185105, -0.5530878136111066, -0.6835808722721708, -4.268563486966891, -2.3107419129314946, -0.3366096886600629, -1.8123958100297355, 2.5724837698926284]

>  <energy>  (18) 
-539.3797235674

>  <inter_energy>  (18) 
-561.6448340822715

>  <intra_energy>  (18) 
25.193827363886523

>  <rmsd>  (18) 
8.18861

>  <sdf_rank>  (18) 
0

$$$$

     RDKit          3D

126129  0  0  0  0  0  0  0  0999 V2000
  -28.9726  -11.2695  -28.2636 C   0  0  0  0  0  0  0  0  0  0  0  0
  -27.9641  -12.1889  -28.8885 C   0  0  2  0  0  0  0  0  0  0  0  0
  -28.4438  -12.5876  -30.2893 C   0  0  0  0  0  0  0  0  0  0  0  0
  -29.6535  -13.5293  -30.2394 C   0  0  0  0  0  0  0  0  0  0  0  0
  -29.3695  -14.7623  -29.3741 C   0  0  0  0  0  0  0  0  0  0  0  0
  -28.9287  -14.3469  -27.9637 C   0  0  0  0  0  0  0  0  0  0  0  0
  -26.6437  -13.6082  -27.4444 C   0  0  0  0  0  0  0  0  0  0  0  0
  -26.3740  -14.7306  -26.6740 C   0  0  0  0  0  0  0  0  0  0  0  0
  -26.6287  -14.7484  -25.1719 C   0  0  1  0  0  0  0  0  0  0  0  0
  -26.4110  -13.3700  -24.5380 C   0  0  1  0  0  0  0  0  0  0  0  0
  -27.0653  -13.3077  -23.1534 C   0  0  0  0  0  0  0  0  0  0  0  0
  -28.4956  -13.8632  -23.1992 C   0  0  1  0  0  0  0  0  0  0  0  0
  -28.4677  -15.2875  -23.7488 C   0  0  1  0  0  0  0  0  0  0  0  0
  -29.8407  -15.9704  -23.8708 C   0  0  2  0  0  0  0  0  0  0  0  0
  -30.8996  -15.0645  -24.4931 C   0  0  0  0  0  0  0  0  0  0  0  0
  -32.2252  -15.7599  -24.8397 C   0  0  2  0  0  0  0  0  0  0  0  0
  -33.1294  -15.8219  -23.6001 C   0  0  0  0  0  0  0  0  0  0  0  0
  -33.8153  -14.4982  -23.3893 C   0  0  0  0  0  0  0  0  0  0  0  0
  -33.2661  -13.5614  -22.4038 C   0  0  0  0  0  0  0  0  0  0  0  0
  -33.8863  -12.2095  -22.1776 C   0  0  2  0  0  0  0  0  0  0  0  0
  -33.1706  -11.2309  -23.0559 C   0  0  0  0  0  0  0  0  0  0  0  0
  -33.6346  -10.9338  -24.4720 C   0  0  0  0  0  0  0  0  0  0  0  0
  -32.5700  -10.2171  -25.3064 C   0  0  1  0  0  0  0  0  0  0  0  0
  -31.5378  -11.1729  -25.9303 C   0  0  2  0  0  0  0  0  0  0  0  0
  -30.3921  -10.4732  -26.6680 C   0  0  1  0  0  0  0  0  0  0  0  0
  -29.6658   -9.5556  -25.7132 C   0  0  0  0  0  0  0  0  0  0  0  0
  -29.5679   -8.1422  -26.0462 C   0  0  0  0  0  0  0  0  0  0  0  0
  -28.9437   -7.1255  -25.1356 C   0  0  1  0  0  0  0  0  0  0  0  0
  -27.9323   -6.3309  -25.9607 C   0  0  0  0  0  0  0  0  0  0  0  0
  -27.2880   -5.2396  -25.1142 C   0  0  2  0  0  0  0  0  0  0  0  0
  -28.3572   -4.2901  -24.5691 C   0  0  1  0  0  0  0  0  0  0  0  0
  -29.4097   -5.0521  -23.7660 C   0  0  0  0  0  0  0  0  0  0  0  0
  -30.0395   -6.1927  -24.5876 C   0  0  0  0  0  0  0  0  0  0  0  0
  -24.9276  -12.9836  -24.4535 C   0  0  0  0  0  0  0  0  0  0  0  0
  -31.9953  -17.1675  -25.4093 C   0  0  0  0  0  0  0  0  0  0  0  0
  -35.0565  -14.1713  -24.1723 C   0  0  0  0  0  0  0  0  0  0  0  0
  -33.6457  -11.8272  -20.7196 C   0  0  0  0  0  0  0  0  0  0  0  0
  -32.7191  -12.8444  -20.0818 C   0  0  0  0  0  0  0  0  0  0  0  0
  -31.9502  -12.4505  -18.9046 C   0  0  0  0  0  0  0  0  0  0  0  0
  -32.1919  -12.1696  -26.8922 C   0  0  0  0  0  0  0  0  0  0  0  0
  -29.0802  -10.1209  -24.4399 C   0  0  0  0  0  0  0  0  0  0  0  0
  -30.2178  -13.0133  -21.8680 C   0  0  0  0  0  0  0  0  0  0  0  0
  -30.1630  -17.8660  -22.5318 C   0  0  0  0  0  0  0  0  0  0  0  0
  -25.5286   -3.6491  -25.1537 C   0  0  0  0  0  0  0  0  0  0  0  0
  -27.8160  -13.3928  -28.0608 N   0  0  0  0  0  0  0  0  0  0  0  0
  -29.5025  -11.4893  -27.1252 O   0  0  0  0  0  0  0  0  0  0  0  0
  -29.2865  -10.1424  -28.9849 O   0  0  0  0  0  0  0  0  0  0  0  0
  -25.6418  -12.6688  -27.5700 O   0  0  0  0  0  0  0  0  0  0  0  0
  -25.8734  -15.8819  -27.2722 O   0  0  0  0  0  0  0  0  0  0  0  0
  -27.9604  -15.1953  -25.0621 O   0  0  0  0  0  0  0  0  0  0  0  0
  -25.7460  -15.7051  -24.5524 O   0  0  0  0  0  0  0  0  0  0  0  0
  -29.0617  -13.8325  -21.8964 O   0  0  0  0  0  0  0  0  0  0  0  0
  -30.2842  -16.4592  -22.6269 O   0  0  0  0  0  0  0  0  0  0  0  0
  -32.0383  -10.6228  -22.5288 O   0  0  0  0  0  0  0  0  0  0  0  0
  -33.2459   -9.5242  -26.3320 O   0  0  0  0  0  0  0  0  0  0  0  0
  -26.3898   -4.4951  -25.9021 O   0  0  0  0  0  0  0  0  0  0  0  0
  -27.7262   -3.3248  -23.7436 O   0  0  0  0  0  0  0  0  0  0  0  0
  -26.9937  -11.6760  -28.9614 H   0  0  0  0  0  0  0  0  0  0  0  0
  -28.7252  -11.6778  -30.8400 H   0  0  0  0  0  0  0  0  0  0  0  0
  -27.6214  -13.1194  -30.7902 H   0  0  0  0  0  0  0  0  0  0  0  0
  -30.5121  -12.9863  -29.8173 H   0  0  0  0  0  0  0  0  0  0  0  0
  -29.8699  -13.8682  -31.2633 H   0  0  0  0  0  0  0  0  0  0  0  0
  -30.2830  -15.3709  -29.3021 H   0  0  0  0  0  0  0  0  0  0  0  0
  -28.5597  -15.3423  -29.8408 H   0  0  0  0  0  0  0  0  0  0  0  0
  -29.7726  -13.8742  -27.4398 H   0  0  0  0  0  0  0  0  0  0  0  0
  -28.6022  -15.2360  -27.4043 H   0  0  0  0  0  0  0  0  0  0  0  0
  -26.8927  -12.6340  -25.1986 H   0  0  0  0  0  0  0  0  0  0  0  0
  -26.4697  -13.9036  -22.4462 H   0  0  0  0  0  0  0  0  0  0  0  0
  -27.1060  -12.2569  -22.8304 H   0  0  0  0  0  0  0  0  0  0  0  0
  -29.1180  -13.2434  -23.8614 H   0  0  0  0  0  0  0  0  0  0  0  0
  -27.8713  -15.8871  -23.0453 H   0  0  0  0  0  0  0  0  0  0  0  0
  -29.6977  -16.8205  -24.5541 H   0  0  0  0  0  0  0  0  0  0  0  0
  -31.1153  -14.2532  -23.7823 H   0  0  0  0  0  0  0  0  0  0  0  0
  -30.4798  -14.7096  -25.4459 H   0  0  0  0  0  0  0  0  0  0  0  0
  -32.7242  -15.1658  -25.6195 H   0  0  0  0  0  0  0  0  0  0  0  0
  -33.8881  -16.6055  -23.7428 H   0  0  0  0  0  0  0  0  0  0  0  0
  -32.5135  -16.0512  -22.7181 H   0  0  0  0  0  0  0  0  0  0  0  0
  -32.3823  -13.8533  -21.8176 H   0  0  0  0  0  0  0  0  0  0  0  0
  -34.9632  -12.2152  -22.4019 H   0  0  0  0  0  0  0  0  0  0  0  0
  -33.8875  -11.8838  -24.9657 H   0  0  0  0  0  0  0  0  0  0  0  0
  -34.5059  -10.2661  -24.4021 H   0  0  0  0  0  0  0  0  0  0  0  0
  -32.0033   -9.5447  -24.6455 H   0  0  0  0  0  0  0  0  0  0  0  0
  -31.1078  -11.6980  -25.0647 H   0  0  0  0  0  0  0  0  0  0  0  0
  -30.7712   -9.8762  -27.5106 H   0  0  0  0  0  0  0  0  0  0  0  0
  -29.9708   -7.8027  -27.0118 H   0  0  0  0  0  0  0  0  0  0  0  0
  -28.4422   -7.6083  -24.2839 H   0  0  0  0  0  0  0  0  0  0  0  0
  -27.1506   -7.0122  -26.3280 H   0  0  0  0  0  0  0  0  0  0  0  0
  -28.4558   -5.8609  -26.8063 H   0  0  0  0  0  0  0  0  0  0  0  0
  -26.7555   -5.7168  -24.2783 H   0  0  0  0  0  0  0  0  0  0  0  0
  -28.8665   -3.7986  -25.4111 H   0  0  0  0  0  0  0  0  0  0  0  0
  -28.9345   -5.4785  -22.8703 H   0  0  0  0  0  0  0  0  0  0  0  0
  -30.2079   -4.3467  -23.4916 H   0  0  0  0  0  0  0  0  0  0  0  0
  -30.6053   -5.7647  -25.4282 H   0  0  0  0  0  0  0  0  0  0  0  0
  -30.7109   -6.7730  -23.9377 H   0  0  0  0  0  0  0  0  0  0  0  0
  -24.6285  -12.9057  -23.3978 H   0  0  0  0  0  0  0  0  0  0  0  0
  -24.3193  -13.7532  -24.9511 H   0  0  0  0  0  0  0  0  0  0  0  0
  -24.7721  -12.0150  -24.9511 H   0  0  0  0  0  0  0  0  0  0  0  0
  -31.8784  -17.8831  -24.5821 H   0  0  0  0  0  0  0  0  0  0  0  0
  -32.8578  -17.4585  -26.0268 H   0  0  0  0  0  0  0  0  0  0  0  0
  -31.0850  -17.1689  -26.0268 H   0  0  0  0  0  0  0  0  0  0  0  0
  -35.8815  -13.9540  -23.4778 H   0  0  0  0  0  0  0  0  0  0  0  0
  -34.8694  -13.2918  -24.8059 H   0  0  0  0  0  0  0  0  0  0  0  0
  -35.3269  -15.0289  -24.8059 H   0  0  0  0  0  0  0  0  0  0  0  0
  -33.1846  -10.8296  -20.6724 H   0  0  0  0  0  0  0  0  0  0  0  0
  -34.6038  -11.8115  -20.1794 H   0  0  0  0  0  0  0  0  0  0  0  0
  -32.6281  -13.8587  -20.4978 H   0  0  0  0  0  0  0  0  0  0  0  0
  -31.2715  -13.1709  -18.4246 H   0  0  0  0  0  0  0  0  0  0  0  0
  -32.0497  -11.4334  -18.4977 H   0  0  0  0  0  0  0  0  0  0  0  0
  -32.7057  -12.9526  -26.3153 H   0  0  0  0  0  0  0  0  0  0  0  0
  -32.9207  -11.6432  -27.5260 H   0  0  0  0  0  0  0  0  0  0  0  0
  -31.4189  -12.6287  -27.5260 H   0  0  0  0  0  0  0  0  0  0  0  0
  -29.5668   -9.6512  -23.5724 H   0  0  0  0  0  0  0  0  0  0  0  0
  -29.2474  -11.2077  -24.4102 H   0  0  0  0  0  0  0  0  0  0  0  0
  -28.0000   -9.9152  -24.4102 H   0  0  0  0  0  0  0  0  0  0  0  0
  -30.5000  -12.8134  -20.8238 H   0  0  0  0  0  0  0  0  0  0  0  0
  -30.0062  -12.0626  -22.3791 H   0  0  0  0  0  0  0  0  0  0  0  0
  -31.0447  -13.5282  -22.3791 H   0  0  0  0  0  0  0  0  0  0  0  0
  -30.1375  -18.1611  -21.4724 H   0  0  0  0  0  0  0  0  0  0  0  0
  -31.0234  -18.3423  -23.0245 H   0  0  0  0  0  0  0  0  0  0  0  0
  -29.2337  -18.1881  -23.0245 H   0  0  0  0  0  0  0  0  0  0  0  0
  -25.6962   -3.8137  -24.0790 H   0  0  0  0  0  0  0  0  0  0  0  0
  -24.4820   -3.8799  -25.4011 H   0  0  0  0  0  0  0  0  0  0  0  0
  -25.7408   -2.5985  -25.4011 H   0  0  0  0  0  0  0  0  0  0  0  0
  -25.8160  -15.6293  -23.5678 H   0  0  0  0  0  0  0  0  0  0  0  0
  -33.8780   -8.8761  -25.9313 H   0  0  0  0  0  0  0  0  0  0  0  0
  -27.8766   -3.5549  -22.7926 H   0  0  0  0  0  0  0  0  0  0  0  0
  1  2  1  0
  1 46  1  0
  1 47  2  0
  2  3  1  0
  2 45  1  0
  3  4  1  0
  4  5  1  0
  5  6  1  0
  6 45  1  0
  7  8  1  0
  7 45  1  0
  7 48  2  0
  8  9  1  0
  8 49  2  0
  9 10  1  0
  9 50  1  0
  9 51  1  1
 10 11  1  0
 10 34  1  0
 11 12  1  0
 12 13  1  0
 12 52  1  0
 13 14  1  0
 13 50  1  0
 14 15  1  0
 14 53  1  0
 15 16  1  0
 16 17  1  0
 16 35  1  0
 17 18  1  0
 18 19  2  3
 18 36  1  0
 19 20  1  0
 20 21  1  0
 20 37  1  0
 21 22  1  0
 21 54  2  0
 22 23  1  0
 23 24  1  0
 23 55  1  0
 24 25  1  0
 24 40  1  0
 25 26  1  0
 25 46  1  0
 26 27  2  3
 26 41  1  0
 28 27  1  0
 28 29  1  0
 28 33  1  0
 29 30  1  0
 30 31  1  0
 30 56  1  0
 31 32  1  0
 31 57  1  0
 32 33  1  0
 37 38  1  0
 38 39  2  0
 42 52  1  0
 43 53  1  0
 44 56  1  0
  2 58  1  6
  3 59  1  0
  3 60  1  0
  4 61  1  0
  4 62  1  0
  5 63  1  0
  5 64  1  0
  6 65  1  0
  6 66  1  0
 10 67  1  6
 11 68  1  0
 11 69  1  0
 12 70  1  6
 13 71  1  1
 14 72  1  6
 15 73  1  0
 15 74  1  0
 16 75  1  6
 17 76  1  0
 17 77  1  0
 19 78  1  0
 20 79  1  6
 22 80  1  0
 22 81  1  0
 23 82  1  1
 24 83  1  1
 25 84  1  6
 27 85  1  0
 28 86  1  1
 29 87  1  0
 29 88  1  0
 30 89  1  1
 31 90  1  6
 32 91  1  0
 32 92  1  0
 33 93  1  0
 33 94  1  0
 34 95  1  0
 34 96  1  0
 34 97  1  0
 35 98  1  0
 35 99  1  0
 35100  1  0
 36101  1  0
 36102  1  0
 36103  1  0
 37104  1  0
 37105  1  0
 38106  1  0
 39107  1  0
 39108  1  0
 40109  1  0
 40110  1  0
 40111  1  0
 41112  1  0
 41113  1  0
 41114  1  0
 42115  1  0
 42116  1  0
 42117  1  0
 43118  1  0
 43119  1  0
 43120  1  0
 44121  1  0
 44122  1  0
 44123  1  0
 51124  1  0
 55125  1  0
 57126  1  0
M  END
>  <filename_input>  (19) 
7U0U_FK5_docked.sdf

>  <pdb_id>  (19) 
7U0U_FK5

>  <pose_rank>  (19) 
18

>  <num_atoms_heavy>  (19) 
57

>  <num_torsions>  (19) 
7

>  <pose>  (19) 
[-28.972571034674093, -11.269529389996126, -28.263600294354195, 0.6688811803303596, 2.4628301406814597, 2.9856529077886327, -6.457438897076971, 5.985832902449633, -1.5580701275160722, 0.6002822985328488, -0.38004689369517275, 1.1387310348876578, -1.6171002862672212]

>  <energy>  (19) 
-442.57293651792367

>  <inter_energy>  (19) 
-515.2714772428204

>  <intra_energy>  (19) 
81.23154277791245

>  <rmsd>  (19) 
8.0677

>  <sdf_rank>  (19) 
0

$$$$

     RDKit          3D

126129  0  0  0  0  0  0  0  0999 V2000
  -28.5566  -12.6340  -27.7917 C   0  0  0  0  0  0  0  0  0  0  0  0
  -29.2332  -12.0625  -29.0035 C   0  0  2  0  0  0  0  0  0  0  0  0
  -28.6706  -10.6637  -29.2835 C   0  0  0  0  0  0  0  0  0  0  0  0
  -29.1185   -9.6401  -28.2326 C   0  0  0  0  0  0  0  0  0  0  0  0
  -30.6447   -9.6108  -28.0925 C   0  0  0  0  0  0  0  0  0  0  0  0
  -31.1883  -11.0104  -27.7734 C   0  0  0  0  0  0  0  0  0  0  0  0
  -31.5018  -12.7418  -29.4882 C   0  0  0  0  0  0  0  0  0  0  0  0
  -32.8849  -12.7078  -29.3788 C   0  0  0  0  0  0  0  0  0  0  0  0
  -33.6332  -13.6271  -28.4216 C   0  0  1  0  0  0  0  0  0  0  0  0
  -32.9306  -14.9797  -28.2603 C   0  0  1  0  0  0  0  0  0  0  0  0
  -33.4425  -15.7036  -27.0101 C   0  0  0  0  0  0  0  0  0  0  0  0
  -33.4701  -14.7561  -25.8026 C   0  0  1  0  0  0  0  0  0  0  0  0
  -34.3218  -13.5340  -26.1379 C   0  0  1  0  0  0  0  0  0  0  0  0
  -34.4261  -12.4809  -25.0214 C   0  0  2  0  0  0  0  0  0  0  0  0
  -33.0791  -12.1655  -24.3771 C   0  0  0  0  0  0  0  0  0  0  0  0
  -33.0862  -10.9696  -23.4123 C   0  0  2  0  0  0  0  0  0  0  0  0
  -33.5514  -11.4173  -22.0191 C   0  0  0  0  0  0  0  0  0  0  0  0
  -32.4185  -12.0780  -21.2793 C   0  0  0  0  0  0  0  0  0  0  0  0
  -32.3478  -13.5423  -21.2475 C   0  0  0  0  0  0  0  0  0  0  0  0
  -31.2186  -14.2573  -20.5567 C   0  0  2  0  0  0  0  0  0  0  0  0
  -30.1627  -14.5319  -21.5817 C   0  0  0  0  0  0  0  0  0  0  0  0
  -29.0403  -13.5467  -21.8624 C   0  0  0  0  0  0  0  0  0  0  0  0
  -28.3127  -13.8364  -23.1777 C   0  0  1  0  0  0  0  0  0  0  0  0
  -29.0253  -13.2533  -24.4108 C   0  0  2  0  0  0  0  0  0  0  0  0
  -28.3853  -13.6323  -25.7498 C   0  0  1  0  0  0  0  0  0  0  0  0
  -28.3620  -15.1361  -25.8880 C   0  0  0  0  0  0  0  0  0  0  0  0
  -28.5409  -15.9470  -24.6926 C   0  0  0  0  0  0  0  0  0  0  0  0
  -28.6184  -17.4455  -24.7212 C   0  0  1  0  0  0  0  0  0  0  0  0
  -27.6587  -17.9744  -23.6560 C   0  0  0  0  0  0  0  0  0  0  0  0
  -27.7171  -19.4958  -23.5886 C   0  0  2  0  0  0  0  0  0  0  0  0
  -29.1397  -19.9584  -23.2658 C   0  0  1  0  0  0  0  0  0  0  0  0
  -30.1373  -19.4200  -24.2896 C   0  0  0  0  0  0  0  0  0  0  0  0
  -30.0606  -17.8862  -24.4097 C   0  0  0  0  0  0  0  0  0  0  0  0
  -33.0734  -15.8739  -29.5000 C   0  0  0  0  0  0  0  0  0  0  0  0
  -33.9691   -9.8260  -23.9330 C   0  0  0  0  0  0  0  0  0  0  0  0
  -31.3983  -11.2300  -20.5718 C   0  0  0  0  0  0  0  0  0  0  0  0
  -31.7594  -15.5883  -20.0408 C   0  0  0  0  0  0  0  0  0  0  0  0
  -33.1954  -15.4039  -19.5895 C   0  0  0  0  0  0  0  0  0  0  0  0
  -33.4514  -14.6918  -18.3406 C   0  0  0  0  0  0  0  0  0  0  0  0
  -29.1279  -11.7266  -24.3413 C   0  0  0  0  0  0  0  0  0  0  0  0
  -28.1729  -15.7542  -27.2541 C   0  0  0  0  0  0  0  0  0  0  0  0
  -32.9581  -16.1329  -23.9852 C   0  0  0  0  0  0  0  0  0  0  0  0
  -34.8525  -13.8647  -23.1793 C   0  0  0  0  0  0  0  0  0  0  0  0
  -25.6218  -20.4721  -23.0567 C   0  0  0  0  0  0  0  0  0  0  0  0
  -30.6787  -11.9695  -28.7625 N   0  0  0  0  0  0  0  0  0  0  0  0
  -29.1963  -13.0697  -26.7788 O   0  0  0  0  0  0  0  0  0  0  0  0
  -27.1839  -12.6866  -27.8384 O   0  0  0  0  0  0  0  0  0  0  0  0
  -30.9584  -13.6273  -30.3952 O   0  0  0  0  0  0  0  0  0  0  0  0
  -33.6220  -11.8086  -30.1418 O   0  0  0  0  0  0  0  0  0  0  0  0
  -33.6843  -12.8921  -27.2206 O   0  0  0  0  0  0  0  0  0  0  0  0
  -34.9710  -13.8384  -28.9153 O   0  0  0  0  0  0  0  0  0  0  0  0
  -33.9877  -15.4407  -24.6702 O   0  0  0  0  0  0  0  0  0  0  0  0
  -35.3609  -12.8629  -24.0400 O   0  0  0  0  0  0  0  0  0  0  0  0
  -30.2690  -15.7208  -22.2922 O   0  0  0  0  0  0  0  0  0  0  0  0
  -27.0250  -13.2715  -23.0709 O   0  0  0  0  0  0  0  0  0  0  0  0
  -26.8563  -19.9600  -22.5760 O   0  0  0  0  0  0  0  0  0  0  0  0
  -29.1652  -21.3764  -23.2670 O   0  0  0  0  0  0  0  0  0  0  0  0
  -29.0501  -12.7154  -29.8697 H   0  0  0  0  0  0  0  0  0  0  0  0
  -27.5719  -10.7164  -29.2813 H   0  0  0  0  0  0  0  0  0  0  0  0
  -29.0529  -10.3346  -30.2610 H   0  0  0  0  0  0  0  0  0  0  0  0
  -28.6753   -9.9070  -27.2619 H   0  0  0  0  0  0  0  0  0  0  0  0
  -28.7821   -8.6438  -28.5557 H   0  0  0  0  0  0  0  0  0  0  0  0
  -30.9192   -8.9230  -27.2792 H   0  0  0  0  0  0  0  0  0  0  0  0
  -31.0802   -9.2711  -29.0437 H   0  0  0  0  0  0  0  0  0  0  0  0
  -30.8597  -11.3111  -26.7676 H   0  0  0  0  0  0  0  0  0  0  0  0
  -32.2876  -10.9945  -27.8100 H   0  0  0  0  0  0  0  0  0  0  0  0
  -31.8570  -14.7709  -28.1425 H   0  0  0  0  0  0  0  0  0  0  0  0
  -34.4604  -16.0750  -27.2001 H   0  0  0  0  0  0  0  0  0  0  0  0
  -32.7646  -16.5403  -26.7855 H   0  0  0  0  0  0  0  0  0  0  0  0
  -32.4500  -14.4191  -25.5665 H   0  0  0  0  0  0  0  0  0  0  0  0
  -35.3408  -13.9009  -26.3306 H   0  0  0  0  0  0  0  0  0  0  0  0
  -34.7789  -11.5585  -25.5058 H   0  0  0  0  0  0  0  0  0  0  0  0
  -32.7520  -13.0540  -23.8171 H   0  0  0  0  0  0  0  0  0  0  0  0
  -32.4006  -11.8938  -25.1992 H   0  0  0  0  0  0  0  0  0  0  0  0
  -32.0574  -10.5866  -23.3421 H   0  0  0  0  0  0  0  0  0  0  0  0
  -33.8934  -10.5397  -21.4510 H   0  0  0  0  0  0  0  0  0  0  0  0
  -34.3754  -12.1375  -22.1304 H   0  0  0  0  0  0  0  0  0  0  0  0
  -33.1369  -14.1303  -21.7391 H   0  0  0  0  0  0  0  0  0  0  0  0
  -30.8082  -13.6610  -19.7284 H   0  0  0  0  0  0  0  0  0  0  0  0
  -29.4660  -12.5336  -21.9118 H   0  0  0  0  0  0  0  0  0  0  0  0
  -28.3055  -13.6411  -21.0494 H   0  0  0  0  0  0  0  0  0  0  0  0
  -28.2843  -14.9257  -23.3280 H   0  0  0  0  0  0  0  0  0  0  0  0
  -30.0260  -13.7088  -24.3768 H   0  0  0  0  0  0  0  0  0  0  0  0
  -27.3535  -13.2565  -25.8147 H   0  0  0  0  0  0  0  0  0  0  0  0
  -28.6232  -15.4369  -23.7215 H   0  0  0  0  0  0  0  0  0  0  0  0
  -28.3417  -17.8399  -25.7101 H   0  0  0  0  0  0  0  0  0  0  0  0
  -26.6338  -17.6628  -23.9062 H   0  0  0  0  0  0  0  0  0  0  0  0
  -27.9533  -17.5647  -22.6786 H   0  0  0  0  0  0  0  0  0  0  0  0
  -27.4090  -19.8991  -24.5645 H   0  0  0  0  0  0  0  0  0  0  0  0
  -29.4294  -19.5719  -22.2776 H   0  0  0  0  0  0  0  0  0  0  0  0
  -29.9165  -19.8657  -25.2707 H   0  0  0  0  0  0  0  0  0  0  0  0
  -31.1502  -19.6868  -23.9537 H   0  0  0  0  0  0  0  0  0  0  0  0
  -30.3820  -17.4315  -23.4611 H   0  0  0  0  0  0  0  0  0  0  0  0
  -30.7192  -17.5582  -25.2274 H   0  0  0  0  0  0  0  0  0  0  0  0
  -33.2396  -16.9145  -29.1844 H   0  0  0  0  0  0  0  0  0  0  0  0
  -33.9284  -15.5323  -30.1019 H   0  0  0  0  0  0  0  0  0  0  0  0
  -32.1546  -15.8156  -30.1019 H   0  0  0  0  0  0  0  0  0  0  0  0
  -34.3948   -9.2747  -23.0816 H   0  0  0  0  0  0  0  0  0  0  0  0
  -33.3616   -9.1433  -24.5451 H   0  0  0  0  0  0  0  0  0  0  0  0
  -34.7834  -10.2410  -24.5451 H   0  0  0  0  0  0  0  0  0  0  0  0
  -31.5248  -11.3352  -19.4841 H   0  0  0  0  0  0  0  0  0  0  0  0
  -30.3877  -11.5580  -20.8567 H   0  0  0  0  0  0  0  0  0  0  0  0
  -31.5359  -10.1765  -20.8567 H   0  0  0  0  0  0  0  0  0  0  0  0
  -31.7202  -16.3375  -20.8452 H   0  0  0  0  0  0  0  0  0  0  0  0
  -31.1476  -15.9313  -19.1934 H   0  0  0  0  0  0  0  0  0  0  0  0
  -34.0276  -15.7987  -20.1908 H   0  0  0  0  0  0  0  0  0  0  0  0
  -34.4846  -14.5456  -17.9926 H   0  0  0  0  0  0  0  0  0  0  0  0
  -32.6110  -14.3015  -17.7478 H   0  0  0  0  0  0  0  0  0  0  0  0
  -29.1493  -11.4080  -23.2887 H   0  0  0  0  0  0  0  0  0  0  0  0
  -28.2579  -11.2775  -24.8427 H   0  0  0  0  0  0  0  0  0  0  0  0
  -30.0501  -11.3979  -24.8427 H   0  0  0  0  0  0  0  0  0  0  0  0
  -27.8527  -16.8005  -27.1420 H   0  0  0  0  0  0  0  0  0  0  0  0
  -29.1230  -15.7187  -27.8073 H   0  0  0  0  0  0  0  0  0  0  0  0
  -27.4053  -15.1931  -27.8073 H   0  0  0  0  0  0  0  0  0  0  0  0
  -33.1078  -16.0323  -22.9001 H   0  0  0  0  0  0  0  0  0  0  0  0
  -32.9848  -17.1972  -24.2619 H   0  0  0  0  0  0  0  0  0  0  0  0
  -31.9826  -15.7064  -24.2619 H   0  0  0  0  0  0  0  0  0  0  0  0
  -35.0063  -13.5617  -22.1330 H   0  0  0  0  0  0  0  0  0  0  0  0
  -35.3790  -14.8119  -23.3678 H   0  0  0  0  0  0  0  0  0  0  0  0
  -33.7772  -13.9990  -23.3678 H   0  0  0  0  0  0  0  0  0  0  0  0
  -24.9788  -20.7388  -22.2050 H   0  0  0  0  0  0  0  0  0  0  0  0
  -25.8093  -21.3666  -23.6688 H   0  0  0  0  0  0  0  0  0  0  0  0
  -25.1211  -19.7074  -23.6688 H   0  0  0  0  0  0  0  0  0  0  0  0
  -35.5930  -13.9366  -28.1514 H   0  0  0  0  0  0  0  0  0  0  0  0
  -26.7884  -13.1677  -22.1152 H   0  0  0  0  0  0  0  0  0  0  0  0
  -29.1711  -21.7071  -22.3340 H   0  0  0  0  0  0  0  0  0  0  0  0
  1  2  1  0
  1 46  1  0
  1 47  2  0
  2  3  1  0
  2 45  1  0
  3  4  1  0
  4  5  1  0
  5  6  1  0
  6 45  1  0
  7  8  1  0
  7 45  1  0
  7 48  2  0
  8  9  1  0
  8 49  2  0
  9 10  1  0
  9 50  1  0
  9 51  1  6
 10 11  1  0
 10 34  1  0
 11 12  1  0
 12 13  1  0
 12 52  1  0
 13 14  1  0
 13 50  1  0
 14 15  1  0
 14 53  1  0
 15 16  1  0
 16 17  1  0
 16 35  1  0
 17 18  1  0
 18 19  2  3
 18 36  1  0
 19 20  1  0
 20 21  1  0
 20 37  1  0
 21 22  1  0
 21 54  2  0
 22 23  1  0
 23 24  1  0
 23 55  1  0
 24 25  1  0
 24 40  1  0
 25 26  1  0
 25 46  1  0
 26 27  2  3
 26 41  1  0
 28 27  1  0
 28 29  1  0
 28 33  1  0
 29 30  1  0
 30 31  1  0
 30 56  1  0
 31 32  1  0
 31 57  1  0
 32 33  1  0
 37 38  1  0
 38 39  2  0
 42 52  1  0
 43 53  1  0
 44 56  1  0
  2 58  1  6
  3 59  1  0
  3 60  1  0
  4 61  1  0
  4 62  1  0
  5 63  1  0
  5 64  1  0
  6 65  1  0
  6 66  1  0
 10 67  1  1
 11 68  1  0
 11 69  1  0
 12 70  1  1
 13 71  1  6
 14 72  1  6
 15 73  1  0
 15 74  1  0
 16 75  1  1
 17 76  1  0
 17 77  1  0
 19 78  1  0
 20 79  1  1
 22 80  1  0
 22 81  1  0
 23 82  1  6
 24 83  1  6
 25 84  1  1
 27 85  1  0
 28 86  1  6
 29 87  1  0
 29 88  1  0
 30 89  1  6
 31 90  1  1
 32 91  1  0
 32 92  1  0
 33 93  1  0
 33 94  1  0
 34 95  1  0
 34 96  1  0
 34 97  1  0
 35 98  1  0
 35 99  1  0
 35100  1  0
 36101  1  0
 36102  1  0
 36103  1  0
 37104  1  0
 37105  1  0
 38106  1  0
 39107  1  0
 39108  1  0
 40109  1  0
 40110  1  0
 40111  1  0
 41112  1  0
 41113  1  0
 41114  1  0
 42115  1  0
 42116  1  0
 42117  1  0
 43118  1  0
 43119  1  0
 43120  1  0
 44121  1  0
 44122  1  0
 44123  1  0
 51124  1  0
 55125  1  0
 57126  1  0
M  END
>  <filename_input>  (20) 
7U0U_FK5_docked.sdf

>  <pdb_id>  (20) 
7U0U_FK5

>  <pose_rank>  (20) 
19

>  <num_atoms_heavy>  (20) 
57

>  <num_torsions>  (20) 
7

>  <pose>  (20) 
[-28.556621768356692, -12.634014903220441, -27.791714680246, -1.7358238709179217, 1.0687602344040354, -2.8833813552538685, -4.623618859804006, -0.27264253172206504, -0.41654487381030536, 0.027633690529314525, 2.7812067596336916, 0.38668941817629354, 0.6397948875110969]

>  <energy>  (20) 
-397.82821281009115

>  <inter_energy>  (20) 
-612.6801728100653

>  <intra_energy>  (20) 
212.56296167294033

>  <rmsd>  (20) 
7.36334

>  <sdf_rank>  (20) 
0

$$$$

     RDKit          3D

126129  0  0  0  0  0  0  0  0999 V2000
  -28.9327  -14.5599  -29.5604 C   0  0  0  0  0  0  0  0  0  0  0  0
  -28.1868  -13.5170  -30.3406 C   0  0  2  0  0  0  0  0  0  0  0  0
  -26.8091  -14.0665  -30.7296 C   0  0  0  0  0  0  0  0  0  0  0  0
  -25.8765  -14.1974  -29.5189 C   0  0  0  0  0  0  0  0  0  0  0  0
  -25.7550  -12.8722  -28.7582 C   0  0  0  0  0  0  0  0  0  0  0  0
  -27.1391  -12.3556  -28.3416 C   0  0  0  0  0  0  0  0  0  0  0  0
  -28.6476  -11.1873  -29.8894 C   0  0  0  0  0  0  0  0  0  0  0  0
  -28.5282   -9.9800  -29.2155 C   0  0  0  0  0  0  0  0  0  0  0  0
  -29.4909   -9.5886  -28.1013 C   0  0  1  0  0  0  0  0  0  0  0  0
  -30.8992  -10.1443  -28.3401 C   0  0  1  0  0  0  0  0  0  0  0  0
  -31.7166  -10.1075  -27.0441 C   0  0  0  0  0  0  0  0  0  0  0  0
  -30.9061  -10.6751  -25.8704 C   0  0  1  0  0  0  0  0  0  0  0  0
  -29.5978   -9.8993  -25.7370 C   0  0  1  0  0  0  0  0  0  0  0  0
  -28.6674  -10.3719  -24.6068 C   0  0  2  0  0  0  0  0  0  0  0  0
  -28.5196  -11.8900  -24.5571 C   0  0  0  0  0  0  0  0  0  0  0  0
  -27.4380  -12.4049  -23.5948 C   0  0  2  0  0  0  0  0  0  0  0  0
  -28.0003  -12.4985  -22.1690 C   0  0  0  0  0  0  0  0  0  0  0  0
  -28.8156  -13.7546  -22.0124 C   0  0  0  0  0  0  0  0  0  0  0  0
  -30.2761  -13.6722  -22.1151 C   0  0  0  0  0  0  0  0  0  0  0  0
  -31.1396  -14.8992  -22.0051 C   0  0  2  0  0  0  0  0  0  0  0  0
  -31.3752  -15.4123  -23.3916 C   0  0  0  0  0  0  0  0  0  0  0  0
  -30.4471  -16.4246  -24.0419 C   0  0  0  0  0  0  0  0  0  0  0  0
  -30.6429  -16.5204  -25.5571 C   0  0  1  0  0  0  0  0  0  0  0  0
  -29.8807  -15.4373  -26.3408 C   0  0  2  0  0  0  0  0  0  0  0  0
  -30.1563  -15.4343  -27.8476 C   0  0  1  0  0  0  0  0  0  0  0  0
  -31.6341  -15.2355  -28.0878 C   0  0  0  0  0  0  0  0  0  0  0  0
  -32.5765  -16.0524  -27.3374 C   0  0  0  0  0  0  0  0  0  0  0  0
  -34.0649  -15.8852  -27.4322 C   0  0  1  0  0  0  0  0  0  0  0  0
  -34.5268  -15.1647  -26.1662 C   0  0  0  0  0  0  0  0  0  0  0  0
  -36.0291  -14.9122  -26.2100 C   0  0  2  0  0  0  0  0  0  0  0  0
  -36.3900  -14.0690  -27.4351 C   0  0  1  0  0  0  0  0  0  0  0  0
  -35.9127  -14.7390  -28.7222 C   0  0  0  0  0  0  0  0  0  0  0  0
  -34.4043  -15.0483  -28.6795 C   0  0  0  0  0  0  0  0  0  0  0  0
  -31.6413   -9.4149  -29.4689 C   0  0  0  0  0  0  0  0  0  0  0  0
  -26.1852  -11.5170  -23.6222 C   0  0  0  0  0  0  0  0  0  0  0  0
  -28.1236  -15.0598  -21.7329 C   0  0  0  0  0  0  0  0  0  0  0  0
  -32.4773  -14.4725  -21.4062 C   0  0  0  0  0  0  0  0  0  0  0  0
  -32.2445  -13.3570  -20.4055 C   0  0  0  0  0  0  0  0  0  0  0  0
  -33.4027  -12.6820  -19.8267 C   0  0  0  0  0  0  0  0  0  0  0  0
  -28.3671  -15.5387  -26.1286 C   0  0  0  0  0  0  0  0  0  0  0  0
  -32.0921  -14.1909  -29.0792 C   0  0  0  0  0  0  0  0  0  0  0  0
  -32.0594  -11.8784  -24.2326 C   0  0  0  0  0  0  0  0  0  0  0  0
  -28.7982   -8.5028  -23.1998 C   0  0  0  0  0  0  0  0  0  0  0  0
  -35.3990  -14.0640  -24.0864 C   0  0  0  0  0  0  0  0  0  0  0  0
  -28.0188  -12.3127  -29.5172 N   0  0  0  0  0  0  0  0  0  0  0  0
  -29.4296  -14.3424  -28.4067 O   0  0  0  0  0  0  0  0  0  0  0  0
  -29.0767  -15.7812  -30.1744 O   0  0  0  0  0  0  0  0  0  0  0  0
  -29.4657  -11.2166  -30.9994 O   0  0  0  0  0  0  0  0  0  0  0  0
  -27.5018   -9.0997  -29.5403 O   0  0  0  0  0  0  0  0  0  0  0  0
  -28.8888  -10.1091  -26.9386 O   0  0  0  0  0  0  0  0  0  0  0  0
  -29.5524   -8.1512  -28.0108 O   0  0  0  0  0  0  0  0  0  0  0  0
  -31.6713  -10.5897  -24.6762 O   0  0  0  0  0  0  0  0  0  0  0  0
  -29.0867   -9.8795  -23.3559 O   0  0  0  0  0  0  0  0  0  0  0  0
  -32.4696  -14.8983  -24.0757 O   0  0  0  0  0  0  0  0  0  0  0  0
  -30.1852  -17.7940  -25.9534 O   0  0  0  0  0  0  0  0  0  0  0  0
  -36.4275  -14.2137  -25.0545 O   0  0  0  0  0  0  0  0  0  0  0  0
  -37.7980  -13.9034  -27.4710 O   0  0  0  0  0  0  0  0  0  0  0  0
  -28.7532  -13.2610  -31.2481 H   0  0  0  0  0  0  0  0  0  0  0  0
  -26.9391  -15.0589  -31.1859 H   0  0  0  0  0  0  0  0  0  0  0  0
  -26.3497  -13.3592  -31.4358 H   0  0  0  0  0  0  0  0  0  0  0  0
  -26.2778  -14.9640  -28.8397 H   0  0  0  0  0  0  0  0  0  0  0  0
  -24.8773  -14.4803  -29.8816 H   0  0  0  0  0  0  0  0  0  0  0  0
  -25.1418  -13.0275  -27.8583 H   0  0  0  0  0  0  0  0  0  0  0  0
  -25.2842  -12.1283  -29.4177 H   0  0  0  0  0  0  0  0  0  0  0  0
  -27.5696  -13.0286  -27.5855 H   0  0  0  0  0  0  0  0  0  0  0  0
  -27.0417  -11.3447  -27.9188 H   0  0  0  0  0  0  0  0  0  0  0  0
  -30.7807  -11.1892  -28.6628 H   0  0  0  0  0  0  0  0  0  0  0  0
  -31.9924   -9.0662  -26.8214 H   0  0  0  0  0  0  0  0  0  0  0  0
  -32.6184  -10.7227  -27.1792 H   0  0  0  0  0  0  0  0  0  0  0  0
  -30.6696  -11.7334  -26.0546 H   0  0  0  0  0  0  0  0  0  0  0  0
  -29.8689   -8.8563  -25.5160 H   0  0  0  0  0  0  0  0  0  0  0  0
  -27.6753   -9.9558  -24.8360 H   0  0  0  0  0  0  0  0  0  0  0  0
  -29.4845  -12.3170  -24.2462 H   0  0  0  0  0  0  0  0  0  0  0  0
  -28.2089  -12.2023  -25.5650 H   0  0  0  0  0  0  0  0  0  0  0  0
  -27.1384  -13.4089  -23.9299 H   0  0  0  0  0  0  0  0  0  0  0  0
  -27.1675  -12.5140  -21.4505 H   0  0  0  0  0  0  0  0  0  0  0  0
  -28.6441  -11.6270  -21.9795 H   0  0  0  0  0  0  0  0  0  0  0  0
  -30.7501  -12.6927  -22.2760 H   0  0  0  0  0  0  0  0  0  0  0  0
  -30.6673  -15.6724  -21.3814 H   0  0  0  0  0  0  0  0  0  0  0  0
  -29.4071  -16.1286  -23.8399 H   0  0  0  0  0  0  0  0  0  0  0  0
  -30.6807  -17.4109  -23.6145 H   0  0  0  0  0  0  0  0  0  0  0  0
  -31.7088  -16.3666  -25.7814 H   0  0  0  0  0  0  0  0  0  0  0  0
  -30.2654  -14.4932  -25.9278 H   0  0  0  0  0  0  0  0  0  0  0  0
  -29.8495  -16.3854  -28.3071 H   0  0  0  0  0  0  0  0  0  0  0  0
  -32.1786  -16.8297  -26.6684 H   0  0  0  0  0  0  0  0  0  0  0  0
  -34.5702  -16.8584  -27.5203 H   0  0  0  0  0  0  0  0  0  0  0  0
  -34.2902  -15.7862  -25.2900 H   0  0  0  0  0  0  0  0  0  0  0  0
  -34.0067  -14.1978  -26.0989 H   0  0  0  0  0  0  0  0  0  0  0  0
  -36.5434  -15.8831  -26.2641 H   0  0  0  0  0  0  0  0  0  0  0  0
  -35.8920  -13.0912  -27.3595 H   0  0  0  0  0  0  0  0  0  0  0  0
  -36.4655  -15.6799  -28.8603 H   0  0  0  0  0  0  0  0  0  0  0  0
  -36.0966  -14.0468  -29.5570 H   0  0  0  0  0  0  0  0  0  0  0  0
  -33.8411  -14.1040  -28.6469 H   0  0  0  0  0  0  0  0  0  0  0  0
  -34.1308  -15.6197  -29.5788 H   0  0  0  0  0  0  0  0  0  0  0  0
  -32.3622   -8.7061  -29.0355 H   0  0  0  0  0  0  0  0  0  0  0  0
  -30.9169   -8.8674  -30.0899 H   0  0  0  0  0  0  0  0  0  0  0  0
  -32.1763  -10.1484  -30.0899 H   0  0  0  0  0  0  0  0  0  0  0  0
  -25.8710  -11.2943  -22.5919 H   0  0  0  0  0  0  0  0  0  0  0  0
  -25.3743  -12.0432  -24.1472 H   0  0  0  0  0  0  0  0  0  0  0  0
  -26.4130  -10.5776  -24.1472 H   0  0  0  0  0  0  0  0  0  0  0  0
  -28.0451  -15.2078  -20.6458 H   0  0  0  0  0  0  0  0  0  0  0  0
  -28.7032  -15.8840  -22.1743 H   0  0  0  0  0  0  0  0  0  0  0  0
  -27.1162  -15.0426  -22.1743 H   0  0  0  0  0  0  0  0  0  0  0  0
  -33.1413  -14.1152  -22.2071 H   0  0  0  0  0  0  0  0  0  0  0  0
  -32.9452  -15.3299  -20.9005 H   0  0  0  0  0  0  0  0  0  0  0  0
  -31.2235  -13.0623  -20.1214 H   0  0  0  0  0  0  0  0  0  0  0  0
  -33.2591  -11.8699  -19.0987 H   0  0  0  0  0  0  0  0  0  0  0  0
  -34.4189  -12.9856  -20.1186 H   0  0  0  0  0  0  0  0  0  0  0  0
  -28.1481  -15.5534  -25.0508 H   0  0  0  0  0  0  0  0  0  0  0  0
  -27.9931  -16.4639  -26.5914 H   0  0  0  0  0  0  0  0  0  0  0  0
  -27.8731  -14.6717  -26.5914 H   0  0  0  0  0  0  0  0  0  0  0  0
  -32.4765  -13.3144  -28.5370 H   0  0  0  0  0  0  0  0  0  0  0  0
  -31.2441  -13.8884  -29.7111 H   0  0  0  0  0  0  0  0  0  0  0  0
  -32.8892  -14.6097  -29.7111 H   0  0  0  0  0  0  0  0  0  0  0  0
  -32.0662  -11.9010  -23.1328 H   0  0  0  0  0  0  0  0  0  0  0  0
  -33.0666  -12.1083  -24.6103 H   0  0  0  0  0  0  0  0  0  0  0  0
  -31.3466  -12.6263  -24.6103 H   0  0  0  0  0  0  0  0  0  0  0  0
  -28.7470   -8.2581  -22.1285 H   0  0  0  0  0  0  0  0  0  0  0  0
  -27.8327   -8.2743  -23.6747 H   0  0  0  0  0  0  0  0  0  0  0  0
  -29.5908   -7.9059  -23.6747 H   0  0  0  0  0  0  0  0  0  0  0  0
  -35.8329  -14.1272  -23.0776 H   0  0  0  0  0  0  0  0  0  0  0  0
  -34.6543  -14.8631  -24.2159 H   0  0  0  0  0  0  0  0  0  0  0  0
  -34.9131  -13.0856  -24.2159 H   0  0  0  0  0  0  0  0  0  0  0  0
  -29.5640   -7.8807  -27.0585 H   0  0  0  0  0  0  0  0  0  0  0  0
  -29.9894  -18.3389  -25.1504 H   0  0  0  0  0  0  0  0  0  0  0  0
  -38.1491  -13.8621  -26.5463 H   0  0  0  0  0  0  0  0  0  0  0  0
  1  2  1  0
  1 46  1  0
  1 47  2  0
  2  3  1  0
  2 45  1  0
  3  4  1  0
  4  5  1  0
  5  6  1  0
  6 45  1  0
  7  8  1  0
  7 45  1  0
  7 48  2  0
  8  9  1  0
  8 49  2  0
  9 10  1  0
  9 50  1  0
  9 51  1  1
 10 11  1  0
 10 34  1  0
 11 12  1  0
 12 13  1  0
 12 52  1  0
 13 14  1  0
 13 50  1  0
 14 15  1  0
 14 53  1  0
 15 16  1  0
 16 17  1  0
 16 35  1  0
 17 18  1  0
 18 19  2  3
 18 36  1  0
 19 20  1  0
 20 21  1  0
 20 37  1  0
 21 22  1  0
 21 54  2  0
 22 23  1  0
 23 24  1  0
 23 55  1  0
 24 25  1  0
 24 40  1  0
 25 26  1  0
 25 46  1  0
 26 27  2  3
 26 41  1  0
 28 27  1  0
 28 29  1  0
 28 33  1  0
 29 30  1  0
 30 31  1  0
 30 56  1  0
 31 32  1  0
 31 57  1  0
 32 33  1  0
 37 38  1  0
 38 39  2  0
 42 52  1  0
 43 53  1  0
 44 56  1  0
  2 58  1  6
  3 59  1  0
  3 60  1  0
  4 61  1  0
  4 62  1  0
  5 63  1  0
  5 64  1  0
  6 65  1  0
  6 66  1  0
 10 67  1  6
 11 68  1  0
 11 69  1  0
 12 70  1  6
 13 71  1  1
 14 72  1  6
 15 73  1  0
 15 74  1  0
 16 75  1  6
 17 76  1  0
 17 77  1  0
 19 78  1  0
 20 79  1  1
 22 80  1  0
 22 81  1  0
 23 82  1  1
 24 83  1  1
 25 84  1  6
 27 85  1  0
 28 86  1  6
 29 87  1  0
 29 88  1  0
 30 89  1  6
 31 90  1  1
 32 91  1  0
 32 92  1  0
 33 93  1  0
 33 94  1  0
 34 95  1  0
 34 96  1  0
 34 97  1  0
 35 98  1  0
 35 99  1  0
 35100  1  0
 36101  1  0
 36102  1  0
 36103  1  0
 37104  1  0
 37105  1  0
 38106  1  0
 39107  1  0
 39108  1  0
 40109  1  0
 40110  1  0
 40111  1  0
 41112  1  0
 41113  1  0
 41114  1  0
 42115  1  0
 42116  1  0
 42117  1  0
 43118  1  0
 43119  1  0
 43120  1  0
 44121  1  0
 44122  1  0
 44123  1  0
 51124  1  0
 55125  1  0
 57126  1  0
M  END
>  <filename_input>  (21) 
7U0U_FK5_docked.sdf

>  <pdb_id>  (21) 
7U0U_FK5

>  <pose_rank>  (21) 
20

>  <num_atoms_heavy>  (21) 
57

>  <num_torsions>  (21) 
7

>  <pose>  (21) 
[-28.932743064624, -14.559935196506979, -29.560391883376955, 0.5229270944296271, -1.510806784393737, 0.62871129681773, 1.1201778481145719, 1.907540091956142, 1.2342420075465323, 0.4505672356343434, 0.15283643394598143, 0.4021012032076771, -1.3428536403681]

>  <energy>  (21) 
-415.1633779525728

>  <inter_energy>  (21) 
-565.7646856713283

>  <intra_energy>  (21) 
144.212921501252

>  <rmsd>  (21) 
6.25401

>  <sdf_rank>  (21) 
0

$$$$

     RDKit          3D

126129  0  0  0  0  0  0  0  0999 V2000
  -29.2880  -17.5500  -23.0517 C   0  0  0  0  0  0  0  0  0  0  0  0
  -30.5976  -17.6787  -22.3297 C   0  0  2  0  0  0  0  0  0  0  0  0
  -31.1355  -19.1035  -22.5093 C   0  0  0  0  0  0  0  0  0  0  0  0
  -31.6069  -19.3662  -23.9451 C   0  0  0  0  0  0  0  0  0  0  0  0
  -32.6317  -18.3207  -24.3995 C   0  0  0  0  0  0  0  0  0  0  0  0
  -32.0638  -16.9024  -24.2507 C   0  0  0  0  0  0  0  0  0  0  0  0
  -31.9886  -15.7150  -22.1011 C   0  0  0  0  0  0  0  0  0  0  0  0
  -32.9289  -14.7755  -22.5000 C   0  0  0  0  0  0  0  0  0  0  0  0
  -32.5180  -13.4621  -23.1538 C   0  0  1  0  0  0  0  0  0  0  0  0
  -31.1727  -12.9546  -22.6230 C   0  0  1  0  0  0  0  0  0  0  0  0
  -30.5886  -11.8977  -23.5668 C   0  0  0  0  0  0  0  0  0  0  0  0
  -30.6569  -12.3701  -25.0258 C   0  0  1  0  0  0  0  0  0  0  0  0
  -32.1028  -12.7090  -25.3806 C   0  0  1  0  0  0  0  0  0  0  0  0
  -32.3241  -13.2180  -26.8153 C   0  0  2  0  0  0  0  0  0  0  0  0
  -31.2987  -14.2670  -27.2363 C   0  0  0  0  0  0  0  0  0  0  0  0
  -31.5982  -14.9674  -28.5707 C   0  0  2  0  0  0  0  0  0  0  0  0
  -31.0827  -14.1175  -29.7411 C   0  0  0  0  0  0  0  0  0  0  0  0
  -29.5990  -14.3097  -29.9101 C   0  0  0  0  0  0  0  0  0  0  0  0
  -28.6839  -13.3097  -29.3508 C   0  0  0  0  0  0  0  0  0  0  0  0
  -27.1914  -13.4681  -29.4555 C   0  0  2  0  0  0  0  0  0  0  0  0
  -26.7206  -14.1516  -28.2096 C   0  0  0  0  0  0  0  0  0  0  0  0
  -26.6269  -15.6650  -28.1102 C   0  0  0  0  0  0  0  0  0  0  0  0
  -26.4974  -16.1572  -26.6665 C   0  0  1  0  0  0  0  0  0  0  0  0
  -27.8478  -16.2726  -25.9375 C   0  0  2  0  0  0  0  0  0  0  0  0
  -27.7374  -16.6448  -24.4557 C   0  0  1  0  0  0  0  0  0  0  0  0
  -26.9032  -15.6101  -23.7385 C   0  0  0  0  0  0  0  0  0  0  0  0
  -27.2223  -14.2033  -23.9328 C   0  0  0  0  0  0  0  0  0  0  0  0
  -26.5169  -13.0939  -23.2089 C   0  0  1  0  0  0  0  0  0  0  0  0
  -25.1042  -13.5810  -22.8889 C   0  0  0  0  0  0  0  0  0  0  0  0
  -24.3037  -12.4864  -22.1935 C   0  0  2  0  0  0  0  0  0  0  0  0
  -24.2236  -11.2422  -23.0809 C   0  0  1  0  0  0  0  0  0  0  0  0
  -25.6184  -10.7434  -23.4536 C   0  0  0  0  0  0  0  0  0  0  0  0
  -26.4627  -11.8495  -24.1142 C   0  0  0  0  0  0  0  0  0  0  0  0
  -31.2679  -12.4085  -21.1914 C   0  0  0  0  0  0  0  0  0  0  0  0
  -33.0974  -15.2572  -28.7351 C   0  0  0  0  0  0  0  0  0  0  0  0
  -29.0855  -15.5048  -30.6642 C   0  0  0  0  0  0  0  0  0  0  0  0
  -26.5796  -12.0706  -29.5094 C   0  0  0  0  0  0  0  0  0  0  0  0
  -27.5179  -11.1419  -30.2556 C   0  0  0  0  0  0  0  0  0  0  0  0
  -27.8251   -9.8391  -29.6719 C   0  0  0  0  0  0  0  0  0  0  0  0
  -28.7793  -17.2799  -26.6187 C   0  0  0  0  0  0  0  0  0  0  0  0
  -25.7803  -16.0588  -22.8320 C   0  0  0  0  0  0  0  0  0  0  0  0
  -28.8432  -11.6791  -26.3271 C   0  0  0  0  0  0  0  0  0  0  0  0
  -33.6386  -11.5968  -27.8801 C   0  0  0  0  0  0  0  0  0  0  0  0
  -22.3303  -13.4495  -23.0908 C   0  0  0  0  0  0  0  0  0  0  0  0
  -31.5612  -16.7184  -22.8828 N   0  0  0  0  0  0  0  0  0  0  0  0
  -29.0597  -16.6472  -23.9222 O   0  0  0  0  0  0  0  0  0  0  0  0
  -28.3180  -18.4596  -22.7039 O   0  0  0  0  0  0  0  0  0  0  0  0
  -31.4709  -15.5942  -20.8285 O   0  0  0  0  0  0  0  0  0  0  0  0
  -34.2848  -15.0279  -22.3212 O   0  0  0  0  0  0  0  0  0  0  0  0
  -32.4818  -13.7680  -24.5288 O   0  0  0  0  0  0  0  0  0  0  0  0
  -33.5350  -12.4707  -22.9067 O   0  0  0  0  0  0  0  0  0  0  0  0
  -30.1486  -11.3553  -25.8806 O   0  0  0  0  0  0  0  0  0  0  0  0
  -32.3462  -12.1561  -27.7399 O   0  0  0  0  0  0  0  0  0  0  0  0
  -26.3984  -13.3397  -27.1295 O   0  0  0  0  0  0  0  0  0  0  0  0
  -25.8824  -17.4253  -26.7157 O   0  0  0  0  0  0  0  0  0  0  0  0
  -22.9950  -12.9410  -21.9431 O   0  0  0  0  0  0  0  0  0  0  0  0
  -23.5212  -10.2302  -22.3782 O   0  0  0  0  0  0  0  0  0  0  0  0
  -30.4501  -17.4707  -21.2597 H   0  0  0  0  0  0  0  0  0  0  0  0
  -30.3365  -19.8179  -22.2622 H   0  0  0  0  0  0  0  0  0  0  0  0
  -32.0010  -19.2252  -21.8414 H   0  0  0  0  0  0  0  0  0  0  0  0
  -30.7380  -19.3316  -24.6187 H   0  0  0  0  0  0  0  0  0  0  0  0
  -32.0864  -20.3558  -23.9755 H   0  0  0  0  0  0  0  0  0  0  0  0
  -32.8854  -18.4990  -25.4549 H   0  0  0  0  0  0  0  0  0  0  0  0
  -33.5296  -18.4095  -23.7703 H   0  0  0  0  0  0  0  0  0  0  0  0
  -31.2407  -16.7598  -24.9663 H   0  0  0  0  0  0  0  0  0  0  0  0
  -32.8562  -16.1666  -24.4528 H   0  0  0  0  0  0  0  0  0  0  0  0
  -30.4954  -13.8206  -22.5870 H   0  0  0  0  0  0  0  0  0  0  0  0
  -31.1624  -10.9651  -23.4627 H   0  0  0  0  0  0  0  0  0  0  0  0
  -29.5345  -11.7314  -23.2997 H   0  0  0  0  0  0  0  0  0  0  0  0
  -30.0423  -13.2729  -25.1572 H   0  0  0  0  0  0  0  0  0  0  0  0
  -32.6811  -11.7791  -25.2761 H   0  0  0  0  0  0  0  0  0  0  0  0
  -33.3091  -13.7076  -26.8155 H   0  0  0  0  0  0  0  0  0  0  0  0
  -30.3199  -13.7724  -27.3225 H   0  0  0  0  0  0  0  0  0  0  0  0
  -31.3250  -15.0504  -26.4647 H   0  0  0  0  0  0  0  0  0  0  0  0
  -31.0734  -15.9341  -28.5697 H   0  0  0  0  0  0  0  0  0  0  0  0
  -31.5961  -14.4223  -30.6650 H   0  0  0  0  0  0  0  0  0  0  0  0
  -31.2854  -13.0570  -29.5308 H   0  0  0  0  0  0  0  0  0  0  0  0
  -29.0973  -12.4252  -28.8441 H   0  0  0  0  0  0  0  0  0  0  0  0
  -26.9071  -14.0479  -30.3460 H   0  0  0  0  0  0  0  0  0  0  0  0
  -27.5346  -16.1031  -28.5509 H   0  0  0  0  0  0  0  0  0  0  0  0
  -25.7203  -15.9771  -28.6493 H   0  0  0  0  0  0  0  0  0  0  0  0
  -25.9060  -15.4232  -26.0995 H   0  0  0  0  0  0  0  0  0  0  0  0
  -28.2675  -15.2576  -25.9977 H   0  0  0  0  0  0  0  0  0  0  0  0
  -27.2625  -17.6290  -24.3301 H   0  0  0  0  0  0  0  0  0  0  0  0
  -28.0187  -13.9407  -24.6446 H   0  0  0  0  0  0  0  0  0  0  0  0
  -27.0441  -12.8249  -22.2817 H   0  0  0  0  0  0  0  0  0  0  0  0
  -25.1654  -14.4588  -22.2289 H   0  0  0  0  0  0  0  0  0  0  0  0
  -24.5992  -13.8462  -23.8294 H   0  0  0  0  0  0  0  0  0  0  0  0
  -24.8066  -12.2352  -21.2480 H   0  0  0  0  0  0  0  0  0  0  0  0
  -23.6967  -11.4967  -24.0124 H   0  0  0  0  0  0  0  0  0  0  0  0
  -26.1299  -10.4015  -22.5418 H   0  0  0  0  0  0  0  0  0  0  0  0
  -25.5063   -9.9211  -24.1755 H   0  0  0  0  0  0  0  0  0  0  0  0
  -26.0116  -12.1226  -25.0795 H   0  0  0  0  0  0  0  0  0  0  0  0
  -27.4854  -11.4748  -24.2684 H   0  0  0  0  0  0  0  0  0  0  0  0
  -31.1246  -13.2308  -20.4749 H   0  0  0  0  0  0  0  0  0  0  0  0
  -30.4888  -11.6475  -21.0367 H   0  0  0  0  0  0  0  0  0  0  0  0
  -32.2584  -11.9559  -21.0367 H   0  0  0  0  0  0  0  0  0  0  0  0
  -33.5643  -15.3474  -27.7433 H   0  0  0  0  0  0  0  0  0  0  0  0
  -33.5713  -14.4340  -29.2900 H   0  0  0  0  0  0  0  0  0  0  0  0
  -33.2304  -16.1976  -29.2900 H   0  0  0  0  0  0  0  0  0  0  0  0
  -28.7549  -16.2741  -29.9508 H   0  0  0  0  0  0  0  0  0  0  0  0
  -29.8881  -15.9119  -31.2967 H   0  0  0  0  0  0  0  0  0  0  0  0
  -28.2377  -15.2028  -31.2967 H   0  0  0  0  0  0  0  0  0  0  0  0
  -26.4282  -11.6959  -28.4863 H   0  0  0  0  0  0  0  0  0  0  0  0
  -25.6110  -12.1119  -30.0292 H   0  0  0  0  0  0  0  0  0  0  0  0
  -27.9584  -11.4436  -31.2174 H   0  0  0  0  0  0  0  0  0  0  0  0
  -28.5030   -9.1483  -30.1945 H   0  0  0  0  0  0  0  0  0  0  0  0
  -27.3785   -9.5486  -28.7095 H   0  0  0  0  0  0  0  0  0  0  0  0
  -29.3154  -17.8596  -25.8528 H   0  0  0  0  0  0  0  0  0  0  0  0
  -29.5052  -16.7419  -27.2462 H   0  0  0  0  0  0  0  0  0  0  0  0
  -28.1864  -17.9615  -27.2462 H   0  0  0  0  0  0  0  0  0  0  0  0
  -26.0855  -15.9368  -21.7823 H   0  0  0  0  0  0  0  0  0  0  0  0
  -25.5524  -17.1171  -23.0270 H   0  0  0  0  0  0  0  0  0  0  0  0
  -24.8858  -15.4491  -23.0270 H   0  0  0  0  0  0  0  0  0  0  0  0
  -28.1883  -11.8415  -25.4584 H   0  0  0  0  0  0  0  0  0  0  0  0
  -28.8803  -12.5952  -26.9348 H   0  0  0  0  0  0  0  0  0  0  0  0
  -28.4478  -10.8518  -26.9348 H   0  0  0  0  0  0  0  0  0  0  0  0
  -34.0678  -11.4111  -26.8844 H   0  0  0  0  0  0  0  0  0  0  0  0
  -33.5696  -10.6480  -28.4324 H   0  0  0  0  0  0  0  0  0  0  0  0
  -34.2831  -12.2965  -28.4324 H   0  0  0  0  0  0  0  0  0  0  0  0
  -21.4932  -14.0899  -22.7760 H   0  0  0  0  0  0  0  0  0  0  0  0
  -23.0373  -14.0395  -23.6926 H   0  0  0  0  0  0  0  0  0  0  0  0
  -21.9458  -12.6128  -23.6926 H   0  0  0  0  0  0  0  0  0  0  0  0
  -33.6532  -12.3554  -21.9306 H   0  0  0  0  0  0  0  0  0  0  0  0
  -25.7243  -17.7512  -25.7943 H   0  0  0  0  0  0  0  0  0  0  0  0
  -23.6214  -10.3747  -21.4040 H   0  0  0  0  0  0  0  0  0  0  0  0
  1  2  1  0
  1 46  1  0
  1 47  2  0
  2  3  1  0
  2 45  1  0
  3  4  1  0
  4  5  1  0
  5  6  1  0
  6 45  1  0
  7  8  1  0
  7 45  1  0
  7 48  2  0
  8  9  1  0
  8 49  2  0
  9 10  1  0
  9 50  1  0
  9 51  1  6
 10 11  1  0
 10 34  1  0
 11 12  1  0
 12 13  1  0
 12 52  1  0
 13 14  1  0
 13 50  1  0
 14 15  1  0
 14 53  1  0
 15 16  1  0
 16 17  1  0
 16 35  1  0
 17 18  1  0
 18 19  2  3
 18 36  1  0
 19 20  1  0
 20 21  1  0
 20 37  1  0
 21 22  1  0
 21 54  2  0
 22 23  1  0
 23 24  1  0
 23 55  1  0
 24 25  1  0
 24 40  1  0
 25 26  1  0
 25 46  1  0
 26 27  2  3
 26 41  1  0
 28 27  1  0
 28 29  1  0
 28 33  1  0
 29 30  1  0
 30 31  1  0
 30 56  1  0
 31 32  1  0
 31 57  1  0
 32 33  1  0
 37 38  1  0
 38 39  2  0
 42 52  1  0
 43 53  1  0
 44 56  1  0
  2 58  1  1
  3 59  1  0
  3 60  1  0
  4 61  1  0
  4 62  1  0
  5 63  1  0
  5 64  1  0
  6 65  1  0
  6 66  1  0
 10 67  1  1
 11 68  1  0
 11 69  1  0
 12 70  1  1
 13 71  1  1
 14 72  1  1
 15 73  1  0
 15 74  1  0
 16 75  1  1
 17 76  1  0
 17 77  1  0
 19 78  1  0
 20 79  1  6
 22 80  1  0
 22 81  1  0
 23 82  1  1
 24 83  1  1
 25 84  1  6
 27 85  1  0
 28 86  1  1
 29 87  1  0
 29 88  1  0
 30 89  1  1
 31 90  1  6
 32 91  1  0
 32 92  1  0
 33 93  1  0
 33 94  1  0
 34 95  1  0
 34 96  1  0
 34 97  1  0
 35 98  1  0
 35 99  1  0
 35100  1  0
 36101  1  0
 36102  1  0
 36103  1  0
 37104  1  0
 37105  1  0
 38106  1  0
 39107  1  0
 39108  1  0
 40109  1  0
 40110  1  0
 40111  1  0
 41112  1  0
 41113  1  0
 41114  1  0
 42115  1  0
 42116  1  0
 42117  1  0
 43118  1  0
 43119  1  0
 43120  1  0
 44121  1  0
 44122  1  0
 44123  1  0
 51124  1  0
 55125  1  0
 57126  1  0
M  END
>  <filename_input>  (22) 
7U0U_FK5_docked.sdf

>  <pdb_id>  (22) 
7U0U_FK5

>  <pose_rank>  (22) 
21

>  <num_atoms_heavy>  (22) 
57

>  <num_torsions>  (22) 
7

>  <pose>  (22) 
[-29.28804942813159, -17.550047775502584, -23.051704684900468, -0.8295215147193444, -4.46815064310842, -1.260031139055302, -3.45656758975083, 4.219141315346487, 2.2834864307657115, 0.32890263388950447, -0.06793935757977446, 0.41048632775872623, -2.043741678627339]

>  <energy>  (22) 
-497.7251834344918

>  <inter_energy>  (22) 
-576.6097385754045

>  <intra_energy>  (22) 
76.01204428973358

>  <rmsd>  (22) 
7.01284

>  <sdf_rank>  (22) 
0

$$$$

     RDKit          3D

126129  0  0  0  0  0  0  0  0999 V2000
  -31.3184  -13.1849  -29.1113 C   0  0  0  0  0  0  0  0  0  0  0  0
  -30.5364  -12.0718  -29.7456 C   0  0  2  0  0  0  0  0  0  0  0  0
  -29.6471  -12.6474  -30.8544 C   0  0  0  0  0  0  0  0  0  0  0  0
  -28.4918  -13.4849  -30.2920 C   0  0  0  0  0  0  0  0  0  0  0  0
  -27.6686  -12.6913  -29.2710 C   0  0  0  0  0  0  0  0  0  0  0  0
  -28.5664  -12.1556  -28.1472 C   0  0  0  0  0  0  0  0  0  0  0  0
  -29.9621  -10.1492  -28.3976 C   0  0  0  0  0  0  0  0  0  0  0  0
  -29.2106   -9.4195  -27.4872 C   0  0  0  0  0  0  0  0  0  0  0  0
  -29.5624   -9.3871  -26.0052 C   0  0  1  0  0  0  0  0  0  0  0  0
  -31.0740   -9.4901  -25.7732 C   0  0  1  0  0  0  0  0  0  0  0  0
  -31.3678   -9.8769  -24.3196 C   0  0  0  0  0  0  0  0  0  0  0  0
  -30.4881  -11.0552  -23.8789 C   0  0  1  0  0  0  0  0  0  0  0  0
  -29.0187  -10.6934  -24.0827 C   0  0  1  0  0  0  0  0  0  0  0  0
  -28.0133  -11.7929  -23.6995 C   0  0  2  0  0  0  0  0  0  0  0  0
  -28.4126  -13.1694  -24.2237 C   0  0  0  0  0  0  0  0  0  0  0  0
  -27.3428  -14.2603  -24.0611 C   0  0  2  0  0  0  0  0  0  0  0  0
  -27.4184  -14.8689  -22.6533 C   0  0  0  0  0  0  0  0  0  0  0  0
  -28.5354  -15.8760  -22.5808 C   0  0  0  0  0  0  0  0  0  0  0  0
  -29.8206  -15.4724  -22.0015 C   0  0  0  0  0  0  0  0  0  0  0  0
  -30.9843  -16.4238  -21.9374 C   0  0  2  0  0  0  0  0  0  0  0  0
  -31.8145  -16.2064  -23.1640 C   0  0  0  0  0  0  0  0  0  0  0  0
  -31.5689  -16.9813  -24.4479 C   0  0  0  0  0  0  0  0  0  0  0  0
  -32.2552  -16.3499  -25.6617 C   0  0  1  0  0  0  0  0  0  0  0  0
  -31.4456  -15.2034  -26.2929 C   0  0  2  0  0  0  0  0  0  0  0  0
  -32.1638  -14.4738  -27.4323 C   0  0  1  0  0  0  0  0  0  0  0  0
  -33.4661  -13.9039  -26.9221 C   0  0  0  0  0  0  0  0  0  0  0  0
  -34.7059  -14.3261  -27.5569 C   0  0  0  0  0  0  0  0  0  0  0  0
  -36.0613  -13.8911  -27.0814 C   0  0  1  0  0  0  0  0  0  0  0  0
  -36.1748  -12.3881  -27.3335 C   0  0  0  0  0  0  0  0  0  0  0  0
  -37.5497  -11.8768  -26.9204 C   0  0  2  0  0  0  0  0  0  0  0  0
  -38.6443  -12.6073  -27.7015 C   0  0  1  0  0  0  0  0  0  0  0  0
  -38.5435  -14.1187  -27.5042 C   0  0  0  0  0  0  0  0  0  0  0  0
  -37.1447  -14.6502  -27.8695 C   0  0  0  0  0  0  0  0  0  0  0  0
  -31.8213   -8.2039  -26.1527 C   0  0  0  0  0  0  0  0  0  0  0  0
  -25.9330  -13.7180  -24.3381 C   0  0  0  0  0  0  0  0  0  0  0  0
  -28.3076  -17.2757  -23.0802 C   0  0  0  0  0  0  0  0  0  0  0  0
  -31.8159  -16.0571  -20.7110 C   0  0  0  0  0  0  0  0  0  0  0  0
  -32.1078  -14.5690  -20.7311 C   0  0  0  0  0  0  0  0  0  0  0  0
  -33.3405  -14.0884  -20.1131 C   0  0  0  0  0  0  0  0  0  0  0  0
  -30.0858  -15.6828  -26.8101 C   0  0  0  0  0  0  0  0  0  0  0  0
  -33.4494  -12.9324  -25.7646 C   0  0  0  0  0  0  0  0  0  0  0  0
  -31.9945  -12.0304  -22.3822 C   0  0  0  0  0  0  0  0  0  0  0  0
  -26.4365  -11.7740  -21.9664 C   0  0  0  0  0  0  0  0  0  0  0  0
  -36.4332   -9.9120  -27.6410 C   0  0  0  0  0  0  0  0  0  0  0  0
  -29.6959  -11.4210  -28.7324 N   0  0  0  0  0  0  0  0  0  0  0  0
  -31.3111  -13.4130  -27.8571 O   0  0  0  0  0  0  0  0  0  0  0  0
  -32.0775  -13.9487  -29.9654 O   0  0  0  0  0  0  0  0  0  0  0  0
  -31.0425   -9.5189  -28.9787 O   0  0  0  0  0  0  0  0  0  0  0  0
  -28.0964   -8.7067  -27.9168 O   0  0  0  0  0  0  0  0  0  0  0  0
  -28.8522  -10.4786  -25.4672 O   0  0  0  0  0  0  0  0  0  0  0  0
  -29.0719   -8.1605  -25.4279 O   0  0  0  0  0  0  0  0  0  0  0  0
  -30.7509  -11.3643  -22.5172 O   0  0  0  0  0  0  0  0  0  0  0  0
  -27.8086  -11.8396  -22.3071 O   0  0  0  0  0  0  0  0  0  0  0  0
  -32.8076  -15.2380  -23.0886 O   0  0  0  0  0  0  0  0  0  0  0  0
  -32.4358  -17.3744  -26.6138 O   0  0  0  0  0  0  0  0  0  0  0  0
  -37.6475  -10.4999  -27.1969 O   0  0  0  0  0  0  0  0  0  0  0  0
  -39.9069  -12.1452  -27.2503 O   0  0  0  0  0  0  0  0  0  0  0  0
  -31.2293  -11.3321  -30.1731 H   0  0  0  0  0  0  0  0  0  0  0  0
  -30.2620  -13.2845  -31.5071 H   0  0  0  0  0  0  0  0  0  0  0  0
  -29.2137  -11.8043  -31.4125 H   0  0  0  0  0  0  0  0  0  0  0  0
  -28.9040  -14.3790  -29.8015 H   0  0  0  0  0  0  0  0  0  0  0  0
  -27.8309  -13.7653  -31.1254 H   0  0  0  0  0  0  0  0  0  0  0  0
  -26.9009  -13.3489  -28.8371 H   0  0  0  0  0  0  0  0  0  0  0  0
  -27.1972  -11.8394  -29.7829 H   0  0  0  0  0  0  0  0  0  0  0  0
  -28.9465  -12.9967  -27.5487 H   0  0  0  0  0  0  0  0  0  0  0  0
  -27.9843  -11.4809  -27.5022 H   0  0  0  0  0  0  0  0  0  0  0  0
  -31.4470  -10.2814  -26.4400 H   0  0  0  0  0  0  0  0  0  0  0  0
  -31.1657   -9.0132  -23.6690 H   0  0  0  0  0  0  0  0  0  0  0  0
  -32.4232  -10.1772  -24.2418 H   0  0  0  0  0  0  0  0  0  0  0  0
  -30.7185  -11.9432  -24.4858 H   0  0  0  0  0  0  0  0  0  0  0  0
  -28.8124   -9.8286  -23.4350 H   0  0  0  0  0  0  0  0  0  0  0  0
  -27.0656  -11.5213  -24.1873 H   0  0  0  0  0  0  0  0  0  0  0  0
  -29.3145  -13.4923  -23.6831 H   0  0  0  0  0  0  0  0  0  0  0  0
  -28.5711  -13.0526  -25.3060 H   0  0  0  0  0  0  0  0  0  0  0  0
  -27.5462  -15.0458  -24.8038 H   0  0  0  0  0  0  0  0  0  0  0  0
  -26.4652  -15.3663  -22.4209 H   0  0  0  0  0  0  0  0  0  0  0  0
  -27.6110  -14.0667  -21.9257 H   0  0  0  0  0  0  0  0  0  0  0  0
  -29.9364  -14.4527  -21.6056 H   0  0  0  0  0  0  0  0  0  0  0  0
  -30.6495  -17.4699  -21.8772 H   0  0  0  0  0  0  0  0  0  0  0  0
  -30.4855  -17.0166  -24.6354 H   0  0  0  0  0  0  0  0  0  0  0  0
  -31.9925  -17.9876  -24.3138 H   0  0  0  0  0  0  0  0  0  0  0  0
  -33.2069  -15.9069  -25.3331 H   0  0  0  0  0  0  0  0  0  0  0  0
  -31.3137  -14.4883  -25.4676 H   0  0  0  0  0  0  0  0  0  0  0  0
  -32.3813  -15.1590  -28.2649 H   0  0  0  0  0  0  0  0  0  0  0  0
  -34.6467  -14.9963  -28.4271 H   0  0  0  0  0  0  0  0  0  0  0  0
  -36.1962  -14.1071  -26.0113 H   0  0  0  0  0  0  0  0  0  0  0  0
  -35.4039  -11.8644  -26.7492 H   0  0  0  0  0  0  0  0  0  0  0  0
  -36.0337  -12.1973  -28.4076 H   0  0  0  0  0  0  0  0  0  0  0  0
  -37.6791  -12.0588  -25.8433 H   0  0  0  0  0  0  0  0  0  0  0  0
  -38.5222  -12.3988  -28.7746 H   0  0  0  0  0  0  0  0  0  0  0  0
  -38.7502  -14.3549  -26.4499 H   0  0  0  0  0  0  0  0  0  0  0  0
  -39.2768  -14.6003  -28.1679 H   0  0  0  0  0  0  0  0  0  0  0  0
  -36.9738  -14.5111  -28.9472 H   0  0  0  0  0  0  0  0  0  0  0  0
  -37.0901  -15.7187  -27.6139 H   0  0  0  0  0  0  0  0  0  0  0  0
  -32.1286   -7.6750  -25.2385 H   0  0  0  0  0  0  0  0  0  0  0  0
  -31.1588   -7.5563  -26.7458 H   0  0  0  0  0  0  0  0  0  0  0  0
  -32.7120   -8.4587  -26.7458 H   0  0  0  0  0  0  0  0  0  0  0  0
  -25.4218  -13.5214  -23.3842 H   0  0  0  0  0  0  0  0  0  0  0  0
  -25.3613  -14.4604  -24.9143 H   0  0  0  0  0  0  0  0  0  0  0  0
  -26.0061  -12.7839  -24.9143 H   0  0  0  0  0  0  0  0  0  0  0  0
  -28.1967  -17.9571  -22.2238 H   0  0  0  0  0  0  0  0  0  0  0  0
  -29.1662  -17.5913  -23.6911 H   0  0  0  0  0  0  0  0  0  0  0  0
  -27.3932  -17.3028  -23.6911 H   0  0  0  0  0  0  0  0  0  0  0  0
  -32.7623  -16.6175  -20.7276 H   0  0  0  0  0  0  0  0  0  0  0  0
  -31.2580  -16.3112  -19.7977 H   0  0  0  0  0  0  0  0  0  0  0  0
  -31.4049  -13.8657  -21.2016 H   0  0  0  0  0  0  0  0  0  0  0  0
  -33.5740  -13.0135  -20.1152 H   0  0  0  0  0  0  0  0  0  0  0  0
  -34.0356  -14.8013  -19.6456 H   0  0  0  0  0  0  0  0  0  0  0  0
  -29.4301  -15.9140  -25.9577 H   0  0  0  0  0  0  0  0  0  0  0  0
  -30.2240  -16.5864  -27.4220 H   0  0  0  0  0  0  0  0  0  0  0  0
  -29.6268  -14.8924  -27.4220 H   0  0  0  0  0  0  0  0  0  0  0  0
  -33.4590  -13.4909  -24.8170 H   0  0  0  0  0  0  0  0  0  0  0  0
  -32.5406  -12.3150  -25.8172 H   0  0  0  0  0  0  0  0  0  0  0  0
  -34.3366  -12.2842  -25.8172 H   0  0  0  0  0  0  0  0  0  0  0  0
  -32.2291  -12.1561  -21.3149 H   0  0  0  0  0  0  0  0  0  0  0  0
  -32.7839  -11.4344  -22.8635 H   0  0  0  0  0  0  0  0  0  0  0  0
  -31.9357  -13.0178  -22.8635 H   0  0  0  0  0  0  0  0  0  0  0  0
  -26.3304  -11.7689  -20.8716 H   0  0  0  0  0  0  0  0  0  0  0  0
  -25.9134  -12.6482  -22.3815 H   0  0  0  0  0  0  0  0  0  0  0  0
  -25.9993  -10.8539  -22.3815 H   0  0  0  0  0  0  0  0  0  0  0  0
  -35.8278   -9.6189  -26.7705 H   0  0  0  0  0  0  0  0  0  0  0  0
  -35.8742  -10.6392  -28.2482 H   0  0  0  0  0  0  0  0  0  0  0  0
  -36.6570   -9.0225  -28.2482 H   0  0  0  0  0  0  0  0  0  0  0  0
  -29.0984   -8.2268  -24.4405 H   0  0  0  0  0  0  0  0  0  0  0  0
  -32.5875  -18.2347  -26.1481 H   0  0  0  0  0  0  0  0  0  0  0  0
  -39.9217  -12.1397  -26.2604 H   0  0  0  0  0  0  0  0  0  0  0  0
  1  2  1  0
  1 46  1  0
  1 47  2  0
  2  3  1  0
  2 45  1  0
  3  4  1  0
  4  5  1  0
  5  6  1  0
  6 45  1  0
  7  8  1  0
  7 45  1  0
  7 48  2  0
  8  9  1  0
  8 49  2  0
  9 10  1  0
  9 50  1  0
  9 51  1  1
 10 11  1  0
 10 34  1  0
 11 12  1  0
 12 13  1  0
 12 52  1  0
 13 14  1  0
 13 50  1  0
 14 15  1  0
 14 53  1  0
 15 16  1  0
 16 17  1  0
 16 35  1  0
 17 18  1  0
 18 19  2  3
 18 36  1  0
 19 20  1  0
 20 21  1  0
 20 37  1  0
 21 22  1  0
 21 54  2  0
 22 23  1  0
 23 24  1  0
 23 55  1  0
 24 25  1  0
 24 40  1  0
 25 26  1  0
 25 46  1  0
 26 27  2  3
 26 41  1  0
 28 27  1  0
 28 29  1  0
 28 33  1  0
 29 30  1  0
 30 31  1  0
 30 56  1  0
 31 32  1  0
 31 57  1  0
 32 33  1  0
 37 38  1  0
 38 39  2  0
 42 52  1  0
 43 53  1  0
 44 56  1  0
  2 58  1  6
  3 59  1  0
  3 60  1  0
  4 61  1  0
  4 62  1  0
  5 63  1  0
  5 64  1  0
  6 65  1  0
  6 66  1  0
 10 67  1  6
 11 68  1  0
 11 69  1  0
 12 70  1  6
 13 71  1  1
 14 72  1  6
 15 73  1  0
 15 74  1  0
 16 75  1  6
 17 76  1  0
 17 77  1  0
 19 78  1  0
 20 79  1  1
 22 80  1  0
 22 81  1  0
 23 82  1  1
 24 83  1  1
 25 84  1  6
 27 85  1  0
 28 86  1  1
 29 87  1  0
 29 88  1  0
 30 89  1  1
 31 90  1  6
 32 91  1  0
 32 92  1  0
 33 93  1  0
 33 94  1  0
 34 95  1  0
 34 96  1  0
 34 97  1  0
 35 98  1  0
 35 99  1  0
 35100  1  0
 36101  1  0
 36102  1  0
 36103  1  0
 37104  1  0
 37105  1  0
 38106  1  0
 39107  1  0
 39108  1  0
 40109  1  0
 40110  1  0
 40111  1  0
 41112  1  0
 41113  1  0
 41114  1  0
 42115  1  0
 42116  1  0
 42117  1  0
 43118  1  0
 43119  1  0
 43120  1  0
 44121  1  0
 44122  1  0
 44123  1  0
 51124  1  0
 55125  1  0
 57126  1  0
M  END
>  <filename_input>  (23) 
7U0U_FK5_docked.sdf

>  <pdb_id>  (23) 
7U0U_FK5

>  <pose_rank>  (23) 
22

>  <num_atoms_heavy>  (23) 
57

>  <num_torsions>  (23) 
7

>  <pose>  (23) 
[-31.31838066026916, -13.184858104585304, -29.111295547055988, -2.2374379324339397, 4.268779282067141, 0.11240639265444288, -0.14812406261971078, -1.3926571839871118, 1.2469922475123654, -0.18052260770259504, -0.7712754243087794, 1.8875393400773357, 4.552214360745783]

>  <energy>  (23) 
-403.6894506167606

>  <inter_energy>  (23) 
-496.0031073218112

>  <intra_energy>  (23) 
101.65223678309368

>  <rmsd>  (23) 
6.05279

>  <sdf_rank>  (23) 
0

$$$$

     RDKit          3D

126129  0  0  0  0  0  0  0  0999 V2000
  -28.4611  -16.7715  -25.9448 C   0  0  0  0  0  0  0  0  0  0  0  0
  -27.4911  -16.2216  -26.9496 C   0  0  2  0  0  0  0  0  0  0  0  0
  -26.0669  -16.6275  -26.5514 C   0  0  0  0  0  0  0  0  0  0  0  0
  -25.5847  -15.8876  -25.2973 C   0  0  0  0  0  0  0  0  0  0  0  0
  -25.7079  -14.3683  -25.4600 C   0  0  0  0  0  0  0  0  0  0  0  0
  -27.1474  -13.9749  -25.8195 C   0  0  0  0  0  0  0  0  0  0  0  0
  -28.0537  -14.1686  -28.0949 C   0  0  0  0  0  0  0  0  0  0  0  0
  -28.1514  -12.7935  -28.2553 C   0  0  0  0  0  0  0  0  0  0  0  0
  -29.4230  -12.0358  -27.8946 C   0  0  1  0  0  0  0  0  0  0  0  0
  -30.6798  -12.8801  -28.1330 C   0  0  1  0  0  0  0  0  0  0  0  0
  -31.8770  -12.2816  -27.3863 C   0  0  0  0  0  0  0  0  0  0  0  0
  -31.5019  -11.9387  -25.9378 C   0  0  1  0  0  0  0  0  0  0  0  0
  -30.3030  -10.9931  -25.9359 C   0  0  1  0  0  0  0  0  0  0  0  0
  -29.7995  -10.5752  -24.5437 C   0  0  2  0  0  0  0  0  0  0  0  0
  -29.6897  -11.7503  -23.5762 C   0  0  0  0  0  0  0  0  0  0  0  0
  -28.9886  -11.4320  -22.2465 C   0  0  2  0  0  0  0  0  0  0  0  0
  -29.9887  -10.8197  -21.2551 C   0  0  0  0  0  0  0  0  0  0  0  0
  -30.8214  -11.9018  -20.6205 C   0  0  0  0  0  0  0  0  0  0  0  0
  -32.1664  -12.1631  -21.1430 C   0  0  0  0  0  0  0  0  0  0  0  0
  -33.0291  -13.2565  -20.5741 C   0  0  2  0  0  0  0  0  0  0  0  0
  -32.8010  -14.4866  -21.3962 C   0  0  0  0  0  0  0  0  0  0  0  0
  -31.7198  -15.4961  -21.0482 C   0  0  0  0  0  0  0  0  0  0  0  0
  -31.4082  -16.4523  -22.2022 C   0  0  1  0  0  0  0  0  0  0  0  0
  -30.4213  -15.8688  -23.2288 C   0  0  2  0  0  0  0  0  0  0  0  0
  -30.1869  -16.7550  -24.4561 C   0  0  1  0  0  0  0  0  0  0  0  0
  -31.5021  -17.0017  -25.1564 C   0  0  0  0  0  0  0  0  0  0  0  0
  -32.1014  -15.9129  -25.9139 C   0  0  0  0  0  0  0  0  0  0  0  0
  -33.3604  -16.0667  -26.7162 C   0  0  1  0  0  0  0  0  0  0  0  0
  -34.2986  -14.9275  -26.3195 C   0  0  0  0  0  0  0  0  0  0  0  0
  -35.5869  -14.9857  -27.1314 C   0  0  2  0  0  0  0  0  0  0  0  0
  -35.2764  -14.8909  -28.6270 C   0  0  1  0  0  0  0  0  0  0  0  0
  -34.3110  -15.9935  -29.0578 C   0  0  0  0  0  0  0  0  0  0  0  0
  -33.0211  -15.9840  -28.2159 C   0  0  0  0  0  0  0  0  0  0  0  0
  -31.0035  -13.0541  -29.6236 C   0  0  0  0  0  0  0  0  0  0  0  0
  -27.7885  -10.4953  -22.4482 C   0  0  0  0  0  0  0  0  0  0  0  0
  -30.2711  -12.6757  -19.4547 C   0  0  0  0  0  0  0  0  0  0  0  0
  -34.4853  -12.8260  -20.7292 C   0  0  0  0  0  0  0  0  0  0  0  0
  -35.0867  -12.5911  -19.3569 C   0  0  0  0  0  0  0  0  0  0  0  0
  -35.4749  -11.2333  -18.9852 C   0  0  0  0  0  0  0  0  0  0  0  0
  -29.0622  -15.5522  -22.5972 C   0  0  0  0  0  0  0  0  0  0  0  0
  -32.1470  -18.3656  -25.0677 C   0  0  0  0  0  0  0  0  0  0  0  0
  -33.3714  -12.3264  -24.5905 C   0  0  0  0  0  0  0  0  0  0  0  0
  -31.9185  -10.0036  -23.7231 C   0  0  0  0  0  0  0  0  0  0  0  0
  -35.9055  -12.6352  -27.1490 C   0  0  0  0  0  0  0  0  0  0  0  0
  -27.5919  -14.7569  -26.9808 N   0  0  0  0  0  0  0  0  0  0  0  0
  -29.3071  -16.0462  -25.3259 O   0  0  0  0  0  0  0  0  0  0  0  0
  -28.4063  -18.1291  -25.7372 O   0  0  0  0  0  0  0  0  0  0  0  0
  -28.4622  -14.9611  -29.1472 O   0  0  0  0  0  0  0  0  0  0  0  0
  -27.0674  -12.0703  -28.7410 O   0  0  0  0  0  0  0  0  0  0  0  0
  -29.2407  -11.6995  -26.5385 O   0  0  0  0  0  0  0  0  0  0  0  0
  -29.4981  -10.8320  -28.6844 O   0  0  0  0  0  0  0  0  0  0  0  0
  -32.6159  -11.3477  -25.2832 O   0  0  0  0  0  0  0  0  0  0  0  0
  -30.6019   -9.5588  -23.9905 O   0  0  0  0  0  0  0  0  0  0  0  0
  -33.6054  -14.6534  -22.5163 O   0  0  0  0  0  0  0  0  0  0  0  0
  -30.8571  -17.6197  -21.6346 O   0  0  0  0  0  0  0  0  0  0  0  0
  -36.4197  -13.9066  -26.7793 O   0  0  0  0  0  0  0  0  0  0  0  0
  -36.4916  -15.0046  -29.3491 O   0  0  0  0  0  0  0  0  0  0  0  0
  -27.7258  -16.6237  -27.9462 H   0  0  0  0  0  0  0  0  0  0  0  0
  -26.0488  -17.7094  -26.3537 H   0  0  0  0  0  0  0  0  0  0  0  0
  -25.3949  -16.3616  -27.3806 H   0  0  0  0  0  0  0  0  0  0  0  0
  -26.1936  -16.2057  -24.4382 H   0  0  0  0  0  0  0  0  0  0  0  0
  -24.5244  -16.1330  -25.1378 H   0  0  0  0  0  0  0  0  0  0  0  0
  -25.4256  -13.8802  -24.5155 H   0  0  0  0  0  0  0  0  0  0  0  0
  -25.0401  -14.0447  -26.2719 H   0  0  0  0  0  0  0  0  0  0  0  0
  -27.8083  -14.1800  -24.9644 H   0  0  0  0  0  0  0  0  0  0  0  0
  -27.1853  -12.9028  -26.0626 H   0  0  0  0  0  0  0  0  0  0  0  0
  -30.4712  -13.8842  -27.7351 H   0  0  0  0  0  0  0  0  0  0  0  0
  -32.2013  -11.3652  -27.9011 H   0  0  0  0  0  0  0  0  0  0  0  0
  -32.6899  -13.0225  -27.3734 H   0  0  0  0  0  0  0  0  0  0  0  0
  -31.2274  -12.8548  -25.3942 H   0  0  0  0  0  0  0  0  0  0  0  0
  -30.6223  -10.0755  -26.4516 H   0  0  0  0  0  0  0  0  0  0  0  0
  -28.7834  -10.1814  -24.6937 H   0  0  0  0  0  0  0  0  0  0  0  0
  -30.7069  -12.1026  -23.3500 H   0  0  0  0  0  0  0  0  0  0  0  0
  -29.0681  -12.5060  -24.0788 H   0  0  0  0  0  0  0  0  0  0  0  0
  -28.6046  -12.3762  -21.8329 H   0  0  0  0  0  0  0  0  0  0  0  0
  -29.4382  -10.2783  -20.4716 H   0  0  0  0  0  0  0  0  0  0  0  0
  -30.6513  -10.1276  -21.7955 H   0  0  0  0  0  0  0  0  0  0  0  0
  -32.5526  -11.5468  -21.9682 H   0  0  0  0  0  0  0  0  0  0  0  0
  -32.7946  -13.4487  -19.5167 H   0  0  0  0  0  0  0  0  0  0  0  0
  -30.8012  -14.9510  -20.7855 H   0  0  0  0  0  0  0  0  0  0  0  0
  -32.0896  -16.1011  -20.2072 H   0  0  0  0  0  0  0  0  0  0  0  0
  -32.3399  -16.6502  -22.7525 H   0  0  0  0  0  0  0  0  0  0  0  0
  -30.9118  -14.9456  -23.5709 H   0  0  0  0  0  0  0  0  0  0  0  0
  -29.7547  -17.7242  -24.1665 H   0  0  0  0  0  0  0  0  0  0  0  0
  -31.6077  -14.9301  -25.8976 H   0  0  0  0  0  0  0  0  0  0  0  0
  -33.8399  -17.0375  -26.5227 H   0  0  0  0  0  0  0  0  0  0  0  0
  -34.5411  -15.0149  -25.2501 H   0  0  0  0  0  0  0  0  0  0  0  0
  -33.7968  -13.9692  -26.5190 H   0  0  0  0  0  0  0  0  0  0  0  0
  -36.0900  -15.9402  -26.9174 H   0  0  0  0  0  0  0  0  0  0  0  0
  -34.7971  -13.9230  -28.8354 H   0  0  0  0  0  0  0  0  0  0  0  0
  -34.8071  -16.9680  -28.9386 H   0  0  0  0  0  0  0  0  0  0  0  0
  -34.0357  -15.8164  -30.1080 H   0  0  0  0  0  0  0  0  0  0  0  0
  -32.4668  -15.0543  -28.4118 H   0  0  0  0  0  0  0  0  0  0  0  0
  -32.4074  -16.8542  -28.4922 H   0  0  0  0  0  0  0  0  0  0  0  0
  -31.9678  -13.5723  -29.7313 H   0  0  0  0  0  0  0  0  0  0  0  0
  -31.0625  -12.0662  -30.1037 H   0  0  0  0  0  0  0  0  0  0  0  0
  -30.2122  -13.6485  -30.1037 H   0  0  0  0  0  0  0  0  0  0  0  0
  -27.3946  -10.1879  -21.4682 H   0  0  0  0  0  0  0  0  0  0  0  0
  -27.0030  -11.0216  -23.0104 H   0  0  0  0  0  0  0  0  0  0  0  0
  -28.1082   -9.6055  -23.0104 H   0  0  0  0  0  0  0  0  0  0  0  0
  -30.6029  -12.2091  -18.5155 H   0  0  0  0  0  0  0  0  0  0  0  0
  -30.6360  -13.7125  -19.4979 H   0  0  0  0  0  0  0  0  0  0  0  0
  -29.1720  -12.6716  -19.4979 H   0  0  0  0  0  0  0  0  0  0  0  0
  -34.5335  -11.8966  -21.3157 H   0  0  0  0  0  0  0  0  0  0  0  0
  -35.0496  -13.6143  -21.2491 H   0  0  0  0  0  0  0  0  0  0  0  0
  -35.2276  -13.4267  -18.6556 H   0  0  0  0  0  0  0  0  0  0  0  0
  -35.9131  -11.0381  -17.9953 H   0  0  0  0  0  0  0  0  0  0  0  0
  -35.3290  -10.4058  -19.6951 H   0  0  0  0  0  0  0  0  0  0  0  0
  -29.1534  -15.5734  -21.5012 H   0  0  0  0  0  0  0  0  0  0  0  0
  -28.3248  -16.3026  -22.9184 H   0  0  0  0  0  0  0  0  0  0  0  0
  -28.7324  -14.5531  -22.9184 H   0  0  0  0  0  0  0  0  0  0  0  0
  -32.2775  -18.6414  -24.0108 H   0  0  0  0  0  0  0  0  0  0  0  0
  -33.1284  -18.3400  -25.5638 H   0  0  0  0  0  0  0  0  0  0  0  0
  -31.5046  -19.1079  -25.5638 H   0  0  0  0  0  0  0  0  0  0  0  0
  -33.2571  -12.1784  -23.5065 H   0  0  0  0  0  0  0  0  0  0  0  0
  -34.4327  -12.2315  -24.8636 H   0  0  0  0  0  0  0  0  0  0  0  0
  -33.0107  -13.3291  -24.8636 H   0  0  0  0  0  0  0  0  0  0  0  0
  -32.0740  -10.0561  -22.6354 H   0  0  0  0  0  0  0  0  0  0  0  0
  -32.6399   -9.2993  -24.1631 H   0  0  0  0  0  0  0  0  0  0  0  0
  -32.0650  -11.0011  -24.1631 H   0  0  0  0  0  0  0  0  0  0  0  0
  -35.6716  -12.0567  -26.2431 H   0  0  0  0  0  0  0  0  0  0  0  0
  -34.9907  -12.7689  -27.7452 H   0  0  0  0  0  0  0  0  0  0  0  0
  -36.6560  -12.0954  -27.7452 H   0  0  0  0  0  0  0  0  0  0  0  0
  -29.5471  -10.0462  -28.0843 H   0  0  0  0  0  0  0  0  0  0  0  0
  -30.8885  -17.5531  -20.6474 H   0  0  0  0  0  0  0  0  0  0  0  0
  -37.2476  -15.0753  -28.7138 H   0  0  0  0  0  0  0  0  0  0  0  0
  1  2  1  0
  1 46  1  0
  1 47  2  0
  2  3  1  0
  2 45  1  0
  3  4  1  0
  4  5  1  0
  5  6  1  0
  6 45  1  0
  7  8  1  0
  7 45  1  0
  7 48  2  0
  8  9  1  0
  8 49  2  0
  9 10  1  0
  9 50  1  0
  9 51  1  6
 10 11  1  0
 10 34  1  0
 11 12  1  0
 12 13  1  0
 12 52  1  0
 13 14  1  0
 13 50  1  0
 14 15  1  0
 14 53  1  0
 15 16  1  0
 16 17  1  0
 16 35  1  0
 17 18  1  0
 18 19  2  3
 18 36  1  0
 19 20  1  0
 20 21  1  0
 20 37  1  0
 21 22  1  0
 21 54  2  0
 22 23  1  0
 23 24  1  0
 23 55  1  0
 24 25  1  0
 24 40  1  0
 25 26  1  0
 25 46  1  0
 26 27  2  3
 26 41  1  0
 28 27  1  0
 28 29  1  0
 28 33  1  0
 29 30  1  0
 30 31  1  0
 30 56  1  0
 31 32  1  0
 31 57  1  0
 32 33  1  0
 37 38  1  0
 38 39  2  0
 42 52  1  0
 43 53  1  0
 44 56  1  0
  2 58  1  6
  3 59  1  0
  3 60  1  0
  4 61  1  0
  4 62  1  0
  5 63  1  0
  5 64  1  0
  6 65  1  0
  6 66  1  0
 10 67  1  1
 11 68  1  0
 11 69  1  0
 12 70  1  1
 13 71  1  6
 14 72  1  6
 15 73  1  0
 15 74  1  0
 16 75  1  1
 17 76  1  0
 17 77  1  0
 19 78  1  0
 20 79  1  1
 22 80  1  0
 22 81  1  0
 23 82  1  6
 24 83  1  6
 25 84  1  1
 27 85  1  0
 28 86  1  6
 29 87  1  0
 29 88  1  0
 30 89  1  6
 31 90  1  1
 32 91  1  0
 32 92  1  0
 33 93  1  0
 33 94  1  0
 34 95  1  0
 34 96  1  0
 34 97  1  0
 35 98  1  0
 35 99  1  0
 35100  1  0
 36101  1  0
 36102  1  0
 36103  1  0
 37104  1  0
 37105  1  0
 38106  1  0
 39107  1  0
 39108  1  0
 40109  1  0
 40110  1  0
 40111  1  0
 41112  1  0
 41113  1  0
 41114  1  0
 42115  1  0
 42116  1  0
 42117  1  0
 43118  1  0
 43119  1  0
 43120  1  0
 44121  1  0
 44122  1  0
 44123  1  0
 51124  1  0
 55125  1  0
 57126  1  0
M  END
>  <filename_input>  (24) 
7U0U_FK5_docked.sdf

>  <pdb_id>  (24) 
7U0U_FK5

>  <pose_rank>  (24) 
23

>  <num_atoms_heavy>  (24) 
57

>  <num_torsions>  (24) 
7

>  <pose>  (24) 
[-28.461057851347498, -16.771498975774918, -25.944842199290182, -0.023355058405172574, 3.327588934549021, -2.7837617182128094, -3.0396562357461296, 5.989482406408187, 2.524041344345481, 0.15390664824352818, -3.688165923679934, -0.9719847846651636, -2.3743330025598923]

>  <energy>  (24) 
-478.31411755285734

>  <inter_energy>  (24) 
-625.8586450989303

>  <intra_energy>  (24) 
146.469251751101

>  <rmsd>  (24) 
6.94561

>  <sdf_rank>  (24) 
0

$$$$

     RDKit          3D

126129  0  0  0  0  0  0  0  0999 V2000
  -28.8566  -17.8396  -23.4515 C   0  0  0  0  0  0  0  0  0  0  0  0
  -29.9257  -18.3360  -22.5223 C   0  0  2  0  0  0  0  0  0  0  0  0
  -30.2976  -19.7742  -22.9028 C   0  0  0  0  0  0  0  0  0  0  0  0
  -31.0608  -19.8413  -24.2315 C   0  0  0  0  0  0  0  0  0  0  0  0
  -32.2938  -18.9305  -24.2171 C   0  0  0  0  0  0  0  0  0  0  0  0
  -31.8996  -17.4873  -23.8736 C   0  0  0  0  0  0  0  0  0  0  0  0
  -31.4683  -16.7340  -21.5751 C   0  0  0  0  0  0  0  0  0  0  0  0
  -32.5927  -15.9209  -21.5492 C   0  0  0  0  0  0  0  0  0  0  0  0
  -32.5283  -14.4555  -21.9611 C   0  0  1  0  0  0  0  0  0  0  0  0
  -31.1742  -13.8238  -21.6195 C   0  0  1  0  0  0  0  0  0  0  0  0
  -30.9788  -12.5199  -22.4010 C   0  0  0  0  0  0  0  0  0  0  0  0
  -31.3323  -12.7124  -23.8825 C   0  0  1  0  0  0  0  0  0  0  0  0
  -32.7632  -13.2327  -23.9976 C   0  0  1  0  0  0  0  0  0  0  0  0
  -33.2530  -13.4926  -25.4325 C   0  0  2  0  0  0  0  0  0  0  0  0
  -32.2292  -14.2411  -26.2815 C   0  0  0  0  0  0  0  0  0  0  0  0
  -32.7449  -14.7188  -27.6477 C   0  0  2  0  0  0  0  0  0  0  0  0
  -32.6426  -13.5843  -28.6774 C   0  0  0  0  0  0  0  0  0  0  0  0
  -31.2308  -13.4708  -29.1884 C   0  0  0  0  0  0  0  0  0  0  0  0
  -30.3488  -12.4465  -28.6199 C   0  0  0  0  0  0  0  0  0  0  0  0
  -28.9177  -12.3109  -29.0638 C   0  0  2  0  0  0  0  0  0  0  0  0
  -28.0754  -13.1215  -28.1286 C   0  0  0  0  0  0  0  0  0  0  0  0
  -27.7612  -14.5844  -28.3939 C   0  0  0  0  0  0  0  0  0  0  0  0
  -27.2250  -15.3092  -27.1568 C   0  0  1  0  0  0  0  0  0  0  0  0
  -28.3333  -15.8015  -26.2095 C   0  0  2  0  0  0  0  0  0  0  0  0
  -27.8222  -16.4211  -24.9052 C   0  0  1  0  0  0  0  0  0  0  0  0
  -26.9847  -15.4077  -24.1618 C   0  0  0  0  0  0  0  0  0  0  0  0
  -26.2927  -14.3815  -24.9277 C   0  0  0  0  0  0  0  0  0  0  0  0
  -25.5016  -13.2760  -24.2918 C   0  0  1  0  0  0  0  0  0  0  0  0
  -26.3269  -12.7343  -23.1253 C   0  0  0  0  0  0  0  0  0  0  0  0
  -25.5655  -11.6354  -22.3937 C   0  0  2  0  0  0  0  0  0  0  0  0
  -24.2329  -12.1732  -21.8672 C   0  0  1  0  0  0  0  0  0  0  0  0
  -23.3911  -12.7575  -23.0000 C   0  0  0  0  0  0  0  0  0  0  0  0
  -24.1603  -13.8370  -23.7848 C   0  0  0  0  0  0  0  0  0  0  0  0
  -30.9943  -13.5844  -20.1138 C   0  0  0  0  0  0  0  0  0  0  0  0
  -34.1878  -15.2373  -27.5596 C   0  0  0  0  0  0  0  0  0  0  0  0
  -30.7599  -14.3894  -30.2814 C   0  0  0  0  0  0  0  0  0  0  0  0
  -28.5271  -10.8416  -28.9271 C   0  0  0  0  0  0  0  0  0  0  0  0
  -27.6325  -10.4515  -30.0879 C   0  0  0  0  0  0  0  0  0  0  0  0
  -26.9301  -11.5046  -30.8158 C   0  0  0  0  0  0  0  0  0  0  0  0
  -29.2594  -16.8128  -26.8922 C   0  0  0  0  0  0  0  0  0  0  0  0
  -26.9018  -15.4743  -22.6543 C   0  0  0  0  0  0  0  0  0  0  0  0
  -29.8601  -10.9875  -24.4462 C   0  0  0  0  0  0  0  0  0  0  0  0
  -32.5220  -11.5082  -26.4416 C   0  0  0  0  0  0  0  0  0  0  0  0
  -27.7281  -11.2001  -21.5218 C   0  0  0  0  0  0  0  0  0  0  0  0
  -31.1121  -17.4779  -22.6336 N   0  0  0  0  0  0  0  0  0  0  0  0
  -28.9654  -16.7623  -24.1244 O   0  0  0  0  0  0  0  0  0  0  0  0
  -27.7199  -18.6088  -23.5255 O   0  0  0  0  0  0  0  0  0  0  0  0
  -30.6809  -16.7648  -20.4432 O   0  0  0  0  0  0  0  0  0  0  0  0
  -33.8203  -16.4424  -21.1554 O   0  0  0  0  0  0  0  0  0  0  0  0
  -32.7830  -14.4843  -23.3466 O   0  0  0  0  0  0  0  0  0  0  0  0
  -33.5781  -13.7282  -21.2924 O   0  0  0  0  0  0  0  0  0  0  0  0
  -31.1830  -11.4797  -24.5730 O   0  0  0  0  0  0  0  0  0  0  0  0
  -33.6368  -12.2967  -26.0694 O   0  0  0  0  0  0  0  0  0  0  0  0
  -27.6136  -12.4840  -26.9840 O   0  0  0  0  0  0  0  0  0  0  0  0
  -26.4775  -16.4133  -27.6161 O   0  0  0  0  0  0  0  0  0  0  0  0
  -26.3252  -11.1777  -21.3005 O   0  0  0  0  0  0  0  0  0  0  0  0
  -23.5312  -11.1102  -21.2436 O   0  0  0  0  0  0  0  0  0  0  0  0
  -29.5545  -18.3110  -21.4871 H   0  0  0  0  0  0  0  0  0  0  0  0
  -29.3753  -20.3668  -22.9934 H   0  0  0  0  0  0  0  0  0  0  0  0
  -30.9534  -20.1738  -22.1152 H   0  0  0  0  0  0  0  0  0  0  0  0
  -30.3915  -19.5240  -25.0447 H   0  0  0  0  0  0  0  0  0  0  0  0
  -31.3983  -20.8770  -24.3841 H   0  0  0  0  0  0  0  0  0  0  0  0
  -32.7675  -18.9487  -25.2096 H   0  0  0  0  0  0  0  0  0  0  0  0
  -32.9945  -19.2968  -23.4523 H   0  0  0  0  0  0  0  0  0  0  0  0
  -31.2986  -17.0662  -24.6930 H   0  0  0  0  0  0  0  0  0  0  0  0
  -32.8074  -16.8814  -23.7366 H   0  0  0  0  0  0  0  0  0  0  0  0
  -30.3996  -14.5447  -21.9202 H   0  0  0  0  0  0  0  0  0  0  0  0
  -31.6292  -11.7426  -21.9734 H   0  0  0  0  0  0  0  0  0  0  0  0
  -29.9231  -12.2202  -22.3272 H   0  0  0  0  0  0  0  0  0  0  0  0
  -30.6533  -13.4484  -24.3378 H   0  0  0  0  0  0  0  0  0  0  0  0
  -33.4173  -12.4590  -23.5694 H   0  0  0  0  0  0  0  0  0  0  0  0
  -34.1356  -14.1425  -25.3393 H   0  0  0  0  0  0  0  0  0  0  0  0
  -31.3740  -13.5712  -26.4546 H   0  0  0  0  0  0  0  0  0  0  0  0
  -31.9656  -15.1480  -25.7176 H   0  0  0  0  0  0  0  0  0  0  0  0
  -32.1121  -15.5577  -27.9728 H   0  0  0  0  0  0  0  0  0  0  0  0
  -33.3177  -13.7962  -29.5196 H   0  0  0  0  0  0  0  0  0  0  0  0
  -32.9273  -12.6368  -28.1966 H   0  0  0  0  0  0  0  0  0  0  0  0
  -30.7417  -11.7629  -27.8529 H   0  0  0  0  0  0  0  0  0  0  0  0
  -28.7813  -12.6511  -30.1010 H   0  0  0  0  0  0  0  0  0  0  0  0
  -28.6819  -15.0874  -28.7245 H   0  0  0  0  0  0  0  0  0  0  0  0
  -26.9774  -14.6205  -29.1649 H   0  0  0  0  0  0  0  0  0  0  0  0
  -26.6172  -14.6014  -26.5740 H   0  0  0  0  0  0  0  0  0  0  0  0
  -28.8857  -14.8859  -25.9517 H   0  0  0  0  0  0  0  0  0  0  0  0
  -27.2051  -17.3095  -25.1053 H   0  0  0  0  0  0  0  0  0  0  0  0
  -26.3525  -14.4181  -26.0255 H   0  0  0  0  0  0  0  0  0  0  0  0
  -25.2905  -12.4720  -25.0123 H   0  0  0  0  0  0  0  0  0  0  0  0
  -27.2719  -12.3241  -23.5109 H   0  0  0  0  0  0  0  0  0  0  0  0
  -26.5273  -13.5555  -22.4215 H   0  0  0  0  0  0  0  0  0  0  0  0
  -25.3798  -10.8122  -23.0993 H   0  0  0  0  0  0  0  0  0  0  0  0
  -24.4293  -12.9780  -21.1436 H   0  0  0  0  0  0  0  0  0  0  0  0
  -23.1105  -11.9478  -23.6896 H   0  0  0  0  0  0  0  0  0  0  0  0
  -22.4996  -13.2259  -22.5575 H   0  0  0  0  0  0  0  0  0  0  0  0
  -24.3525  -14.6967  -23.1259 H   0  0  0  0  0  0  0  0  0  0  0  0
  -23.5549  -14.1512  -24.6478 H   0  0  0  0  0  0  0  0  0  0  0  0
  -31.5624  -14.3404  -19.5519 H   0  0  0  0  0  0  0  0  0  0  0  0
  -29.9278  -13.6603  -19.8553 H   0  0  0  0  0  0  0  0  0  0  0  0
  -31.3638  -12.5811  -19.8553 H   0  0  0  0  0  0  0  0  0  0  0  0
  -34.4763  -15.3410  -26.5032 H   0  0  0  0  0  0  0  0  0  0  0  0
  -34.8640  -14.5259  -28.0562 H   0  0  0  0  0  0  0  0  0  0  0  0
  -34.2566  -16.2164  -28.0562 H   0  0  0  0  0  0  0  0  0  0  0  0
  -30.3010  -15.2844  -29.8359 H   0  0  0  0  0  0  0  0  0  0  0  0
  -31.6162  -14.6877  -30.9041 H   0  0  0  0  0  0  0  0  0  0  0  0
  -30.0177  -13.8683  -30.9041 H   0  0  0  0  0  0  0  0  0  0  0  0
  -29.4333  -10.2181  -28.9357 H   0  0  0  0  0  0  0  0  0  0  0  0
  -27.9893  -10.6896  -27.9796 H   0  0  0  0  0  0  0  0  0  0  0  0
  -27.5150   -9.3964  -30.3757 H   0  0  0  0  0  0  0  0  0  0  0  0
  -26.2756  -11.2463  -31.6614 H   0  0  0  0  0  0  0  0  0  0  0  0
  -27.0555  -12.5563  -30.5187 H   0  0  0  0  0  0  0  0  0  0  0  0
  -29.7933  -17.3957  -26.1272 H   0  0  0  0  0  0  0  0  0  0  0  0
  -29.9874  -16.2778  -27.5198 H   0  0  0  0  0  0  0  0  0  0  0  0
  -28.6627  -17.4910  -27.5198 H   0  0  0  0  0  0  0  0  0  0  0  0
  -27.6879  -14.8422  -22.2156 H   0  0  0  0  0  0  0  0  0  0  0  0
  -27.0415  -16.5146  -22.3250 H   0  0  0  0  0  0  0  0  0  0  0  0
  -25.9158  -15.1148  -22.3250 H   0  0  0  0  0  0  0  0  0  0  0  0
  -29.6048  -10.8926  -23.3805 H   0  0  0  0  0  0  0  0  0  0  0  0
  -29.1612  -11.6858  -24.9299 H   0  0  0  0  0  0  0  0  0  0  0  0
  -29.7874  -10.0022  -24.9299 H   0  0  0  0  0  0  0  0  0  0  0  0
  -32.0105  -11.1465  -25.5374 H   0  0  0  0  0  0  0  0  0  0  0  0
  -31.8259  -12.1160  -27.0383 H   0  0  0  0  0  0  0  0  0  0  0  0
  -32.8632  -10.6495  -27.0383 H   0  0  0  0  0  0  0  0  0  0  0  0
  -28.2518  -11.2084  -20.5546 H   0  0  0  0  0  0  0  0  0  0  0  0
  -28.0237  -10.3065  -22.0912 H   0  0  0  0  0  0  0  0  0  0  0  0
  -27.9951  -12.1026  -22.0912 H   0  0  0  0  0  0  0  0  0  0  0  0
  -33.4626  -13.8083  -20.3125 H   0  0  0  0  0  0  0  0  0  0  0  0
  -26.1322  -16.9234  -26.8411 H   0  0  0  0  0  0  0  0  0  0  0  0
  -23.5940  -11.2055  -20.2602 H   0  0  0  0  0  0  0  0  0  0  0  0
  1  2  1  0
  1 46  1  0
  1 47  2  0
  2  3  1  0
  2 45  1  0
  3  4  1  0
  4  5  1  0
  5  6  1  0
  6 45  1  0
  7  8  1  0
  7 45  1  0
  7 48  2  0
  8  9  1  0
  8 49  2  0
  9 10  1  0
  9 50  1  0
  9 51  1  1
 10 11  1  0
 10 34  1  0
 11 12  1  0
 12 13  1  0
 12 52  1  0
 13 14  1  0
 13 50  1  0
 14 15  1  0
 14 53  1  0
 15 16  1  0
 16 17  1  0
 16 35  1  0
 17 18  1  0
 18 19  2  3
 18 36  1  0
 19 20  1  0
 20 21  1  0
 20 37  1  0
 21 22  1  0
 21 54  2  0
 22 23  1  0
 23 24  1  0
 23 55  1  0
 24 25  1  0
 24 40  1  0
 25 26  1  0
 25 46  1  0
 26 27  2  3
 26 41  1  0
 28 27  1  0
 28 29  1  0
 28 33  1  0
 29 30  1  0
 30 31  1  0
 30 56  1  0
 31 32  1  0
 31 57  1  0
 32 33  1  0
 37 38  1  0
 38 39  2  0
 42 52  1  0
 43 53  1  0
 44 56  1  0
  2 58  1  1
  3 59  1  0
  3 60  1  0
  4 61  1  0
  4 62  1  0
  5 63  1  0
  5 64  1  0
  6 65  1  0
  6 66  1  0
 10 67  1  6
 11 68  1  0
 11 69  1  0
 12 70  1  6
 13 71  1  1
 14 72  1  1
 15 73  1  0
 15 74  1  0
 16 75  1  6
 17 76  1  0
 17 77  1  0
 19 78  1  0
 20 79  1  6
 22 80  1  0
 22 81  1  0
 23 82  1  1
 24 83  1  1
 25 84  1  6
 27 85  1  0
 28 86  1  6
 29 87  1  0
 29 88  1  0
 30 89  1  6
 31 90  1  1
 32 91  1  0
 32 92  1  0
 33 93  1  0
 33 94  1  0
 34 95  1  0
 34 96  1  0
 34 97  1  0
 35 98  1  0
 35 99  1  0
 35100  1  0
 36101  1  0
 36102  1  0
 36103  1  0
 37104  1  0
 37105  1  0
 38106  1  0
 39107  1  0
 39108  1  0
 40109  1  0
 40110  1  0
 40111  1  0
 41112  1  0
 41113  1  0
 41114  1  0
 42115  1  0
 42116  1  0
 42117  1  0
 43118  1  0
 43119  1  0
 43120  1  0
 44121  1  0
 44122  1  0
 44123  1  0
 51124  1  0
 55125  1  0
 57126  1  0
M  END
>  <filename_input>  (25) 
7U0U_FK5_docked.sdf

>  <pdb_id>  (25) 
7U0U_FK5

>  <pose_rank>  (25) 
24

>  <num_atoms_heavy>  (25) 
57

>  <num_torsions>  (25) 
7

>  <pose>  (25) 
[-28.856613627889985, -17.83956231753088, -23.451495288247482, -0.9054665570570373, -3.9976786721515962, -1.6348996897279138, 1.4804750507940347, 2.9525680539267083, 0.7734558313432293, -0.4668876391702986, -3.5405711803291253, -1.4738466906617758, 1.5625272994224304]

>  <energy>  (25) 
-368.9135546262063

>  <inter_energy>  (25) 
-581.7270955452955

>  <intra_energy>  (25) 
212.69272981495757

>  <rmsd>  (25) 
7.20521

>  <sdf_rank>  (25) 
0

$$$$

     RDKit          3D

126129  0  0  0  0  0  0  0  0999 V2000
  -34.5660  -14.5730  -25.4690 C   0  0  0  0  0  0  0  0  0  0  0  0
  -35.3170  -14.2470  -26.7270 C   0  0  2  0  0  0  0  0  0  0  0  0
  -35.7910  -15.5490  -27.3840 C   0  0  0  0  0  0  0  0  0  0  0  0
  -34.6280  -16.3520  -27.9800 C   0  0  0  0  0  0  0  0  0  0  0  0
  -33.8010  -15.5040  -28.9530 C   0  0  0  0  0  0  0  0  0  0  0  0
  -33.3010  -14.2240  -28.2690 C   0  0  0  0  0  0  0  0  0  0  0  0
  -34.7200  -12.2450  -27.9430 C   0  0  0  0  0  0  0  0  0  0  0  0
  -33.9860  -11.4770  -28.8360 C   0  0  0  0  0  0  0  0  0  0  0  0
  -32.8140  -10.6190  -28.3760 C   0  0  1  0  0  0  0  0  0  0  0  0
  -33.0260  -10.0720  -26.9600 C   0  0  1  0  0  0  0  0  0  0  0  0
  -31.6980   -9.5860  -26.3690 C   0  0  0  0  0  0  0  0  0  0  0  0
  -30.5910  -10.6280  -26.5820 C   0  0  1  0  0  0  0  0  0  0  0  0
  -30.4680  -10.9380  -28.0720 C   0  0  1  0  0  0  0  0  0  0  0  0
  -29.4040  -11.9870  -28.4380 C   0  0  2  0  0  0  0  0  0  0  0  0
  -29.4440  -13.2130  -27.5300 C   0  0  0  0  0  0  0  0  0  0  0  0
  -28.5560  -14.3830  -27.9810 C   0  0  2  0  0  0  0  0  0  0  0  0
  -27.1160  -14.1730  -27.4910 C   0  0  0  0  0  0  0  0  0  0  0  0
  -26.9960  -14.5680  -26.0430 C   0  0  0  0  0  0  0  0  0  0  0  0
  -27.0350  -13.5230  -25.0150 C   0  0  0  0  0  0  0  0  0  0  0  0
  -26.9580  -13.8610  -23.5510 C   0  0  2  0  0  0  0  0  0  0  0  0
  -28.3600  -13.9890  -23.0420 C   0  0  0  0  0  0  0  0  0  0  0  0
  -29.1020  -15.3150  -23.0570 C   0  0  0  0  0  0  0  0  0  0  0  0
  -30.6110  -15.1520  -22.8580 C   0  0  1  0  0  0  0  0  0  0  0  0
  -31.3640  -14.8070  -24.1550 C   0  0  2  0  0  0  0  0  0  0  0  0
  -32.8560  -14.5180  -23.9630 C   0  0  1  0  0  0  0  0  0  0  0  0
  -33.0250  -13.3660  -23.0010 C   0  0  0  0  0  0  0  0  0  0  0  0
  -33.6200  -13.6290  -21.6990 C   0  0  0  0  0  0  0  0  0  0  0  0
  -33.7610  -12.5810  -20.6340 C   0  0  1  0  0  0  0  0  0  0  0  0
  -35.0450  -12.8820  -19.8620 C   0  0  0  0  0  0  0  0  0  0  0  0
  -35.2340  -11.8850  -18.7250 C   0  0  2  0  0  0  0  0  0  0  0  0
  -34.0410  -11.9390  -17.7680 C   0  0  1  0  0  0  0  0  0  0  0  0
  -32.7310  -11.6780  -18.5090 C   0  0  0  0  0  0  0  0  0  0  0  0
  -32.5430  -12.6440  -19.6940 C   0  0  0  0  0  0  0  0  0  0  0  0
  -34.0820   -8.9590  -26.9060 C   0  0  0  0  0  0  0  0  0  0  0  0
  -28.5850  -14.5620  -29.5060 C   0  0  0  0  0  0  0  0  0  0  0  0
  -26.8170  -16.0160  -25.6800 C   0  0  0  0  0  0  0  0  0  0  0  0
  -26.2830  -12.6910  -22.8400 C   0  0  0  0  0  0  0  0  0  0  0  0
  -24.9150  -12.4560  -23.4510 C   0  0  0  0  0  0  0  0  0  0  0  0
  -23.7300  -12.7710  -22.6580 C   0  0  0  0  0  0  0  0  0  0  0  0
  -31.2190  -15.9090  -25.2090 C   0  0  0  0  0  0  0  0  0  0  0  0
  -32.5600  -11.9860  -23.4050 C   0  0  0  0  0  0  0  0  0  0  0  0
  -29.2620  -10.3960  -24.6740 C   0  0  0  0  0  0  0  0  0  0  0  0
  -27.8210  -10.7770  -29.6710 C   0  0  0  0  0  0  0  0  0  0  0  0
  -37.6030  -11.7990  -18.6410 C   0  0  0  0  0  0  0  0  0  0  0  0
  -34.4360  -13.5240  -27.6530 N   0  0  0  0  0  0  0  0  0  0  0  0
  -33.3830  -14.1580  -25.2380 O   0  0  0  0  0  0  0  0  0  0  0  0
  -35.2400  -15.3390  -24.5480 O   0  0  0  0  0  0  0  0  0  0  0  0
  -35.7960  -11.6440  -27.3240 O   0  0  0  0  0  0  0  0  0  0  0  0
  -34.3030  -11.4900  -30.1900 O   0  0  0  0  0  0  0  0  0  0  0  0
  -31.7070  -11.4860  -28.4660 O   0  0  0  0  0  0  0  0  0  0  0  0
  -32.6420   -9.5200  -29.2930 O   0  0  0  0  0  0  0  0  0  0  0  0
  -29.3640  -10.1340  -26.0630 O   0  0  0  0  0  0  0  0  0  0  0  0
  -28.1120  -11.4270  -28.4480 O   0  0  0  0  0  0  0  0  0  0  0  0
  -28.9700  -12.8300  -22.5790 O   0  0  0  0  0  0  0  0  0  0  0  0
  -31.0950  -16.3740  -22.3470 O   0  0  0  0  0  0  0  0  0  0  0  0
  -36.4000  -12.2030  -18.0030 O   0  0  0  0  0  0  0  0  0  0  0  0
  -34.2270  -10.9610  -16.7580 O   0  0  0  0  0  0  0  0  0  0  0  0
  -36.1855  -13.6170  -26.4845 H   0  0  0  0  0  0  0  0  0  0  0  0
  -36.2957  -16.1656  -26.6256 H   0  0  0  0  0  0  0  0  0  0  0  0
  -36.4751  -15.2848  -28.2039 H   0  0  0  0  0  0  0  0  0  0  0  0
  -33.9764  -16.6971  -27.1637 H   0  0  0  0  0  0  0  0  0  0  0  0
  -35.0458  -17.2052  -28.5346 H   0  0  0  0  0  0  0  0  0  0  0  0
  -32.9365  -16.0903  -29.2977 H   0  0  0  0  0  0  0  0  0  0  0  0
  -34.4370  -15.2235  -29.8055 H   0  0  0  0  0  0  0  0  0  0  0  0
  -32.5664  -14.4856  -27.4931 H   0  0  0  0  0  0  0  0  0  0  0  0
  -32.8275  -13.5696  -29.0157 H   0  0  0  0  0  0  0  0  0  0  0  0
  -33.4103  -10.9028  -26.3500 H   0  0  0  0  0  0  0  0  0  0  0  0
  -31.4074   -8.6459  -26.8606 H   0  0  0  0  0  0  0  0  0  0  0  0
  -31.8302   -9.4289  -25.2883 H   0  0  0  0  0  0  0  0  0  0  0  0
  -30.8426  -11.5571  -26.0496 H   0  0  0  0  0  0  0  0  0  0  0  0
  -30.1791   -9.9997  -28.5682 H   0  0  0  0  0  0  0  0  0  0  0  0
  -29.6498  -12.3272  -29.4548 H   0  0  0  0  0  0  0  0  0  0  0  0
  -29.1184  -12.9047  -26.5255 H   0  0  0  0  0  0  0  0  0  0  0  0
  -30.4793  -13.5835  -27.5584 H   0  0  0  0  0  0  0  0  0  0  0  0
  -28.9577  -15.3038  -27.5329 H   0  0  0  0  0  0  0  0  0  0  0  0
  -26.4336  -14.7903  -28.0937 H   0  0  0  0  0  0  0  0  0  0  0  0
  -26.8529  -13.1101  -27.5958 H   0  0  0  0  0  0  0  0  0  0  0  0
  -27.1224  -12.4699  -25.3207 H   0  0  0  0  0  0  0  0  0  0  0  0
  -26.3974  -14.7917  -23.3791 H   0  0  0  0  0  0  0  0  0  0  0  0
  -28.9261  -15.8053  -24.0258 H   0  0  0  0  0  0  0  0  0  0  0  0
  -28.7205  -15.9178  -22.2197 H   0  0  0  0  0  0  0  0  0  0  0  0
  -30.7833  -14.3099  -22.1716 H   0  0  0  0  0  0  0  0  0  0  0  0
  -30.8845  -13.8788  -24.4993 H   0  0  0  0  0  0  0  0  0  0  0  0
  -33.3792  -15.3961  -23.5565 H   0  0  0  0  0  0  0  0  0  0  0  0
  -33.9839  -14.6448  -21.4853 H   0  0  0  0  0  0  0  0  0  0  0  0
  -33.8092  -11.5728  -21.0713 H   0  0  0  0  0  0  0  0  0  0  0  0
  -35.9028  -12.8155  -20.5474 H   0  0  0  0  0  0  0  0  0  0  0  0
  -34.9743  -13.8944  -19.4376 H   0  0  0  0  0  0  0  0  0  0  0  0
  -35.3170  -10.8768  -19.1569 H   0  0  0  0  0  0  0  0  0  0  0  0
  -33.9815  -12.9427  -17.3218 H   0  0  0  0  0  0  0  0  0  0  0  0
  -32.7359  -10.6455  -18.8884 H   0  0  0  0  0  0  0  0  0  0  0  0
  -31.9016  -11.8356  -17.8039 H   0  0  0  0  0  0  0  0  0  0  0  0
  -32.4323  -13.6696  -19.3120 H   0  0  0  0  0  0  0  0  0  0  0  0
  -31.6431  -12.3512  -20.2547 H   0  0  0  0  0  0  0  0  0  0  0  0
  -34.3091   -8.7196  -25.8566 H   0  0  0  0  0  0  0  0  0  0  0  0
  -33.6952   -8.0618  -27.4113 H   0  0  0  0  0  0  0  0  0  0  0  0
  -34.9983   -9.2981  -27.4113 H   0  0  0  0  0  0  0  0  0  0  0  0
  -28.7566  -15.6213  -29.7476 H   0  0  0  0  0  0  0  0  0  0  0  0
  -29.3962  -13.9528  -29.9313 H   0  0  0  0  0  0  0  0  0  0  0  0
  -27.6230  -14.2401  -29.9313 H   0  0  0  0  0  0  0  0  0  0  0  0
  -26.8041  -16.1206  -24.5851 H   0  0  0  0  0  0  0  0  0  0  0  0
  -27.6493  -16.6036  -26.0947 H   0  0  0  0  0  0  0  0  0  0  0  0
  -25.8666  -16.3832  -26.0947 H   0  0  0  0  0  0  0  0  0  0  0  0
  -26.8978  -11.7862  -22.9561 H   0  0  0  0  0  0  0  0  0  0  0  0
  -26.1742  -12.9227  -21.7702 H   0  0  0  0  0  0  0  0  0  0  0  0
  -24.8174  -12.0562  -24.4711 H   0  0  0  0  0  0  0  0  0  0  0  0
  -22.7270  -12.6090  -23.0797 H   0  0  0  0  0  0  0  0  0  0  0  0
  -23.8403  -13.1703  -21.6390 H   0  0  0  0  0  0  0  0  0  0  0  0
  -31.0912  -16.8803  -24.7088 H   0  0  0  0  0  0  0  0  0  0  0  0
  -32.1213  -15.9362  -25.8376 H   0  0  0  0  0  0  0  0  0  0  0  0
  -30.3404  -15.7019  -25.8376 H   0  0  0  0  0  0  0  0  0  0  0  0
  -32.3587  -11.3884  -22.5037 H   0  0  0  0  0  0  0  0  0  0  0  0
  -31.6403  -12.0693  -24.0027 H   0  0  0  0  0  0  0  0  0  0  0  0
  -33.3426  -11.4957  -24.0027 H   0  0  0  0  0  0  0  0  0  0  0  0
  -29.6044   -9.5166  -24.1089 H   0  0  0  0  0  0  0  0  0  0  0  0
  -29.8882  -11.2632  -24.4175 H   0  0  0  0  0  0  0  0  0  0  0  0
  -28.2143  -10.6116  -24.4175 H   0  0  0  0  0  0  0  0  0  0  0  0
  -27.3794   -9.7906  -29.4660 H   0  0  0  0  0  0  0  0  0  0  0  0
  -27.1090  -11.3846  -30.2488 H   0  0  0  0  0  0  0  0  0  0  0  0
  -28.7485  -10.6506  -30.2488 H   0  0  0  0  0  0  0  0  0  0  0  0
  -38.3551  -11.5464  -17.8791 H   0  0  0  0  0  0  0  0  0  0  0  0
  -37.4068  -10.9175  -19.2690 H   0  0  0  0  0  0  0  0  0  0  0  0
  -37.9787  -12.6203  -19.2690 H   0  0  0  0  0  0  0  0  0  0  0  0
  -32.5108   -8.6819  -28.7827 H   0  0  0  0  0  0  0  0  0  0  0  0
  -31.0837  -16.3455  -21.3575 H   0  0  0  0  0  0  0  0  0  0  0  0
  -34.1461  -11.3865  -15.8678 H   0  0  0  0  0  0  0  0  0  0  0  0
  1  2  1  0
  1 46  1  0
  1 47  2  0
  2  3  1  0
  2 45  1  0
  3  4  1  0
  4  5  1  0
  5  6  1  0
  6 45  1  0
  7  8  1  0
  7 45  1  0
  7 48  2  0
  8  9  1  0
  8 49  2  0
  9 10  1  0
  9 50  1  0
  9 51  1  6
 10 11  1  0
 10 34  1  0
 11 12  1  0
 12 13  1  0
 12 52  1  0
 13 14  1  0
 13 50  1  0
 14 15  1  0
 14 53  1  0
 15 16  1  0
 16 17  1  0
 16 35  1  0
 17 18  1  0
 18 19  2  3
 18 36  1  0
 19 20  1  0
 20 21  1  0
 20 37  1  0
 21 22  1  0
 21 54  2  0
 22 23  1  0
 23 24  1  0
 23 55  1  0
 24 25  1  0
 24 40  1  0
 25 26  1  0
 25 46  1  0
 26 27  2  3
 26 41  1  0
 28 27  1  0
 28 29  1  0
 28 33  1  0
 29 30  1  0
 30 31  1  0
 30 56  1  0
 31 32  1  0
 31 57  1  0
 32 33  1  0
 37 38  1  0
 38 39  2  0
 42 52  1  0
 43 53  1  0
 44 56  1  0
  2 58  1  1
  3 59  1  0
  3 60  1  0
  4 61  1  0
  4 62  1  0
  5 63  1  0
  5 64  1  0
  6 65  1  0
  6 66  1  0
 10 67  1  1
 11 68  1  0
 11 69  1  0
 12 70  1  1
 13 71  1  6
 14 72  1  6
 15 73  1  0
 15 74  1  0
 16 75  1  1
 17 76  1  0
 17 77  1  0
 19 78  1  0
 20 79  1  6
 22 80  1  0
 22 81  1  0
 23 82  1  1
 24 83  1  6
 25 84  1  1
 27 85  1  0
 28 86  1  6
 29 87  1  0
 29 88  1  0
 30 89  1  6
 31 90  1  1
 32 91  1  0
 32 92  1  0
 33 93  1  0
 33 94  1  0
 34 95  1  0
 34 96  1  0
 34 97  1  0
 35 98  1  0
 35 99  1  0
 35100  1  0
 36101  1  0
 36102  1  0
 36103  1  0
 37104  1  0
 37105  1  0
 38106  1  0
 39107  1  0
 39108  1  0
 40109  1  0
 40110  1  0
 40111  1  0
 41112  1  0
 41113  1  0
 41114  1  0
 42115  1  0
 42116  1  0
 42117  1  0
 43118  1  0
 43119  1  0
 43120  1  0
 44121  1  0
 44122  1  0
 44123  1  0
 51124  1  0
 55125  1  0
 57126  1  0
M  END
>  <filename_input>  (26) 
7U0U_FK5_docked.sdf

>  <pdb_id>  (26) 
7U0U_FK5

>  <pose_rank>  (26) 
25

>  <num_atoms_heavy>  (26) 
57

>  <num_torsions>  (26) 
7

>  <pose>  (26) 
[-34.566, -14.573, -25.469, 1e-06, 1e-06, 1e-06, 0.0, 0.0, 0.0, 0.0, 0.0, 0.0, 0.0]

>  <energy>  (26) 
-1090.1795846002415

>  <inter_energy>  (26) 
-1102.8665869800886

>  <intra_energy>  (26) 
5.9495849757704855

>  <rmsd>  (26) 
0.0

>  <sdf_rank>  (26) 
0

$$$$
