
     RDKit          3D

 73 75  0  0  0  0  0  0  0  0999 V2000
   15.4960    6.5381  -12.3170 C   0  0  0  0  0  0  0  0  0  0  0  0
   15.9291    5.6039  -10.0116 C   0  0  0  0  0  0  0  0  0  0  0  0
   16.1651    5.8067   -8.5720 C   0  0  2  0  0  0  0  0  0  0  0  0
   17.7203    5.7369   -8.2289 C   0  0  0  0  0  0  0  0  0  0  0  0
   18.5726    6.2477   -9.3628 C   0  0  0  0  0  0  0  0  0  0  0  0
   19.7164    7.1749   -8.8670 C   0  0  0  0  0  0  0  0  0  0  0  0
   20.2129    7.0438   -7.5460 C   0  0  0  0  0  0  0  0  0  0  0  0
   21.2488    7.8676   -7.0717 C   0  0  0  0  0  0  0  0  0  0  0  0
   21.8234    8.8302   -7.9208 C   0  0  0  0  0  0  0  0  0  0  0  0
   21.3402    8.9601   -9.2402 C   0  0  0  0  0  0  0  0  0  0  0  0
   20.3107    8.1234   -9.7071 C   0  0  0  0  0  0  0  0  0  0  0  0
   14.4407    5.2603   -6.9089 C   0  0  0  0  0  0  0  0  0  0  0  0
   13.8020    4.2476   -5.9526 C   0  0  1  0  0  0  0  0  0  0  0  0
   11.4844    3.4039   -5.6777 C   0  0  0  0  0  0  0  0  0  0  0  0
    9.9723    3.5121   -5.8586 C   0  0  0  0  0  0  0  0  0  0  0  0
    9.7924    5.8160   -4.7714 C   0  0  0  0  0  0  0  0  0  0  0  0
    9.5322    7.2767   -5.1269 C   0  0  0  0  0  0  0  0  0  0  0  0
   10.3246    7.9136   -6.1187 C   0  0  0  0  0  0  0  0  0  0  0  0
   10.0876    9.2827   -6.4975 C   0  0  0  0  0  0  0  0  0  0  0  0
    9.0277    9.9781   -5.8699 C   0  0  0  0  0  0  0  0  0  0  0  0
    9.0531   11.6867   -7.6011 C   0  0  0  0  0  0  0  0  0  0  0  0
    8.2357    9.3668   -4.8878 C   0  0  0  0  0  0  0  0  0  0  0  0
    8.4794    8.0258   -4.5482 C   0  0  0  0  0  0  0  0  0  0  0  0
    6.3202    7.0336   -3.7864 C   0  0  0  0  0  0  0  0  0  0  0  0
   14.2540    4.7211   -4.6385 C   0  0  0  0  0  0  0  0  0  0  0  0
   13.4918    5.3970   -3.6712 C   0  0  0  0  0  0  0  0  0  0  0  0
   14.1641    5.7405   -2.4424 C   0  0  0  0  0  0  0  0  0  0  0  0
   15.4913    5.2807   -2.3638 C   0  0  0  0  0  0  0  0  0  0  0  0
   15.7415    6.7283  -10.8872 N   0  0  0  0  0  0  0  0  0  0  0  0
   15.4639    4.8866   -7.7068 N   0  0  0  0  0  0  0  0  0  0  0  0
   12.3785    4.3452   -6.1258 N   0  0  0  0  0  0  0  0  0  0  0  0
    9.5076    4.9235   -6.0215 N   0  0  0  0  0  0  0  0  0  0  0  0
   15.8802    4.4536  -10.4826 O   0  0  0  0  0  0  0  0  0  0  0  0
   14.0223    6.4490   -6.9579 O   0  0  0  0  0  0  0  0  0  0  0  0
   11.9428    2.4205   -5.0527 O   0  0  0  0  0  0  0  0  0  0  0  0
    8.7439   11.3145   -6.2211 O   0  0  0  0  0  0  0  0  0  0  0  0
    7.7045    7.4163   -3.5444 O   0  0  0  0  0  0  0  0  0  0  0  0
   15.8432    4.4676   -3.8903 S   0  0  0  0  0  0  0  0  0  0  0  0
   14.6334    5.8697  -12.4552 H   0  0  0  0  0  0  0  0  0  0  0  0
   15.2849    7.5107  -12.7854 H   0  0  0  0  0  0  0  0  0  0  0  0
   16.3852    6.0908  -12.7854 H   0  0  0  0  0  0  0  0  0  0  0  0
   15.7606    6.8099   -8.3718 H   0  0  0  0  0  0  0  0  0  0  0  0
   17.9145    6.3483   -7.3354 H   0  0  0  0  0  0  0  0  0  0  0  0
   17.9826    4.6829   -8.0549 H   0  0  0  0  0  0  0  0  0  0  0  0
   19.0158    5.3884   -9.8875 H   0  0  0  0  0  0  0  0  0  0  0  0
   17.9272    6.8362  -10.0313 H   0  0  0  0  0  0  0  0  0  0  0  0
   19.7798    6.2834   -6.8795 H   0  0  0  0  0  0  0  0  0  0  0  0
   21.6093    7.7594   -6.0380 H   0  0  0  0  0  0  0  0  0  0  0  0
   22.6395    9.4740   -7.5608 H   0  0  0  0  0  0  0  0  0  0  0  0
   21.7714    9.7206   -9.9078 H   0  0  0  0  0  0  0  0  0  0  0  0
   19.9675    8.2158  -10.7481 H   0  0  0  0  0  0  0  0  0  0  0  0
   14.0689    3.1913   -6.1038 H   0  0  0  0  0  0  0  0  0  0  0  0
    9.6838    2.9416   -6.7537 H   0  0  0  0  0  0  0  0  0  0  0  0
    9.5006    3.1111   -4.9493 H   0  0  0  0  0  0  0  0  0  0  0  0
   10.8413    5.6937   -4.4635 H   0  0  0  0  0  0  0  0  0  0  0  0
    9.1329    5.5143   -3.9443 H   0  0  0  0  0  0  0  0  0  0  0  0
   11.1342    7.3508   -6.6064 H   0  0  0  0  0  0  0  0  0  0  0  0
   10.7147    9.7749   -7.2555 H   0  0  0  0  0  0  0  0  0  0  0  0
    9.7561   12.5327   -7.6039 H   0  0  0  0  0  0  0  0  0  0  0  0
    9.5087   10.8296   -8.1186 H   0  0  0  0  0  0  0  0  0  0  0  0
    8.1271   11.9776   -8.1186 H   0  0  0  0  0  0  0  0  0  0  0  0
    7.4333    9.9304   -4.3893 H   0  0  0  0  0  0  0  0  0  0  0  0
    5.8056    6.8914   -2.8246 H   0  0  0  0  0  0  0  0  0  0  0  0
    5.8155    7.8259   -4.3587 H   0  0  0  0  0  0  0  0  0  0  0  0
    6.2940    6.0946   -4.3587 H   0  0  0  0  0  0  0  0  0  0  0  0
   12.4354    5.6515   -3.8423 H   0  0  0  0  0  0  0  0  0  0  0  0
   13.6810    6.3124   -1.6365 H   0  0  0  0  0  0  0  0  0  0  0  0
   16.1784    5.4043   -1.5137 H   0  0  0  0  0  0  0  0  0  0  0  0
   15.7805    7.6828  -10.5021 H   0  0  0  0  0  0  0  0  0  0  0  0
   15.7582    3.8996   -7.6981 H   0  0  0  0  0  0  0  0  0  0  0  0
   12.0063    5.1713   -6.6157 H   0  0  0  0  0  0  0  0  0  0  0  0
    9.9896    5.3347   -6.8335 H   0  0  0  0  0  0  0  0  0  0  0  0
    8.4860    4.8954   -6.1499 H   0  0  0  0  0  0  0  0  0  0  0  0
  1 29  1  0
  2  3  1  0
  2 29  1  0
  2 33  2  0
  3  4  1  0
  3 30  1  0
  4  5  1  0
  5  6  1  0
  6  7  2  0
  6 11  1  0
  7  8  1  0
  8  9  2  0
  9 10  1  0
 10 11  2  0
 12 13  1  0
 12 30  1  0
 12 34  2  0
 13 25  1  0
 13 31  1  0
 14 15  1  0
 14 31  1  0
 14 35  2  0
 15 32  1  0
 16 17  1  0
 16 32  1  0
 17 18  2  0
 17 23  1  0
 18 19  1  0
 19 20  2  0
 20 22  1  0
 20 36  1  0
 21 36  1  0
 22 23  2  0
 23 37  1  0
 24 37  1  0
 25 26  2  0
 25 38  1  0
 26 27  1  0
 27 28  2  0
 28 38  1  0
  1 39  1  0
  1 40  1  0
  1 41  1  0
  3 42  1  1
  4 43  1  0
  4 44  1  0
  5 45  1  0
  5 46  1  0
  7 47  1  0
  8 48  1  0
  9 49  1  0
 10 50  1  0
 11 51  1  0
 13 52  1  6
 15 53  1  0
 15 54  1  0
 16 55  1  0
 16 56  1  0
 18 57  1  0
 19 58  1  0
 21 59  1  0
 21 60  1  0
 21 61  1  0
 22 62  1  0
 24 63  1  0
 24 64  1  0
 24 65  1  0
 26 66  1  0
 27 67  1  0
 28 68  1  0
 29 69  1  0
 30 70  1  0
 31 71  1  0
 32 72  1  0
 32 73  1  0
M  CHG  1  32   1
M  END
>  <filename_input>  (1) 
7U3J_L6U_docked.sdf

>  <pdb_id>  (1) 
7U3J_L6U

>  <pose_rank>  (1) 
0

>  <num_atoms_heavy>  (1) 
38

>  <num_torsions>  (1) 
14

>  <pose>  (1) 
[13.801952524820067, 4.247610425236326, -5.9525918492317205, 3.533754433688792, -4.607425193978142, -2.1197531978026536, 3.577272339723961, 0.27280395478367864, -0.41938362704541365, 0.08155539290449833, 10.111219436858837, 9.61133336613129, 1.5785828879514872, -19.142033165247756, -10.784462815075948, 23.137463004398292, -48.64344646238522, -12.094156593386082, 0.4920776698049401, -5.026826286039462]

>  <energy>  (1) 
-886.6067634283435

>  <inter_energy>  (1) 
-893.7892021336809

>  <intra_energy>  (1) 
19.141949837670264

>  <rmsd>  (1) 
2.05532

>  <sdf_rank>  (1) 
0

$$$$

     RDKit          3D

 73 75  0  0  0  0  0  0  0  0999 V2000
   14.9228    5.2971  -12.0914 C   0  0  0  0  0  0  0  0  0  0  0  0
   16.0527    5.6019   -9.8541 C   0  0  0  0  0  0  0  0  0  0  0  0
   16.8995    6.3931   -8.9451 C   0  0  2  0  0  0  0  0  0  0  0  0
   18.4327    6.3160   -9.3748 C   0  0  0  0  0  0  0  0  0  0  0  0
   19.0241    7.6833   -9.6070 C   0  0  0  0  0  0  0  0  0  0  0  0
   19.0805    8.0511  -11.1154 C   0  0  0  0  0  0  0  0  0  0  0  0
   20.3037    7.9504  -11.8242 C   0  0  0  0  0  0  0  0  0  0  0  0
   20.3833    8.2743  -13.1901 C   0  0  0  0  0  0  0  0  0  0  0  0
   19.2303    8.6889  -13.8804 C   0  0  0  0  0  0  0  0  0  0  0  0
   18.0072    8.7828  -13.1831 C   0  0  0  0  0  0  0  0  0  0  0  0
   17.9373    8.4460  -11.8194 C   0  0  0  0  0  0  0  0  0  0  0  0
   15.6201    5.9693   -6.8906 C   0  0  0  0  0  0  0  0  0  0  0  0
   15.5958    5.6631   -5.3893 C   0  0  1  0  0  0  0  0  0  0  0  0
   13.6852    4.2910   -4.5985 C   0  0  0  0  0  0  0  0  0  0  0  0
   12.2231    4.1051   -4.2005 C   0  0  0  0  0  0  0  0  0  0  0  0
   10.0049    5.3702   -4.2396 C   0  0  0  0  0  0  0  0  0  0  0  0
    9.5941    6.7120   -4.8383 C   0  0  0  0  0  0  0  0  0  0  0  0
   10.5533    7.5006   -5.5275 C   0  0  0  0  0  0  0  0  0  0  0  0
   10.1925    8.7589   -6.1280 C   0  0  0  0  0  0  0  0  0  0  0  0
    8.8473    9.1858   -6.0328 C   0  0  0  0  0  0  0  0  0  0  0  0
    9.4347   11.0590   -7.4689 C   0  0  0  0  0  0  0  0  0  0  0  0
    7.8865    8.4219   -5.3552 C   0  0  0  0  0  0  0  0  0  0  0  0
    8.2627    7.1915   -4.7917 C   0  0  0  0  0  0  0  0  0  0  0  0
    6.2106    7.0746   -3.3768 C   0  0  0  0  0  0  0  0  0  0  0  0
   16.1950    6.8707   -4.8080 C   0  0  0  0  0  0  0  0  0  0  0  0
   15.5349    8.0577   -4.4489 C   0  0  0  0  0  0  0  0  0  0  0  0
   16.3475    9.1007   -3.8732 C   0  0  0  0  0  0  0  0  0  0  0  0
   17.6964    8.7455   -3.6902 C   0  0  0  0  0  0  0  0  0  0  0  0
   15.7712    6.0698  -11.1837 N   0  0  0  0  0  0  0  0  0  0  0  0
   16.7964    6.0306   -7.5505 N   0  0  0  0  0  0  0  0  0  0  0  0
   14.2187    5.4849   -5.0185 N   0  0  0  0  0  0  0  0  0  0  0  0
   11.5320    5.3988   -3.9117 N   0  0  0  0  0  0  0  0  0  0  0  0
   15.5640    4.5228   -9.4747 O   0  0  0  0  0  0  0  0  0  0  0  0
   14.5471    6.1702   -7.5220 O   0  0  0  0  0  0  0  0  0  0  0  0
   14.4595    3.3114   -4.5045 O   0  0  0  0  0  0  0  0  0  0  0  0
    8.4408   10.4016   -6.6215 O   0  0  0  0  0  0  0  0  0  0  0  0
    7.3084    6.4341   -4.0880 O   0  0  0  0  0  0  0  0  0  0  0  0
   17.8823    7.1033   -4.3097 S   0  0  0  0  0  0  0  0  0  0  0  0
   14.2345    4.6703  -11.5054 H   0  0  0  0  0  0  0  0  0  0  0  0
   14.3432    5.9841  -12.7256 H   0  0  0  0  0  0  0  0  0  0  0  0
   15.5528    4.6560  -12.7256 H   0  0  0  0  0  0  0  0  0  0  0  0
   16.5129    7.4184   -9.0415 H   0  0  0  0  0  0  0  0  0  0  0  0
   19.0002    5.8144   -8.5771 H   0  0  0  0  0  0  0  0  0  0  0  0
   18.4929    5.7552  -10.3192 H   0  0  0  0  0  0  0  0  0  0  0  0
   18.4079    8.4291   -9.0835 H   0  0  0  0  0  0  0  0  0  0  0  0
   20.0549    7.6744   -9.2232 H   0  0  0  0  0  0  0  0  0  0  0  0
   21.2075    7.6125  -11.2960 H   0  0  0  0  0  0  0  0  0  0  0  0
   21.3458    8.2036  -13.7178 H   0  0  0  0  0  0  0  0  0  0  0  0
   19.2814    8.9371  -14.9508 H   0  0  0  0  0  0  0  0  0  0  0  0
   17.1026    9.1215  -13.7094 H   0  0  0  0  0  0  0  0  0  0  0  0
   16.9696    8.4938  -11.2984 H   0  0  0  0  0  0  0  0  0  0  0  0
   16.1326    4.7604   -5.0621 H   0  0  0  0  0  0  0  0  0  0  0  0
   11.6960    3.6013   -5.0241 H   0  0  0  0  0  0  0  0  0  0  0  0
   12.2047    3.5068   -3.2776 H   0  0  0  0  0  0  0  0  0  0  0  0
    9.4340    5.1889   -3.3169 H   0  0  0  0  0  0  0  0  0  0  0  0
    9.7970    4.5654   -4.9600 H   0  0  0  0  0  0  0  0  0  0  0  0
   11.5910    7.1437   -5.6042 H   0  0  0  0  0  0  0  0  0  0  0  0
   10.9436    9.3722   -6.6473 H   0  0  0  0  0  0  0  0  0  0  0  0
   10.1853   11.5554   -6.8363 H   0  0  0  0  0  0  0  0  0  0  0  0
    9.9288   10.3090   -8.1040 H   0  0  0  0  0  0  0  0  0  0  0  0
    8.9378   11.8072   -8.1040 H   0  0  0  0  0  0  0  0  0  0  0  0
    6.8508    8.7816   -5.2661 H   0  0  0  0  0  0  0  0  0  0  0  0
    6.3717    6.9807   -2.2927 H   0  0  0  0  0  0  0  0  0  0  0  0
    6.1682    8.1393   -3.6502 H   0  0  0  0  0  0  0  0  0  0  0  0
    5.2629    6.5878   -3.6502 H   0  0  0  0  0  0  0  0  0  0  0  0
   14.4527    8.1852   -4.5994 H   0  0  0  0  0  0  0  0  0  0  0  0
   15.9474   10.0885   -3.6007 H   0  0  0  0  0  0  0  0  0  0  0  0
   18.4844    9.3714   -3.2461 H   0  0  0  0  0  0  0  0  0  0  0  0
   16.1730    6.9630  -11.5025 H   0  0  0  0  0  0  0  0  0  0  0  0
   17.6605    5.8087   -7.0357 H   0  0  0  0  0  0  0  0  0  0  0  0
   13.5940    6.3021   -5.0709 H   0  0  0  0  0  0  0  0  0  0  0  0
   11.6476    5.6150   -2.9114 H   0  0  0  0  0  0  0  0  0  0  0  0
   11.9603    6.1149   -4.5156 H   0  0  0  0  0  0  0  0  0  0  0  0
  1 29  1  0
  2  3  1  0
  2 29  1  0
  2 33  2  0
  3  4  1  0
  3 30  1  0
  4  5  1  0
  5  6  1  0
  6  7  2  0
  6 11  1  0
  7  8  1  0
  8  9  2  0
  9 10  1  0
 10 11  2  0
 12 13  1  0
 12 30  1  0
 12 34  2  0
 13 25  1  0
 13 31  1  0
 14 15  1  0
 14 31  1  0
 14 35  2  0
 15 32  1  0
 16 17  1  0
 16 32  1  0
 17 18  2  0
 17 23  1  0
 18 19  1  0
 19 20  2  0
 20 22  1  0
 20 36  1  0
 21 36  1  0
 22 23  2  0
 23 37  1  0
 24 37  1  0
 25 26  2  0
 25 38  1  0
 26 27  1  0
 27 28  2  0
 28 38  1  0
  1 39  1  0
  1 40  1  0
  1 41  1  0
  3 42  1  1
  4 43  1  0
  4 44  1  0
  5 45  1  0
  5 46  1  0
  7 47  1  0
  8 48  1  0
  9 49  1  0
 10 50  1  0
 11 51  1  0
 13 52  1  6
 15 53  1  0
 15 54  1  0
 16 55  1  0
 16 56  1  0
 18 57  1  0
 19 58  1  0
 21 59  1  0
 21 60  1  0
 21 61  1  0
 22 62  1  0
 24 63  1  0
 24 64  1  0
 24 65  1  0
 26 66  1  0
 27 67  1  0
 28 68  1  0
 29 69  1  0
 30 70  1  0
 31 71  1  0
 32 72  1  0
 32 73  1  0
M  CHG  1  32   1
M  END
>  <filename_input>  (2) 
7U3J_L6U_docked.sdf

>  <pdb_id>  (2) 
7U3J_L6U

>  <pose_rank>  (2) 
1

>  <num_atoms_heavy>  (2) 
38

>  <num_torsions>  (2) 
14

>  <pose>  (2) 
[15.59580099646523, 5.6631010527582495, -5.389338314716427, -0.6722419811416798, 0.43151026484630617, 0.2526838456005242, 3.253990881561619, -0.4338977366454985, 0.5742483071898921, -5.77642446959093, -25.98420028345054, -19.63636184402331, 5.642669823494205, -7.467461595751397, -4.379342952730943, -4.572706384010243, 2.4793853068920715, 2.047117934295779, 0.10912930680905561, -0.5529291984341826]

>  <energy>  (2) 
-771.2046043565015

>  <inter_energy>  (2) 
-822.2511968852092

>  <intra_energy>  (2) 
49.732894121624106

>  <rmsd>  (2) 
3.60539

>  <sdf_rank>  (2) 
0

$$$$

     RDKit          3D

 73 75  0  0  0  0  0  0  0  0999 V2000
   14.5190    5.3748  -12.1761 C   0  0  0  0  0  0  0  0  0  0  0  0
   16.3180    6.1265  -10.5720 C   0  0  0  0  0  0  0  0  0  0  0  0
   16.9060    6.1367   -9.2216 C   0  0  2  0  0  0  0  0  0  0  0  0
   18.4389    5.7006   -9.2588 C   0  0  0  0  0  0  0  0  0  0  0  0
   19.3579    6.8316   -8.8725 C   0  0  0  0  0  0  0  0  0  0  0  0
   19.8722    7.6197  -10.1087 C   0  0  0  0  0  0  0  0  0  0  0  0
   20.3371    6.9216  -11.2511 C   0  0  0  0  0  0  0  0  0  0  0  0
   20.8057    7.6090  -12.3846 C   0  0  0  0  0  0  0  0  0  0  0  0
   20.7999    9.0151  -12.4036 C   0  0  0  0  0  0  0  0  0  0  0  0
   20.3299    9.7167  -11.2731 C   0  0  0  0  0  0  0  0  0  0  0  0
   19.8536    9.0185  -10.1489 C   0  0  0  0  0  0  0  0  0  0  0  0
   16.2167    5.5768   -6.9304 C   0  0  0  0  0  0  0  0  0  0  0  0
   15.5399    4.6089   -5.9542 C   0  0  1  0  0  0  0  0  0  0  0  0
   13.2781    3.5991   -5.8011 C   0  0  0  0  0  0  0  0  0  0  0  0
   11.8527    3.3848   -6.3042 C   0  0  0  0  0  0  0  0  0  0  0  0
   11.3116    5.6310   -5.2160 C   0  0  0  0  0  0  0  0  0  0  0  0
   10.1400    6.6039   -5.1235 C   0  0  0  0  0  0  0  0  0  0  0  0
   10.2362    7.8843   -5.7303 C   0  0  0  0  0  0  0  0  0  0  0  0
    9.1389    8.8160   -5.6852 C   0  0  0  0  0  0  0  0  0  0  0  0
    7.9472    8.4172   -5.0357 C   0  0  0  0  0  0  0  0  0  0  0  0
    5.7845    8.9135   -4.0392 C   0  0  0  0  0  0  0  0  0  0  0  0
    7.8339    7.1580   -4.4297 C   0  0  0  0  0  0  0  0  0  0  0  0
    8.9144    6.2635   -4.5016 C   0  0  0  0  0  0  0  0  0  0  0  0
    9.8048    4.5727   -2.8969 C   0  0  0  0  0  0  0  0  0  0  0  0
   15.5926    5.3465   -4.6860 C   0  0  0  0  0  0  0  0  0  0  0  0
   16.4981    5.1547   -3.6291 C   0  0  0  0  0  0  0  0  0  0  0  0
   16.3561    6.0272   -2.4896 C   0  0  0  0  0  0  0  0  0  0  0  0
   15.3553    7.0053   -2.6340 C   0  0  0  0  0  0  0  0  0  0  0  0
   15.1061    5.4003  -10.8362 N   0  0  0  0  0  0  0  0  0  0  0  0
   16.2191    5.3122   -8.2545 N   0  0  0  0  0  0  0  0  0  0  0  0
   14.1990    4.4022   -6.4285 N   0  0  0  0  0  0  0  0  0  0  0  0
   11.0802    4.6595   -6.4173 N   0  0  0  0  0  0  0  0  0  0  0  0
   16.8721    6.7405  -11.5012 O   0  0  0  0  0  0  0  0  0  0  0  0
   16.7796    6.6238   -6.5094 O   0  0  0  0  0  0  0  0  0  0  0  0
   13.6254    3.0432   -4.7343 O   0  0  0  0  0  0  0  0  0  0  0  0
    6.8380    9.2871   -4.9821 O   0  0  0  0  0  0  0  0  0  0  0  0
    8.8150    5.0091   -3.8722 O   0  0  0  0  0  0  0  0  0  0  0  0
   14.6002    6.7375   -4.2066 S   0  0  0  0  0  0  0  0  0  0  0  0
   13.4230    5.3271  -12.0953 H   0  0  0  0  0  0  0  0  0  0  0  0
   14.8073    6.2863  -12.7202 H   0  0  0  0  0  0  0  0  0  0  0  0
   14.8853    4.4917  -12.7202 H   0  0  0  0  0  0  0  0  0  0  0  0
   16.7997    7.1800   -8.8897 H   0  0  0  0  0  0  0  0  0  0  0  0
   18.5879    4.8666   -8.5571 H   0  0  0  0  0  0  0  0  0  0  0  0
   18.6821    5.4022  -10.2892 H   0  0  0  0  0  0  0  0  0  0  0  0
   18.8112    7.5229   -8.2142 H   0  0  0  0  0  0  0  0  0  0  0  0
   20.2305    6.3978   -8.3622 H   0  0  0  0  0  0  0  0  0  0  0  0
   20.3313    5.8216  -11.2510 H   0  0  0  0  0  0  0  0  0  0  0  0
   21.1762    7.0477  -13.2551 H   0  0  0  0  0  0  0  0  0  0  0  0
   21.1574    9.5614  -13.2889 H   0  0  0  0  0  0  0  0  0  0  0  0
   20.3359   10.8167  -11.2710 H   0  0  0  0  0  0  0  0  0  0  0  0
   19.4608    9.5802   -9.2886 H   0  0  0  0  0  0  0  0  0  0  0  0
   15.9973    3.6140   -5.8505 H   0  0  0  0  0  0  0  0  0  0  0  0
   11.8976    2.9119   -7.2963 H   0  0  0  0  0  0  0  0  0  0  0  0
   11.3353    2.7481   -5.5715 H   0  0  0  0  0  0  0  0  0  0  0  0
   12.2445    6.1927   -5.3717 H   0  0  0  0  0  0  0  0  0  0  0  0
   11.3863    5.0532   -4.2830 H   0  0  0  0  0  0  0  0  0  0  0  0
   11.1660    8.1697   -6.2442 H   0  0  0  0  0  0  0  0  0  0  0  0
    9.2252    9.8120   -6.1440 H   0  0  0  0  0  0  0  0  0  0  0  0
    6.1507    9.0433   -3.0101 H   0  0  0  0  0  0  0  0  0  0  0  0
    4.9051    9.5546   -4.1991 H   0  0  0  0  0  0  0  0  0  0  0  0
    5.5054    7.8616   -4.1991 H   0  0  0  0  0  0  0  0  0  0  0  0
    6.9100    6.8741   -3.9044 H   0  0  0  0  0  0  0  0  0  0  0  0
    9.4186    4.7430   -1.8811 H   0  0  0  0  0  0  0  0  0  0  0  0
   10.0094    3.5010   -3.0365 H   0  0  0  0  0  0  0  0  0  0  0  0
   10.7341    5.1446   -3.0365 H   0  0  0  0  0  0  0  0  0  0  0  0
   17.2761    4.3781   -3.6687 H   0  0  0  0  0  0  0  0  0  0  0  0
   16.9765    5.9358   -1.5859 H   0  0  0  0  0  0  0  0  0  0  0  0
   15.0935    7.7873   -1.9061 H   0  0  0  0  0  0  0  0  0  0  0  0
   14.6437    4.8898  -10.0703 H   0  0  0  0  0  0  0  0  0  0  0  0
   15.7072    4.4840   -8.5907 H   0  0  0  0  0  0  0  0  0  0  0  0
   13.9111    4.8856   -7.2912 H   0  0  0  0  0  0  0  0  0  0  0  0
   11.3641    5.1380   -7.2841 H   0  0  0  0  0  0  0  0  0  0  0  0
   10.0806    4.4112   -6.4206 H   0  0  0  0  0  0  0  0  0  0  0  0
  1 29  1  0
  2  3  1  0
  2 29  1  0
  2 33  2  0
  3  4  1  0
  3 30  1  0
  4  5  1  0
  5  6  1  0
  6  7  2  0
  6 11  1  0
  7  8  1  0
  8  9  2  0
  9 10  1  0
 10 11  2  0
 12 13  1  0
 12 30  1  0
 12 34  2  0
 13 25  1  0
 13 31  1  0
 14 15  1  0
 14 31  1  0
 14 35  2  0
 15 32  1  0
 16 17  1  0
 16 32  1  0
 17 18  2  0
 17 23  1  0
 18 19  1  0
 19 20  2  0
 20 22  1  0
 20 36  1  0
 21 36  1  0
 22 23  2  0
 23 37  1  0
 24 37  1  0
 25 26  2  0
 25 38  1  0
 26 27  1  0
 27 28  2  0
 28 38  1  0
  1 39  1  0
  1 40  1  0
  1 41  1  0
  3 42  1  1
  4 43  1  0
  4 44  1  0
  5 45  1  0
  5 46  1  0
  7 47  1  0
  8 48  1  0
  9 49  1  0
 10 50  1  0
 11 51  1  0
 13 52  1  1
 15 53  1  0
 15 54  1  0
 16 55  1  0
 16 56  1  0
 18 57  1  0
 19 58  1  0
 21 59  1  0
 21 60  1  0
 21 61  1  0
 22 62  1  0
 24 63  1  0
 24 64  1  0
 24 65  1  0
 26 66  1  0
 27 67  1  0
 28 68  1  0
 29 69  1  0
 30 70  1  0
 31 71  1  0
 32 72  1  0
 32 73  1  0
M  CHG  1  32   1
M  END
>  <filename_input>  (3) 
7U3J_L6U_docked.sdf

>  <pdb_id>  (3) 
7U3J_L6U

>  <pose_rank>  (3) 
2

>  <num_atoms_heavy>  (3) 
38

>  <num_torsions>  (3) 
14

>  <pose>  (3) 
[15.53986337242875, 4.60892794822109, -5.95420347619014, 4.076228611798904, 2.5804252696558025, -3.4644990817196133, -6.310081250907331, 14.213242182797243, 17.706916927172326, -2.2754350664612772, 11.537474159700473, 11.88185750724234, -5.937563979159915, -0.012253295674620265, -5.090546724456736, 4.6549487428701966, -4.095439803799855, -6.367960435649724, -2.940933752852765, -2.2081964535242458]

>  <energy>  (3) 
-802.0365665175281

>  <inter_energy>  (3) 
-859.2469744958147

>  <intra_energy>  (3) 
53.530682554874936

>  <rmsd>  (3) 
3.27039

>  <sdf_rank>  (3) 
0

$$$$

     RDKit          3D

 73 75  0  0  0  0  0  0  0  0999 V2000
   19.2551    6.7640   -6.1083 C   0  0  0  0  0  0  0  0  0  0  0  0
   17.5946    6.4000   -7.9752 C   0  0  0  0  0  0  0  0  0  0  0  0
   16.6974    5.5131   -8.7353 C   0  0  2  0  0  0  0  0  0  0  0  0
   15.7082    6.3528   -9.6614 C   0  0  0  0  0  0  0  0  0  0  0  0
   15.7705    5.9109  -11.1015 C   0  0  0  0  0  0  0  0  0  0  0  0
   16.1423    7.0768  -12.0587 C   0  0  0  0  0  0  0  0  0  0  0  0
   17.4228    7.6790  -11.9783 C   0  0  0  0  0  0  0  0  0  0  0  0
   17.7870    8.7340  -12.8334 C   0  0  0  0  0  0  0  0  0  0  0  0
   16.8790    9.1957  -13.8029 C   0  0  0  0  0  0  0  0  0  0  0  0
   15.6056    8.5946  -13.8947 C   0  0  0  0  0  0  0  0  0  0  0  0
   15.2560    7.5330  -13.0410 C   0  0  0  0  0  0  0  0  0  0  0  0
   14.9668    5.0285   -7.0597 C   0  0  0  0  0  0  0  0  0  0  0  0
   14.2339    4.0165   -6.1727 C   0  0  1  0  0  0  0  0  0  0  0  0
   11.8673    3.2876   -6.0090 C   0  0  0  0  0  0  0  0  0  0  0  0
   10.3739    3.4626   -6.2735 C   0  0  0  0  0  0  0  0  0  0  0  0
    9.2595    5.4866   -5.1854 C   0  0  0  0  0  0  0  0  0  0  0  0
    9.1215    6.9969   -5.3514 C   0  0  0  0  0  0  0  0  0  0  0  0
   10.2150    7.7553   -5.8474 C   0  0  0  0  0  0  0  0  0  0  0  0
   10.1092    9.1783   -6.0420 C   0  0  0  0  0  0  0  0  0  0  0  0
    8.8766    9.8057   -5.7450 C   0  0  0  0  0  0  0  0  0  0  0  0
    9.9429   11.9888   -5.8632 C   0  0  0  0  0  0  0  0  0  0  0  0
    7.7864    9.0741   -5.2533 C   0  0  0  0  0  0  0  0  0  0  0  0
    7.9127    7.6851   -5.0870 C   0  0  0  0  0  0  0  0  0  0  0  0
    6.4946    6.9977   -3.1522 C   0  0  0  0  0  0  0  0  0  0  0  0
   14.6261    4.4344   -4.8211 C   0  0  0  0  0  0  0  0  0  0  0  0
   13.8533    5.1590   -3.8985 C   0  0  0  0  0  0  0  0  0  0  0  0
   14.4601    5.4301   -2.6186 C   0  0  0  0  0  0  0  0  0  0  0  0
   15.7360    4.8609   -2.4537 C   0  0  0  0  0  0  0  0  0  0  0  0
   18.3688    5.8897   -6.8769 N   0  0  0  0  0  0  0  0  0  0  0  0
   15.9116    4.6087   -7.9282 N   0  0  0  0  0  0  0  0  0  0  0  0
   12.8280    4.1769   -6.4245 N   0  0  0  0  0  0  0  0  0  0  0  0
    9.9786    4.8946   -6.4396 N   0  0  0  0  0  0  0  0  0  0  0  0
   17.6832    7.6049   -8.2716 O   0  0  0  0  0  0  0  0  0  0  0  0
   14.6997    6.2587   -6.9855 O   0  0  0  0  0  0  0  0  0  0  0  0
   12.2443    2.2968   -5.3427 O   0  0  0  0  0  0  0  0  0  0  0  0
    8.7176   11.1941   -5.9376 O   0  0  0  0  0  0  0  0  0  0  0  0
    6.8302    6.9507   -4.5687 O   0  0  0  0  0  0  0  0  0  0  0  0
   16.1305    4.0406   -3.9658 S   0  0  0  0  0  0  0  0  0  0  0  0
   19.0894    6.6005   -5.0332 H   0  0  0  0  0  0  0  0  0  0  0  0
   20.3019    6.5350   -6.3569 H   0  0  0  0  0  0  0  0  0  0  0  0
   19.0404    7.8138   -6.3569 H   0  0  0  0  0  0  0  0  0  0  0  0
   17.3783    4.8967   -9.3407 H   0  0  0  0  0  0  0  0  0  0  0  0
   14.6799    6.2209   -9.2937 H   0  0  0  0  0  0  0  0  0  0  0  0
   16.0149    7.4082   -9.6165 H   0  0  0  0  0  0  0  0  0  0  0  0
   16.5284    5.1194  -11.1965 H   0  0  0  0  0  0  0  0  0  0  0  0
   14.7724    5.5464  -11.3859 H   0  0  0  0  0  0  0  0  0  0  0  0
   18.1450    7.3144  -11.2330 H   0  0  0  0  0  0  0  0  0  0  0  0
   18.7806    9.1974  -12.7442 H   0  0  0  0  0  0  0  0  0  0  0  0
   17.1579   10.0154  -14.4814 H   0  0  0  0  0  0  0  0  0  0  0  0
   14.8817    8.9587  -14.6387 H   0  0  0  0  0  0  0  0  0  0  0  0
   14.2714    7.0542  -13.1470 H   0  0  0  0  0  0  0  0  0  0  0  0
   14.4677    2.9547   -6.3401 H   0  0  0  0  0  0  0  0  0  0  0  0
   10.1137    2.9173   -7.1926 H   0  0  0  0  0  0  0  0  0  0  0  0
    9.8346    3.0696   -5.3990 H   0  0  0  0  0  0  0  0  0  0  0  0
    9.8520    5.2683   -4.2846 H   0  0  0  0  0  0  0  0  0  0  0  0
    8.2623    5.0337   -5.0835 H   0  0  0  0  0  0  0  0  0  0  0  0
   11.1603    7.2464   -6.0873 H   0  0  0  0  0  0  0  0  0  0  0  0
   10.9647    9.7623   -6.4120 H   0  0  0  0  0  0  0  0  0  0  0  0
   10.2059   12.1593   -4.8088 H   0  0  0  0  0  0  0  0  0  0  0  0
   10.7610   11.4488   -6.3625 H   0  0  0  0  0  0  0  0  0  0  0  0
    9.7836   12.9559   -6.3625 H   0  0  0  0  0  0  0  0  0  0  0  0
    6.8437    9.5816   -5.0007 H   0  0  0  0  0  0  0  0  0  0  0  0
    7.4090    6.8697   -2.5543 H   0  0  0  0  0  0  0  0  0  0  0  0
    6.0352    7.9690   -2.9163 H   0  0  0  0  0  0  0  0  0  0  0  0
    5.7861    6.1900   -2.9163 H   0  0  0  0  0  0  0  0  0  0  0  0
   12.8365    5.5023   -4.1401 H   0  0  0  0  0  0  0  0  0  0  0  0
   13.9679    6.0300   -1.8389 H   0  0  0  0  0  0  0  0  0  0  0  0
   16.3670    4.9165   -1.5544 H   0  0  0  0  0  0  0  0  0  0  0  0
   18.2985    4.8929   -6.6270 H   0  0  0  0  0  0  0  0  0  0  0  0
   16.0798    3.5967   -8.0196 H   0  0  0  0  0  0  0  0  0  0  0  0
   12.5223    5.0094   -6.9485 H   0  0  0  0  0  0  0  0  0  0  0  0
   10.8273    5.4490   -6.6219 H   0  0  0  0  0  0  0  0  0  0  0  0
    9.3110    4.9379   -7.2228 H   0  0  0  0  0  0  0  0  0  0  0  0
  1 29  1  0
  2  3  1  0
  2 29  1  0
  2 33  2  0
  3  4  1  0
  3 30  1  0
  4  5  1  0
  5  6  1  0
  6  7  2  0
  6 11  1  0
  7  8  1  0
  8  9  2  0
  9 10  1  0
 10 11  2  0
 12 13  1  0
 12 30  1  0
 12 34  2  0
 13 25  1  0
 13 31  1  0
 14 15  1  0
 14 31  1  0
 14 35  2  0
 15 32  1  0
 16 17  1  0
 16 32  1  0
 17 18  2  0
 17 23  1  0
 18 19  1  0
 19 20  2  0
 20 22  1  0
 20 36  1  0
 21 36  1  0
 22 23  2  0
 23 37  1  0
 24 37  1  0
 25 26  2  0
 25 38  1  0
 26 27  1  0
 27 28  2  0
 28 38  1  0
  1 39  1  0
  1 40  1  0
  1 41  1  0
  3 42  1  6
  4 43  1  0
  4 44  1  0
  5 45  1  0
  5 46  1  0
  7 47  1  0
  8 48  1  0
  9 49  1  0
 10 50  1  0
 11 51  1  0
 13 52  1  6
 15 53  1  0
 15 54  1  0
 16 55  1  0
 16 56  1  0
 18 57  1  0
 19 58  1  0
 21 59  1  0
 21 60  1  0
 21 61  1  0
 22 62  1  0
 24 63  1  0
 24 64  1  0
 24 65  1  0
 26 66  1  0
 27 67  1  0
 28 68  1  0
 29 69  1  0
 30 70  1  0
 31 71  1  0
 32 72  1  0
 32 73  1  0
M  CHG  1  32   1
M  END
>  <filename_input>  (4) 
7U3J_L6U_docked.sdf

>  <pdb_id>  (4) 
7U3J_L6U

>  <pose_rank>  (4) 
3

>  <num_atoms_heavy>  (4) 
38

>  <num_torsions>  (4) 
14

>  <pose>  (4) 
[14.233869663258861, 4.016475683582972, -6.172691609892689, 5.191799435860431, -3.322180462275034, 1.026771744714748, -2.7526929629421697, -5.870028931330663, -3.6420809482611434, -1.5838037306754436, -0.8137969048270608, -1.1886297666422663, -4.004135989712074, -0.2437176653677765, -4.535816516115563, 3.571515283826385, 7.917977241183067, 0.8258538712792743, -0.4921424497152455, -1.3407235608320767]

>  <energy>  (4) 
-845.8992611467474

>  <inter_energy>  (4) 
-865.4391967727074

>  <intra_energy>  (4) 
35.058986994561145

>  <rmsd>  (4) 
3.69145

>  <sdf_rank>  (4) 
0

$$$$

     RDKit          3D

 73 75  0  0  0  0  0  0  0  0999 V2000
   15.0144    4.8732  -11.9566 C   0  0  0  0  0  0  0  0  0  0  0  0
   16.5991    5.7993  -10.2228 C   0  0  0  0  0  0  0  0  0  0  0  0
   16.9362    6.0795   -8.8166 C   0  0  2  0  0  0  0  0  0  0  0  0
   18.5082    6.2655   -8.6284 C   0  0  0  0  0  0  0  0  0  0  0  0
   18.9514    5.9435   -7.2238 C   0  0  0  0  0  0  0  0  0  0  0  0
   19.6349    7.1544   -6.5308 C   0  0  0  0  0  0  0  0  0  0  0  0
   21.0296    7.1327   -6.2794 C   0  0  0  0  0  0  0  0  0  0  0  0
   21.6747    8.2154   -5.6562 C   0  0  0  0  0  0  0  0  0  0  0  0
   20.9359    9.3540   -5.2882 C   0  0  0  0  0  0  0  0  0  0  0  0
   19.5485    9.3862   -5.5437 C   0  0  0  0  0  0  0  0  0  0  0  0
   18.9157    8.3017   -6.1772 C   0  0  0  0  0  0  0  0  0  0  0  0
   15.5246    5.3346   -6.9484 C   0  0  0  0  0  0  0  0  0  0  0  0
   15.1502    4.2592   -5.9231 C   0  0  1  0  0  0  0  0  0  0  0  0
   13.0504    2.9748   -5.6071 C   0  0  0  0  0  0  0  0  0  0  0  0
   11.5310    2.8308   -5.6452 C   0  0  0  0  0  0  0  0  0  0  0  0
   11.2469    5.3678   -5.5730 C   0  0  0  0  0  0  0  0  0  0  0  0
    9.9937    6.0368   -5.0166 C   0  0  0  0  0  0  0  0  0  0  0  0
    9.1159    5.3026   -4.1754 C   0  0  0  0  0  0  0  0  0  0  0  0
    7.9392    5.9119   -3.6114 C   0  0  0  0  0  0  0  0  0  0  0  0
    7.6855    7.2734   -3.8995 C   0  0  0  0  0  0  0  0  0  0  0  0
    6.0695    9.0803   -4.0999 C   0  0  0  0  0  0  0  0  0  0  0  0
    8.5396    8.0141   -4.7287 C   0  0  0  0  0  0  0  0  0  0  0  0
    9.6881    7.3989   -5.2534 C   0  0  0  0  0  0  0  0  0  0  0  0
   10.0350    9.2619   -6.8769 C   0  0  0  0  0  0  0  0  0  0  0  0
   15.6360    4.8365   -4.6638 C   0  0  0  0  0  0  0  0  0  0  0  0
   15.7079    4.2038   -3.4115 C   0  0  0  0  0  0  0  0  0  0  0  0
   16.2464    4.9824   -2.3236 C   0  0  0  0  0  0  0  0  0  0  0  0
   16.6913    6.2638   -2.6971 C   0  0  0  0  0  0  0  0  0  0  0  0
   15.3548    5.1658  -10.5640 N   0  0  0  0  0  0  0  0  0  0  0  0
   16.4768    5.0868   -7.8731 N   0  0  0  0  0  0  0  0  0  0  0  0
   13.7202    4.1200   -5.9625 N   0  0  0  0  0  0  0  0  0  0  0  0
   10.8514    4.0168   -6.2503 N   0  0  0  0  0  0  0  0  0  0  0  0
   17.3952    6.1005  -11.1299 O   0  0  0  0  0  0  0  0  0  0  0  0
   14.9531    6.4587   -6.9372 O   0  0  0  0  0  0  0  0  0  0  0  0
   13.7321    2.0093   -5.1937 O   0  0  0  0  0  0  0  0  0  0  0  0
    6.5564    7.9200   -3.3548 O   0  0  0  0  0  0  0  0  0  0  0  0
   10.5338    8.1303   -6.1075 O   0  0  0  0  0  0  0  0  0  0  0  0
   16.3565    6.4401   -4.4210 S   0  0  0  0  0  0  0  0  0  0  0  0
   14.1805    4.1566  -11.9874 H   0  0  0  0  0  0  0  0  0  0  0  0
   14.7180    5.8028  -12.4646 H   0  0  0  0  0  0  0  0  0  0  0  0
   15.8888    4.4404  -12.4646 H   0  0  0  0  0  0  0  0  0  0  0  0
   16.3979    7.0120   -8.5917 H   0  0  0  0  0  0  0  0  0  0  0  0
   19.0312    5.5967   -9.3279 H   0  0  0  0  0  0  0  0  0  0  0  0
   18.7518    7.3195   -8.8281 H   0  0  0  0  0  0  0  0  0  0  0  0
   18.0712    5.6484   -6.6338 H   0  0  0  0  0  0  0  0  0  0  0  0
   19.6874    5.1280   -7.2810 H   0  0  0  0  0  0  0  0  0  0  0  0
   21.6182    6.2525   -6.5774 H   0  0  0  0  0  0  0  0  0  0  0  0
   22.7556    8.1718   -5.4567 H   0  0  0  0  0  0  0  0  0  0  0  0
   21.4335   10.2089   -4.8071 H   0  0  0  0  0  0  0  0  0  0  0  0
   18.9582   10.2652   -5.2454 H   0  0  0  0  0  0  0  0  0  0  0  0
   17.8395    8.3561   -6.3982 H   0  0  0  0  0  0  0  0  0  0  0  0
   15.5718    3.2562   -6.0851 H   0  0  0  0  0  0  0  0  0  0  0  0
   11.2772    1.9398   -6.2383 H   0  0  0  0  0  0  0  0  0  0  0  0
   11.1806    2.7429   -4.6062 H   0  0  0  0  0  0  0  0  0  0  0  0
   11.7170    6.0282   -6.3165 H   0  0  0  0  0  0  0  0  0  0  0  0
   11.9574    5.1768   -4.7553 H   0  0  0  0  0  0  0  0  0  0  0  0
    9.3390    4.2492   -3.9506 H   0  0  0  0  0  0  0  0  0  0  0  0
    7.2552    5.3334   -2.9730 H   0  0  0  0  0  0  0  0  0  0  0  0
    5.7430    9.8585   -3.3944 H   0  0  0  0  0  0  0  0  0  0  0  0
    6.8779    9.4751   -4.7329 H   0  0  0  0  0  0  0  0  0  0  0  0
    5.2215    8.7800   -4.7329 H   0  0  0  0  0  0  0  0  0  0  0  0
    8.3130    9.0641   -4.9655 H   0  0  0  0  0  0  0  0  0  0  0  0
    9.6884   10.0481   -6.1901 H   0  0  0  0  0  0  0  0  0  0  0  0
   10.8417    9.6584   -7.5109 H   0  0  0  0  0  0  0  0  0  0  0  0
    9.1981    8.9338   -7.5109 H   0  0  0  0  0  0  0  0  0  0  0  0
   15.3705    3.1667   -3.2680 H   0  0  0  0  0  0  0  0  0  0  0  0
   16.3042    4.6071   -1.2913 H   0  0  0  0  0  0  0  0  0  0  0  0
   17.1585    7.0124   -2.0404 H   0  0  0  0  0  0  0  0  0  0  0  0
   14.6925    4.9139   -9.8165 H   0  0  0  0  0  0  0  0  0  0  0  0
   16.8950    4.1461   -7.9074 H   0  0  0  0  0  0  0  0  0  0  0  0
   13.1640    4.9281   -6.2763 H   0  0  0  0  0  0  0  0  0  0  0  0
   11.1041    4.0648   -7.2477 H   0  0  0  0  0  0  0  0  0  0  0  0
    9.8384    3.8913   -6.1122 H   0  0  0  0  0  0  0  0  0  0  0  0
  1 29  1  0
  2  3  1  0
  2 29  1  0
  2 33  2  0
  3  4  1  0
  3 30  1  0
  4  5  1  0
  5  6  1  0
  6  7  2  0
  6 11  1  0
  7  8  1  0
  8  9  2  0
  9 10  1  0
 10 11  2  0
 12 13  1  0
 12 30  1  0
 12 34  2  0
 13 25  1  0
 13 31  1  0
 14 15  1  0
 14 31  1  0
 14 35  2  0
 15 32  1  0
 16 17  1  0
 16 32  1  0
 17 18  2  0
 17 23  1  0
 18 19  1  0
 19 20  2  0
 20 22  1  0
 20 36  1  0
 21 36  1  0
 22 23  2  0
 23 37  1  0
 24 37  1  0
 25 26  2  0
 25 38  1  0
 26 27  1  0
 27 28  2  0
 28 38  1  0
  1 39  1  0
  1 40  1  0
  1 41  1  0
  3 42  1  1
  4 43  1  0
  4 44  1  0
  5 45  1  0
  5 46  1  0
  7 47  1  0
  8 48  1  0
  9 49  1  0
 10 50  1  0
 11 51  1  0
 13 52  1  6
 15 53  1  0
 15 54  1  0
 16 55  1  0
 16 56  1  0
 18 57  1  0
 19 58  1  0
 21 59  1  0
 21 60  1  0
 21 61  1  0
 22 62  1  0
 24 63  1  0
 24 64  1  0
 24 65  1  0
 26 66  1  0
 27 67  1  0
 28 68  1  0
 29 69  1  0
 30 70  1  0
 31 71  1  0
 32 72  1  0
 32 73  1  0
M  CHG  1  32   1
M  END
>  <filename_input>  (5) 
7U3J_L6U_docked.sdf

>  <pdb_id>  (5) 
7U3J_L6U

>  <pose_rank>  (5) 
4

>  <num_atoms_heavy>  (5) 
38

>  <num_torsions>  (5) 
14

>  <pose>  (5) 
[15.150163265880858, 4.259166831166034, -5.923099976445344, -0.08340993441377981, 0.16455803529592553, 0.20080109341357621, 5.030149432066976, 0.32519460411430456, 5.817000829679945, -1.7192930453404556, -5.711858151717314, -1.1514064965579542, 5.504377927177914, -0.4733972616140532, -3.965824790541228, -1.8432651980034862, 9.126265644022272, 2.480092128935962, -2.7514594159005203, -0.4597496599342824]

>  <energy>  (5) 
-808.13088354837

>  <inter_energy>  (5) 
-854.1182039819463

>  <intra_energy>  (5) 
52.27190120824458

>  <rmsd>  (5) 
2.50899

>  <sdf_rank>  (5) 
0

$$$$

     RDKit          3D

 73 75  0  0  0  0  0  0  0  0999 V2000
   18.1616    9.9786   -5.1539 C   0  0  0  0  0  0  0  0  0  0  0  0
   18.0183    7.5194   -5.7078 C   0  0  0  0  0  0  0  0  0  0  0  0
   17.7533    6.4379   -6.6719 C   0  0  2  0  0  0  0  0  0  0  0  0
   17.1648    7.0154   -8.0362 C   0  0  0  0  0  0  0  0  0  0  0  0
   17.8499    6.4246   -9.2423 C   0  0  0  0  0  0  0  0  0  0  0  0
   16.9090    6.3527  -10.4765 C   0  0  0  0  0  0  0  0  0  0  0  0
   15.9750    5.2932  -10.5950 C   0  0  0  0  0  0  0  0  0  0  0  0
   15.1098    5.2046  -11.6996 C   0  0  0  0  0  0  0  0  0  0  0  0
   15.1499    6.1899  -12.7022 C   0  0  0  0  0  0  0  0  0  0  0  0
   16.0711    7.2526  -12.5862 C   0  0  0  0  0  0  0  0  0  0  0  0
   16.9244    7.3368  -11.4715 C   0  0  0  0  0  0  0  0  0  0  0  0
   15.5530    5.3575   -6.5005 C   0  0  0  0  0  0  0  0  0  0  0  0
   14.6559    4.2784   -5.8850 C   0  0  1  0  0  0  0  0  0  0  0  0
   12.1976    3.9867   -5.7112 C   0  0  0  0  0  0  0  0  0  0  0  0
   10.7614    4.3290   -6.0997 C   0  0  0  0  0  0  0  0  0  0  0  0
    9.4090    4.6112   -3.9517 C   0  0  0  0  0  0  0  0  0  0  0  0
    8.6609    5.8535   -4.4258 C   0  0  0  0  0  0  0  0  0  0  0  0
    7.2650    5.7835   -4.6780 C   0  0  0  0  0  0  0  0  0  0  0  0
    6.5237    6.9439   -5.1000 C   0  0  0  0  0  0  0  0  0  0  0  0
    7.2177    8.1685   -5.2396 C   0  0  0  0  0  0  0  0  0  0  0  0
    7.2588   10.2248   -6.5383 C   0  0  0  0  0  0  0  0  0  0  0  0
    8.5957    8.2570   -4.9966 C   0  0  0  0  0  0  0  0  0  0  0  0
    9.2911    7.1129   -4.5718 C   0  0  0  0  0  0  0  0  0  0  0  0
   11.5870    7.6238   -5.4053 C   0  0  0  0  0  0  0  0  0  0  0  0
   14.9115    4.4332   -4.4476 C   0  0  0  0  0  0  0  0  0  0  0  0
   15.6269    3.5581   -3.6133 C   0  0  0  0  0  0  0  0  0  0  0  0
   15.7580    3.9458   -2.2304 C   0  0  0  0  0  0  0  0  0  0  0  0
   15.1968    5.1999   -1.9279 C   0  0  0  0  0  0  0  0  0  0  0  0
   17.8906    8.8963   -6.1004 N   0  0  0  0  0  0  0  0  0  0  0  0
   16.8671    5.4023   -6.1934 N   0  0  0  0  0  0  0  0  0  0  0  0
   13.3032    4.5959   -6.2525 N   0  0  0  0  0  0  0  0  0  0  0  0
    9.7514    3.7149   -5.1846 N   0  0  0  0  0  0  0  0  0  0  0  0
   18.3656    7.2502   -4.5441 O   0  0  0  0  0  0  0  0  0  0  0  0
   15.0751    6.2138   -7.2935 O   0  0  0  0  0  0  0  0  0  0  0  0
   12.3873    3.1271   -4.8208 O   0  0  0  0  0  0  0  0  0  0  0  0
    6.5318    9.3371   -5.6317 O   0  0  0  0  0  0  0  0  0  0  0  0
   10.6787    7.1905   -4.3524 O   0  0  0  0  0  0  0  0  0  0  0  0
   14.4781    5.8128   -3.4188 S   0  0  0  0  0  0  0  0  0  0  0  0
   18.0666    9.5991   -4.1258 H   0  0  0  0  0  0  0  0  0  0  0  0
   19.1822   10.3571   -5.3121 H   0  0  0  0  0  0  0  0  0  0  0  0
   17.4397   10.7934   -5.3121 H   0  0  0  0  0  0  0  0  0  0  0  0
   18.7372    5.9725   -6.8312 H   0  0  0  0  0  0  0  0  0  0  0  0
   16.0913    6.7809   -8.0873 H   0  0  0  0  0  0  0  0  0  0  0  0
   17.3358    8.1020   -8.0468 H   0  0  0  0  0  0  0  0  0  0  0  0
   18.7198    7.0482   -9.4961 H   0  0  0  0  0  0  0  0  0  0  0  0
   18.1529    5.3980   -8.9888 H   0  0  0  0  0  0  0  0  0  0  0  0
   15.9262    4.5262   -9.8081 H   0  0  0  0  0  0  0  0  0  0  0  0
   14.4027    4.3658  -11.7795 H   0  0  0  0  0  0  0  0  0  0  0  0
   14.4715    6.1330  -13.5662 H   0  0  0  0  0  0  0  0  0  0  0  0
   16.1220    8.0200  -13.3726 H   0  0  0  0  0  0  0  0  0  0  0  0
   17.6143    8.1887  -11.3803 H   0  0  0  0  0  0  0  0  0  0  0  0
   14.8385    3.2430   -6.2083 H   0  0  0  0  0  0  0  0  0  0  0  0
   10.6411    5.4221   -6.0729 H   0  0  0  0  0  0  0  0  0  0  0  0
   10.5853    3.9235   -7.1069 H   0  0  0  0  0  0  0  0  0  0  0  0
   10.3385    4.9122   -3.4463 H   0  0  0  0  0  0  0  0  0  0  0  0
    8.7789    4.0468   -3.2486 H   0  0  0  0  0  0  0  0  0  0  0  0
    6.7404    4.8253   -4.5486 H   0  0  0  0  0  0  0  0  0  0  0  0
    5.4456    6.8795   -5.3085 H   0  0  0  0  0  0  0  0  0  0  0  0
    7.8485   10.9448   -5.9518 H   0  0  0  0  0  0  0  0  0  0  0  0
    7.9323    9.6296   -7.1724 H   0  0  0  0  0  0  0  0  0  0  0  0
    6.5426   10.7678   -7.1724 H   0  0  0  0  0  0  0  0  0  0  0  0
    9.1257    9.2106   -5.1369 H   0  0  0  0  0  0  0  0  0  0  0  0
   12.4924    8.0556   -4.9538 H   0  0  0  0  0  0  0  0  0  0  0  0
   11.8640    6.7608   -6.0287 H   0  0  0  0  0  0  0  0  0  0  0  0
   11.0907    8.3821   -6.0287 H   0  0  0  0  0  0  0  0  0  0  0  0
   16.0651    2.6244   -3.9955 H   0  0  0  0  0  0  0  0  0  0  0  0
   16.2538    3.3155   -1.4774 H   0  0  0  0  0  0  0  0  0  0  0  0
   15.2045    5.7023   -0.9494 H   0  0  0  0  0  0  0  0  0  0  0  0
   17.6039    9.1245   -7.0630 H   0  0  0  0  0  0  0  0  0  0  0  0
   17.2558    4.6636   -5.5898 H   0  0  0  0  0  0  0  0  0  0  0  0
   13.1538    5.3245   -6.9650 H   0  0  0  0  0  0  0  0  0  0  0  0
    8.8861    3.5478   -5.7177 H   0  0  0  0  0  0  0  0  0  0  0  0
   10.1592    2.8411   -4.8226 H   0  0  0  0  0  0  0  0  0  0  0  0
  1 29  1  0
  2  3  1  0
  2 29  1  0
  2 33  2  0
  3  4  1  0
  3 30  1  0
  4  5  1  0
  5  6  1  0
  6  7  2  0
  6 11  1  0
  7  8  1  0
  8  9  2  0
  9 10  1  0
 10 11  2  0
 12 13  1  0
 12 30  1  0
 12 34  2  0
 13 25  1  0
 13 31  1  0
 14 15  1  0
 14 31  1  0
 14 35  2  0
 15 32  1  0
 16 17  1  0
 16 32  1  0
 17 18  2  0
 17 23  1  0
 18 19  1  0
 19 20  2  0
 20 22  1  0
 20 36  1  0
 21 36  1  0
 22 23  2  0
 23 37  1  0
 24 37  1  0
 25 26  2  0
 25 38  1  0
 26 27  1  0
 27 28  2  0
 28 38  1  0
  1 39  1  0
  1 40  1  0
  1 41  1  0
  3 42  1  6
  4 43  1  0
  4 44  1  0
  5 45  1  0
  5 46  1  0
  7 47  1  0
  8 48  1  0
  9 49  1  0
 10 50  1  0
 11 51  1  0
 13 52  1  6
 15 53  1  0
 15 54  1  0
 16 55  1  0
 16 56  1  0
 18 57  1  0
 19 58  1  0
 21 59  1  0
 21 60  1  0
 21 61  1  0
 22 62  1  0
 24 63  1  0
 24 64  1  0
 24 65  1  0
 26 66  1  0
 27 67  1  0
 28 68  1  0
 29 69  1  0
 30 70  1  0
 31 71  1  0
 32 72  1  0
 32 73  1  0
M  CHG  1  32   1
M  END
>  <filename_input>  (6) 
7U3J_L6U_docked.sdf

>  <pdb_id>  (6) 
7U3J_L6U

>  <pose_rank>  (6) 
5

>  <num_atoms_heavy>  (6) 
38

>  <num_torsions>  (6) 
14

>  <pose>  (6) 
[14.655932401990823, 4.278434307715826, -5.8849905236403295, -4.613585778919389, 3.0084161151702715, 2.6089925289154303, -0.15759643763022296, -0.7004474156097908, -3.047429419242366, 1.665325445391982, -13.25185172946779, -8.992701981724856, -0.27567341126466777, 6.452477457522942, 5.5426086443927804, -5.636091988894784, 24.988352878351428, 15.576220613643667, -2.5118241493751547, -1.0240307083627627]

>  <energy>  (6) 
-722.1455863867824

>  <inter_energy>  (6) 
-793.879351574156

>  <intra_energy>  (6) 
77.69045127111694

>  <rmsd>  (6) 
3.81635

>  <sdf_rank>  (6) 
0

$$$$

     RDKit          3D

 73 75  0  0  0  0  0  0  0  0999 V2000
   18.4313   10.5205   -4.2028 C   0  0  0  0  0  0  0  0  0  0  0  0
   19.0121    8.1487   -4.8448 C   0  0  0  0  0  0  0  0  0  0  0  0
   19.2143    7.1141   -5.8734 C   0  0  2  0  0  0  0  0  0  0  0  0
   19.0081    7.7108   -7.3372 C   0  0  0  0  0  0  0  0  0  0  0  0
   19.2540    6.6785   -8.4082 C   0  0  0  0  0  0  0  0  0  0  0  0
   18.0079    6.4583   -9.3097 C   0  0  0  0  0  0  0  0  0  0  0  0
   18.0287    6.8792  -10.6629 C   0  0  0  0  0  0  0  0  0  0  0  0
   16.9165    6.6904  -11.5020 C   0  0  0  0  0  0  0  0  0  0  0  0
   15.7636    6.0563  -11.0057 C   0  0  0  0  0  0  0  0  0  0  0  0
   15.7392    5.6265   -9.6618 C   0  0  0  0  0  0  0  0  0  0  0  0
   16.8615    5.8112   -8.8346 C   0  0  0  0  0  0  0  0  0  0  0  0
   17.0470    6.0180   -5.5002 C   0  0  0  0  0  0  0  0  0  0  0  0
   16.2360    4.7376   -5.2747 C   0  0  1  0  0  0  0  0  0  0  0  0
   14.0224    4.0097   -6.1285 C   0  0  0  0  0  0  0  0  0  0  0  0
   12.9083    4.0014   -7.1722 C   0  0  0  0  0  0  0  0  0  0  0  0
   10.6906    4.2143   -5.9238 C   0  0  0  0  0  0  0  0  0  0  0  0
    9.7881    5.2811   -5.3114 C   0  0  0  0  0  0  0  0  0  0  0  0
    9.0824    6.1785   -6.1563 C   0  0  0  0  0  0  0  0  0  0  0  0
    8.2012    7.1792   -5.6121 C   0  0  0  0  0  0  0  0  0  0  0  0
    8.0373    7.2362   -4.2083 C   0  0  0  0  0  0  0  0  0  0  0  0
    5.9294    7.6528   -3.0682 C   0  0  0  0  0  0  0  0  0  0  0  0
    8.7264    6.3599   -3.3580 C   0  0  0  0  0  0  0  0  0  0  0  0
    9.5681    5.3839   -3.9165 C   0  0  0  0  0  0  0  0  0  0  0  0
    9.6444    3.8951   -1.9155 C   0  0  0  0  0  0  0  0  0  0  0  0
   15.7362    4.9136   -3.9056 C   0  0  0  0  0  0  0  0  0  0  0  0
   16.1540    4.2258   -2.7541 C   0  0  0  0  0  0  0  0  0  0  0  0
   15.5197    4.5972   -1.5133 C   0  0  0  0  0  0  0  0  0  0  0  0
   14.6058    5.6605   -1.6291 C   0  0  0  0  0  0  0  0  0  0  0  0
   18.6245    9.4823   -5.2155 N   0  0  0  0  0  0  0  0  0  0  0  0
   18.3751    5.9466   -5.7328 N   0  0  0  0  0  0  0  0  0  0  0  0
   15.1879    4.7247   -6.2581 N   0  0  0  0  0  0  0  0  0  0  0  0
   11.7723    4.9048   -6.8146 N   0  0  0  0  0  0  0  0  0  0  0  0
   19.1851    7.8793   -3.6428 O   0  0  0  0  0  0  0  0  0  0  0  0
   16.4861    7.1470   -5.4670 O   0  0  0  0  0  0  0  0  0  0  0  0
   13.8567    3.3583   -5.0720 O   0  0  0  0  0  0  0  0  0  0  0  0
    7.1703    8.1861   -3.6288 O   0  0  0  0  0  0  0  0  0  0  0  0
   10.2821    4.5198   -3.0662 O   0  0  0  0  0  0  0  0  0  0  0  0
   14.5576    6.1113   -3.3348 S   0  0  0  0  0  0  0  0  0  0  0  0
   18.5142   10.0750   -3.2005 H   0  0  0  0  0  0  0  0  0  0  0  0
   19.2001   11.2979   -4.3233 H   0  0  0  0  0  0  0  0  0  0  0  0
   17.4342   10.9691   -4.3233 H   0  0  0  0  0  0  0  0  0  0  0  0
   20.2530    6.7848   -5.7233 H   0  0  0  0  0  0  0  0  0  0  0  0
   17.9753    8.0782   -7.4286 H   0  0  0  0  0  0  0  0  0  0  0  0
   19.7342    8.5251   -7.4773 H   0  0  0  0  0  0  0  0  0  0  0  0
   20.0915    7.0139   -9.0376 H   0  0  0  0  0  0  0  0  0  0  0  0
   19.4832    5.7245   -7.9108 H   0  0  0  0  0  0  0  0  0  0  0  0
   18.9317    7.3626  -11.0640 H   0  0  0  0  0  0  0  0  0  0  0  0
   16.9482    7.0381  -12.5452 H   0  0  0  0  0  0  0  0  0  0  0  0
   14.8915    5.8974  -11.6570 H   0  0  0  0  0  0  0  0  0  0  0  0
   14.8367    5.1438   -9.2587 H   0  0  0  0  0  0  0  0  0  0  0  0
   16.8380    5.4415   -7.7989 H   0  0  0  0  0  0  0  0  0  0  0  0
   16.7790    3.7864   -5.3765 H   0  0  0  0  0  0  0  0  0  0  0  0
   13.3270    4.3278   -8.1357 H   0  0  0  0  0  0  0  0  0  0  0  0
   12.5122    2.9765   -7.2254 H   0  0  0  0  0  0  0  0  0  0  0  0
   11.1833    3.6449   -5.1219 H   0  0  0  0  0  0  0  0  0  0  0  0
   10.0880    3.5296   -6.5387 H   0  0  0  0  0  0  0  0  0  0  0  0
    9.2113    6.1078   -7.2465 H   0  0  0  0  0  0  0  0  0  0  0  0
    7.6694    7.8812   -6.2712 H   0  0  0  0  0  0  0  0  0  0  0  0
    5.9835    7.6760   -1.9698 H   0  0  0  0  0  0  0  0  0  0  0  0
    5.0810    8.2657   -3.4066 H   0  0  0  0  0  0  0  0  0  0  0  0
    5.7903    6.6154   -3.4066 H   0  0  0  0  0  0  0  0  0  0  0  0
    8.6093    6.4358   -2.2669 H   0  0  0  0  0  0  0  0  0  0  0  0
   10.0692    4.3112   -0.9901 H   0  0  0  0  0  0  0  0  0  0  0  0
    8.5626    4.0928   -1.9436 H   0  0  0  0  0  0  0  0  0  0  0  0
    9.8195    2.8095   -1.9436 H   0  0  0  0  0  0  0  0  0  0  0  0
   16.9261    3.4434   -2.7967 H   0  0  0  0  0  0  0  0  0  0  0  0
   15.7321    4.0928   -0.5591 H   0  0  0  0  0  0  0  0  0  0  0  0
   14.0312    6.1225   -0.8127 H   0  0  0  0  0  0  0  0  0  0  0  0
   18.4806    9.7106   -6.2095 H   0  0  0  0  0  0  0  0  0  0  0  0
   18.8101    5.0165   -5.8138 H   0  0  0  0  0  0  0  0  0  0  0  0
   15.3187    5.2858   -7.1119 H   0  0  0  0  0  0  0  0  0  0  0  0
   12.1482    5.7158   -6.3029 H   0  0  0  0  0  0  0  0  0  0  0  0
   11.3127    5.1799   -7.6944 H   0  0  0  0  0  0  0  0  0  0  0  0
  1 29  1  0
  2  3  1  0
  2 29  1  0
  2 33  2  0
  3  4  1  0
  3 30  1  0
  4  5  1  0
  5  6  1  0
  6  7  2  0
  6 11  1  0
  7  8  1  0
  8  9  2  0
  9 10  1  0
 10 11  2  0
 12 13  1  0
 12 30  1  0
 12 34  2  0
 13 25  1  0
 13 31  1  0
 14 15  1  0
 14 31  1  0
 14 35  2  0
 15 32  1  0
 16 17  1  0
 16 32  1  0
 17 18  2  0
 17 23  1  0
 18 19  1  0
 19 20  2  0
 20 22  1  0
 20 36  1  0
 21 36  1  0
 22 23  2  0
 23 37  1  0
 24 37  1  0
 25 26  2  0
 25 38  1  0
 26 27  1  0
 27 28  2  0
 28 38  1  0
  1 39  1  0
  1 40  1  0
  1 41  1  0
  3 42  1  6
  4 43  1  0
  4 44  1  0
  5 45  1  0
  5 46  1  0
  7 47  1  0
  8 48  1  0
  9 49  1  0
 10 50  1  0
 11 51  1  0
 13 52  1  1
 15 53  1  0
 15 54  1  0
 16 55  1  0
 16 56  1  0
 18 57  1  0
 19 58  1  0
 21 59  1  0
 21 60  1  0
 21 61  1  0
 22 62  1  0
 24 63  1  0
 24 64  1  0
 24 65  1  0
 26 66  1  0
 27 67  1  0
 28 68  1  0
 29 69  1  0
 30 70  1  0
 31 71  1  0
 32 72  1  0
 32 73  1  0
M  CHG  1  32   1
M  END
>  <filename_input>  (7) 
7U3J_L6U_docked.sdf

>  <pdb_id>  (7) 
7U3J_L6U

>  <pose_rank>  (7) 
6

>  <num_atoms_heavy>  (7) 
38

>  <num_torsions>  (7) 
14

>  <pose>  (7) 
[16.23600618509108, 4.7375526607309695, -5.2747407032202736, 0.13467867344093004, -0.5692485575242912, 0.20558698682584065, 6.134687388134427, 0.423975754339911, -3.9602861261405446, -4.452605521440574, 6.378456468409248, -3.220008155323209, 3.0719062093006717, -5.919690658320673, -18.39086312670881, -33.84569657078805, -36.1508268943182, -9.977927801906228, 1.8551107041200456, 0.7430193121037034]

>  <energy>  (7) 
-772.5768335048608

>  <inter_energy>  (7) 
-864.8596460792742

>  <intra_energy>  (7) 
91.65350342553397

>  <rmsd>  (7) 
4.03971

>  <sdf_rank>  (7) 
0

$$$$

     RDKit          3D

 73 75  0  0  0  0  0  0  0  0999 V2000
    8.0499   12.0438   -5.5966 C   0  0  0  0  0  0  0  0  0  0  0  0
    9.8696   10.3208   -5.9054 C   0  0  0  0  0  0  0  0  0  0  0  0
   10.2943    8.9603   -6.2770 C   0  0  2  0  0  0  0  0  0  0  0  0
    9.0540    8.0823   -6.7587 C   0  0  0  0  0  0  0  0  0  0  0  0
    8.8654    6.8541   -5.9050 C   0  0  0  0  0  0  0  0  0  0  0  0
    7.7869    7.0618   -4.8061 C   0  0  0  0  0  0  0  0  0  0  0  0
    7.4741    6.0077   -3.9117 C   0  0  0  0  0  0  0  0  0  0  0  0
    6.5045    6.1686   -2.9064 C   0  0  0  0  0  0  0  0  0  0  0  0
    5.8398    7.3997   -2.7642 C   0  0  0  0  0  0  0  0  0  0  0  0
    6.1528    8.4565   -3.6454 C   0  0  0  0  0  0  0  0  0  0  0  0
    7.1321    8.2875   -4.6406 C   0  0  0  0  0  0  0  0  0  0  0  0
   11.9958    7.3716   -5.4904 C   0  0  0  0  0  0  0  0  0  0  0  0
   12.6293    6.5743   -4.3454 C   0  0  1  0  0  0  0  0  0  0  0  0
   14.9722    6.1099   -3.6719 C   0  0  0  0  0  0  0  0  0  0  0  0
   16.4755    6.0701   -3.9351 C   0  0  0  0  0  0  0  0  0  0  0  0
   17.3186    5.2630   -6.2067 C   0  0  0  0  0  0  0  0  0  0  0  0
   17.9022    5.7963   -7.5115 C   0  0  0  0  0  0  0  0  0  0  0  0
   18.9872    6.7121   -7.4772 C   0  0  0  0  0  0  0  0  0  0  0  0
   19.5793    7.2136   -8.6905 C   0  0  0  0  0  0  0  0  0  0  0  0
   19.0657    6.7553   -9.9262 C   0  0  0  0  0  0  0  0  0  0  0  0
   19.1718    8.5141  -11.6032 C   0  0  0  0  0  0  0  0  0  0  0  0
   17.9943    5.8527   -9.9803 C   0  0  0  0  0  0  0  0  0  0  0  0
   17.4455    5.3683   -8.7815 C   0  0  0  0  0  0  0  0  0  0  0  0
   14.9950    4.9694   -9.0313 C   0  0  0  0  0  0  0  0  0  0  0  0
   11.9916    5.2590   -4.4819 C   0  0  0  0  0  0  0  0  0  0  0  0
   10.7598    4.8524   -3.9425 C   0  0  0  0  0  0  0  0  0  0  0  0
   10.3376    3.5055   -4.2380 C   0  0  0  0  0  0  0  0  0  0  0  0
   11.2057    2.8044   -5.0947 C   0  0  0  0  0  0  0  0  0  0  0  0
    8.4818   10.6921   -5.9534 N   0  0  0  0  0  0  0  0  0  0  0  0
   10.9907    8.2372   -5.2382 N   0  0  0  0  0  0  0  0  0  0  0  0
   14.0453    6.5402   -4.5895 N   0  0  0  0  0  0  0  0  0  0  0  0
   16.8297    6.4625   -5.3333 N   0  0  0  0  0  0  0  0  0  0  0  0
   10.7119   11.1663   -5.5550 O   0  0  0  0  0  0  0  0  0  0  0  0
   12.4017    7.2256   -6.6755 O   0  0  0  0  0  0  0  0  0  0  0  0
   14.5470    5.6930   -2.5704 O   0  0  0  0  0  0  0  0  0  0  0  0
   19.6249    7.2025  -11.1416 O   0  0  0  0  0  0  0  0  0  0  0  0
   16.3531    4.4830   -8.8306 O   0  0  0  0  0  0  0  0  0  0  0  0
   12.5570    3.8829   -5.4494 S   0  0  0  0  0  0  0  0  0  0  0  0
    8.0187   12.1416   -4.5014 H   0  0  0  0  0  0  0  0  0  0  0  0
    8.7588   12.7763   -6.0100 H   0  0  0  0  0  0  0  0  0  0  0  0
    7.0477   12.2296   -6.0100 H   0  0  0  0  0  0  0  0  0  0  0  0
   11.0105    9.1166   -7.0971 H   0  0  0  0  0  0  0  0  0  0  0  0
    8.1425    8.6957   -6.7046 H   0  0  0  0  0  0  0  0  0  0  0  0
    9.2514    7.7525   -7.7894 H   0  0  0  0  0  0  0  0  0  0  0  0
    8.5569    6.0183   -6.5503 H   0  0  0  0  0  0  0  0  0  0  0  0
    9.8212    6.6418   -5.4036 H   0  0  0  0  0  0  0  0  0  0  0  0
    7.9997    5.0460   -4.0059 H   0  0  0  0  0  0  0  0  0  0  0  0
    6.2661    5.3328   -2.2322 H   0  0  0  0  0  0  0  0  0  0  0  0
    5.0853    7.5373   -1.9757 H   0  0  0  0  0  0  0  0  0  0  0  0
    5.6275    9.4185   -3.5534 H   0  0  0  0  0  0  0  0  0  0  0  0
    7.3871    9.1312   -5.2987 H   0  0  0  0  0  0  0  0  0  0  0  0
   12.4912    6.9756   -3.3305 H   0  0  0  0  0  0  0  0  0  0  0  0
   16.9725    6.7621   -3.2393 H   0  0  0  0  0  0  0  0  0  0  0  0
   16.8100    5.0326   -3.7876 H   0  0  0  0  0  0  0  0  0  0  0  0
   16.4699    4.5990   -6.4277 H   0  0  0  0  0  0  0  0  0  0  0  0
   18.0893    4.6989   -5.6609 H   0  0  0  0  0  0  0  0  0  0  0  0
   19.3826    7.0444   -6.5060 H   0  0  0  0  0  0  0  0  0  0  0  0
   20.4095    7.9345   -8.6570 H   0  0  0  0  0  0  0  0  0  0  0  0
   18.9514    9.1523  -10.7348 H   0  0  0  0  0  0  0  0  0  0  0  0
   19.9606    8.9815  -12.2110 H   0  0  0  0  0  0  0  0  0  0  0  0
   18.2628    8.3950  -12.2110 H   0  0  0  0  0  0  0  0  0  0  0  0
   17.5884    5.5278  -10.9497 H   0  0  0  0  0  0  0  0  0  0  0  0
   14.5185    5.1400   -8.0546 H   0  0  0  0  0  0  0  0  0  0  0  0
   15.0231    5.9133   -9.5954 H   0  0  0  0  0  0  0  0  0  0  0  0
   14.4175    4.2222   -9.5954 H   0  0  0  0  0  0  0  0  0  0  0  0
   10.1481    5.5274   -3.3258 H   0  0  0  0  0  0  0  0  0  0  0  0
    9.4166    3.0645   -3.8290 H   0  0  0  0  0  0  0  0  0  0  0  0
   11.0686    1.7800   -5.4714 H   0  0  0  0  0  0  0  0  0  0  0  0
    7.7804    9.9958   -6.2434 H   0  0  0  0  0  0  0  0  0  0  0  0
   10.7074    8.3891   -4.2596 H   0  0  0  0  0  0  0  0  0  0  0  0
   14.3855    6.8577   -5.5083 H   0  0  0  0  0  0  0  0  0  0  0  0
   15.9966    6.8730   -5.7787 H   0  0  0  0  0  0  0  0  0  0  0  0
   17.6086    7.1339   -5.2738 H   0  0  0  0  0  0  0  0  0  0  0  0
  1 29  1  0
  2  3  1  0
  2 29  1  0
  2 33  2  0
  3  4  1  0
  3 30  1  0
  4  5  1  0
  5  6  1  0
  6  7  2  0
  6 11  1  0
  7  8  1  0
  8  9  2  0
  9 10  1  0
 10 11  2  0
 12 13  1  0
 12 30  1  0
 12 34  2  0
 13 25  1  0
 13 31  1  0
 14 15  1  0
 14 31  1  0
 14 35  2  0
 15 32  1  0
 16 17  1  0
 16 32  1  0
 17 18  2  0
 17 23  1  0
 18 19  1  0
 19 20  2  0
 20 22  1  0
 20 36  1  0
 21 36  1  0
 22 23  2  0
 23 37  1  0
 24 37  1  0
 25 26  2  0
 25 38  1  0
 26 27  1  0
 27 28  2  0
 28 38  1  0
  1 39  1  0
  1 40  1  0
  1 41  1  0
  3 42  1  6
  4 43  1  0
  4 44  1  0
  5 45  1  0
  5 46  1  0
  7 47  1  0
  8 48  1  0
  9 49  1  0
 10 50  1  0
 11 51  1  0
 13 52  1  1
 15 53  1  0
 15 54  1  0
 16 55  1  0
 16 56  1  0
 18 57  1  0
 19 58  1  0
 21 59  1  0
 21 60  1  0
 21 61  1  0
 22 62  1  0
 24 63  1  0
 24 64  1  0
 24 65  1  0
 26 66  1  0
 27 67  1  0
 28 68  1  0
 29 69  1  0
 30 70  1  0
 31 71  1  0
 32 72  1  0
 32 73  1  0
M  CHG  1  32   1
M  END
>  <filename_input>  (8) 
7U3J_L6U_docked.sdf

>  <pdb_id>  (8) 
7U3J_L6U

>  <pose_rank>  (8) 
7

>  <num_atoms_heavy>  (8) 
38

>  <num_torsions>  (8) 
14

>  <pose>  (8) 
[12.629304203401254, 6.57430265488995, -4.345391694426346, -0.1554658425067835, -1.9196317551223028, 2.265016327978532, 0.2391223897277369, 0.1299659983467392, -1.0273157564261817, 1.8298244691847543, 1.1664377789913731, 2.6521189740005555, -2.0117316427827197, -0.21970231718692063, 2.141099275573719, -2.7978123989091372, 1.9957903739858798, 2.5955594344955912, -1.4495364810304676, -1.4356084342512847]

>  <energy>  (8) 
-748.700571775014

>  <inter_energy>  (8) 
-781.4712645192983

>  <intra_energy>  (8) 
42.27041930958292

>  <rmsd>  (8) 
8.76347

>  <sdf_rank>  (8) 
0

$$$$

     RDKit          3D

 73 75  0  0  0  0  0  0  0  0999 V2000
   20.1286    9.0334  -11.4283 C   0  0  0  0  0  0  0  0  0  0  0  0
   18.6207    7.0220  -11.1929 C   0  0  0  0  0  0  0  0  0  0  0  0
   17.5888    6.2754  -10.4531 C   0  0  2  0  0  0  0  0  0  0  0  0
   16.1274    6.7910  -10.8267 C   0  0  0  0  0  0  0  0  0  0  0  0
   15.6583    6.2480  -12.1526 C   0  0  0  0  0  0  0  0  0  0  0  0
   15.5957    7.3469  -13.2491 C   0  0  0  0  0  0  0  0  0  0  0  0
   14.5777    7.3079  -14.2344 C   0  0  0  0  0  0  0  0  0  0  0  0
   14.4956    8.2904  -15.2368 C   0  0  0  0  0  0  0  0  0  0  0  0
   15.4239    9.3465  -15.2607 C   0  0  0  0  0  0  0  0  0  0  0  0
   16.4347    9.3966  -14.2773 C   0  0  0  0  0  0  0  0  0  0  0  0
   16.5007    8.4141  -13.2732 C   0  0  0  0  0  0  0  0  0  0  0  0
   16.7278    5.9900   -8.1694 C   0  0  0  0  0  0  0  0  0  0  0  0
   16.9255    6.1299   -6.6564 C   0  0  1  0  0  0  0  0  0  0  0  0
   15.3073    6.0472   -4.7766 C   0  0  0  0  0  0  0  0  0  0  0  0
   13.9274    6.2767   -4.1652 C   0  0  0  0  0  0  0  0  0  0  0  0
   12.1258    4.7498   -5.1376 C   0  0  0  0  0  0  0  0  0  0  0  0
   11.0146    5.7926   -5.0634 C   0  0  0  0  0  0  0  0  0  0  0  0
   11.2491    7.1091   -5.5417 C   0  0  0  0  0  0  0  0  0  0  0  0
   10.2137    8.1097   -5.5117 C   0  0  0  0  0  0  0  0  0  0  0  0
    8.9426    7.7441   -5.0100 C   0  0  0  0  0  0  0  0  0  0  0  0
    8.1128    9.9101   -5.7424 C   0  0  0  0  0  0  0  0  0  0  0  0
    8.6925    6.4500   -4.5321 C   0  0  0  0  0  0  0  0  0  0  0  0
    9.7162    5.4898   -4.5869 C   0  0  0  0  0  0  0  0  0  0  0  0
   10.1131    3.7352   -2.8576 C   0  0  0  0  0  0  0  0  0  0  0  0
   17.7958    7.3079   -6.5561 C   0  0  0  0  0  0  0  0  0  0  0  0
   17.5438    8.4918   -5.8430 C   0  0  0  0  0  0  0  0  0  0  0  0
   18.5719    9.5022   -5.8833 C   0  0  0  0  0  0  0  0  0  0  0  0
   19.7274    9.1208   -6.5894 C   0  0  0  0  0  0  0  0  0  0  0  0
   19.1114    8.2784  -10.6962 N   0  0  0  0  0  0  0  0  0  0  0  0
   17.7313    6.3059   -9.0158 N   0  0  0  0  0  0  0  0  0  0  0  0
   15.6259    6.3409   -6.0800 N   0  0  0  0  0  0  0  0  0  0  0  0
   13.1532    5.0100   -3.9898 N   0  0  0  0  0  0  0  0  0  0  0  0
   19.0712    6.5750  -12.2628 O   0  0  0  0  0  0  0  0  0  0  0  0
   15.6297    5.5842   -8.6384 O   0  0  0  0  0  0  0  0  0  0  0  0
   16.2188    5.5995   -4.0441 O   0  0  0  0  0  0  0  0  0  0  0  0
    7.8906    8.6833   -4.9781 O   0  0  0  0  0  0  0  0  0  0  0  0
    9.4780    4.1975   -4.0841 O   0  0  0  0  0  0  0  0  0  0  0  0
   19.4317    7.4981   -7.2175 S   0  0  0  0  0  0  0  0  0  0  0  0
   20.8002    9.5319  -10.7139 H   0  0  0  0  0  0  0  0  0  0  0  0
   20.7104    8.3468  -12.0607 H   0  0  0  0  0  0  0  0  0  0  0  0
   19.6398    9.7891  -12.0607 H   0  0  0  0  0  0  0  0  0  0  0  0
   17.7330    5.2318  -10.7696 H   0  0  0  0  0  0  0  0  0  0  0  0
   15.4261    6.4689  -10.0429 H   0  0  0  0  0  0  0  0  0  0  0  0
   16.1633    7.8878  -10.9025 H   0  0  0  0  0  0  0  0  0  0  0  0
   16.3542    5.4612  -12.4792 H   0  0  0  0  0  0  0  0  0  0  0  0
   14.6416    5.8516  -12.0140 H   0  0  0  0  0  0  0  0  0  0  0  0
   13.8381    6.4938  -14.2146 H   0  0  0  0  0  0  0  0  0  0  0  0
   13.7065    8.2331  -16.0010 H   0  0  0  0  0  0  0  0  0  0  0  0
   15.3628   10.1239  -16.0366 H   0  0  0  0  0  0  0  0  0  0  0  0
   17.1757   10.2094  -14.2962 H   0  0  0  0  0  0  0  0  0  0  0  0
   17.2751    8.4855  -12.4953 H   0  0  0  0  0  0  0  0  0  0  0  0
   17.3680    5.2678   -6.1357 H   0  0  0  0  0  0  0  0  0  0  0  0
   14.0537    6.7505   -3.1805 H   0  0  0  0  0  0  0  0  0  0  0  0
   13.3612    6.9176   -4.8570 H   0  0  0  0  0  0  0  0  0  0  0  0
   11.6946    3.7442   -5.0241 H   0  0  0  0  0  0  0  0  0  0  0  0
   12.6338    4.8202   -6.1107 H   0  0  0  0  0  0  0  0  0  0  0  0
   12.2399    7.3694   -5.9425 H   0  0  0  0  0  0  0  0  0  0  0  0
   10.4063    9.1318   -5.8696 H   0  0  0  0  0  0  0  0  0  0  0  0
    8.2650   10.7511   -5.0498 H   0  0  0  0  0  0  0  0  0  0  0  0
    9.0039    9.7910   -6.3761 H   0  0  0  0  0  0  0  0  0  0  0  0
    7.2364   10.1111   -6.3761 H   0  0  0  0  0  0  0  0  0  0  0  0
    7.7066    6.1898   -4.1193 H   0  0  0  0  0  0  0  0  0  0  0  0
    9.5670    4.1328   -1.9895 H   0  0  0  0  0  0  0  0  0  0  0  0
   10.0974    2.6357   -2.8285 H   0  0  0  0  0  0  0  0  0  0  0  0
   11.1546    4.0879   -2.8285 H   0  0  0  0  0  0  0  0  0  0  0  0
   16.6093    8.6405   -5.2820 H   0  0  0  0  0  0  0  0  0  0  0  0
   18.4622   10.4860   -5.4036 H   0  0  0  0  0  0  0  0  0  0  0  0
   20.6404    9.7193   -6.7243 H   0  0  0  0  0  0  0  0  0  0  0  0
   18.7411    8.6530   -9.8111 H   0  0  0  0  0  0  0  0  0  0  0  0
   18.6406    6.5814   -8.6182 H   0  0  0  0  0  0  0  0  0  0  0  0
   14.8887    6.7365   -6.6808 H   0  0  0  0  0  0  0  0  0  0  0  0
   13.8167    4.2227   -3.9603 H   0  0  0  0  0  0  0  0  0  0  0  0
   12.6171    5.0988   -3.1148 H   0  0  0  0  0  0  0  0  0  0  0  0
  1 29  1  0
  2  3  1  0
  2 29  1  0
  2 33  2  0
  3  4  1  0
  3 30  1  0
  4  5  1  0
  5  6  1  0
  6  7  2  0
  6 11  1  0
  7  8  1  0
  8  9  2  0
  9 10  1  0
 10 11  2  0
 12 13  1  0
 12 30  1  0
 12 34  2  0
 13 25  1  0
 13 31  1  0
 14 15  1  0
 14 31  1  0
 14 35  2  0
 15 32  1  0
 16 17  1  0
 16 32  1  0
 17 18  2  0
 17 23  1  0
 18 19  1  0
 19 20  2  0
 20 22  1  0
 20 36  1  0
 21 36  1  0
 22 23  2  0
 23 37  1  0
 24 37  1  0
 25 26  2  0
 25 38  1  0
 26 27  1  0
 27 28  2  0
 28 38  1  0
  1 39  1  0
  1 40  1  0
  1 41  1  0
  3 42  1  6
  4 43  1  0
  4 44  1  0
  5 45  1  0
  5 46  1  0
  7 47  1  0
  8 48  1  0
  9 49  1  0
 10 50  1  0
 11 51  1  0
 13 52  1  1
 15 53  1  0
 15 54  1  0
 16 55  1  0
 16 56  1  0
 18 57  1  0
 19 58  1  0
 21 59  1  0
 21 60  1  0
 21 61  1  0
 22 62  1  0
 24 63  1  0
 24 64  1  0
 24 65  1  0
 26 66  1  0
 27 67  1  0
 28 68  1  0
 29 69  1  0
 30 70  1  0
 31 71  1  0
 32 72  1  0
 32 73  1  0
M  CHG  1  32   1
M  END
>  <filename_input>  (9) 
7U3J_L6U_docked.sdf

>  <pdb_id>  (9) 
7U3J_L6U

>  <pose_rank>  (9) 
8

>  <num_atoms_heavy>  (9) 
38

>  <num_torsions>  (9) 
14

>  <pose>  (9) 
[16.92547290333156, 6.129894570704935, -6.656354045457696, -0.907182986062622, 0.6840023391251833, 0.06827615084532969, -2.3985285843430164, -7.308960436355969, -1.9413188039240967, -3.0135620443295856, 10.91755807890467, 11.603589226317277, -1.394957629270508, 12.123089019614813, 16.605865585378055, -8.899247261565014, -2.5172706191485723, -3.351017144488772, 0.1869842213357008, -1.939963517780508]

>  <energy>  (9) 
-579.6684217460576

>  <inter_energy>  (9) 
-685.8502699461608

>  <intra_energy>  (9) 
109.73596533029787

>  <rmsd>  (9) 
5.19942

>  <sdf_rank>  (9) 
0

$$$$

     RDKit          3D

 73 75  0  0  0  0  0  0  0  0999 V2000
   15.1125    4.7899  -11.5013 C   0  0  0  0  0  0  0  0  0  0  0  0
   15.9273    6.1148   -9.5124 C   0  0  0  0  0  0  0  0  0  0  0  0
   16.9563    6.9432   -8.8610 C   0  0  2  0  0  0  0  0  0  0  0  0
   18.4139    6.5674   -9.3856 C   0  0  0  0  0  0  0  0  0  0  0  0
   19.3765    7.7203   -9.2546 C   0  0  0  0  0  0  0  0  0  0  0  0
   19.7162    8.3616  -10.6284 C   0  0  0  0  0  0  0  0  0  0  0  0
   18.9412    8.0417  -11.7710 C   0  0  0  0  0  0  0  0  0  0  0  0
   19.2245    8.6088  -13.0260 C   0  0  0  0  0  0  0  0  0  0  0  0
   20.2822    9.5262  -13.1578 C   0  0  0  0  0  0  0  0  0  0  0  0
   21.0524    9.8563  -12.0224 C   0  0  0  0  0  0  0  0  0  0  0  0
   20.7532    9.2907  -10.7700 C   0  0  0  0  0  0  0  0  0  0  0  0
   17.3029    5.7736   -6.7280 C   0  0  0  0  0  0  0  0  0  0  0  0
   17.1985    5.7559   -5.1993 C   0  0  1  0  0  0  0  0  0  0  0  0
   15.0083    5.3861   -4.0926 C   0  0  0  0  0  0  0  0  0  0  0  0
   13.5835    5.8014   -3.7346 C   0  0  0  0  0  0  0  0  0  0  0  0
   11.7677    5.0293   -5.3560 C   0  0  0  0  0  0  0  0  0  0  0  0
   10.6729    6.0491   -5.0575 C   0  0  0  0  0  0  0  0  0  0  0  0
   10.7582    7.3568   -5.6050 C   0  0  0  0  0  0  0  0  0  0  0  0
    9.7285    8.3349   -5.3655 C   0  0  0  0  0  0  0  0  0  0  0  0
    8.6123    7.9555   -4.5838 C   0  0  0  0  0  0  0  0  0  0  0  0
    7.4078    9.9318   -5.3322 C   0  0  0  0  0  0  0  0  0  0  0  0
    8.5111    6.6698   -4.0338 C   0  0  0  0  0  0  0  0  0  0  0  0
    9.5227    5.7312   -4.2956 C   0  0  0  0  0  0  0  0  0  0  0  0
    9.6978    4.2342   -2.3068 C   0  0  0  0  0  0  0  0  0  0  0  0
   18.1993    6.7530   -4.7999 C   0  0  0  0  0  0  0  0  0  0  0  0
   18.0594    7.7519   -3.8220 C   0  0  0  0  0  0  0  0  0  0  0  0
   19.2028    8.6016   -3.5975 C   0  0  0  0  0  0  0  0  0  0  0  0
   20.3351    8.2568   -4.3579 C   0  0  0  0  0  0  0  0  0  0  0  0
   16.1323    5.6049  -10.8406 N   0  0  0  0  0  0  0  0  0  0  0  0
   16.9597    6.8825   -7.4176 N   0  0  0  0  0  0  0  0  0  0  0  0
   15.8553    6.1428   -4.8648 N   0  0  0  0  0  0  0  0  0  0  0  0
   12.5751    4.7438   -4.0495 N   0  0  0  0  0  0  0  0  0  0  0  0
   14.8640    5.8563   -8.9208 O   0  0  0  0  0  0  0  0  0  0  0  0
   17.7048    4.7563   -7.3556 O   0  0  0  0  0  0  0  0  0  0  0  0
   15.4520    4.3110   -3.6287 O   0  0  0  0  0  0  0  0  0  0  0  0
    7.5686    8.8719   -4.3375 O   0  0  0  0  0  0  0  0  0  0  0  0
    9.4386    4.4483   -3.7240 O   0  0  0  0  0  0  0  0  0  0  0  0
   19.8749    6.8855   -5.3693 S   0  0  0  0  0  0  0  0  0  0  0  0
   14.4911    4.2932  -10.7415 H   0  0  0  0  0  0  0  0  0  0  0  0
   14.4791    5.4334  -12.1295 H   0  0  0  0  0  0  0  0  0  0  0  0
   15.6006    4.0302  -12.1295 H   0  0  0  0  0  0  0  0  0  0  0  0
   16.6888    7.9731   -9.1400 H   0  0  0  0  0  0  0  0  0  0  0  0
   18.7946    5.7186   -8.7986 H   0  0  0  0  0  0  0  0  0  0  0  0
   18.3350    6.3104  -10.4523 H   0  0  0  0  0  0  0  0  0  0  0  0
   18.9247    8.4871   -8.6081 H   0  0  0  0  0  0  0  0  0  0  0  0
   20.3109    7.3321   -8.8233 H   0  0  0  0  0  0  0  0  0  0  0  0
   18.1025    7.3366  -11.6743 H   0  0  0  0  0  0  0  0  0  0  0  0
   18.6198    8.3355  -13.9032 H   0  0  0  0  0  0  0  0  0  0  0  0
   20.5064    9.9809  -14.1340 H   0  0  0  0  0  0  0  0  0  0  0  0
   21.8922   10.5604  -12.1175 H   0  0  0  0  0  0  0  0  0  0  0  0
   21.3429    9.5831   -9.8886 H   0  0  0  0  0  0  0  0  0  0  0  0
   17.3842    4.7914   -4.7041 H   0  0  0  0  0  0  0  0  0  0  0  0
   13.5408    6.0178   -2.6569 H   0  0  0  0  0  0  0  0  0  0  0  0
   13.3349    6.6863   -4.3388 H   0  0  0  0  0  0  0  0  0  0  0  0
   11.3119    4.0959   -5.7181 H   0  0  0  0  0  0  0  0  0  0  0  0
   12.4428    5.4277   -6.1276 H   0  0  0  0  0  0  0  0  0  0  0  0
   11.6268    7.6276   -6.2233 H   0  0  0  0  0  0  0  0  0  0  0  0
    9.8080    9.3507   -5.7798 H   0  0  0  0  0  0  0  0  0  0  0  0
    7.2617   10.8949   -4.8213 H   0  0  0  0  0  0  0  0  0  0  0  0
    8.3084    9.9835   -5.9617 H   0  0  0  0  0  0  0  0  0  0  0  0
    6.5324    9.7141   -5.9617 H   0  0  0  0  0  0  0  0  0  0  0  0
    7.6500    6.3995   -3.4049 H   0  0  0  0  0  0  0  0  0  0  0  0
    8.9850    4.8229   -1.7107 H   0  0  0  0  0  0  0  0  0  0  0  0
    9.5802    3.1665   -2.0698 H   0  0  0  0  0  0  0  0  0  0  0  0
   10.7240    4.5516   -2.0698 H   0  0  0  0  0  0  0  0  0  0  0  0
   17.1248    7.8796   -3.2560 H   0  0  0  0  0  0  0  0  0  0  0  0
   19.1907    9.4462   -2.8928 H   0  0  0  0  0  0  0  0  0  0  0  0
   21.3190    8.7478   -4.3278 H   0  0  0  0  0  0  0  0  0  0  0  0
   17.0107    5.8167  -11.3350 H   0  0  0  0  0  0  0  0  0  0  0  0
   16.6877    7.7243   -6.8901 H   0  0  0  0  0  0  0  0  0  0  0  0
   15.5068    7.0421   -5.2262 H   0  0  0  0  0  0  0  0  0  0  0  0
   13.0668    3.8454   -4.1588 H   0  0  0  0  0  0  0  0  0  0  0  0
   11.9001    4.7246   -3.2717 H   0  0  0  0  0  0  0  0  0  0  0  0
  1 29  1  0
  2  3  1  0
  2 29  1  0
  2 33  2  0
  3  4  1  0
  3 30  1  0
  4  5  1  0
  5  6  1  0
  6  7  2  0
  6 11  1  0
  7  8  1  0
  8  9  2  0
  9 10  1  0
 10 11  2  0
 12 13  1  0
 12 30  1  0
 12 34  2  0
 13 25  1  0
 13 31  1  0
 14 15  1  0
 14 31  1  0
 14 35  2  0
 15 32  1  0
 16 17  1  0
 16 32  1  0
 17 18  2  0
 17 23  1  0
 18 19  1  0
 19 20  2  0
 20 22  1  0
 20 36  1  0
 21 36  1  0
 22 23  2  0
 23 37  1  0
 24 37  1  0
 25 26  2  0
 25 38  1  0
 26 27  1  0
 27 28  2  0
 28 38  1  0
  1 39  1  0
  1 40  1  0
  1 41  1  0
  3 42  1  1
  4 43  1  0
  4 44  1  0
  5 45  1  0
  5 46  1  0
  7 47  1  0
  8 48  1  0
  9 49  1  0
 10 50  1  0
 11 51  1  0
 13 52  1  1
 15 53  1  0
 15 54  1  0
 16 55  1  0
 16 56  1  0
 18 57  1  0
 19 58  1  0
 21 59  1  0
 21 60  1  0
 21 61  1  0
 22 62  1  0
 24 63  1  0
 24 64  1  0
 24 65  1  0
 26 66  1  0
 27 67  1  0
 28 68  1  0
 29 69  1  0
 30 70  1  0
 31 71  1  0
 32 72  1  0
 32 73  1  0
M  CHG  1  32   1
M  END
>  <filename_input>  (10) 
7U3J_L6U_docked.sdf

>  <pdb_id>  (10) 
7U3J_L6U

>  <pose_rank>  (10) 
9

>  <num_atoms_heavy>  (10) 
38

>  <num_torsions>  (10) 
14

>  <pose>  (10) 
[17.198523543419704, 5.755900088949029, -5.199293238513563, -0.7489297588677976, 0.5584097137574578, -0.13606660487545258, -2.1676794985198677, 3.514800857734006, 2.690801255759834, 1.2805464273639346, -0.3205787411826894, -0.9168152035577444, 1.3601352355841654, -0.9969577467075215, -1.8400624596102917, -2.6891257859040665, -2.7173312559155294, 3.522250131958655, 0.4051725934430852, -1.3163819833564951]

>  <energy>  (10) 
-748.1455225716419

>  <inter_energy>  (10) 
-782.8040988560945

>  <intra_energy>  (10) 
37.34273486367973

>  <rmsd>  (10) 
4.24536

>  <sdf_rank>  (10) 
0

$$$$

     RDKit          3D

 73 75  0  0  0  0  0  0  0  0999 V2000
   21.1902    9.1536   -8.6255 C   0  0  0  0  0  0  0  0  0  0  0  0
   19.6129    7.4329   -9.5879 C   0  0  0  0  0  0  0  0  0  0  0  0
   18.2788    6.8118   -9.6490 C   0  0  2  0  0  0  0  0  0  0  0  0
   17.3032    7.6378  -10.6015 C   0  0  0  0  0  0  0  0  0  0  0  0
   17.4288    7.2145  -12.0430 C   0  0  0  0  0  0  0  0  0  0  0  0
   18.1397    8.2889  -12.9115 C   0  0  0  0  0  0  0  0  0  0  0  0
   19.2849    7.9421  -13.6711 C   0  0  0  0  0  0  0  0  0  0  0  0
   19.9465    8.8933  -14.4676 C   0  0  0  0  0  0  0  0  0  0  0  0
   19.4609   10.2114  -14.5342 C   0  0  0  0  0  0  0  0  0  0  0  0
   18.3158   10.5614  -13.7876 C   0  0  0  0  0  0  0  0  0  0  0  0
   17.6559    9.5990  -13.0026 C   0  0  0  0  0  0  0  0  0  0  0  0
   17.7794    5.5310   -7.6123 C   0  0  0  0  0  0  0  0  0  0  0  0
   16.9916    5.3806   -6.3067 C   0  0  1  0  0  0  0  0  0  0  0  0
   14.6576    4.6162   -5.9507 C   0  0  0  0  0  0  0  0  0  0  0  0
   13.1786    4.5578   -6.3249 C   0  0  0  0  0  0  0  0  0  0  0  0
   11.9024    6.5167   -5.2972 C   0  0  0  0  0  0  0  0  0  0  0  0
   10.4510    6.6952   -4.8622 C   0  0  0  0  0  0  0  0  0  0  0  0
    9.6899    7.7807   -5.3716 C   0  0  0  0  0  0  0  0  0  0  0  0
    8.3097    7.9625   -5.0029 C   0  0  0  0  0  0  0  0  0  0  0  0
    7.7185    7.0179   -4.1316 C   0  0  0  0  0  0  0  0  0  0  0  0
    5.8457    8.5080   -3.6973 C   0  0  0  0  0  0  0  0  0  0  0  0
    8.4541    5.9407   -3.6174 C   0  0  0  0  0  0  0  0  0  0  0  0
    9.7943    5.7792   -4.0053 C   0  0  0  0  0  0  0  0  0  0  0  0
    9.9684    3.8011   -2.4941 C   0  0  0  0  0  0  0  0  0  0  0  0
   17.3464    6.6044   -5.5775 C   0  0  0  0  0  0  0  0  0  0  0  0
   18.6366    7.0544   -5.2509 C   0  0  0  0  0  0  0  0  0  0  0  0
   18.7242    8.3078   -4.5430 C   0  0  0  0  0  0  0  0  0  0  0  0
   17.4851    8.9416   -4.3378 C   0  0  0  0  0  0  0  0  0  0  0  0
   19.8716    8.5224   -8.6868 N   0  0  0  0  0  0  0  0  0  0  0  0
   17.6309    6.6391   -8.3694 N   0  0  0  0  0  0  0  0  0  0  0  0
   15.5996    5.3206   -6.6597 N   0  0  0  0  0  0  0  0  0  0  0  0
   12.2819    5.0035   -5.2151 N   0  0  0  0  0  0  0  0  0  0  0  0
   20.5281    7.0251  -10.3251 O   0  0  0  0  0  0  0  0  0  0  0  0
   18.5681    4.6240   -7.9940 O   0  0  0  0  0  0  0  0  0  0  0  0
   15.0366    4.0197   -4.9171 O   0  0  0  0  0  0  0  0  0  0  0  0
    6.3643    7.1420   -3.7568 O   0  0  0  0  0  0  0  0  0  0  0  0
   10.5440    4.7151   -3.4712 O   0  0  0  0  0  0  0  0  0  0  0  0
   16.2486    7.8814   -5.0174 S   0  0  0  0  0  0  0  0  0  0  0  0
   21.4814    9.2930   -7.5739 H   0  0  0  0  0  0  0  0  0  0  0  0
   21.9280    8.5110   -9.1282 H   0  0  0  0  0  0  0  0  0  0  0  0
   21.1524   10.1313   -9.1282 H   0  0  0  0  0  0  0  0  0  0  0  0
   18.4683    5.8064  -10.0530 H   0  0  0  0  0  0  0  0  0  0  0  0
   16.2659    7.4765  -10.2731 H   0  0  0  0  0  0  0  0  0  0  0  0
   17.5816    8.6999  -10.5339 H   0  0  0  0  0  0  0  0  0  0  0  0
   18.0094    6.2814  -12.0888 H   0  0  0  0  0  0  0  0  0  0  0  0
   16.4137    7.0751  -12.4432 H   0  0  0  0  0  0  0  0  0  0  0  0
   19.6630    6.9097  -13.6370 H   0  0  0  0  0  0  0  0  0  0  0  0
   20.8426    8.6068  -15.0377 H   0  0  0  0  0  0  0  0  0  0  0  0
   19.9675   10.9603  -15.1606 H   0  0  0  0  0  0  0  0  0  0  0  0
   17.9369   11.5936  -13.8198 H   0  0  0  0  0  0  0  0  0  0  0  0
   16.7460    9.8801  -12.4520 H   0  0  0  0  0  0  0  0  0  0  0  0
   17.2052    4.4864   -5.7028 H   0  0  0  0  0  0  0  0  0  0  0  0
   13.0105    5.2088   -7.1955 H   0  0  0  0  0  0  0  0  0  0  0  0
   12.9344    3.5084   -6.5466 H   0  0  0  0  0  0  0  0  0  0  0  0
   12.0223    6.8703   -6.3319 H   0  0  0  0  0  0  0  0  0  0  0  0
   12.5604    7.0988   -4.6353 H   0  0  0  0  0  0  0  0  0  0  0  0
   10.1634    8.4958   -6.0604 H   0  0  0  0  0  0  0  0  0  0  0  0
    7.7300    8.8140   -5.3889 H   0  0  0  0  0  0  0  0  0  0  0  0
    5.7307    8.8111   -2.6462 H   0  0  0  0  0  0  0  0  0  0  0  0
    6.5479    9.1890   -4.2005 H   0  0  0  0  0  0  0  0  0  0  0  0
    4.8685    8.5515   -4.2005 H   0  0  0  0  0  0  0  0  0  0  0  0
    7.9872    5.2308   -2.9188 H   0  0  0  0  0  0  0  0  0  0  0  0
   10.1943    4.1597   -1.4790 H   0  0  0  0  0  0  0  0  0  0  0  0
    8.8782    3.7553   -2.6327 H   0  0  0  0  0  0  0  0  0  0  0  0
   10.3981    2.7980   -2.6327 H   0  0  0  0  0  0  0  0  0  0  0  0
   19.5346    6.4797   -5.5214 H   0  0  0  0  0  0  0  0  0  0  0  0
   19.6774    8.7315   -4.1937 H   0  0  0  0  0  0  0  0  0  0  0  0
   17.3188    9.9122   -3.8477 H   0  0  0  0  0  0  0  0  0  0  0  0
   19.1170    8.8641   -8.0747 H   0  0  0  0  0  0  0  0  0  0  0  0
   17.0276    7.3965   -8.0183 H   0  0  0  0  0  0  0  0  0  0  0  0
   15.2898    5.8373   -7.4951 H   0  0  0  0  0  0  0  0  0  0  0  0
   11.4160    4.4469   -5.2508 H   0  0  0  0  0  0  0  0  0  0  0  0
   12.7960    4.8654   -4.3333 H   0  0  0  0  0  0  0  0  0  0  0  0
  1 29  1  0
  2  3  1  0
  2 29  1  0
  2 33  2  0
  3  4  1  0
  3 30  1  0
  4  5  1  0
  5  6  1  0
  6  7  2  0
  6 11  1  0
  7  8  1  0
  8  9  2  0
  9 10  1  0
 10 11  2  0
 12 13  1  0
 12 30  1  0
 12 34  2  0
 13 25  1  0
 13 31  1  0
 14 15  1  0
 14 31  1  0
 14 35  2  0
 15 32  1  0
 16 17  1  0
 16 32  1  0
 17 18  2  0
 17 23  1  0
 18 19  1  0
 19 20  2  0
 20 22  1  0
 20 36  1  0
 21 36  1  0
 22 23  2  0
 23 37  1  0
 24 37  1  0
 25 26  2  0
 25 38  1  0
 26 27  1  0
 27 28  2  0
 28 38  1  0
  1 39  1  0
  1 40  1  0
  1 41  1  0
  3 42  1  6
  4 43  1  0
  4 44  1  0
  5 45  1  0
  5 46  1  0
  7 47  1  0
  8 48  1  0
  9 49  1  0
 10 50  1  0
 11 51  1  0
 13 52  1  1
 15 53  1  0
 15 54  1  0
 16 55  1  0
 16 56  1  0
 18 57  1  0
 19 58  1  0
 21 59  1  0
 21 60  1  0
 21 61  1  0
 22 62  1  0
 24 63  1  0
 24 64  1  0
 24 65  1  0
 26 66  1  0
 27 67  1  0
 28 68  1  0
 29 69  1  0
 30 70  1  0
 31 71  1  0
 32 72  1  0
 32 73  1  0
M  CHG  1  32   1
M  END
>  <filename_input>  (11) 
7U3J_L6U_docked.sdf

>  <pdb_id>  (11) 
7U3J_L6U

>  <pose_rank>  (11) 
10

>  <num_atoms_heavy>  (11) 
38

>  <num_torsions>  (11) 
14

>  <pose>  (11) 
[16.99156426385716, 5.380628525431786, -6.306670875058577, -0.7706809082233046, -0.02683220145057292, -0.023096380723557262, 0.7630405878693792, 3.697717729129997, 6.227667333223058, -3.0376374470320306, 4.7788864799944175, 5.3436288049440135, -2.968807300040841, 49.70019637252844, 44.030790999677315, -36.960880199452134, -67.96247462418133, 11.489530706334412, 5.715502925614357, -0.062172568234282785]

>  <energy>  (11) 
-700.4335981545412

>  <inter_energy>  (11) 
-737.94160115379

>  <intra_energy>  (11) 
38.31293015317622

>  <rmsd>  (11) 
4.90348

>  <sdf_rank>  (11) 
0

$$$$

     RDKit          3D

 73 75  0  0  0  0  0  0  0  0999 V2000
   22.1409    7.6419   -8.0018 C   0  0  0  0  0  0  0  0  0  0  0  0
   19.7116    6.9842   -7.7996 C   0  0  0  0  0  0  0  0  0  0  0  0
   18.4541    6.9508   -7.0334 C   0  0  2  0  0  0  0  0  0  0  0  0
   18.6023    6.0535   -5.7242 C   0  0  0  0  0  0  0  0  0  0  0  0
   18.1898    6.7974   -4.4794 C   0  0  0  0  0  0  0  0  0  0  0  0
   16.8602    6.2566   -3.8848 C   0  0  0  0  0  0  0  0  0  0  0  0
   16.5550    4.8753   -3.9714 C   0  0  0  0  0  0  0  0  0  0  0  0
   15.3605    4.3581   -3.4399 C   0  0  0  0  0  0  0  0  0  0  0  0
   14.4532    5.2147   -2.7915 C   0  0  0  0  0  0  0  0  0  0  0  0
   14.7548    6.5898   -2.6935 C   0  0  0  0  0  0  0  0  0  0  0  0
   15.9576    7.0942   -3.2196 C   0  0  0  0  0  0  0  0  0  0  0  0
   16.0360    6.8246   -7.4514 C   0  0  0  0  0  0  0  0  0  0  0  0
   14.8600    6.2276   -8.2316 C   0  0  1  0  0  0  0  0  0  0  0  0
   13.5761    4.8673   -6.6008 C   0  0  0  0  0  0  0  0  0  0  0  0
   13.2112    3.5468   -5.9271 C   0  0  0  0  0  0  0  0  0  0  0  0
   10.6887    3.5533   -5.5282 C   0  0  0  0  0  0  0  0  0  0  0  0
    9.7733    4.6072   -4.9125 C   0  0  0  0  0  0  0  0  0  0  0  0
    9.0422    5.4861   -5.7551 C   0  0  0  0  0  0  0  0  0  0  0  0
    8.1486    6.4739   -5.2074 C   0  0  0  0  0  0  0  0  0  0  0  0
    7.9988    6.5367   -3.8023 C   0  0  0  0  0  0  0  0  0  0  0  0
    6.4038    8.3388   -4.1554 C   0  0  0  0  0  0  0  0  0  0  0  0
    8.7131    5.6785   -2.9542 C   0  0  0  0  0  0  0  0  0  0  0  0
    9.5666    4.7147   -3.5160 C   0  0  0  0  0  0  0  0  0  0  0  0
    9.6712    3.1691   -1.5597 C   0  0  0  0  0  0  0  0  0  0  0  0
   15.4273    6.0456   -9.5734 C   0  0  0  0  0  0  0  0  0  0  0  0
   15.5734    4.8384  -10.2770 C   0  0  0  0  0  0  0  0  0  0  0  0
   16.1445    4.9252  -11.5984 C   0  0  0  0  0  0  0  0  0  0  0  0
   16.4152    6.2385  -12.0240 C   0  0  0  0  0  0  0  0  0  0  0  0
   20.8894    7.5939   -7.2453 N   0  0  0  0  0  0  0  0  0  0  0  0
   17.3035    6.4905   -7.7757 N   0  0  0  0  0  0  0  0  0  0  0  0
   14.5183    4.9862   -7.5930 N   0  0  0  0  0  0  0  0  0  0  0  0
   12.1194    3.6938   -4.9167 N   0  0  0  0  0  0  0  0  0  0  0  0
   19.7632    6.4920   -8.9408 O   0  0  0  0  0  0  0  0  0  0  0  0
   15.8336    7.6273   -6.5001 O   0  0  0  0  0  0  0  0  0  0  0  0
   12.9587    5.9023   -6.2608 O   0  0  0  0  0  0  0  0  0  0  0  0
    7.1207    7.4740   -3.2191 O   0  0  0  0  0  0  0  0  0  0  0  0
   10.3055    3.8691   -2.6683 O   0  0  0  0  0  0  0  0  0  0  0  0
   15.9729    7.3099  -10.6930 S   0  0  0  0  0  0  0  0  0  0  0  0
   22.9903    7.6746   -7.3036 H   0  0  0  0  0  0  0  0  0  0  0  0
   22.2211    6.7462   -8.6352 H   0  0  0  0  0  0  0  0  0  0  0  0
   22.1522    8.5412   -8.6352 H   0  0  0  0  0  0  0  0  0  0  0  0
   18.2700    8.0035   -6.7727 H   0  0  0  0  0  0  0  0  0  0  0  0
   17.9677    5.1614   -5.8314 H   0  0  0  0  0  0  0  0  0  0  0  0
   19.6621    5.7779   -5.6195 H   0  0  0  0  0  0  0  0  0  0  0  0
   18.9835    6.6928   -3.7250 H   0  0  0  0  0  0  0  0  0  0  0  0
   18.0329    7.8513   -4.7528 H   0  0  0  0  0  0  0  0  0  0  0  0
   17.2659    4.1953   -4.4636 H   0  0  0  0  0  0  0  0  0  0  0  0
   15.1361    3.2851   -3.5311 H   0  0  0  0  0  0  0  0  0  0  0  0
   13.5197    4.8178   -2.3658 H   0  0  0  0  0  0  0  0  0  0  0  0
   14.0447    7.2715   -2.2026 H   0  0  0  0  0  0  0  0  0  0  0  0
   16.1924    8.1629   -3.1066 H   0  0  0  0  0  0  0  0  0  0  0  0
   13.9396    6.8286   -8.2713 H   0  0  0  0  0  0  0  0  0  0  0  0
   12.8814    2.8373   -6.7003 H   0  0  0  0  0  0  0  0  0  0  0  0
   14.1059    3.1870   -5.3978 H   0  0  0  0  0  0  0  0  0  0  0  0
   10.2928    2.5502   -5.3110 H   0  0  0  0  0  0  0  0  0  0  0  0
   10.7370    3.6973   -6.6176 H   0  0  0  0  0  0  0  0  0  0  0  0
    9.1606    5.4111   -6.8461 H   0  0  0  0  0  0  0  0  0  0  0  0
    7.5969    7.1618   -5.8649 H   0  0  0  0  0  0  0  0  0  0  0  0
    5.8002    9.0668   -3.5935 H   0  0  0  0  0  0  0  0  0  0  0  0
    7.1274    8.8733   -4.7885 H   0  0  0  0  0  0  0  0  0  0  0  0
    5.7445    7.7268   -4.7885 H   0  0  0  0  0  0  0  0  0  0  0  0
    8.6064    5.7590   -1.8624 H   0  0  0  0  0  0  0  0  0  0  0  0
   10.0416    3.5778   -0.6080 H   0  0  0  0  0  0  0  0  0  0  0  0
    8.5809    3.3035   -1.6169 H   0  0  0  0  0  0  0  0  0  0  0  0
    9.9121    2.0973   -1.6169 H   0  0  0  0  0  0  0  0  0  0  0  0
   15.2676    3.8755   -9.8419 H   0  0  0  0  0  0  0  0  0  0  0  0
   16.3505    4.0411  -12.2197 H   0  0  0  0  0  0  0  0  0  0  0  0
   16.8243    6.5399  -12.9996 H   0  0  0  0  0  0  0  0  0  0  0  0
   20.8518    8.0033   -6.3010 H   0  0  0  0  0  0  0  0  0  0  0  0
   17.4570    5.8791   -8.5902 H   0  0  0  0  0  0  0  0  0  0  0  0
   15.0098    4.1340   -7.8979 H   0  0  0  0  0  0  0  0  0  0  0  0
   12.2401    2.9670   -4.1969 H   0  0  0  0  0  0  0  0  0  0  0  0
   12.1919    4.6437   -4.5252 H   0  0  0  0  0  0  0  0  0  0  0  0
  1 29  1  0
  2  3  1  0
  2 29  1  0
  2 33  2  0
  3  4  1  0
  3 30  1  0
  4  5  1  0
  5  6  1  0
  6  7  2  0
  6 11  1  0
  7  8  1  0
  8  9  2  0
  9 10  1  0
 10 11  2  0
 12 13  1  0
 12 30  1  0
 12 34  2  0
 13 25  1  0
 13 31  1  0
 14 15  1  0
 14 31  1  0
 14 35  2  0
 15 32  1  0
 16 17  1  0
 16 32  1  0
 17 18  2  0
 17 23  1  0
 18 19  1  0
 19 20  2  0
 20 22  1  0
 20 36  1  0
 21 36  1  0
 22 23  2  0
 23 37  1  0
 24 37  1  0
 25 26  2  0
 25 38  1  0
 26 27  1  0
 27 28  2  0
 28 38  1  0
  1 39  1  0
  1 40  1  0
  1 41  1  0
  3 42  1  1
  4 43  1  0
  4 44  1  0
  5 45  1  0
  5 46  1  0
  7 47  1  0
  8 48  1  0
  9 49  1  0
 10 50  1  0
 11 51  1  0
 13 52  1  6
 15 53  1  0
 15 54  1  0
 16 55  1  0
 16 56  1  0
 18 57  1  0
 19 58  1  0
 21 59  1  0
 21 60  1  0
 21 61  1  0
 22 62  1  0
 24 63  1  0
 24 64  1  0
 24 65  1  0
 26 66  1  0
 27 67  1  0
 28 68  1  0
 29 69  1  0
 30 70  1  0
 31 71  1  0
 32 72  1  0
 32 73  1  0
M  CHG  1  32   1
M  END
>  <filename_input>  (12) 
7U3J_L6U_docked.sdf

>  <pdb_id>  (12) 
7U3J_L6U

>  <pose_rank>  (12) 
11

>  <num_atoms_heavy>  (12) 
38

>  <num_torsions>  (12) 
14

>  <pose>  (12) 
[14.860035369350044, 6.227622417137275, -8.231617417741255, 2.333389732792446, 1.655014432936032, -0.169628711859197, -2.466275147180062, -2.1764297081143464, -1.2048345740028332, 0.6517553706381429, -0.8029304951080086, 2.865908709088852, 1.7332012832978136, -1.5575669886043682, -0.8951943715220213, 0.6351033927897899, -3.7482997060141567, 3.785108399706717, -0.03308540745435376, 0.8159523031289608]

>  <energy>  (12) 
-754.4384870367969

>  <inter_energy>  (12) 
-805.6261493138878

>  <intra_energy>  (12) 
47.271662450629066

>  <rmsd>  (12) 
4.45087

>  <sdf_rank>  (12) 
0

$$$$

     RDKit          3D

 73 75  0  0  0  0  0  0  0  0999 V2000
   14.3902    4.9124  -11.6619 C   0  0  0  0  0  0  0  0  0  0  0  0
   16.2558    5.8866  -10.2671 C   0  0  0  0  0  0  0  0  0  0  0  0
   16.7509    6.4260   -8.9891 C   0  0  2  0  0  0  0  0  0  0  0  0
   18.3116    6.7417   -9.0644 C   0  0  0  0  0  0  0  0  0  0  0  0
   19.0638    6.1558   -7.8966 C   0  0  0  0  0  0  0  0  0  0  0  0
   19.8245    7.2396   -7.0838 C   0  0  0  0  0  0  0  0  0  0  0  0
   21.2085    7.0862   -6.8197 C   0  0  0  0  0  0  0  0  0  0  0  0
   21.9225    8.0522   -6.0890 C   0  0  0  0  0  0  0  0  0  0  0  0
   21.2658    9.2052   -5.6230 C   0  0  0  0  0  0  0  0  0  0  0  0
   19.8899    9.3688   -5.8901 C   0  0  0  0  0  0  0  0  0  0  0  0
   19.1883    8.4010   -6.6311 C   0  0  0  0  0  0  0  0  0  0  0  0
   15.5183    5.8143   -6.9533 C   0  0  0  0  0  0  0  0  0  0  0  0
   15.3771    4.9286   -5.7109 C   0  0  1  0  0  0  0  0  0  0  0  0
   13.4526    3.8864   -4.5409 C   0  0  0  0  0  0  0  0  0  0  0  0
   11.9579    3.6785   -4.3100 C   0  0  0  0  0  0  0  0  0  0  0  0
    9.7659    4.8773   -3.7805 C   0  0  0  0  0  0  0  0  0  0  0  0
    9.4015    6.0833   -4.6410 C   0  0  0  0  0  0  0  0  0  0  0  0
    9.4778    7.3909   -4.0920 C   0  0  0  0  0  0  0  0  0  0  0  0
    9.1674    8.5525   -4.8848 C   0  0  0  0  0  0  0  0  0  0  0  0
    8.8015    8.3624   -6.2379 C   0  0  0  0  0  0  0  0  0  0  0  0
    8.9359   10.7711   -6.5485 C   0  0  0  0  0  0  0  0  0  0  0  0
    8.7193    7.0793   -6.7972 C   0  0  0  0  0  0  0  0  0  0  0  0
    9.0418    5.9650   -6.0053 C   0  0  0  0  0  0  0  0  0  0  0  0
   10.0199    4.0919   -7.3325 C   0  0  0  0  0  0  0  0  0  0  0  0
   16.0078    5.7434   -4.6652 C   0  0  0  0  0  0  0  0  0  0  0  0
   17.3825    5.9519   -4.4646 C   0  0  0  0  0  0  0  0  0  0  0  0
   17.7526    6.8179   -3.3725 C   0  0  0  0  0  0  0  0  0  0  0  0
   16.6603    7.3914   -2.6962 C   0  0  0  0  0  0  0  0  0  0  0  0
   14.8898    5.4594  -10.4002 N   0  0  0  0  0  0  0  0  0  0  0  0
   16.5094    5.5835   -7.8407 N   0  0  0  0  0  0  0  0  0  0  0  0
   13.9704    4.7280   -5.4949 N   0  0  0  0  0  0  0  0  0  0  0  0
   11.3165    4.8254   -3.5974 N   0  0  0  0  0  0  0  0  0  0  0  0
   17.0205    5.7865  -11.2431 O   0  0  0  0  0  0  0  0  0  0  0  0
   14.7166    6.7662   -7.1573 O   0  0  0  0  0  0  0  0  0  0  0  0
   14.2615    3.2864   -3.7969 O   0  0  0  0  0  0  0  0  0  0  0  0
    8.5071    9.4701   -7.0603 O   0  0  0  0  0  0  0  0  0  0  0  0
    8.9351    4.6740   -6.5543 O   0  0  0  0  0  0  0  0  0  0  0  0
   15.1981    6.7589   -3.4557 S   0  0  0  0  0  0  0  0  0  0  0  0
   13.6619    4.1149  -11.4529 H   0  0  0  0  0  0  0  0  0  0  0  0
   13.9033    5.7111  -12.2406 H   0  0  0  0  0  0  0  0  0  0  0  0
   15.2297    4.4998  -12.2406 H   0  0  0  0  0  0  0  0  0  0  0  0
   16.1677    7.3470   -8.8419 H   0  0  0  0  0  0  0  0  0  0  0  0
   18.7151    6.3174   -9.9956 H   0  0  0  0  0  0  0  0  0  0  0  0
   18.4388    7.8340   -9.0368 H   0  0  0  0  0  0  0  0  0  0  0  0
   18.3476    5.6519   -7.2310 H   0  0  0  0  0  0  0  0  0  0  0  0
   19.8070    5.4491   -8.2945 H   0  0  0  0  0  0  0  0  0  0  0  0
   21.7338    6.1949   -7.1932 H   0  0  0  0  0  0  0  0  0  0  0  0
   22.9930    7.9065   -5.8822 H   0  0  0  0  0  0  0  0  0  0  0  0
   21.8179    9.9700   -5.0571 H   0  0  0  0  0  0  0  0  0  0  0  0
   19.3627   10.2590   -5.5165 H   0  0  0  0  0  0  0  0  0  0  0  0
   18.1237    8.5592   -6.8582 H   0  0  0  0  0  0  0  0  0  0  0  0
   15.8362    3.9303   -5.7629 H   0  0  0  0  0  0  0  0  0  0  0  0
   11.4659    3.5516   -5.2857 H   0  0  0  0  0  0  0  0  0  0  0  0
   11.8417    2.7877   -3.6753 H   0  0  0  0  0  0  0  0  0  0  0  0
    9.2822    4.9680   -2.7967 H   0  0  0  0  0  0  0  0  0  0  0  0
    9.4211    3.9555   -4.2718 H   0  0  0  0  0  0  0  0  0  0  0  0
    9.7795    7.5189   -3.0420 H   0  0  0  0  0  0  0  0  0  0  0  0
    9.2136    9.5616   -4.4493 H   0  0  0  0  0  0  0  0  0  0  0  0
    8.9298   10.7527   -5.4487 H   0  0  0  0  0  0  0  0  0  0  0  0
    9.9532   10.9886   -6.9060 H   0  0  0  0  0  0  0  0  0  0  0  0
    8.2472   11.5508   -6.9060 H   0  0  0  0  0  0  0  0  0  0  0  0
    8.4060    6.9470   -7.8433 H   0  0  0  0  0  0  0  0  0  0  0  0
   10.7813    3.6834   -6.6518 H   0  0  0  0  0  0  0  0  0  0  0  0
    9.6243    3.2849   -7.9667 H   0  0  0  0  0  0  0  0  0  0  0  0
   10.4735    4.8678   -7.9667 H   0  0  0  0  0  0  0  0  0  0  0  0
   18.1386    5.4784   -5.1082 H   0  0  0  0  0  0  0  0  0  0  0  0
   18.7983    7.0132   -3.0924 H   0  0  0  0  0  0  0  0  0  0  0  0
   16.7084    8.0987   -1.8552 H   0  0  0  0  0  0  0  0  0  0  0  0
   14.2528    5.5397   -9.5948 H   0  0  0  0  0  0  0  0  0  0  0  0
   17.1218    4.7688   -7.6920 H   0  0  0  0  0  0  0  0  0  0  0  0
   13.3105    5.2469   -6.0917 H   0  0  0  0  0  0  0  0  0  0  0  0
   11.5244    4.7430   -2.5920 H   0  0  0  0  0  0  0  0  0  0  0  0
   11.7008    5.6904   -4.0036 H   0  0  0  0  0  0  0  0  0  0  0  0
  1 29  1  0
  2  3  1  0
  2 29  1  0
  2 33  2  0
  3  4  1  0
  3 30  1  0
  4  5  1  0
  5  6  1  0
  6  7  2  0
  6 11  1  0
  7  8  1  0
  8  9  2  0
  9 10  1  0
 10 11  2  0
 12 13  1  0
 12 30  1  0
 12 34  2  0
 13 25  1  0
 13 31  1  0
 14 15  1  0
 14 31  1  0
 14 35  2  0
 15 32  1  0
 16 17  1  0
 16 32  1  0
 17 18  2  0
 17 23  1  0
 18 19  1  0
 19 20  2  0
 20 22  1  0
 20 36  1  0
 21 36  1  0
 22 23  2  0
 23 37  1  0
 24 37  1  0
 25 26  2  0
 25 38  1  0
 26 27  1  0
 27 28  2  0
 28 38  1  0
  1 39  1  0
  1 40  1  0
  1 41  1  0
  3 42  1  1
  4 43  1  0
  4 44  1  0
  5 45  1  0
  5 46  1  0
  7 47  1  0
  8 48  1  0
  9 49  1  0
 10 50  1  0
 11 51  1  0
 13 52  1  6
 15 53  1  0
 15 54  1  0
 16 55  1  0
 16 56  1  0
 18 57  1  0
 19 58  1  0
 21 59  1  0
 21 60  1  0
 21 61  1  0
 22 62  1  0
 24 63  1  0
 24 64  1  0
 24 65  1  0
 26 66  1  0
 27 67  1  0
 28 68  1  0
 29 69  1  0
 30 70  1  0
 31 71  1  0
 32 72  1  0
 32 73  1  0
M  CHG  1  32   1
M  END
>  <filename_input>  (13) 
7U3J_L6U_docked.sdf

>  <pdb_id>  (13) 
7U3J_L6U

>  <pose_rank>  (13) 
12

>  <num_atoms_heavy>  (13) 
38

>  <num_torsions>  (13) 
14

>  <pose>  (13) 
[15.377069029447892, 4.928566073289214, -5.710884540642369, 2.9777604264926367, -4.015643203932339, -2.932379742876256, 0.4154283952452483, 0.10497370793604921, -0.27124936513072573, -1.4155375452506296, -5.2930002859801455, -1.172255619710337, -1.0861408134669592, -0.1290854876771177, 7.176954738468166, -4.3894061962946465, -3.2686089204506397, 0.2978097156055943, 6.515175738078265, 1.4494374279945055]

>  <energy>  (13) 
-757.6391687167425

>  <inter_energy>  (13) 
-772.8738899809722

>  <intra_energy>  (13) 
15.076036138795923

>  <rmsd>  (13) 
2.46329

>  <sdf_rank>  (13) 
0

$$$$

     RDKit          3D

 73 75  0  0  0  0  0  0  0  0999 V2000
   10.1082   10.3867   -6.0804 C   0  0  0  0  0  0  0  0  0  0  0  0
   10.3658    7.8962   -6.4061 C   0  0  0  0  0  0  0  0  0  0  0  0
   11.1508    6.6595   -6.2514 C   0  0  2  0  0  0  0  0  0  0  0  0
   10.4486    5.6568   -5.2303 C   0  0  0  0  0  0  0  0  0  0  0  0
   10.2204    6.2913   -3.8818 C   0  0  0  0  0  0  0  0  0  0  0  0
    8.8331    6.9842   -3.7852 C   0  0  0  0  0  0  0  0  0  0  0  0
    7.6620    6.2048   -3.6130 C   0  0  0  0  0  0  0  0  0  0  0  0
    6.3941    6.8052   -3.5200 C   0  0  0  0  0  0  0  0  0  0  0  0
    6.2756    8.2053   -3.5788 C   0  0  0  0  0  0  0  0  0  0  0  0
    7.4384    8.9881   -3.7411 C   0  0  0  0  0  0  0  0  0  0  0  0
    8.7026    8.3771   -3.8224 C   0  0  0  0  0  0  0  0  0  0  0  0
   13.5494    6.1296   -6.3102 C   0  0  0  0  0  0  0  0  0  0  0  0
   14.9617    6.3363   -5.7526 C   0  0  1  0  0  0  0  0  0  0  0  0
   17.2052    6.0844   -6.7830 C   0  0  0  0  0  0  0  0  0  0  0  0
   18.1755    5.4577   -7.7813 C   0  0  0  0  0  0  0  0  0  0  0  0
   18.5712    7.0923   -9.7033 C   0  0  0  0  0  0  0  0  0  0  0  0
   18.0980    7.4124  -11.1179 C   0  0  0  0  0  0  0  0  0  0  0  0
   16.7083    7.4296  -11.4104 C   0  0  0  0  0  0  0  0  0  0  0  0
   16.2269    7.7547  -12.7282 C   0  0  0  0  0  0  0  0  0  0  0  0
   17.1746    8.0784  -13.7272 C   0  0  0  0  0  0  0  0  0  0  0  0
   15.5196    9.2067  -15.1072 C   0  0  0  0  0  0  0  0  0  0  0  0
   18.5505    8.0654  -13.4579 C   0  0  0  0  0  0  0  0  0  0  0  0
   18.9916    7.7591  -12.1600 C   0  0  0  0  0  0  0  0  0  0  0  0
   21.3199    7.2250  -12.8813 C   0  0  0  0  0  0  0  0  0  0  0  0
   14.9100    5.6116   -4.4769 C   0  0  0  0  0  0  0  0  0  0  0  0
   15.7533    4.5692   -4.0577 C   0  0  0  0  0  0  0  0  0  0  0  0
   15.5108    4.0308   -2.7419 C   0  0  0  0  0  0  0  0  0  0  0  0
   14.4887    4.6856   -2.0308 C   0  0  0  0  0  0  0  0  0  0  0  0
   10.8838    9.1539   -5.9414 N   0  0  0  0  0  0  0  0  0  0  0  0
   12.5184    6.8578   -5.8306 N   0  0  0  0  0  0  0  0  0  0  0  0
   15.8758    5.7509   -6.6947 N   0  0  0  0  0  0  0  0  0  0  0  0
   17.8503    5.8012   -9.1993 N   0  0  0  0  0  0  0  0  0  0  0  0
    9.2396    7.8616   -6.9332 O   0  0  0  0  0  0  0  0  0  0  0  0
   13.3352    5.2785   -7.2158 O   0  0  0  0  0  0  0  0  0  0  0  0
   17.6468    6.9263   -5.9681 O   0  0  0  0  0  0  0  0  0  0  0  0
   16.7514    8.4225  -15.0281 O   0  0  0  0  0  0  0  0  0  0  0  0
   20.3722    7.7188  -11.8918 O   0  0  0  0  0  0  0  0  0  0  0  0
   13.8431    5.9358   -3.0963 S   0  0  0  0  0  0  0  0  0  0  0  0
    9.8613   10.7790   -5.0829 H   0  0  0  0  0  0  0  0  0  0  0  0
   10.7002   11.1322   -6.6315 H   0  0  0  0  0  0  0  0  0  0  0  0
    9.1798   10.1756   -6.6315 H   0  0  0  0  0  0  0  0  0  0  0  0
   11.1835    6.2332   -7.2649 H   0  0  0  0  0  0  0  0  0  0  0  0
    9.4782    5.3483   -5.6463 H   0  0  0  0  0  0  0  0  0  0  0  0
   11.1147    4.7927   -5.0906 H   0  0  0  0  0  0  0  0  0  0  0  0
   10.2811    5.5112   -3.1087 H   0  0  0  0  0  0  0  0  0  0  0  0
   10.9926    7.0610   -3.7362 H   0  0  0  0  0  0  0  0  0  0  0  0
    7.7466    5.1098   -3.5508 H   0  0  0  0  0  0  0  0  0  0  0  0
    5.4962    6.1809   -3.4015 H   0  0  0  0  0  0  0  0  0  0  0  0
    5.2886    8.6843   -3.4993 H   0  0  0  0  0  0  0  0  0  0  0  0
    7.3556   10.0831   -3.8045 H   0  0  0  0  0  0  0  0  0  0  0  0
    9.6020    9.0033   -3.9165 H   0  0  0  0  0  0  0  0  0  0  0  0
   15.2840    7.3771   -5.6016 H   0  0  0  0  0  0  0  0  0  0  0  0
   19.1909    5.8163   -7.5569 H   0  0  0  0  0  0  0  0  0  0  0  0
   18.0963    4.3654   -7.6788 H   0  0  0  0  0  0  0  0  0  0  0  0
   19.6589    6.9283   -9.7076 H   0  0  0  0  0  0  0  0  0  0  0  0
   18.3327    7.9329   -9.0351 H   0  0  0  0  0  0  0  0  0  0  0  0
   15.9864    7.1903  -10.6157 H   0  0  0  0  0  0  0  0  0  0  0  0
   15.1500    7.7514  -12.9522 H   0  0  0  0  0  0  0  0  0  0  0  0
   15.1634    9.4335  -14.0915 H   0  0  0  0  0  0  0  0  0  0  0  0
   15.7168   10.1459  -15.6448 H   0  0  0  0  0  0  0  0  0  0  0  0
   14.7521    8.6306  -15.6448 H   0  0  0  0  0  0  0  0  0  0  0  0
   19.2757    8.2922  -14.2534 H   0  0  0  0  0  0  0  0  0  0  0  0
   22.1834    6.7752  -12.3695 H   0  0  0  0  0  0  0  0  0  0  0  0
   20.8311    6.4670  -13.5109 H   0  0  0  0  0  0  0  0  0  0  0  0
   21.6611    8.0600  -13.5109 H   0  0  0  0  0  0  0  0  0  0  0  0
   16.5581    4.1831   -4.7005 H   0  0  0  0  0  0  0  0  0  0  0  0
   16.0761    3.1818   -2.3300 H   0  0  0  0  0  0  0  0  0  0  0  0
   14.1555    4.4613   -1.0068 H   0  0  0  0  0  0  0  0  0  0  0  0
   11.8155    9.1878   -5.5037 H   0  0  0  0  0  0  0  0  0  0  0  0
   12.7163    7.5885   -5.1323 H   0  0  0  0  0  0  0  0  0  0  0  0
   15.5118    5.0380   -7.3429 H   0  0  0  0  0  0  0  0  0  0  0  0
   18.1331    5.0134   -9.7996 H   0  0  0  0  0  0  0  0  0  0  0  0
   16.8370    5.9799   -9.2453 H   0  0  0  0  0  0  0  0  0  0  0  0
  1 29  1  0
  2  3  1  0
  2 29  1  0
  2 33  2  0
  3  4  1  0
  3 30  1  0
  4  5  1  0
  5  6  1  0
  6  7  2  0
  6 11  1  0
  7  8  1  0
  8  9  2  0
  9 10  1  0
 10 11  2  0
 12 13  1  0
 12 30  1  0
 12 34  2  0
 13 25  1  0
 13 31  1  0
 14 15  1  0
 14 31  1  0
 14 35  2  0
 15 32  1  0
 16 17  1  0
 16 32  1  0
 17 18  2  0
 17 23  1  0
 18 19  1  0
 19 20  2  0
 20 22  1  0
 20 36  1  0
 21 36  1  0
 22 23  2  0
 23 37  1  0
 24 37  1  0
 25 26  2  0
 25 38  1  0
 26 27  1  0
 27 28  2  0
 28 38  1  0
  1 39  1  0
  1 40  1  0
  1 41  1  0
  3 42  1  6
  4 43  1  0
  4 44  1  0
  5 45  1  0
  5 46  1  0
  7 47  1  0
  8 48  1  0
  9 49  1  0
 10 50  1  0
 11 51  1  0
 13 52  1  1
 15 53  1  0
 15 54  1  0
 16 55  1  0
 16 56  1  0
 18 57  1  0
 19 58  1  0
 21 59  1  0
 21 60  1  0
 21 61  1  0
 22 62  1  0
 24 63  1  0
 24 64  1  0
 24 65  1  0
 26 66  1  0
 27 67  1  0
 28 68  1  0
 29 69  1  0
 30 70  1  0
 31 71  1  0
 32 72  1  0
 32 73  1  0
M  CHG  1  32   1
M  END
>  <filename_input>  (14) 
7U3J_L6U_docked.sdf

>  <pdb_id>  (14) 
7U3J_L6U

>  <pose_rank>  (14) 
13

>  <num_atoms_heavy>  (14) 
38

>  <num_torsions>  (14) 
14

>  <pose>  (14) 
[14.961670271865113, 6.336289895844097, -5.752639570390981, -0.8187554406481022, 0.6080779455388682, -3.5120042370614435, -2.3881666615338437, -0.27277569995945145, -0.9580531840399921, 3.7675918310963343, -4.003037955399764, 2.535129337126998, 2.469037290222257, -0.39808388566504, -2.920402520706311, 6.9667527867216075, 1.880272301432048, 2.435142567583552, 0.6053926185848806, -0.6559266255835914]

>  <energy>  (14) 
-706.1628896103454

>  <inter_energy>  (14) 
-770.430268535327

>  <intra_energy>  (14) 
68.37450925453045

>  <rmsd>  (14) 
9.02625

>  <sdf_rank>  (14) 
0

$$$$

     RDKit          3D

 73 75  0  0  0  0  0  0  0  0999 V2000
   18.0208    6.6607   -2.4930 C   0  0  0  0  0  0  0  0  0  0  0  0
   19.1892    6.7308   -4.7301 C   0  0  0  0  0  0  0  0  0  0  0  0
   19.1777    6.5174   -6.1874 C   0  0  2  0  0  0  0  0  0  0  0  0
   19.6622    7.8228   -6.9634 C   0  0  0  0  0  0  0  0  0  0  0  0
   20.3999    7.4840   -8.2339 C   0  0  0  0  0  0  0  0  0  0  0  0
   20.4810    8.6925   -9.2069 C   0  0  0  0  0  0  0  0  0  0  0  0
   19.4875    9.7025   -9.1670 C   0  0  0  0  0  0  0  0  0  0  0  0
   19.5373   10.8083  -10.0338 C   0  0  0  0  0  0  0  0  0  0  0  0
   20.5979   10.9347  -10.9486 C   0  0  0  0  0  0  0  0  0  0  0  0
   21.5955    9.9374  -10.9876 C   0  0  0  0  0  0  0  0  0  0  0  0
   21.5411    8.8410  -10.1084 C   0  0  0  0  0  0  0  0  0  0  0  0
   16.9128    6.9797   -7.0206 C   0  0  0  0  0  0  0  0  0  0  0  0
   15.5556    6.4651   -7.5117 C   0  0  1  0  0  0  0  0  0  0  0  0
   13.8551    5.0845   -6.3451 C   0  0  0  0  0  0  0  0  0  0  0  0
   13.4383    3.9557   -5.4055 C   0  0  0  0  0  0  0  0  0  0  0  0
   11.8168    5.6054   -4.3231 C   0  0  0  0  0  0  0  0  0  0  0  0
   10.3173    5.8866   -4.3310 C   0  0  0  0  0  0  0  0  0  0  0  0
    9.4136    4.9110   -3.8325 C   0  0  0  0  0  0  0  0  0  0  0  0
    7.9946    5.1554   -3.8002 C   0  0  0  0  0  0  0  0  0  0  0  0
    7.5190    6.4054   -4.2608 C   0  0  0  0  0  0  0  0  0  0  0  0
    5.7585    7.8730   -3.4464 C   0  0  0  0  0  0  0  0  0  0  0  0
    8.3955    7.3803   -4.7578 C   0  0  0  0  0  0  0  0  0  0  0  0
    9.7760    7.1212   -4.7640 C   0  0  0  0  0  0  0  0  0  0  0  0
   10.1602    9.2607   -5.9893 C   0  0  0  0  0  0  0  0  0  0  0  0
   15.8652    5.9928   -8.8669 C   0  0  0  0  0  0  0  0  0  0  0  0
   15.0744    5.1618   -9.6779 C   0  0  0  0  0  0  0  0  0  0  0  0
   15.5925    4.8547  -10.9883 C   0  0  0  0  0  0  0  0  0  0  0  0
   16.8055    5.4984  -11.2938 C   0  0  0  0  0  0  0  0  0  0  0  0
   18.0238    6.4424   -3.9397 N   0  0  0  0  0  0  0  0  0  0  0  0
   17.9030    6.1088   -6.7306 N   0  0  0  0  0  0  0  0  0  0  0  0
   15.1610    5.4058   -6.6241 N   0  0  0  0  0  0  0  0  0  0  0  0
   12.0704    4.1515   -4.8354 N   0  0  0  0  0  0  0  0  0  0  0  0
   20.2079    7.1733   -4.1698 O   0  0  0  0  0  0  0  0  0  0  0  0
   17.1172    8.2160   -6.8787 O   0  0  0  0  0  0  0  0  0  0  0  0
   12.9603    5.7374   -6.9289 O   0  0  0  0  0  0  0  0  0  0  0  0
    6.1397    6.6994   -4.2311 O   0  0  0  0  0  0  0  0  0  0  0  0
   10.6570    8.0858   -5.2864 O   0  0  0  0  0  0  0  0  0  0  0  0
   17.2616    6.4350   -9.8690 S   0  0  0  0  0  0  0  0  0  0  0  0
   18.0343    5.6900   -1.9757 H   0  0  0  0  0  0  0  0  0  0  0  0
   18.9110    7.2405   -2.2077 H   0  0  0  0  0  0  0  0  0  0  0  0
   17.1149    7.2156   -2.2077 H   0  0  0  0  0  0  0  0  0  0  0  0
   19.8771    5.6826   -6.3425 H   0  0  0  0  0  0  0  0  0  0  0  0
   18.7824    8.4330   -7.2157 H   0  0  0  0  0  0  0  0  0  0  0  0
   20.3524    8.3720   -6.3062 H   0  0  0  0  0  0  0  0  0  0  0  0
   21.4214    7.1675   -7.9765 H   0  0  0  0  0  0  0  0  0  0  0  0
   19.8467    6.6795   -8.7407 H   0  0  0  0  0  0  0  0  0  0  0  0
   18.6623    9.6197   -8.4444 H   0  0  0  0  0  0  0  0  0  0  0  0
   18.7478   11.5734   -9.9966 H   0  0  0  0  0  0  0  0  0  0  0  0
   20.6492   11.8003  -11.6254 H   0  0  0  0  0  0  0  0  0  0  0  0
   22.4209   10.0181  -11.7102 H   0  0  0  0  0  0  0  0  0  0  0  0
   22.3437    8.0891  -10.1297 H   0  0  0  0  0  0  0  0  0  0  0  0
   14.7296    7.1914   -7.5269 H   0  0  0  0  0  0  0  0  0  0  0  0
   13.4535    3.0089   -5.9653 H   0  0  0  0  0  0  0  0  0  0  0  0
   14.1486    3.9448   -4.5656 H   0  0  0  0  0  0  0  0  0  0  0  0
   12.3288    6.3220   -4.9820 H   0  0  0  0  0  0  0  0  0  0  0  0
   12.2065    5.7095   -3.2997 H   0  0  0  0  0  0  0  0  0  0  0  0
    9.8046    3.9511   -3.4642 H   0  0  0  0  0  0  0  0  0  0  0  0
    7.2987    4.3897   -3.4270 H   0  0  0  0  0  0  0  0  0  0  0  0
    5.8348    7.6380   -2.3746 H   0  0  0  0  0  0  0  0  0  0  0  0
    6.4311    8.7094   -3.6873 H   0  0  0  0  0  0  0  0  0  0  0  0
    4.7227    8.1544   -3.6873 H   0  0  0  0  0  0  0  0  0  0  0  0
    8.0068    8.3365   -5.1382 H   0  0  0  0  0  0  0  0  0  0  0  0
    9.8403   10.0175   -5.2580 H   0  0  0  0  0  0  0  0  0  0  0  0
   10.9599    9.6758   -6.6204 H   0  0  0  0  0  0  0  0  0  0  0  0
    9.3054    8.9763   -6.6204 H   0  0  0  0  0  0  0  0  0  0  0  0
   14.1088    4.7654   -9.3310 H   0  0  0  0  0  0  0  0  0  0  0  0
   15.0833    4.1759  -11.6883 H   0  0  0  0  0  0  0  0  0  0  0  0
   17.3631    5.4309  -12.2396 H   0  0  0  0  0  0  0  0  0  0  0  0
   17.1777    6.0764   -4.3990 H   0  0  0  0  0  0  0  0  0  0  0  0
   17.7420    5.1065   -6.9049 H   0  0  0  0  0  0  0  0  0  0  0  0
   15.9026    4.8541   -6.1695 H   0  0  0  0  0  0  0  0  0  0  0  0
   11.3776    3.9370   -5.5667 H   0  0  0  0  0  0  0  0  0  0  0  0
   11.9853    3.5229   -4.0238 H   0  0  0  0  0  0  0  0  0  0  0  0
  1 29  1  0
  2  3  1  0
  2 29  1  0
  2 33  2  0
  3  4  1  0
  3 30  1  0
  4  5  1  0
  5  6  1  0
  6  7  2  0
  6 11  1  0
  7  8  1  0
  8  9  2  0
  9 10  1  0
 10 11  2  0
 12 13  1  0
 12 30  1  0
 12 34  2  0
 13 25  1  0
 13 31  1  0
 14 15  1  0
 14 31  1  0
 14 35  2  0
 15 32  1  0
 16 17  1  0
 16 32  1  0
 17 18  2  0
 17 23  1  0
 18 19  1  0
 19 20  2  0
 20 22  1  0
 20 36  1  0
 21 36  1  0
 22 23  2  0
 23 37  1  0
 24 37  1  0
 25 26  2  0
 25 38  1  0
 26 27  1  0
 27 28  2  0
 28 38  1  0
  1 39  1  0
  1 40  1  0
  1 41  1  0
  3 42  1  1
  4 43  1  0
  4 44  1  0
  5 45  1  0
  5 46  1  0
  7 47  1  0
  8 48  1  0
  9 49  1  0
 10 50  1  0
 11 51  1  0
 13 52  1  6
 15 53  1  0
 15 54  1  0
 16 55  1  0
 16 56  1  0
 18 57  1  0
 19 58  1  0
 21 59  1  0
 21 60  1  0
 21 61  1  0
 22 62  1  0
 24 63  1  0
 24 64  1  0
 24 65  1  0
 26 66  1  0
 27 67  1  0
 28 68  1  0
 29 69  1  0
 30 70  1  0
 31 71  1  0
 32 72  1  0
 32 73  1  0
M  CHG  1  32   1
M  END
>  <filename_input>  (15) 
7U3J_L6U_docked.sdf

>  <pdb_id>  (15) 
7U3J_L6U

>  <pose_rank>  (15) 
14

>  <num_atoms_heavy>  (15) 
38

>  <num_torsions>  (15) 
14

>  <pose>  (15) 
[15.555598248366069, 6.46505002431733, -7.51173211140799, -2.8842388567794246, -1.7928672795817375, 0.6199852233426972, 4.6167431141560575, -2.872528301627144, 2.9407214419575802, -2.259340397631928, -0.4440763347171125, 3.778351788891781, 0.6676300019931853, -0.5332319953932184, 4.937094676260463, -1.6917983470418154, 1.3874018800123014, 2.358272913677972, 2.0796300037005206, -0.18309680335105183]

>  <energy>  (15) 
-641.5404505488135

>  <inter_energy>  (15) 
-714.63878986159

>  <intra_energy>  (15) 
70.191938133221

>  <rmsd>  (15) 
4.99875

>  <sdf_rank>  (15) 
0

$$$$

     RDKit          3D

 73 75  0  0  0  0  0  0  0  0999 V2000
   21.2106   11.4082   -9.0801 C   0  0  0  0  0  0  0  0  0  0  0  0
   20.4192    9.0916   -8.4619 C   0  0  0  0  0  0  0  0  0  0  0  0
   19.8889    7.7738   -8.8513 C   0  0  2  0  0  0  0  0  0  0  0  0
   18.6010    7.9236   -9.7786 C   0  0  0  0  0  0  0  0  0  0  0  0
   18.2105    6.6158  -10.4191 C   0  0  0  0  0  0  0  0  0  0  0  0
   17.1266    6.7994  -11.5170 C   0  0  0  0  0  0  0  0  0  0  0  0
   16.0690    5.8631  -11.6325 C   0  0  0  0  0  0  0  0  0  0  0  0
   15.0733    6.0057  -12.6150 C   0  0  0  0  0  0  0  0  0  0  0  0
   15.1069    7.1041  -13.4925 C   0  0  0  0  0  0  0  0  0  0  0  0
   16.1520    8.0452  -13.3774 C   0  0  0  0  0  0  0  0  0  0  0  0
   17.1367    7.8980  -12.3840 C   0  0  0  0  0  0  0  0  0  0  0  0
   18.4818    7.0918   -6.9558 C   0  0  0  0  0  0  0  0  0  0  0  0
   18.2438    6.1775   -5.7495 C   0  0  1  0  0  0  0  0  0  0  0  0
   16.1286    5.3401   -4.7578 C   0  0  0  0  0  0  0  0  0  0  0  0
   14.6628    5.4965   -4.3607 C   0  0  0  0  0  0  0  0  0  0  0  0
   12.7022    5.4981   -5.9973 C   0  0  0  0  0  0  0  0  0  0  0  0
   11.3774    6.0124   -5.4423 C   0  0  0  0  0  0  0  0  0  0  0  0
   10.9470    7.3302   -5.7506 C   0  0  0  0  0  0  0  0  0  0  0  0
    9.6892    7.8372   -5.2657 C   0  0  0  0  0  0  0  0  0  0  0  0
    8.8767    6.9807   -4.4865 C   0  0  0  0  0  0  0  0  0  0  0  0
    6.7771    6.3969   -3.4062 C   0  0  0  0  0  0  0  0  0  0  0  0
    9.2852    5.6773   -4.1705 C   0  0  0  0  0  0  0  0  0  0  0  0
   10.5100    5.2035   -4.6690 C   0  0  0  0  0  0  0  0  0  0  0  0
   11.2395    3.5433   -2.9548 C   0  0  0  0  0  0  0  0  0  0  0  0
   19.1667    6.7250   -4.7475 C   0  0  0  0  0  0  0  0  0  0  0  0
   18.8672    7.0810   -3.4219 C   0  0  0  0  0  0  0  0  0  0  0  0
   19.9598    7.5804   -2.6240 C   0  0  0  0  0  0  0  0  0  0  0  0
   21.2033    7.5751   -3.2819 C   0  0  0  0  0  0  0  0  0  0  0  0
   20.6741   10.0995   -9.4545 N   0  0  0  0  0  0  0  0  0  0  0  0
   19.5592    6.9023   -7.7475 N   0  0  0  0  0  0  0  0  0  0  0  0
   16.8626    6.3209   -5.3788 N   0  0  0  0  0  0  0  0  0  0  0  0
   13.8770    6.2975   -5.3483 N   0  0  0  0  0  0  0  0  0  0  0  0
   20.6612    9.3416   -7.2676 O   0  0  0  0  0  0  0  0  0  0  0  0
   17.6802    8.0291   -7.2187 O   0  0  0  0  0  0  0  0  0  0  0  0
   16.7148    4.2714   -4.4713 O   0  0  0  0  0  0  0  0  0  0  0  0
    7.6275    7.4249   -4.0049 O   0  0  0  0  0  0  0  0  0  0  0  0
   10.9364    3.9056   -4.3326 O   0  0  0  0  0  0  0  0  0  0  0  0
   20.9154    6.9759   -4.9169 S   0  0  0  0  0  0  0  0  0  0  0  0
   21.2444   11.4906   -7.9837 H   0  0  0  0  0  0  0  0  0  0  0  0
   22.2264   11.5183   -9.4876 H   0  0  0  0  0  0  0  0  0  0  0  0
   20.5644   12.1996   -9.4876 H   0  0  0  0  0  0  0  0  0  0  0  0
   20.7178    7.3015   -9.3989 H   0  0  0  0  0  0  0  0  0  0  0  0
   17.7617    8.2831   -9.1652 H   0  0  0  0  0  0  0  0  0  0  0  0
   18.8415    8.6364  -10.5812 H   0  0  0  0  0  0  0  0  0  0  0  0
   19.1038    6.1644  -10.8754 H   0  0  0  0  0  0  0  0  0  0  0  0
   17.7902    5.9687   -9.6352 H   0  0  0  0  0  0  0  0  0  0  0  0
   16.0262    5.0089  -10.9407 H   0  0  0  0  0  0  0  0  0  0  0  0
   14.2695    5.2594  -12.6970 H   0  0  0  0  0  0  0  0  0  0  0  0
   14.3280    7.2281  -14.2593 H   0  0  0  0  0  0  0  0  0  0  0  0
   16.1969    8.8994  -14.0690 H   0  0  0  0  0  0  0  0  0  0  0  0
   17.9263    8.6576  -12.2870 H   0  0  0  0  0  0  0  0  0  0  0  0
   18.4218    5.1029   -5.9033 H   0  0  0  0  0  0  0  0  0  0  0  0
   14.2117    4.4964   -4.2812 H   0  0  0  0  0  0  0  0  0  0  0  0
   14.6353    6.0342   -3.4016 H   0  0  0  0  0  0  0  0  0  0  0  0
   12.8099    4.4292   -5.7608 H   0  0  0  0  0  0  0  0  0  0  0  0
   12.7224    5.6330   -7.0888 H   0  0  0  0  0  0  0  0  0  0  0  0
   11.5861    7.9756   -6.3712 H   0  0  0  0  0  0  0  0  0  0  0  0
    9.3686    8.8641   -5.4954 H   0  0  0  0  0  0  0  0  0  0  0  0
    6.8345    6.4663   -2.3099 H   0  0  0  0  0  0  0  0  0  0  0  0
    5.7365    6.5480   -3.7291 H   0  0  0  0  0  0  0  0  0  0  0  0
    7.1205    5.4030   -3.7291 H   0  0  0  0  0  0  0  0  0  0  0  0
    8.6543    5.0335   -3.5400 H   0  0  0  0  0  0  0  0  0  0  0  0
   10.6862    4.2045   -2.2716 H   0  0  0  0  0  0  0  0  0  0  0  0
   10.9418    2.4995   -2.7762 H   0  0  0  0  0  0  0  0  0  0  0  0
   12.3194    3.6523   -2.7762 H   0  0  0  0  0  0  0  0  0  0  0  0
   17.8506    6.9838   -3.0132 H   0  0  0  0  0  0  0  0  0  0  0  0
   19.8319    7.9347   -1.5905 H   0  0  0  0  0  0  0  0  0  0  0  0
   22.1700    7.8851   -2.8584 H   0  0  0  0  0  0  0  0  0  0  0  0
   20.4759    9.8973  -10.4449 H   0  0  0  0  0  0  0  0  0  0  0  0
   20.1744    6.0989   -7.5553 H   0  0  0  0  0  0  0  0  0  0  0  0
   16.3948    7.2135   -5.5918 H   0  0  0  0  0  0  0  0  0  0  0  0
   13.4861    7.1192   -4.8656 H   0  0  0  0  0  0  0  0  0  0  0  0
   14.5210    6.5632   -6.1070 H   0  0  0  0  0  0  0  0  0  0  0  0
  1 29  1  0
  2  3  1  0
  2 29  1  0
  2 33  2  0
  3  4  1  0
  3 30  1  0
  4  5  1  0
  5  6  1  0
  6  7  2  0
  6 11  1  0
  7  8  1  0
  8  9  2  0
  9 10  1  0
 10 11  2  0
 12 13  1  0
 12 30  1  0
 12 34  2  0
 13 25  1  0
 13 31  1  0
 14 15  1  0
 14 31  1  0
 14 35  2  0
 15 32  1  0
 16 17  1  0
 16 32  1  0
 17 18  2  0
 17 23  1  0
 18 19  1  0
 19 20  2  0
 20 22  1  0
 20 36  1  0
 21 36  1  0
 22 23  2  0
 23 37  1  0
 24 37  1  0
 25 26  2  0
 25 38  1  0
 26 27  1  0
 27 28  2  0
 28 38  1  0
  1 39  1  0
  1 40  1  0
  1 41  1  0
  3 42  1  6
  4 43  1  0
  4 44  1  0
  5 45  1  0
  5 46  1  0
  7 47  1  0
  8 48  1  0
  9 49  1  0
 10 50  1  0
 11 51  1  0
 13 52  1  6
 15 53  1  0
 15 54  1  0
 16 55  1  0
 16 56  1  0
 18 57  1  0
 19 58  1  0
 21 59  1  0
 21 60  1  0
 21 61  1  0
 22 62  1  0
 24 63  1  0
 24 64  1  0
 24 65  1  0
 26 66  1  0
 27 67  1  0
 28 68  1  0
 29 69  1  0
 30 70  1  0
 31 71  1  0
 32 72  1  0
 32 73  1  0
M  CHG  1  32   1
M  END
>  <filename_input>  (16) 
7U3J_L6U_docked.sdf

>  <pdb_id>  (16) 
7U3J_L6U

>  <pose_rank>  (16) 
15

>  <num_atoms_heavy>  (16) 
38

>  <num_torsions>  (16) 
14

>  <pose>  (16) 
[18.243835364537787, 6.177475587995855, -5.749456395621552, 1.539804351758412, -5.586480745784385, -0.1933176098966412, 3.9958324248895534, -0.24831976918989815, 2.781623278055922, 0.9025222479353717, -0.0782964069481354, 4.275456322144915, 4.977758775947345, 5.775086960018123, 2.8425831678728986, -5.110159501212153, -12.015821121596346, 2.7508541425124156, 2.934239648704336, -1.1502651906565364]

>  <energy>  (16) 
-609.787813956508

>  <inter_energy>  (16) 
-658.0258914553805

>  <intra_energy>  (16) 
57.42544070296474

>  <rmsd>  (16) 
5.33657

>  <sdf_rank>  (16) 
0

$$$$

     RDKit          3D

 73 75  0  0  0  0  0  0  0  0999 V2000
   15.4791    7.4431  -13.2199 C   0  0  0  0  0  0  0  0  0  0  0  0
   16.0668    6.3706  -11.0109 C   0  0  0  0  0  0  0  0  0  0  0  0
   16.5933    6.4715   -9.6391 C   0  0  2  0  0  0  0  0  0  0  0  0
   18.1855    6.5501   -9.6387 C   0  0  0  0  0  0  0  0  0  0  0  0
   18.7485    6.6001   -8.2410 C   0  0  0  0  0  0  0  0  0  0  0  0
   19.9624    7.5635   -8.1303 C   0  0  0  0  0  0  0  0  0  0  0  0
   21.0772    7.2099   -7.3297 C   0  0  0  0  0  0  0  0  0  0  0  0
   22.1901    8.0612   -7.2133 C   0  0  0  0  0  0  0  0  0  0  0  0
   22.2168    9.2799   -7.9146 C   0  0  0  0  0  0  0  0  0  0  0  0
   21.1141    9.6342   -8.7207 C   0  0  0  0  0  0  0  0  0  0  0  0
   20.0108    8.7699   -8.8380 C   0  0  0  0  0  0  0  0  0  0  0  0
   15.6372    5.6235   -7.5403 C   0  0  0  0  0  0  0  0  0  0  0  0
   15.3126    4.4430   -6.6189 C   0  0  1  0  0  0  0  0  0  0  0  0
   13.1757    3.5845   -5.6940 C   0  0  0  0  0  0  0  0  0  0  0  0
   11.6611    3.3966   -5.7313 C   0  0  0  0  0  0  0  0  0  0  0  0
   11.2253    5.8859   -5.3624 C   0  0  0  0  0  0  0  0  0  0  0  0
    9.9031    6.4789   -4.8851 C   0  0  0  0  0  0  0  0  0  0  0  0
    9.0950    5.7553   -3.9684 C   0  0  0  0  0  0  0  0  0  0  0  0
    7.8549    6.2980   -3.4768 C   0  0  0  0  0  0  0  0  0  0  0  0
    7.4662    7.5856   -3.9149 C   0  0  0  0  0  0  0  0  0  0  0  0
    5.6420    9.1360   -4.3451 C   0  0  0  0  0  0  0  0  0  0  0  0
    8.2498    8.3145   -4.8206 C   0  0  0  0  0  0  0  0  0  0  0  0
    9.4620    7.7674   -5.2724 C   0  0  0  0  0  0  0  0  0  0  0  0
    9.6507    9.5222   -7.0364 C   0  0  0  0  0  0  0  0  0  0  0  0
   15.7990    4.9126   -5.3158 C   0  0  0  0  0  0  0  0  0  0  0  0
   16.4429    6.1299   -5.0381 C   0  0  0  0  0  0  0  0  0  0  0  0
   16.8079    6.3695   -3.6636 C   0  0  0  0  0  0  0  0  0  0  0  0
   16.3983    5.3594   -2.7742 C   0  0  0  0  0  0  0  0  0  0  0  0
   16.0099    7.5297  -11.8592 N   0  0  0  0  0  0  0  0  0  0  0  0
   16.1877    5.4045   -8.7537 N   0  0  0  0  0  0  0  0  0  0  0  0
   13.8873    4.2611   -6.6543 N   0  0  0  0  0  0  0  0  0  0  0  0
   10.9383    4.6110   -6.2185 N   0  0  0  0  0  0  0  0  0  0  0  0
   15.6564    5.2799  -11.4459 O   0  0  0  0  0  0  0  0  0  0  0  0
   15.3986    6.8069   -7.1754 O   0  0  0  0  0  0  0  0  0  0  0  0
   13.8105    3.1300   -4.7151 O   0  0  0  0  0  0  0  0  0  0  0  0
    6.2698    8.1680   -3.4466 O   0  0  0  0  0  0  0  0  0  0  0  0
   10.2386    8.4835   -6.2017 O   0  0  0  0  0  0  0  0  0  0  0  0
   15.6034    4.1159   -3.7420 S   0  0  0  0  0  0  0  0  0  0  0  0
   14.3942    7.2662  -13.1797 H   0  0  0  0  0  0  0  0  0  0  0  0
   15.6775    8.3855  -13.7515 H   0  0  0  0  0  0  0  0  0  0  0  0
   15.9667    6.6126  -13.7515 H   0  0  0  0  0  0  0  0  0  0  0  0
   16.1513    7.4002   -9.2489 H   0  0  0  0  0  0  0  0  0  0  0  0
   18.5849    5.6624  -10.1509 H   0  0  0  0  0  0  0  0  0  0  0  0
   18.4799    7.4748  -10.1566 H   0  0  0  0  0  0  0  0  0  0  0  0
   17.9608    6.9428   -7.5540 H   0  0  0  0  0  0  0  0  0  0  0  0
   19.0955    5.5892   -7.9809 H   0  0  0  0  0  0  0  0  0  0  0  0
   21.0717    6.2517   -6.7895 H   0  0  0  0  0  0  0  0  0  0  0  0
   23.0386    7.7744   -6.5747 H   0  0  0  0  0  0  0  0  0  0  0  0
   23.0865    9.9487   -7.8356 H   0  0  0  0  0  0  0  0  0  0  0  0
   21.1175   10.5924   -9.2609 H   0  0  0  0  0  0  0  0  0  0  0  0
   19.1736    9.0463   -9.4957 H   0  0  0  0  0  0  0  0  0  0  0  0
   15.7633    3.4746   -6.8819 H   0  0  0  0  0  0  0  0  0  0  0  0
   11.4277    2.5562   -6.4015 H   0  0  0  0  0  0  0  0  0  0  0  0
   11.3262    3.2029   -4.7016 H   0  0  0  0  0  0  0  0  0  0  0  0
   11.7611    6.6267   -5.9741 H   0  0  0  0  0  0  0  0  0  0  0  0
   11.8437    5.6157   -4.4937 H   0  0  0  0  0  0  0  0  0  0  0  0
    9.4224    4.7620   -3.6275 H   0  0  0  0  0  0  0  0  0  0  0  0
    7.2261    5.7259   -2.7786 H   0  0  0  0  0  0  0  0  0  0  0  0
    5.1379    9.9133   -3.7522 H   0  0  0  0  0  0  0  0  0  0  0  0
    6.4115    9.6001   -4.9796 H   0  0  0  0  0  0  0  0  0  0  0  0
    4.9044    8.6227   -4.9796 H   0  0  0  0  0  0  0  0  0  0  0  0
    7.9194    9.3027   -5.1730 H   0  0  0  0  0  0  0  0  0  0  0  0
    9.2099   10.3009   -6.3966 H   0  0  0  0  0  0  0  0  0  0  0  0
   10.4306    9.9675   -7.6715 H   0  0  0  0  0  0  0  0  0  0  0  0
    8.8674    9.0827   -7.6715 H   0  0  0  0  0  0  0  0  0  0  0  0
   16.6579    6.8633   -5.8292 H   0  0  0  0  0  0  0  0  0  0  0  0
   17.3589    7.2645   -3.3389 H   0  0  0  0  0  0  0  0  0  0  0  0
   16.5452    5.3471   -1.6841 H   0  0  0  0  0  0  0  0  0  0  0  0
   16.3479    8.4353  -11.5035 H   0  0  0  0  0  0  0  0  0  0  0  0
   16.3247    4.4315   -9.0623 H   0  0  0  0  0  0  0  0  0  0  0  0
   13.3680    4.6626   -7.4481 H   0  0  0  0  0  0  0  0  0  0  0  0
   11.2286    4.7968   -7.1891 H   0  0  0  0  0  0  0  0  0  0  0  0
    9.9297    4.4154   -6.1457 H   0  0  0  0  0  0  0  0  0  0  0  0
  1 29  1  0
  2  3  1  0
  2 29  1  0
  2 33  2  0
  3  4  1  0
  3 30  1  0
  4  5  1  0
  5  6  1  0
  6  7  2  0
  6 11  1  0
  7  8  1  0
  8  9  2  0
  9 10  1  0
 10 11  2  0
 12 13  1  0
 12 30  1  0
 12 34  2  0
 13 25  1  0
 13 31  1  0
 14 15  1  0
 14 31  1  0
 14 35  2  0
 15 32  1  0
 16 17  1  0
 16 32  1  0
 17 18  2  0
 17 23  1  0
 18 19  1  0
 19 20  2  0
 20 22  1  0
 20 36  1  0
 21 36  1  0
 22 23  2  0
 23 37  1  0
 24 37  1  0
 25 26  2  0
 25 38  1  0
 26 27  1  0
 27 28  2  0
 28 38  1  0
  1 39  1  0
  1 40  1  0
  1 41  1  0
  3 42  1  1
  4 43  1  0
  4 44  1  0
  5 45  1  0
  5 46  1  0
  7 47  1  0
  8 48  1  0
  9 49  1  0
 10 50  1  0
 11 51  1  0
 13 52  1  6
 15 53  1  0
 15 54  1  0
 16 55  1  0
 16 56  1  0
 18 57  1  0
 19 58  1  0
 21 59  1  0
 21 60  1  0
 21 61  1  0
 22 62  1  0
 24 63  1  0
 24 64  1  0
 24 65  1  0
 26 66  1  0
 27 67  1  0
 28 68  1  0
 29 69  1  0
 30 70  1  0
 31 71  1  0
 32 72  1  0
 32 73  1  0
M  CHG  1  32   1
M  END
>  <filename_input>  (17) 
7U3J_L6U_docked.sdf

>  <pdb_id>  (17) 
7U3J_L6U

>  <pose_rank>  (17) 
16

>  <num_atoms_heavy>  (17) 
38

>  <num_torsions>  (17) 
14

>  <pose>  (17) 
[15.31260993696698, 4.442973252129946, -6.618908313657658, -0.2252623758321996, -3.4051990996228065, -4.9222575160976305, 1.700146560352092, -5.5435665008991215, -0.7348624813522437, 0.44851155123285813, 0.1659775399681469, -1.513205256178463, -1.3213508993725902, -5.961003331008708, -4.756769183952687, -1.9121672477027223, -3.521543127777768, 2.737787926092763, -2.703187675706033, -0.39421192256304655]

>  <energy>  (17) 
-675.3289900212537

>  <inter_energy>  (17) 
-823.969446267375

>  <intra_energy>  (17) 
148.3779329824136

>  <rmsd>  (17) 
2.91706

>  <sdf_rank>  (17) 
0

$$$$

     RDKit          3D

 73 75  0  0  0  0  0  0  0  0999 V2000
   22.3606    8.0665   -7.7855 C   0  0  0  0  0  0  0  0  0  0  0  0
   19.9794    8.0858   -6.9463 C   0  0  0  0  0  0  0  0  0  0  0  0
   19.0098    8.2550   -5.8506 C   0  0  2  0  0  0  0  0  0  0  0  0
   19.4117    7.3718   -4.5858 C   0  0  0  0  0  0  0  0  0  0  0  0
   20.4827    8.0303   -3.7538 C   0  0  0  0  0  0  0  0  0  0  0  0
   20.0319    9.4102   -3.2002 C   0  0  0  0  0  0  0  0  0  0  0  0
   18.9282   10.0816   -3.7832 C   0  0  0  0  0  0  0  0  0  0  0  0
   18.4970   11.3299   -3.3009 C   0  0  0  0  0  0  0  0  0  0  0  0
   19.1534   11.9240   -2.2083 C   0  0  0  0  0  0  0  0  0  0  0  0
   20.2474   11.2569   -1.6171 C   0  0  0  0  0  0  0  0  0  0  0  0
   20.6633   10.0036   -2.1012 C   0  0  0  0  0  0  0  0  0  0  0  0
   17.2608    6.7859   -6.7563 C   0  0  0  0  0  0  0  0  0  0  0  0
   15.8041    6.5736   -7.1820 C   0  0  1  0  0  0  0  0  0  0  0  0
   14.8504    5.8602   -5.0048 C   0  0  0  0  0  0  0  0  0  0  0  0
   14.2519    4.8177   -4.0638 C   0  0  0  0  0  0  0  0  0  0  0  0
   11.9644    5.1973   -5.1342 C   0  0  0  0  0  0  0  0  0  0  0  0
   10.6993    5.9944   -4.8316 C   0  0  0  0  0  0  0  0  0  0  0  0
   10.5995    7.3470   -5.2529 C   0  0  0  0  0  0  0  0  0  0  0  0
    9.4089    8.1193   -5.0076 C   0  0  0  0  0  0  0  0  0  0  0  0
    8.3255    7.4905   -4.3507 C   0  0  0  0  0  0  0  0  0  0  0  0
    6.1073    7.4752   -3.3526 C   0  0  0  0  0  0  0  0  0  0  0  0
    8.4057    6.1567   -3.9261 C   0  0  0  0  0  0  0  0  0  0  0  0
    9.5733    5.4224   -4.1915 C   0  0  0  0  0  0  0  0  0  0  0  0
    9.9058    3.7822   -2.3406 C   0  0  0  0  0  0  0  0  0  0  0  0
   15.9425    6.0865   -8.5600 C   0  0  0  0  0  0  0  0  0  0  0  0
   14.9985    5.3568   -9.3016 C   0  0  0  0  0  0  0  0  0  0  0  0
   15.3653    5.0106  -10.6527 C   0  0  0  0  0  0  0  0  0  0  0  0
   16.6111    5.5215  -11.0604 C   0  0  0  0  0  0  0  0  0  0  0  0
   21.3894    8.2222   -6.7024 N   0  0  0  0  0  0  0  0  0  0  0  0
   17.6404    7.9565   -6.2007 N   0  0  0  0  0  0  0  0  0  0  0  0
   15.2447    5.5926   -6.2929 N   0  0  0  0  0  0  0  0  0  0  0  0
   12.7920    5.0269   -3.8202 N   0  0  0  0  0  0  0  0  0  0  0  0
   19.5849    7.8320   -8.0984 O   0  0  0  0  0  0  0  0  0  0  0  0
   18.1173    5.8755   -6.9231 O   0  0  0  0  0  0  0  0  0  0  0  0
   14.9578    7.0400   -4.5992 O   0  0  0  0  0  0  0  0  0  0  0  0
    7.1309    8.1994   -4.1051 O   0  0  0  0  0  0  0  0  0  0  0  0
    9.6686    4.0920   -3.7438 O   0  0  0  0  0  0  0  0  0  0  0  0
   17.2879    6.3854   -9.6782 S   0  0  0  0  0  0  0  0  0  0  0  0
   23.3621    7.9060   -7.3597 H   0  0  0  0  0  0  0  0  0  0  0  0
   22.0829    7.2014   -8.4056 H   0  0  0  0  0  0  0  0  0  0  0  0
   22.3672    8.9751   -8.4056 H   0  0  0  0  0  0  0  0  0  0  0  0
   19.0558    9.3283   -5.6141 H   0  0  0  0  0  0  0  0  0  0  0  0
   18.5194    7.2203   -3.9606 H   0  0  0  0  0  0  0  0  0  0  0  0
   19.8080    6.4136   -4.9529 H   0  0  0  0  0  0  0  0  0  0  0  0
   20.7282    7.3722   -2.9073 H   0  0  0  0  0  0  0  0  0  0  0  0
   21.3576    8.1957   -4.3998 H   0  0  0  0  0  0  0  0  0  0  0  0
   18.3993    9.6175   -4.6286 H   0  0  0  0  0  0  0  0  0  0  0  0
   17.6476   11.8411   -3.7775 H   0  0  0  0  0  0  0  0  0  0  0  0
   18.8183   12.8968   -1.8193 H   0  0  0  0  0  0  0  0  0  0  0  0
   20.7782   11.7200   -0.7722 H   0  0  0  0  0  0  0  0  0  0  0  0
   21.4973    9.4821   -1.6087 H   0  0  0  0  0  0  0  0  0  0  0  0
   15.1454    7.4535   -7.1395 H   0  0  0  0  0  0  0  0  0  0  0  0
   14.3949    3.8211   -4.5069 H   0  0  0  0  0  0  0  0  0  0  0  0
   14.7659    4.9116   -3.0958 H   0  0  0  0  0  0  0  0  0  0  0  0
   11.6901    4.2072   -5.5270 H   0  0  0  0  0  0  0  0  0  0  0  0
   12.5671    5.7317   -5.8833 H   0  0  0  0  0  0  0  0  0  0  0  0
   11.4473    7.8134   -5.7762 H   0  0  0  0  0  0  0  0  0  0  0  0
    9.3438    9.1711   -5.3230 H   0  0  0  0  0  0  0  0  0  0  0  0
    6.2863    7.6019   -2.2747 H   0  0  0  0  0  0  0  0  0  0  0  0
    5.1141    7.8727   -3.6085 H   0  0  0  0  0  0  0  0  0  0  0  0
    6.1516    6.4063   -3.6085 H   0  0  0  0  0  0  0  0  0  0  0  0
    7.5646    5.6910   -3.3916 H   0  0  0  0  0  0  0  0  0  0  0  0
    9.3581    4.4976   -1.7095 H   0  0  0  0  0  0  0  0  0  0  0  0
    9.5560    2.7615   -2.1262 H   0  0  0  0  0  0  0  0  0  0  0  0
   10.9824    3.8534   -2.1262 H   0  0  0  0  0  0  0  0  0  0  0  0
   14.0285    5.0642   -8.8733 H   0  0  0  0  0  0  0  0  0  0  0  0
   14.7264    4.4000  -11.3076 H   0  0  0  0  0  0  0  0  0  0  0  0
   17.0746    5.4048  -12.0512 H   0  0  0  0  0  0  0  0  0  0  0  0
   21.7211    8.4329   -5.7503 H   0  0  0  0  0  0  0  0  0  0  0  0
   16.9202    8.6698   -6.0180 H   0  0  0  0  0  0  0  0  0  0  0  0
   15.1326    4.6305   -6.6431 H   0  0  0  0  0  0  0  0  0  0  0  0
   12.4262    4.2124   -3.3067 H   0  0  0  0  0  0  0  0  0  0  0  0
   12.6944    5.9002   -3.2828 H   0  0  0  0  0  0  0  0  0  0  0  0
  1 29  1  0
  2  3  1  0
  2 29  1  0
  2 33  2  0
  3  4  1  0
  3 30  1  0
  4  5  1  0
  5  6  1  0
  6  7  2  0
  6 11  1  0
  7  8  1  0
  8  9  2  0
  9 10  1  0
 10 11  2  0
 12 13  1  0
 12 30  1  0
 12 34  2  0
 13 25  1  0
 13 31  1  0
 14 15  1  0
 14 31  1  0
 14 35  2  0
 15 32  1  0
 16 17  1  0
 16 32  1  0
 17 18  2  0
 17 23  1  0
 18 19  1  0
 19 20  2  0
 20 22  1  0
 20 36  1  0
 21 36  1  0
 22 23  2  0
 23 37  1  0
 24 37  1  0
 25 26  2  0
 25 38  1  0
 26 27  1  0
 27 28  2  0
 28 38  1  0
  1 39  1  0
  1 40  1  0
  1 41  1  0
  3 42  1  1
  4 43  1  0
  4 44  1  0
  5 45  1  0
  5 46  1  0
  7 47  1  0
  8 48  1  0
  9 49  1  0
 10 50  1  0
 11 51  1  0
 13 52  1  6
 15 53  1  0
 15 54  1  0
 16 55  1  0
 16 56  1  0
 18 57  1  0
 19 58  1  0
 21 59  1  0
 21 60  1  0
 21 61  1  0
 22 62  1  0
 24 63  1  0
 24 64  1  0
 24 65  1  0
 26 66  1  0
 27 67  1  0
 28 68  1  0
 29 69  1  0
 30 70  1  0
 31 71  1  0
 32 72  1  0
 32 73  1  0
M  CHG  1  32   1
M  END
>  <filename_input>  (18) 
7U3J_L6U_docked.sdf

>  <pdb_id>  (18) 
7U3J_L6U

>  <pose_rank>  (18) 
17

>  <num_atoms_heavy>  (18) 
38

>  <num_torsions>  (18) 
14

>  <pose>  (18) 
[15.804149655123073, 6.573575304651527, -7.181992809424656, 2.5552686533356392, 1.2652378434163747, -0.6103725158316835, 4.513161951655629, 0.6313573176666356, 2.4457876957936127, 0.9105035795745328, -1.608540272669522, -4.2778814261596, 0.820242002969628, -1.8207063497584766, 0.3132588661018889, -0.0197564912938969, 2.2476977009500243, 3.433326466523977, -3.118883059115912, -1.3435251824945853]

>  <energy>  (18) 
-651.4293510539665

>  <inter_energy>  (18) 
-787.164404259302

>  <intra_energy>  (18) 
138.2354863156654

>  <rmsd>  (18) 
4.57113

>  <sdf_rank>  (18) 
0

$$$$

     RDKit          3D

 73 75  0  0  0  0  0  0  0  0999 V2000
    9.8930    2.9874   -1.9008 C   0  0  0  0  0  0  0  0  0  0  0  0
   10.3948    4.7771   -3.6097 C   0  0  0  0  0  0  0  0  0  0  0  0
   11.1209    5.9930   -4.0141 C   0  0  2  0  0  0  0  0  0  0  0  0
   10.6038    6.5293   -5.4235 C   0  0  0  0  0  0  0  0  0  0  0  0
   11.0251    7.9549   -5.6749 C   0  0  0  0  0  0  0  0  0  0  0  0
    9.8254    8.9406   -5.6223 C   0  0  0  0  0  0  0  0  0  0  0  0
    9.8349   10.1120   -6.4200 C   0  0  0  0  0  0  0  0  0  0  0  0
    8.7618   11.0201   -6.3941 C   0  0  0  0  0  0  0  0  0  0  0  0
    7.6447   10.7620   -5.5798 C   0  0  0  0  0  0  0  0  0  0  0  0
    7.6244    9.5930   -4.7897 C   0  0  0  0  0  0  0  0  0  0  0  0
    8.6989    8.6864   -4.8316 C   0  0  0  0  0  0  0  0  0  0  0  0
   13.2066    5.4332   -5.1863 C   0  0  0  0  0  0  0  0  0  0  0  0
   14.7237    5.2200   -5.1534 C   0  0  1  0  0  0  0  0  0  0  0  0
   16.5757    6.5978   -4.2420 C   0  0  0  0  0  0  0  0  0  0  0  0
   17.1472    7.6294   -3.2726 C   0  0  0  0  0  0  0  0  0  0  0  0
   18.2024    9.8867   -3.8327 C   0  0  0  0  0  0  0  0  0  0  0  0
   19.4373   10.5015   -4.4843 C   0  0  0  0  0  0  0  0  0  0  0  0
   19.9107   11.7667   -4.0456 C   0  0  0  0  0  0  0  0  0  0  0  0
   21.0891   12.3628   -4.6202 C   0  0  0  0  0  0  0  0  0  0  0  0
   21.7813   11.6463   -5.6244 C   0  0  0  0  0  0  0  0  0  0  0  0
   23.7328   13.0716   -5.3482 C   0  0  0  0  0  0  0  0  0  0  0  0
   21.3285   10.3969   -6.0714 C   0  0  0  0  0  0  0  0  0  0  0  0
   20.1848    9.8322   -5.4832 C   0  0  0  0  0  0  0  0  0  0  0  0
   20.6208    7.4809   -6.1958 C   0  0  0  0  0  0  0  0  0  0  0  0
   15.1109    5.4688   -6.5475 C   0  0  0  0  0  0  0  0  0  0  0  0
   16.2922    6.0758   -7.0053 C   0  0  0  0  0  0  0  0  0  0  0  0
   16.4498    6.1876   -8.4344 C   0  0  0  0  0  0  0  0  0  0  0  0
   15.4084    5.6013   -9.1766 C   0  0  0  0  0  0  0  0  0  0  0  0
   10.6010    4.2010   -2.3090 N   0  0  0  0  0  0  0  0  0  0  0  0
   12.5568    5.8491   -4.0781 N   0  0  0  0  0  0  0  0  0  0  0  0
   15.2649    6.1876   -4.2387 N   0  0  0  0  0  0  0  0  0  0  0  0
   18.3499    8.3315   -3.8159 N   0  0  0  0  0  0  0  0  0  0  0  0
    9.6011    4.2304   -4.3963 O   0  0  0  0  0  0  0  0  0  0  0  0
   12.5513    5.2198   -6.2423 O   0  0  0  0  0  0  0  0  0  0  0  0
   17.3304    6.1194   -5.1192 O   0  0  0  0  0  0  0  0  0  0  0  0
   22.9516   12.1796   -6.2040 O   0  0  0  0  0  0  0  0  0  0  0  0
   19.7115    8.5911   -5.9469 O   0  0  0  0  0  0  0  0  0  0  0  0
   14.2408    4.9719   -8.0123 S   0  0  0  0  0  0  0  0  0  0  0  0
    9.8614    2.9332   -0.8026 H   0  0  0  0  0  0  0  0  0  0  0  0
    8.8669    3.0109   -2.2964 H   0  0  0  0  0  0  0  0  0  0  0  0
   10.4184    2.1057   -2.2964 H   0  0  0  0  0  0  0  0  0  0  0  0
   10.9042    6.7147   -3.2127 H   0  0  0  0  0  0  0  0  0  0  0  0
   11.0164    5.8915   -6.2191 H   0  0  0  0  0  0  0  0  0  0  0  0
    9.5043    6.4963   -5.4167 H   0  0  0  0  0  0  0  0  0  0  0  0
   11.7580    8.2479   -4.9087 H   0  0  0  0  0  0  0  0  0  0  0  0
   11.4589    8.0053   -6.6845 H   0  0  0  0  0  0  0  0  0  0  0  0
   10.6978   10.3145   -7.0714 H   0  0  0  0  0  0  0  0  0  0  0  0
    8.7959   11.9309   -7.0099 H   0  0  0  0  0  0  0  0  0  0  0  0
    6.7971   11.4628   -5.5589 H   0  0  0  0  0  0  0  0  0  0  0  0
    6.7628    9.3894   -4.1369 H   0  0  0  0  0  0  0  0  0  0  0  0
    8.6532    7.7640   -4.2341 H   0  0  0  0  0  0  0  0  0  0  0  0
   15.0752    4.2334   -4.8171 H   0  0  0  0  0  0  0  0  0  0  0  0
   16.3704    8.3781   -3.0579 H   0  0  0  0  0  0  0  0  0  0  0  0
   17.4592    7.0929   -2.3644 H   0  0  0  0  0  0  0  0  0  0  0  0
   18.1070   10.2582   -2.8018 H   0  0  0  0  0  0  0  0  0  0  0  0
   17.3054   10.1663   -4.4047 H   0  0  0  0  0  0  0  0  0  0  0  0
   19.3673   12.3011   -3.2525 H   0  0  0  0  0  0  0  0  0  0  0  0
   21.4419   13.3499   -4.2867 H   0  0  0  0  0  0  0  0  0  0  0  0
   23.5289   12.8388   -4.2927 H   0  0  0  0  0  0  0  0  0  0  0  0
   24.8043   12.9318   -5.5542 H   0  0  0  0  0  0  0  0  0  0  0  0
   23.4530   14.1153   -5.5542 H   0  0  0  0  0  0  0  0  0  0  0  0
   21.8624    9.8654   -6.8730 H   0  0  0  0  0  0  0  0  0  0  0  0
   20.9620    7.0643   -5.2365 H   0  0  0  0  0  0  0  0  0  0  0  0
   20.0987    6.7008   -6.7693 H   0  0  0  0  0  0  0  0  0  0  0  0
   21.4884    7.8390   -6.7693 H   0  0  0  0  0  0  0  0  0  0  0  0
   17.0584    6.4471   -6.3088 H   0  0  0  0  0  0  0  0  0  0  0  0
   17.3098    6.6879   -8.9036 H   0  0  0  0  0  0  0  0  0  0  0  0
   15.3357    5.5457  -10.2728 H   0  0  0  0  0  0  0  0  0  0  0  0
   11.2575    4.6494   -1.6542 H   0  0  0  0  0  0  0  0  0  0  0  0
   13.1108    6.0743   -3.2394 H   0  0  0  0  0  0  0  0  0  0  0  0
   14.6312    6.5984   -3.5383 H   0  0  0  0  0  0  0  0  0  0  0  0
   19.1627    8.0865   -3.2327 H   0  0  0  0  0  0  0  0  0  0  0  0
   18.4665    8.0255   -4.7925 H   0  0  0  0  0  0  0  0  0  0  0  0
  1 29  1  0
  2  3  1  0
  2 29  1  0
  2 33  2  0
  3  4  1  0
  3 30  1  0
  4  5  1  0
  5  6  1  0
  6  7  2  0
  6 11  1  0
  7  8  1  0
  8  9  2  0
  9 10  1  0
 10 11  2  0
 12 13  1  0
 12 30  1  0
 12 34  2  0
 13 25  1  0
 13 31  1  0
 14 15  1  0
 14 31  1  0
 14 35  2  0
 15 32  1  0
 16 17  1  0
 16 32  1  0
 17 18  2  0
 17 23  1  0
 18 19  1  0
 19 20  2  0
 20 22  1  0
 20 36  1  0
 21 36  1  0
 22 23  2  0
 23 37  1  0
 24 37  1  0
 25 26  2  0
 25 38  1  0
 26 27  1  0
 27 28  2  0
 28 38  1  0
  1 39  1  0
  1 40  1  0
  1 41  1  0
  3 42  1  1
  4 43  1  0
  4 44  1  0
  5 45  1  0
  5 46  1  0
  7 47  1  0
  8 48  1  0
  9 49  1  0
 10 50  1  0
 11 51  1  0
 13 52  1  1
 15 53  1  0
 15 54  1  0
 16 55  1  0
 16 56  1  0
 18 57  1  0
 19 58  1  0
 21 59  1  0
 21 60  1  0
 21 61  1  0
 22 62  1  0
 24 63  1  0
 24 64  1  0
 24 65  1  0
 26 66  1  0
 27 67  1  0
 28 68  1  0
 29 69  1  0
 30 70  1  0
 31 71  1  0
 32 72  1  0
 32 73  1  0
M  CHG  1  32   1
M  END
>  <filename_input>  (19) 
7U3J_L6U_docked.sdf

>  <pdb_id>  (19) 
7U3J_L6U

>  <pose_rank>  (19) 
18

>  <num_atoms_heavy>  (19) 
38

>  <num_torsions>  (19) 
14

>  <pose>  (19) 
[14.723719158941915, 5.2199920929005605, -5.153384503694095, 1.358256625389559, -3.5323933574782953, 0.17977760059959855, -2.021269877200509, -4.2825517035284975, 3.0510460558554864, -1.2398616029286031, -0.1609044642783188, -0.9662778984323509, -1.4692942964723643, 0.3456197024378551, -0.49404612946754956, 1.268568871449175, 1.8723228098232914, -0.9862123620306296, 0.4632532255736501, 0.7527563725612975]

>  <energy>  (19) 
-410.63216080978117

>  <inter_energy>  (19) 
-652.2291252684869

>  <intra_energy>  (19) 
240.92934631436805

>  <rmsd>  (19) 
9.3623

>  <sdf_rank>  (19) 
0

$$$$

     RDKit          3D

 73 75  0  0  0  0  0  0  0  0999 V2000
    9.7103   10.4640   -8.9112 C   0  0  0  0  0  0  0  0  0  0  0  0
   10.3157    9.7505   -6.5661 C   0  0  0  0  0  0  0  0  0  0  0  0
   10.1709    8.8197   -5.4338 C   0  0  2  0  0  0  0  0  0  0  0  0
    9.4541    9.5257   -4.1973 C   0  0  0  0  0  0  0  0  0  0  0  0
    7.9546    9.5493   -4.3514 C   0  0  0  0  0  0  0  0  0  0  0  0
    7.2900    8.2428   -3.8361 C   0  0  0  0  0  0  0  0  0  0  0  0
    8.0168    7.0262   -3.8463 C   0  0  0  0  0  0  0  0  0  0  0  0
    7.4414    5.8296   -3.3838 C   0  0  0  0  0  0  0  0  0  0  0  0
    6.1276    5.8318   -2.8821 C   0  0  0  0  0  0  0  0  0  0  0  0
    5.4012    7.0414   -2.8606 C   0  0  0  0  0  0  0  0  0  0  0  0
    5.9908    8.2343   -3.3160 C   0  0  0  0  0  0  0  0  0  0  0  0
   11.5029    6.9456   -4.5670 C   0  0  0  0  0  0  0  0  0  0  0  0
   12.8260    6.4139   -4.0060 C   0  0  1  0  0  0  0  0  0  0  0  0
   15.1822    7.1739   -4.1780 C   0  0  0  0  0  0  0  0  0  0  0  0
   16.2999    7.9876   -4.8255 C   0  0  0  0  0  0  0  0  0  0  0  0
   16.7967    6.1474   -6.5253 C   0  0  0  0  0  0  0  0  0  0  0  0
   16.3705    5.7814   -7.9438 C   0  0  0  0  0  0  0  0  0  0  0  0
   15.0263    5.4021   -8.2012 C   0  0  0  0  0  0  0  0  0  0  0  0
   14.5844    5.0770   -9.5328 C   0  0  0  0  0  0  0  0  0  0  0  0
   15.5205    5.1639  -10.5897 C   0  0  0  0  0  0  0  0  0  0  0  0
   14.9182    6.0333  -12.7800 C   0  0  0  0  0  0  0  0  0  0  0  0
   16.8520    5.5351  -10.3550 C   0  0  0  0  0  0  0  0  0  0  0  0
   17.2522    5.8611   -9.0487 C   0  0  0  0  0  0  0  0  0  0  0  0
   19.5921    6.1579   -9.8632 C   0  0  0  0  0  0  0  0  0  0  0  0
   12.8162    5.0118   -4.4410 C   0  0  0  0  0  0  0  0  0  0  0  0
   13.9035    4.2651   -4.9246 C   0  0  0  0  0  0  0  0  0  0  0  0
   13.6408    2.8898   -5.2699 C   0  0  0  0  0  0  0  0  0  0  0  0
   12.3246    2.4702   -5.0040 C   0  0  0  0  0  0  0  0  0  0  0  0
    9.5664    9.5516   -7.7765 N   0  0  0  0  0  0  0  0  0  0  0  0
   11.4060    8.2303   -4.9713 N   0  0  0  0  0  0  0  0  0  0  0  0
   13.8788    7.1826   -4.6112 N   0  0  0  0  0  0  0  0  0  0  0  0
   16.4937    7.6587   -6.2708 N   0  0  0  0  0  0  0  0  0  0  0  0
   11.0977   10.7148   -6.4883 O   0  0  0  0  0  0  0  0  0  0  0  0
   10.4940    6.1938   -4.6530 O   0  0  0  0  0  0  0  0  0  0  0  0
   15.4686    6.4230   -3.2177 O   0  0  0  0  0  0  0  0  0  0  0  0
   15.1309    4.8743  -11.9141 O   0  0  0  0  0  0  0  0  0  0  0  0
   18.5936    6.2083   -8.8042 O   0  0  0  0  0  0  0  0  0  0  0  0
   11.4593    3.8703   -4.3670 S   0  0  0  0  0  0  0  0  0  0  0  0
    9.8717   11.4871   -8.5408 H   0  0  0  0  0  0  0  0  0  0  0  0
   10.5709   10.1555   -9.5229 H   0  0  0  0  0  0  0  0  0  0  0  0
    8.7966   10.4354   -9.5229 H   0  0  0  0  0  0  0  0  0  0  0  0
    9.5536    8.0023   -5.8349 H   0  0  0  0  0  0  0  0  0  0  0  0
    9.7081    8.9764   -3.2787 H   0  0  0  0  0  0  0  0  0  0  0  0
    9.8070   10.5665   -4.1493 H   0  0  0  0  0  0  0  0  0  0  0  0
    7.5533   10.3996   -3.7804 H   0  0  0  0  0  0  0  0  0  0  0  0
    7.7271    9.6432   -5.4235 H   0  0  0  0  0  0  0  0  0  0  0  0
    9.0503    7.0178   -4.2229 H   0  0  0  0  0  0  0  0  0  0  0  0
    8.0178    4.8933   -3.4144 H   0  0  0  0  0  0  0  0  0  0  0  0
    5.6718    4.9019   -2.5110 H   0  0  0  0  0  0  0  0  0  0  0  0
    4.3673    7.0513   -2.4852 H   0  0  0  0  0  0  0  0  0  0  0  0
    5.4223    9.1744   -3.2626 H   0  0  0  0  0  0  0  0  0  0  0  0
   12.9642    6.4874   -2.9172 H   0  0  0  0  0  0  0  0  0  0  0  0
   16.0526    9.0559   -4.7383 H   0  0  0  0  0  0  0  0  0  0  0  0
   17.2351    7.7409   -4.3015 H   0  0  0  0  0  0  0  0  0  0  0  0
   16.2379    5.5337   -5.8035 H   0  0  0  0  0  0  0  0  0  0  0  0
   17.8740    5.9614   -6.4039 H   0  0  0  0  0  0  0  0  0  0  0  0
   14.3095    5.3556   -7.3681 H   0  0  0  0  0  0  0  0  0  0  0  0
   13.5457    4.7692   -9.7231 H   0  0  0  0  0  0  0  0  0  0  0  0
   14.7540    6.9280  -12.1614 H   0  0  0  0  0  0  0  0  0  0  0  0
   15.8037    6.1840  -13.4150 H   0  0  0  0  0  0  0  0  0  0  0  0
   14.0369    5.8598  -13.4150 H   0  0  0  0  0  0  0  0  0  0  0  0
   17.5744    5.5706  -11.1838 H   0  0  0  0  0  0  0  0  0  0  0  0
   20.5967    6.1072   -9.4179 H   0  0  0  0  0  0  0  0  0  0  0  0
   19.4217    5.2672  -10.4858 H   0  0  0  0  0  0  0  0  0  0  0  0
   19.5122    7.0612  -10.4858 H   0  0  0  0  0  0  0  0  0  0  0  0
   14.9048    4.7072   -5.0344 H   0  0  0  0  0  0  0  0  0  0  0  0
   14.4036    2.2263   -5.7036 H   0  0  0  0  0  0  0  0  0  0  0  0
   11.9135    1.4623   -5.1628 H   0  0  0  0  0  0  0  0  0  0  0  0
    8.9180    8.7543   -7.8461 H   0  0  0  0  0  0  0  0  0  0  0  0
   12.2521    8.8173   -4.9488 H   0  0  0  0  0  0  0  0  0  0  0  0
   13.6416    7.7760   -5.4189 H   0  0  0  0  0  0  0  0  0  0  0  0
   15.6353    7.9106   -6.7813 H   0  0  0  0  0  0  0  0  0  0  0  0
   17.3110    8.1931   -6.5983 H   0  0  0  0  0  0  0  0  0  0  0  0
  1 29  1  0
  2  3  1  0
  2 29  1  0
  2 33  2  0
  3  4  1  0
  3 30  1  0
  4  5  1  0
  5  6  1  0
  6  7  2  0
  6 11  1  0
  7  8  1  0
  8  9  2  0
  9 10  1  0
 10 11  2  0
 12 13  1  0
 12 30  1  0
 12 34  2  0
 13 25  1  0
 13 31  1  0
 14 15  1  0
 14 31  1  0
 14 35  2  0
 15 32  1  0
 16 17  1  0
 16 32  1  0
 17 18  2  0
 17 23  1  0
 18 19  1  0
 19 20  2  0
 20 22  1  0
 20 36  1  0
 21 36  1  0
 22 23  2  0
 23 37  1  0
 24 37  1  0
 25 26  2  0
 25 38  1  0
 26 27  1  0
 27 28  2  0
 28 38  1  0
  1 39  1  0
  1 40  1  0
  1 41  1  0
  3 42  1  6
  4 43  1  0
  4 44  1  0
  5 45  1  0
  5 46  1  0
  7 47  1  0
  8 48  1  0
  9 49  1  0
 10 50  1  0
 11 51  1  0
 13 52  1  1
 15 53  1  0
 15 54  1  0
 16 55  1  0
 16 56  1  0
 18 57  1  0
 19 58  1  0
 21 59  1  0
 21 60  1  0
 21 61  1  0
 22 62  1  0
 24 63  1  0
 24 64  1  0
 24 65  1  0
 26 66  1  0
 27 67  1  0
 28 68  1  0
 29 69  1  0
 30 70  1  0
 31 71  1  0
 32 72  1  0
 32 73  1  0
M  CHG  1  32   1
M  END
>  <filename_input>  (20) 
7U3J_L6U_docked.sdf

>  <pdb_id>  (20) 
7U3J_L6U

>  <pose_rank>  (20) 
19

>  <num_atoms_heavy>  (20) 
38

>  <num_torsions>  (20) 
14

>  <pose>  (20) 
[12.825992175048045, 6.413878234109905, -4.005953204094797, 0.8265008326109262, -2.2264104163248892, 2.0276969994268725, 4.180402631211893, -4.201619076161869, -0.9621323897286731, -0.16034989363344732, -1.5894325202006319, -3.836068507539795, 0.6564200021567915, -0.24522974222499055, 1.1832730957438309, 4.382903300204002, 1.3706250303744265, 0.08360149383034522, -4.520617439539496, -0.09628216409599763]

>  <energy>  (20) 
-640.8201026905873

>  <inter_energy>  (20) 
-734.4826576855185

>  <intra_energy>  (20) 
96.49169565739723

>  <rmsd>  (20) 
8.50693

>  <sdf_rank>  (20) 
0

$$$$

     RDKit          3D

 73 75  0  0  0  0  0  0  0  0999 V2000
    9.0821    9.6932   -3.1125 C   0  0  0  0  0  0  0  0  0  0  0  0
   10.0495    9.1830   -5.3882 C   0  0  0  0  0  0  0  0  0  0  0  0
   10.3298    8.2297   -6.4754 C   0  0  2  0  0  0  0  0  0  0  0  0
    8.9820    7.6059   -7.0546 C   0  0  0  0  0  0  0  0  0  0  0  0
    8.5296    6.4047   -6.2637 C   0  0  0  0  0  0  0  0  0  0  0  0
    7.6691    6.8014   -5.0325 C   0  0  0  0  0  0  0  0  0  0  0  0
    6.9961    8.0485   -5.0103 C   0  0  0  0  0  0  0  0  0  0  0  0
    6.2088    8.4323   -3.9105 C   0  0  0  0  0  0  0  0  0  0  0  0
    6.0638    7.5628   -2.8148 C   0  0  0  0  0  0  0  0  0  0  0  0
    6.7237    6.3156   -2.8341 C   0  0  0  0  0  0  0  0  0  0  0  0
    7.5001    5.9378   -3.9443 C   0  0  0  0  0  0  0  0  0  0  0  0
   12.3626    7.3325   -5.4263 C   0  0  0  0  0  0  0  0  0  0  0  0
   13.3002    6.1499   -5.1612 C   0  0  1  0  0  0  0  0  0  0  0  0
   15.3428    5.7289   -6.5063 C   0  0  0  0  0  0  0  0  0  0  0  0
   16.0632    5.4244   -7.8174 C   0  0  0  0  0  0  0  0  0  0  0  0
   17.7545    7.3344   -7.9364 C   0  0  0  0  0  0  0  0  0  0  0  0
   19.2437    7.5873   -8.1510 C   0  0  0  0  0  0  0  0  0  0  0  0
   19.7727    7.6118   -9.4688 C   0  0  0  0  0  0  0  0  0  0  0  0
   21.1683    7.8749   -9.7080 C   0  0  0  0  0  0  0  0  0  0  0  0
   22.0028    8.1301   -8.5948 C   0  0  0  0  0  0  0  0  0  0  0  0
   23.8236    9.7133   -8.2870 C   0  0  0  0  0  0  0  0  0  0  0  0
   21.4992    8.1089   -7.2865 C   0  0  0  0  0  0  0  0  0  0  0  0
   20.1311    7.8642   -7.0831 C   0  0  0  0  0  0  0  0  0  0  0  0
   20.5043    7.5854   -4.6316 C   0  0  0  0  0  0  0  0  0  0  0  0
   12.3685    5.0873   -4.7638 C   0  0  0  0  0  0  0  0  0  0  0  0
   12.2986    3.7824   -5.2796 C   0  0  0  0  0  0  0  0  0  0  0  0
   11.3022    2.9125   -4.7049 C   0  0  0  0  0  0  0  0  0  0  0  0
   10.5768    3.4878   -3.6457 C   0  0  0  0  0  0  0  0  0  0  0  0
    9.3749    8.7525   -4.1942 N   0  0  0  0  0  0  0  0  0  0  0  0
   11.2188    7.1480   -6.1196 N   0  0  0  0  0  0  0  0  0  0  0  0
   13.9809    5.8677   -6.3952 N   0  0  0  0  0  0  0  0  0  0  0  0
   17.5100    5.7989   -7.7843 N   0  0  0  0  0  0  0  0  0  0  0  0
   10.3866   10.3754   -5.4980 O   0  0  0  0  0  0  0  0  0  0  0  0
   12.6498    8.4861   -5.0054 O   0  0  0  0  0  0  0  0  0  0  0  0
   16.0222    5.8229   -5.4587 O   0  0  0  0  0  0  0  0  0  0  0  0
   23.3726    8.4122   -8.7792 O   0  0  0  0  0  0  0  0  0  0  0  0
   19.6263    7.8155   -5.7706 O   0  0  0  0  0  0  0  0  0  0  0  0
   11.1663    5.1409   -3.4593 S   0  0  0  0  0  0  0  0  0  0  0  0
    9.2366    9.1969   -2.1431 H   0  0  0  0  0  0  0  0  0  0  0  0
    9.7523   10.5619   -3.1906 H   0  0  0  0  0  0  0  0  0  0  0  0
    8.0372   10.0281   -3.1906 H   0  0  0  0  0  0  0  0  0  0  0  0
   10.8451    8.8338   -7.2366 H   0  0  0  0  0  0  0  0  0  0  0  0
    8.1929    8.3714   -7.0200 H   0  0  0  0  0  0  0  0  0  0  0  0
    9.1752    7.2795   -8.0871 H   0  0  0  0  0  0  0  0  0  0  0  0
    7.9315    5.7542   -6.9189 H   0  0  0  0  0  0  0  0  0  0  0  0
    9.4269    5.8862   -5.8950 H   0  0  0  0  0  0  0  0  0  0  0  0
    7.0915    8.7288   -5.8694 H   0  0  0  0  0  0  0  0  0  0  0  0
    5.7070    9.4112   -3.9071 H   0  0  0  0  0  0  0  0  0  0  0  0
    5.4436    7.8512   -1.9533 H   0  0  0  0  0  0  0  0  0  0  0  0
    6.6302    5.6345   -1.9754 H   0  0  0  0  0  0  0  0  0  0  0  0
    7.9817    4.9490   -3.9574 H   0  0  0  0  0  0  0  0  0  0  0  0
   14.0769    6.2990   -4.3966 H   0  0  0  0  0  0  0  0  0  0  0  0
   15.9839    4.3461   -8.0197 H   0  0  0  0  0  0  0  0  0  0  0  0
   15.5841    6.0240   -8.6054 H   0  0  0  0  0  0  0  0  0  0  0  0
   17.4212    7.8519   -7.0248 H   0  0  0  0  0  0  0  0  0  0  0  0
   17.1874    7.7148   -8.7987 H   0  0  0  0  0  0  0  0  0  0  0  0
   19.1042    7.4263  -10.3224 H   0  0  0  0  0  0  0  0  0  0  0  0
   21.5748    7.8774  -10.7302 H   0  0  0  0  0  0  0  0  0  0  0  0
   23.8224    9.7097   -7.1870 H   0  0  0  0  0  0  0  0  0  0  0  0
   24.8425    9.9102   -8.6518 H   0  0  0  0  0  0  0  0  0  0  0  0
   23.1453   10.4986   -8.6518 H   0  0  0  0  0  0  0  0  0  0  0  0
   22.1673    8.2817   -6.4299 H   0  0  0  0  0  0  0  0  0  0  0  0
   19.9408    7.7331   -3.6985 H   0  0  0  0  0  0  0  0  0  0  0  0
   20.8900    6.5559   -4.6680 H   0  0  0  0  0  0  0  0  0  0  0  0
   21.3453    8.2936   -4.6680 H   0  0  0  0  0  0  0  0  0  0  0  0
   12.9701    3.4414   -6.0814 H   0  0  0  0  0  0  0  0  0  0  0  0
   11.1248    1.8879   -5.0637 H   0  0  0  0  0  0  0  0  0  0  0  0
    9.7923    3.0006   -3.0481 H   0  0  0  0  0  0  0  0  0  0  0  0
    9.0932    7.7664   -4.0986 H   0  0  0  0  0  0  0  0  0  0  0  0
   10.9684    6.1915   -6.4083 H   0  0  0  0  0  0  0  0  0  0  0  0
   13.4128    5.7632   -7.2480 H   0  0  0  0  0  0  0  0  0  0  0  0
   17.9066    5.4923   -6.8845 H   0  0  0  0  0  0  0  0  0  0  0  0
   17.9631    5.3369   -8.5856 H   0  0  0  0  0  0  0  0  0  0  0  0
  1 29  1  0
  2  3  1  0
  2 29  1  0
  2 33  2  0
  3  4  1  0
  3 30  1  0
  4  5  1  0
  5  6  1  0
  6  7  2  0
  6 11  1  0
  7  8  1  0
  8  9  2  0
  9 10  1  0
 10 11  2  0
 12 13  1  0
 12 30  1  0
 12 34  2  0
 13 25  1  0
 13 31  1  0
 14 15  1  0
 14 31  1  0
 14 35  2  0
 15 32  1  0
 16 17  1  0
 16 32  1  0
 17 18  2  0
 17 23  1  0
 18 19  1  0
 19 20  2  0
 20 22  1  0
 20 36  1  0
 21 36  1  0
 22 23  2  0
 23 37  1  0
 24 37  1  0
 25 26  2  0
 25 38  1  0
 26 27  1  0
 27 28  2  0
 28 38  1  0
  1 39  1  0
  1 40  1  0
  1 41  1  0
  3 42  1  6
  4 43  1  0
  4 44  1  0
  5 45  1  0
  5 46  1  0
  7 47  1  0
  8 48  1  0
  9 49  1  0
 10 50  1  0
 11 51  1  0
 13 52  1  1
 15 53  1  0
 15 54  1  0
 16 55  1  0
 16 56  1  0
 18 57  1  0
 19 58  1  0
 21 59  1  0
 21 60  1  0
 21 61  1  0
 22 62  1  0
 24 63  1  0
 24 64  1  0
 24 65  1  0
 26 66  1  0
 27 67  1  0
 28 68  1  0
 29 69  1  0
 30 70  1  0
 31 71  1  0
 32 72  1  0
 32 73  1  0
M  CHG  1  32   1
M  END
>  <filename_input>  (21) 
7U3J_L6U_docked.sdf

>  <pdb_id>  (21) 
7U3J_L6U

>  <pose_rank>  (21) 
20

>  <num_atoms_heavy>  (21) 
38

>  <num_torsions>  (21) 
14

>  <pose>  (21) 
[13.300225551293236, 6.149892260468134, -5.161173981890266, -0.7945181337307601, 2.715456905612337, -2.971247301886545, 3.9927523759323624, -2.400273901509315, 0.7174325460667681, -3.4386750914029527, 1.772036450385938, 2.4509296602289923, -4.754021779094581, -0.8999970688134313, 4.9916566547954, -2.2430325330220535, 1.9912689217914399, -3.1281783929647684, 2.057546096382931, -0.3767057744430956]

>  <energy>  (21) 
-494.9619893334623

>  <inter_energy>  (21) 
-646.7789345284446

>  <intra_energy>  (21) 
151.50625304551642

>  <rmsd>  (21) 
9.51296

>  <sdf_rank>  (21) 
0

$$$$

     RDKit          3D

 73 75  0  0  0  0  0  0  0  0999 V2000
   10.4143    2.7580   -5.8064 C   0  0  0  0  0  0  0  0  0  0  0  0
   12.2884    4.2378   -4.9861 C   0  0  0  0  0  0  0  0  0  0  0  0
   13.1151    5.4493   -5.1208 C   0  0  2  0  0  0  0  0  0  0  0  0
   12.3560    6.5730   -5.9589 C   0  0  0  0  0  0  0  0  0  0  0  0
   10.8670    6.3401   -5.9975 C   0  0  0  0  0  0  0  0  0  0  0  0
   10.0643    7.5925   -5.5491 C   0  0  0  0  0  0  0  0  0  0  0  0
    8.9261    7.4447   -4.7176 C   0  0  0  0  0  0  0  0  0  0  0  0
    8.1826    8.5605   -4.2947 C   0  0  0  0  0  0  0  0  0  0  0  0
    8.5771    9.8534   -4.6823 C   0  0  0  0  0  0  0  0  0  0  0  0
    9.7147   10.0088   -5.5028 C   0  0  0  0  0  0  0  0  0  0  0  0
   10.4570    8.8861   -5.9110 C   0  0  0  0  0  0  0  0  0  0  0  0
   15.5546    5.7349   -5.1936 C   0  0  0  0  0  0  0  0  0  0  0  0
   16.8858    5.5399   -5.9271 C   0  0  1  0  0  0  0  0  0  0  0  0
   19.1851    6.3373   -5.4410 C   0  0  0  0  0  0  0  0  0  0  0  0
   20.1762    7.3299   -4.8385 C   0  0  0  0  0  0  0  0  0  0  0  0
   19.2099    9.6755   -4.5439 C   0  0  0  0  0  0  0  0  0  0  0  0
   19.2543   10.7581   -3.4698 C   0  0  0  0  0  0  0  0  0  0  0  0
   18.4206   10.6512   -2.3250 C   0  0  0  0  0  0  0  0  0  0  0  0
   18.4577   11.6412   -1.2797 C   0  0  0  0  0  0  0  0  0  0  0  0
   19.3637   12.7197   -1.4096 C   0  0  0  0  0  0  0  0  0  0  0  0
   18.3556   13.7184    0.5660 C   0  0  0  0  0  0  0  0  0  0  0  0
   20.1935   12.8430   -2.5329 C   0  0  0  0  0  0  0  0  0  0  0  0
   20.1473   11.8552   -3.5304 C   0  0  0  0  0  0  0  0  0  0  0  0
   20.8700   13.1627   -5.5290 C   0  0  0  0  0  0  0  0  0  0  0  0
   16.5340    5.8583   -7.3163 C   0  0  0  0  0  0  0  0  0  0  0  0
   15.4321    5.3794   -8.0445 C   0  0  0  0  0  0  0  0  0  0  0  0
   15.2926    5.8601   -9.3969 C   0  0  0  0  0  0  0  0  0  0  0  0
   16.2612    6.8080   -9.7744 C   0  0  0  0  0  0  0  0  0  0  0  0
   11.2484    3.9530   -5.9365 N   0  0  0  0  0  0  0  0  0  0  0  0
   14.4141    5.2344   -5.7152 N   0  0  0  0  0  0  0  0  0  0  0  0
   17.8207    6.4707   -5.3567 N   0  0  0  0  0  0  0  0  0  0  0  0
   19.5312    8.2919   -3.8935 N   0  0  0  0  0  0  0  0  0  0  0  0
   12.4771    3.4526   -4.0400 O   0  0  0  0  0  0  0  0  0  0  0  0
   15.5095    6.3653   -4.1023 O   0  0  0  0  0  0  0  0  0  0  0  0
   19.6332    5.3604   -6.0834 O   0  0  0  0  0  0  0  0  0  0  0  0
   19.4508   13.7041   -0.4030 O   0  0  0  0  0  0  0  0  0  0  0  0
   20.9589   11.9885   -4.6719 O   0  0  0  0  0  0  0  0  0  0  0  0
   17.3448    7.0101   -8.3960 S   0  0  0  0  0  0  0  0  0  0  0  0
   10.2581    2.5341   -4.7408 H   0  0  0  0  0  0  0  0  0  0  0  0
    9.4424    2.9347   -6.2902 H   0  0  0  0  0  0  0  0  0  0  0  0
   10.9154    1.9066   -6.2902 H   0  0  0  0  0  0  0  0  0  0  0  0
   13.2846    5.7759   -4.0842 H   0  0  0  0  0  0  0  0  0  0  0  0
   12.5504    7.5523   -5.4973 H   0  0  0  0  0  0  0  0  0  0  0  0
   12.7321    6.5381   -6.9921 H   0  0  0  0  0  0  0  0  0  0  0  0
   10.5755    6.0824   -7.0263 H   0  0  0  0  0  0  0  0  0  0  0  0
   10.6352    5.5230   -5.2985 H   0  0  0  0  0  0  0  0  0  0  0  0
    8.6188    6.4383   -4.3971 H   0  0  0  0  0  0  0  0  0  0  0  0
    7.2936    8.4224   -3.6617 H   0  0  0  0  0  0  0  0  0  0  0  0
    8.0060   10.7329   -4.3500 H   0  0  0  0  0  0  0  0  0  0  0  0
   10.0228   11.0144   -5.8251 H   0  0  0  0  0  0  0  0  0  0  0  0
   11.3595    9.0269   -6.5238 H   0  0  0  0  0  0  0  0  0  0  0  0
   17.3459    4.5433   -5.8558 H   0  0  0  0  0  0  0  0  0  0  0  0
   20.9496    6.7679   -4.2944 H   0  0  0  0  0  0  0  0  0  0  0  0
   20.6033    7.9150   -5.6663 H   0  0  0  0  0  0  0  0  0  0  0  0
   18.2070    9.6458   -4.9948 H   0  0  0  0  0  0  0  0  0  0  0  0
   19.9530    9.8983   -5.3237 H   0  0  0  0  0  0  0  0  0  0  0  0
   17.7339    9.7966   -2.2351 H   0  0  0  0  0  0  0  0  0  0  0  0
   17.7984   11.5607   -0.4028 H   0  0  0  0  0  0  0  0  0  0  0  0
   18.7682   13.7130    1.5857 H   0  0  0  0  0  0  0  0  0  0  0  0
   17.7492   14.6246    0.4206 H   0  0  0  0  0  0  0  0  0  0  0  0
   17.7257   12.8285    0.4206 H   0  0  0  0  0  0  0  0  0  0  0  0
   20.8725   13.7028   -2.6318 H   0  0  0  0  0  0  0  0  0  0  0  0
   20.8016   14.0669   -4.9063 H   0  0  0  0  0  0  0  0  0  0  0  0
   21.7663   13.2218   -6.1641 H   0  0  0  0  0  0  0  0  0  0  0  0
   19.9751   13.0863   -6.1641 H   0  0  0  0  0  0  0  0  0  0  0  0
   14.7122    4.6733   -7.6051 H   0  0  0  0  0  0  0  0  0  0  0  0
   14.4976    5.5155  -10.0747 H   0  0  0  0  0  0  0  0  0  0  0  0
   16.3301    7.3243  -10.7433 H   0  0  0  0  0  0  0  0  0  0  0  0
   11.0877    4.6004   -6.7214 H   0  0  0  0  0  0  0  0  0  0  0  0
   14.4731    4.6733   -6.5769 H   0  0  0  0  0  0  0  0  0  0  0  0
   17.4447    7.2874   -4.8543 H   0  0  0  0  0  0  0  0  0  0  0  0
   18.6511    7.8774   -3.5552 H   0  0  0  0  0  0  0  0  0  0  0  0
   20.1993    8.4622   -3.1283 H   0  0  0  0  0  0  0  0  0  0  0  0
  1 29  1  0
  2  3  1  0
  2 29  1  0
  2 33  2  0
  3  4  1  0
  3 30  1  0
  4  5  1  0
  5  6  1  0
  6  7  2  0
  6 11  1  0
  7  8  1  0
  8  9  2  0
  9 10  1  0
 10 11  2  0
 12 13  1  0
 12 30  1  0
 12 34  2  0
 13 25  1  0
 13 31  1  0
 14 15  1  0
 14 31  1  0
 14 35  2  0
 15 32  1  0
 16 17  1  0
 16 32  1  0
 17 18  2  0
 17 23  1  0
 18 19  1  0
 19 20  2  0
 20 22  1  0
 20 36  1  0
 21 36  1  0
 22 23  2  0
 23 37  1  0
 24 37  1  0
 25 26  2  0
 25 38  1  0
 26 27  1  0
 27 28  2  0
 28 38  1  0
  1 39  1  0
  1 40  1  0
  1 41  1  0
  3 42  1  1
  4 43  1  0
  4 44  1  0
  5 45  1  0
  5 46  1  0
  7 47  1  0
  8 48  1  0
  9 49  1  0
 10 50  1  0
 11 51  1  0
 13 52  1  6
 15 53  1  0
 15 54  1  0
 16 55  1  0
 16 56  1  0
 18 57  1  0
 19 58  1  0
 21 59  1  0
 21 60  1  0
 21 61  1  0
 22 62  1  0
 24 63  1  0
 24 64  1  0
 24 65  1  0
 26 66  1  0
 27 67  1  0
 28 68  1  0
 29 69  1  0
 30 70  1  0
 31 71  1  0
 32 72  1  0
 32 73  1  0
M  CHG  1  32   1
M  END
>  <filename_input>  (22) 
7U3J_L6U_docked.sdf

>  <pdb_id>  (22) 
7U3J_L6U

>  <pose_rank>  (22) 
21

>  <num_atoms_heavy>  (22) 
38

>  <num_torsions>  (22) 
14

>  <pose>  (22) 
[16.885822328892978, 5.539852920875358, -5.927057757161471, 1.10797935626284, -3.1214191815745265, -0.21712740175219736, -5.382029646100987, -0.8444660587622003, -0.8062166704438726, 2.200583799678042, 28.744977426776394, 40.873642086119894, 11.273830797216904, -0.3865670479378171, 2.4324937095432824, -15.185864156068183, -10.252086872679506, -5.6976758388020246, -0.2895414255342892, -1.0321518146898412]

>  <energy>  (22) 
-483.00179494253314

>  <inter_energy>  (22) 
-580.1635525214297

>  <intra_energy>  (22) 
96.19083138094504

>  <rmsd>  (22) 
9.06771

>  <sdf_rank>  (22) 
0

$$$$

     RDKit          3D

 73 75  0  0  0  0  0  0  0  0999 V2000
   19.6287    7.2849   -9.1336 C   0  0  0  0  0  0  0  0  0  0  0  0
   17.7038    6.1529   -7.9552 C   0  0  0  0  0  0  0  0  0  0  0  0
   16.8357    4.9795   -7.7579 C   0  0  2  0  0  0  0  0  0  0  0  0
   15.7370    4.8774   -8.9084 C   0  0  0  0  0  0  0  0  0  0  0  0
   15.0581    6.1997   -9.1606 C   0  0  0  0  0  0  0  0  0  0  0  0
   15.2600    6.6955  -10.6191 C   0  0  0  0  0  0  0  0  0  0  0  0
   14.9146    5.8559  -11.7074 C   0  0  0  0  0  0  0  0  0  0  0  0
   15.0843    6.2795  -13.0372 C   0  0  0  0  0  0  0  0  0  0  0  0
   15.5875    7.5653  -13.3044 C   0  0  0  0  0  0  0  0  0  0  0  0
   15.9249    8.4101  -12.2256 C   0  0  0  0  0  0  0  0  0  0  0  0
   15.7410    7.9796  -10.8995 C   0  0  0  0  0  0  0  0  0  0  0  0
   16.7292    4.3987   -5.3728 C   0  0  0  0  0  0  0  0  0  0  0  0
   15.9248    4.2998   -4.0722 C   0  0  1  0  0  0  0  0  0  0  0  0
   13.6029    4.3882   -4.9438 C   0  0  0  0  0  0  0  0  0  0  0  0
   12.2635    3.7477   -5.2993 C   0  0  0  0  0  0  0  0  0  0  0  0
   10.3596    5.2861   -4.5706 C   0  0  0  0  0  0  0  0  0  0  0  0
    9.7563    6.6281   -4.9739 C   0  0  0  0  0  0  0  0  0  0  0  0
   10.5120    7.5319   -5.7671 C   0  0  0  0  0  0  0  0  0  0  0  0
    9.9625    8.7947   -6.1881 C   0  0  0  0  0  0  0  0  0  0  0  0
    8.6366    9.1090   -5.8082 C   0  0  0  0  0  0  0  0  0  0  0  0
    8.8163   11.1130   -7.1751 C   0  0  0  0  0  0  0  0  0  0  0  0
    7.8756    8.2304   -5.0242 C   0  0  0  0  0  0  0  0  0  0  0  0
    8.4313    6.9989   -4.6400 C   0  0  0  0  0  0  0  0  0  0  0  0
    6.6921    6.6308   -2.8889 C   0  0  0  0  0  0  0  0  0  0  0  0
   15.8035    5.7050   -3.6648 C   0  0  0  0  0  0  0  0  0  0  0  0
   14.9261    6.2384   -2.7060 C   0  0  0  0  0  0  0  0  0  0  0  0
   15.0142    7.6580   -2.4679 C   0  0  0  0  0  0  0  0  0  0  0  0
   16.0309    8.3024   -3.1960 C   0  0  0  0  0  0  0  0  0  0  0  0
   18.7538    6.1288   -8.9365 N   0  0  0  0  0  0  0  0  0  0  0  0
   16.1654    4.9288   -6.4793 N   0  0  0  0  0  0  0  0  0  0  0  0
   14.6615    3.6998   -4.4034 N   0  0  0  0  0  0  0  0  0  0  0  0
   11.2426    4.7463   -5.7409 N   0  0  0  0  0  0  0  0  0  0  0  0
   17.5417    7.1752   -7.2653 O   0  0  0  0  0  0  0  0  0  0  0  0
   17.9191    3.9844   -5.4245 O   0  0  0  0  0  0  0  0  0  0  0  0
   13.7679    5.6047   -5.1901 O   0  0  0  0  0  0  0  0  0  0  0  0
    8.0474   10.3252   -6.2125 O   0  0  0  0  0  0  0  0  0  0  0  0
    7.6812    6.1256   -3.8311 O   0  0  0  0  0  0  0  0  0  0  0  0
   16.8038    7.0710   -4.1966 S   0  0  0  0  0  0  0  0  0  0  0  0
   19.9322    7.6860   -8.1553 H   0  0  0  0  0  0  0  0  0  0  0  0
   20.5220    6.9770   -9.6968 H   0  0  0  0  0  0  0  0  0  0  0  0
   19.0896    8.0609   -9.6968 H   0  0  0  0  0  0  0  0  0  0  0  0
   17.5269    4.1245   -7.7941 H   0  0  0  0  0  0  0  0  0  0  0  0
   16.2249    4.5460   -9.8369 H   0  0  0  0  0  0  0  0  0  0  0  0
   14.9704    4.1587   -8.5830 H   0  0  0  0  0  0  0  0  0  0  0  0
   13.9805    6.0863   -8.9711 H   0  0  0  0  0  0  0  0  0  0  0  0
   15.5076    6.9436   -8.4863 H   0  0  0  0  0  0  0  0  0  0  0  0
   14.5062    4.8542  -11.5079 H   0  0  0  0  0  0  0  0  0  0  0  0
   14.8240    5.6064  -13.8673 H   0  0  0  0  0  0  0  0  0  0  0  0
   15.7164    7.9082  -14.3416 H   0  0  0  0  0  0  0  0  0  0  0  0
   16.3344    9.4117  -12.4232 H   0  0  0  0  0  0  0  0  0  0  0  0
   15.9787    8.6621  -10.0703 H   0  0  0  0  0  0  0  0  0  0  0  0
   16.3637    3.6926   -3.2667 H   0  0  0  0  0  0  0  0  0  0  0  0
   12.4242    3.0259   -6.1137 H   0  0  0  0  0  0  0  0  0  0  0  0
   11.8785    3.2600   -4.3916 H   0  0  0  0  0  0  0  0  0  0  0  0
   10.9803    5.4172   -3.6719 H   0  0  0  0  0  0  0  0  0  0  0  0
    9.5539    4.5690   -4.3549 H   0  0  0  0  0  0  0  0  0  0  0  0
   11.5359    7.2623   -6.0655 H   0  0  0  0  0  0  0  0  0  0  0  0
   10.5584    9.4969   -6.7897 H   0  0  0  0  0  0  0  0  0  0  0  0
    9.4860   11.7990   -6.6358 H   0  0  0  0  0  0  0  0  0  0  0  0
    9.4134   10.4388   -7.8068 H   0  0  0  0  0  0  0  0  0  0  0  0
    8.1280   11.6936   -7.8068 H   0  0  0  0  0  0  0  0  0  0  0  0
    6.8559    8.5022   -4.7138 H   0  0  0  0  0  0  0  0  0  0  0  0
    7.0405    6.4528   -1.8609 H   0  0  0  0  0  0  0  0  0  0  0  0
    6.5528    7.7104   -3.0471 H   0  0  0  0  0  0  0  0  0  0  0  0
    5.7358    6.1106   -3.0471 H   0  0  0  0  0  0  0  0  0  0  0  0
   14.2081    5.6052   -2.1643 H   0  0  0  0  0  0  0  0  0  0  0  0
   14.3444    8.1908   -1.7768 H   0  0  0  0  0  0  0  0  0  0  0  0
   16.2939    9.3696   -3.1504 H   0  0  0  0  0  0  0  0  0  0  0  0
   18.8925    5.2845   -9.5100 H   0  0  0  0  0  0  0  0  0  0  0  0
   15.2132    5.3150   -6.4083 H   0  0  0  0  0  0  0  0  0  0  0  0
   14.5428    2.6924   -4.2247 H   0  0  0  0  0  0  0  0  0  0  0  0
   11.7306    5.5421   -6.1762 H   0  0  0  0  0  0  0  0  0  0  0  0
   10.6139    4.2680   -6.4018 H   0  0  0  0  0  0  0  0  0  0  0  0
  1 29  1  0
  2  3  1  0
  2 29  1  0
  2 33  2  0
  3  4  1  0
  3 30  1  0
  4  5  1  0
  5  6  1  0
  6  7  2  0
  6 11  1  0
  7  8  1  0
  8  9  2  0
  9 10  1  0
 10 11  2  0
 12 13  1  0
 12 30  1  0
 12 34  2  0
 13 25  1  0
 13 31  1  0
 14 15  1  0
 14 31  1  0
 14 35  2  0
 15 32  1  0
 16 17  1  0
 16 32  1  0
 17 18  2  0
 17 23  1  0
 18 19  1  0
 19 20  2  0
 20 22  1  0
 20 36  1  0
 21 36  1  0
 22 23  2  0
 23 37  1  0
 24 37  1  0
 25 26  2  0
 25 38  1  0
 26 27  1  0
 27 28  2  0
 28 38  1  0
  1 39  1  0
  1 40  1  0
  1 41  1  0
  3 42  1  1
  4 43  1  0
  4 44  1  0
  5 45  1  0
  5 46  1  0
  7 47  1  0
  8 48  1  0
  9 49  1  0
 10 50  1  0
 11 51  1  0
 13 52  1  1
 15 53  1  0
 15 54  1  0
 16 55  1  0
 16 56  1  0
 18 57  1  0
 19 58  1  0
 21 59  1  0
 21 60  1  0
 21 61  1  0
 22 62  1  0
 24 63  1  0
 24 64  1  0
 24 65  1  0
 26 66  1  0
 27 67  1  0
 28 68  1  0
 29 69  1  0
 30 70  1  0
 31 71  1  0
 32 72  1  0
 32 73  1  0
M  CHG  1  32   1
M  END
>  <filename_input>  (23) 
7U3J_L6U_docked.sdf

>  <pdb_id>  (23) 
7U3J_L6U

>  <pose_rank>  (23) 
22

>  <num_atoms_heavy>  (23) 
38

>  <num_torsions>  (23) 
14

>  <pose>  (23) 
[15.924838336707301, 4.299779259158653, -4.072229480999861, 4.922664154782678, 1.0066157840992975, -1.4161009003631144, -1.665138548250679, 3.434410033748981, 0.005914657403578313, 0.4360387683572932, -3.8325584618311375, 3.0415982624110054, 2.076686947847854, 1.7063866727921626, -1.0343110032688065, -2.4990116689641892, -4.853574235778314, 0.9538409833910145, 0.10674971055769746, -0.5404292235600928]

>  <energy>  (23) 
-696.7244848673608

>  <inter_energy>  (23) 
-819.6542487723842

>  <intra_energy>  (23) 
124.43104113789653

>  <rmsd>  (23) 
3.7077

>  <sdf_rank>  (23) 
0

$$$$

     RDKit          3D

 73 75  0  0  0  0  0  0  0  0999 V2000
    9.4265   12.5083   -5.5641 C   0  0  0  0  0  0  0  0  0  0  0  0
   10.5995   10.2725   -5.5745 C   0  0  0  0  0  0  0  0  0  0  0  0
   10.5508    8.8019   -5.6396 C   0  0  2  0  0  0  0  0  0  0  0  0
    9.0787    8.2621   -5.3519 C   0  0  0  0  0  0  0  0  0  0  0  0
    9.0023    6.7585   -5.4319 C   0  0  0  0  0  0  0  0  0  0  0  0
    8.7331    6.1089   -4.0465 C   0  0  0  0  0  0  0  0  0  0  0  0
    9.4954    4.9897   -3.6282 C   0  0  0  0  0  0  0  0  0  0  0  0
    9.2750    4.3836   -2.3789 C   0  0  0  0  0  0  0  0  0  0  0  0
    8.2956    4.9004   -1.5122 C   0  0  0  0  0  0  0  0  0  0  0  0
    7.5390    6.0202   -1.9184 C   0  0  0  0  0  0  0  0  0  0  0  0
    7.7755    6.6249   -3.1660 C   0  0  0  0  0  0  0  0  0  0  0  0
   12.3159    7.1590   -5.1671 C   0  0  0  0  0  0  0  0  0  0  0  0
   13.1982    6.4233   -4.1530 C   0  0  1  0  0  0  0  0  0  0  0  0
   15.6594    6.2633   -3.8786 C   0  0  0  0  0  0  0  0  0  0  0  0
   17.0808    6.7885   -4.0643 C   0  0  0  0  0  0  0  0  0  0  0  0
   18.3096    6.1648   -6.2146 C   0  0  0  0  0  0  0  0  0  0  0  0
   18.3236    6.4878   -7.7056 C   0  0  0  0  0  0  0  0  0  0  0  0
   19.3945    7.2423   -8.2542 C   0  0  0  0  0  0  0  0  0  0  0  0
   19.4525    7.5412   -9.6618 C   0  0  0  0  0  0  0  0  0  0  0  0
   18.4224    7.0463  -10.4953 C   0  0  0  0  0  0  0  0  0  0  0  0
   18.1879    6.1391  -12.7400 C   0  0  0  0  0  0  0  0  0  0  0  0
   17.3564    6.3010   -9.9719 C   0  0  0  0  0  0  0  0  0  0  0  0
   17.3327    6.0116   -8.5976 C   0  0  0  0  0  0  0  0  0  0  0  0
   14.9563    5.9153   -7.8425 C   0  0  0  0  0  0  0  0  0  0  0  0
   13.0491    5.0204   -4.5593 C   0  0  0  0  0  0  0  0  0  0  0  0
   13.7829    3.9180   -4.0906 C   0  0  0  0  0  0  0  0  0  0  0  0
   13.4309    2.6290   -4.6333 C   0  0  0  0  0  0  0  0  0  0  0  0
   12.3389    2.6558   -5.5199 C   0  0  0  0  0  0  0  0  0  0  0  0
    9.3892   11.0466   -5.6175 N   0  0  0  0  0  0  0  0  0  0  0  0
   11.4680    8.1246   -4.7525 N   0  0  0  0  0  0  0  0  0  0  0  0
   14.5368    6.9181   -4.3228 N   0  0  0  0  0  0  0  0  0  0  0  0
   17.3751    7.1768   -5.4775 N   0  0  0  0  0  0  0  0  0  0  0  0
   11.6927   10.8601   -5.4911 O   0  0  0  0  0  0  0  0  0  0  0  0
   12.3691    6.8692   -6.3933 O   0  0  0  0  0  0  0  0  0  0  0  0
   15.5004    5.1529   -3.3221 O   0  0  0  0  0  0  0  0  0  0  0  0
   18.4452    7.2961  -11.8835 O   0  0  0  0  0  0  0  0  0  0  0  0
   16.2514    5.2868   -8.0635 O   0  0  0  0  0  0  0  0  0  0  0  0
   11.8358    4.3415   -5.6623 S   0  0  0  0  0  0  0  0  0  0  0  0
    9.4349   12.8367   -4.5143 H   0  0  0  0  0  0  0  0  0  0  0  0
   10.3342   12.8706   -6.0689 H   0  0  0  0  0  0  0  0  0  0  0  0
    8.5385   12.9165   -6.0689 H   0  0  0  0  0  0  0  0  0  0  0  0
   10.8640    8.5677   -6.6678 H   0  0  0  0  0  0  0  0  0  0  0  0
    8.7748    8.5799   -4.3437 H   0  0  0  0  0  0  0  0  0  0  0  0
    8.4088    8.6775   -6.1192 H   0  0  0  0  0  0  0  0  0  0  0  0
    8.1877    6.4814   -6.1172 H   0  0  0  0  0  0  0  0  0  0  0  0
    9.9736    6.3903   -5.7940 H   0  0  0  0  0  0  0  0  0  0  0  0
   10.2740    4.5879   -4.2934 H   0  0  0  0  0  0  0  0  0  0  0  0
    9.8676    3.5064   -2.0800 H   0  0  0  0  0  0  0  0  0  0  0  0
    8.1214    4.4375   -0.5297 H   0  0  0  0  0  0  0  0  0  0  0  0
    6.7593    6.4228   -1.2550 H   0  0  0  0  0  0  0  0  0  0  0  0
    7.1992    7.5165   -3.4539 H   0  0  0  0  0  0  0  0  0  0  0  0
   12.9429    6.5550   -3.0911 H   0  0  0  0  0  0  0  0  0  0  0  0
   17.2160    7.6712   -3.4220 H   0  0  0  0  0  0  0  0  0  0  0  0
   17.7718    5.9767   -3.7933 H   0  0  0  0  0  0  0  0  0  0  0  0
   17.9353    5.1415   -6.0635 H   0  0  0  0  0  0  0  0  0  0  0  0
   19.3297    6.2425   -5.8104 H   0  0  0  0  0  0  0  0  0  0  0  0
   20.1943    7.6050   -7.5919 H   0  0  0  0  0  0  0  0  0  0  0  0
   20.2768    8.1391  -10.0781 H   0  0  0  0  0  0  0  0  0  0  0  0
   17.9914    5.2561  -12.1142 H   0  0  0  0  0  0  0  0  0  0  0  0
   17.3126    6.3406  -13.3751 H   0  0  0  0  0  0  0  0  0  0  0  0
   19.0660    5.9505  -13.3751 H   0  0  0  0  0  0  0  0  0  0  0  0
   16.5486    5.9473  -10.6294 H   0  0  0  0  0  0  0  0  0  0  0  0
   14.7718    6.0048   -6.7618 H   0  0  0  0  0  0  0  0  0  0  0  0
   14.9515    6.9159   -8.2994 H   0  0  0  0  0  0  0  0  0  0  0  0
   14.1673    5.2998   -8.2994 H   0  0  0  0  0  0  0  0  0  0  0  0
   14.5854    4.0321   -3.3470 H   0  0  0  0  0  0  0  0  0  0  0  0
   13.9696    1.7050   -4.3764 H   0  0  0  0  0  0  0  0  0  0  0  0
   11.8854    1.7916   -6.0272 H   0  0  0  0  0  0  0  0  0  0  0  0
    8.4814   10.5649   -5.6871 H   0  0  0  0  0  0  0  0  0  0  0  0
   11.4755    8.3906   -3.7575 H   0  0  0  0  0  0  0  0  0  0  0  0
   14.6619    7.8185   -4.8071 H   0  0  0  0  0  0  0  0  0  0  0  0
   16.4852    7.2349   -5.9928 H   0  0  0  0  0  0  0  0  0  0  0  0
   17.8670    8.0813   -5.4493 H   0  0  0  0  0  0  0  0  0  0  0  0
  1 29  1  0
  2  3  1  0
  2 29  1  0
  2 33  2  0
  3  4  1  0
  3 30  1  0
  4  5  1  0
  5  6  1  0
  6  7  2  0
  6 11  1  0
  7  8  1  0
  8  9  2  0
  9 10  1  0
 10 11  2  0
 12 13  1  0
 12 30  1  0
 12 34  2  0
 13 25  1  0
 13 31  1  0
 14 15  1  0
 14 31  1  0
 14 35  2  0
 15 32  1  0
 16 17  1  0
 16 32  1  0
 17 18  2  0
 17 23  1  0
 18 19  1  0
 19 20  2  0
 20 22  1  0
 20 36  1  0
 21 36  1  0
 22 23  2  0
 23 37  1  0
 24 37  1  0
 25 26  2  0
 25 38  1  0
 26 27  1  0
 27 28  2  0
 28 38  1  0
  1 39  1  0
  1 40  1  0
  1 41  1  0
  3 42  1  6
  4 43  1  0
  4 44  1  0
  5 45  1  0
  5 46  1  0
  7 47  1  0
  8 48  1  0
  9 49  1  0
 10 50  1  0
 11 51  1  0
 13 52  1  1
 15 53  1  0
 15 54  1  0
 16 55  1  0
 16 56  1  0
 18 57  1  0
 19 58  1  0
 21 59  1  0
 21 60  1  0
 21 61  1  0
 22 62  1  0
 24 63  1  0
 24 64  1  0
 24 65  1  0
 26 66  1  0
 27 67  1  0
 28 68  1  0
 29 69  1  0
 30 70  1  0
 31 71  1  0
 32 72  1  0
 32 73  1  0
M  CHG  1  32   1
M  END
>  <filename_input>  (24) 
7U3J_L6U_docked.sdf

>  <pdb_id>  (24) 
7U3J_L6U

>  <pose_rank>  (24) 
23

>  <num_atoms_heavy>  (24) 
38

>  <num_torsions>  (24) 
14

>  <pose>  (24) 
[13.198171771647608, 6.423275084145321, -4.15296045317062, 0.19737552851421208, -2.313782735912282, 2.266378614013978, -1.5688837105876476, 0.7228454172745125, -0.7424068536240644, 1.51537889362415, 0.11405151964047934, 2.9055545499022637, -1.2026995782733914, 0.30757504840904537, 1.3244759652278717, -2.756763295349757, 1.612088783892067, 3.3064095993066065, -3.996651465542858, -1.3575236906305912]

>  <energy>  (24) 
-528.2275539231009

>  <inter_energy>  (24) 
-684.9289585085091

>  <intra_energy>  (24) 
159.29939944327637

>  <rmsd>  (24) 
8.43799

>  <sdf_rank>  (24) 
0

$$$$

     RDKit          3D

 73 75  0  0  0  0  0  0  0  0999 V2000
   10.0492    3.1431   -5.9626 C   0  0  0  0  0  0  0  0  0  0  0  0
   11.2967    4.8272   -4.5545 C   0  0  0  0  0  0  0  0  0  0  0  0
   12.3985    5.7902   -4.3874 C   0  0  2  0  0  0  0  0  0  0  0  0
   11.9054    7.2811   -4.6618 C   0  0  0  0  0  0  0  0  0  0  0  0
   10.9667    7.3583   -5.8390 C   0  0  0  0  0  0  0  0  0  0  0  0
    9.5811    7.9430   -5.4487 C   0  0  0  0  0  0  0  0  0  0  0  0
    9.3284    9.3293   -5.6009 C   0  0  0  0  0  0  0  0  0  0  0  0
    8.0832    9.8850   -5.2582 C   0  0  0  0  0  0  0  0  0  0  0  0
    7.0559    9.0567   -4.7722 C   0  0  0  0  0  0  0  0  0  0  0  0
    7.2976    7.6740   -4.6267 C   0  0  0  0  0  0  0  0  0  0  0  0
    8.5436    7.1276   -4.9827 C   0  0  0  0  0  0  0  0  0  0  0  0
   14.7667    5.2133   -4.6981 C   0  0  0  0  0  0  0  0  0  0  0  0
   15.9731    5.0409   -5.6270 C   0  0  1  0  0  0  0  0  0  0  0  0
   18.2877    5.9244   -5.4823 C   0  0  0  0  0  0  0  0  0  0  0  0
   19.3106    6.9868   -5.0879 C   0  0  0  0  0  0  0  0  0  0  0  0
   19.2922    7.9834   -7.4393 C   0  0  0  0  0  0  0  0  0  0  0  0
   20.1332    7.9384   -8.7114 C   0  0  0  0  0  0  0  0  0  0  0  0
   21.4340    8.5084   -8.7180 C   0  0  0  0  0  0  0  0  0  0  0  0
   22.2646    8.4588   -9.8935 C   0  0  0  0  0  0  0  0  0  0  0  0
   21.7605    7.8076  -11.0436 C   0  0  0  0  0  0  0  0  0  0  0  0
   23.8790    7.1456  -12.0387 C   0  0  0  0  0  0  0  0  0  0  0  0
   20.4784    7.2403  -11.0566 C   0  0  0  0  0  0  0  0  0  0  0  0
   19.6955    7.2902   -9.8916 C   0  0  0  0  0  0  0  0  0  0  0  0
   17.6018    6.7280  -11.1273 C   0  0  0  0  0  0  0  0  0  0  0  0
   15.3902    5.2763   -6.9537 C   0  0  0  0  0  0  0  0  0  0  0  0
   15.5772    6.3998   -7.7762 C   0  0  0  0  0  0  0  0  0  0  0  0
   14.9076    6.3847   -9.0534 C   0  0  0  0  0  0  0  0  0  0  0  0
   14.2058    5.1953   -9.3220 C   0  0  0  0  0  0  0  0  0  0  0  0
   11.1461    4.0944   -5.7819 N   0  0  0  0  0  0  0  0  0  0  0  0
   13.5586    5.5334   -5.2091 N   0  0  0  0  0  0  0  0  0  0  0  0
   16.9384    6.0378   -5.2525 N   0  0  0  0  0  0  0  0  0  0  0  0
   20.1411    7.4485   -6.2419 N   0  0  0  0  0  0  0  0  0  0  0  0
   10.4782    4.6459   -3.6355 O   0  0  0  0  0  0  0  0  0  0  0  0
   14.8895    5.0626   -3.4521 O   0  0  0  0  0  0  0  0  0  0  0  0
   18.6891    4.9024   -6.0843 O   0  0  0  0  0  0  0  0  0  0  0  0
   22.5439    7.7161  -12.2131 O   0  0  0  0  0  0  0  0  0  0  0  0
   18.3982    6.7458   -9.9080 O   0  0  0  0  0  0  0  0  0  0  0  0
   14.3901    4.1603   -7.9044 S   0  0  0  0  0  0  0  0  0  0  0  0
    9.6776    2.8208   -4.9787 H   0  0  0  0  0  0  0  0  0  0  0  0
    9.2342    3.6251   -6.5224 H   0  0  0  0  0  0  0  0  0  0  0  0
   10.4112    2.2681   -6.5224 H   0  0  0  0  0  0  0  0  0  0  0  0
   12.7103    5.6632   -3.3402 H   0  0  0  0  0  0  0  0  0  0  0  0
   11.3845    7.6531   -3.7672 H   0  0  0  0  0  0  0  0  0  0  0  0
   12.7893    7.8943   -4.8915 H   0  0  0  0  0  0  0  0  0  0  0  0
   11.4176    8.0006   -6.6098 H   0  0  0  0  0  0  0  0  0  0  0  0
   10.8083    6.3356   -6.2117 H   0  0  0  0  0  0  0  0  0  0  0  0
   10.1211    9.9825   -5.9945 H   0  0  0  0  0  0  0  0  0  0  0  0
    7.9129   10.9660   -5.3700 H   0  0  0  0  0  0  0  0  0  0  0  0
    6.0760    9.4814   -4.5087 H   0  0  0  0  0  0  0  0  0  0  0  0
    6.5064    7.0195   -4.2323 H   0  0  0  0  0  0  0  0  0  0  0  0
    8.7051    6.0431   -4.8935 H   0  0  0  0  0  0  0  0  0  0  0  0
   16.4884    4.0697   -5.5899 H   0  0  0  0  0  0  0  0  0  0  0  0
   18.7751    7.8528   -4.6717 H   0  0  0  0  0  0  0  0  0  0  0  0
   19.9904    6.5344   -4.3509 H   0  0  0  0  0  0  0  0  0  0  0  0
   18.9849    9.0203   -7.2380 H   0  0  0  0  0  0  0  0  0  0  0  0
   18.3970    7.3568   -7.5662 H   0  0  0  0  0  0  0  0  0  0  0  0
   21.8141    8.9967   -7.8086 H   0  0  0  0  0  0  0  0  0  0  0  0
   23.2653    8.9156   -9.8968 H   0  0  0  0  0  0  0  0  0  0  0  0
   24.1000    7.0511  -10.9653 H   0  0  0  0  0  0  0  0  0  0  0  0
   23.9177    6.1523  -12.5098 H   0  0  0  0  0  0  0  0  0  0  0  0
   24.6235    7.8041  -12.5098 H   0  0  0  0  0  0  0  0  0  0  0  0
   20.0905    6.7621  -11.9681 H   0  0  0  0  0  0  0  0  0  0  0  0
   16.5333    6.7041  -10.8671 H   0  0  0  0  0  0  0  0  0  0  0  0
   17.8152    7.6311  -11.7179 H   0  0  0  0  0  0  0  0  0  0  0  0
   17.8554    5.8353  -11.7179 H   0  0  0  0  0  0  0  0  0  0  0  0
   16.2028    7.2482   -7.4618 H   0  0  0  0  0  0  0  0  0  0  0  0
   14.9427    7.2298   -9.7566 H   0  0  0  0  0  0  0  0  0  0  0  0
   13.6487    4.9563  -10.2399 H   0  0  0  0  0  0  0  0  0  0  0  0
   11.8208    4.2413   -6.5461 H   0  0  0  0  0  0  0  0  0  0  0  0
   13.4595    5.5976   -6.2323 H   0  0  0  0  0  0  0  0  0  0  0  0
   16.5974    6.8890   -4.7833 H   0  0  0  0  0  0  0  0  0  0  0  0
   20.7608    8.2043   -5.9170 H   0  0  0  0  0  0  0  0  0  0  0  0
   20.6696    6.6329   -6.5830 H   0  0  0  0  0  0  0  0  0  0  0  0
  1 29  1  0
  2  3  1  0
  2 29  1  0
  2 33  2  0
  3  4  1  0
  3 30  1  0
  4  5  1  0
  5  6  1  0
  6  7  2  0
  6 11  1  0
  7  8  1  0
  8  9  2  0
  9 10  1  0
 10 11  2  0
 12 13  1  0
 12 30  1  0
 12 34  2  0
 13 25  1  0
 13 31  1  0
 14 15  1  0
 14 31  1  0
 14 35  2  0
 15 32  1  0
 16 17  1  0
 16 32  1  0
 17 18  2  0
 17 23  1  0
 18 19  1  0
 19 20  2  0
 20 22  1  0
 20 36  1  0
 21 36  1  0
 22 23  2  0
 23 37  1  0
 24 37  1  0
 25 26  2  0
 25 38  1  0
 26 27  1  0
 27 28  2  0
 28 38  1  0
  1 39  1  0
  1 40  1  0
  1 41  1  0
  3 42  1  1
  4 43  1  0
  4 44  1  0
  5 45  1  0
  5 46  1  0
  7 47  1  0
  8 48  1  0
  9 49  1  0
 10 50  1  0
 11 51  1  0
 13 52  1  6
 15 53  1  0
 15 54  1  0
 16 55  1  0
 16 56  1  0
 18 57  1  0
 19 58  1  0
 21 59  1  0
 21 60  1  0
 21 61  1  0
 22 62  1  0
 24 63  1  0
 24 64  1  0
 24 65  1  0
 26 66  1  0
 27 67  1  0
 28 68  1  0
 29 69  1  0
 30 70  1  0
 31 71  1  0
 32 72  1  0
 32 73  1  0
M  CHG  1  32   1
M  END
>  <filename_input>  (25) 
7U3J_L6U_docked.sdf

>  <pdb_id>  (25) 
7U3J_L6U

>  <pose_rank>  (25) 
24

>  <num_atoms_heavy>  (25) 
38

>  <num_torsions>  (25) 
14

>  <pose>  (25) 
[15.973148261030804, 5.040862039942513, -5.6270138132355685, -1.0965466634125807, 2.9254858362869838, 0.22755536572427446, 3.6199979598879133, -1.6509365109600396, -0.5093033531824224, -2.7811476454361377, -3.7236254247301868, -3.218527181091429, -3.5092632232922667, -0.45354746163185056, 6.319470582136811, 0.07110280024816973, 2.172446345288901, 0.699364689699745, 0.8981417590272203, -0.5560353576690977]

>  <energy>  (25) 
-690.6353667876641

>  <inter_energy>  (25) 
-723.6460016492391

>  <intra_energy>  (25) 
32.21281782701403

>  <rmsd>  (25) 
9.52814

>  <sdf_rank>  (25) 
0

$$$$

     RDKit          3D

 73 75  0  0  0  0  0  0  0  0999 V2000
   15.9870    7.2460  -11.8390 C   0  0  0  0  0  0  0  0  0  0  0  0
   16.4330    5.9330   -9.7290 C   0  0  0  0  0  0  0  0  0  0  0  0
   16.6990    5.8890   -8.2810 C   0  0  2  0  0  0  0  0  0  0  0  0
   18.2400    5.6050   -7.9880 C   0  0  0  0  0  0  0  0  0  0  0  0
   18.5690    5.7300   -6.5220 C   0  0  0  0  0  0  0  0  0  0  0  0
   18.1390    7.1040   -5.9380 C   0  0  0  0  0  0  0  0  0  0  0  0
   18.7570    8.2940   -6.3970 C   0  0  0  0  0  0  0  0  0  0  0  0
   18.3860    9.5510   -5.8880 C   0  0  0  0  0  0  0  0  0  0  0  0
   17.3710    9.6430   -4.9190 C   0  0  0  0  0  0  0  0  0  0  0  0
   16.7450    8.4630   -4.4640 C   0  0  0  0  0  0  0  0  0  0  0  0
   17.1170    7.2120   -4.9880 C   0  0  0  0  0  0  0  0  0  0  0  0
   14.6780    5.2000   -7.0650 C   0  0  0  0  0  0  0  0  0  0  0  0
   13.9350    4.1590   -6.2210 C   0  0  1  0  0  0  0  0  0  0  0  0
   11.5450    3.5740   -5.8980 C   0  0  0  0  0  0  0  0  0  0  0  0
   10.0560    3.7490   -6.1860 C   0  0  0  0  0  0  0  0  0  0  0  0
    9.8010    5.1020   -4.0350 C   0  0  0  0  0  0  0  0  0  0  0  0
    9.4350    6.4530   -4.6420 C   0  0  0  0  0  0  0  0  0  0  0  0
   10.3260    7.0830   -5.5510 C   0  0  0  0  0  0  0  0  0  0  0  0
    9.9990    8.3450   -6.1630 C   0  0  0  0  0  0  0  0  0  0  0  0
    8.7530    8.9380   -5.8520 C   0  0  0  0  0  0  0  0  0  0  0  0
    9.3310   10.7230   -7.4000 C   0  0  0  0  0  0  0  0  0  0  0  0
    7.8610    8.3320   -4.9560 C   0  0  0  0  0  0  0  0  0  0  0  0
    8.1990    7.0940   -4.3850 C   0  0  0  0  0  0  0  0  0  0  0  0
    6.0470    7.1160   -3.1220 C   0  0  0  0  0  0  0  0  0  0  0  0
   14.3000    4.5400   -4.8510 C   0  0  0  0  0  0  0  0  0  0  0  0
   15.2870    3.9540   -4.0410 C   0  0  0  0  0  0  0  0  0  0  0  0
   15.4710    4.5260   -2.7300 C   0  0  0  0  0  0  0  0  0  0  0  0
   14.6660    5.6510   -2.4740 C   0  0  0  0  0  0  0  0  0  0  0  0
   16.2620    7.1910  -10.4030 N   0  0  0  0  0  0  0  0  0  0  0  0
   15.9090    4.9270   -7.5480 N   0  0  0  0  0  0  0  0  0  0  0  0
   12.5330    4.3190   -6.4940 N   0  0  0  0  0  0  0  0  0  0  0  0
    9.2470    3.9610   -4.9470 N   0  0  0  0  0  0  0  0  0  0  0  0
   16.3440    4.8780  -10.3820 O   0  0  0  0  0  0  0  0  0  0  0  0
   14.1520    6.3190   -7.3130 O   0  0  0  0  0  0  0  0  0  0  0  0
   11.8930    2.7290   -5.0420 O   0  0  0  0  0  0  0  0  0  0  0  0
    8.3790   10.1640   -6.4410 O   0  0  0  0  0  0  0  0  0  0  0  0
    7.3190    6.4950   -3.4650 O   0  0  0  0  0  0  0  0  0  0  0  0
   13.6670    5.9030   -3.9070 S   0  0  0  0  0  0  0  0  0  0  0  0
   14.9200    7.4594  -12.0001 H   0  0  0  0  0  0  0  0  0  0  0  0
   16.5933    8.0407  -12.2983 H   0  0  0  0  0  0  0  0  0  0  0  0
   16.2410    6.2793  -12.2983 H   0  0  0  0  0  0  0  0  0  0  0  0
   16.4058    6.8870   -7.9232 H   0  0  0  0  0  0  0  0  0  0  0  0
   18.4825    4.5849   -8.3206 H   0  0  0  0  0  0  0  0  0  0  0  0
   18.8330    6.3534   -8.5341 H   0  0  0  0  0  0  0  0  0  0  0  0
   18.0468    4.9328   -5.9727 H   0  0  0  0  0  0  0  0  0  0  0  0
   19.6601    5.6437   -6.4127 H   0  0  0  0  0  0  0  0  0  0  0  0
   19.5414    8.2330   -7.1657 H   0  0  0  0  0  0  0  0  0  0  0  0
   18.8889   10.4610   -6.2471 H   0  0  0  0  0  0  0  0  0  0  0  0
   17.0687   10.6228   -4.5206 H   0  0  0  0  0  0  0  0  0  0  0  0
   15.9611    8.5220   -3.6946 H   0  0  0  0  0  0  0  0  0  0  0  0
   16.5970    6.3050   -4.6461 H   0  0  0  0  0  0  0  0  0  0  0  0
   14.1781    3.1038   -6.4144 H   0  0  0  0  0  0  0  0  0  0  0  0
    9.9255    4.6206   -6.8443 H   0  0  0  0  0  0  0  0  0  0  0  0
    9.6993    2.8225   -6.6597 H   0  0  0  0  0  0  0  0  0  0  0  0
   10.8952    5.0159   -3.9621 H   0  0  0  0  0  0  0  0  0  0  0  0
    9.3616    5.0176   -3.0301 H   0  0  0  0  0  0  0  0  0  0  0  0
   11.2835    6.5981   -5.7920 H   0  0  0  0  0  0  0  0  0  0  0  0
   10.7001    8.8351   -6.8545 H   0  0  0  0  0  0  0  0  0  0  0  0
   10.1562   11.2075   -6.8575 H   0  0  0  0  0  0  0  0  0  0  0  0
    9.7312    9.9165   -8.0319 H   0  0  0  0  0  0  0  0  0  0  0  0
    8.8217   11.4655   -8.0319 H   0  0  0  0  0  0  0  0  0  0  0  0
    6.9082    8.8201   -4.7033 H   0  0  0  0  0  0  0  0  0  0  0  0
    5.9463    7.1652   -2.0277 H   0  0  0  0  0  0  0  0  0  0  0  0
    6.0111    8.1330   -3.5396 H   0  0  0  0  0  0  0  0  0  0  0  0
    5.2230    6.5188   -3.5396 H   0  0  0  0  0  0  0  0  0  0  0  0
   15.8891    3.1018   -4.3892 H   0  0  0  0  0  0  0  0  0  0  0  0
   16.1794    4.1180   -1.9940 H   0  0  0  0  0  0  0  0  0  0  0  0
   14.6603    6.2575   -1.5563 H   0  0  0  0  0  0  0  0  0  0  0  0
   16.3342    8.0674   -9.8667 H   0  0  0  0  0  0  0  0  0  0  0  0
   16.3031    3.9892   -7.3863 H   0  0  0  0  0  0  0  0  0  0  0  0
   12.2521    5.0359   -7.1782 H   0  0  0  0  0  0  0  0  0  0  0  0
    8.2840    4.2011   -5.2224 H   0  0  0  0  0  0  0  0  0  0  0  0
    9.2886    3.0878   -4.4024 H   0  0  0  0  0  0  0  0  0  0  0  0
  1 29  1  0
  2  3  1  0
  2 29  1  0
  2 33  2  0
  3  4  1  0
  3 30  1  0
  4  5  1  0
  5  6  1  0
  6  7  2  0
  6 11  1  0
  7  8  1  0
  8  9  2  0
  9 10  1  0
 10 11  2  0
 12 13  1  0
 12 30  1  0
 12 34  2  0
 13 25  1  0
 13 31  1  0
 14 15  1  0
 14 31  1  0
 14 35  2  0
 15 32  1  0
 16 17  1  0
 16 32  1  0
 17 18  2  0
 17 23  1  0
 18 19  1  0
 19 20  2  0
 20 22  1  0
 20 36  1  0
 21 36  1  0
 22 23  2  0
 23 37  1  0
 24 37  1  0
 25 26  2  0
 25 38  1  0
 26 27  1  0
 27 28  2  0
 28 38  1  0
  1 39  1  0
  1 40  1  0
  1 41  1  0
  3 42  1  1
  4 43  1  0
  4 44  1  0
  5 45  1  0
  5 46  1  0
  7 47  1  0
  8 48  1  0
  9 49  1  0
 10 50  1  0
 11 51  1  0
 13 52  1  6
 15 53  1  0
 15 54  1  0
 16 55  1  0
 16 56  1  0
 18 57  1  0
 19 58  1  0
 21 59  1  0
 21 60  1  0
 21 61  1  0
 22 62  1  0
 24 63  1  0
 24 64  1  0
 24 65  1  0
 26 66  1  0
 27 67  1  0
 28 68  1  0
 29 69  1  0
 30 70  1  0
 31 71  1  0
 32 72  1  0
 32 73  1  0
M  CHG  1  32   1
M  END
>  <filename_input>  (26) 
7U3J_L6U_docked.sdf

>  <pdb_id>  (26) 
7U3J_L6U

>  <pose_rank>  (26) 
25

>  <num_atoms_heavy>  (26) 
38

>  <num_torsions>  (26) 
14

>  <pose>  (26) 
[13.935, 4.159, -6.221, 1e-06, 1e-06, 1e-06, 0.0, 0.0, 0.0, 0.0, 0.0, 0.0, 0.0, 0.0, 0.0, 0.0, 0.0, 0.0, 0.0, 0.0]

>  <energy>  (26) 
-879.625463004769

>  <inter_energy>  (26) 
-908.987343025823

>  <intra_energy>  (26) 
25.16511664509008

>  <rmsd>  (26) 
0.0

>  <sdf_rank>  (26) 
0

$$$$
