
     RDKit          3D

 71 76  0  0  0  0  0  0  0  0999 V2000
    5.4129  -30.2411   22.9177 C   0  0  0  0  0  0  0  0  0  0  0  0
    8.0100  -28.2861   22.8036 C   0  0  0  0  0  0  0  0  0  0  0  0
    8.5454  -31.7450   21.6813 C   0  0  0  0  0  0  0  0  0  0  0  0
    0.8881  -33.1397   25.0063 C   0  0  2  0  0  0  0  0  0  0  0  0
    2.1893  -37.7915   24.2294 C   0  0  0  0  0  0  0  0  0  0  0  0
    3.4831  -38.5908   24.4046 C   0  0  0  0  0  0  0  0  0  0  0  0
    4.2163  -31.7620   31.2288 C   0  0  0  0  0  0  0  0  0  0  0  0
    5.2737  -31.3841   32.2457 C   0  0  0  0  0  0  0  0  0  0  0  0
    9.6314  -33.2177   31.4755 C   0  0  0  0  0  0  0  0  0  0  0  0
    8.8023  -32.3869   29.0219 C   0  0  0  0  0  0  0  0  0  0  0  0
    5.5403  -33.6106   28.4343 C   0  0  0  0  0  0  0  0  0  0  0  0
    6.5044  -31.8177   30.0349 C   0  0  1  0  0  0  0  0  0  0  0  0
    5.8281  -31.2387   27.7616 C   0  0  0  0  0  0  0  0  0  0  0  0
    5.2850  -31.6096   26.4507 C   0  0  0  0  0  0  0  0  0  0  0  0
    4.5294  -32.7759   26.3083 C   0  0  0  0  0  0  0  0  0  0  0  0
    4.2745  -33.6215   27.5513 C   0  0  0  0  0  0  0  0  0  0  0  0
    4.0383  -33.1568   25.0512 C   0  0  0  0  0  0  0  0  0  0  0  0
    4.3224  -32.3040   23.9639 C   0  0  0  0  0  0  0  0  0  0  0  0
    5.0809  -31.1357   24.1083 C   0  0  0  0  0  0  0  0  0  0  0  0
    5.5620  -30.7938   25.3646 C   0  0  0  0  0  0  0  0  0  0  0  0
    7.9776  -29.7227   22.3602 C   0  0  0  0  0  0  0  0  0  0  0  0
    7.2384  -31.9296   21.9414 C   0  0  0  0  0  0  0  0  0  0  0  0
    1.7959  -34.3634   24.8211 C   0  0  0  0  0  0  0  0  0  0  0  0
    3.2009  -34.3459   24.8449 C   0  0  0  0  0  0  0  0  0  0  0  0
    3.5565  -35.6503   24.6259 C   0  0  0  0  0  0  0  0  0  0  0  0
    5.5907  -32.3715   31.1539 C   0  0  2  0  0  0  0  0  0  0  0  0
   10.5205  -33.2778   30.3983 C   0  0  0  0  0  0  0  0  0  0  0  0
    7.9528  -32.3370   30.1277 C   0  0  0  0  0  0  0  0  0  0  0  0
   10.1031  -32.8554   29.1403 C   0  0  0  0  0  0  0  0  0  0  0  0
   11.0225  -32.8951   27.9379 C   0  0  0  0  0  0  0  0  0  0  0  0
    1.1457  -32.6298   26.2150 F   0  0  0  0  0  0  0  0  0  0  0  0
   -0.4374  -33.4317   24.8841 F   0  0  0  0  0  0  0  0  0  0  0  0
    1.1397  -32.2425   24.0426 F   0  0  0  0  0  0  0  0  0  0  0  0
    5.9295  -32.2135   28.7149 N   0  0  0  0  0  0  0  0  0  0  0  0
    8.9579  -30.4105   21.9487 N   0  0  0  0  0  0  0  0  0  0  0  0
    6.8197  -30.6347   22.5749 N   0  0  0  0  0  0  0  0  0  0  0  0
    1.3316  -35.5709   24.6020 N   0  0  0  0  0  0  0  0  0  0  0  0
    2.4054  -36.3622   24.4922 N   0  0  0  0  0  0  0  0  0  0  0  0
    8.3772  -32.7568   31.3257 N   0  0  0  0  0  0  0  0  0  0  0  0
    6.1882  -30.0914   28.0303 O   0  0  0  0  0  0  0  0  0  0  0  0
    4.7325  -30.4364   22.0757 H   0  0  0  0  0  0  0  0  0  0  0  0
    5.3070  -29.1692   23.1407 H   0  0  0  0  0  0  0  0  0  0  0  0
    8.0111  -28.2415   23.9027 H   0  0  0  0  0  0  0  0  0  0  0  0
    8.9193  -27.8033   22.4162 H   0  0  0  0  0  0  0  0  0  0  0  0
    7.1235  -27.7627   22.4162 H   0  0  0  0  0  0  0  0  0  0  0  0
    9.2154  -32.5327   21.3064 H   0  0  0  0  0  0  0  0  0  0  0  0
    1.8283  -37.9157   23.1978 H   0  0  0  0  0  0  0  0  0  0  0  0
    1.4479  -38.1688   24.9491 H   0  0  0  0  0  0  0  0  0  0  0  0
    3.6920  -38.7198   25.4768 H   0  0  0  0  0  0  0  0  0  0  0  0
    3.3714  -39.5775   23.9314 H   0  0  0  0  0  0  0  0  0  0  0  0
    4.3155  -38.0493   23.9314 H   0  0  0  0  0  0  0  0  0  0  0  0
    3.3566  -32.3779   31.5314 H   0  0  0  0  0  0  0  0  0  0  0  0
    3.5717  -31.2061   30.5320 H   0  0  0  0  0  0  0  0  0  0  0  0
    5.7218  -30.3796   32.2268 H   0  0  0  0  0  0  0  0  0  0  0  0
    5.3360  -31.3902   33.3440 H   0  0  0  0  0  0  0  0  0  0  0  0
    9.9654  -33.5551   32.4678 H   0  0  0  0  0  0  0  0  0  0  0  0
    8.4352  -32.0498   28.0413 H   0  0  0  0  0  0  0  0  0  0  0  0
    5.3322  -34.1310   29.3808 H   0  0  0  0  0  0  0  0  0  0  0  0
    6.3600  -34.1223   27.9087 H   0  0  0  0  0  0  0  0  0  0  0  0
    6.5454  -30.7244   30.1494 H   0  0  0  0  0  0  0  0  0  0  0  0
    4.0415  -34.6544   27.2533 H   0  0  0  0  0  0  0  0  0  0  0  0
    3.4248  -33.2080   28.1144 H   0  0  0  0  0  0  0  0  0  0  0  0
    3.9346  -32.5656   22.9683 H   0  0  0  0  0  0  0  0  0  0  0  0
    6.1599  -29.8802   25.4978 H   0  0  0  0  0  0  0  0  0  0  0  0
    6.6228  -32.8183   21.7382 H   0  0  0  0  0  0  0  0  0  0  0  0
    4.5807  -36.0475   24.5688 H   0  0  0  0  0  0  0  0  0  0  0  0
    5.9774  -33.4006   31.1166 H   0  0  0  0  0  0  0  0  0  0  0  0
   11.5430  -33.6563   30.5444 H   0  0  0  0  0  0  0  0  0  0  0  0
   12.0679  -32.9402   28.2770 H   0  0  0  0  0  0  0  0  0  0  0  0
   10.7950  -33.7842   27.3316 H   0  0  0  0  0  0  0  0  0  0  0  0
   10.8724  -31.9896   27.3316 H   0  0  0  0  0  0  0  0  0  0  0  0
  1 19  1  0
  1 36  1  0
  2 21  1  0
  3 22  2  0
  3 35  1  0
  4 23  1  0
  4 31  1  1
  4 32  1  0
  4 33  1  0
  5  6  1  0
  5 38  1  0
  7  8  1  0
 26  7  1  0
  8 26  1  0
  9 27  2  0
  9 39  1  0
 10 28  1  0
 10 29  2  0
 11 16  1  0
 11 34  1  0
 12 26  1  0
 12 28  1  0
 12 34  1  0
 13 14  1  0
 13 34  1  0
 13 40  2  0
 14 15  2  0
 14 20  1  0
 15 16  1  0
 15 17  1  0
 17 18  2  0
 17 24  1  0
 18 19  1  0
 19 20  2  0
 21 35  2  0
 21 36  1  0
 22 36  1  0
 23 24  1  0
 23 37  2  0
 24 25  2  0
 25 38  1  0
 27 29  1  0
 28 39  2  0
 29 30  1  0
 37 38  1  0
  1 41  1  0
  1 42  1  0
  2 43  1  0
  2 44  1  0
  2 45  1  0
  3 46  1  0
  5 47  1  0
  5 48  1  0
  6 49  1  0
  6 50  1  0
  6 51  1  0
  7 52  1  0
  7 53  1  0
  8 54  1  0
  8 55  1  0
  9 56  1  0
 10 57  1  0
 11 58  1  0
 11 59  1  0
 12 60  1  6
 16 61  1  0
 16 62  1  0
 18 63  1  0
 20 64  1  0
 22 65  1  0
 25 66  1  0
 26 67  1  1
 27 68  1  0
 30 69  1  0
 30 70  1  0
 30 71  1  0
M  END
>  <filename_input>  (1) 
7UAS_MBU_docked.sdf

>  <pdb_id>  (1) 
7UAS_MBU

>  <pose_rank>  (1) 
0

>  <num_atoms_heavy>  (1) 
40

>  <num_torsions>  (1) 
8

>  <pose>  (1) 
[5.540299470038122, -33.61057659289958, 28.434310372292728, -4.270756800321861, 4.56990851238617, 0.18913126133153585, -12.438494777939939, -2.47178973527534, -0.27240002309922157, 12.394043001477929, 0.08053339711256371, 25.203231811250397, -12.55940599012336, 0.2396528177814226]

>  <energy>  (1) 
-1174.9812648531436

>  <inter_energy>  (1) 
-1167.1664511582553

>  <intra_energy>  (1) 
15.731241897824319

>  <rmsd>  (1) 
0.472911

>  <sdf_rank>  (1) 
0

$$$$

     RDKit          3D

 71 76  0  0  0  0  0  0  0  0999 V2000
    4.7471  -30.5409   22.9565 C   0  0  0  0  0  0  0  0  0  0  0  0
    7.4411  -28.7260   22.7878 C   0  0  0  0  0  0  0  0  0  0  0  0
    7.8235  -32.2671   21.8799 C   0  0  0  0  0  0  0  0  0  0  0  0
    3.4602  -35.7896   25.4444 C   0  0  2  0  0  0  0  0  0  0  0  0
   -1.2493  -35.0066   26.5141 C   0  0  0  0  0  0  0  0  0  0  0  0
   -1.3261  -36.1745   27.5007 C   0  0  0  0  0  0  0  0  0  0  0  0
    4.9676  -30.5066   31.7215 C   0  0  0  0  0  0  0  0  0  0  0  0
    6.3045  -30.5340   32.4336 C   0  0  0  0  0  0  0  0  0  0  0  0
    9.5875  -33.4878   30.9181 C   0  0  0  0  0  0  0  0  0  0  0  0
    8.9345  -31.8983   28.8097 C   0  0  0  0  0  0  0  0  0  0  0  0
    5.1319  -32.9783   28.9326 C   0  0  0  0  0  0  0  0  0  0  0  0
    6.7475  -31.2674   30.0136 C   0  0  1  0  0  0  0  0  0  0  0  0
    5.8115  -30.8811   27.7920 C   0  0  0  0  0  0  0  0  0  0  0  0
    4.9685  -31.2942   26.6652 C   0  0  0  0  0  0  0  0  0  0  0  0
    3.9595  -32.2417   26.8538 C   0  0  0  0  0  0  0  0  0  0  0  0
    3.7554  -32.8024   28.2570 C   0  0  0  0  0  0  0  0  0  0  0  0
    3.1739  -32.6694   25.7737 C   0  0  0  0  0  0  0  0  0  0  0  0
    3.4361  -32.0859   24.5164 C   0  0  0  0  0  0  0  0  0  0  0  0
    4.4487  -31.1370   24.3290 C   0  0  0  0  0  0  0  0  0  0  0  0
    5.2159  -30.7442   25.4170 C   0  0  0  0  0  0  0  0  0  0  0  0
    7.3450  -30.1829   22.4277 C   0  0  0  0  0  0  0  0  0  0  0  0
    6.5040  -32.3716   22.1208 C   0  0  0  0  0  0  0  0  0  0  0  0
    2.1725  -35.0220   25.7738 C   0  0  0  0  0  0  0  0  0  0  0  0
    2.0697  -33.6277   25.9161 C   0  0  0  0  0  0  0  0  0  0  0  0
    0.7500  -33.4174   26.2162 C   0  0  0  0  0  0  0  0  0  0  0  0
    6.0049  -31.5306   31.3452 C   0  0  2  0  0  0  0  0  0  0  0  0
   10.4681  -33.3931   29.8364 C   0  0  0  0  0  0  0  0  0  0  0  0
    8.0909  -32.0167   29.9148 C   0  0  0  0  0  0  0  0  0  0  0  0
   10.1404  -32.5828   28.7542 C   0  0  0  0  0  0  0  0  0  0  0  0
   11.0557  -32.4395   27.5566 C   0  0  0  0  0  0  0  0  0  0  0  0
    4.1625  -35.8974   26.5768 F   0  0  0  0  0  0  0  0  0  0  0  0
    4.2077  -35.1919   24.4743 F   0  0  0  0  0  0  0  0  0  0  0  0
    3.1509  -36.9982   24.9539 F   0  0  0  0  0  0  0  0  0  0  0  0
    5.8667  -31.6977   28.8872 N   0  0  0  0  0  0  0  0  0  0  0  0
    8.2974  -30.9410   22.0788 N   0  0  0  0  0  0  0  0  0  0  0  0
    6.1388  -31.0226   22.6688 N   0  0  0  0  0  0  0  0  0  0  0  0
    1.0189  -35.6142   25.9737 N   0  0  0  0  0  0  0  0  0  0  0  0
    0.1445  -34.6351   26.2345 N   0  0  0  0  0  0  0  0  0  0  0  0
    8.4268  -32.8093   30.9399 N   0  0  0  0  0  0  0  0  0  0  0  0
    6.4608  -29.8339   27.7862 O   0  0  0  0  0  0  0  0  0  0  0  0
    4.0374  -30.9121   22.2024 H   0  0  0  0  0  0  0  0  0  0  0  0
    4.6566  -29.4449   22.9332 H   0  0  0  0  0  0  0  0  0  0  0  0
    7.4482  -28.6186   23.8826 H   0  0  0  0  0  0  0  0  0  0  0  0
    8.3689  -28.3060   22.3722 H   0  0  0  0  0  0  0  0  0  0  0  0
    6.5766  -28.1877   22.3722 H   0  0  0  0  0  0  0  0  0  0  0  0
    8.4602  -33.1075   21.5662 H   0  0  0  0  0  0  0  0  0  0  0  0
   -1.7377  -35.2997   25.5731 H   0  0  0  0  0  0  0  0  0  0  0  0
   -1.7566  -34.1395   26.9621 H   0  0  0  0  0  0  0  0  0  0  0  0
   -1.3006  -35.7872   28.5300 H   0  0  0  0  0  0  0  0  0  0  0  0
   -2.2627  -36.7287   27.3406 H   0  0  0  0  0  0  0  0  0  0  0  0
   -0.4703  -36.8467   27.3406 H   0  0  0  0  0  0  0  0  0  0  0  0
    4.0550  -30.8166   32.2517 H   0  0  0  0  0  0  0  0  0  0  0  0
    4.3911  -29.7450   31.1760 H   0  0  0  0  0  0  0  0  0  0  0  0
    7.0375  -29.7325   32.2597 H   0  0  0  0  0  0  0  0  0  0  0  0
    6.6270  -30.6001   33.4832 H   0  0  0  0  0  0  0  0  0  0  0  0
    9.8500  -34.1317   31.7705 H   0  0  0  0  0  0  0  0  0  0  0  0
    8.6391  -31.2526   27.9696 H   0  0  0  0  0  0  0  0  0  0  0  0
    4.9906  -33.2837   29.9799 H   0  0  0  0  0  0  0  0  0  0  0  0
    5.7065  -33.7512   28.4011 H   0  0  0  0  0  0  0  0  0  0  0  0
    6.9732  -30.1919   29.9655 H   0  0  0  0  0  0  0  0  0  0  0  0
    3.2479  -33.7764   28.1948 H   0  0  0  0  0  0  0  0  0  0  0  0
    3.1371  -32.1104   28.8476 H   0  0  0  0  0  0  0  0  0  0  0  0
    2.8239  -32.3867   23.6533 H   0  0  0  0  0  0  0  0  0  0  0  0
    6.0161  -30.0003   25.2895 H   0  0  0  0  0  0  0  0  0  0  0  0
    5.8485  -33.2394   21.9555 H   0  0  0  0  0  0  0  0  0  0  0  0
    0.2699  -32.4461   26.4065 H   0  0  0  0  0  0  0  0  0  0  0  0
    6.0122  -32.6275   31.2638 H   0  0  0  0  0  0  0  0  0  0  0  0
   11.4136  -33.9553   29.8411 H   0  0  0  0  0  0  0  0  0  0  0  0
   12.0878  -32.2780   27.9012 H   0  0  0  0  0  0  0  0  0  0  0  0
   11.0111  -33.3556   26.9493 H   0  0  0  0  0  0  0  0  0  0  0  0
   10.7333  -31.5809   26.9493 H   0  0  0  0  0  0  0  0  0  0  0  0
  1 19  1  0
  1 36  1  0
  2 21  1  0
  3 22  2  0
  3 35  1  0
  4 23  1  0
  4 31  1  1
  4 32  1  0
  4 33  1  0
  5  6  1  0
  5 38  1  0
  7  8  1  0
 26  7  1  0
  8 26  1  0
  9 27  2  0
  9 39  1  0
 10 28  1  0
 10 29  2  0
 11 16  1  0
 11 34  1  0
 12 26  1  0
 12 28  1  0
 12 34  1  0
 13 14  1  0
 13 34  1  0
 13 40  2  0
 14 15  2  0
 14 20  1  0
 15 16  1  0
 15 17  1  0
 17 18  2  0
 17 24  1  0
 18 19  1  0
 19 20  2  0
 21 35  2  0
 21 36  1  0
 22 36  1  0
 23 24  1  0
 23 37  2  0
 24 25  2  0
 25 38  1  0
 27 29  1  0
 28 39  2  0
 29 30  1  0
 37 38  1  0
  1 41  1  0
  1 42  1  0
  2 43  1  0
  2 44  1  0
  2 45  1  0
  3 46  1  0
  5 47  1  0
  5 48  1  0
  6 49  1  0
  6 50  1  0
  6 51  1  0
  7 52  1  0
  7 53  1  0
  8 54  1  0
  8 55  1  0
  9 56  1  0
 10 57  1  0
 11 58  1  0
 11 59  1  0
 12 60  1  6
 16 61  1  0
 16 62  1  0
 18 63  1  0
 20 64  1  0
 22 65  1  0
 25 66  1  0
 26 67  1  1
 27 68  1  0
 30 69  1  0
 30 70  1  0
 30 71  1  0
M  END
>  <filename_input>  (2) 
7UAS_MBU_docked.sdf

>  <pdb_id>  (2) 
7UAS_MBU

>  <pose_rank>  (2) 
1

>  <num_atoms_heavy>  (2) 
40

>  <num_torsions>  (2) 
8

>  <pose>  (2) 
[5.131880077996595, -32.97831512753649, 28.932581003481886, -0.15639846860885548, 0.14553311077717138, -0.24159951362997656, 3.1622689302900904, -0.03157572670149879, 3.476993718994481, 5.83921678076472, 0.26355975704884543, 0.164607673220425, 0.4474788975221522, 0.021372251267791752]

>  <energy>  (2) 
-944.820995948889

>  <inter_energy>  (2) 
-951.7932886425572

>  <intra_energy>  (2) 
14.50908453291473

>  <rmsd>  (2) 
2.10969

>  <sdf_rank>  (2) 
0

$$$$

     RDKit          3D

 71 76  0  0  0  0  0  0  0  0999 V2000
    4.8616  -30.6472   24.4408 C   0  0  0  0  0  0  0  0  0  0  0  0
    7.1595  -29.0628   22.7707 C   0  0  0  0  0  0  0  0  0  0  0  0
    6.8198  -32.6491   22.0407 C   0  0  0  0  0  0  0  0  0  0  0  0
    3.9647  -32.3848   30.5754 C   0  0  2  0  0  0  0  0  0  0  0  0
    8.7969  -32.8491   31.1846 C   0  0  0  0  0  0  0  0  0  0  0  0
    9.9910  -33.0807   30.2552 C   0  0  0  0  0  0  0  0  0  0  0  0
    2.2568  -38.3309   25.3514 C   0  0  0  0  0  0  0  0  0  0  0  0
    0.9540  -38.9383   25.8300 C   0  0  0  0  0  0  0  0  0  0  0  0
   -2.1079  -35.2804   28.3272 C   0  0  0  0  0  0  0  0  0  0  0  0
   -0.2745  -37.2372   28.7829 C   0  0  0  0  0  0  0  0  0  0  0  0
    2.4171  -35.1817   28.3480 C   0  0  0  0  0  0  0  0  0  0  0  0
    0.9756  -36.5068   26.6534 C   0  0  1  0  0  0  0  0  0  0  0  0
    2.5207  -34.7723   25.9021 C   0  0  0  0  0  0  0  0  0  0  0  0
    3.5220  -33.7375   26.1807 C   0  0  0  0  0  0  0  0  0  0  0  0
    4.2217  -33.7452   27.3897 C   0  0  0  0  0  0  0  0  0  0  0  0
    3.9274  -34.8652   28.3815 C   0  0  0  0  0  0  0  0  0  0  0  0
    5.1536  -32.7379   27.6791 C   0  0  0  0  0  0  0  0  0  0  0  0
    5.3598  -31.7496   26.6938 C   0  0  0  0  0  0  0  0  0  0  0  0
    4.6567  -31.7430   25.4828 C   0  0  0  0  0  0  0  0  0  0  0  0
    3.7326  -32.7481   25.2328 C   0  0  0  0  0  0  0  0  0  0  0  0
    6.8114  -30.5173   22.6138 C   0  0  0  0  0  0  0  0  0  0  0  0
    5.8192  -32.6389   22.9399 C   0  0  0  0  0  0  0  0  0  0  0  0
    5.4460  -32.5597   30.2129 C   0  0  0  0  0  0  0  0  0  0  0  0
    5.9527  -32.7160   28.9114 C   0  0  0  0  0  0  0  0  0  0  0  0
    7.3043  -32.8461   29.0910 C   0  0  0  0  0  0  0  0  0  0  0  0
    1.6553  -37.8967   26.6613 C   0  0  2  0  0  0  0  0  0  0  0  0
   -2.2488  -36.0991   29.4517 C   0  0  0  0  0  0  0  0  0  0  0  0
   -0.1695  -36.3905   27.6788 C   0  0  0  0  0  0  0  0  0  0  0  0
   -1.3154  -37.1026   29.6906 C   0  0  0  0  0  0  0  0  0  0  0  0
   -1.4154  -38.0176   30.8927 C   0  0  0  0  0  0  0  0  0  0  0  0
    3.8692  -31.3051   31.3577 F   0  0  0  0  0  0  0  0  0  0  0  0
    3.4328  -33.4741   31.1981 F   0  0  0  0  0  0  0  0  0  0  0  0
    3.2424  -32.2331   29.4564 F   0  0  0  0  0  0  0  0  0  0  0  0
    2.0087  -35.4728   26.9586 N   0  0  0  0  0  0  0  0  0  0  0  0
    7.3975  -31.3604   21.8727 N   0  0  0  0  0  0  0  0  0  0  0  0
    5.8679  -31.2487   23.5043 N   0  0  0  0  0  0  0  0  0  0  0  0
    6.4019  -32.5957   31.1109 N   0  0  0  0  0  0  0  0  0  0  0  0
    7.5408  -32.7607   30.4276 N   0  0  0  0  0  0  0  0  0  0  0  0
   -1.0857  -35.4376   27.4680 N   0  0  0  0  0  0  0  0  0  0  0  0
    2.1329  -35.0306   24.7614 O   0  0  0  0  0  0  0  0  0  0  0  0
    3.9214  -30.4203   23.9169 H   0  0  0  0  0  0  0  0  0  0  0  0
    5.1943  -29.6938   24.8771 H   0  0  0  0  0  0  0  0  0  0  0  0
    7.2192  -28.8134   23.8404 H   0  0  0  0  0  0  0  0  0  0  0  0
    8.1305  -28.8645   22.2933 H   0  0  0  0  0  0  0  0  0  0  0  0
    6.3835  -28.4464   22.2933 H   0  0  0  0  0  0  0  0  0  0  0  0
    7.1518  -33.5475   21.4996 H   0  0  0  0  0  0  0  0  0  0  0  0
    8.7287  -33.6855   31.8957 H   0  0  0  0  0  0  0  0  0  0  0  0
    8.9498  -31.8981   31.7160 H   0  0  0  0  0  0  0  0  0  0  0  0
   10.8952  -33.2562   30.8566 H   0  0  0  0  0  0  0  0  0  0  0  0
    9.7969  -33.9580   29.6205 H   0  0  0  0  0  0  0  0  0  0  0  0
   10.1390  -32.1946   29.6205 H   0  0  0  0  0  0  0  0  0  0  0  0
    3.1753  -38.9360   25.3411 H   0  0  0  0  0  0  0  0  0  0  0  0
    2.5865  -37.8160   24.4370 H   0  0  0  0  0  0  0  0  0  0  0  0
    0.0113  -38.6922   25.3194 H   0  0  0  0  0  0  0  0  0  0  0  0
    0.5900  -39.9611   26.0073 H   0  0  0  0  0  0  0  0  0  0  0  0
   -2.8499  -34.4899   28.1412 H   0  0  0  0  0  0  0  0  0  0  0  0
    0.4795  -38.0234   28.9361 H   0  0  0  0  0  0  0  0  0  0  0  0
    2.2111  -36.0565   28.9823 H   0  0  0  0  0  0  0  0  0  0  0  0
    1.8515  -34.3165   28.7242 H   0  0  0  0  0  0  0  0  0  0  0  0
    0.5334  -36.3584   25.6573 H   0  0  0  0  0  0  0  0  0  0  0  0
    4.2150  -34.5462   29.3942 H   0  0  0  0  0  0  0  0  0  0  0  0
    4.5015  -35.7632   28.1094 H   0  0  0  0  0  0  0  0  0  0  0  0
    6.0985  -30.9568   26.8833 H   0  0  0  0  0  0  0  0  0  0  0  0
    3.1704  -32.7595   24.2874 H   0  0  0  0  0  0  0  0  0  0  0  0
    5.1292  -33.4553   23.1998 H   0  0  0  0  0  0  0  0  0  0  0  0
    8.0571  -32.9923   28.3023 H   0  0  0  0  0  0  0  0  0  0  0  0
    2.0219  -37.8374   27.6967 H   0  0  0  0  0  0  0  0  0  0  0  0
   -3.0918  -35.9509   30.1426 H   0  0  0  0  0  0  0  0  0  0  0  0
   -1.3502  -37.4207   31.8144 H   0  0  0  0  0  0  0  0  0  0  0  0
   -2.3772  -38.5509   30.8686 H   0  0  0  0  0  0  0  0  0  0  0  0
   -0.5916  -38.7461   30.8686 H   0  0  0  0  0  0  0  0  0  0  0  0
  1 19  1  0
  1 36  1  0
  2 21  1  0
  3 22  2  0
  3 35  1  0
  4 23  1  0
  4 31  1  1
  4 32  1  0
  4 33  1  0
  5  6  1  0
  5 38  1  0
  7  8  1  0
 26  7  1  0
  8 26  1  0
  9 27  2  0
  9 39  1  0
 10 28  1  0
 10 29  2  0
 11 16  1  0
 11 34  1  0
 12 26  1  0
 12 28  1  0
 12 34  1  0
 13 14  1  0
 13 34  1  0
 13 40  2  0
 14 15  2  0
 14 20  1  0
 15 16  1  0
 15 17  1  0
 17 18  2  0
 17 24  1  0
 18 19  1  0
 19 20  2  0
 21 35  2  0
 21 36  1  0
 22 36  1  0
 23 24  1  0
 23 37  2  0
 24 25  2  0
 25 38  1  0
 27 29  1  0
 28 39  2  0
 29 30  1  0
 37 38  1  0
  1 41  1  0
  1 42  1  0
  2 43  1  0
  2 44  1  0
  2 45  1  0
  3 46  1  0
  5 47  1  0
  5 48  1  0
  6 49  1  0
  6 50  1  0
  6 51  1  0
  7 52  1  0
  7 53  1  0
  8 54  1  0
  8 55  1  0
  9 56  1  0
 10 57  1  0
 11 58  1  0
 11 59  1  0
 12 60  1  6
 16 61  1  0
 16 62  1  0
 18 63  1  0
 20 64  1  0
 22 65  1  0
 25 66  1  0
 26 67  1  1
 27 68  1  0
 30 69  1  0
 30 70  1  0
 30 71  1  0
M  END
>  <filename_input>  (3) 
7UAS_MBU_docked.sdf

>  <pdb_id>  (3) 
7UAS_MBU

>  <pose_rank>  (3) 
2

>  <num_atoms_heavy>  (3) 
40

>  <num_torsions>  (3) 
8

>  <pose>  (3) 
[2.417138529766804, -35.181682814042816, 28.348032860293216, -0.46321582202526446, -1.8849917036038046, 2.1745643307339004, -8.938218544794228, 2.6199360966159473, -0.498392673240463, 3.243442880805496, -0.3615099816332182, -0.4878627171942313, -2.3527985950654076, -0.1233011344887952]

>  <energy>  (3) 
-600.4686632527482

>  <inter_energy>  (3) 
-671.5923156899173

>  <intra_energy>  (3) 
79.40459866133976

>  <rmsd>  (3) 
7.24049

>  <sdf_rank>  (3) 
0

$$$$

     RDKit          3D

 71 76  0  0  0  0  0  0  0  0999 V2000
    2.8501  -36.5965   27.2707 C   0  0  0  0  0  0  0  0  0  0  0  0
    0.5733  -36.1560   24.9899 C   0  0  0  0  0  0  0  0  0  0  0  0
    3.4192  -38.2787   24.0382 C   0  0  0  0  0  0  0  0  0  0  0  0
    1.5522  -31.6093   25.3326 C   0  0  2  0  0  0  0  0  0  0  0  0
    4.8670  -30.4024   21.9426 C   0  0  0  0  0  0  0  0  0  0  0  0
    6.3970  -30.4249   21.9008 C   0  0  0  0  0  0  0  0  0  0  0  0
    5.1955  -31.6349   32.5322 C   0  0  0  0  0  0  0  0  0  0  0  0
    6.4904  -31.4527   33.2971 C   0  0  0  0  0  0  0  0  0  0  0  0
   10.4140  -33.3619   31.5488 C   0  0  0  0  0  0  0  0  0  0  0  0
    9.1866  -32.2934   29.3693 C   0  0  0  0  0  0  0  0  0  0  0  0
    5.7926  -31.0308   28.7431 C   0  0  0  0  0  0  0  0  0  0  0  0
    7.1333  -31.7691   30.8320 C   0  0  1  0  0  0  0  0  0  0  0  0
    5.9687  -33.4054   29.4440 C   0  0  0  0  0  0  0  0  0  0  0  0
    5.1286  -33.7433   28.2902 C   0  0  0  0  0  0  0  0  0  0  0  0
    5.0118  -32.8512   27.2217 C   0  0  0  0  0  0  0  0  0  0  0  0
    5.7969  -31.5458   27.2882 C   0  0  0  0  0  0  0  0  0  0  0  0
    4.1812  -33.1506   26.1321 C   0  0  0  0  0  0  0  0  0  0  0  0
    3.5019  -34.3866   26.1612 C   0  0  0  0  0  0  0  0  0  0  0  0
    3.6194  -35.2792   27.2338 C   0  0  0  0  0  0  0  0  0  0  0  0
    4.4409  -34.9469   28.3022 C   0  0  0  0  0  0  0  0  0  0  0  0
    1.8013  -37.0119   24.8450 C   0  0  0  0  0  0  0  0  0  0  0  0
    3.8716  -38.0658   25.2872 C   0  0  0  0  0  0  0  0  0  0  0  0
    2.8910  -31.5786   24.5824 C   0  0  0  0  0  0  0  0  0  0  0  0
    4.0516  -32.2756   24.9594 C   0  0  0  0  0  0  0  0  0  0  0  0
    4.9738  -31.9317   24.0068 C   0  0  0  0  0  0  0  0  0  0  0  0
    6.4436  -32.3504   32.0890 C   0  0  2  0  0  0  0  0  0  0  0  0
   11.0905  -33.3429   30.3255 C   0  0  0  0  0  0  0  0  0  0  0  0
    8.5538  -32.3259   30.6125 C   0  0  0  0  0  0  0  0  0  0  0  0
   10.4687  -32.7988   29.2063 C   0  0  0  0  0  0  0  0  0  0  0  0
   11.1531  -32.7488   27.8567 C   0  0  0  0  0  0  0  0  0  0  0  0
    0.9940  -32.8027   25.1060 F   0  0  0  0  0  0  0  0  0  0  0  0
    0.7058  -30.6081   24.9605 F   0  0  0  0  0  0  0  0  0  0  0  0
    1.7656  -31.4194   26.6423 F   0  0  0  0  0  0  0  0  0  0  0  0
    6.2946  -32.0921   29.6396 N   0  0  0  0  0  0  0  0  0  0  0  0
    2.1767  -37.6274   23.8040 N   0  0  0  0  0  0  0  0  0  0  0  0
    2.9029  -37.0643   25.8460 N   0  0  0  0  0  0  0  0  0  0  0  0
    3.0860  -30.8668   23.4976 N   0  0  0  0  0  0  0  0  0  0  0  0
    4.3557  -31.0883   23.1371 N   0  0  0  0  0  0  0  0  0  0  0  0
    9.1718  -32.8622   31.6718 N   0  0  0  0  0  0  0  0  0  0  0  0
    6.3883  -34.2555   30.2311 O   0  0  0  0  0  0  0  0  0  0  0  0
    3.3376  -37.3193   27.9415 H   0  0  0  0  0  0  0  0  0  0  0  0
    1.8238  -36.4862   27.6508 H   0  0  0  0  0  0  0  0  0  0  0  0
    0.3559  -36.0045   26.0575 H   0  0  0  0  0  0  0  0  0  0  0  0
    0.7465  -35.1820   24.5091 H   0  0  0  0  0  0  0  0  0  0  0  0
   -0.2806  -36.6556   24.5091 H   0  0  0  0  0  0  0  0  0  0  0  0
    3.9475  -38.8845   23.2873 H   0  0  0  0  0  0  0  0  0  0  0  0
    4.5241  -29.3573   21.9551 H   0  0  0  0  0  0  0  0  0  0  0  0
    4.4875  -30.9257   21.0525 H   0  0  0  0  0  0  0  0  0  0  0  0
    6.7918  -30.4307   22.9275 H   0  0  0  0  0  0  0  0  0  0  0  0
    6.7362  -31.3281   21.3724 H   0  0  0  0  0  0  0  0  0  0  0  0
    6.7625  -29.5320   21.3724 H   0  0  0  0  0  0  0  0  0  0  0  0
    4.3661  -32.2013   32.9808 H   0  0  0  0  0  0  0  0  0  0  0  0
    4.4729  -30.9588   32.0517 H   0  0  0  0  0  0  0  0  0  0  0  0
    7.0274  -30.4939   33.2502 H   0  0  0  0  0  0  0  0  0  0  0  0
    6.7993  -31.5734   34.3460 H   0  0  0  0  0  0  0  0  0  0  0  0
   10.9089  -33.7954   32.4303 H   0  0  0  0  0  0  0  0  0  0  0  0
    8.6612  -31.8605   28.5053 H   0  0  0  0  0  0  0  0  0  0  0  0
    6.4419  -30.1464   28.8215 H   0  0  0  0  0  0  0  0  0  0  0  0
    4.7674  -30.7581   29.0339 H   0  0  0  0  0  0  0  0  0  0  0  0
    7.2312  -30.6832   30.9783 H   0  0  0  0  0  0  0  0  0  0  0  0
    5.3272  -30.7990   26.6312 H   0  0  0  0  0  0  0  0  0  0  0  0
    6.8319  -31.7172   26.9575 H   0  0  0  0  0  0  0  0  0  0  0  0
    2.8577  -34.6587   25.3121 H   0  0  0  0  0  0  0  0  0  0  0  0
    4.5456  -35.6351   29.1539 H   0  0  0  0  0  0  0  0  0  0  0  0
    4.7440  -38.5181   25.7815 H   0  0  0  0  0  0  0  0  0  0  0  0
    6.0180  -32.2736   23.9549 H   0  0  0  0  0  0  0  0  0  0  0  0
    6.6991  -33.4002   31.8829 H   0  0  0  0  0  0  0  0  0  0  0  0
   12.1074  -33.7553   30.2485 H   0  0  0  0  0  0  0  0  0  0  0  0
   12.2409  -32.6693   27.9999 H   0  0  0  0  0  0  0  0  0  0  0  0
   10.9234  -33.6661   27.2948 H   0  0  0  0  0  0  0  0  0  0  0  0
   10.7924  -31.8746   27.2948 H   0  0  0  0  0  0  0  0  0  0  0  0
  1 19  1  0
  1 36  1  0
  2 21  1  0
  3 22  2  0
  3 35  1  0
  4 23  1  0
  4 31  1  1
  4 32  1  0
  4 33  1  0
  5  6  1  0
  5 38  1  0
  7  8  1  0
 26  7  1  0
  8 26  1  0
  9 27  2  0
  9 39  1  0
 10 28  1  0
 10 29  2  0
 11 16  1  0
 11 34  1  0
 12 26  1  0
 12 28  1  0
 12 34  1  0
 13 14  1  0
 13 34  1  0
 13 40  2  0
 14 15  2  0
 14 20  1  0
 15 16  1  0
 15 17  1  0
 17 18  2  0
 17 24  1  0
 18 19  1  0
 19 20  2  0
 21 35  2  0
 21 36  1  0
 22 36  1  0
 23 24  1  0
 23 37  2  0
 24 25  2  0
 25 38  1  0
 27 29  1  0
 28 39  2  0
 29 30  1  0
 37 38  1  0
  1 41  1  0
  1 42  1  0
  2 43  1  0
  2 44  1  0
  2 45  1  0
  3 46  1  0
  5 47  1  0
  5 48  1  0
  6 49  1  0
  6 50  1  0
  6 51  1  0
  7 52  1  0
  7 53  1  0
  8 54  1  0
  8 55  1  0
  9 56  1  0
 10 57  1  0
 11 58  1  0
 11 59  1  0
 12 60  1  1
 16 61  1  0
 16 62  1  0
 18 63  1  0
 20 64  1  0
 22 65  1  0
 25 66  1  0
 26 67  1  1
 27 68  1  0
 30 69  1  0
 30 70  1  0
 30 71  1  0
M  END
>  <filename_input>  (4) 
7UAS_MBU_docked.sdf

>  <pdb_id>  (4) 
7UAS_MBU

>  <pose_rank>  (4) 
3

>  <num_atoms_heavy>  (4) 
40

>  <num_torsions>  (4) 
8

>  <pose>  (4) 
[5.792607145487374, -31.03080568609742, 28.74313692400483, 1.5931116754204464, 0.801714856818275, 2.7820715655493444, 2.780581442173785, 3.5865129996162928, -0.7587717042992964, -4.032776263172714, 0.5387559547719861, -3.1868324617628505, 0.05710175463623373, 0.1491651553958683]

>  <energy>  (4) 
-731.753237417784

>  <inter_energy>  (4) 
-793.0776010436996

>  <intra_energy>  (4) 
68.18384075331181

>  <rmsd>  (4) 
4.83426

>  <sdf_rank>  (4) 
0

$$$$

     RDKit          3D

 71 76  0  0  0  0  0  0  0  0999 V2000
    5.2499  -31.5665   30.0465 C   0  0  0  0  0  0  0  0  0  0  0  0
    5.5291  -32.9308   32.9861 C   0  0  0  0  0  0  0  0  0  0  0  0
    8.5384  -33.0150   30.8773 C   0  0  0  0  0  0  0  0  0  0  0  0
    3.5682  -35.8748   29.7499 C   0  0  2  0  0  0  0  0  0  0  0  0
    2.2056  -38.4583   25.8248 C   0  0  0  0  0  0  0  0  0  0  0  0
    2.8815  -38.6379   24.4631 C   0  0  0  0  0  0  0  0  0  0  0  0
    4.4238  -28.3657   22.1818 C   0  0  0  0  0  0  0  0  0  0  0  0
    5.9379  -28.3160   22.1962 C   0  0  0  0  0  0  0  0  0  0  0  0
    8.0237  -32.8570   21.3799 C   0  0  0  0  0  0  0  0  0  0  0  0
    7.7535  -30.2732   22.1855 C   0  0  0  0  0  0  0  0  0  0  0  0
    3.9200  -32.6558   23.8138 C   0  0  0  0  0  0  0  0  0  0  0  0
    5.2788  -30.7408   22.7220 C   0  0  1  0  0  0  0  0  0  0  0  0
    5.5037  -31.2427   25.1006 C   0  0  0  0  0  0  0  0  0  0  0  0
    5.1458  -32.0296   26.2854 C   0  0  0  0  0  0  0  0  0  0  0  0
    4.5669  -33.2926   26.1406 C   0  0  0  0  0  0  0  0  0  0  0  0
    4.3476  -33.8234   24.7281 C   0  0  0  0  0  0  0  0  0  0  0  0
    4.1876  -34.0352   27.2682 C   0  0  0  0  0  0  0  0  0  0  0  0
    4.4385  -33.4602   28.5317 C   0  0  0  0  0  0  0  0  0  0  0  0
    5.0179  -32.1934   28.6749 C   0  0  0  0  0  0  0  0  0  0  0  0
    5.3709  -31.4797   27.5379 C   0  0  0  0  0  0  0  0  0  0  0  0
    6.6314  -32.8106   31.9702 C   0  0  0  0  0  0  0  0  0  0  0  0
    7.8022  -32.3514   29.9676 C   0  0  0  0  0  0  0  0  0  0  0  0
    3.3322  -36.2247   28.2741 C   0  0  0  0  0  0  0  0  0  0  0  0
    3.6168  -35.3860   27.1830 C   0  0  0  0  0  0  0  0  0  0  0  0
    3.2319  -36.1156   26.0896 C   0  0  0  0  0  0  0  0  0  0  0  0
    5.2013  -29.2481   23.1215 C   0  0  2  0  0  0  0  0  0  0  0  0
    9.1325  -32.0069   21.3293 C   0  0  0  0  0  0  0  0  0  0  0  0
    6.6770  -31.1600   22.2268 C   0  0  0  0  0  0  0  0  0  0  0  0
    9.0015  -30.6839   21.7388 C   0  0  0  0  0  0  0  0  0  0  0  0
   10.1675  -29.7184   21.7085 C   0  0  0  0  0  0  0  0  0  0  0  0
    4.8583  -35.5503   29.8826 F   0  0  0  0  0  0  0  0  0  0  0  0
    3.2410  -36.8882   30.6003 F   0  0  0  0  0  0  0  0  0  0  0  0
    2.7766  -34.8520   30.1022 F   0  0  0  0  0  0  0  0  0  0  0  0
    4.9153  -31.5686   23.9103 N   0  0  0  0  0  0  0  0  0  0  0  0
    7.8036  -33.2797   32.0659 N   0  0  0  0  0  0  0  0  0  0  0  0
    6.4300  -32.3271   30.5759 N   0  0  0  0  0  0  0  0  0  0  0  0
    2.8143  -37.3654   27.8842 N   0  0  0  0  0  0  0  0  0  0  0  0
    2.7608  -37.3062   26.5482 N   0  0  0  0  0  0  0  0  0  0  0  0
    6.8283  -32.4262   21.8196 N   0  0  0  0  0  0  0  0  0  0  0  0
    6.3097  -30.3116   25.1409 O   0  0  0  0  0  0  0  0  0  0  0  0
    5.4796  -30.4945   29.9565 H   0  0  0  0  0  0  0  0  0  0  0  0
    4.3689  -31.6257   30.7025 H   0  0  0  0  0  0  0  0  0  0  0  0
    5.9568  -32.8841   33.9984 H   0  0  0  0  0  0  0  0  0  0  0  0
    4.8147  -32.1052   32.8514 H   0  0  0  0  0  0  0  0  0  0  0  0
    5.0094  -33.8909   32.8514 H   0  0  0  0  0  0  0  0  0  0  0  0
    9.5844  -33.3171   30.7204 H   0  0  0  0  0  0  0  0  0  0  0  0
    1.1279  -38.2999   25.6718 H   0  0  0  0  0  0  0  0  0  0  0  0
    2.3847  -39.3635   26.4236 H   0  0  0  0  0  0  0  0  0  0  0  0
    3.9350  -38.9180   24.6108 H   0  0  0  0  0  0  0  0  0  0  0  0
    2.3669  -39.4305   23.9001 H   0  0  0  0  0  0  0  0  0  0  0  0
    2.8284  -37.6945   23.9001 H   0  0  0  0  0  0  0  0  0  0  0  0
    3.8415  -27.5198   22.5760 H   0  0  0  0  0  0  0  0  0  0  0  0
    3.6573  -28.5332   21.4109 H   0  0  0  0  0  0  0  0  0  0  0  0
    6.5102  -28.7204   21.3483 H   0  0  0  0  0  0  0  0  0  0  0  0
    6.6903  -27.5239   22.3251 H   0  0  0  0  0  0  0  0  0  0  0  0
    8.1317  -33.9016   21.0526 H   0  0  0  0  0  0  0  0  0  0  0  0
    7.6106  -29.2325   22.5120 H   0  0  0  0  0  0  0  0  0  0  0  0
    3.8600  -33.0073   22.7732 H   0  0  0  0  0  0  0  0  0  0  0  0
    2.9351  -32.2822   24.1305 H   0  0  0  0  0  0  0  0  0  0  0  0
    4.5800  -30.8985   21.8872 H   0  0  0  0  0  0  0  0  0  0  0  0
    3.5589  -34.5901   24.7405 H   0  0  0  0  0  0  0  0  0  0  0  0
    5.2790  -34.2699   24.3499 H   0  0  0  0  0  0  0  0  0  0  0  0
    4.1698  -34.0264   29.4357 H   0  0  0  0  0  0  0  0  0  0  0  0
    5.8268  -30.4830   27.6302 H   0  0  0  0  0  0  0  0  0  0  0  0
    8.1282  -31.9273   29.0064 H   0  0  0  0  0  0  0  0  0  0  0  0
    3.2924  -35.7983   25.0381 H   0  0  0  0  0  0  0  0  0  0  0  0
    5.1848  -29.4225   24.2075 H   0  0  0  0  0  0  0  0  0  0  0  0
   10.1016  -32.3815   20.9681 H   0  0  0  0  0  0  0  0  0  0  0  0
   10.4658  -29.4714   22.7380 H   0  0  0  0  0  0  0  0  0  0  0  0
   11.0146  -30.1830   21.1827 H   0  0  0  0  0  0  0  0  0  0  0  0
    9.8690  -28.7995   21.1827 H   0  0  0  0  0  0  0  0  0  0  0  0
  1 19  1  0
  1 36  1  0
  2 21  1  0
  3 22  2  0
  3 35  1  0
  4 23  1  0
  4 31  1  6
  4 32  1  0
  4 33  1  0
  5  6  1  0
  5 38  1  0
  7  8  1  0
 26  7  1  0
  8 26  1  0
  9 27  2  0
  9 39  1  0
 10 28  1  0
 10 29  2  0
 11 16  1  0
 11 34  1  0
 12 26  1  0
 12 28  1  0
 12 34  1  0
 13 14  1  0
 13 34  1  0
 13 40  2  0
 14 15  2  0
 14 20  1  0
 15 16  1  0
 15 17  1  0
 17 18  2  0
 17 24  1  0
 18 19  1  0
 19 20  2  0
 21 35  2  0
 21 36  1  0
 22 36  1  0
 23 24  1  0
 23 37  2  0
 24 25  2  0
 25 38  1  0
 27 29  1  0
 28 39  2  0
 29 30  1  0
 37 38  1  0
  1 41  1  0
  1 42  1  0
  2 43  1  0
  2 44  1  0
  2 45  1  0
  3 46  1  0
  5 47  1  0
  5 48  1  0
  6 49  1  0
  6 50  1  0
  6 51  1  0
  7 52  1  0
  7 53  1  0
  8 54  1  0
  8 55  1  0
  9 56  1  0
 10 57  1  0
 11 58  1  0
 11 59  1  0
 12 60  1  6
 16 61  1  0
 16 62  1  0
 18 63  1  0
 20 64  1  0
 22 65  1  0
 25 66  1  0
 26 67  1  1
 27 68  1  0
 30 69  1  0
 30 70  1  0
 30 71  1  0
M  END
>  <filename_input>  (5) 
7UAS_MBU_docked.sdf

>  <pdb_id>  (5) 
7UAS_MBU

>  <pose_rank>  (5) 
4

>  <num_atoms_heavy>  (5) 
40

>  <num_torsions>  (5) 
8

>  <pose>  (5) 
[3.91998862349328, -32.65581749778815, 23.813756091056828, 1.4163461181848636, 2.5707850642684233, 0.28804675029785864, -4.767198650976252, -2.395354081574856, 0.09847810671313267, -3.4032732233922256, -0.07936554795604502, -9.343456161523813, -2.691035601673611, -0.8768999316526835]

>  <energy>  (5) 
-530.7217916396121

>  <inter_energy>  (5) 
-712.8039910493648

>  <intra_energy>  (5) 
181.17003161917177

>  <rmsd>  (5) 
6.78817

>  <sdf_rank>  (5) 
0

$$$$

     RDKit          3D

 71 76  0  0  0  0  0  0  0  0999 V2000
    1.5399  -38.3167   25.4390 C   0  0  0  0  0  0  0  0  0  0  0  0
    0.1331  -35.5536   24.4559 C   0  0  0  0  0  0  0  0  0  0  0  0
    3.7864  -35.7220   24.0886 C   0  0  0  0  0  0  0  0  0  0  0  0
    5.1166  -36.9660   30.0972 C   0  0  2  0  0  0  0  0  0  0  0  0
    5.4784  -41.4704   31.9724 C   0  0  0  0  0  0  0  0  0  0  0  0
    6.2564  -42.4247   31.0628 C   0  0  0  0  0  0  0  0  0  0  0  0
   -2.1521  -33.6790   33.3354 C   0  0  0  0  0  0  0  0  0  0  0  0
   -0.7447  -33.3672   32.8694 C   0  0  0  0  0  0  0  0  0  0  0  0
   -3.5098  -32.7332   29.1986 C   0  0  0  0  0  0  0  0  0  0  0  0
   -0.9200  -33.1184   29.9352 C   0  0  0  0  0  0  0  0  0  0  0  0
    0.7524  -36.1183   31.4681 C   0  0  0  0  0  0  0  0  0  0  0  0
   -1.6544  -35.1787   31.2940 C   0  0  1  0  0  0  0  0  0  0  0  0
   -0.6906  -36.5066   29.4862 C   0  0  0  0  0  0  0  0  0  0  0  0
    0.4187  -37.2708   28.9060 C   0  0  0  0  0  0  0  0  0  0  0  0
    1.4269  -37.7788   29.7286 C   0  0  0  0  0  0  0  0  0  0  0  0
    1.3194  -37.5338   31.2297 C   0  0  0  0  0  0  0  0  0  0  0  0
    2.5102  -38.4784   29.1773 C   0  0  0  0  0  0  0  0  0  0  0  0
    2.5151  -38.6584   27.7782 C   0  0  0  0  0  0  0  0  0  0  0  0
    1.5040  -38.1474   26.9551 C   0  0  0  0  0  0  0  0  0  0  0  0
    0.4518  -37.4495   27.5317 C   0  0  0  0  0  0  0  0  0  0  0  0
    1.6013  -35.8665   24.3667 C   0  0  0  0  0  0  0  0  0  0  0  0
    3.6833  -36.9647   24.5937 C   0  0  0  0  0  0  0  0  0  0  0  0
    4.7472  -38.4217   30.4143 C   0  0  0  0  0  0  0  0  0  0  0  0
    3.5767  -39.0751   29.9923 C   0  0  0  0  0  0  0  0  0  0  0  0
    3.6855  -40.3336   30.5218 C   0  0  0  0  0  0  0  0  0  0  0  0
   -1.2941  -34.7633   32.7402 C   0  0  2  0  0  0  0  0  0  0  0  0
   -2.5288  -31.8552   28.7283 C   0  0  0  0  0  0  0  0  0  0  0  0
   -1.9314  -33.9744   30.3727 C   0  0  0  0  0  0  0  0  0  0  0  0
   -1.2022  -32.0455   29.1016 C   0  0  0  0  0  0  0  0  0  0  0  0
   -0.0972  -31.1285   28.6215 C   0  0  0  0  0  0  0  0  0  0  0  0
    6.4482  -36.8678   30.1631 F   0  0  0  0  0  0  0  0  0  0  0  0
    4.5296  -36.0683   30.9379 F   0  0  0  0  0  0  0  0  0  0  0  0
    4.6709  -36.6446   28.8744 F   0  0  0  0  0  0  0  0  0  0  0  0
   -0.5198  -35.9701   30.7321 N   0  0  0  0  0  0  0  0  0  0  0  0
    2.5185  -35.0886   23.9705 N   0  0  0  0  0  0  0  0  0  0  0  0
    2.2344  -37.0714   24.9715 N   0  0  0  0  0  0  0  0  0  0  0  0
    5.5039  -39.2086   31.1421 N   0  0  0  0  0  0  0  0  0  0  0  0
    4.8625  -40.3818   31.2015 N   0  0  0  0  0  0  0  0  0  0  0  0
   -3.2011  -33.7642   30.0047 N   0  0  0  0  0  0  0  0  0  0  0  0
   -1.7594  -36.3370   28.8970 O   0  0  0  0  0  0  0  0  0  0  0  0
    2.1079  -39.2151   25.1558 H   0  0  0  0  0  0  0  0  0  0  0  0
    0.5417  -38.4463   24.9956 H   0  0  0  0  0  0  0  0  0  0  0  0
   -0.1647  -35.4902   25.5129 H   0  0  0  0  0  0  0  0  0  0  0  0
   -0.0677  -34.5925   23.9600 H   0  0  0  0  0  0  0  0  0  0  0  0
   -0.4421  -36.3493   23.9600 H   0  0  0  0  0  0  0  0  0  0  0  0
    4.7383  -35.2517   23.8011 H   0  0  0  0  0  0  0  0  0  0  0  0
    4.6886  -42.0337   32.4910 H   0  0  0  0  0  0  0  0  0  0  0  0
    6.1808  -41.0298   32.6953 H   0  0  0  0  0  0  0  0  0  0  0  0
    6.8321  -43.1309   31.6790 H   0  0  0  0  0  0  0  0  0  0  0  0
    5.5519  -42.9819   30.4278 H   0  0  0  0  0  0  0  0  0  0  0  0
    6.9442  -41.8469   30.4278 H   0  0  0  0  0  0  0  0  0  0  0  0
   -2.3864  -33.6899   34.4101 H   0  0  0  0  0  0  0  0  0  0  0  0
   -3.1513  -33.2714   33.1224 H   0  0  0  0  0  0  0  0  0  0  0  0
   -0.5855  -32.7529   31.9709 H   0  0  0  0  0  0  0  0  0  0  0  0
    0.1482  -32.9210   33.3316 H   0  0  0  0  0  0  0  0  0  0  0  0
   -4.5577  -32.5772   28.9026 H   0  0  0  0  0  0  0  0  0  0  0  0
    0.1170  -33.2969   30.2560 H   0  0  0  0  0  0  0  0  0  0  0  0
    0.5738  -35.9705   32.5434 H   0  0  0  0  0  0  0  0  0  0  0  0
    1.4735  -35.3682   31.1111 H   0  0  0  0  0  0  0  0  0  0  0  0
   -2.5804  -35.7707   31.3389 H   0  0  0  0  0  0  0  0  0  0  0  0
    2.3157  -37.6142   31.6889 H   0  0  0  0  0  0  0  0  0  0  0  0
    0.6523  -38.2825   31.6818 H   0  0  0  0  0  0  0  0  0  0  0  0
    3.3416  -39.2196   27.3178 H   0  0  0  0  0  0  0  0  0  0  0  0
   -0.3515  -37.0404   26.9015 H   0  0  0  0  0  0  0  0  0  0  0  0
    4.4731  -37.7224   24.7038 H   0  0  0  0  0  0  0  0  0  0  0  0
    2.9576  -41.1516   30.4170 H   0  0  0  0  0  0  0  0  0  0  0  0
   -0.9764  -35.7637   33.0693 H   0  0  0  0  0  0  0  0  0  0  0  0
   -2.8038  -31.0198   28.0677 H   0  0  0  0  0  0  0  0  0  0  0  0
    0.4235  -30.6965   29.4888 H   0  0  0  0  0  0  0  0  0  0  0  0
    0.6174  -31.7026   28.0134 H   0  0  0  0  0  0  0  0  0  0  0  0
   -0.5297  -30.3203   28.0134 H   0  0  0  0  0  0  0  0  0  0  0  0
  1 19  1  0
  1 36  1  0
  2 21  1  0
  3 22  2  0
  3 35  1  0
  4 23  1  0
  4 31  1  6
  4 32  1  0
  4 33  1  0
  5  6  1  0
  5 38  1  0
  7  8  1  0
 26  7  1  0
  8 26  1  0
  9 27  2  0
  9 39  1  0
 10 28  1  0
 10 29  2  0
 11 16  1  0
 11 34  1  0
 12 26  1  0
 12 28  1  0
 12 34  1  0
 13 14  1  0
 13 34  1  0
 13 40  2  0
 14 15  2  0
 14 20  1  0
 15 16  1  0
 15 17  1  0
 17 18  2  0
 17 24  1  0
 18 19  1  0
 19 20  2  0
 21 35  2  0
 21 36  1  0
 22 36  1  0
 23 24  1  0
 23 37  2  0
 24 25  2  0
 25 38  1  0
 27 29  1  0
 28 39  2  0
 29 30  1  0
 37 38  1  0
  1 41  1  0
  1 42  1  0
  2 43  1  0
  2 44  1  0
  2 45  1  0
  3 46  1  0
  5 47  1  0
  5 48  1  0
  6 49  1  0
  6 50  1  0
  6 51  1  0
  7 52  1  0
  7 53  1  0
  8 54  1  0
  8 55  1  0
  9 56  1  0
 10 57  1  0
 11 58  1  0
 11 59  1  0
 12 60  1  1
 16 61  1  0
 16 62  1  0
 18 63  1  0
 20 64  1  0
 22 65  1  0
 25 66  1  0
 26 67  1  1
 27 68  1  0
 30 69  1  0
 30 70  1  0
 30 71  1  0
M  END
>  <filename_input>  (6) 
7UAS_MBU_docked.sdf

>  <pdb_id>  (6) 
7UAS_MBU

>  <pose_rank>  (6) 
5

>  <num_atoms_heavy>  (6) 
40

>  <num_torsions>  (6) 
8

>  <pose>  (6) 
[0.752386570057584, -36.11827219173203, 31.468103075646106, 1.8612185332594529, 0.6834087769317942, -4.016223098324291, 3.2301177754581847, 2.156517311948591, 0.9757191622884338, -0.03406410645541774, 6.851735632920326, 7.105416020967118, -7.757762987937406, -1.9958715932013669]

>  <energy>  (6) 
-254.24748935906536

>  <inter_energy>  (6) 
-333.0331047567299

>  <intra_energy>  (6) 
68.64061768728043

>  <rmsd>  (6) 
8.62635

>  <sdf_rank>  (6) 
0

$$$$

     RDKit          3D

 71 76  0  0  0  0  0  0  0  0999 V2000
    3.3812  -30.9322   22.9930 C   0  0  0  0  0  0  0  0  0  0  0  0
    5.9250  -32.7599   22.1164 C   0  0  0  0  0  0  0  0  0  0  0  0
    6.6664  -29.2566   22.9451 C   0  0  0  0  0  0  0  0  0  0  0  0
    3.4046  -36.3474   24.4639 C   0  0  2  0  0  0  0  0  0  0  0  0
   -0.5885  -36.9905   27.2168 C   0  0  0  0  0  0  0  0  0  0  0  0
   -0.1324  -37.7550   28.4621 C   0  0  0  0  0  0  0  0  0  0  0  0
    4.8730  -31.2215   31.4248 C   0  0  0  0  0  0  0  0  0  0  0  0
    6.2260  -30.8611   32.0034 C   0  0  0  0  0  0  0  0  0  0  0  0
    9.7393  -32.4914   27.7414 C   0  0  0  0  0  0  0  0  0  0  0  0
    8.8612  -32.6496   30.3109 C   0  0  0  0  0  0  0  0  0  0  0  0
    5.2996  -33.5650   28.5779 C   0  0  0  0  0  0  0  0  0  0  0  0
    6.6361  -31.5835   29.5743 C   0  0  1  0  0  0  0  0  0  0  0  0
    5.2816  -31.2999   27.5630 C   0  0  0  0  0  0  0  0  0  0  0  0
    4.3809  -31.8351   26.5365 C   0  0  0  0  0  0  0  0  0  0  0  0
    3.6616  -33.0083   26.7763 C   0  0  0  0  0  0  0  0  0  0  0  0
    3.8270  -33.6865   28.1319 C   0  0  0  0  0  0  0  0  0  0  0  0
    2.8271  -33.5465   25.7860 C   0  0  0  0  0  0  0  0  0  0  0  0
    2.7364  -32.8411   24.5677 C   0  0  0  0  0  0  0  0  0  0  0  0
    3.4591  -31.6657   24.3287 C   0  0  0  0  0  0  0  0  0  0  0  0
    4.2852  -31.1662   25.3261 C   0  0  0  0  0  0  0  0  0  0  0  0
    5.9889  -31.3174   22.5362 C   0  0  0  0  0  0  0  0  0  0  0  0
    5.3506  -29.1393   23.2002 C   0  0  0  0  0  0  0  0  0  0  0  0
    2.2483  -36.0092   25.4151 C   0  0  0  0  0  0  0  0  0  0  0  0
    2.0114  -34.7504   25.9932 C   0  0  0  0  0  0  0  0  0  0  0  0
    0.8938  -34.9393   26.7622 C   0  0  0  0  0  0  0  0  0  0  0  0
    6.1076  -31.9586   30.9792 C   0  0  2  0  0  0  0  0  0  0  0  0
   10.5768  -33.0421   28.7161 C   0  0  0  0  0  0  0  0  0  0  0  0
    8.0570  -32.1160   29.3032 C   0  0  0  0  0  0  0  0  0  0  0  0
   10.1347  -33.1254   30.0325 C   0  0  0  0  0  0  0  0  0  0  0  0
   10.9965  -33.7141   31.1294 C   0  0  0  0  0  0  0  0  0  0  0  0
    4.5131  -35.7981   24.9705 F   0  0  0  0  0  0  0  0  0  0  0  0
    3.1956  -35.9119   23.1896 F   0  0  0  0  0  0  0  0  0  0  0  0
    3.5303  -37.6782   24.3634 F   0  0  0  0  0  0  0  0  0  0  0  0
    5.7033  -32.1443   28.5521 N   0  0  0  0  0  0  0  0  0  0  0  0
    7.0151  -30.5756   22.5436 N   0  0  0  0  0  0  0  0  0  0  0  0
    4.7906  -30.4657   22.7754 N   0  0  0  0  0  0  0  0  0  0  0  0
    1.3576  -36.8926   25.7995 N   0  0  0  0  0  0  0  0  0  0  0  0
    0.5218  -36.2393   26.6155 N   0  0  0  0  0  0  0  0  0  0  0  0
    8.5097  -32.0405   28.0457 N   0  0  0  0  0  0  0  0  0  0  0  0
    5.6633  -30.1284   27.5656 O   0  0  0  0  0  0  0  0  0  0  0  0
    3.0617  -31.6109   22.1884 H   0  0  0  0  0  0  0  0  0  0  0  0
    2.6500  -30.1104   22.9941 H   0  0  0  0  0  0  0  0  0  0  0  0
    5.8967  -33.4009   23.0098 H   0  0  0  0  0  0  0  0  0  0  0  0
    5.0186  -32.9273   21.5161 H   0  0  0  0  0  0  0  0  0  0  0  0
    6.8131  -33.0067   21.5161 H   0  0  0  0  0  0  0  0  0  0  0  0
    7.3869  -28.4304   23.0362 H   0  0  0  0  0  0  0  0  0  0  0  0
   -0.9775  -37.7073   26.4787 H   0  0  0  0  0  0  0  0  0  0  0  0
   -1.3701  -36.2761   27.5147 H   0  0  0  0  0  0  0  0  0  0  0  0
   -0.4554  -37.2136   29.3635 H   0  0  0  0  0  0  0  0  0  0  0  0
   -0.5784  -38.7606   28.4588 H   0  0  0  0  0  0  0  0  0  0  0  0
    0.9643  -37.8403   28.4588 H   0  0  0  0  0  0  0  0  0  0  0  0
    4.1243  -31.7295   32.0505 H   0  0  0  0  0  0  0  0  0  0  0  0
    4.0707  -30.6671   30.9161 H   0  0  0  0  0  0  0  0  0  0  0  0
    6.7030  -29.9069   31.7352 H   0  0  0  0  0  0  0  0  0  0  0  0
    6.6440  -30.7840   33.0179 H   0  0  0  0  0  0  0  0  0  0  0  0
   10.0943  -32.4255   26.7023 H   0  0  0  0  0  0  0  0  0  0  0  0
    8.4799  -32.6937   31.3417 H   0  0  0  0  0  0  0  0  0  0  0  0
    5.4076  -33.9590   29.5992 H   0  0  0  0  0  0  0  0  0  0  0  0
    5.9398  -34.1419   27.8942 H   0  0  0  0  0  0  0  0  0  0  0  0
    6.6868  -30.4860   29.5200 H   0  0  0  0  0  0  0  0  0  0  0  0
    3.5532  -34.7486   28.0488 H   0  0  0  0  0  0  0  0  0  0  0  0
    3.1732  -33.2022   28.8721 H   0  0  0  0  0  0  0  0  0  0  0  0
    2.0752  -33.2277   23.7782 H   0  0  0  0  0  0  0  0  0  0  0  0
    4.8610  -30.2443   25.1568 H   0  0  0  0  0  0  0  0  0  0  0  0
    4.8130  -28.2764   23.6202 H   0  0  0  0  0  0  0  0  0  0  0  0
    0.3915  -34.1819   27.3819 H   0  0  0  0  0  0  0  0  0  0  0  0
    6.3977  -33.0185   30.9297 H   0  0  0  0  0  0  0  0  0  0  0  0
   11.5782  -33.4070   28.4439 H   0  0  0  0  0  0  0  0  0  0  0  0
   10.5847  -33.4328   32.1099 H   0  0  0  0  0  0  0  0  0  0  0  0
   11.0089  -34.8102   31.0377 H   0  0  0  0  0  0  0  0  0  0  0  0
   12.0220  -33.3269   31.0377 H   0  0  0  0  0  0  0  0  0  0  0  0
  1 19  1  0
  1 36  1  0
  2 21  1  0
  3 22  2  0
  3 35  1  0
  4 23  1  0
  4 31  1  1
  4 32  1  0
  4 33  1  0
  5  6  1  0
  5 38  1  0
  7  8  1  0
 26  7  1  0
  8 26  1  0
  9 27  2  0
  9 39  1  0
 10 28  1  0
 10 29  2  0
 11 16  1  0
 11 34  1  0
 12 26  1  0
 12 28  1  0
 12 34  1  0
 13 14  1  0
 13 34  1  0
 13 40  2  0
 14 15  2  0
 14 20  1  0
 15 16  1  0
 15 17  1  0
 17 18  2  0
 17 24  1  0
 18 19  1  0
 19 20  2  0
 21 35  2  0
 21 36  1  0
 22 36  1  0
 23 24  1  0
 23 37  2  0
 24 25  2  0
 25 38  1  0
 27 29  1  0
 28 39  2  0
 29 30  1  0
 37 38  1  0
  1 41  1  0
  1 42  1  0
  2 43  1  0
  2 44  1  0
  2 45  1  0
  3 46  1  0
  5 47  1  0
  5 48  1  0
  6 49  1  0
  6 50  1  0
  6 51  1  0
  7 52  1  0
  7 53  1  0
  8 54  1  0
  8 55  1  0
  9 56  1  0
 10 57  1  0
 11 58  1  0
 11 59  1  0
 12 60  1  1
 16 61  1  0
 16 62  1  0
 18 63  1  0
 20 64  1  0
 22 65  1  0
 25 66  1  0
 26 67  1  1
 27 68  1  0
 30 69  1  0
 30 70  1  0
 30 71  1  0
M  END
>  <filename_input>  (7) 
7UAS_MBU_docked.sdf

>  <pdb_id>  (7) 
7UAS_MBU

>  <pose_rank>  (7) 
6

>  <num_atoms_heavy>  (7) 
40

>  <num_torsions>  (7) 
8

>  <pose>  (7) 
[5.299564447001541, -33.56502992566598, 28.577855411763785, 2.1197763926643676, -5.574111444339746, -0.29706306981481495, 2.8714808675900136, -0.6487614675254599, -2.16598503521804, -0.8996015109632503, -2.771197053132465, 6.330813911284921, -2.918464124835351, 0.14670676255922793]

>  <energy>  (7) 
-803.0892021590364

>  <inter_energy>  (7) 
-841.1511996416164

>  <intra_energy>  (7) 
41.9415965999504

>  <rmsd>  (7) 
2.68731

>  <sdf_rank>  (7) 
0

$$$$

     RDKit          3D

 71 76  0  0  0  0  0  0  0  0999 V2000
    5.3564  -37.8630   28.4499 C   0  0  0  0  0  0  0  0  0  0  0  0
    5.4413  -38.4403   31.6499 C   0  0  0  0  0  0  0  0  0  0  0  0
    2.2107  -39.0140   29.9933 C   0  0  0  0  0  0  0  0  0  0  0  0
    8.1714  -32.5040   29.6018 C   0  0  2  0  0  0  0  0  0  0  0  0
    5.4185  -31.3809   33.4873 C   0  0  0  0  0  0  0  0  0  0  0  0
    4.0646  -31.8467   34.0288 C   0  0  0  0  0  0  0  0  0  0  0  0
    2.3152  -31.0823   25.4317 C   0  0  0  0  0  0  0  0  0  0  0  0
    1.7263  -31.4010   24.0728 C   0  0  0  0  0  0  0  0  0  0  0  0
    7.1737  -32.2563   21.7750 C   0  0  0  0  0  0  0  0  0  0  0  0
    5.9194  -30.3497   23.2548 C   0  0  0  0  0  0  0  0  0  0  0  0
    5.3646  -31.7751   26.2725 C   0  0  0  0  0  0  0  0  0  0  0  0
    4.1916  -32.1122   23.9886 C   0  0  1  0  0  0  0  0  0  0  0  0
    4.3020  -33.9223   25.6231 C   0  0  0  0  0  0  0  0  0  0  0  0
    4.7186  -34.4508   26.9263 C   0  0  0  0  0  0  0  0  0  0  0  0
    5.0334  -33.5772   27.9699 C   0  0  0  0  0  0  0  0  0  0  0  0
    4.9062  -32.0794   27.7145 C   0  0  0  0  0  0  0  0  0  0  0  0
    5.4684  -34.0739   29.2072 C   0  0  0  0  0  0  0  0  0  0  0  0
    5.5468  -35.4756   29.3463 C   0  0  0  0  0  0  0  0  0  0  0  0
    5.2318  -36.3497   28.2987 C   0  0  0  0  0  0  0  0  0  0  0  0
    4.8156  -35.8247   27.0830 C   0  0  0  0  0  0  0  0  0  0  0  0
    4.2482  -38.6417   30.7569 C   0  0  0  0  0  0  0  0  0  0  0  0
    2.8377  -38.6537   28.8589 C   0  0  0  0  0  0  0  0  0  0  0  0
    6.9675  -32.5004   30.5541 C   0  0  0  0  0  0  0  0  0  0  0  0
    5.7707  -33.2098   30.3559 C   0  0  0  0  0  0  0  0  0  0  0  0
    5.0062  -32.8894   31.4463 C   0  0  0  0  0  0  0  0  0  0  0  0
    3.1649  -30.9730   24.1939 C   0  0  2  0  0  0  0  0  0  0  0  0
    7.6908  -30.9575   21.7943 C   0  0  0  0  0  0  0  0  0  0  0  0
    5.4447  -31.6611   23.2126 C   0  0  0  0  0  0  0  0  0  0  0  0
    7.0541  -29.9770   22.5481 C   0  0  0  0  0  0  0  0  0  0  0  0
    7.5697  -28.5547   22.6088 C   0  0  0  0  0  0  0  0  0  0  0  0
    8.1825  -31.3276   28.9668 F   0  0  0  0  0  0  0  0  0  0  0  0
    8.1431  -33.5301   28.7054 F   0  0  0  0  0  0  0  0  0  0  0  0
    9.2997  -32.6822   30.3033 F   0  0  0  0  0  0  0  0  0  0  0  0
    4.6070  -32.6224   25.3290 N   0  0  0  0  0  0  0  0  0  0  0  0
    3.0848  -38.9909   31.1149 N   0  0  0  0  0  0  0  0  0  0  0  0
    4.1941  -38.2163   29.3306 N   0  0  0  0  0  0  0  0  0  0  0  0
    6.9374  -31.8031   31.6651 N   0  0  0  0  0  0  0  0  0  0  0  0
    5.7433  -32.0466   32.2184 N   0  0  0  0  0  0  0  0  0  0  0  0
    6.0720  -32.5837   22.4730 N   0  0  0  0  0  0  0  0  0  0  0  0
    3.6907  -34.6012   24.7963 O   0  0  0  0  0  0  0  0  0  0  0  0
    5.2789  -38.3647   27.4741 H   0  0  0  0  0  0  0  0  0  0  0  0
    6.3248  -38.1765   28.8672 H   0  0  0  0  0  0  0  0  0  0  0  0
    5.1250  -38.4937   32.7021 H   0  0  0  0  0  0  0  0  0  0  0  0
    6.1853  -39.2255   31.4504 H   0  0  0  0  0  0  0  0  0  0  0  0
    5.8863  -37.4543   31.4504 H   0  0  0  0  0  0  0  0  0  0  0  0
    1.1481  -39.2933   30.0470 H   0  0  0  0  0  0  0  0  0  0  0  0
    5.3840  -30.2938   33.3232 H   0  0  0  0  0  0  0  0  0  0  0  0
    6.1942  -31.6388   34.2233 H   0  0  0  0  0  0  0  0  0  0  0  0
    4.0871  -31.8390   35.1286 H   0  0  0  0  0  0  0  0  0  0  0  0
    3.2746  -31.1687   33.6735 H   0  0  0  0  0  0  0  0  0  0  0  0
    3.8590  -32.8673   33.6735 H   0  0  0  0  0  0  0  0  0  0  0  0
    2.0034  -30.1736   25.9675 H   0  0  0  0  0  0  0  0  0  0  0  0
    2.3989  -31.6173   26.3892 H   0  0  0  0  0  0  0  0  0  0  0  0
    1.4814  -32.4404   23.8088 H   0  0  0  0  0  0  0  0  0  0  0  0
    0.8549  -31.0511   23.4998 H   0  0  0  0  0  0  0  0  0  0  0  0
    7.6793  -33.0276   21.1755 H   0  0  0  0  0  0  0  0  0  0  0  0
    5.3860  -29.5997   23.8574 H   0  0  0  0  0  0  0  0  0  0  0  0
    5.1793  -30.7151   26.0442 H   0  0  0  0  0  0  0  0  0  0  0  0
    6.4396  -31.9871   26.1757 H   0  0  0  0  0  0  0  0  0  0  0  0
    3.7045  -32.8949   23.3885 H   0  0  0  0  0  0  0  0  0  0  0  0
    5.5386  -31.5288   28.4265 H   0  0  0  0  0  0  0  0  0  0  0  0
    3.8595  -31.7675   27.8456 H   0  0  0  0  0  0  0  0  0  0  0  0
    5.8664  -35.8964   30.3111 H   0  0  0  0  0  0  0  0  0  0  0  0
    4.5641  -36.4955   26.2482 H   0  0  0  0  0  0  0  0  0  0  0  0
    2.4489  -38.6746   27.8301 H   0  0  0  0  0  0  0  0  0  0  0  0
    3.9875  -33.2466   31.6578 H   0  0  0  0  0  0  0  0  0  0  0  0
    3.7861  -30.1800   23.7520 H   0  0  0  0  0  0  0  0  0  0  0  0
    8.5948  -30.7127   21.2174 H   0  0  0  0  0  0  0  0  0  0  0  0
    7.6803  -28.2493   23.6598 H   0  0  0  0  0  0  0  0  0  0  0  0
    8.5460  -28.4968   22.1054 H   0  0  0  0  0  0  0  0  0  0  0  0
    6.8572  -27.8846   22.1054 H   0  0  0  0  0  0  0  0  0  0  0  0
  1 19  1  0
  1 36  1  0
  2 21  1  0
  3 22  2  0
  3 35  1  0
  4 23  1  0
  4 31  1  6
  4 32  1  0
  4 33  1  0
  5  6  1  0
  5 38  1  0
  7  8  1  0
 26  7  1  0
  8 26  1  0
  9 27  2  0
  9 39  1  0
 10 28  1  0
 10 29  2  0
 11 16  1  0
 11 34  1  0
 12 26  1  0
 12 28  1  0
 12 34  1  0
 13 14  1  0
 13 34  1  0
 13 40  2  0
 14 15  2  0
 14 20  1  0
 15 16  1  0
 15 17  1  0
 17 18  2  0
 17 24  1  0
 18 19  1  0
 19 20  2  0
 21 35  2  0
 21 36  1  0
 22 36  1  0
 23 24  1  0
 23 37  2  0
 24 25  2  0
 25 38  1  0
 27 29  1  0
 28 39  2  0
 29 30  1  0
 37 38  1  0
  1 41  1  0
  1 42  1  0
  2 43  1  0
  2 44  1  0
  2 45  1  0
  3 46  1  0
  5 47  1  0
  5 48  1  0
  6 49  1  0
  6 50  1  0
  6 51  1  0
  7 52  1  0
  7 53  1  0
  8 54  1  0
  8 55  1  0
  9 56  1  0
 10 57  1  0
 11 58  1  0
 11 59  1  0
 12 60  1  6
 16 61  1  0
 16 62  1  0
 18 63  1  0
 20 64  1  0
 22 65  1  0
 25 66  1  0
 26 67  1  6
 27 68  1  0
 30 69  1  0
 30 70  1  0
 30 71  1  0
M  END
>  <filename_input>  (8) 
7UAS_MBU_docked.sdf

>  <pdb_id>  (8) 
7UAS_MBU

>  <pose_rank>  (8) 
7

>  <num_atoms_heavy>  (8) 
40

>  <num_torsions>  (8) 
8

>  <pose>  (8) 
[5.364569026334349, -31.775132377091694, 26.272513780183722, 3.3902376434049404, -1.0252770371835498, -1.3370212408856235, 3.3535281155358425, 0.42508777269906206, -0.39447589271320554, -3.4293101656064113, 0.4653296204448366, -0.20729340390022938, -2.2126602919216887, 0.8846395395404141]

>  <energy>  (8) 
-696.8518980045454

>  <inter_energy>  (8) 
-730.408953583435

>  <intra_energy>  (8) 
35.212722638388286

>  <rmsd>  (8) 
8.44783

>  <sdf_rank>  (8) 
0

$$$$

     RDKit          3D

 71 76  0  0  0  0  0  0  0  0999 V2000
    4.0764  -32.4862   29.8662 C   0  0  0  0  0  0  0  0  0  0  0  0
    4.5603  -35.0132   31.8562 C   0  0  0  0  0  0  0  0  0  0  0  0
    1.0892  -34.4417   30.7908 C   0  0  0  0  0  0  0  0  0  0  0  0
    0.1328  -34.6034   26.1222 C   0  0  2  0  0  0  0  0  0  0  0  0
    1.9906  -39.0295   25.1768 C   0  0  0  0  0  0  0  0  0  0  0  0
    0.7420  -39.7283   25.7207 C   0  0  0  0  0  0  0  0  0  0  0  0
    5.3779  -27.9429   22.7260 C   0  0  0  0  0  0  0  0  0  0  0  0
    6.7659  -28.3841   23.1429 C   0  0  0  0  0  0  0  0  0  0  0  0
    7.8600  -33.0396   21.7659 C   0  0  0  0  0  0  0  0  0  0  0  0
    7.8028  -30.3372   22.0697 C   0  0  0  0  0  0  0  0  0  0  0  0
    3.6676  -32.4006   23.4142 C   0  0  0  0  0  0  0  0  0  0  0  0
    5.3656  -30.5197   22.8803 C   0  0  1  0  0  0  0  0  0  0  0  0
    5.1541  -31.4163   25.1412 C   0  0  0  0  0  0  0  0  0  0  0  0
    4.5346  -32.3307   26.1063 C   0  0  0  0  0  0  0  0  0  0  0  0
    3.8658  -33.4733   25.6611 C   0  0  0  0  0  0  0  0  0  0  0  0
    3.8259  -33.7422   24.1607 C   0  0  0  0  0  0  0  0  0  0  0  0
    3.2389  -34.3326   26.5751 C   0  0  0  0  0  0  0  0  0  0  0  0
    3.3381  -34.0007   27.9426 C   0  0  0  0  0  0  0  0  0  0  0  0
    4.0082  -32.8541   28.3870 C   0  0  0  0  0  0  0  0  0  0  0  0
    4.6078  -32.0185   27.4550 C   0  0  0  0  0  0  0  0  0  0  0  0
    3.2395  -34.6104   31.2606 C   0  0  0  0  0  0  0  0  0  0  0  0
    1.5795  -33.4123   30.0768 C   0  0  0  0  0  0  0  0  0  0  0  0
    1.1774  -35.7171   25.9660 C   0  0  0  0  0  0  0  0  0  0  0  0
    2.5597  -35.5717   26.1736 C   0  0  0  0  0  0  0  0  0  0  0  0
    3.0717  -36.8136   25.9061 C   0  0  0  0  0  0  0  0  0  0  0  0
    5.5566  -29.1601   23.5936 C   0  0  2  0  0  0  0  0  0  0  0  0
    9.0035  -32.2944   21.4629 C   0  0  0  0  0  0  0  0  0  0  0  0
    6.6886  -31.1224   22.3681 C   0  0  0  0  0  0  0  0  0  0  0  0
    8.9813  -30.9118   21.6150 C   0  0  0  0  0  0  0  0  0  0  0  0
   10.1897  -30.0539   21.3049 C   0  0  0  0  0  0  0  0  0  0  0  0
    0.3440  -33.7167   25.1442 F   0  0  0  0  0  0  0  0  0  0  0  0
    0.1789  -33.9917   27.3392 F   0  0  0  0  0  0  0  0  0  0  0  0
   -1.0987  -35.1263   26.0391 F   0  0  0  0  0  0  0  0  0  0  0  0
    4.7360  -31.4740   23.8408 N   0  0  0  0  0  0  0  0  0  0  0  0
    2.1116  -35.1366   31.4939 N   0  0  0  0  0  0  0  0  0  0  0  0
    3.0231  -33.3573   30.4851 N   0  0  0  0  0  0  0  0  0  0  0  0
    0.8700  -36.9387   25.5991 N   0  0  0  0  0  0  0  0  0  0  0  0
    2.0248  -37.6147   25.5711 N   0  0  0  0  0  0  0  0  0  0  0  0
    6.7342  -32.4503   22.2056 N   0  0  0  0  0  0  0  0  0  0  0  0
    6.0304  -30.6103   25.4587 O   0  0  0  0  0  0  0  0  0  0  0  0
    5.0692  -32.7109   30.2832 H   0  0  0  0  0  0  0  0  0  0  0  0
    3.9137  -31.4143   30.0521 H   0  0  0  0  0  0  0  0  0  0  0  0
    4.4894  -34.9916   32.9537 H   0  0  0  0  0  0  0  0  0  0  0  0
    4.8167  -36.0304   31.5253 H   0  0  0  0  0  0  0  0  0  0  0  0
    5.3408  -34.3123   31.5253 H   0  0  0  0  0  0  0  0  0  0  0  0
    0.0239  -34.7137   30.8265 H   0  0  0  0  0  0  0  0  0  0  0  0
    2.8845  -39.5337   25.5727 H   0  0  0  0  0  0  0  0  0  0  0  0
    1.9680  -39.0835   24.0783 H   0  0  0  0  0  0  0  0  0  0  0  0
    0.7645  -39.7156   26.8204 H   0  0  0  0  0  0  0  0  0  0  0  0
   -0.1565  -39.2018   25.3663 H   0  0  0  0  0  0  0  0  0  0  0  0
    0.7206  -40.7694   25.3663 H   0  0  0  0  0  0  0  0  0  0  0  0
    4.9420  -27.0253   23.1480 H   0  0  0  0  0  0  0  0  0  0  0  0
    4.8816  -27.7365   21.7663 H   0  0  0  0  0  0  0  0  0  0  0  0
    7.4524  -28.8168   22.4002 H   0  0  0  0  0  0  0  0  0  0  0  0
    7.6168  -27.9045   23.6488 H   0  0  0  0  0  0  0  0  0  0  0  0
    7.8817  -34.1323   21.6416 H   0  0  0  0  0  0  0  0  0  0  0  0
    7.7461  -29.2460   22.1967 H   0  0  0  0  0  0  0  0  0  0  0  0
    3.7419  -32.5725   22.3303 H   0  0  0  0  0  0  0  0  0  0  0  0
    2.6860  -31.9629   23.6482 H   0  0  0  0  0  0  0  0  0  0  0  0
    4.7275  -30.3473   22.0010 H   0  0  0  0  0  0  0  0  0  0  0  0
    2.9743  -34.3976   23.9259 H   0  0  0  0  0  0  0  0  0  0  0  0
    4.7578  -34.2348   23.8464 H   0  0  0  0  0  0  0  0  0  0  0  0
    2.8731  -34.6654   28.6855 H   0  0  0  0  0  0  0  0  0  0  0  0
    5.1384  -31.1131   27.7848 H   0  0  0  0  0  0  0  0  0  0  0  0
    1.0488  -32.7647   29.3634 H   0  0  0  0  0  0  0  0  0  0  0  0
    4.1306  -37.1078   25.9533 H   0  0  0  0  0  0  0  0  0  0  0  0
    5.1497  -29.4830   24.5632 H   0  0  0  0  0  0  0  0  0  0  0  0
    9.9144  -32.7979   21.1068 H   0  0  0  0  0  0  0  0  0  0  0  0
   10.6556  -29.7232   22.2449 H   0  0  0  0  0  0  0  0  0  0  0  0
   10.9157  -30.6400   20.7222 H   0  0  0  0  0  0  0  0  0  0  0  0
    9.8758  -29.1753   20.7222 H   0  0  0  0  0  0  0  0  0  0  0  0
  1 19  1  0
  1 36  1  0
  2 21  1  0
  3 22  2  0
  3 35  1  0
  4 23  1  0
  4 31  1  6
  4 32  1  0
  4 33  1  0
  5  6  1  0
  5 38  1  0
  7  8  1  0
 26  7  1  0
  8 26  1  0
  9 27  2  0
  9 39  1  0
 10 28  1  0
 10 29  2  0
 11 16  1  0
 11 34  1  0
 12 26  1  0
 12 28  1  0
 12 34  1  0
 13 14  1  0
 13 34  1  0
 13 40  2  0
 14 15  2  0
 14 20  1  0
 15 16  1  0
 15 17  1  0
 17 18  2  0
 17 24  1  0
 18 19  1  0
 19 20  2  0
 21 35  2  0
 21 36  1  0
 22 36  1  0
 23 24  1  0
 23 37  2  0
 24 25  2  0
 25 38  1  0
 27 29  1  0
 28 39  2  0
 29 30  1  0
 37 38  1  0
  1 41  1  0
  1 42  1  0
  2 43  1  0
  2 44  1  0
  2 45  1  0
  3 46  1  0
  5 47  1  0
  5 48  1  0
  6 49  1  0
  6 50  1  0
  6 51  1  0
  7 52  1  0
  7 53  1  0
  8 54  1  0
  8 55  1  0
  9 56  1  0
 10 57  1  0
 11 58  1  0
 11 59  1  0
 12 60  1  6
 16 61  1  0
 16 62  1  0
 18 63  1  0
 20 64  1  0
 22 65  1  0
 25 66  1  0
 26 67  1  1
 27 68  1  0
 30 69  1  0
 30 70  1  0
 30 71  1  0
M  END
>  <filename_input>  (9) 
7UAS_MBU_docked.sdf

>  <pdb_id>  (9) 
7UAS_MBU

>  <pose_rank>  (9) 
8

>  <num_atoms_heavy>  (9) 
40

>  <num_torsions>  (9) 
8

>  <pose>  (9) 
[3.6676488285125597, -32.40058436554986, 23.414212703970477, 1.523243421137857, 2.38231121258235, 0.5841804414879054, 3.063325560565128, -0.23072063953085387, 2.0211095439385613, 1.3183616424164766, -2.1359181262468687, -2.9204255578205163, 3.1292985012337806, -1.1238366020957407]

>  <energy>  (9) 
-649.4070065623187

>  <inter_energy>  (9) 
-805.1662639443574

>  <intra_energy>  (9) 
154.6985649556152

>  <rmsd>  (9) 
6.72418

>  <sdf_rank>  (9) 
0

$$$$

     RDKit          3D

 71 76  0  0  0  0  0  0  0  0999 V2000
    3.6216  -36.4326   33.4760 C   0  0  0  0  0  0  0  0  0  0  0  0
    2.0466  -37.7103   36.0190 C   0  0  0  0  0  0  0  0  0  0  0  0
    2.3699  -39.8778   33.0681 C   0  0  0  0  0  0  0  0  0  0  0  0
    2.2827  -31.7711   28.7802 C   0  0  2  0  0  0  0  0  0  0  0  0
    7.1373  -31.5877   28.2011 C   0  0  0  0  0  0  0  0  0  0  0  0
    7.9258  -32.5977   27.3635 C   0  0  0  0  0  0  0  0  0  0  0  0
   -3.3497  -37.1358   29.9180 C   0  0  0  0  0  0  0  0  0  0  0  0
   -4.0433  -36.2431   28.9096 C   0  0  0  0  0  0  0  0  0  0  0  0
   -2.7232  -33.8424   25.7217 C   0  0  0  0  0  0  0  0  0  0  0  0
   -1.5342  -36.2881   25.6661 C   0  0  0  0  0  0  0  0  0  0  0  0
    0.7641  -35.2811   27.7917 C   0  0  0  0  0  0  0  0  0  0  0  0
   -1.5659  -36.3181   28.2407 C   0  0  1  0  0  0  0  0  0  0  0  0
    0.0570  -36.0470   30.0444 C   0  0  0  0  0  0  0  0  0  0  0  0
    1.3731  -35.6228   30.5332 C   0  0  0  0  0  0  0  0  0  0  0  0
    2.1322  -34.7070   29.8009 C   0  0  0  0  0  0  0  0  0  0  0  0
    1.5401  -34.1559   28.5084 C   0  0  0  0  0  0  0  0  0  0  0  0
    3.4073  -34.3251   30.2426 C   0  0  0  0  0  0  0  0  0  0  0  0
    3.8634  -34.8858   31.4541 C   0  0  0  0  0  0  0  0  0  0  0  0
    3.1014  -35.8046   32.1863 C   0  0  0  0  0  0  0  0  0  0  0  0
    1.8482  -36.1703   31.7149 C   0  0  0  0  0  0  0  0  0  0  0  0
    2.3350  -38.4185   34.7241 C   0  0  0  0  0  0  0  0  0  0  0  0
    3.0467  -38.8567   32.5119 C   0  0  0  0  0  0  0  0  0  0  0  0
    3.7563  -32.1881   28.8828 C   0  0  0  0  0  0  0  0  0  0  0  0
    4.2342  -33.3336   29.5419 C   0  0  0  0  0  0  0  0  0  0  0  0
    5.5925  -33.2741   29.3760 C   0  0  0  0  0  0  0  0  0  0  0  0
   -2.6205  -35.9644   29.3162 C   0  0  2  0  0  0  0  0  0  0  0  0
   -2.4249  -34.4283   24.4879 C   0  0  0  0  0  0  0  0  0  0  0  0
   -1.8585  -35.6688   26.8737 C   0  0  0  0  0  0  0  0  0  0  0  0
   -1.8159  -35.6785   24.4517 C   0  0  0  0  0  0  0  0  0  0  0  0
   -1.4717  -36.3627   23.1456 C   0  0  0  0  0  0  0  0  0  0  0  0
    2.2217  -30.4565   29.0157 F   0  0  0  0  0  0  0  0  0  0  0  0
    1.4724  -32.4484   29.6414 F   0  0  0  0  0  0  0  0  0  0  0  0
    1.8165  -32.0624   27.5576 F   0  0  0  0  0  0  0  0  0  0  0  0
   -0.2282  -35.8598   28.7204 N   0  0  0  0  0  0  0  0  0  0  0  0
    1.9522  -39.5797   34.3945 N   0  0  0  0  0  0  0  0  0  0  0  0
    2.9142  -37.7550   33.5230 N   0  0  0  0  0  0  0  0  0  0  0  0
    4.7354  -31.4862   28.3632 N   0  0  0  0  0  0  0  0  0  0  0  0
    5.8590  -32.1526   28.6542 N   0  0  0  0  0  0  0  0  0  0  0  0
   -2.4374  -34.4618   26.8804 N   0  0  0  0  0  0  0  0  0  0  0  0
   -0.7910  -36.5569   30.7786 O   0  0  0  0  0  0  0  0  0  0  0  0
    4.7123  -36.5699   33.4360 H   0  0  0  0  0  0  0  0  0  0  0  0
    3.4345  -35.8114   34.3644 H   0  0  0  0  0  0  0  0  0  0  0  0
    2.3131  -38.3647   36.8621 H   0  0  0  0  0  0  0  0  0  0  0  0
    2.6396  -36.7853   36.0710 H   0  0  0  0  0  0  0  0  0  0  0  0
    0.9760  -37.4630   36.0710 H   0  0  0  0  0  0  0  0  0  0  0  0
    2.1640  -40.8301   32.5576 H   0  0  0  0  0  0  0  0  0  0  0  0
    7.7361  -31.3058   29.0797 H   0  0  0  0  0  0  0  0  0  0  0  0
    6.9260  -30.7077   27.5757 H   0  0  0  0  0  0  0  0  0  0  0  0
    8.4638  -33.2869   28.0309 H   0  0  0  0  0  0  0  0  0  0  0  0
    7.2321  -33.1686   26.7288 H   0  0  0  0  0  0  0  0  0  0  0  0
    8.6480  -32.0633   26.7288 H   0  0  0  0  0  0  0  0  0  0  0  0
   -3.6528  -37.1114   30.9752 H   0  0  0  0  0  0  0  0  0  0  0  0
   -3.1561  -38.2156   29.9992 H   0  0  0  0  0  0  0  0  0  0  0  0
   -4.2636  -36.6204   27.9000 H   0  0  0  0  0  0  0  0  0  0  0  0
   -4.9776  -35.6626   28.8956 H   0  0  0  0  0  0  0  0  0  0  0  0
   -3.2025  -32.8526   25.7451 H   0  0  0  0  0  0  0  0  0  0  0  0
   -1.0477  -37.2746   25.6770 H   0  0  0  0  0  0  0  0  0  0  0  0
    0.2474  -34.8685   26.9126 H   0  0  0  0  0  0  0  0  0  0  0  0
    1.4660  -36.0641   27.4687 H   0  0  0  0  0  0  0  0  0  0  0  0
   -1.5937  -37.4078   28.0932 H   0  0  0  0  0  0  0  0  0  0  0  0
    2.3492  -33.7932   27.8573 H   0  0  0  0  0  0  0  0  0  0  0  0
    0.8598  -33.3223   28.7369 H   0  0  0  0  0  0  0  0  0  0  0  0
    4.8517  -34.5912   31.8367 H   0  0  0  0  0  0  0  0  0  0  0  0
    1.2351  -36.8909   32.2761 H   0  0  0  0  0  0  0  0  0  0  0  0
    3.5722  -38.8344   31.5459 H   0  0  0  0  0  0  0  0  0  0  0  0
    6.3293  -33.9974   29.7553 H   0  0  0  0  0  0  0  0  0  0  0  0
   -2.0780  -35.0998   29.7263 H   0  0  0  0  0  0  0  0  0  0  0  0
   -2.6699  -33.9043   23.5522 H   0  0  0  0  0  0  0  0  0  0  0  0
   -0.9862  -37.3275   23.3539 H   0  0  0  0  0  0  0  0  0  0  0  0
   -2.3917  -36.5324   22.5670 H   0  0  0  0  0  0  0  0  0  0  0  0
   -0.7871  -35.7251   22.5670 H   0  0  0  0  0  0  0  0  0  0  0  0
  1 19  1  0
  1 36  1  0
  2 21  1  0
  3 22  2  0
  3 35  1  0
  4 23  1  0
  4 31  1  1
  4 32  1  0
  4 33  1  0
  5  6  1  0
  5 38  1  0
  7  8  1  0
 26  7  1  0
  8 26  1  0
  9 27  2  0
  9 39  1  0
 10 28  1  0
 10 29  2  0
 11 16  1  0
 11 34  1  0
 12 26  1  0
 12 28  1  0
 12 34  1  0
 13 14  1  0
 13 34  1  0
 13 40  2  0
 14 15  2  0
 14 20  1  0
 15 16  1  0
 15 17  1  0
 17 18  2  0
 17 24  1  0
 18 19  1  0
 19 20  2  0
 21 35  2  0
 21 36  1  0
 22 36  1  0
 23 24  1  0
 23 37  2  0
 24 25  2  0
 25 38  1  0
 27 29  1  0
 28 39  2  0
 29 30  1  0
 37 38  1  0
  1 41  1  0
  1 42  1  0
  2 43  1  0
  2 44  1  0
  2 45  1  0
  3 46  1  0
  5 47  1  0
  5 48  1  0
  6 49  1  0
  6 50  1  0
  6 51  1  0
  7 52  1  0
  7 53  1  0
  8 54  1  0
  8 55  1  0
  9 56  1  0
 10 57  1  0
 11 58  1  0
 11 59  1  0
 12 60  1  6
 16 61  1  0
 16 62  1  0
 18 63  1  0
 20 64  1  0
 22 65  1  0
 25 66  1  0
 26 67  1  1
 27 68  1  0
 30 69  1  0
 30 70  1  0
 30 71  1  0
M  END
>  <filename_input>  (10) 
7UAS_MBU_docked.sdf

>  <pdb_id>  (10) 
7UAS_MBU

>  <pose_rank>  (10) 
9

>  <num_atoms_heavy>  (10) 
40

>  <num_torsions>  (10) 
8

>  <pose>  (10) 
[0.7640922323703977, -35.281135787235485, 27.79170442678337, -6.6401012599434885, 6.091871003257485, 4.21797629940443, 17.956688418051815, -5.326998996358679, 0.4940818784488706, 5.204935244242964, 6.196430161584749, 17.308548613430304, 0.9990796643351711, 11.905177107621704]

>  <energy>  (10) 
348.18048687311045

>  <inter_energy>  (10) 
28.61045437609208

>  <intra_energy>  (10) 
319.8106024169917

>  <rmsd>  (10) 
10.0488

>  <sdf_rank>  (10) 
0

$$$$

     RDKit          3D

 71 76  0  0  0  0  0  0  0  0999 V2000
    4.2581  -30.3564   22.9631 C   0  0  0  0  0  0  0  0  0  0  0  0
    5.0899  -31.4040   19.9982 C   0  0  0  0  0  0  0  0  0  0  0  0
    7.8630  -30.8235   22.3397 C   0  0  0  0  0  0  0  0  0  0  0  0
    4.8713  -36.1435   25.8432 C   0  0  2  0  0  0  0  0  0  0  0  0
    0.0590  -36.8582   25.3263 C   0  0  0  0  0  0  0  0  0  0  0  0
   -0.2439  -37.5269   26.6696 C   0  0  0  0  0  0  0  0  0  0  0  0
    6.7075  -30.5062   31.9695 C   0  0  0  0  0  0  0  0  0  0  0  0
    5.5411  -31.4381   31.7126 C   0  0  0  0  0  0  0  0  0  0  0  0
    9.5673  -34.0295   30.9635 C   0  0  0  0  0  0  0  0  0  0  0  0
    6.8694  -33.7169   31.1119 C   0  0  0  0  0  0  0  0  0  0  0  0
    5.9020  -33.5098   28.3628 C   0  0  0  0  0  0  0  0  0  0  0  0
    7.0747  -31.6000   29.6603 C   0  0  1  0  0  0  0  0  0  0  0  0
    5.8515  -31.1496   27.5959 C   0  0  0  0  0  0  0  0  0  0  0  0
    5.0495  -31.6029   26.4547 C   0  0  0  0  0  0  0  0  0  0  0  0
    4.3694  -32.8215   26.5146 C   0  0  0  0  0  0  0  0  0  0  0  0
    4.4709  -33.6372   27.7989 C   0  0  0  0  0  0  0  0  0  0  0  0
    3.6309  -33.2793   25.4138 C   0  0  0  0  0  0  0  0  0  0  0  0
    3.5930  -32.4489   24.2740 C   0  0  0  0  0  0  0  0  0  0  0  0
    4.2764  -31.2280   24.2154 C   0  0  0  0  0  0  0  0  0  0  0  0
    5.0077  -30.8098   25.3185 C   0  0  0  0  0  0  0  0  0  0  0  0
    6.0433  -31.1379   21.1303 C   0  0  0  0  0  0  0  0  0  0  0  0
    6.9131  -30.4830   23.2296 C   0  0  0  0  0  0  0  0  0  0  0  0
    3.3884  -35.8163   25.6202 C   0  0  0  0  0  0  0  0  0  0  0  0
    2.8583  -34.5285   25.4310 C   0  0  0  0  0  0  0  0  0  0  0  0
    1.5122  -34.7374   25.2883 C   0  0  0  0  0  0  0  0  0  0  0  0
    6.1947  -30.7089   30.5688 C   0  0  2  0  0  0  0  0  0  0  0  0
    8.8109  -34.9606   31.6814 C   0  0  0  0  0  0  0  0  0  0  0  0
    7.6637  -32.8177   30.3993 C   0  0  0  0  0  0  0  0  0  0  0  0
    7.4307  -34.8067   31.7624 C   0  0  0  0  0  0  0  0  0  0  0  0
    6.5604  -35.7844   32.5234 C   0  0  0  0  0  0  0  0  0  0  0  0
    5.0077  -36.5359   27.1139 F   0  0  0  0  0  0  0  0  0  0  0  0
    5.6982  -35.0936   25.5765 F   0  0  0  0  0  0  0  0  0  0  0  0
    5.2507  -37.1121   24.9977 F   0  0  0  0  0  0  0  0  0  0  0  0
    6.2415  -32.0805   28.5181 N   0  0  0  0  0  0  0  0  0  0  0  0
    7.3070  -31.2063   21.0880 N   0  0  0  0  0  0  0  0  0  0  0  0
    5.6489  -30.5068   22.4205 N   0  0  0  0  0  0  0  0  0  0  0  0
    2.4496  -36.7327   25.6000 N   0  0  0  0  0  0  0  0  0  0  0  0
    1.3021  -36.0775   25.3872 N   0  0  0  0  0  0  0  0  0  0  0  0
    8.9906  -32.9849   30.3437 N   0  0  0  0  0  0  0  0  0  0  0  0
    6.1786  -29.9718   27.7513 O   0  0  0  0  0  0  0  0  0  0  0  0
    3.5116  -30.7190   22.2411 H   0  0  0  0  0  0  0  0  0  0  0  0
    3.9861  -29.3107   23.1693 H   0  0  0  0  0  0  0  0  0  0  0  0
    4.1055  -31.6788   20.4048 H   0  0  0  0  0  0  0  0  0  0  0  0
    4.9920  -30.4989   19.3809 H   0  0  0  0  0  0  0  0  0  0  0  0
    5.4750  -32.2290   19.3809 H   0  0  0  0  0  0  0  0  0  0  0  0
    8.9417  -30.8076   22.5549 H   0  0  0  0  0  0  0  0  0  0  0  0
    0.1611  -37.6350   24.5542 H   0  0  0  0  0  0  0  0  0  0  0  0
   -0.7685  -36.1752   25.0840 H   0  0  0  0  0  0  0  0  0  0  0  0
    0.0590  -36.8581   27.4887 H   0  0  0  0  0  0  0  0  0  0  0  0
   -1.3223  -37.7311   26.7426 H   0  0  0  0  0  0  0  0  0  0  0  0
    0.3140  -38.4722   26.7426 H   0  0  0  0  0  0  0  0  0  0  0  0
    6.5433  -29.5471   32.4825 H   0  0  0  0  0  0  0  0  0  0  0  0
    7.6866  -30.6011   32.4619 H   0  0  0  0  0  0  0  0  0  0  0  0
    5.6711  -32.5252   31.8188 H   0  0  0  0  0  0  0  0  0  0  0  0
    4.5137  -31.5245   32.0962 H   0  0  0  0  0  0  0  0  0  0  0  0
   10.6586  -34.1542   30.9045 H   0  0  0  0  0  0  0  0  0  0  0  0
    5.7818  -33.5595   31.1587 H   0  0  0  0  0  0  0  0  0  0  0  0
    5.9567  -34.0086   29.3417 H   0  0  0  0  0  0  0  0  0  0  0  0
    6.6136  -33.9839   27.6709 H   0  0  0  0  0  0  0  0  0  0  0  0
    7.9229  -30.9897   29.3165 H   0  0  0  0  0  0  0  0  0  0  0  0
    4.2521  -34.6934   27.5833 H   0  0  0  0  0  0  0  0  0  0  0  0
    3.7460  -33.2617   28.5361 H   0  0  0  0  0  0  0  0  0  0  0  0
    3.0064  -32.7715   23.4012 H   0  0  0  0  0  0  0  0  0  0  0  0
    5.5514  -29.8539   25.2912 H   0  0  0  0  0  0  0  0  0  0  0  0
    7.0341  -30.2441   24.2965 H   0  0  0  0  0  0  0  0  0  0  0  0
    0.7452  -33.9661   25.1245 H   0  0  0  0  0  0  0  0  0  0  0  0
    5.8499  -30.0374   29.7686 H   0  0  0  0  0  0  0  0  0  0  0  0
    9.3036  -35.8091   32.1788 H   0  0  0  0  0  0  0  0  0  0  0  0
    6.6962  -35.6319   33.6042 H   0  0  0  0  0  0  0  0  0  0  0  0
    5.5055  -35.6188   32.2594 H   0  0  0  0  0  0  0  0  0  0  0  0
    6.8473  -36.8130   32.2594 H   0  0  0  0  0  0  0  0  0  0  0  0
  1 19  1  0
  1 36  1  0
  2 21  1  0
  3 22  2  0
  3 35  1  0
  4 23  1  0
  4 31  1  1
  4 32  1  0
  4 33  1  0
  5  6  1  0
  5 38  1  0
  7  8  1  0
 26  7  1  0
  8 26  1  0
  9 27  2  0
  9 39  1  0
 10 28  1  0
 10 29  2  0
 11 16  1  0
 11 34  1  0
 12 26  1  0
 12 28  1  0
 12 34  1  0
 13 14  1  0
 13 34  1  0
 13 40  2  0
 14 15  2  0
 14 20  1  0
 15 16  1  0
 15 17  1  0
 17 18  2  0
 17 24  1  0
 18 19  1  0
 19 20  2  0
 21 35  2  0
 21 36  1  0
 22 36  1  0
 23 24  1  0
 23 37  2  0
 24 25  2  0
 25 38  1  0
 27 29  1  0
 28 39  2  0
 29 30  1  0
 37 38  1  0
  1 41  1  0
  1 42  1  0
  2 43  1  0
  2 44  1  0
  2 45  1  0
  3 46  1  0
  5 47  1  0
  5 48  1  0
  6 49  1  0
  6 50  1  0
  6 51  1  0
  7 52  1  0
  7 53  1  0
  8 54  1  0
  8 55  1  0
  9 56  1  0
 10 57  1  0
 11 58  1  0
 11 59  1  0
 12 60  1  6
 16 61  1  0
 16 62  1  0
 18 63  1  0
 20 64  1  0
 22 65  1  0
 25 66  1  0
 26 67  1  6
 27 68  1  0
 30 69  1  0
 30 70  1  0
 30 71  1  0
M  END
>  <filename_input>  (11) 
7UAS_MBU_docked.sdf

>  <pdb_id>  (11) 
7UAS_MBU

>  <pose_rank>  (11) 
10

>  <num_atoms_heavy>  (11) 
40

>  <num_torsions>  (11) 
8

>  <pose>  (11) 
[5.9019719164041415, -33.50975179562656, 28.362822344003618, 0.26732855224256147, -5.767769228782224, -1.8278166023807865, 3.6880686639949047, 0.4940335099495385, -2.4845352754279024, -0.31531361713948436, -1.9218188166616157, 5.243391739398567, -1.783941321140083, -2.0697292338136974]

>  <energy>  (11) 
-510.13910740501626

>  <inter_energy>  (11) 
-679.1983890022883

>  <intra_energy>  (11) 
166.13034477273538

>  <rmsd>  (11) 
2.7677

>  <sdf_rank>  (11) 
0

$$$$

     RDKit          3D

 71 76  0  0  0  0  0  0  0  0999 V2000
    5.5611  -31.1922   30.0441 C   0  0  0  0  0  0  0  0  0  0  0  0
    8.4957  -32.2220   29.0913 C   0  0  0  0  0  0  0  0  0  0  0  0
    7.1354  -33.8056   32.1165 C   0  0  0  0  0  0  0  0  0  0  0  0
    6.2938  -36.4426   28.0207 C   0  0  2  0  0  0  0  0  0  0  0  0
    1.7768  -38.3200   27.9315 C   0  0  0  0  0  0  0  0  0  0  0  0
    1.4378  -38.8437   26.5336 C   0  0  0  0  0  0  0  0  0  0  0  0
    3.8762  -28.7192   21.7478 C   0  0  0  0  0  0  0  0  0  0  0  0
    4.8397  -28.4888   22.8940 C   0  0  0  0  0  0  0  0  0  0  0  0
    7.7488  -32.1535   21.4637 C   0  0  0  0  0  0  0  0  0  0  0  0
    6.6983  -29.8191   22.3831 C   0  0  0  0  0  0  0  0  0  0  0  0
    3.4631  -32.9445   24.1848 C   0  0  0  0  0  0  0  0  0  0  0  0
    4.4535  -31.0232   22.7588 C   0  0  1  0  0  0  0  0  0  0  0  0
    5.0671  -31.2896   25.1067 C   0  0  0  0  0  0  0  0  0  0  0  0
    4.9634  -31.9960   26.3879 C   0  0  0  0  0  0  0  0  0  0  0  0
    4.4983  -33.3126   26.4279 C   0  0  0  0  0  0  0  0  0  0  0  0
    4.1318  -33.9842   25.1090 C   0  0  0  0  0  0  0  0  0  0  0  0
    4.3609  -33.9820   27.6526 C   0  0  0  0  0  0  0  0  0  0  0  0
    4.7326  -33.2769   28.8166 C   0  0  0  0  0  0  0  0  0  0  0  0
    5.1977  -31.9567   28.7746 C   0  0  0  0  0  0  0  0  0  0  0  0
    5.3106  -31.3192   27.5468 C   0  0  0  0  0  0  0  0  0  0  0  0
    7.7249  -32.7491   30.2700 C   0  0  0  0  0  0  0  0  0  0  0  0
    6.0564  -33.0256   31.9229 C   0  0  0  0  0  0  0  0  0  0  0  0
    4.7630  -36.4927   27.9207 C   0  0  0  0  0  0  0  0  0  0  0  0
    3.9210  -35.3796   27.7567 C   0  0  0  0  0  0  0  0  0  0  0  0
    2.6598  -35.9133   27.7338 C   0  0  0  0  0  0  0  0  0  0  0  0
    3.8426  -29.6156   22.9567 C   0  0  2  0  0  0  0  0  0  0  0  0
    8.5585  -31.0151   21.5171 C   0  0  0  0  0  0  0  0  0  0  0  0
    5.9307  -30.9826   22.3204 C   0  0  0  0  0  0  0  0  0  0  0  0
    8.0278  -29.8174   21.9853 C   0  0  0  0  0  0  0  0  0  0  0  0
    8.8574  -28.5535   22.0679 C   0  0  0  0  0  0  0  0  0  0  0  0
    6.6243  -36.7809   29.2711 F   0  0  0  0  0  0  0  0  0  0  0  0
    6.8124  -35.2229   27.7034 F   0  0  0  0  0  0  0  0  0  0  0  0
    6.8309  -37.2932   27.1347 F   0  0  0  0  0  0  0  0  0  0  0  0
    4.3489  -31.7703   24.0473 N   0  0  0  0  0  0  0  0  0  0  0  0
    8.1205  -33.6108   31.1094 N   0  0  0  0  0  0  0  0  0  0  0  0
    6.4592  -32.1472   30.7741 N   0  0  0  0  0  0  0  0  0  0  0  0
    4.0781  -37.6093   27.9965 N   0  0  0  0  0  0  0  0  0  0  0  0
    2.7922  -37.2598   27.8725 N   0  0  0  0  0  0  0  0  0  0  0  0
    6.4639  -32.1202   21.8585 N   0  0  0  0  0  0  0  0  0  0  0  0
    5.7739  -30.2919   24.9542 O   0  0  0  0  0  0  0  0  0  0  0  0
    6.0903  -30.2582   29.8042 H   0  0  0  0  0  0  0  0  0  0  0  0
    4.6821  -30.8910   30.6328 H   0  0  0  0  0  0  0  0  0  0  0  0
    9.3547  -31.6346   29.4479 H   0  0  0  0  0  0  0  0  0  0  0  0
    8.8551  -33.0643   28.4819 H   0  0  0  0  0  0  0  0  0  0  0  0
    7.8412  -31.5815   28.4819 H   0  0  0  0  0  0  0  0  0  0  0  0
    7.2429  -34.5102   32.9543 H   0  0  0  0  0  0  0  0  0  0  0  0
    0.8640  -37.9167   28.3942 H   0  0  0  0  0  0  0  0  0  0  0  0
    2.1789  -39.1533   28.5265 H   0  0  0  0  0  0  0  0  0  0  0  0
    0.8420  -39.7642   26.6214 H   0  0  0  0  0  0  0  0  0  0  0  0
    0.8600  -38.0835   25.9875 H   0  0  0  0  0  0  0  0  0  0  0  0
    2.3679  -39.0596   25.9875 H   0  0  0  0  0  0  0  0  0  0  0  0
    3.0564  -28.0085   21.5665 H   0  0  0  0  0  0  0  0  0  0  0  0
    3.9784  -28.8766   20.6640 H   0  0  0  0  0  0  0  0  0  0  0  0
    5.9101  -28.7073   22.7658 H   0  0  0  0  0  0  0  0  0  0  0  0
    5.0922  -27.6350   23.5400 H   0  0  0  0  0  0  0  0  0  0  0  0
    8.1723  -33.0976   21.0903 H   0  0  0  0  0  0  0  0  0  0  0  0
    6.2427  -28.8890   22.7536 H   0  0  0  0  0  0  0  0  0  0  0  0
    3.2893  -33.3912   23.1948 H   0  0  0  0  0  0  0  0  0  0  0  0
    2.5018  -32.6314   24.6182 H   0  0  0  0  0  0  0  0  0  0  0  0
    3.8914  -31.5196   21.9540 H   0  0  0  0  0  0  0  0  0  0  0  0
    3.4334  -34.8126   25.2984 H   0  0  0  0  0  0  0  0  0  0  0  0
    5.0389  -34.3797   24.6286 H   0  0  0  0  0  0  0  0  0  0  0  0
    4.6544  -33.7816   29.7908 H   0  0  0  0  0  0  0  0  0  0  0  0
    5.6737  -30.2822   27.4937 H   0  0  0  0  0  0  0  0  0  0  0  0
    5.1051  -33.0305   32.4751 H   0  0  0  0  0  0  0  0  0  0  0  0
    1.7170  -35.3574   27.6239 H   0  0  0  0  0  0  0  0  0  0  0  0
    3.0597  -29.9303   23.6624 H   0  0  0  0  0  0  0  0  0  0  0  0
    9.6078  -31.0660   21.1911 H   0  0  0  0  0  0  0  0  0  0  0  0
    9.0272  -28.2947   23.1234 H   0  0  0  0  0  0  0  0  0  0  0  0
    9.8247  -28.7166   21.5701 H   0  0  0  0  0  0  0  0  0  0  0  0
    8.3229  -27.7310   21.5701 H   0  0  0  0  0  0  0  0  0  0  0  0
  1 19  1  0
  1 36  1  0
  2 21  1  0
  3 22  2  0
  3 35  1  0
  4 23  1  0
  4 31  1  1
  4 32  1  0
  4 33  1  0
  5  6  1  0
  5 38  1  0
  7  8  1  0
 26  7  1  0
  8 26  1  0
  9 27  2  0
  9 39  1  0
 10 28  1  0
 10 29  2  0
 11 16  1  0
 11 34  1  0
 12 26  1  0
 12 28  1  0
 12 34  1  0
 13 14  1  0
 13 34  1  0
 13 40  2  0
 14 15  2  0
 14 20  1  0
 15 16  1  0
 15 17  1  0
 17 18  2  0
 17 24  1  0
 18 19  1  0
 19 20  2  0
 21 35  2  0
 21 36  1  0
 22 36  1  0
 23 24  1  0
 23 37  2  0
 24 25  2  0
 25 38  1  0
 27 29  1  0
 28 39  2  0
 29 30  1  0
 37 38  1  0
  1 41  1  0
  1 42  1  0
  2 43  1  0
  2 44  1  0
  2 45  1  0
  3 46  1  0
  5 47  1  0
  5 48  1  0
  6 49  1  0
  6 50  1  0
  6 51  1  0
  7 52  1  0
  7 53  1  0
  8 54  1  0
  8 55  1  0
  9 56  1  0
 10 57  1  0
 11 58  1  0
 11 59  1  0
 12 60  1  6
 16 61  1  0
 16 62  1  0
 18 63  1  0
 20 64  1  0
 22 65  1  0
 25 66  1  0
 26 67  1  1
 27 68  1  0
 30 69  1  0
 30 70  1  0
 30 71  1  0
M  END
>  <filename_input>  (12) 
7UAS_MBU_docked.sdf

>  <pdb_id>  (12) 
7UAS_MBU

>  <pose_rank>  (12) 
11

>  <num_atoms_heavy>  (12) 
40

>  <num_torsions>  (12) 
8

>  <pose>  (12) 
[3.463146282029811, -32.94448449709478, 24.184848220752997, -1.419258926979351, -2.9046579106996133, -0.09701561124024885, 0.20566821903530785, 0.524782233506943, 1.0594080660823866, -3.842172722777272, -2.926210668013246, -3.378564281422586, -2.4901873679306226, -1.7431190333459805]

>  <energy>  (12) 
-520.8770970298083

>  <inter_energy>  (12) 
-713.1632928547191

>  <intra_energy>  (12) 
196.9753152611893

>  <rmsd>  (12) 
6.92325

>  <sdf_rank>  (12) 
0

$$$$

     RDKit          3D

 71 76  0  0  0  0  0  0  0  0999 V2000
    3.3442  -33.7703   33.0577 C   0  0  0  0  0  0  0  0  0  0  0  0
    5.9030  -34.9049   34.7147 C   0  0  0  0  0  0  0  0  0  0  0  0
    5.3197  -31.2824   34.9313 C   0  0  0  0  0  0  0  0  0  0  0  0
    6.5241  -30.3479   29.1708 C   0  0  2  0  0  0  0  0  0  0  0  0
   10.4590  -33.2496   28.9868 C   0  0  0  0  0  0  0  0  0  0  0  0
   10.9852  -32.7167   27.6517 C   0  0  0  0  0  0  0  0  0  0  0  0
    1.1521  -31.8581   25.4108 C   0  0  0  0  0  0  0  0  0  0  0  0
    0.2358  -32.6489   24.4997 C   0  0  0  0  0  0  0  0  0  0  0  0
    2.1392  -36.9959   23.4121 C   0  0  0  0  0  0  0  0  0  0  0  0
    1.5188  -36.9332   26.0596 C   0  0  0  0  0  0  0  0  0  0  0  0
    3.9771  -34.3211   26.6469 C   0  0  0  0  0  0  0  0  0  0  0  0
    1.4834  -34.3608   25.9499 C   0  0  1  0  0  0  0  0  0  0  0  0
    2.1383  -33.8423   28.2440 C   0  0  0  0  0  0  0  0  0  0  0  0
    3.1658  -33.6504   29.2729 C   0  0  0  0  0  0  0  0  0  0  0  0
    4.4864  -33.3824   28.9047 C   0  0  0  0  0  0  0  0  0  0  0  0
    4.8088  -33.2745   27.4183 C   0  0  0  0  0  0  0  0  0  0  0  0
    5.4816  -33.2349   29.8817 C   0  0  0  0  0  0  0  0  0  0  0  0
    5.0815  -33.3458   31.2299 C   0  0  0  0  0  0  0  0  0  0  0  0
    3.7573  -33.6156   31.5970 C   0  0  0  0  0  0  0  0  0  0  0  0
    2.7989  -33.7677   30.6045 C   0  0  0  0  0  0  0  0  0  0  0  0
    5.4458  -33.4726   34.6860 C   0  0  0  0  0  0  0  0  0  0  0  0
    4.2510  -31.5049   34.1449 C   0  0  0  0  0  0  0  0  0  0  0  0
    7.3657  -31.6297   29.2404 C   0  0  0  0  0  0  0  0  0  0  0  0
    6.8773  -32.9079   29.5606 C   0  0  0  0  0  0  0  0  0  0  0  0
    7.9841  -33.7130   29.5079 C   0  0  0  0  0  0  0  0  0  0  0  0
    1.5682  -33.2163   24.9123 C   0  0  2  0  0  0  0  0  0  0  0  0
    1.9972  -38.1999   24.1084 C   0  0  0  0  0  0  0  0  0  0  0  0
    1.6616  -35.7573   25.3222 C   0  0  0  0  0  0  0  0  0  0  0  0
    1.6808  -38.1755   25.4629 C   0  0  0  0  0  0  0  0  0  0  0  0
    1.5122  -39.4471   26.2674 C   0  0  0  0  0  0  0  0  0  0  0  0
    6.1806  -30.1640   27.8920 F   0  0  0  0  0  0  0  0  0  0  0  0
    7.1752  -29.2520   29.6525 F   0  0  0  0  0  0  0  0  0  0  0  0
    5.4383  -30.4796   29.9459 F   0  0  0  0  0  0  0  0  0  0  0  0
    2.5474  -34.1495   26.9761 N   0  0  0  0  0  0  0  0  0  0  0  0
    6.0181  -32.4841   35.2327 N   0  0  0  0  0  0  0  0  0  0  0  0
    4.3709  -32.9591   33.7921 N   0  0  0  0  0  0  0  0  0  0  0  0
    8.6583  -31.6488   29.0161 N   0  0  0  0  0  0  0  0  0  0  0  0
    9.0381  -32.9231   29.1689 N   0  0  0  0  0  0  0  0  0  0  0  0
    1.9740  -35.8088   24.0216 N   0  0  0  0  0  0  0  0  0  0  0  0
    0.9340  -33.7337   28.4803 O   0  0  0  0  0  0  0  0  0  0  0  0
    2.3327  -33.3721   33.2259 H   0  0  0  0  0  0  0  0  0  0  0  0
    3.3072  -34.8193   33.3868 H   0  0  0  0  0  0  0  0  0  0  0  0
    6.0084  -35.2353   35.7586 H   0  0  0  0  0  0  0  0  0  0  0  0
    5.1618  -35.5367   34.2032 H   0  0  0  0  0  0  0  0  0  0  0  0
    6.8730  -34.9905   34.2032 H   0  0  0  0  0  0  0  0  0  0  0  0
    5.6180  -30.2890   35.2975 H   0  0  0  0  0  0  0  0  0  0  0  0
   10.5813  -34.3425   29.0097 H   0  0  0  0  0  0  0  0  0  0  0  0
   11.0308  -32.7770   29.7990 H   0  0  0  0  0  0  0  0  0  0  0  0
   11.7467  -31.9454   27.8393 H   0  0  0  0  0  0  0  0  0  0  0  0
   11.4325  -33.5419   27.0783 H   0  0  0  0  0  0  0  0  0  0  0  0
   10.1544  -32.2798   27.0783 H   0  0  0  0  0  0  0  0  0  0  0  0
    1.6567  -30.9556   25.0355 H   0  0  0  0  0  0  0  0  0  0  0  0
    1.0510  -31.3890   26.4006 H   0  0  0  0  0  0  0  0  0  0  0  0
   -0.6940  -33.0829   24.8960 H   0  0  0  0  0  0  0  0  0  0  0  0
   -0.2648  -32.4551   23.5396 H   0  0  0  0  0  0  0  0  0  0  0  0
    2.3919  -37.0203   22.3418 H   0  0  0  0  0  0  0  0  0  0  0  0
    1.2739  -36.8746   27.1304 H   0  0  0  0  0  0  0  0  0  0  0  0
    4.1242  -34.1824   25.5656 H   0  0  0  0  0  0  0  0  0  0  0  0
    4.3017  -35.3324   26.9329 H   0  0  0  0  0  0  0  0  0  0  0  0
    0.4778  -34.3327   26.3948 H   0  0  0  0  0  0  0  0  0  0  0  0
    5.8804  -33.4644   27.2586 H   0  0  0  0  0  0  0  0  0  0  0  0
    4.5635  -32.2649   27.0570 H   0  0  0  0  0  0  0  0  0  0  0  0
    5.8356  -33.2159   32.0201 H   0  0  0  0  0  0  0  0  0  0  0  0
    1.7537  -33.9803   30.8733 H   0  0  0  0  0  0  0  0  0  0  0  0
    3.4740  -30.7909   33.8344 H   0  0  0  0  0  0  0  0  0  0  0  0
    8.0148  -34.7951   29.7030 H   0  0  0  0  0  0  0  0  0  0  0  0
    2.4504  -33.6074   24.3844 H   0  0  0  0  0  0  0  0  0  0  0  0
    2.1346  -39.1597   23.5889 H   0  0  0  0  0  0  0  0  0  0  0  0
    1.5438  -39.2087   27.3408 H   0  0  0  0  0  0  0  0  0  0  0  0
    0.5448  -39.9100   26.0230 H   0  0  0  0  0  0  0  0  0  0  0  0
    2.3254  -40.1462   26.0230 H   0  0  0  0  0  0  0  0  0  0  0  0
  1 19  1  0
  1 36  1  0
  2 21  1  0
  3 22  2  0
  3 35  1  0
  4 23  1  0
  4 31  1  6
  4 32  1  0
  4 33  1  0
  5  6  1  0
  5 38  1  0
  7  8  1  0
 26  7  1  0
  8 26  1  0
  9 27  2  0
  9 39  1  0
 10 28  1  0
 10 29  2  0
 11 16  1  0
 11 34  1  0
 12 26  1  0
 12 28  1  0
 12 34  1  0
 13 14  1  0
 13 34  1  0
 13 40  2  0
 14 15  2  0
 14 20  1  0
 15 16  1  0
 15 17  1  0
 17 18  2  0
 17 24  1  0
 18 19  1  0
 19 20  2  0
 21 35  2  0
 21 36  1  0
 22 36  1  0
 23 24  1  0
 23 37  2  0
 24 25  2  0
 25 38  1  0
 27 29  1  0
 28 39  2  0
 29 30  1  0
 37 38  1  0
  1 41  1  0
  1 42  1  0
  2 43  1  0
  2 44  1  0
  2 45  1  0
  3 46  1  0
  5 47  1  0
  5 48  1  0
  6 49  1  0
  6 50  1  0
  6 51  1  0
  7 52  1  0
  7 53  1  0
  8 54  1  0
  8 55  1  0
  9 56  1  0
 10 57  1  0
 11 58  1  0
 11 59  1  0
 12 60  1  1
 16 61  1  0
 16 62  1  0
 18 63  1  0
 20 64  1  0
 22 65  1  0
 25 66  1  0
 26 67  1  6
 27 68  1  0
 30 69  1  0
 30 70  1  0
 30 71  1  0
M  END
>  <filename_input>  (13) 
7UAS_MBU_docked.sdf

>  <pdb_id>  (13) 
7UAS_MBU

>  <pose_rank>  (13) 
12

>  <num_atoms_heavy>  (13) 
40

>  <num_torsions>  (13) 
8

>  <pose>  (13) 
[3.9771192687247403, -34.3210798597642, 26.646868469411668, -1.8418851840765815, 2.765535648115582, 0.5668429079243729, -0.1450167434991674, -3.094827579004162, 1.7659030103587794, 2.0307927695470527, 0.4203141585738849, -0.2742613555162633, 0.5117254080032364, 0.1868981727667735]

>  <energy>  (13) 
-671.8265533652218

>  <inter_energy>  (13) 
-700.2097965972637

>  <intra_energy>  (13) 
24.953000260848516

>  <rmsd>  (13) 
8.95255

>  <sdf_rank>  (13) 
0

$$$$

     RDKit          3D

 71 76  0  0  0  0  0  0  0  0999 V2000
    7.8603  -31.4839   28.5900 C   0  0  0  0  0  0  0  0  0  0  0  0
   10.5428  -32.7906   27.2951 C   0  0  0  0  0  0  0  0  0  0  0  0
    9.9847  -33.4618   30.8655 C   0  0  0  0  0  0  0  0  0  0  0  0
    6.3407  -35.9693   31.9002 C   0  0  2  0  0  0  0  0  0  0  0  0
    3.7688  -33.7893   35.4456 C   0  0  0  0  0  0  0  0  0  0  0  0
    3.1315  -32.4084   35.6194 C   0  0  0  0  0  0  0  0  0  0  0  0
    1.1604  -31.8636   25.2935 C   0  0  0  0  0  0  0  0  0  0  0  0
    0.5261  -32.8667   24.3520 C   0  0  0  0  0  0  0  0  0  0  0  0
    0.7160  -37.8546   26.4068 C   0  0  0  0  0  0  0  0  0  0  0  0
    2.3435  -36.1649   25.0304 C   0  0  0  0  0  0  0  0  0  0  0  0
    1.8625  -33.8782   28.9007 C   0  0  0  0  0  0  0  0  0  0  0  0
    1.3735  -34.1966   26.3778 C   0  0  1  0  0  0  0  0  0  0  0  0
    3.6114  -33.6128   27.1595 C   0  0  0  0  0  0  0  0  0  0  0  0
    4.5528  -33.3031   28.2408 C   0  0  0  0  0  0  0  0  0  0  0  0
    4.2661  -33.6877   29.5527 C   0  0  0  0  0  0  0  0  0  0  0  0
    2.9709  -34.4503   29.8097 C   0  0  0  0  0  0  0  0  0  0  0  0
    5.1431  -33.3625   30.5976 C   0  0  0  0  0  0  0  0  0  0  0  0
    6.3185  -32.6609   30.2563 C   0  0  0  0  0  0  0  0  0  0  0  0
    6.6037  -32.2752   28.9407 C   0  0  0  0  0  0  0  0  0  0  0  0
    5.7085  -32.6028   27.9318 C   0  0  0  0  0  0  0  0  0  0  0  0
   10.0871  -32.9610   28.7180 C   0  0  0  0  0  0  0  0  0  0  0  0
    8.8556  -32.7439   30.7251 C   0  0  0  0  0  0  0  0  0  0  0  0
    5.4428  -34.9342   32.5919 C   0  0  0  0  0  0  0  0  0  0  0  0
    4.9203  -33.7773   31.9890 C   0  0  0  0  0  0  0  0  0  0  0  0
    4.2033  -33.1731   32.9874 C   0  0  0  0  0  0  0  0  0  0  0  0
    1.7114  -33.2609   25.1929 C   0  0  2  0  0  0  0  0  0  0  0  0
    1.5782  -38.3760   25.4376 C   0  0  0  0  0  0  0  0  0  0  0  0
    1.4733  -35.6909   26.0127 C   0  0  0  0  0  0  0  0  0  0  0  0
    2.4128  -37.5177   24.7291 C   0  0  0  0  0  0  0  0  0  0  0  0
    3.3685  -38.0255   23.6702 C   0  0  0  0  0  0  0  0  0  0  0  0
    5.7081  -36.3716   30.7933 F   0  0  0  0  0  0  0  0  0  0  0  0
    6.6391  -37.0362   32.6939 F   0  0  0  0  0  0  0  0  0  0  0  0
    7.5231  -35.4122   31.6025 F   0  0  0  0  0  0  0  0  0  0  0  0
    2.3190  -33.9050   27.4961 N   0  0  0  0  0  0  0  0  0  0  0  0
   10.7032  -33.5682   29.6428 N   0  0  0  0  0  0  0  0  0  0  0  0
    8.9442  -32.2203   29.3210 N   0  0  0  0  0  0  0  0  0  0  0  0
    5.0820  -35.0282   33.8499 N   0  0  0  0  0  0  0  0  0  0  0  0
    4.3156  -33.9581   34.0924 N   0  0  0  0  0  0  0  0  0  0  0  0
    0.6752  -36.5376   26.6746 N   0  0  0  0  0  0  0  0  0  0  0  0
    3.9433  -33.6218   25.9729 O   0  0  0  0  0  0  0  0  0  0  0  0
    8.0410  -31.4912   27.5050 H   0  0  0  0  0  0  0  0  0  0  0  0
    7.7944  -30.4226   28.8715 H   0  0  0  0  0  0  0  0  0  0  0  0
   11.5731  -32.4052   27.2837 H   0  0  0  0  0  0  0  0  0  0  0  0
   10.5090  -33.7621   26.7804 H   0  0  0  0  0  0  0  0  0  0  0  0
    9.8797  -32.0797   26.7804 H   0  0  0  0  0  0  0  0  0  0  0  0
   10.3131  -33.9129   31.8135 H   0  0  0  0  0  0  0  0  0  0  0  0
    4.5820  -33.9034   36.1776 H   0  0  0  0  0  0  0  0  0  0  0  0
    2.9927  -34.5525   35.6043 H   0  0  0  0  0  0  0  0  0  0  0  0
    3.0282  -32.1846   36.6915 H   0  0  0  0  0  0  0  0  0  0  0  0
    3.7696  -31.6478   35.1459 H   0  0  0  0  0  0  0  0  0  0  0  0
    2.1387  -32.4006   35.1459 H   0  0  0  0  0  0  0  0  0  0  0  0
    1.7331  -31.0156   24.8900 H   0  0  0  0  0  0  0  0  0  0  0  0
    0.7967  -31.2269   26.1135 H   0  0  0  0  0  0  0  0  0  0  0  0
   -0.4690  -33.2789   24.5755 H   0  0  0  0  0  0  0  0  0  0  0  0
    0.2920  -32.8867   23.2774 H   0  0  0  0  0  0  0  0  0  0  0  0
    0.0563  -38.5370   26.9627 H   0  0  0  0  0  0  0  0  0  0  0  0
    2.9844  -35.4554   24.4865 H   0  0  0  0  0  0  0  0  0  0  0  0
    0.9527  -34.4880   29.0028 H   0  0  0  0  0  0  0  0  0  0  0  0
    1.6427  -32.8417   29.1964 H   0  0  0  0  0  0  0  0  0  0  0  0
    0.3298  -34.0038   26.6668 H   0  0  0  0  0  0  0  0  0  0  0  0
    2.6787  -34.3362   30.8641 H   0  0  0  0  0  0  0  0  0  0  0  0
    3.1181  -35.5179   29.5895 H   0  0  0  0  0  0  0  0  0  0  0  0
    7.0356  -32.4081   31.0512 H   0  0  0  0  0  0  0  0  0  0  0  0
    5.9152  -32.3081   26.8923 H   0  0  0  0  0  0  0  0  0  0  0  0
    8.0571  -32.5797   31.4636 H   0  0  0  0  0  0  0  0  0  0  0  0
    3.6422  -32.2302   32.9102 H   0  0  0  0  0  0  0  0  0  0  0  0
    2.7065  -33.6854   24.9939 H   0  0  0  0  0  0  0  0  0  0  0  0
    1.5966  -39.4574   25.2368 H   0  0  0  0  0  0  0  0  0  0  0  0
    4.2405  -38.4887   24.1550 H   0  0  0  0  0  0  0  0  0  0  0  0
    2.8583  -38.7714   23.0431 H   0  0  0  0  0  0  0  0  0  0  0  0
    3.7011  -37.1851   23.0431 H   0  0  0  0  0  0  0  0  0  0  0  0
  1 19  1  0
  1 36  1  0
  2 21  1  0
  3 22  2  0
  3 35  1  0
  4 23  1  0
  4 31  1  6
  4 32  1  0
  4 33  1  0
  5  6  1  0
  5 38  1  0
  7  8  1  0
 26  7  1  0
  8 26  1  0
  9 27  2  0
  9 39  1  0
 10 28  1  0
 10 29  2  0
 11 16  1  0
 11 34  1  0
 12 26  1  0
 12 28  1  0
 12 34  1  0
 13 14  1  0
 13 34  1  0
 13 40  2  0
 14 15  2  0
 14 20  1  0
 15 16  1  0
 15 17  1  0
 17 18  2  0
 17 24  1  0
 18 19  1  0
 19 20  2  0
 21 35  2  0
 21 36  1  0
 22 36  1  0
 23 24  1  0
 23 37  2  0
 24 25  2  0
 25 38  1  0
 27 29  1  0
 28 39  2  0
 29 30  1  0
 37 38  1  0
  1 41  1  0
  1 42  1  0
  2 43  1  0
  2 44  1  0
  2 45  1  0
  3 46  1  0
  5 47  1  0
  5 48  1  0
  6 49  1  0
  6 50  1  0
  6 51  1  0
  7 52  1  0
  7 53  1  0
  8 54  1  0
  8 55  1  0
  9 56  1  0
 10 57  1  0
 11 58  1  0
 11 59  1  0
 12 60  1  1
 16 61  1  0
 16 62  1  0
 18 63  1  0
 20 64  1  0
 22 65  1  0
 25 66  1  0
 26 67  1  6
 27 68  1  0
 30 69  1  0
 30 70  1  0
 30 71  1  0
M  END
>  <filename_input>  (14) 
7UAS_MBU_docked.sdf

>  <pdb_id>  (14) 
7UAS_MBU

>  <pose_rank>  (14) 
13

>  <num_atoms_heavy>  (14) 
40

>  <num_torsions>  (14) 
8

>  <pose>  (14) 
[1.8624991832727054, -33.878189486045095, 28.90070890521245, -1.5779417811851466, -1.8714524206651615, 1.5564317384681474, 0.11697470379496902, -2.363513123236431, -0.6420154028890562, 2.392663214201013, 4.3633556267490095, 3.3837285765283327, -2.2118328279669197, -0.00501283365515829]

>  <energy>  (14) 
-632.0470080906156

>  <inter_energy>  (14) 
-752.8259318952942

>  <intra_energy>  (14) 
113.24420572910427

>  <rmsd>  (14) 
8.07537

>  <sdf_rank>  (14) 
0

$$$$

     RDKit          3D

 71 76  0  0  0  0  0  0  0  0999 V2000
    2.3223  -31.7964   29.8163 C   0  0  0  0  0  0  0  0  0  0  0  0
    1.4102  -34.0930   31.9315 C   0  0  0  0  0  0  0  0  0  0  0  0
    4.7193  -32.5983   32.5021 C   0  0  0  0  0  0  0  0  0  0  0  0
   -0.6832  -34.9762   27.4362 C   0  0  2  0  0  0  0  0  0  0  0  0
    1.0693  -39.2214   25.7499 C   0  0  0  0  0  0  0  0  0  0  0  0
    0.3869  -40.1205   26.7839 C   0  0  0  0  0  0  0  0  0  0  0  0
    7.8677  -32.9383   21.6874 C   0  0  0  0  0  0  0  0  0  0  0  0
    6.5422  -32.4501   21.1399 C   0  0  0  0  0  0  0  0  0  0  0  0
    4.3841  -29.2055   22.9517 C   0  0  0  0  0  0  0  0  0  0  0  0
    7.0295  -29.8362   22.9998 C   0  0  0  0  0  0  0  0  0  0  0  0
    4.3142  -33.7377   23.9796 C   0  0  0  0  0  0  0  0  0  0  0  0
    6.4042  -32.2356   23.6944 C   0  0  1  0  0  0  0  0  0  0  0  0
    5.2232  -32.3527   25.8280 C   0  0  0  0  0  0  0  0  0  0  0  0
    4.1383  -32.8721   26.6673 C   0  0  0  0  0  0  0  0  0  0  0  0
    3.4800  -34.0520   26.3128 C   0  0  0  0  0  0  0  0  0  0  0  0
    3.9406  -34.7801   25.0548 C   0  0  0  0  0  0  0  0  0  0  0  0
    2.4171  -34.5350   27.0897 C   0  0  0  0  0  0  0  0  0  0  0  0
    2.0706  -33.7931   28.2385 C   0  0  0  0  0  0  0  0  0  0  0  0
    2.7311  -32.6099   28.5917 C   0  0  0  0  0  0  0  0  0  0  0  0
    3.7714  -32.1532   27.7944 C   0  0  0  0  0  0  0  0  0  0  0  0
    2.6965  -33.3159   31.9861 C   0  0  0  0  0  0  0  0  0  0  0  0
    4.4524  -31.8334   31.4280 C   0  0  0  0  0  0  0  0  0  0  0  0
    0.3356  -36.0124   26.9417 C   0  0  0  0  0  0  0  0  0  0  0  0
    1.7157  -35.7915   26.7951 C   0  0  0  0  0  0  0  0  0  0  0  0
    2.1979  -36.9831   26.3222 C   0  0  0  0  0  0  0  0  0  0  0  0
    6.5993  -33.1581   22.4678 C   0  0  2  0  0  0  0  0  0  0  0  0
    5.3256  -28.2243   22.6269 C   0  0  0  0  0  0  0  0  0  0  0  0
    6.0539  -30.7851   23.3077 C   0  0  0  0  0  0  0  0  0  0  0  0
    6.6803  -28.5394   22.6503 C   0  0  0  0  0  0  0  0  0  0  0  0
    7.7445  -27.5189   22.3058 C   0  0  0  0  0  0  0  0  0  0  0  0
   -0.5809  -33.9047   26.6433 F   0  0  0  0  0  0  0  0  0  0  0  0
   -0.5005  -34.6243   28.7401 F   0  0  0  0  0  0  0  0  0  0  0  0
   -1.9171  -35.4973   27.3832 F   0  0  0  0  0  0  0  0  0  0  0  0
    5.3044  -32.7935   24.5364 N   0  0  0  0  0  0  0  0  0  0  0  0
    3.6467  -33.4810   32.8067 N   0  0  0  0  0  0  0  0  0  0  0  0
    3.1555  -32.3885   30.9148 N   0  0  0  0  0  0  0  0  0  0  0  0
    0.0009  -37.2301   26.5857 N   0  0  0  0  0  0  0  0  0  0  0  0
    1.1388  -37.8298   26.2158 N   0  0  0  0  0  0  0  0  0  0  0  0
    4.7573  -30.4535   23.2850 N   0  0  0  0  0  0  0  0  0  0  0  0
    6.0556  -31.5451   26.2439 O   0  0  0  0  0  0  0  0  0  0  0  0
    2.5536  -30.7301   29.6767 H   0  0  0  0  0  0  0  0  0  0  0  0
    1.2426  -31.8400   30.0224 H   0  0  0  0  0  0  0  0  0  0  0  0
    1.0644  -34.3020   32.9546 H   0  0  0  0  0  0  0  0  0  0  0  0
    0.6483  -33.5040   31.4000 H   0  0  0  0  0  0  0  0  0  0  0  0
    1.5771  -35.0415   31.4000 H   0  0  0  0  0  0  0  0  0  0  0  0
    5.6561  -32.5471   33.0765 H   0  0  0  0  0  0  0  0  0  0  0  0
    2.0899  -39.5910   25.5716 H   0  0  0  0  0  0  0  0  0  0  0  0
    0.4784  -39.2481   24.8225 H   0  0  0  0  0  0  0  0  0  0  0  0
    0.6470  -39.7778   27.7963 H   0  0  0  0  0  0  0  0  0  0  0  0
   -0.7038  -40.0718   26.6493 H   0  0  0  0  0  0  0  0  0  0  0  0
    0.7270  -41.1579   26.6493 H   0  0  0  0  0  0  0  0  0  0  0  0
    8.3781  -33.7906   21.2151 H   0  0  0  0  0  0  0  0  0  0  0  0
    8.8418  -32.4733   21.8991 H   0  0  0  0  0  0  0  0  0  0  0  0
    6.3266  -31.3722   21.0995 H   0  0  0  0  0  0  0  0  0  0  0  0
    5.9852  -32.5958   20.2026 H   0  0  0  0  0  0  0  0  0  0  0  0
    3.3141  -28.9508   22.9342 H   0  0  0  0  0  0  0  0  0  0  0  0
    8.0915  -30.1204   23.0346 H   0  0  0  0  0  0  0  0  0  0  0  0
    4.7451  -34.2492   23.1063 H   0  0  0  0  0  0  0  0  0  0  0  0
    3.4129  -33.1869   23.6724 H   0  0  0  0  0  0  0  0  0  0  0  0
    7.3582  -32.2026   24.2410 H   0  0  0  0  0  0  0  0  0  0  0  0
    3.1282  -35.4206   24.6810 H   0  0  0  0  0  0  0  0  0  0  0  0
    4.8155  -35.4053   25.2863 H   0  0  0  0  0  0  0  0  0  0  0  0
    1.2535  -34.1566   28.8790 H   0  0  0  0  0  0  0  0  0  0  0  0
    4.3019  -31.2256   28.0554 H   0  0  0  0  0  0  0  0  0  0  0  0
    5.0439  -30.9994   31.0223 H   0  0  0  0  0  0  0  0  0  0  0  0
    3.2449  -37.2123   26.0750 H   0  0  0  0  0  0  0  0  0  0  0  0
    6.1070  -34.0376   22.9083 H   0  0  0  0  0  0  0  0  0  0  0  0
    4.9974  -27.2102   22.3549 H   0  0  0  0  0  0  0  0  0  0  0  0
    8.1725  -27.1085   23.2323 H   0  0  0  0  0  0  0  0  0  0  0  0
    8.5387  -28.0017   21.7174 H   0  0  0  0  0  0  0  0  0  0  0  0
    7.2955  -26.7052   21.7174 H   0  0  0  0  0  0  0  0  0  0  0  0
  1 19  1  0
  1 36  1  0
  2 21  1  0
  3 22  2  0
  3 35  1  0
  4 23  1  0
  4 31  1  6
  4 32  1  0
  4 33  1  0
  5  6  1  0
  5 38  1  0
  7  8  1  0
 26  7  1  0
  8 26  1  0
  9 27  2  0
  9 39  1  0
 10 28  1  0
 10 29  2  0
 11 16  1  0
 11 34  1  0
 12 26  1  0
 12 28  1  0
 12 34  1  0
 13 14  1  0
 13 34  1  0
 13 40  2  0
 14 15  2  0
 14 20  1  0
 15 16  1  0
 15 17  1  0
 17 18  2  0
 17 24  1  0
 18 19  1  0
 19 20  2  0
 21 35  2  0
 21 36  1  0
 22 36  1  0
 23 24  1  0
 23 37  2  0
 24 25  2  0
 25 38  1  0
 27 29  1  0
 28 39  2  0
 29 30  1  0
 37 38  1  0
  1 41  1  0
  1 42  1  0
  2 43  1  0
  2 44  1  0
  2 45  1  0
  3 46  1  0
  5 47  1  0
  5 48  1  0
  6 49  1  0
  6 50  1  0
  6 51  1  0
  7 52  1  0
  7 53  1  0
  8 54  1  0
  8 55  1  0
  9 56  1  0
 10 57  1  0
 11 58  1  0
 11 59  1  0
 12 60  1  1
 16 61  1  0
 16 62  1  0
 18 63  1  0
 20 64  1  0
 22 65  1  0
 25 66  1  0
 26 67  1  6
 27 68  1  0
 30 69  1  0
 30 70  1  0
 30 71  1  0
M  END
>  <filename_input>  (15) 
7UAS_MBU_docked.sdf

>  <pdb_id>  (15) 
7UAS_MBU

>  <pose_rank>  (15) 
14

>  <num_atoms_heavy>  (15) 
40

>  <num_torsions>  (15) 
8

>  <pose>  (15) 
[4.314177448110175, -33.73766910355557, 23.979609596519005, 1.2761524102172208, 1.9501199478188276, 0.4244281918511594, 2.2828470182801777, -0.44524749295507426, 1.7190886306067492, -3.146181254803068, -5.746469081587669, -5.693805722368566, 2.08136194779838, -1.4923578301781255]

>  <energy>  (15) 
-529.5782072773999

>  <inter_energy>  (15) 
-595.581700059408

>  <intra_energy>  (15) 
83.45418910358983

>  <rmsd>  (15) 
7.05225

>  <sdf_rank>  (15) 
0

$$$$

     RDKit          3D

 71 76  0  0  0  0  0  0  0  0999 V2000
    2.5935  -35.8908   24.3613 C   0  0  0  0  0  0  0  0  0  0  0  0
    4.0732  -38.4043   25.8011 C   0  0  0  0  0  0  0  0  0  0  0  0
    0.9137  -37.3055   27.3244 C   0  0  0  0  0  0  0  0  0  0  0  0
    2.7431  -33.6257   29.0969 C   0  0  2  0  0  0  0  0  0  0  0  0
    7.2746  -33.2455   30.9021 C   0  0  0  0  0  0  0  0  0  0  0  0
    8.0487  -34.5610   31.0187 C   0  0  0  0  0  0  0  0  0  0  0  0
    4.1390  -28.1657   23.7622 C   0  0  0  0  0  0  0  0  0  0  0  0
    4.4684  -27.5152   22.4343 C   0  0  0  0  0  0  0  0  0  0  0  0
    9.5923  -28.6891   22.5551 C   0  0  0  0  0  0  0  0  0  0  0  0
    8.0045  -30.5564   21.3759 C   0  0  0  0  0  0  0  0  0  0  0  0
    6.5595  -30.8072   24.8418 C   0  0  0  0  0  0  0  0  0  0  0  0
    5.9842  -29.5772   22.6368 C   0  0  1  0  0  0  0  0  0  0  0  0
    4.6599  -31.4833   23.3942 C   0  0  0  0  0  0  0  0  0  0  0  0
    4.3809  -32.5477   24.3639 C   0  0  0  0  0  0  0  0  0  0  0  0
    4.8761  -32.4575   25.6670 C   0  0  0  0  0  0  0  0  0  0  0  0
    5.6833  -31.2199   26.0435 C   0  0  0  0  0  0  0  0  0  0  0  0
    4.6452  -33.4887   26.5890 C   0  0  0  0  0  0  0  0  0  0  0  0
    3.8814  -34.5889   26.1462 C   0  0  0  0  0  0  0  0  0  0  0  0
    3.3867  -34.6780   24.8392 C   0  0  0  0  0  0  0  0  0  0  0  0
    3.6433  -33.6453   23.9480 C   0  0  0  0  0  0  0  0  0  0  0  0
    2.7571  -37.8089   26.2190 C   0  0  0  0  0  0  0  0  0  0  0  0
    0.8683  -36.3909   26.3388 C   0  0  0  0  0  0  0  0  0  0  0  0
    4.2720  -33.4910   29.1185 C   0  0  0  0  0  0  0  0  0  0  0  0
    5.1002  -33.4322   27.9846 C   0  0  0  0  0  0  0  0  0  0  0  0
    6.3655  -33.3270   28.4983 C   0  0  0  0  0  0  0  0  0  0  0  0
    5.5436  -28.2149   23.2230 C   0  0  2  0  0  0  0  0  0  0  0  0
   10.1610  -29.6040   21.6640 C   0  0  0  0  0  0  0  0  0  0  0  0
    7.4794  -29.6176   22.2647 C   0  0  0  0  0  0  0  0  0  0  0  0
    9.3553  -30.5624   21.0578 C   0  0  0  0  0  0  0  0  0  0  0  0
    9.9150  -31.5769   20.0831 C   0  0  0  0  0  0  0  0  0  0  0  0
    2.4575  -34.8886   28.7647 F   0  0  0  0  0  0  0  0  0  0  0  0
    2.1404  -32.7577   28.2364 F   0  0  0  0  0  0  0  0  0  0  0  0
    2.2475  -33.3226   30.3050 F   0  0  0  0  0  0  0  0  0  0  0  0
    5.7058  -30.6401   23.6479 N   0  0  0  0  0  0  0  0  0  0  0  0
    2.0632  -38.1372   27.2261 N   0  0  0  0  0  0  0  0  0  0  0  0
    2.1867  -36.5602   25.6411 N   0  0  0  0  0  0  0  0  0  0  0  0
    4.9686  -33.4320   30.2288 N   0  0  0  0  0  0  0  0  0  0  0  0
    6.2484  -33.3215   29.8533 N   0  0  0  0  0  0  0  0  0  0  0  0
    8.2784  -28.7107   22.8401 N   0  0  0  0  0  0  0  0  0  0  0  0
    3.9893  -31.3234   22.3729 O   0  0  0  0  0  0  0  0  0  0  0  0
    1.7121  -35.5817   23.7804 H   0  0  0  0  0  0  0  0  0  0  0  0
    3.1707  -36.5486   23.6949 H   0  0  0  0  0  0  0  0  0  0  0  0
    4.6567  -38.6682   26.6955 H   0  0  0  0  0  0  0  0  0  0  0  0
    3.8927  -39.3083   25.2011 H   0  0  0  0  0  0  0  0  0  0  0  0
    4.6330  -37.6717   25.2011 H   0  0  0  0  0  0  0  0  0  0  0  0
    0.1521  -37.3990   28.1126 H   0  0  0  0  0  0  0  0  0  0  0  0
    6.7879  -33.0296   31.8646 H   0  0  0  0  0  0  0  0  0  0  0  0
    7.9837  -32.4475   30.6370 H   0  0  0  0  0  0  0  0  0  0  0  0
    8.1941  -34.8080   32.0807 H   0  0  0  0  0  0  0  0  0  0  0  0
    7.4801  -35.3656   30.5296 H   0  0  0  0  0  0  0  0  0  0  0  0
    9.0282  -34.4546   30.5296 H   0  0  0  0  0  0  0  0  0  0  0  0
    3.9071  -27.5421   24.6382 H   0  0  0  0  0  0  0  0  0  0  0  0
    3.4087  -28.9145   24.1029 H   0  0  0  0  0  0  0  0  0  0  0  0
    4.0970  -27.9566   21.4977 H   0  0  0  0  0  0  0  0  0  0  0  0
    4.3450  -26.5087   22.0079 H   0  0  0  0  0  0  0  0  0  0  0  0
   10.2340  -27.9347   23.0337 H   0  0  0  0  0  0  0  0  0  0  0  0
    7.3375  -31.3031   20.9203 H   0  0  0  0  0  0  0  0  0  0  0  0
    7.0668  -29.8573   25.0663 H   0  0  0  0  0  0  0  0  0  0  0  0
    7.3117  -31.5866   24.6500 H   0  0  0  0  0  0  0  0  0  0  0  0
    5.4160  -29.7396   21.7090 H   0  0  0  0  0  0  0  0  0  0  0  0
    6.3253  -31.4470   26.9073 H   0  0  0  0  0  0  0  0  0  0  0  0
    5.0019  -30.3975   26.3066 H   0  0  0  0  0  0  0  0  0  0  0  0
    3.6669  -35.4050   26.8519 H   0  0  0  0  0  0  0  0  0  0  0  0
    3.2634  -33.6975   22.9170 H   0  0  0  0  0  0  0  0  0  0  0  0
    0.0578  -35.6863   26.1007 H   0  0  0  0  0  0  0  0  0  0  0  0
    7.3006  -33.2596   27.9230 H   0  0  0  0  0  0  0  0  0  0  0  0
    6.5318  -27.9368   23.6180 H   0  0  0  0  0  0  0  0  0  0  0  0
   11.2381  -29.5663   21.4437 H   0  0  0  0  0  0  0  0  0  0  0  0
   10.3730  -32.4071   20.6407 H   0  0  0  0  0  0  0  0  0  0  0  0
    9.1029  -31.9642   19.4503 H   0  0  0  0  0  0  0  0  0  0  0  0
   10.6757  -31.0964   19.4503 H   0  0  0  0  0  0  0  0  0  0  0  0
  1 19  1  0
  1 36  1  0
  2 21  1  0
  3 22  2  0
  3 35  1  0
  4 23  1  0
  4 31  1  6
  4 32  1  0
  4 33  1  0
  5  6  1  0
  5 38  1  0
  7  8  1  0
 26  7  1  0
  8 26  1  0
  9 27  2  0
  9 39  1  0
 10 28  1  0
 10 29  2  0
 11 16  1  0
 11 34  1  0
 12 26  1  0
 12 28  1  0
 12 34  1  0
 13 14  1  0
 13 34  1  0
 13 40  2  0
 14 15  2  0
 14 20  1  0
 15 16  1  0
 15 17  1  0
 17 18  2  0
 17 24  1  0
 18 19  1  0
 19 20  2  0
 21 35  2  0
 21 36  1  0
 22 36  1  0
 23 24  1  0
 23 37  2  0
 24 25  2  0
 25 38  1  0
 27 29  1  0
 28 39  2  0
 29 30  1  0
 37 38  1  0
  1 41  1  0
  1 42  1  0
  2 43  1  0
  2 44  1  0
  2 45  1  0
  3 46  1  0
  5 47  1  0
  5 48  1  0
  6 49  1  0
  6 50  1  0
  6 51  1  0
  7 52  1  0
  7 53  1  0
  8 54  1  0
  8 55  1  0
  9 56  1  0
 10 57  1  0
 11 58  1  0
 11 59  1  0
 12 60  1  6
 16 61  1  0
 16 62  1  0
 18 63  1  0
 20 64  1  0
 22 65  1  0
 25 66  1  0
 26 67  1  1
 27 68  1  0
 30 69  1  0
 30 70  1  0
 30 71  1  0
M  END
>  <filename_input>  (16) 
7UAS_MBU_docked.sdf

>  <pdb_id>  (16) 
7UAS_MBU

>  <pose_rank>  (16) 
15

>  <num_atoms_heavy>  (16) 
40

>  <num_torsions>  (16) 
8

>  <pose>  (16) 
[6.5594974735717475, -30.807201734912336, 24.84177067019764, -1.5424117328243898, 0.9865331872302159, 0.4883969173152431, 0.5764390539039193, -0.12084979752037014, -1.7664804513409742, 1.8687969445881294, 0.5128753112020603, -0.370843213855646, 0.7679587723184806, 0.5025492124470616]

>  <energy>  (16) 
-564.4315712038133

>  <inter_energy>  (16) 
-596.3079147735286

>  <intra_energy>  (16) 
40.923009702080556

>  <rmsd>  (16) 
7.25391

>  <sdf_rank>  (16) 
0

$$$$

     RDKit          3D

 71 76  0  0  0  0  0  0  0  0999 V2000
   -0.5018  -32.5489   28.3708 C   0  0  0  0  0  0  0  0  0  0  0  0
   -2.6379  -34.8044   29.3351 C   0  0  0  0  0  0  0  0  0  0  0  0
   -1.3103  -35.1928   25.9297 C   0  0  0  0  0  0  0  0  0  0  0  0
    3.4923  -34.4747   24.5189 C   0  0  2  0  0  0  0  0  0  0  0  0
    5.6225  -30.2427   23.2986 C   0  0  0  0  0  0  0  0  0  0  0  0
    4.7535  -29.8053   22.1167 C   0  0  0  0  0  0  0  0  0  0  0  0
    5.5345  -37.0987   31.0831 C   0  0  0  0  0  0  0  0  0  0  0  0
    6.4612  -36.9902   32.2766 C   0  0  0  0  0  0  0  0  0  0  0  0
    7.0459  -31.5330   33.3409 C   0  0  0  0  0  0  0  0  0  0  0  0
    8.1361  -33.7626   32.2281 C   0  0  0  0  0  0  0  0  0  0  0  0
    5.8328  -33.1833   29.4996 C   0  0  0  0  0  0  0  0  0  0  0  0
    5.7644  -34.5952   31.6693 C   0  0  1  0  0  0  0  0  0  0  0  0
    3.7350  -34.1777   30.3780 C   0  0  0  0  0  0  0  0  0  0  0  0
    3.0440  -33.5771   29.2321 C   0  0  0  0  0  0  0  0  0  0  0  0
    3.7654  -33.1965   28.0981 C   0  0  0  0  0  0  0  0  0  0  0  0
    5.2694  -33.4474   28.0872 C   0  0  0  0  0  0  0  0  0  0  0  0
    3.1175  -32.5874   27.0137 C   0  0  0  0  0  0  0  0  0  0  0  0
    1.7225  -32.4047   27.1174 C   0  0  0  0  0  0  0  0  0  0  0  0
    1.0012  -32.7860   28.2556 C   0  0  0  0  0  0  0  0  0  0  0  0
    1.6750  -33.3756   29.3161 C   0  0  0  0  0  0  0  0  0  0  0  0
   -1.9344  -34.7787   28.0062 C   0  0  0  0  0  0  0  0  0  0  0  0
   -0.5837  -34.0910   26.1910 C   0  0  0  0  0  0  0  0  0  0  0  0
    3.9920  -33.0295   24.6521 C   0  0  0  0  0  0  0  0  0  0  0  0
    3.8121  -32.2062   25.7768 C   0  0  0  0  0  0  0  0  0  0  0  0
    4.4098  -31.0246   25.4267 C   0  0  0  0  0  0  0  0  0  0  0  0
    6.4479  -35.9108   31.2268 C   0  0  2  0  0  0  0  0  0  0  0  0
    8.4363  -31.6789   33.3275 C   0  0  0  0  0  0  0  0  0  0  0  0
    6.7544  -33.5698   32.2561 C   0  0  0  0  0  0  0  0  0  0  0  0
    9.0009  -32.8171   32.7609 C   0  0  0  0  0  0  0  0  0  0  0  0
   10.4995  -33.0283   32.7156 C   0  0  0  0  0  0  0  0  0  0  0  0
    3.9414  -34.9473   23.3518 F   0  0  0  0  0  0  0  0  0  0  0  0
    2.1354  -34.5813   24.5866 F   0  0  0  0  0  0  0  0  0  0  0  0
    3.9531  -35.2065   25.5431 F   0  0  0  0  0  0  0  0  0  0  0  0
    5.0854  -33.9924   30.4839 N   0  0  0  0  0  0  0  0  0  0  0  0
   -2.1142  -35.5755   27.0387 N   0  0  0  0  0  0  0  0  0  0  0  0
   -1.0873  -33.6482   27.5340 N   0  0  0  0  0  0  0  0  0  0  0  0
    4.6385  -32.4060   23.6956 N   0  0  0  0  0  0  0  0  0  0  0  0
    4.9044  -31.1829   24.1697 N   0  0  0  0  0  0  0  0  0  0  0  0
    6.2367  -32.4689   32.8144 N   0  0  0  0  0  0  0  0  0  0  0  0
    3.1470  -34.8386   31.2357 O   0  0  0  0  0  0  0  0  0  0  0  0
   -0.8347  -32.6289   29.4162 H   0  0  0  0  0  0  0  0  0  0  0  0
   -0.8069  -31.5454   28.0396 H   0  0  0  0  0  0  0  0  0  0  0  0
   -1.8936  -34.7772   30.1446 H   0  0  0  0  0  0  0  0  0  0  0  0
   -3.3002  -33.9300   29.4163 H   0  0  0  0  0  0  0  0  0  0  0  0
   -3.2345  -35.7250   29.4163 H   0  0  0  0  0  0  0  0  0  0  0  0
   -1.2855  -35.7334   24.9720 H   0  0  0  0  0  0  0  0  0  0  0  0
    6.5300  -30.7316   22.9145 H   0  0  0  0  0  0  0  0  0  0  0  0
    5.8810  -29.3509   23.8884 H   0  0  0  0  0  0  0  0  0  0  0  0
    3.8301  -29.3405   22.4928 H   0  0  0  0  0  0  0  0  0  0  0  0
    5.3067  -29.0782   21.5041 H   0  0  0  0  0  0  0  0  0  0  0  0
    4.4991  -30.6827   21.5041 H   0  0  0  0  0  0  0  0  0  0  0  0
    5.7270  -37.8501   30.3031 H   0  0  0  0  0  0  0  0  0  0  0  0
    4.4516  -37.2367   30.9478 H   0  0  0  0  0  0  0  0  0  0  0  0
    6.0496  -36.7905   33.2770 H   0  0  0  0  0  0  0  0  0  0  0  0
    7.2341  -37.6326   32.7239 H   0  0  0  0  0  0  0  0  0  0  0  0
    6.6041  -30.6324   33.7923 H   0  0  0  0  0  0  0  0  0  0  0  0
    8.5461  -34.6782   31.7768 H   0  0  0  0  0  0  0  0  0  0  0  0
    6.8968  -33.4609   29.5283 H   0  0  0  0  0  0  0  0  0  0  0  0
    5.7270  -32.1161   29.7443 H   0  0  0  0  0  0  0  0  0  0  0  0
    5.0476  -34.8443   32.4657 H   0  0  0  0  0  0  0  0  0  0  0  0
    5.7509  -32.7711   27.3656 H   0  0  0  0  0  0  0  0  0  0  0  0
    5.4704  -34.4887   27.7954 H   0  0  0  0  0  0  0  0  0  0  0  0
    1.1828  -31.9471   26.2753 H   0  0  0  0  0  0  0  0  0  0  0  0
    1.1256  -33.6815   30.2187 H   0  0  0  0  0  0  0  0  0  0  0  0
    0.1944  -33.6253   25.5684 H   0  0  0  0  0  0  0  0  0  0  0  0
    4.4771  -30.1179   26.0459 H   0  0  0  0  0  0  0  0  0  0  0  0
    7.2022  -35.4352   30.5828 H   0  0  0  0  0  0  0  0  0  0  0  0
    9.0792  -30.8993   33.7619 H   0  0  0  0  0  0  0  0  0  0  0  0
   10.8931  -33.0837   33.7413 H   0  0  0  0  0  0  0  0  0  0  0  0
   10.7217  -33.9666   32.1864 H   0  0  0  0  0  0  0  0  0  0  0  0
   10.9724  -32.1879   32.1864 H   0  0  0  0  0  0  0  0  0  0  0  0
  1 19  1  0
  1 36  1  0
  2 21  1  0
  3 22  2  0
  3 35  1  0
  4 23  1  0
  4 31  1  6
  4 32  1  0
  4 33  1  0
  5  6  1  0
  5 38  1  0
  7  8  1  0
 26  7  1  0
  8 26  1  0
  9 27  2  0
  9 39  1  0
 10 28  1  0
 10 29  2  0
 11 16  1  0
 11 34  1  0
 12 26  1  0
 12 28  1  0
 12 34  1  0
 13 14  1  0
 13 34  1  0
 13 40  2  0
 14 15  2  0
 14 20  1  0
 15 16  1  0
 15 17  1  0
 17 18  2  0
 17 24  1  0
 18 19  1  0
 19 20  2  0
 21 35  2  0
 21 36  1  0
 22 36  1  0
 23 24  1  0
 23 37  2  0
 24 25  2  0
 25 38  1  0
 27 29  1  0
 28 39  2  0
 29 30  1  0
 37 38  1  0
  1 41  1  0
  1 42  1  0
  2 43  1  0
  2 44  1  0
  2 45  1  0
  3 46  1  0
  5 47  1  0
  5 48  1  0
  6 49  1  0
  6 50  1  0
  6 51  1  0
  7 52  1  0
  7 53  1  0
  8 54  1  0
  8 55  1  0
  9 56  1  0
 10 57  1  0
 11 58  1  0
 11 59  1  0
 12 60  1  1
 16 61  1  0
 16 62  1  0
 18 63  1  0
 20 64  1  0
 22 65  1  0
 25 66  1  0
 26 67  1  6
 27 68  1  0
 30 69  1  0
 30 70  1  0
 30 71  1  0
M  END
>  <filename_input>  (17) 
7UAS_MBU_docked.sdf

>  <pdb_id>  (17) 
7UAS_MBU

>  <pose_rank>  (17) 
16

>  <num_atoms_heavy>  (17) 
40

>  <num_torsions>  (17) 
8

>  <pose>  (17) 
[5.832776523505748, -33.183325676536825, 29.499611724081106, -2.4068263878637333, 0.1768732255107332, -3.200785377520373, -6.248481347275449, 1.7988627527070602, -2.406765537154269, 2.9349610005838445, -1.9210696699174, 5.794354810831031, -2.588129080633192, 0.03480350523849263]

>  <energy>  (17) 
-497.02960802981335

>  <inter_energy>  (17) 
-536.1625280349213

>  <intra_energy>  (17) 
34.717497621643965

>  <rmsd>  (17) 
6.17494

>  <sdf_rank>  (17) 
0

$$$$

     RDKit          3D

 71 76  0  0  0  0  0  0  0  0999 V2000
    0.4564  -33.8137   33.8201 C   0  0  0  0  0  0  0  0  0  0  0  0
   -1.1383  -36.6082   33.3425 C   0  0  0  0  0  0  0  0  0  0  0  0
   -0.1357  -35.8958   36.8062 C   0  0  0  0  0  0  0  0  0  0  0  0
   -0.4056  -36.5142   29.6600 C   0  0  2  0  0  0  0  0  0  0  0  0
    2.2045  -35.5055   25.6467 C   0  0  0  0  0  0  0  0  0  0  0  0
    2.1692  -34.0618   25.1391 C   0  0  0  0  0  0  0  0  0  0  0  0
    7.7636  -33.5754   33.3788 C   0  0  0  0  0  0  0  0  0  0  0  0
    9.0847  -34.2658   33.6495 C   0  0  0  0  0  0  0  0  0  0  0  0
    6.2145  -39.5142   33.8738 C   0  0  0  0  0  0  0  0  0  0  0  0
    8.2149  -37.8682   34.7026 C   0  0  0  0  0  0  0  0  0  0  0  0
    5.9655  -35.5688   30.9266 C   0  0  0  0  0  0  0  0  0  0  0  0
    7.4144  -36.1056   33.0047 C   0  0  1  0  0  0  0  0  0  0  0  0
    5.0236  -35.6613   33.2212 C   0  0  0  0  0  0  0  0  0  0  0  0
    3.7214  -35.3307   32.6328 C   0  0  0  0  0  0  0  0  0  0  0  0
    3.4919  -35.5436   31.2715 C   0  0  0  0  0  0  0  0  0  0  0  0
    4.6192  -36.1453   30.4396 C   0  0  0  0  0  0  0  0  0  0  0  0
    2.2623  -35.1953   30.6940 C   0  0  0  0  0  0  0  0  0  0  0  0
    1.2809  -34.6513   31.5490 C   0  0  0  0  0  0  0  0  0  0  0  0
    1.5132  -34.4376   32.9133 C   0  0  0  0  0  0  0  0  0  0  0  0
    2.7455  -34.7826   33.4507 C   0  0  0  0  0  0  0  0  0  0  0  0
   -0.6662  -36.0877   34.6720 C   0  0  0  0  0  0  0  0  0  0  0  0
    0.3715  -34.7479   36.3214 C   0  0  0  0  0  0  0  0  0  0  0  0
    0.7629  -36.0219   28.7950 C   0  0  0  0  0  0  0  0  0  0  0  0
    1.9445  -35.4358   29.2802 C   0  0  0  0  0  0  0  0  0  0  0  0
    2.6682  -35.1559   28.1515 C   0  0  0  0  0  0  0  0  0  0  0  0
    7.7873  -34.9582   33.9733 C   0  0  2  0  0  0  0  0  0  0  0  0
    7.0774  -39.9449   34.8860 C   0  0  0  0  0  0  0  0  0  0  0  0
    7.3244  -37.4773   33.7020 C   0  0  0  0  0  0  0  0  0  0  0  0
    8.1033  -39.1088   35.3144 C   0  0  0  0  0  0  0  0  0  0  0  0
    9.0663  -39.5204   36.4079 C   0  0  0  0  0  0  0  0  0  0  0  0
   -0.9414  -35.4437   30.2552 F   0  0  0  0  0  0  0  0  0  0  0  0
   -0.0331  -37.4399   30.5882 F   0  0  0  0  0  0  0  0  0  0  0  0
   -1.3072  -37.1359   28.8870 F   0  0  0  0  0  0  0  0  0  0  0  0
    6.0949  -35.7893   32.3815 N   0  0  0  0  0  0  0  0  0  0  0  0
   -0.7467  -36.6793   35.7887 N   0  0  0  0  0  0  0  0  0  0  0  0
    0.2000  -34.8872   34.8366 N   0  0  0  0  0  0  0  0  0  0  0  0
    0.7607  -36.0907   27.4848 N   0  0  0  0  0  0  0  0  0  0  0  0
    1.9286  -35.5712   27.0883 N   0  0  0  0  0  0  0  0  0  0  0  0
    6.3505  -38.3044   33.3031 N   0  0  0  0  0  0  0  0  0  0  0  0
    5.1816  -35.8290   34.4316 O   0  0  0  0  0  0  0  0  0  0  0  0
    0.8375  -32.8998   34.2991 H   0  0  0  0  0  0  0  0  0  0  0  0
   -0.4505  -33.5072   33.2782 H   0  0  0  0  0  0  0  0  0  0  0  0
   -1.8694  -37.4142   33.5030 H   0  0  0  0  0  0  0  0  0  0  0  0
   -1.6107  -35.7921   32.7760 H   0  0  0  0  0  0  0  0  0  0  0  0
   -0.2802  -36.9989   32.7760 H   0  0  0  0  0  0  0  0  0  0  0  0
   -0.0839  -36.1931   37.8640 H   0  0  0  0  0  0  0  0  0  0  0  0
    1.4454  -36.0930   25.1094 H   0  0  0  0  0  0  0  0  0  0  0  0
    3.2105  -35.9125   25.4667 H   0  0  0  0  0  0  0  0  0  0  0  0
    2.1524  -33.3722   25.9960 H   0  0  0  0  0  0  0  0  0  0  0  0
    3.0628  -33.8659   24.5283 H   0  0  0  0  0  0  0  0  0  0  0  0
    1.2671  -33.9098   24.5283 H   0  0  0  0  0  0  0  0  0  0  0  0
    7.4549  -32.7171   33.9936 H   0  0  0  0  0  0  0  0  0  0  0  0
    7.2919  -33.1139   32.4988 H   0  0  0  0  0  0  0  0  0  0  0  0
    9.7032  -34.6192   32.8114 H   0  0  0  0  0  0  0  0  0  0  0  0
    9.9947  -34.0130   34.2134 H   0  0  0  0  0  0  0  0  0  0  0  0
    5.4062  -40.1800   33.5369 H   0  0  0  0  0  0  0  0  0  0  0  0
    9.0177  -37.1824   35.0113 H   0  0  0  0  0  0  0  0  0  0  0  0
    6.7916  -36.0731   30.4039 H   0  0  0  0  0  0  0  0  0  0  0  0
    6.0026  -34.4903   30.7133 H   0  0  0  0  0  0  0  0  0  0  0  0
    8.2130  -36.1780   32.2516 H   0  0  0  0  0  0  0  0  0  0  0  0
    4.4713  -35.8917   29.3795 H   0  0  0  0  0  0  0  0  0  0  0  0
    4.6210  -37.2396   30.5519 H   0  0  0  0  0  0  0  0  0  0  0  0
    0.2993  -34.3858   31.1295 H   0  0  0  0  0  0  0  0  0  0  0  0
    2.9468  -34.6220   34.5202 H   0  0  0  0  0  0  0  0  0  0  0  0
    0.8080  -33.9070   36.8802 H   0  0  0  0  0  0  0  0  0  0  0  0
    3.6610  -34.6839   28.1123 H   0  0  0  0  0  0  0  0  0  0  0  0
    7.3484  -35.4202   34.8700 H   0  0  0  0  0  0  0  0  0  0  0  0
    6.9460  -40.9380   35.3405 H   0  0  0  0  0  0  0  0  0  0  0  0
    8.6108  -39.3257   37.3900 H   0  0  0  0  0  0  0  0  0  0  0  0
    9.2908  -40.5932   36.3140 H   0  0  0  0  0  0  0  0  0  0  0  0
    9.9969  -38.9415   36.3140 H   0  0  0  0  0  0  0  0  0  0  0  0
  1 19  1  0
  1 36  1  0
  2 21  1  0
  3 22  2  0
  3 35  1  0
  4 23  1  0
  4 31  1  1
  4 32  1  0
  4 33  1  0
  5  6  1  0
  5 38  1  0
  7  8  1  0
 26  7  1  0
  8 26  1  0
  9 27  2  0
  9 39  1  0
 10 28  1  0
 10 29  2  0
 11 16  1  0
 11 34  1  0
 12 26  1  0
 12 28  1  0
 12 34  1  0
 13 14  1  0
 13 34  1  0
 13 40  2  0
 14 15  2  0
 14 20  1  0
 15 16  1  0
 15 17  1  0
 17 18  2  0
 17 24  1  0
 18 19  1  0
 19 20  2  0
 21 35  2  0
 21 36  1  0
 22 36  1  0
 23 24  1  0
 23 37  2  0
 24 25  2  0
 25 38  1  0
 27 29  1  0
 28 39  2  0
 29 30  1  0
 37 38  1  0
  1 41  1  0
  1 42  1  0
  2 43  1  0
  2 44  1  0
  2 45  1  0
  3 46  1  0
  5 47  1  0
  5 48  1  0
  6 49  1  0
  6 50  1  0
  6 51  1  0
  7 52  1  0
  7 53  1  0
  8 54  1  0
  8 55  1  0
  9 56  1  0
 10 57  1  0
 11 58  1  0
 11 59  1  0
 12 60  1  6
 16 61  1  0
 16 62  1  0
 18 63  1  0
 20 64  1  0
 22 65  1  0
 25 66  1  0
 26 67  1  1
 27 68  1  0
 30 69  1  0
 30 70  1  0
 30 71  1  0
M  END
>  <filename_input>  (18) 
7UAS_MBU_docked.sdf

>  <pdb_id>  (18) 
7UAS_MBU

>  <pose_rank>  (18) 
17

>  <num_atoms_heavy>  (18) 
40

>  <num_torsions>  (18) 
8

>  <pose>  (18) 
[5.965540249811638, -35.56877236875672, 30.92662557261567, -3.413748692552746, -1.1845919763151997, -2.340319527098763, 0.7902378621864281, -0.2793298864022054, -1.6989140787089347, -8.913284013090731, 0.9516701484373541, 9.258954547730665, 2.886730646019185, -5.810037438873887]

>  <energy>  (18) 
-62.635287561831205

>  <inter_energy>  (18) 
-182.45396021058775

>  <intra_energy>  (18) 
120.14582306268707

>  <rmsd>  (18) 
8.8252

>  <sdf_rank>  (18) 
0

$$$$

     RDKit          3D

 71 76  0  0  0  0  0  0  0  0999 V2000
    2.4202  -35.0384   24.1545 C   0  0  0  0  0  0  0  0  0  0  0  0
    4.1732  -37.6816   24.8763 C   0  0  0  0  0  0  0  0  0  0  0  0
    0.5951  -38.2420   24.2491 C   0  0  0  0  0  0  0  0  0  0  0  0
    2.1237  -37.4365   29.1490 C   0  0  2  0  0  0  0  0  0  0  0  0
   -1.3318  -35.0653   31.6735 C   0  0  0  0  0  0  0  0  0  0  0  0
   -2.2890  -33.9266   31.3120 C   0  0  0  0  0  0  0  0  0  0  0  0
    7.1806  -29.0484   30.2986 C   0  0  0  0  0  0  0  0  0  0  0  0
    7.1029  -30.2857   31.1693 C   0  0  0  0  0  0  0  0  0  0  0  0
    9.9214  -32.3792   28.0835 C   0  0  0  0  0  0  0  0  0  0  0  0
    8.1164  -32.5629   30.1100 C   0  0  0  0  0  0  0  0  0  0  0  0
    4.9059  -32.8297   29.6994 C   0  0  0  0  0  0  0  0  0  0  0  0
    6.5283  -31.0324   28.7813 C   0  0  1  0  0  0  0  0  0  0  0  0
    4.9249  -32.1442   27.3139 C   0  0  0  0  0  0  0  0  0  0  0  0
    3.8450  -33.1116   27.0919 C   0  0  0  0  0  0  0  0  0  0  0  0
    3.0753  -33.5632   28.1666 C   0  0  0  0  0  0  0  0  0  0  0  0
    3.3794  -33.0033   29.5519 C   0  0  0  0  0  0  0  0  0  0  0  0
    2.0657  -34.5161   27.9682 C   0  0  0  0  0  0  0  0  0  0  0  0
    1.8574  -34.9676   26.6480 C   0  0  0  0  0  0  0  0  0  0  0  0
    2.6307  -34.5144   25.5720 C   0  0  0  0  0  0  0  0  0  0  0  0
    3.6299  -33.5796   25.8049 C   0  0  0  0  0  0  0  0  0  0  0  0
    2.7067  -37.6697   24.5436 C   0  0  0  0  0  0  0  0  0  0  0  0
    0.5259  -36.9175   24.0236 C   0  0  0  0  0  0  0  0  0  0  0  0
    1.2007  -36.2925   29.5910 C   0  0  0  0  0  0  0  0  0  0  0  0
    1.1937  -34.9962   29.0484 C   0  0  0  0  0  0  0  0  0  0  0  0
    0.2254  -34.3395   29.7606 C   0  0  0  0  0  0  0  0  0  0  0  0
    6.1806  -30.1302   29.9892 C   0  0  2  0  0  0  0  0  0  0  0  0
   10.2305  -33.1555   29.2044 C   0  0  0  0  0  0  0  0  0  0  0  0
    7.8476  -31.8073   28.9682 C   0  0  0  0  0  0  0  0  0  0  0  0
    9.3126  -33.2533   30.2452 C   0  0  0  0  0  0  0  0  0  0  0  0
    9.5916  -34.0809   31.4820 C   0  0  0  0  0  0  0  0  0  0  0  0
    2.0257  -37.5387   27.8197 F   0  0  0  0  0  0  0  0  0  0  0  0
    1.8251  -38.6264   29.7425 F   0  0  0  0  0  0  0  0  0  0  0  0
    3.3837  -37.1668   29.5187 F   0  0  0  0  0  0  0  0  0  0  0  0
    5.4153  -32.0077   28.5828 N   0  0  0  0  0  0  0  0  0  0  0  0
    1.9176  -38.6598   24.5641 N   0  0  0  0  0  0  0  0  0  0  0  0
    1.9006  -36.4284   24.3765 N   0  0  0  0  0  0  0  0  0  0  0  0
    0.3182  -36.4178   30.5538 N   0  0  0  0  0  0  0  0  0  0  0  0
   -0.2871  -35.2283   30.6534 N   0  0  0  0  0  0  0  0  0  0  0  0
    8.7516  -31.7237   27.9846 N   0  0  0  0  0  0  0  0  0  0  0  0
    5.3966  -31.4564   26.4069 O   0  0  0  0  0  0  0  0  0  0  0  0
    1.6859  -34.4247   23.6121 H   0  0  0  0  0  0  0  0  0  0  0  0
    3.3353  -35.0122   23.5446 H   0  0  0  0  0  0  0  0  0  0  0  0
    4.3013  -37.6826   25.9688 H   0  0  0  0  0  0  0  0  0  0  0  0
    4.6382  -38.5835   24.4517 H   0  0  0  0  0  0  0  0  0  0  0  0
    4.6528  -36.7873   24.4517 H   0  0  0  0  0  0  0  0  0  0  0  0
   -0.2686  -38.9211   24.1962 H   0  0  0  0  0  0  0  0  0  0  0  0
   -0.8570  -34.8411   32.6401 H   0  0  0  0  0  0  0  0  0  0  0  0
   -1.9096  -35.9995   31.7313 H   0  0  0  0  0  0  0  0  0  0  0  0
   -2.6758  -33.4664   32.2332 H   0  0  0  0  0  0  0  0  0  0  0  0
   -1.7519  -33.1697   30.7215 H   0  0  0  0  0  0  0  0  0  0  0  0
   -3.1269  -34.3255   30.7215 H   0  0  0  0  0  0  0  0  0  0  0  0
    6.8390  -28.0783   30.6888 H   0  0  0  0  0  0  0  0  0  0  0  0
    7.9778  -28.5406   29.7361 H   0  0  0  0  0  0  0  0  0  0  0  0
    7.9121  -31.0303   31.1414 H   0  0  0  0  0  0  0  0  0  0  0  0
    6.9674  -30.4745   32.2445 H   0  0  0  0  0  0  0  0  0  0  0  0
   10.6515  -32.3030   27.2643 H   0  0  0  0  0  0  0  0  0  0  0  0
    7.3688  -32.6121   30.9154 H   0  0  0  0  0  0  0  0  0  0  0  0
    5.1281  -32.3304   30.6541 H   0  0  0  0  0  0  0  0  0  0  0  0
    5.3918  -33.8164   29.6814 H   0  0  0  0  0  0  0  0  0  0  0  0
    6.6584  -30.3799   27.9053 H   0  0  0  0  0  0  0  0  0  0  0  0
    3.0113  -33.6994   30.3200 H   0  0  0  0  0  0  0  0  0  0  0  0
    2.8807  -32.0309   29.6775 H   0  0  0  0  0  0  0  0  0  0  0  0
    1.0599  -35.7008   26.4571 H   0  0  0  0  0  0  0  0  0  0  0  0
    4.2480  -33.2120   24.9725 H   0  0  0  0  0  0  0  0  0  0  0  0
   -0.3338  -36.3320   23.6656 H   0  0  0  0  0  0  0  0  0  0  0  0
   -0.0802  -33.2904   29.6342 H   0  0  0  0  0  0  0  0  0  0  0  0
    5.0913  -30.1537   29.8379 H   0  0  0  0  0  0  0  0  0  0  0  0
   11.1928  -33.6852   29.2631 H   0  0  0  0  0  0  0  0  0  0  0  0
    9.3885  -33.4785   32.3797 H   0  0  0  0  0  0  0  0  0  0  0  0
    8.9434  -34.9696   31.4825 H   0  0  0  0  0  0  0  0  0  0  0  0
   10.6455  -34.3958   31.4825 H   0  0  0  0  0  0  0  0  0  0  0  0
  1 19  1  0
  1 36  1  0
  2 21  1  0
  3 22  2  0
  3 35  1  0
  4 23  1  0
  4 31  1  6
  4 32  1  0
  4 33  1  0
  5  6  1  0
  5 38  1  0
  7  8  1  0
 26  7  1  0
  8 26  1  0
  9 27  2  0
  9 39  1  0
 10 28  1  0
 10 29  2  0
 11 16  1  0
 11 34  1  0
 12 26  1  0
 12 28  1  0
 12 34  1  0
 13 14  1  0
 13 34  1  0
 13 40  2  0
 14 15  2  0
 14 20  1  0
 15 16  1  0
 15 17  1  0
 17 18  2  0
 17 24  1  0
 18 19  1  0
 19 20  2  0
 21 35  2  0
 21 36  1  0
 22 36  1  0
 23 24  1  0
 23 37  2  0
 24 25  2  0
 25 38  1  0
 27 29  1  0
 28 39  2  0
 29 30  1  0
 37 38  1  0
  1 41  1  0
  1 42  1  0
  2 43  1  0
  2 44  1  0
  2 45  1  0
  3 46  1  0
  5 47  1  0
  5 48  1  0
  6 49  1  0
  6 50  1  0
  6 51  1  0
  7 52  1  0
  7 53  1  0
  8 54  1  0
  8 55  1  0
  9 56  1  0
 10 57  1  0
 11 58  1  0
 11 59  1  0
 12 60  1  6
 16 61  1  0
 16 62  1  0
 18 63  1  0
 20 64  1  0
 22 65  1  0
 25 66  1  0
 26 67  1  1
 27 68  1  0
 30 69  1  0
 30 70  1  0
 30 71  1  0
M  END
>  <filename_input>  (19) 
7UAS_MBU_docked.sdf

>  <pdb_id>  (19) 
7UAS_MBU

>  <pose_rank>  (19) 
18

>  <num_atoms_heavy>  (19) 
40

>  <num_torsions>  (19) 
8

>  <pose>  (19) 
[4.9058655180536705, -32.82970259791465, 29.699404412571376, -0.9527755124382854, 0.3903554323293524, -0.2470073685914523, 2.8173278421617702, -2.314436236409309, -0.06138003172516718, -5.211941969073099, 0.8226982282800974, 0.04891217916980698, -1.8284586032477455, -1.696890777864735]

>  <energy>  (19) 
-477.84749838060577

>  <inter_energy>  (19) 
-558.7723310736956

>  <intra_energy>  (19) 
72.35749149527385

>  <rmsd>  (19) 
5.48528

>  <sdf_rank>  (19) 
0

$$$$

     RDKit          3D

 71 76  0  0  0  0  0  0  0  0999 V2000
    1.6335  -36.6619   30.9664 C   0  0  0  0  0  0  0  0  0  0  0  0
    0.8507  -35.4968   33.9006 C   0  0  0  0  0  0  0  0  0  0  0  0
   -1.6846  -35.0809   31.2721 C   0  0  0  0  0  0  0  0  0  0  0  0
    5.3364  -35.4861   26.8680 C   0  0  2  0  0  0  0  0  0  0  0  0
    3.6958  -31.3260   24.8832 C   0  0  0  0  0  0  0  0  0  0  0  0
    2.8737  -31.9200   23.7366 C   0  0  0  0  0  0  0  0  0  0  0  0
    4.6039  -31.1875   35.1715 C   0  0  0  0  0  0  0  0  0  0  0  0
    5.8620  -31.0355   36.0017 C   0  0  0  0  0  0  0  0  0  0  0  0
    9.4586  -33.9224   35.0474 C   0  0  0  0  0  0  0  0  0  0  0  0
    8.7407  -32.8835   32.6384 C   0  0  0  0  0  0  0  0  0  0  0  0
    5.6234  -31.5887   31.3496 C   0  0  0  0  0  0  0  0  0  0  0  0
    6.5954  -31.9585   33.7212 C   0  0  1  0  0  0  0  0  0  0  0  0
    5.2068  -33.6592   32.6537 C   0  0  0  0  0  0  0  0  0  0  0  0
    4.4060  -34.1367   31.5215 C   0  0  0  0  0  0  0  0  0  0  0  0
    4.5768  -33.5745   30.2542 C   0  0  0  0  0  0  0  0  0  0  0  0
    5.6268  -32.4810   30.0903 C   0  0  0  0  0  0  0  0  0  0  0  0
    3.7888  -33.9996   29.1749 C   0  0  0  0  0  0  0  0  0  0  0  0
    2.8495  -35.0215   29.4270 C   0  0  0  0  0  0  0  0  0  0  0  0
    2.6789  -35.5832   30.6983 C   0  0  0  0  0  0  0  0  0  0  0  0
    3.4671  -35.1313   31.7477 C   0  0  0  0  0  0  0  0  0  0  0  0
   -0.0375  -35.4774   32.6874 C   0  0  0  0  0  0  0  0  0  0  0  0
   -0.8166  -35.7210   30.4679 C   0  0  0  0  0  0  0  0  0  0  0  0
    4.6368  -34.1237   26.7660 C   0  0  0  0  0  0  0  0  0  0  0  0
    3.9515  -33.4801   27.8106 C   0  0  0  0  0  0  0  0  0  0  0  0
    3.4951  -32.3182   27.2468 C   0  0  0  0  0  0  0  0  0  0  0  0
    5.7457  -32.1533   34.9994 C   0  0  2  0  0  0  0  0  0  0  0  0
   10.3037  -34.1009   33.9481 C   0  0  0  0  0  0  0  0  0  0  0  0
    7.9333  -32.7227   33.7650 C   0  0  0  0  0  0  0  0  0  0  0  0
    9.9426  -33.5731   32.7127 C   0  0  0  0  0  0  0  0  0  0  0  0
   10.8188  -33.7328   31.4882 C   0  0  0  0  0  0  0  0  0  0  0  0
    6.1108  -35.4574   27.9573 F   0  0  0  0  0  0  0  0  0  0  0  0
    6.0753  -35.7935   25.7650 F   0  0  0  0  0  0  0  0  0  0  0  0
    4.4178  -36.4583   26.9568 F   0  0  0  0  0  0  0  0  0  0  0  0
    5.8023  -32.4331   32.5484 N   0  0  0  0  0  0  0  0  0  0  0  0
   -1.1835  -34.9466   32.5964 N   0  0  0  0  0  0  0  0  0  0  0  0
    0.4087  -35.8714   31.3220 N   0  0  0  0  0  0  0  0  0  0  0  0
    4.5995  -33.4207   25.6587 N   0  0  0  0  0  0  0  0  0  0  0  0
    3.9107  -32.3112   25.9518 N   0  0  0  0  0  0  0  0  0  0  0  0
    8.3007  -33.2473   34.9404 N   0  0  0  0  0  0  0  0  0  0  0  0
    5.3617  -34.3196   33.6824 O   0  0  0  0  0  0  0  0  0  0  0  0
    1.4606  -37.2751   30.0697 H   0  0  0  0  0  0  0  0  0  0  0  0
    1.9347  -37.3684   31.7539 H   0  0  0  0  0  0  0  0  0  0  0  0
    0.2308  -35.4833   34.8092 H   0  0  0  0  0  0  0  0  0  0  0  0
    1.4660  -36.4085   33.8901 H   0  0  0  0  0  0  0  0  0  0  0  0
    1.5051  -34.6126   33.8901 H   0  0  0  0  0  0  0  0  0  0  0  0
   -2.6654  -34.7060   30.9444 H   0  0  0  0  0  0  0  0  0  0  0  0
    4.6719  -31.0013   24.4936 H   0  0  0  0  0  0  0  0  0  0  0  0
    3.1414  -30.4738   25.3030 H   0  0  0  0  0  0  0  0  0  0  0  0
    2.0471  -32.5171   24.1491 H   0  0  0  0  0  0  0  0  0  0  0  0
    2.4657  -31.1067   23.1184 H   0  0  0  0  0  0  0  0  0  0  0  0
    3.5175  -32.5628   23.1184 H   0  0  0  0  0  0  0  0  0  0  0  0
    3.6684  -31.5197   35.6452 H   0  0  0  0  0  0  0  0  0  0  0  0
    4.0301  -30.5321   34.4997 H   0  0  0  0  0  0  0  0  0  0  0  0
    6.5478  -30.1964   35.8135 H   0  0  0  0  0  0  0  0  0  0  0  0
    6.0827  -30.9736   37.0775 H   0  0  0  0  0  0  0  0  0  0  0  0
    9.7473  -34.3437   36.0217 H   0  0  0  0  0  0  0  0  0  0  0  0
    8.4195  -32.4571   31.6766 H   0  0  0  0  0  0  0  0  0  0  0  0
    6.4462  -30.8614   31.2866 H   0  0  0  0  0  0  0  0  0  0  0  0
    4.6657  -31.0518   31.4175 H   0  0  0  0  0  0  0  0  0  0  0  0
    6.8373  -30.8883   33.6424 H   0  0  0  0  0  0  0  0  0  0  0  0
    5.3898  -31.8716   29.2058 H   0  0  0  0  0  0  0  0  0  0  0  0
    6.6198  -32.9358   29.9596 H   0  0  0  0  0  0  0  0  0  0  0  0
    2.2297  -35.3899   28.5962 H   0  0  0  0  0  0  0  0  0  0  0  0
    3.3474  -35.5601   32.7535 H   0  0  0  0  0  0  0  0  0  0  0  0
   -0.9686  -36.0549   29.4309 H   0  0  0  0  0  0  0  0  0  0  0  0
    2.9036  -31.5375   27.7474 H   0  0  0  0  0  0  0  0  0  0  0  0
    5.8415  -33.2486   35.0329 H   0  0  0  0  0  0  0  0  0  0  0  0
   11.2476  -34.6548   34.0593 H   0  0  0  0  0  0  0  0  0  0  0  0
   11.8561  -33.9219   31.8017 H   0  0  0  0  0  0  0  0  0  0  0  0
   10.4574  -34.5799   30.8867 H   0  0  0  0  0  0  0  0  0  0  0  0
   10.7794  -32.8127   30.8867 H   0  0  0  0  0  0  0  0  0  0  0  0
  1 19  1  0
  1 36  1  0
  2 21  1  0
  3 22  2  0
  3 35  1  0
  4 23  1  0
  4 31  1  1
  4 32  1  0
  4 33  1  0
  5  6  1  0
  5 38  1  0
  7  8  1  0
 26  7  1  0
  8 26  1  0
  9 27  2  0
  9 39  1  0
 10 28  1  0
 10 29  2  0
 11 16  1  0
 11 34  1  0
 12 26  1  0
 12 28  1  0
 12 34  1  0
 13 14  1  0
 13 34  1  0
 13 40  2  0
 14 15  2  0
 14 20  1  0
 15 16  1  0
 15 17  1  0
 17 18  2  0
 17 24  1  0
 18 19  1  0
 19 20  2  0
 21 35  2  0
 21 36  1  0
 22 36  1  0
 23 24  1  0
 23 37  2  0
 24 25  2  0
 25 38  1  0
 27 29  1  0
 28 39  2  0
 29 30  1  0
 37 38  1  0
  1 41  1  0
  1 42  1  0
  2 43  1  0
  2 44  1  0
  2 45  1  0
  3 46  1  0
  5 47  1  0
  5 48  1  0
  6 49  1  0
  6 50  1  0
  6 51  1  0
  7 52  1  0
  7 53  1  0
  8 54  1  0
  8 55  1  0
  9 56  1  0
 10 57  1  0
 11 58  1  0
 11 59  1  0
 12 60  1  6
 16 61  1  0
 16 62  1  0
 18 63  1  0
 20 64  1  0
 22 65  1  0
 25 66  1  0
 26 67  1  1
 27 68  1  0
 30 69  1  0
 30 70  1  0
 30 71  1  0
M  END
>  <filename_input>  (20) 
7UAS_MBU_docked.sdf

>  <pdb_id>  (20) 
7UAS_MBU

>  <pose_rank>  (20) 
19

>  <num_atoms_heavy>  (20) 
40

>  <num_torsions>  (20) 
8

>  <pose>  (20) 
[5.623358758748818, -31.588722893386127, 31.349644978993425, 1.3792631164307356, 0.9097295998547773, 2.4624371552783972, 0.2288613539168475, -2.282262099157309, -2.5192650439761413, 0.024526901006277912, 0.7300517937180954, -3.088229156921485, -6.063603834617419, 0.12636409628545384]

>  <energy>  (20) 
-324.4265842238304

>  <inter_energy>  (20) 
-387.1037752953695

>  <intra_energy>  (20) 
62.01160600673268

>  <rmsd>  (20) 
7.12973

>  <sdf_rank>  (20) 
0

$$$$

     RDKit          3D

 71 76  0  0  0  0  0  0  0  0999 V2000
   -0.3971  -34.8268   26.4229 C   0  0  0  0  0  0  0  0  0  0  0  0
   -1.1505  -32.0046   27.8539 C   0  0  0  0  0  0  0  0  0  0  0  0
   -1.0005  -34.9409   30.0596 C   0  0  0  0  0  0  0  0  0  0  0  0
    3.7335  -33.2082   30.1656 C   0  0  2  0  0  0  0  0  0  0  0  0
    6.7647  -37.0444   29.9876 C   0  0  0  0  0  0  0  0  0  0  0  0
    6.2477  -37.7841   31.2241 C   0  0  0  0  0  0  0  0  0  0  0  0
    4.7836  -28.5197   22.5723 C   0  0  0  0  0  0  0  0  0  0  0  0
    6.1515  -28.8211   23.1495 C   0  0  0  0  0  0  0  0  0  0  0  0
    7.4579  -33.1271   21.2018 C   0  0  0  0  0  0  0  0  0  0  0  0
    7.4264  -30.7292   22.4852 C   0  0  0  0  0  0  0  0  0  0  0  0
    5.5275  -32.8805   24.7160 C   0  0  0  0  0  0  0  0  0  0  0  0
    4.9202  -31.0666   22.9705 C   0  0  1  0  0  0  0  0  0  0  0  0
    3.1990  -32.0969   24.3620 C   0  0  0  0  0  0  0  0  0  0  0  0
    2.7887  -33.0410   25.4068 C   0  0  0  0  0  0  0  0  0  0  0  0
    3.7264  -33.5273   26.3210 C   0  0  0  0  0  0  0  0  0  0  0  0
    5.1631  -33.0291   26.2084 C   0  0  0  0  0  0  0  0  0  0  0  0
    3.3497  -34.4587   27.2994 C   0  0  0  0  0  0  0  0  0  0  0  0
    1.9953  -34.8525   27.3256 C   0  0  0  0  0  0  0  0  0  0  0  0
    1.0570  -34.3646   26.4077 C   0  0  0  0  0  0  0  0  0  0  0  0
    1.4655  -33.4526   25.4444 C   0  0  0  0  0  0  0  0  0  0  0  0
   -0.9918  -33.3251   28.5556 C   0  0  0  0  0  0  0  0  0  0  0  0
   -0.6630  -35.6324   28.9560 C   0  0  0  0  0  0  0  0  0  0  0  0
    4.4663  -34.4323   29.5994 C   0  0  0  0  0  0  0  0  0  0  0  0
    4.2775  -34.9724   28.3158 C   0  0  0  0  0  0  0  0  0  0  0  0
    5.1280  -36.0452   28.2747 C   0  0  0  0  0  0  0  0  0  0  0  0
    4.9568  -29.6385   23.5645 C   0  0  2  0  0  0  0  0  0  0  0  0
    8.6397  -32.3855   21.2915 C   0  0  0  0  0  0  0  0  0  0  0  0
    6.2734  -31.5078   22.3789 C   0  0  0  0  0  0  0  0  0  0  0  0
    8.6309  -31.1578   21.9456 C   0  0  0  0  0  0  0  0  0  0  0  0
    9.8802  -30.3124   22.0758 C   0  0  0  0  0  0  0  0  0  0  0  0
    2.4498  -33.3087   29.8061 F   0  0  0  0  0  0  0  0  0  0  0  0
    4.2574  -32.0247   29.7388 F   0  0  0  0  0  0  0  0  0  0  0  0
    3.8586  -33.1861   31.5001 F   0  0  0  0  0  0  0  0  0  0  0  0
    4.5282  -32.0192   24.0514 N   0  0  0  0  0  0  0  0  0  0  0  0
   -1.1960  -33.5596   29.7831 N   0  0  0  0  0  0  0  0  0  0  0  0
   -0.8060  -34.6249   27.8524 N   0  0  0  0  0  0  0  0  0  0  0  0
    5.3506  -35.1164   30.2859 N   0  0  0  0  0  0  0  0  0  0  0  0
    5.7649  -36.0976   29.4754 N   0  0  0  0  0  0  0  0  0  0  0  0
    6.3076  -32.6822   21.7374 N   0  0  0  0  0  0  0  0  0  0  0  0
    2.3962  -31.3779   23.7648 O   0  0  0  0  0  0  0  0  0  0  0  0
   -1.0125  -34.2153   25.7465 H   0  0  0  0  0  0  0  0  0  0  0  0
   -0.5236  -35.8644   26.0804 H   0  0  0  0  0  0  0  0  0  0  0  0
   -1.2469  -31.2021   28.6000 H   0  0  0  0  0  0  0  0  0  0  0  0
   -0.2686  -31.8157   27.2241 H   0  0  0  0  0  0  0  0  0  0  0  0
   -2.0520  -32.0299   27.2241 H   0  0  0  0  0  0  0  0  0  0  0  0
   -1.1120  -35.3905   31.0574 H   0  0  0  0  0  0  0  0  0  0  0  0
    7.6771  -36.4917   30.2561 H   0  0  0  0  0  0  0  0  0  0  0  0
    6.9756  -37.7854   29.2025 H   0  0  0  0  0  0  0  0  0  0  0  0
    6.6037  -37.2747   32.1317 H   0  0  0  0  0  0  0  0  0  0  0  0
    5.1477  -37.7900   31.2145 H   0  0  0  0  0  0  0  0  0  0  0  0
    6.6200  -38.8191   31.2145 H   0  0  0  0  0  0  0  0  0  0  0  0
    4.2527  -27.6018   22.8648 H   0  0  0  0  0  0  0  0  0  0  0  0
    4.3676  -28.4361   21.5575 H   0  0  0  0  0  0  0  0  0  0  0  0
    6.9307  -29.2680   22.5146 H   0  0  0  0  0  0  0  0  0  0  0  0
    6.9190  -28.2383   23.6798 H   0  0  0  0  0  0  0  0  0  0  0  0
    7.4694  -34.0962   20.6815 H   0  0  0  0  0  0  0  0  0  0  0  0
    7.3798  -29.7607   23.0047 H   0  0  0  0  0  0  0  0  0  0  0  0
    6.5242  -32.4240   24.6251 H   0  0  0  0  0  0  0  0  0  0  0  0
    5.5347  -33.8714   24.2386 H   0  0  0  0  0  0  0  0  0  0  0  0
    4.1923  -31.0653   22.1458 H   0  0  0  0  0  0  0  0  0  0  0  0
    5.8424  -33.7519   26.6838 H   0  0  0  0  0  0  0  0  0  0  0  0
    5.2600  -32.0567   26.7134 H   0  0  0  0  0  0  0  0  0  0  0  0
    1.6649  -35.5673   28.0936 H   0  0  0  0  0  0  0  0  0  0  0  0
    0.7430  -33.0584   24.7146 H   0  0  0  0  0  0  0  0  0  0  0  0
   -0.3553  -36.6858   28.8804 H   0  0  0  0  0  0  0  0  0  0  0  0
    5.2695  -36.7349   27.4295 H   0  0  0  0  0  0  0  0  0  0  0  0
    4.4820  -29.9018   24.5212 H   0  0  0  0  0  0  0  0  0  0  0  0
    9.5699  -32.7702   20.8480 H   0  0  0  0  0  0  0  0  0  0  0  0
   10.1089  -30.1577   23.1406 H   0  0  0  0  0  0  0  0  0  0  0  0
   10.7231  -30.8265   21.5908 H   0  0  0  0  0  0  0  0  0  0  0  0
    9.7164  -29.3388   21.5908 H   0  0  0  0  0  0  0  0  0  0  0  0
  1 19  1  0
  1 36  1  0
  2 21  1  0
  3 22  2  0
  3 35  1  0
  4 23  1  0
  4 31  1  1
  4 32  1  0
  4 33  1  0
  5  6  1  0
  5 38  1  0
  7  8  1  0
 26  7  1  0
  8 26  1  0
  9 27  2  0
  9 39  1  0
 10 28  1  0
 10 29  2  0
 11 16  1  0
 11 34  1  0
 12 26  1  0
 12 28  1  0
 12 34  1  0
 13 14  1  0
 13 34  1  0
 13 40  2  0
 14 15  2  0
 14 20  1  0
 15 16  1  0
 15 17  1  0
 17 18  2  0
 17 24  1  0
 18 19  1  0
 19 20  2  0
 21 35  2  0
 21 36  1  0
 22 36  1  0
 23 24  1  0
 23 37  2  0
 24 25  2  0
 25 38  1  0
 27 29  1  0
 28 39  2  0
 29 30  1  0
 37 38  1  0
  1 41  1  0
  1 42  1  0
  2 43  1  0
  2 44  1  0
  2 45  1  0
  3 46  1  0
  5 47  1  0
  5 48  1  0
  6 49  1  0
  6 50  1  0
  6 51  1  0
  7 52  1  0
  7 53  1  0
  8 54  1  0
  8 55  1  0
  9 56  1  0
 10 57  1  0
 11 58  1  0
 11 59  1  0
 12 60  1  6
 16 61  1  0
 16 62  1  0
 18 63  1  0
 20 64  1  0
 22 65  1  0
 25 66  1  0
 26 67  1  1
 27 68  1  0
 30 69  1  0
 30 70  1  0
 30 71  1  0
M  END
>  <filename_input>  (21) 
7UAS_MBU_docked.sdf

>  <pdb_id>  (21) 
7UAS_MBU

>  <pose_rank>  (21) 
20

>  <num_atoms_heavy>  (21) 
40

>  <num_torsions>  (21) 
8

>  <pose>  (21) 
[5.52749258283917, -32.880458893293934, 24.71599133294676, 2.047706287333692, -3.6073855148252822, -0.9856272742243606, 6.377583287403384, -0.685135508079701, 3.721925780746012, -3.8096240579692187, -2.722947972597506, -0.8589470566239622, 3.657015856682964, -1.3237721571754486]

>  <energy>  (21) 
-457.0508987403697

>  <inter_energy>  (21) 
-567.3135986008325

>  <intra_energy>  (21) 
112.30439802765588

>  <rmsd>  (21) 
7.49998

>  <sdf_rank>  (21) 
0

$$$$

     RDKit          3D

 71 76  0  0  0  0  0  0  0  0999 V2000
    1.2301  -31.9620   24.8223 C   0  0  0  0  0  0  0  0  0  0  0  0
    3.1494  -29.8980   26.4459 C   0  0  0  0  0  0  0  0  0  0  0  0
    4.5707  -31.3514   23.3836 C   0  0  0  0  0  0  0  0  0  0  0  0
    4.5948  -34.2434   29.2992 C   0  0  2  0  0  0  0  0  0  0  0  0
    6.8818  -37.6779   26.6704 C   0  0  0  0  0  0  0  0  0  0  0  0
    6.8892  -38.0106   25.1762 C   0  0  0  0  0  0  0  0  0  0  0  0
   -2.7936  -38.7513   28.6540 C   0  0  0  0  0  0  0  0  0  0  0  0
   -3.4005  -38.6352   30.0372 C   0  0  0  0  0  0  0  0  0  0  0  0
   -2.0043  -35.8647   33.2828 C   0  0  0  0  0  0  0  0  0  0  0  0
   -2.7750  -34.4494   31.0917 C   0  0  0  0  0  0  0  0  0  0  0  0
    0.4682  -36.2964   29.5589 C   0  0  0  0  0  0  0  0  0  0  0  0
   -2.1160  -36.4530   29.6147 C   0  0  1  0  0  0  0  0  0  0  0  0
   -0.9696  -35.2335   27.8373 C   0  0  0  0  0  0  0  0  0  0  0  0
    0.2594  -34.7529   27.1972 C   0  0  0  0  0  0  0  0  0  0  0  0
    1.4819  -35.3700   27.4726 C   0  0  0  0  0  0  0  0  0  0  0  0
    1.4864  -36.5577   28.4288 C   0  0  0  0  0  0  0  0  0  0  0  0
    2.6666  -34.8927   26.8936 C   0  0  0  0  0  0  0  0  0  0  0  0
    2.5568  -33.7927   26.0171 C   0  0  0  0  0  0  0  0  0  0  0  0
    1.3305  -33.1746   25.7431 C   0  0  0  0  0  0  0  0  0  0  0  0
    0.1783  -33.6648   26.3421 C   0  0  0  0  0  0  0  0  0  0  0  0
    3.4976  -30.5813   25.1523 C   0  0  0  0  0  0  0  0  0  0  0  0
    3.3909  -31.9843   23.2517 C   0  0  0  0  0  0  0  0  0  0  0  0
    4.8516  -35.2528   28.1717 C   0  0  0  0  0  0  0  0  0  0  0  0
    3.9748  -35.5256   27.1079 C   0  0  0  0  0  0  0  0  0  0  0  0
    4.6214  -36.4876   26.3783 C   0  0  0  0  0  0  0  0  0  0  0  0
   -2.0712  -37.9948   29.7366 C   0  0  2  0  0  0  0  0  0  0  0  0
   -2.5117  -34.5726   33.4488 C   0  0  0  0  0  0  0  0  0  0  0  0
   -2.2713  -35.7454   30.9752 C   0  0  0  0  0  0  0  0  0  0  0  0
   -2.9071  -33.8425   32.3326 C   0  0  0  0  0  0  0  0  0  0  0  0
   -3.4659  -32.4403   32.4514 C   0  0  0  0  0  0  0  0  0  0  0  0
    3.6283  -34.7463   30.0738 F   0  0  0  0  0  0  0  0  0  0  0  0
    4.2464  -33.0072   28.8433 F   0  0  0  0  0  0  0  0  0  0  0  0
    5.7222  -34.0540   29.9993 F   0  0  0  0  0  0  0  0  0  0  0  0
   -0.8512  -35.9923   28.9684 N   0  0  0  0  0  0  0  0  0  0  0  0
    4.6032  -30.5213   24.5380 N   0  0  0  0  0  0  0  0  0  0  0  0
    2.6644  -31.6416   24.5198 N   0  0  0  0  0  0  0  0  0  0  0  0
    5.9374  -35.9861   28.1028 N   0  0  0  0  0  0  0  0  0  0  0  0
    5.8046  -36.7353   27.0017 N   0  0  0  0  0  0  0  0  0  0  0  0
   -1.8910  -36.4233   32.0650 N   0  0  0  0  0  0  0  0  0  0  0  0
   -2.0911  -34.9825   27.3932 O   0  0  0  0  0  0  0  0  0  0  0  0
    0.6788  -32.2093   23.9031 H   0  0  0  0  0  0  0  0  0  0  0  0
    0.6862  -31.1201   25.2755 H   0  0  0  0  0  0  0  0  0  0  0  0
    3.4695  -30.5263   27.2902 H   0  0  0  0  0  0  0  0  0  0  0  0
    3.6623  -28.9262   26.4969 H   0  0  0  0  0  0  0  0  0  0  0  0
    2.0618  -29.7417   26.4969 H   0  0  0  0  0  0  0  0  0  0  0  0
    5.4105  -31.4627   22.6819 H   0  0  0  0  0  0  0  0  0  0  0  0
    6.7353  -38.6053   27.2434 H   0  0  0  0  0  0  0  0  0  0  0  0
    7.8437  -37.2100   26.9267 H   0  0  0  0  0  0  0  0  0  0  0  0
    6.9135  -39.1024   25.0438 H   0  0  0  0  0  0  0  0  0  0  0  0
    5.9818  -37.6043   24.7055 H   0  0  0  0  0  0  0  0  0  0  0  0
    7.7776  -37.5643   24.7055 H   0  0  0  0  0  0  0  0  0  0  0  0
   -2.4031  -39.7180   28.3035 H   0  0  0  0  0  0  0  0  0  0  0  0
   -3.1309  -38.5183   27.6333 H   0  0  0  0  0  0  0  0  0  0  0  0
   -4.2901  -38.0083   30.1973 H   0  0  0  0  0  0  0  0  0  0  0  0
   -3.7694  -39.3489   30.7886 H   0  0  0  0  0  0  0  0  0  0  0  0
   -1.6908  -36.4371   34.1683 H   0  0  0  0  0  0  0  0  0  0  0  0
   -3.0720  -33.9004   30.1859 H   0  0  0  0  0  0  0  0  0  0  0  0
    0.3885  -37.1901   30.1953 H   0  0  0  0  0  0  0  0  0  0  0  0
    0.8045  -35.4437   30.1671 H   0  0  0  0  0  0  0  0  0  0  0  0
   -2.9988  -36.1924   29.0125 H   0  0  0  0  0  0  0  0  0  0  0  0
    2.4913  -36.6812   28.8590 H   0  0  0  0  0  0  0  0  0  0  0  0
    1.2116  -37.4737   27.8853 H   0  0  0  0  0  0  0  0  0  0  0  0
    3.4658  -33.4072   25.5322 H   0  0  0  0  0  0  0  0  0  0  0  0
   -0.7941  -33.1923   26.1393 H   0  0  0  0  0  0  0  0  0  0  0  0
    3.0416  -32.6054   22.4137 H   0  0  0  0  0  0  0  0  0  0  0  0
    4.2531  -36.9694   25.4606 H   0  0  0  0  0  0  0  0  0  0  0  0
   -1.0618  -38.0446   30.1707 H   0  0  0  0  0  0  0  0  0  0  0  0
   -2.5978  -34.1363   34.4549 H   0  0  0  0  0  0  0  0  0  0  0  0
   -3.5711  -32.1763   33.5140 H   0  0  0  0  0  0  0  0  0  0  0  0
   -2.7819  -31.7304   31.9632 H   0  0  0  0  0  0  0  0  0  0  0  0
   -4.4506  -32.3954   31.9632 H   0  0  0  0  0  0  0  0  0  0  0  0
  1 19  1  0
  1 36  1  0
  2 21  1  0
  3 22  2  0
  3 35  1  0
  4 23  1  0
  4 31  1  1
  4 32  1  0
  4 33  1  0
  5  6  1  0
  5 38  1  0
  7  8  1  0
 26  7  1  0
  8 26  1  0
  9 27  2  0
  9 39  1  0
 10 28  1  0
 10 29  2  0
 11 16  1  0
 11 34  1  0
 12 26  1  0
 12 28  1  0
 12 34  1  0
 13 14  1  0
 13 34  1  0
 13 40  2  0
 14 15  2  0
 14 20  1  0
 15 16  1  0
 15 17  1  0
 17 18  2  0
 17 24  1  0
 18 19  1  0
 19 20  2  0
 21 35  2  0
 21 36  1  0
 22 36  1  0
 23 24  1  0
 23 37  2  0
 24 25  2  0
 25 38  1  0
 27 29  1  0
 28 39  2  0
 29 30  1  0
 37 38  1  0
  1 41  1  0
  1 42  1  0
  2 43  1  0
  2 44  1  0
  2 45  1  0
  3 46  1  0
  5 47  1  0
  5 48  1  0
  6 49  1  0
  6 50  1  0
  6 51  1  0
  7 52  1  0
  7 53  1  0
  8 54  1  0
  8 55  1  0
  9 56  1  0
 10 57  1  0
 11 58  1  0
 11 59  1  0
 12 60  1  6
 16 61  1  0
 16 62  1  0
 18 63  1  0
 20 64  1  0
 22 65  1  0
 25 66  1  0
 26 67  1  1
 27 68  1  0
 30 69  1  0
 30 70  1  0
 30 71  1  0
M  END
>  <filename_input>  (22) 
7UAS_MBU_docked.sdf

>  <pdb_id>  (22) 
7UAS_MBU

>  <pose_rank>  (22) 
21

>  <num_atoms_heavy>  (22) 
40

>  <num_torsions>  (22) 
8

>  <pose>  (22) 
[0.4682438883606142, -36.296392293370616, 29.55893680798177, 0.05325934352661044, -1.2641260319036567, 1.5445488063011037, 28.381627182111465, -0.18889795089296535, -0.055057011781503615, 14.04245420991227, 13.17556302998015, 6.209811028302035, 0.8095561918238116, -0.297909962875723]

>  <energy>  (22) 
-407.21992605760727

>  <inter_energy>  (22) 
-428.0418284365758

>  <intra_energy>  (22) 
17.56834008288265

>  <rmsd>  (22) 
7.67521

>  <sdf_rank>  (22) 
0

$$$$

     RDKit          3D

 71 76  0  0  0  0  0  0  0  0999 V2000
    3.2266  -35.2453   24.8254 C   0  0  0  0  0  0  0  0  0  0  0  0
    4.5367  -37.8091   26.3389 C   0  0  0  0  0  0  0  0  0  0  0  0
    1.3735  -38.4240   24.5708 C   0  0  0  0  0  0  0  0  0  0  0  0
    5.4204  -30.6186   27.7291 C   0  0  2  0  0  0  0  0  0  0  0  0
    9.5791  -32.5488   29.4366 C   0  0  0  0  0  0  0  0  0  0  0  0
    9.6581  -33.0477   30.8817 C   0  0  0  0  0  0  0  0  0  0  0  0
    1.2390  -34.2347   34.1416 C   0  0  0  0  0  0  0  0  0  0  0  0
   -0.1897  -33.7489   34.0072 C   0  0  0  0  0  0  0  0  0  0  0  0
   -2.8981  -35.0468   30.4797 C   0  0  0  0  0  0  0  0  0  0  0  0
   -1.0876  -33.0261   30.2865 C   0  0  0  0  0  0  0  0  0  0  0  0
    2.6682  -33.1121   30.9033 C   0  0  0  0  0  0  0  0  0  0  0  0
    0.5748  -34.4379   31.6553 C   0  0  1  0  0  0  0  0  0  0  0  0
    1.6681  -34.9187   29.5260 C   0  0  0  0  0  0  0  0  0  0  0  0
    2.7198  -34.6614   28.5367 C   0  0  0  0  0  0  0  0  0  0  0  0
    3.8897  -33.9971   28.9125 C   0  0  0  0  0  0  0  0  0  0  0  0
    4.0398  -33.5785   30.3710 C   0  0  0  0  0  0  0  0  0  0  0  0
    4.8835  -33.7142   27.9643 C   0  0  0  0  0  0  0  0  0  0  0  0
    4.6537  -34.1487   26.6420 C   0  0  0  0  0  0  0  0  0  0  0  0
    3.4797  -34.8136   26.2669 C   0  0  0  0  0  0  0  0  0  0  0  0
    2.5108  -35.0675   27.2278 C   0  0  0  0  0  0  0  0  0  0  0  0
    3.2743  -37.8278   25.5220 C   0  0  0  0  0  0  0  0  0  0  0  0
    1.4301  -37.1269   24.2182 C   0  0  0  0  0  0  0  0  0  0  0  0
    6.4169  -31.6829   28.2091 C   0  0  0  0  0  0  0  0  0  0  0  0
    6.1536  -33.0599   28.3058 C   0  0  0  0  0  0  0  0  0  0  0  0
    7.3212  -33.5920   28.7849 C   0  0  0  0  0  0  0  0  0  0  0  0
    0.7940  -33.5294   32.8884 C   0  0  2  0  0  0  0  0  0  0  0  0
   -3.2414  -33.8877   29.7774 C   0  0  0  0  0  0  0  0  0  0  0  0
   -0.7858  -34.2048   30.9696 C   0  0  0  0  0  0  0  0  0  0  0  0
   -2.3208  -32.8497   29.6752 C   0  0  0  0  0  0  0  0  0  0  0  0
   -2.6360  -31.5725   28.9256 C   0  0  0  0  0  0  0  0  0  0  0  0
    4.4960  -30.4764   28.6843 F   0  0  0  0  0  0  0  0  0  0  0  0
    4.8334  -30.9312   26.5396 F   0  0  0  0  0  0  0  0  0  0  0  0
    6.0656  -29.4644   27.5090 F   0  0  0  0  0  0  0  0  0  0  0  0
    1.6668  -34.1731   30.6720 N   0  0  0  0  0  0  0  0  0  0  0  0
    2.4933  -38.8109   25.3576 N   0  0  0  0  0  0  0  0  0  0  0  0
    2.6162  -36.6075   24.9778 N   0  0  0  0  0  0  0  0  0  0  0  0
    7.6363  -31.3958   28.5991 N   0  0  0  0  0  0  0  0  0  0  0  0
    8.1956  -32.5622   28.9424 N   0  0  0  0  0  0  0  0  0  0  0  0
   -1.6928  -35.1852   31.0594 N   0  0  0  0  0  0  0  0  0  0  0  0
    0.7986  -35.7763   29.3625 O   0  0  0  0  0  0  0  0  0  0  0  0
    2.5320  -34.5557   24.3233 H   0  0  0  0  0  0  0  0  0  0  0  0
    4.1379  -35.2473   24.2093 H   0  0  0  0  0  0  0  0  0  0  0  0
    4.2813  -37.8129   27.4088 H   0  0  0  0  0  0  0  0  0  0  0  0
    5.1395  -38.6984   26.1027 H   0  0  0  0  0  0  0  0  0  0  0  0
    5.1129  -36.9023   26.1027 H   0  0  0  0  0  0  0  0  0  0  0  0
    0.5581  -39.1045   24.2845 H   0  0  0  0  0  0  0  0  0  0  0  0
    9.9660  -31.5201   29.3910 H   0  0  0  0  0  0  0  0  0  0  0  0
   10.1803  -33.2189   28.8045 H   0  0  0  0  0  0  0  0  0  0  0  0
    9.5240  -32.2002   31.5700 H   0  0  0  0  0  0  0  0  0  0  0  0
    8.8664  -33.7911   31.0567 H   0  0  0  0  0  0  0  0  0  0  0  0
   10.6406  -33.5103   31.0567 H   0  0  0  0  0  0  0  0  0  0  0  0
    1.9269  -33.7353   34.8397 H   0  0  0  0  0  0  0  0  0  0  0  0
    1.7155  -35.2008   34.3643 H   0  0  0  0  0  0  0  0  0  0  0  0
   -1.0085  -34.4734   33.8863 H   0  0  0  0  0  0  0  0  0  0  0  0
   -0.8515  -33.1013   34.6010 H   0  0  0  0  0  0  0  0  0  0  0  0
   -3.6303  -35.8638   30.5597 H   0  0  0  0  0  0  0  0  0  0  0  0
   -0.3363  -32.2245   30.2316 H   0  0  0  0  0  0  0  0  0  0  0  0
    2.7432  -32.9066   31.9813 H   0  0  0  0  0  0  0  0  0  0  0  0
    2.3617  -32.1959   30.3773 H   0  0  0  0  0  0  0  0  0  0  0  0
    0.5860  -35.4810   32.0045 H   0  0  0  0  0  0  0  0  0  0  0  0
    4.7641  -32.7540   30.4454 H   0  0  0  0  0  0  0  0  0  0  0  0
    4.3999  -34.4300   30.9670 H   0  0  0  0  0  0  0  0  0  0  0  0
    5.4232  -33.9586   25.8793 H   0  0  0  0  0  0  0  0  0  0  0  0
    1.5820  -35.5883   26.9521 H   0  0  0  0  0  0  0  0  0  0  0  0
    0.7652  -36.5775   23.5355 H   0  0  0  0  0  0  0  0  0  0  0  0
    7.5153  -34.6528   29.0016 H   0  0  0  0  0  0  0  0  0  0  0  0
    1.1561  -32.6577   32.3236 H   0  0  0  0  0  0  0  0  0  0  0  0
   -4.2325  -33.7971   29.3089 H   0  0  0  0  0  0  0  0  0  0  0  0
   -2.8353  -30.7647   29.6451 H   0  0  0  0  0  0  0  0  0  0  0  0
   -1.7788  -31.2973   28.2935 H   0  0  0  0  0  0  0  0  0  0  0  0
   -3.5228  -31.7277   28.2935 H   0  0  0  0  0  0  0  0  0  0  0  0
  1 19  1  0
  1 36  1  0
  2 21  1  0
  3 22  2  0
  3 35  1  0
  4 23  1  0
  4 31  1  1
  4 32  1  0
  4 33  1  0
  5  6  1  0
  5 38  1  0
  7  8  1  0
 26  7  1  0
  8 26  1  0
  9 27  2  0
  9 39  1  0
 10 28  1  0
 10 29  2  0
 11 16  1  0
 11 34  1  0
 12 26  1  0
 12 28  1  0
 12 34  1  0
 13 14  1  0
 13 34  1  0
 13 40  2  0
 14 15  2  0
 14 20  1  0
 15 16  1  0
 15 17  1  0
 17 18  2  0
 17 24  1  0
 18 19  1  0
 19 20  2  0
 21 35  2  0
 21 36  1  0
 22 36  1  0
 23 24  1  0
 23 37  2  0
 24 25  2  0
 25 38  1  0
 27 29  1  0
 28 39  2  0
 29 30  1  0
 37 38  1  0
  1 41  1  0
  1 42  1  0
  2 43  1  0
  2 44  1  0
  2 45  1  0
  3 46  1  0
  5 47  1  0
  5 48  1  0
  6 49  1  0
  6 50  1  0
  6 51  1  0
  7 52  1  0
  7 53  1  0
  8 54  1  0
  8 55  1  0
  9 56  1  0
 10 57  1  0
 11 58  1  0
 11 59  1  0
 12 60  1  1
 16 61  1  0
 16 62  1  0
 18 63  1  0
 20 64  1  0
 22 65  1  0
 25 66  1  0
 26 67  1  6
 27 68  1  0
 30 69  1  0
 30 70  1  0
 30 71  1  0
M  END
>  <filename_input>  (23) 
7UAS_MBU_docked.sdf

>  <pdb_id>  (23) 
7UAS_MBU

>  <pose_rank>  (23) 
22

>  <num_atoms_heavy>  (23) 
40

>  <num_torsions>  (23) 
8

>  <pose>  (23) 
[2.6682133001750685, -33.112070484399716, 30.903257686819245, -0.3727790106292663, -0.30052517473476614, 2.623382572120982, -3.175751249588477, -0.17384596971088417, -1.5615363018628583, -2.282460954839758, 1.2136132755248712, 0.8621355145987932, -1.5223839570269224, -0.4961947649639646]

>  <energy>  (23) 
-517.6911689163378

>  <inter_energy>  (23) 
-577.87974633055

>  <intra_energy>  (23) 
57.48889785223833

>  <rmsd>  (23) 
7.8716

>  <sdf_rank>  (23) 
0

$$$$

     RDKit          3D

 71 76  0  0  0  0  0  0  0  0999 V2000
   -0.7162  -31.7674   27.5221 C   0  0  0  0  0  0  0  0  0  0  0  0
   -1.8265  -31.0083   30.4837 C   0  0  0  0  0  0  0  0  0  0  0  0
   -3.5661  -33.7518   28.7642 C   0  0  0  0  0  0  0  0  0  0  0  0
    2.0952  -35.7778   24.8113 C   0  0  2  0  0  0  0  0  0  0  0  0
    1.1033  -39.9487   27.1686 C   0  0  0  0  0  0  0  0  0  0  0  0
    0.1565  -40.5086   26.1040 C   0  0  0  0  0  0  0  0  0  0  0  0
    5.1584  -34.2562   32.9570 C   0  0  0  0  0  0  0  0  0  0  0  0
    6.3790  -33.4351   33.3189 C   0  0  0  0  0  0  0  0  0  0  0  0
    7.6099  -30.8151   28.3772 C   0  0  0  0  0  0  0  0  0  0  0  0
    8.2041  -32.7937   30.1466 C   0  0  0  0  0  0  0  0  0  0  0  0
    4.9102  -34.4991   29.1604 C   0  0  0  0  0  0  0  0  0  0  0  0
    5.7468  -32.7892   30.9160 C   0  0  1  0  0  0  0  0  0  0  0  0
    3.4809  -32.6591   30.0163 C   0  0  0  0  0  0  0  0  0  0  0  0
    2.4190  -33.1587   29.1366 C   0  0  0  0  0  0  0  0  0  0  0  0
    2.4642  -34.4696   28.6561 C   0  0  0  0  0  0  0  0  0  0  0  0
    3.6269  -35.3539   29.0932 C   0  0  0  0  0  0  0  0  0  0  0  0
    1.4725  -34.9428   27.7848 C   0  0  0  0  0  0  0  0  0  0  0  0
    0.4347  -34.0497   27.4450 C   0  0  0  0  0  0  0  0  0  0  0  0
    0.3916  -32.7355   27.9268 C   0  0  0  0  0  0  0  0  0  0  0  0
    1.3954  -32.2951   28.7783 C   0  0  0  0  0  0  0  0  0  0  0  0
   -2.3507  -32.1152   29.6112 C   0  0  0  0  0  0  0  0  0  0  0  0
   -2.6865  -33.5549   27.7654 C   0  0  0  0  0  0  0  0  0  0  0  0
    1.7131  -36.7194   25.9618 C   0  0  0  0  0  0  0  0  0  0  0  0
    1.4398  -36.3226   27.2820 C   0  0  0  0  0  0  0  0  0  0  0  0
    1.1645  -37.4949   27.9345 C   0  0  0  0  0  0  0  0  0  0  0  0
    6.1727  -33.9026   31.9024 C   0  0  2  0  0  0  0  0  0  0  0  0
    8.9178  -31.3052   28.4391 C   0  0  0  0  0  0  0  0  0  0  0  0
    6.9109  -32.2799   30.0434 C   0  0  0  0  0  0  0  0  0  0  0  0
    9.2292  -32.3164   29.3422 C   0  0  0  0  0  0  0  0  0  0  0  0
   10.6271  -32.8877   29.4518 C   0  0  0  0  0  0  0  0  0  0  0  0
    2.3803  -36.5386   23.7497 F   0  0  0  0  0  0  0  0  0  0  0  0
    3.1460  -34.9636   25.1112 F   0  0  0  0  0  0  0  0  0  0  0  0
    1.0739  -34.9501   24.5490 F   0  0  0  0  0  0  0  0  0  0  0  0
    4.6733  -33.3278   30.0288 N   0  0  0  0  0  0  0  0  0  0  0  0
   -3.3399  -32.8673   29.8547 N   0  0  0  0  0  0  0  0  0  0  0  0
   -1.9299  -32.3330   28.1991 N   0  0  0  0  0  0  0  0  0  0  0  0
    1.6183  -38.0202   25.8190 N   0  0  0  0  0  0  0  0  0  0  0  0
    1.2731  -38.4968   27.0211 N   0  0  0  0  0  0  0  0  0  0  0  0
    6.6397  -31.3014   29.1711 N   0  0  0  0  0  0  0  0  0  0  0  0
    3.3350  -31.6712   30.7380 O   0  0  0  0  0  0  0  0  0  0  0  0
   -0.5019  -30.7502   27.8818 H   0  0  0  0  0  0  0  0  0  0  0  0
   -0.8330  -31.6768   26.4321 H   0  0  0  0  0  0  0  0  0  0  0  0
   -1.9562  -31.2822   31.5412 H   0  0  0  0  0  0  0  0  0  0  0  0
   -0.7582  -30.8509   30.2742 H   0  0  0  0  0  0  0  0  0  0  0  0
   -2.3816  -30.0820   30.2742 H   0  0  0  0  0  0  0  0  0  0  0  0
   -4.3654  -34.5071   28.7402 H   0  0  0  0  0  0  0  0  0  0  0  0
    0.6884  -40.1616   28.1649 H   0  0  0  0  0  0  0  0  0  0  0  0
    2.0859  -40.4276   27.0460 H   0  0  0  0  0  0  0  0  0  0  0  0
   -0.6911  -41.0099   26.5943 H   0  0  0  0  0  0  0  0  0  0  0  0
   -0.2171  -39.6861   25.4764 H   0  0  0  0  0  0  0  0  0  0  0  0
    0.6973  -41.2323   25.4764 H   0  0  0  0  0  0  0  0  0  0  0  0
    5.0693  -35.2946   33.3090 H   0  0  0  0  0  0  0  0  0  0  0  0
    4.0716  -34.1264   33.0672 H   0  0  0  0  0  0  0  0  0  0  0  0
    6.2714  -32.3691   33.5681 H   0  0  0  0  0  0  0  0  0  0  0  0
    7.1874  -33.5257   34.0593 H   0  0  0  0  0  0  0  0  0  0  0  0
    7.3691  -30.0137   27.6632 H   0  0  0  0  0  0  0  0  0  0  0  0
    8.4141  -33.5892   30.8766 H   0  0  0  0  0  0  0  0  0  0  0  0
    5.7320  -35.1024   29.5737 H   0  0  0  0  0  0  0  0  0  0  0  0
    5.1793  -34.1592   28.1495 H   0  0  0  0  0  0  0  0  0  0  0  0
    5.3918  -31.9351   31.5115 H   0  0  0  0  0  0  0  0  0  0  0  0
    3.7640  -36.1686   28.3668 H   0  0  0  0  0  0  0  0  0  0  0  0
    3.4148  -35.7847   30.0828 H   0  0  0  0  0  0  0  0  0  0  0  0
   -0.3684  -34.3975   26.7786 H   0  0  0  0  0  0  0  0  0  0  0  0
    1.3789  -31.2661   29.1668 H   0  0  0  0  0  0  0  0  0  0  0  0
   -2.5533  -34.1483   26.8488 H   0  0  0  0  0  0  0  0  0  0  0  0
    0.9043  -37.6054   28.9976 H   0  0  0  0  0  0  0  0  0  0  0  0
    6.7618  -34.4794   31.1742 H   0  0  0  0  0  0  0  0  0  0  0  0
    9.6951  -30.8940   27.7782 H   0  0  0  0  0  0  0  0  0  0  0  0
   10.8961  -32.9977   30.5128 H   0  0  0  0  0  0  0  0  0  0  0  0
   10.6606  -33.8717   28.9612 H   0  0  0  0  0  0  0  0  0  0  0  0
   11.3402  -32.2089   28.9612 H   0  0  0  0  0  0  0  0  0  0  0  0
  1 19  1  0
  1 36  1  0
  2 21  1  0
  3 22  2  0
  3 35  1  0
  4 23  1  0
  4 31  1  6
  4 32  1  0
  4 33  1  0
  5  6  1  0
  5 38  1  0
  7  8  1  0
 26  7  1  0
  8 26  1  0
  9 27  2  0
  9 39  1  0
 10 28  1  0
 10 29  2  0
 11 16  1  0
 11 34  1  0
 12 26  1  0
 12 28  1  0
 12 34  1  0
 13 14  1  0
 13 34  1  0
 13 40  2  0
 14 15  2  0
 14 20  1  0
 15 16  1  0
 15 17  1  0
 17 18  2  0
 17 24  1  0
 18 19  1  0
 19 20  2  0
 21 35  2  0
 21 36  1  0
 22 36  1  0
 23 24  1  0
 23 37  2  0
 24 25  2  0
 25 38  1  0
 27 29  1  0
 28 39  2  0
 29 30  1  0
 37 38  1  0
  1 41  1  0
  1 42  1  0
  2 43  1  0
  2 44  1  0
  2 45  1  0
  3 46  1  0
  5 47  1  0
  5 48  1  0
  6 49  1  0
  6 50  1  0
  6 51  1  0
  7 52  1  0
  7 53  1  0
  8 54  1  0
  8 55  1  0
  9 56  1  0
 10 57  1  0
 11 58  1  0
 11 59  1  0
 12 60  1  1
 16 61  1  0
 16 62  1  0
 18 63  1  0
 20 64  1  0
 22 65  1  0
 25 66  1  0
 26 67  1  6
 27 68  1  0
 30 69  1  0
 30 70  1  0
 30 71  1  0
M  END
>  <filename_input>  (24) 
7UAS_MBU_docked.sdf

>  <pdb_id>  (24) 
7UAS_MBU

>  <pose_rank>  (24) 
23

>  <num_atoms_heavy>  (24) 
40

>  <num_torsions>  (24) 
8

>  <pose>  (24) 
[4.910244828693568, -34.49913497049299, 29.1604249617865, -2.143967711209555, -3.234537597713176, -3.3854338261955035, -3.423342674943611, 1.634077642860607, 1.7680425686829193, -3.5005662388283776, -2.4746570702350965, -0.10577588984335065, 3.572532627866511, 0.18008177381484064]

>  <energy>  (24) 
-506.65866062301563

>  <inter_energy>  (24) 
-523.097084694659

>  <intra_energy>  (24) 
23.103305761098675

>  <rmsd>  (24) 
5.9259

>  <sdf_rank>  (24) 
0

$$$$

     RDKit          3D

 71 76  0  0  0  0  0  0  0  0999 V2000
   -1.3213  -33.0411   29.9439 C   0  0  0  0  0  0  0  0  0  0  0  0
   -1.4811  -35.4267   32.1491 C   0  0  0  0  0  0  0  0  0  0  0  0
   -3.3446  -35.9865   29.0307 C   0  0  0  0  0  0  0  0  0  0  0  0
    1.6700  -32.9348   25.1243 C   0  0  2  0  0  0  0  0  0  0  0  0
    2.1999  -37.6447   23.9108 C   0  0  0  0  0  0  0  0  0  0  0  0
    3.6072  -38.2296   24.0543 C   0  0  0  0  0  0  0  0  0  0  0  0
    5.1563  -31.0465   31.0288 C   0  0  0  0  0  0  0  0  0  0  0  0
    6.6686  -31.0673   31.1168 C   0  0  0  0  0  0  0  0  0  0  0  0
    5.4523  -36.7457   33.1819 C   0  0  0  0  0  0  0  0  0  0  0  0
    5.7630  -34.1489   33.9292 C   0  0  0  0  0  0  0  0  0  0  0  0
    5.0296  -33.8268   29.0211 C   0  0  0  0  0  0  0  0  0  0  0  0
    5.8817  -33.4891   31.4430 C   0  0  1  0  0  0  0  0  0  0  0  0
    3.4944  -33.6709   30.9654 C   0  0  0  0  0  0  0  0  0  0  0  0
    2.3837  -33.8398   30.0225 C   0  0  0  0  0  0  0  0  0  0  0  0
    2.6116  -34.3964   28.7618 C   0  0  0  0  0  0  0  0  0  0  0  0
    4.0304  -34.8367   28.4180 C   0  0  0  0  0  0  0  0  0  0  0  0
    1.5619  -34.5268   27.8410 C   0  0  0  0  0  0  0  0  0  0  0  0
    0.2843  -34.0962   28.2563 C   0  0  0  0  0  0  0  0  0  0  0  0
    0.0580  -33.5375   29.5202 C   0  0  0  0  0  0  0  0  0  0  0  0
    1.1213  -33.4119   30.4035 C   0  0  0  0  0  0  0  0  0  0  0  0
   -2.1252  -35.4482   30.7904 C   0  0  0  0  0  0  0  0  0  0  0  0
   -2.8719  -34.7870   28.6462 C   0  0  0  0  0  0  0  0  0  0  0  0
    1.7791  -34.4564   25.2944 C   0  0  0  0  0  0  0  0  0  0  0  0
    1.7283  -35.1445   26.5186 C   0  0  0  0  0  0  0  0  0  0  0  0
    1.8782  -36.4606   26.1704 C   0  0  0  0  0  0  0  0  0  0  0  0
    5.8481  -32.0244   31.9405 C   0  0  2  0  0  0  0  0  0  0  0  0
    5.4644  -36.4238   34.5424 C   0  0  0  0  0  0  0  0  0  0  0  0
    5.7359  -34.5160   32.5832 C   0  0  0  0  0  0  0  0  0  0  0  0
    5.6238  -35.0979   34.9320 C   0  0  0  0  0  0  0  0  0  0  0  0
    5.6423  -34.6898   36.3899 C   0  0  0  0  0  0  0  0  0  0  0  0
    2.6408  -32.3798   25.8569 F   0  0  0  0  0  0  0  0  0  0  0  0
    0.4539  -32.4401   25.4900 F   0  0  0  0  0  0  0  0  0  0  0  0
    1.8032  -32.6158   23.8292 F   0  0  0  0  0  0  0  0  0  0  0  0
    4.7678  -33.6836   30.4678 N   0  0  0  0  0  0  0  0  0  0  0  0
   -2.8814  -36.3510   30.3250 N   0  0  0  0  0  0  0  0  0  0  0  0
   -2.1681  -34.2776   29.8704 N   0  0  0  0  0  0  0  0  0  0  0  0
    1.9499  -35.2777   24.2855 N   0  0  0  0  0  0  0  0  0  0  0  0
    2.0009  -36.5051   24.8165 N   0  0  0  0  0  0  0  0  0  0  0  0
    5.5888  -35.8002   32.2356 N   0  0  0  0  0  0  0  0  0  0  0  0
    3.3206  -33.5233   32.1762 O   0  0  0  0  0  0  0  0  0  0  0  0
   -1.2986  -32.6388   30.9674 H   0  0  0  0  0  0  0  0  0  0  0  0
   -1.6977  -32.2223   29.3129 H   0  0  0  0  0  0  0  0  0  0  0  0
   -2.2606  -35.4527   32.9248 H   0  0  0  0  0  0  0  0  0  0  0  0
   -0.8260  -36.3036   32.2582 H   0  0  0  0  0  0  0  0  0  0  0  0
   -0.8857  -34.5083   32.2582 H   0  0  0  0  0  0  0  0  0  0  0  0
   -4.0102  -36.6111   28.4169 H   0  0  0  0  0  0  0  0  0  0  0  0
    2.0560  -37.3075   22.8737 H   0  0  0  0  0  0  0  0  0  0  0  0
    1.4708  -38.4263   24.1705 H   0  0  0  0  0  0  0  0  0  0  0  0
    3.8546  -38.3324   25.1212 H   0  0  0  0  0  0  0  0  0  0  0  0
    3.6445  -39.2178   23.5724 H   0  0  0  0  0  0  0  0  0  0  0  0
    4.3339  -37.5591   23.5724 H   0  0  0  0  0  0  0  0  0  0  0  0
    4.5917  -30.2031   31.4528 H   0  0  0  0  0  0  0  0  0  0  0  0
    4.4224  -31.1269   30.2134 H   0  0  0  0  0  0  0  0  0  0  0  0
    7.2643  -31.4399   30.2705 H   0  0  0  0  0  0  0  0  0  0  0  0
    7.4466  -30.3209   31.3348 H   0  0  0  0  0  0  0  0  0  0  0  0
    5.3285  -37.7958   32.8789 H   0  0  0  0  0  0  0  0  0  0  0  0
    5.8969  -33.0910   34.1994 H   0  0  0  0  0  0  0  0  0  0  0  0
    6.0565  -34.1902   28.8680 H   0  0  0  0  0  0  0  0  0  0  0  0
    4.9099  -32.8512   28.5273 H   0  0  0  0  0  0  0  0  0  0  0  0
    6.8639  -33.6601   30.9781 H   0  0  0  0  0  0  0  0  0  0  0  0
    4.1522  -34.8684   27.3252 H   0  0  0  0  0  0  0  0  0  0  0  0
    4.2192  -35.8385   28.8313 H   0  0  0  0  0  0  0  0  0  0  0  0
   -0.5633  -34.2031   27.5634 H   0  0  0  0  0  0  0  0  0  0  0  0
    0.9632  -32.9752   31.4006 H   0  0  0  0  0  0  0  0  0  0  0  0
   -2.9764  -34.2961   27.6674 H   0  0  0  0  0  0  0  0  0  0  0  0
    1.8961  -37.3201   26.8566 H   0  0  0  0  0  0  0  0  0  0  0  0
    5.7705  -32.2700   33.0099 H   0  0  0  0  0  0  0  0  0  0  0  0
    5.3487  -37.2134   35.2994 H   0  0  0  0  0  0  0  0  0  0  0  0
    5.6016  -35.5885   37.0228 H   0  0  0  0  0  0  0  0  0  0  0  0
    6.5665  -34.1327   36.6031 H   0  0  0  0  0  0  0  0  0  0  0  0
    4.7721  -34.0516   36.6031 H   0  0  0  0  0  0  0  0  0  0  0  0
  1 19  1  0
  1 36  1  0
  2 21  1  0
  3 22  2  0
  3 35  1  0
  4 23  1  0
  4 31  1  1
  4 32  1  0
  4 33  1  0
  5  6  1  0
  5 38  1  0
  7  8  1  0
 26  7  1  0
  8 26  1  0
  9 27  2  0
  9 39  1  0
 10 28  1  0
 10 29  2  0
 11 16  1  0
 11 34  1  0
 12 26  1  0
 12 28  1  0
 12 34  1  0
 13 14  1  0
 13 34  1  0
 13 40  2  0
 14 15  2  0
 14 20  1  0
 15 16  1  0
 15 17  1  0
 17 18  2  0
 17 24  1  0
 18 19  1  0
 19 20  2  0
 21 35  2  0
 21 36  1  0
 22 36  1  0
 23 24  1  0
 23 37  2  0
 24 25  2  0
 25 38  1  0
 27 29  1  0
 28 39  2  0
 29 30  1  0
 37 38  1  0
  1 41  1  0
  1 42  1  0
  2 43  1  0
  2 44  1  0
  2 45  1  0
  3 46  1  0
  5 47  1  0
  5 48  1  0
  6 49  1  0
  6 50  1  0
  6 51  1  0
  7 52  1  0
  7 53  1  0
  8 54  1  0
  8 55  1  0
  9 56  1  0
 10 57  1  0
 11 58  1  0
 11 59  1  0
 12 60  1  6
 16 61  1  0
 16 62  1  0
 18 63  1  0
 20 64  1  0
 22 65  1  0
 25 66  1  0
 26 67  1  1
 27 68  1  0
 30 69  1  0
 30 70  1  0
 30 71  1  0
M  END
>  <filename_input>  (25) 
7UAS_MBU_docked.sdf

>  <pdb_id>  (25) 
7UAS_MBU

>  <pose_rank>  (25) 
24

>  <num_atoms_heavy>  (25) 
40

>  <num_torsions>  (25) 
8

>  <pose>  (25) 
[5.029592613144872, -33.82679214325753, 29.021116619108007, -2.6816769615762572, -1.587527173715834, -3.134537560665069, 2.9244560776996344, -0.42192400929674256, 4.556591141938632, 2.638391956228759, -2.681418884747089, 9.103598712520085, -2.8654440019057037, 1.011100181491098]

>  <energy>  (25) 
-419.3992585925027

>  <inter_energy>  (25) 
-514.8213252249642

>  <intra_energy>  (25) 
96.21734531449687

>  <rmsd>  (25) 
6.79218

>  <sdf_rank>  (25) 
0

$$$$

     RDKit          3D

 71 76  0  0  0  0  0  0  0  0999 V2000
    5.2180  -30.0920   23.1030 C   0  0  0  0  0  0  0  0  0  0  0  0
    7.9650  -28.4560   22.5050 C   0  0  0  0  0  0  0  0  0  0  0  0
    7.9560  -32.0010   21.5340 C   0  0  0  0  0  0  0  0  0  0  0  0
    0.7540  -33.0160   25.6510 C   0  0  2  0  0  0  0  0  0  0  0  0
    2.0140  -37.5910   24.4600 C   0  0  0  0  0  0  0  0  0  0  0  0
    3.2410  -38.4400   24.8020 C   0  0  0  0  0  0  0  0  0  0  0  0
    4.3150  -31.0930   31.6150 C   0  0  0  0  0  0  0  0  0  0  0  0
    5.4950  -31.0790   32.5650 C   0  0  0  0  0  0  0  0  0  0  0  0
    9.4830  -33.0580   31.7350 C   0  0  0  0  0  0  0  0  0  0  0  0
    8.6980  -32.3050   29.2420 C   0  0  0  0  0  0  0  0  0  0  0  0
    5.4510  -33.3650   28.6740 C   0  0  0  0  0  0  0  0  0  0  0  0
    6.4430  -31.5440   30.2250 C   0  0  1  0  0  0  0  0  0  0  0  0
    5.7240  -31.0050   27.9550 C   0  0  0  0  0  0  0  0  0  0  0  0
    5.1570  -31.3990   26.6610 C   0  0  0  0  0  0  0  0  0  0  0  0
    4.4000  -32.5680   26.5530 C   0  0  0  0  0  0  0  0  0  0  0  0
    4.1690  -33.3920   27.8150 C   0  0  0  0  0  0  0  0  0  0  0  0
    3.8860  -32.9710   25.3120 C   0  0  0  0  0  0  0  0  0  0  0  0
    4.1490  -32.1370   24.2050 C   0  0  0  0  0  0  0  0  0  0  0  0
    4.9090  -30.9660   24.3150 C   0  0  0  0  0  0  0  0  0  0  0  0
    5.4130  -30.6020   25.5560 C   0  0  0  0  0  0  0  0  0  0  0  0
    7.7140  -29.8980   22.1600 C   0  0  0  0  0  0  0  0  0  0  0  0
    6.6890  -32.0220   21.9860 C   0  0  0  0  0  0  0  0  0  0  0  0
    1.6490  -34.2090   25.2880 C   0  0  0  0  0  0  0  0  0  0  0  0
    3.0460  -34.1640   25.1420 C   0  0  0  0  0  0  0  0  0  0  0  0
    3.3900  -35.4470   24.8080 C   0  0  0  0  0  0  0  0  0  0  0  0
    5.4980  -31.9900   31.3660 C   0  0  2  0  0  0  0  0  0  0  0  0
   10.3630  -33.2280   30.6620 C   0  0  0  0  0  0  0  0  0  0  0  0
    7.8570  -32.1460   30.3440 C   0  0  0  0  0  0  0  0  0  0  0  0
    9.9680  -32.8460   29.3840 C   0  0  0  0  0  0  0  0  0  0  0  0
   10.8790  -33.0040   28.1850 C   0  0  0  0  0  0  0  0  0  0  0  0
    0.5380  -32.3220   24.5290 F   0  0  0  0  0  0  0  0  0  0  0  0
    1.2930  -32.2140   26.6120 F   0  0  0  0  0  0  0  0  0  0  0  0
   -0.3990  -33.4600   26.1710 F   0  0  0  0  0  0  0  0  0  0  0  0
    5.8440  -31.9630   28.9230 N   0  0  0  0  0  0  0  0  0  0  0  0
    8.5440  -30.7120   21.6580 N   0  0  0  0  0  0  0  0  0  0  0  0
    6.5090  -30.6600   22.5910 N   0  0  0  0  0  0  0  0  0  0  0  0
    1.1780  -35.4120   25.0590 N   0  0  0  0  0  0  0  0  0  0  0  0
    2.2410  -36.1740   24.7750 N   0  0  0  0  0  0  0  0  0  0  0  0
    8.2590  -32.5290   31.5620 N   0  0  0  0  0  0  0  0  0  0  0  0
    6.0880  -29.8530   28.1970 O   0  0  0  0  0  0  0  0  0  0  0  0
    4.4240  -30.1723   22.3460 H   0  0  0  0  0  0  0  0  0  0  0  0
    5.2848  -29.0219   23.3486 H   0  0  0  0  0  0  0  0  0  0  0  0
    7.9854  -28.3388   23.5986 H   0  0  0  0  0  0  0  0  0  0  0  0
    8.9314  -28.1412   22.0844 H   0  0  0  0  0  0  0  0  0  0  0  0
    7.1617  -27.8332   22.0844 H   0  0  0  0  0  0  0  0  0  0  0  0
    8.4754  -32.8768   21.1179 H   0  0  0  0  0  0  0  0  0  0  0  0
    1.7983  -37.6892   23.3858 H   0  0  0  0  0  0  0  0  0  0  0  0
    1.1654  -37.9489   25.0615 H   0  0  0  0  0  0  0  0  0  0  0  0
    3.3444  -38.5115   25.8948 H   0  0  0  0  0  0  0  0  0  0  0  0
    3.1191  -39.4479   24.3785 H   0  0  0  0  0  0  0  0  0  0  0  0
    4.1412  -37.9707   24.3785 H   0  0  0  0  0  0  0  0  0  0  0  0
    3.3551  -31.5240   31.9357 H   0  0  0  0  0  0  0  0  0  0  0  0
    3.7772  -30.3326   31.0297 H   0  0  0  0  0  0  0  0  0  0  0  0
    6.1662  -30.2081   32.5965 H   0  0  0  0  0  0  0  0  0  0  0  0
    5.6245  -31.2169   33.6486 H   0  0  0  0  0  0  0  0  0  0  0  0
    9.7990  -33.3638   32.7433 H   0  0  0  0  0  0  0  0  0  0  0  0
    8.3490  -31.9968   28.2454 H   0  0  0  0  0  0  0  0  0  0  0  0
    5.2610  -33.8690   29.6331 H   0  0  0  0  0  0  0  0  0  0  0  0
    6.2612  -33.8853   28.1422 H   0  0  0  0  0  0  0  0  0  0  0  0
    6.5507  -30.4512   30.2903 H   0  0  0  0  0  0  0  0  0  0  0  0
    3.9315  -34.4301   27.5394 H   0  0  0  0  0  0  0  0  0  0  0  0
    3.3296  -32.9693   28.3865 H   0  0  0  0  0  0  0  0  0  0  0  0
    3.7431  -32.4162   23.2215 H   0  0  0  0  0  0  0  0  0  0  0  0
    6.0125  -29.6858   25.6621 H   0  0  0  0  0  0  0  0  0  0  0  0
    5.9585  -32.8423   21.9264 H   0  0  0  0  0  0  0  0  0  0  0  0
    4.4049  -35.8194   24.6047 H   0  0  0  0  0  0  0  0  0  0  0  0
    5.6265  -33.0703   31.2034 H   0  0  0  0  0  0  0  0  0  0  0  0
   11.3607  -33.6608   30.8272 H   0  0  0  0  0  0  0  0  0  0  0  0
   11.9088  -33.1826   28.5279 H   0  0  0  0  0  0  0  0  0  0  0  0
   10.5415  -33.8570   27.5780 H   0  0  0  0  0  0  0  0  0  0  0  0
   10.8485  -32.0872   27.5780 H   0  0  0  0  0  0  0  0  0  0  0  0
  1 19  1  0
  1 36  1  0
  2 21  1  0
  3 22  2  0
  3 35  1  0
  4 23  1  0
  4 31  1  6
  4 32  1  0
  4 33  1  0
  5  6  1  0
  5 38  1  0
  7  8  1  0
 26  7  1  0
  8 26  1  0
  9 27  2  0
  9 39  1  0
 10 28  1  0
 10 29  2  0
 11 16  1  0
 11 34  1  0
 12 26  1  0
 12 28  1  0
 12 34  1  0
 13 14  1  0
 13 34  1  0
 13 40  2  0
 14 15  2  0
 14 20  1  0
 15 16  1  0
 15 17  1  0
 17 18  2  0
 17 24  1  0
 18 19  1  0
 19 20  2  0
 21 35  2  0
 21 36  1  0
 22 36  1  0
 23 24  1  0
 23 37  2  0
 24 25  2  0
 25 38  1  0
 27 29  1  0
 28 39  2  0
 29 30  1  0
 37 38  1  0
  1 41  1  0
  1 42  1  0
  2 43  1  0
  2 44  1  0
  2 45  1  0
  3 46  1  0
  5 47  1  0
  5 48  1  0
  6 49  1  0
  6 50  1  0
  6 51  1  0
  7 52  1  0
  7 53  1  0
  8 54  1  0
  8 55  1  0
  9 56  1  0
 10 57  1  0
 11 58  1  0
 11 59  1  0
 12 60  1  6
 16 61  1  0
 16 62  1  0
 18 63  1  0
 20 64  1  0
 22 65  1  0
 25 66  1  0
 26 67  1  1
 27 68  1  0
 30 69  1  0
 30 70  1  0
 30 71  1  0
M  END
>  <filename_input>  (26) 
7UAS_MBU_docked.sdf

>  <pdb_id>  (26) 
7UAS_MBU

>  <pose_rank>  (26) 
25

>  <num_atoms_heavy>  (26) 
40

>  <num_torsions>  (26) 
8

>  <pose>  (26) 
[5.451, -33.365, 28.674, 1e-06, 1e-06, 1e-06, 0.0, 0.0, 0.0, 0.0, 0.0, 0.0, 0.0, 0.0]

>  <energy>  (26) 
-1089.622359894864

>  <inter_energy>  (26) 
-1116.5962736585013

>  <intra_energy>  (26) 
25.002124965833787

>  <rmsd>  (26) 
0.0

>  <sdf_rank>  (26) 
0

$$$$
