
     RDKit          3D

 54 58  0  0  0  0  0  0  0  0999 V2000
  -20.7976   11.1184  -16.7973 C   0  0  2  0  0  0  0  0  0  0  0  0
  -21.3920    7.3879  -13.8133 C   0  0  1  0  0  0  0  0  0  0  0  0
  -21.8258    5.0627  -14.7232 C   0  0  0  0  0  0  0  0  0  0  0  0
  -17.0471    6.9316  -18.7548 C   0  0  0  0  0  0  0  0  0  0  0  0
  -19.2191    7.7798  -18.7905 C   0  0  0  0  0  0  0  0  0  0  0  0
  -18.2824    7.2066  -16.7158 C   0  0  0  0  0  0  0  0  0  0  0  0
  -17.1007    6.8316  -17.3316 C   0  0  0  0  0  0  0  0  0  0  0  0
  -16.8920    6.5509  -15.1748 C   0  0  0  0  0  0  0  0  0  0  0  0
  -19.1201    7.2512  -14.3350 C   0  0  2  0  0  0  0  0  0  0  0  0
  -20.3784    7.9429  -14.7435 C   0  0  2  0  0  0  0  0  0  0  0  0
  -21.2311   10.2296  -14.6942 C   0  0  2  0  0  0  0  0  0  0  0  0
  -22.1368   10.4236  -16.8342 C   0  0  1  0  0  0  0  0  0  0  0  0
  -20.7523   11.4754  -15.3842 C   0  0  2  0  0  0  0  0  0  0  0  0
  -21.0412    5.9144  -13.7624 C   0  0  1  0  0  0  0  0  0  0  0  0
  -22.1933    9.3933  -17.9215 C   0  0  0  0  0  0  0  0  0  0  0  0
  -15.8975    6.5579  -19.5505 N   0  0  0  0  0  0  0  0  0  0  0  0
  -18.1071    7.4141  -19.4231 N   0  0  0  0  0  0  0  0  0  0  0  0
  -19.2763    7.6759  -17.4905 N   0  0  0  0  0  0  0  0  0  0  0  0
  -16.2503    6.4176  -16.3441 N   0  0  0  0  0  0  0  0  0  0  0  0
  -18.1408    7.0397  -15.3770 N   0  0  0  0  0  0  0  0  0  0  0  0
  -20.1519    9.3514  -14.6248 O   0  0  0  0  0  0  0  0  0  0  0  0
  -22.2280    9.7247  -15.5957 O   0  0  0  0  0  0  0  0  0  0  0  0
  -20.7791   12.2185  -17.7312 O   0  0  0  0  0  0  0  0  0  0  0  0
  -21.6485   12.5785  -15.1088 O   0  0  0  0  0  0  0  0  0  0  0  0
  -21.1267    7.8903  -12.5006 O   0  0  0  0  0  0  0  0  0  0  0  0
  -21.3732    5.3849  -16.0016 O   0  0  0  0  0  0  0  0  0  0  0  0
  -21.3943    5.0299  -18.6273 O   0  0  0  0  0  0  0  0  0  0  0  0
  -23.2347    6.4697  -17.4215 O   0  0  0  0  0  0  0  0  0  0  0  0
  -23.2661    7.2389  -20.0278 O   0  0  0  0  0  0  0  0  0  0  0  0
  -23.5398    8.9275  -18.0277 O   0  0  0  0  0  0  0  0  0  0  0  0
  -25.2498    7.1273  -18.6467 O   0  0  0  0  0  0  0  0  0  0  0  0
  -23.1703    4.0523  -17.1969 O   0  0  0  0  0  0  0  0  0  0  0  0
  -19.6216    5.9328  -14.0621 O   0  0  0  0  0  0  0  0  0  0  0  0
  -22.2241    5.1911  -17.3747 P   0  0  2  0  0  0  0  0  0  0  0  0
  -23.7776    7.4069  -18.6248 P   0  0  2  0  0  0  0  0  0  0  0  0
  -19.9124   10.5446  -17.1094 H   0  0  0  0  0  0  0  0  0  0  0  0
  -22.4235    7.6194  -14.1174 H   0  0  0  0  0  0  0  0  0  0  0  0
  -21.6504    3.9967  -14.5159 H   0  0  0  0  0  0  0  0  0  0  0  0
  -22.9059    5.2473  -14.6264 H   0  0  0  0  0  0  0  0  0  0  0  0
  -20.0801    8.1651  -19.3563 H   0  0  0  0  0  0  0  0  0  0  0  0
  -16.4666    6.2997  -14.1919 H   0  0  0  0  0  0  0  0  0  0  0  0
  -18.6185    7.8368  -13.5506 H   0  0  0  0  0  0  0  0  0  0  0  0
  -20.7133    7.7885  -15.7798 H   0  0  0  0  0  0  0  0  0  0  0  0
  -21.6223   10.3794  -13.6771 H   0  0  0  0  0  0  0  0  0  0  0  0
  -22.9391   11.1563  -17.0060 H   0  0  0  0  0  0  0  0  0  0  0  0
  -19.7534   11.7972  -15.0547 H   0  0  0  0  0  0  0  0  0  0  0  0
  -21.2895    5.4533  -12.7951 H   0  0  0  0  0  0  0  0  0  0  0  0
  -21.8783    9.8415  -18.8754 H   0  0  0  0  0  0  0  0  0  0  0  0
  -21.5198    8.5561  -17.6861 H   0  0  0  0  0  0  0  0  0  0  0  0
  -15.9267    6.6560  -20.5755 H   0  0  0  0  0  0  0  0  0  0  0  0
  -15.0501    6.1939  -19.0920 H   0  0  0  0  0  0  0  0  0  0  0  0
  -20.7647   13.0740  -17.2331 H   0  0  0  0  0  0  0  0  0  0  0  0
  -21.7409   12.6921  -14.1297 H   0  0  0  0  0  0  0  0  0  0  0  0
  -21.4655    7.2487  -11.8270 H   0  0  0  0  0  0  0  0  0  0  0  0
  1 12  1  0
  1 13  1  0
  1 23  1  0
  2 10  1  0
  2 14  1  0
  2 25  1  0
 14  3  1  0
  3 26  1  0
  4  7  2  0
  4 16  1  0
  4 17  1  0
  5 17  2  0
  5 18  1  0
  6  7  1  0
  6 18  2  0
  6 20  1  0
  7 19  1  0
  8 19  2  0
  8 20  1  0
  9 10  1  0
  9 20  1  0
  9 33  1  0
 10 21  1  0
 11 13  1  0
 11 21  1  0
 11 22  1  0
 12 15  1  0
 12 22  1  0
 13 24  1  0
 14 33  1  0
 15 30  1  0
 26 34  1  0
 34 27  1  6
 28 34  1  0
 28 35  1  0
 35 29  1  6
 30 35  1  0
 31 35  2  0
 32 34  2  0
  1 36  1  6
  2 37  1  6
  3 38  1  0
  3 39  1  0
  5 40  1  0
  8 41  1  0
  9 42  1  1
 10 43  1  6
 11 44  1  1
 12 45  1  6
 13 46  1  1
 14 47  1  1
 15 48  1  0
 15 49  1  0
 16 50  1  0
 16 51  1  0
 23 52  1  0
 24 53  1  0
 25 54  1  0
M  CHG  2  27  -1  29  -1
M  END
>  <filename_input>  (1) 
7UAW_MF6_docked.sdf

>  <pdb_id>  (1) 
7UAW_MF6

>  <pose_rank>  (1) 
0

>  <num_atoms_heavy>  (1) 
35

>  <num_torsions>  (1) 
1

>  <pose>  (1) 
[-20.797556987727482, 11.11835581963137, -16.79726954259136, -4.4416020428147105, 2.6621829276467412, 3.3892601060884284, -0.0872129962450089]

>  <energy>  (1) 
-945.3288417371886

>  <inter_energy>  (1) 
-962.1413878058122

>  <intra_energy>  (1) 
21.875073891702932

>  <rmsd>  (1) 
0.296343

>  <sdf_rank>  (1) 
0

$$$$

     RDKit          3D

 54 58  0  0  0  0  0  0  0  0999 V2000
  -22.5176    4.9368  -17.6152 C   0  0  2  0  0  0  0  0  0  0  0  0
  -22.9214    9.5618  -18.8881 C   0  0  1  0  0  0  0  0  0  0  0  0
  -21.6541   11.3621  -17.6329 C   0  0  0  0  0  0  0  0  0  0  0  0
  -16.9032    6.9745  -18.1659 C   0  0  0  0  0  0  0  0  0  0  0  0
  -18.7421    6.8458  -16.7375 C   0  0  0  0  0  0  0  0  0  0  0  0
  -19.0392    7.8300  -18.8478 C   0  0  0  0  0  0  0  0  0  0  0  0
  -17.7127    7.5936  -19.1657 C   0  0  0  0  0  0  0  0  0  0  0  0
  -18.6841    8.5615  -20.8669 C   0  0  0  0  0  0  0  0  0  0  0  0
  -20.9969    8.8969  -20.0312 C   0  0  2  0  0  0  0  0  0  0  0  0
  -21.9484    8.4453  -18.9732 C   0  0  2  0  0  0  0  0  0  0  0  0
  -23.6007    6.6652  -18.7289 C   0  0  2  0  0  0  0  0  0  0  0  0
  -23.1064    5.8760  -16.5910 C   0  0  1  0  0  0  0  0  0  0  0  0
  -23.4453    5.1709  -18.7155 C   0  0  2  0  0  0  0  0  0  0  0  0
  -22.0405   10.7922  -18.9709 C   0  0  1  0  0  0  0  0  0  0  0  0
  -22.0652    6.3677  -15.6314 C   0  0  0  0  0  0  0  0  0  0  0  0
  -15.4956    6.6812  -18.3303 N   0  0  0  0  0  0  0  0  0  0  0  0
  -17.4574    6.6155  -16.9967 N   0  0  0  0  0  0  0  0  0  0  0  0
  -19.4813    7.4249  -17.6442 N   0  0  0  0  0  0  0  0  0  0  0  0
  -17.5155    8.0688  -20.4326 N   0  0  0  0  0  0  0  0  0  0  0  0
  -19.6373    8.4207  -19.9124 N   0  0  0  0  0  0  0  0  0  0  0  0
  -22.4971    7.1924  -19.3958 O   0  0  0  0  0  0  0  0  0  0  0  0
  -23.5515    7.0068  -17.3352 O   0  0  0  0  0  0  0  0  0  0  0  0
  -22.4763    3.5914  -17.0946 O   0  0  0  0  0  0  0  0  0  0  0  0
  -24.7190    4.5354  -18.4515 O   0  0  0  0  0  0  0  0  0  0  0  0
  -23.7065    9.5718  -20.0837 O   0  0  0  0  0  0  0  0  0  0  0  0
  -20.7664   10.4556  -17.0556 O   0  0  0  0  0  0  0  0  0  0  0  0
  -19.1387    9.7327  -15.0938 O   0  0  0  0  0  0  0  0  0  0  0  0
  -21.7417    9.4098  -14.9078 O   0  0  0  0  0  0  0  0  0  0  0  0
  -20.6413    7.7056  -13.0994 O   0  0  0  0  0  0  0  0  0  0  0  0
  -22.7237    7.0793  -14.5819 O   0  0  0  0  0  0  0  0  0  0  0  0
  -22.7392    8.8570  -12.7414 O   0  0  0  0  0  0  0  0  0  0  0  0
  -20.7287   11.6145  -14.7996 O   0  0  0  0  0  0  0  0  0  0  0  0
  -20.8998   10.2956  -19.7177 O   0  0  0  0  0  0  0  0  0  0  0  0
  -20.4912   10.2986  -15.4598 P   0  0  2  0  0  0  0  0  0  0  0  0
  -21.8621    8.2442  -13.7906 P   0  0  2  0  0  0  0  0  0  0  0  0
  -21.4706    5.0936  -17.9140 H   0  0  0  0  0  0  0  0  0  0  0  0
  -23.5667    9.4997  -17.9994 H   0  0  0  0  0  0  0  0  0  0  0  0
  -21.1671   12.3398  -17.7631 H   0  0  0  0  0  0  0  0  0  0  0  0
  -22.5379   11.5127  -16.9956 H   0  0  0  0  0  0  0  0  0  0  0  0
  -19.1760    6.5518  -15.7704 H   0  0  0  0  0  0  0  0  0  0  0  0
  -18.8466    9.0150  -21.8557 H   0  0  0  0  0  0  0  0  0  0  0  0
  -21.3586    8.5638  -21.0152 H   0  0  0  0  0  0  0  0  0  0  0  0
  -21.5249    8.2556  -17.9759 H   0  0  0  0  0  0  0  0  0  0  0  0
  -24.5125    7.0361  -19.2200 H   0  0  0  0  0  0  0  0  0  0  0  0
  -23.8952    5.3660  -16.0186 H   0  0  0  0  0  0  0  0  0  0  0  0
  -23.0876    4.7634  -19.6726 H   0  0  0  0  0  0  0  0  0  0  0  0
  -22.5487   11.6457  -19.4432 H   0  0  0  0  0  0  0  0  0  0  0  0
  -21.5126    5.5140  -15.2122 H   0  0  0  0  0  0  0  0  0  0  0  0
  -21.3539    7.0280  -16.1491 H   0  0  0  0  0  0  0  0  0  0  0  0
  -14.9704    6.2321  -17.5664 H   0  0  0  0  0  0  0  0  0  0  0  0
  -15.0188    6.9216  -19.2111 H   0  0  0  0  0  0  0  0  0  0  0  0
  -22.4772    3.6204  -16.1050 H   0  0  0  0  0  0  0  0  0  0  0  0
  -24.8570    4.4666  -17.4736 H   0  0  0  0  0  0  0  0  0  0  0  0
  -24.6678    9.5840  -19.8472 H   0  0  0  0  0  0  0  0  0  0  0  0
  1 12  1  0
  1 13  1  0
  1 23  1  0
  2 10  1  0
  2 14  1  0
  2 25  1  0
 14  3  1  0
  3 26  1  0
  4  7  2  0
  4 16  1  0
  4 17  1  0
  5 17  2  0
  5 18  1  0
  6  7  1  0
  6 18  2  0
  6 20  1  0
  7 19  1  0
  8 19  2  0
  8 20  1  0
  9 10  1  0
  9 20  1  0
  9 33  1  0
 10 21  1  0
 11 13  1  0
 11 21  1  0
 11 22  1  0
 12 15  1  0
 12 22  1  0
 13 24  1  0
 14 33  1  0
 15 30  1  0
 26 34  1  0
 34 27  1  6
 28 34  1  0
 28 35  1  0
 35 29  1  1
 30 35  1  0
 31 35  2  0
 32 34  2  0
  1 36  1  6
  2 37  1  1
  3 38  1  0
  3 39  1  0
  5 40  1  0
  8 41  1  0
  9 42  1  6
 10 43  1  1
 11 44  1  6
 12 45  1  1
 13 46  1  6
 14 47  1  6
 15 48  1  0
 15 49  1  0
 16 50  1  0
 16 51  1  0
 23 52  1  0
 24 53  1  0
 25 54  1  0
M  CHG  2  27  -1  29  -1
M  END
>  <filename_input>  (2) 
7UAW_MF6_docked.sdf

>  <pdb_id>  (2) 
7UAW_MF6

>  <pose_rank>  (2) 
1

>  <num_atoms_heavy>  (2) 
35

>  <num_torsions>  (2) 
1

>  <pose>  (2) 
[-22.517565259518836, 4.9368238899391415, -17.615205039603428, 3.226230708584619, -0.6447858183861406, -1.2531769175770626, -0.14168696172874407]

>  <energy>  (2) 
-777.4803697475239

>  <inter_energy>  (2) 
-786.8948261400523

>  <intra_energy>  (2) 
23.03357771343703

>  <rmsd>  (2) 
5.63718

>  <sdf_rank>  (2) 
0

$$$$

     RDKit          3D

 54 58  0  0  0  0  0  0  0  0999 V2000
  -21.2507    4.9773  -15.5121 C   0  0  2  0  0  0  0  0  0  0  0  0
  -23.6157    7.8157  -18.5982 C   0  0  1  0  0  0  0  0  0  0  0  0
  -22.8244   10.1818  -19.0429 C   0  0  0  0  0  0  0  0  0  0  0  0
  -17.0937    6.9819  -19.1976 C   0  0  0  0  0  0  0  0  0  0  0  0
  -18.3508    7.2442  -17.2510 C   0  0  0  0  0  0  0  0  0  0  0  0
  -19.4920    6.9690  -19.2838 C   0  0  0  0  0  0  0  0  0  0  0  0
  -18.2917    6.8567  -19.9642 C   0  0  0  0  0  0  0  0  0  0  0  0
  -19.9334    6.6466  -21.3907 C   0  0  0  0  0  0  0  0  0  0  0  0
  -21.9289    6.9178  -19.9400 C   0  0  2  0  0  0  0  0  0  0  0  0
  -22.3561    7.0366  -18.5146 C   0  0  2  0  0  0  0  0  0  0  0  0
  -23.1292    5.5131  -16.7711 C   0  0  2  0  0  0  0  0  0  0  0  0
  -21.8683    6.2326  -14.9463 C   0  0  1  0  0  0  0  0  0  0  0  0
  -22.4412    4.3644  -16.0895 C   0  0  2  0  0  0  0  0  0  0  0  0
  -23.2945    8.8784  -19.6297 C   0  0  1  0  0  0  0  0  0  0  0  0
  -20.8756    7.3539  -14.8807 C   0  0  0  0  0  0  0  0  0  0  0  0
  -15.7616    6.9132  -19.7591 N   0  0  0  0  0  0  0  0  0  0  0  0
  -17.1755    7.1585  -17.8690 N   0  0  0  0  0  0  0  0  0  0  0  0
  -19.4479    7.1445  -17.9513 N   0  0  0  0  0  0  0  0  0  0  0  0
  -18.5973    6.6633  -21.2828 N   0  0  0  0  0  0  0  0  0  0  0  0
  -20.5054    6.8266  -20.1742 N   0  0  0  0  0  0  0  0  0  0  0  0
  -22.4962    5.7095  -17.9963 O   0  0  0  0  0  0  0  0  0  0  0  0
  -22.8646    6.6157  -15.8904 O   0  0  0  0  0  0  0  0  0  0  0  0
  -20.5939    4.2285  -14.4677 O   0  0  0  0  0  0  0  0  0  0  0  0
  -23.2872    3.8171  -15.0500 O   0  0  0  0  0  0  0  0  0  0  0  0
  -24.6201    6.9919  -19.1971 O   0  0  0  0  0  0  0  0  0  0  0  0
  -21.5540    9.9473  -18.5194 O   0  0  0  0  0  0  0  0  0  0  0  0
  -19.3436   10.7943  -17.3288 O   0  0  0  0  0  0  0  0  0  0  0  0
  -21.5160   10.2377  -15.9557 O   0  0  0  0  0  0  0  0  0  0  0  0
  -19.4589   10.1349  -14.1828 O   0  0  0  0  0  0  0  0  0  0  0  0
  -21.4664    8.4333  -14.1548 O   0  0  0  0  0  0  0  0  0  0  0  0
  -21.6733   10.9253  -13.6113 O   0  0  0  0  0  0  0  0  0  0  0  0
  -21.3845   12.2044  -17.3745 O   0  0  0  0  0  0  0  0  0  0  0  0
  -22.2744    8.2242  -20.4278 O   0  0  0  0  0  0  0  0  0  0  0  0
  -20.8546   10.8111  -17.3313 P   0  0  2  0  0  0  0  0  0  0  0  0
  -20.9222    9.9585  -14.4756 P   0  0  2  0  0  0  0  0  0  0  0  0
  -20.4422    5.0898  -16.2494 H   0  0  0  0  0  0  0  0  0  0  0  0
  -23.9523    8.1906  -17.6203 H   0  0  0  0  0  0  0  0  0  0  0  0
  -22.7763   10.9545  -19.8243 H   0  0  0  0  0  0  0  0  0  0  0  0
  -23.5148   10.5384  -18.2643 H   0  0  0  0  0  0  0  0  0  0  0  0
  -18.3973    7.3972  -16.1627 H   0  0  0  0  0  0  0  0  0  0  0  0
  -20.4865    6.5068  -22.3312 H   0  0  0  0  0  0  0  0  0  0  0  0
  -22.3755    6.0149  -20.3820 H   0  0  0  0  0  0  0  0  0  0  0  0
  -21.6599    7.5439  -17.8305 H   0  0  0  0  0  0  0  0  0  0  0  0
  -24.2044    5.3714  -16.9550 H   0  0  0  0  0  0  0  0  0  0  0  0
  -22.2485    6.0437  -13.9315 H   0  0  0  0  0  0  0  0  0  0  0  0
  -22.2084    3.5324  -16.7704 H   0  0  0  0  0  0  0  0  0  0  0  0
  -24.1790    9.1932  -20.2029 H   0  0  0  0  0  0  0  0  0  0  0  0
  -19.9644    7.0144  -14.3665 H   0  0  0  0  0  0  0  0  0  0  0  0
  -20.6062    7.6818  -15.8955 H   0  0  0  0  0  0  0  0  0  0  0  0
  -14.9391    7.0118  -19.1470 H   0  0  0  0  0  0  0  0  0  0  0  0
  -15.6361    6.7657  -20.7707 H   0  0  0  0  0  0  0  0  0  0  0  0
  -20.8891    4.5651  -13.5847 H   0  0  0  0  0  0  0  0  0  0  0  0
  -22.9173    4.0564  -14.1634 H   0  0  0  0  0  0  0  0  0  0  0  0
  -25.1539    6.5540  -18.4876 H   0  0  0  0  0  0  0  0  0  0  0  0
  1 12  1  0
  1 13  1  0
  1 23  1  0
  2 10  1  0
  2 14  1  0
  2 25  1  0
 14  3  1  0
  3 26  1  0
  4  7  2  0
  4 16  1  0
  4 17  1  0
  5 17  2  0
  5 18  1  0
  6  7  1  0
  6 18  2  0
  6 20  1  0
  7 19  1  0
  8 19  2  0
  8 20  1  0
  9 10  1  0
  9 20  1  0
  9 33  1  0
 10 21  1  0
 11 13  1  0
 11 21  1  0
 11 22  1  0
 12 15  1  0
 12 22  1  0
 13 24  1  0
 14 33  1  0
 15 30  1  0
 26 34  1  0
 34 27  1  1
 28 34  1  0
 28 35  1  0
 35 29  1  6
 30 35  1  0
 31 35  2  0
 32 34  2  0
  1 36  1  6
  2 37  1  1
  3 38  1  0
  3 39  1  0
  5 40  1  0
  8 41  1  0
  9 42  1  6
 10 43  1  1
 11 44  1  6
 12 45  1  1
 13 46  1  6
 14 47  1  6
 15 48  1  0
 15 49  1  0
 16 50  1  0
 16 51  1  0
 23 52  1  0
 24 53  1  0
 25 54  1  0
M  CHG  2  27  -1  29  -1
M  END
>  <filename_input>  (3) 
7UAW_MF6_docked.sdf

>  <pdb_id>  (3) 
7UAW_MF6

>  <pose_rank>  (3) 
2

>  <num_atoms_heavy>  (3) 
35

>  <num_torsions>  (3) 
1

>  <pose>  (3) 
[-21.250704105768325, 4.977250942712388, -15.512136461573784, 2.4304954115747353, -0.5002424064518426, -1.3039790402325933, -0.029471470753961983]

>  <energy>  (3) 
-722.9466394400889

>  <inter_energy>  (3) 
-747.5034545531198

>  <intra_energy>  (3) 
23.236290796812554

>  <rmsd>  (3) 
5.7086

>  <sdf_rank>  (3) 
0

$$$$

     RDKit          3D

 54 58  0  0  0  0  0  0  0  0999 V2000
  -22.6094    4.5610  -18.3105 C   0  0  2  0  0  0  0  0  0  0  0  0
  -22.1903    9.2662  -17.3832 C   0  0  1  0  0  0  0  0  0  0  0  0
  -20.5027   10.1030  -15.6879 C   0  0  0  0  0  0  0  0  0  0  0  0
  -16.9432    6.7240  -21.4862 C   0  0  0  0  0  0  0  0  0  0  0  0
  -18.6410    7.5872  -22.8318 C   0  0  0  0  0  0  0  0  0  0  0  0
  -18.8117    7.8687  -20.5076 C   0  0  0  0  0  0  0  0  0  0  0  0
  -17.6042    7.2179  -20.3211 C   0  0  0  0  0  0  0  0  0  0  0  0
  -18.3811    7.8347  -18.3743 C   0  0  0  0  0  0  0  0  0  0  0  0
  -20.5260    8.9241  -18.9848 C   0  0  2  0  0  0  0  0  0  0  0  0
  -21.4652    8.1833  -18.0918 C   0  0  2  0  0  0  0  0  0  0  0  0
  -23.4122    6.7406  -18.3861 C   0  0  2  0  0  0  0  0  0  0  0  0
  -22.9231    5.0083  -16.9037 C   0  0  1  0  0  0  0  0  0  0  0  0
  -23.5532    5.3968  -19.0432 C   0  0  2  0  0  0  0  0  0  0  0  0
  -21.0934   10.2615  -17.0627 C   0  0  1  0  0  0  0  0  0  0  0  0
  -21.7362    4.8590  -16.0004 C   0  0  0  0  0  0  0  0  0  0  0  0
  -15.6890    6.0022  -21.4616 N   0  0  0  0  0  0  0  0  0  0  0  0
  -17.4857    6.9413  -22.6951 N   0  0  0  0  0  0  0  0  0  0  0  0
  -19.2550    8.0273  -21.7672 N   0  0  0  0  0  0  0  0  0  0  0  0
  -17.3626    7.2036  -18.9754 N   0  0  0  0  0  0  0  0  0  0  0  0
  -19.2816    8.2577  -19.2960 N   0  0  0  0  0  0  0  0  0  0  0  0
  -22.2799    7.3494  -18.9227 O   0  0  0  0  0  0  0  0  0  0  0  0
  -23.1918    6.4039  -17.0078 O   0  0  0  0  0  0  0  0  0  0  0  0
  -22.7944    3.1351  -18.4348 O   0  0  0  0  0  0  0  0  0  0  0  0
  -24.9034    4.8992  -18.8849 O   0  0  0  0  0  0  0  0  0  0  0  0
  -23.0460    9.9275  -18.3194 O   0  0  0  0  0  0  0  0  0  0  0  0
  -19.7697    8.9175  -15.7039 O   0  0  0  0  0  0  0  0  0  0  0  0
  -18.1729    7.1620  -14.5253 O   0  0  0  0  0  0  0  0  0  0  0  0
  -20.7670    7.1639  -14.0950 O   0  0  0  0  0  0  0  0  0  0  0  0
  -19.8902    4.6889  -13.3943 O   0  0  0  0  0  0  0  0  0  0  0  0
  -22.1608    5.1044  -14.6585 O   0  0  0  0  0  0  0  0  0  0  0  0
  -21.6876    5.8391  -12.2535 O   0  0  0  0  0  0  0  0  0  0  0  0
  -19.3349    8.9118  -13.2049 O   0  0  0  0  0  0  0  0  0  0  0  0
  -20.1323    9.9999  -18.1178 O   0  0  0  0  0  0  0  0  0  0  0  0
  -19.4113    8.0182  -14.3963 P   0  0  2  0  0  0  0  0  0  0  0  0
  -21.0298    5.6494  -13.5865 P   0  0  2  0  0  0  0  0  0  0  0  0
  -21.5776    4.6853  -18.6710 H   0  0  0  0  0  0  0  0  0  0  0  0
  -22.7664    8.9013  -16.5200 H   0  0  0  0  0  0  0  0  0  0  0  0
  -19.8442   10.9534  -15.4573 H   0  0  0  0  0  0  0  0  0  0  0  0
  -21.2890   10.0731  -14.9192 H   0  0  0  0  0  0  0  0  0  0  0  0
  -19.0737    7.7483  -23.8303 H   0  0  0  0  0  0  0  0  0  0  0  0
  -18.4734    7.9875  -17.2888 H   0  0  0  0  0  0  0  0  0  0  0  0
  -21.0192    9.1274  -19.9468 H   0  0  0  0  0  0  0  0  0  0  0  0
  -21.0133    7.5049  -17.3531 H   0  0  0  0  0  0  0  0  0  0  0  0
  -24.2675    7.4190  -18.5208 H   0  0  0  0  0  0  0  0  0  0  0  0
  -23.7513    4.4126  -16.4925 H   0  0  0  0  0  0  0  0  0  0  0  0
  -23.3558    5.4201  -20.1251 H   0  0  0  0  0  0  0  0  0  0  0  0
  -21.4580   11.2990  -17.0352 H   0  0  0  0  0  0  0  0  0  0  0  0
  -21.3323    3.8391  -16.0822 H   0  0  0  0  0  0  0  0  0  0  0  0
  -20.9499    5.5733  -16.2861 H   0  0  0  0  0  0  0  0  0  0  0  0
  -15.2666    5.6736  -22.3416 H   0  0  0  0  0  0  0  0  0  0  0  0
  -15.2189    5.8173  -20.5640 H   0  0  0  0  0  0  0  0  0  0  0  0
  -22.8471    2.7294  -17.5333 H   0  0  0  0  0  0  0  0  0  0  0  0
  -25.1154    4.8210  -17.9210 H   0  0  0  0  0  0  0  0  0  0  0  0
  -23.7267   10.4537  -17.8297 H   0  0  0  0  0  0  0  0  0  0  0  0
  1 12  1  0
  1 13  1  0
  1 23  1  0
  2 10  1  0
  2 14  1  0
  2 25  1  0
 14  3  1  0
  3 26  1  0
  4  7  2  0
  4 16  1  0
  4 17  1  0
  5 17  2  0
  5 18  1  0
  6  7  1  0
  6 18  2  0
  6 20  1  0
  7 19  1  0
  8 19  2  0
  8 20  1  0
  9 10  1  0
  9 20  1  0
  9 33  1  0
 10 21  1  0
 11 13  1  0
 11 21  1  0
 11 22  1  0
 12 15  1  0
 12 22  1  0
 13 24  1  0
 14 33  1  0
 15 30  1  0
 26 34  1  0
 34 27  1  6
 28 34  1  0
 28 35  1  0
 35 29  1  1
 30 35  1  0
 31 35  2  0
 32 34  2  0
  1 36  1  6
  2 37  1  1
  3 38  1  0
  3 39  1  0
  5 40  1  0
  8 41  1  0
  9 42  1  6
 10 43  1  1
 11 44  1  1
 12 45  1  1
 13 46  1  6
 14 47  1  6
 15 48  1  0
 15 49  1  0
 16 50  1  0
 16 51  1  0
 23 52  1  0
 24 53  1  0
 25 54  1  0
M  CHG  2  27  -1  29  -1
M  END
>  <filename_input>  (4) 
7UAW_MF6_docked.sdf

>  <pdb_id>  (4) 
7UAW_MF6

>  <pose_rank>  (4) 
3

>  <num_atoms_heavy>  (4) 
35

>  <num_torsions>  (4) 
1

>  <pose>  (4) 
[-22.60936305860124, 4.561029649106554, -18.310503797872673, -1.9949357445286966, 0.46454867109064424, 1.0499822348566823, 2.1667279242601762]

>  <energy>  (4) 
-696.0486049033834

>  <inter_energy>  (4) 
-700.5409595081599

>  <intra_energy>  (4) 
4.831019822030631

>  <rmsd>  (4) 
5.3347

>  <sdf_rank>  (4) 
0

$$$$

     RDKit          3D

 54 58  0  0  0  0  0  0  0  0999 V2000
  -19.3224    6.0071  -14.6042 C   0  0  2  0  0  0  0  0  0  0  0  0
  -22.7419    6.9044  -17.8716 C   0  0  1  0  0  0  0  0  0  0  0  0
  -22.9936    9.2177  -18.8756 C   0  0  0  0  0  0  0  0  0  0  0  0
  -16.6167    6.6998  -21.5870 C   0  0  0  0  0  0  0  0  0  0  0  0
  -18.1480    5.2299  -22.5527 C   0  0  0  0  0  0  0  0  0  0  0  0
  -18.7948    6.4021  -20.6246 C   0  0  0  0  0  0  0  0  0  0  0  0
  -17.5699    7.0457  -20.5820 C   0  0  0  0  0  0  0  0  0  0  0  0
  -18.7988    7.7576  -18.9215 C   0  0  0  0  0  0  0  0  0  0  0  0
  -20.8842    6.4428  -19.2088 C   0  0  2  0  0  0  0  0  0  0  0  0
  -21.2725    6.7161  -17.7936 C   0  0  2  0  0  0  0  0  0  0  0  0
  -21.2999    5.4647  -15.6979 C   0  0  2  0  0  0  0  0  0  0  0  0
  -20.3755    7.0202  -14.2270 C   0  0  1  0  0  0  0  0  0  0  0  0
  -20.1819    4.8651  -14.8930 C   0  0  2  0  0  0  0  0  0  0  0  0
  -22.9155    7.7361  -19.1265 C   0  0  1  0  0  0  0  0  0  0  0  0
  -19.9208    8.4199  -14.5121 C   0  0  0  0  0  0  0  0  0  0  0  0
  -15.2855    7.2619  -21.6688 N   0  0  0  0  0  0  0  0  0  0  0  0
  -16.9523    5.8137  -22.5383 N   0  0  0  0  0  0  0  0  0  0  0  0
  -19.0166    5.5334  -21.6268 N   0  0  0  0  0  0  0  0  0  0  0  0
  -17.5966    7.8828  -19.5012 N   0  0  0  0  0  0  0  0  0  0  0  0
  -19.5552    6.8574  -19.5975 N   0  0  0  0  0  0  0  0  0  0  0  0
  -20.8443    5.5989  -17.0075 O   0  0  0  0  0  0  0  0  0  0  0  0
  -21.4741    6.7563  -15.0954 O   0  0  0  0  0  0  0  0  0  0  0  0
  -18.3822    5.8369  -13.5226 O   0  0  0  0  0  0  0  0  0  0  0  0
  -20.6963    4.2922  -13.6671 O   0  0  0  0  0  0  0  0  0  0  0  0
  -23.3465    5.6412  -18.1627 O   0  0  0  0  0  0  0  0  0  0  0  0
  -21.7196    9.6221  -18.4801 O   0  0  0  0  0  0  0  0  0  0  0  0
  -20.0018   11.5106  -17.7705 O   0  0  0  0  0  0  0  0  0  0  0  0
  -21.7124   10.4941  -16.0516 O   0  0  0  0  0  0  0  0  0  0  0  0
  -19.7292   11.6118  -14.5673 O   0  0  0  0  0  0  0  0  0  0  0  0
  -20.8725    9.3237  -13.9477 O   0  0  0  0  0  0  0  0  0  0  0  0
  -22.0523   11.5937  -13.8907 O   0  0  0  0  0  0  0  0  0  0  0  0
  -22.4393   11.9685  -17.8393 O   0  0  0  0  0  0  0  0  0  0  0  0
  -21.7465    7.3608  -19.9000 O   0  0  0  0  0  0  0  0  0  0  0  0
  -21.3891   10.9405  -17.5860 P   0  0  2  0  0  0  0  0  0  0  0  0
  -21.0048   10.8201  -14.6323 P   0  0  2  0  0  0  0  0  0  0  0  0
  -18.6554    6.2483  -15.4450 H   0  0  0  0  0  0  0  0  0  0  0  0
  -23.1669    7.3369  -16.9538 H   0  0  0  0  0  0  0  0  0  0  0  0
  -23.2903    9.7433  -19.7952 H   0  0  0  0  0  0  0  0  0  0  0  0
  -23.7414    9.4505  -18.1032 H   0  0  0  0  0  0  0  0  0  0  0  0
  -18.4015    4.5002  -23.3358 H   0  0  0  0  0  0  0  0  0  0  0  0
  -19.1252    8.3064  -18.0258 H   0  0  0  0  0  0  0  0  0  0  0  0
  -20.9419    5.3615  -19.4020 H   0  0  0  0  0  0  0  0  0  0  0  0
  -20.8181    7.5977  -17.3178 H   0  0  0  0  0  0  0  0  0  0  0  0
  -22.2312    4.8795  -15.7129 H   0  0  0  0  0  0  0  0  0  0  0  0
  -20.6106    6.9414  -13.1553 H   0  0  0  0  0  0  0  0  0  0  0  0
  -19.6559    4.0541  -15.4180 H   0  0  0  0  0  0  0  0  0  0  0  0
  -23.8712    7.5410  -19.6349 H   0  0  0  0  0  0  0  0  0  0  0  0
  -18.9327    8.5895  -14.0595 H   0  0  0  0  0  0  0  0  0  0  0  0
  -19.8433    8.5798  -15.5976 H   0  0  0  0  0  0  0  0  0  0  0  0
  -14.6474    6.9670  -22.4216 H   0  0  0  0  0  0  0  0  0  0  0  0
  -14.9763    7.9568  -20.9742 H   0  0  0  0  0  0  0  0  0  0  0  0
  -18.8556    5.9226  -12.6573 H   0  0  0  0  0  0  0  0  0  0  0  0
  -20.2855    4.7497  -12.8912 H   0  0  0  0  0  0  0  0  0  0  0  0
  -23.5681    5.1785  -17.3160 H   0  0  0  0  0  0  0  0  0  0  0  0
  1 12  1  0
  1 13  1  0
  1 23  1  0
  2 10  1  0
  2 14  1  0
  2 25  1  0
 14  3  1  0
  3 26  1  0
  4  7  2  0
  4 16  1  0
  4 17  1  0
  5 17  2  0
  5 18  1  0
  6  7  1  0
  6 18  2  0
  6 20  1  0
  7 19  1  0
  8 19  2  0
  8 20  1  0
  9 10  1  0
  9 20  1  0
  9 33  1  0
 10 21  1  0
 11 13  1  0
 11 21  1  0
 11 22  1  0
 12 15  1  0
 12 22  1  0
 13 24  1  0
 14 33  1  0
 15 30  1  0
 26 34  1  0
 34 27  1  1
 28 34  1  0
 28 35  1  0
 35 29  1  6
 30 35  1  0
 31 35  2  0
 32 34  2  0
  1 36  1  6
  2 37  1  1
  3 38  1  0
  3 39  1  0
  5 40  1  0
  8 41  1  0
  9 42  1  6
 10 43  1  1
 11 44  1  6
 12 45  1  1
 13 46  1  6
 14 47  1  6
 15 48  1  0
 15 49  1  0
 16 50  1  0
 16 51  1  0
 23 52  1  0
 24 53  1  0
 25 54  1  0
M  CHG  2  27  -1  29  -1
M  END
>  <filename_input>  (5) 
7UAW_MF6_docked.sdf

>  <pdb_id>  (5) 
7UAW_MF6

>  <pose_rank>  (5) 
4

>  <num_atoms_heavy>  (5) 
35

>  <num_torsions>  (5) 
1

>  <pose>  (5) 
[-19.322431476320205, 6.007127932093158, -14.604212375426247, -3.4429751500154966, 0.16977461678631425, 1.7746931047627352, -3.430398082542865]

>  <energy>  (5) 
-713.7630648122093

>  <inter_energy>  (5) 
-713.7459623051669

>  <intra_energy>  (5) 
0.46296193179408446

>  <rmsd>  (5) 
5.50201

>  <sdf_rank>  (5) 
0

$$$$

     RDKit          3D

 54 58  0  0  0  0  0  0  0  0999 V2000
  -20.8001   10.5718  -17.5306 C   0  0  2  0  0  0  0  0  0  0  0  0
  -22.3041    8.2505  -13.5906 C   0  0  1  0  0  0  0  0  0  0  0  0
  -22.6664    5.7426  -13.6286 C   0  0  0  0  0  0  0  0  0  0  0  0
  -16.6818    4.7487  -15.0482 C   0  0  0  0  0  0  0  0  0  0  0  0
  -18.5916    3.7770  -14.1279 C   0  0  0  0  0  0  0  0  0  0  0  0
  -18.4661    6.1195  -14.2136 C   0  0  0  0  0  0  0  0  0  0  0  0
  -17.2267    6.0495  -14.8262 C   0  0  0  0  0  0  0  0  0  0  0  0
  -17.7850    8.1500  -14.6017 C   0  0  0  0  0  0  0  0  0  0  0  0
  -19.9868    7.9909  -13.4675 C   0  0  2  0  0  0  0  0  0  0  0  0
  -21.0702    8.4368  -14.3927 C   0  0  2  0  0  0  0  0  0  0  0  0
  -21.7619   10.5427  -15.4151 C   0  0  2  0  0  0  0  0  0  0  0  0
  -22.1370    9.8771  -17.6183 C   0  0  1  0  0  0  0  0  0  0  0  0
  -21.0579   11.4433  -16.3902 C   0  0  2  0  0  0  0  0  0  0  0  0
  -22.0703    6.9195  -12.9048 C   0  0  1  0  0  0  0  0  0  0  0  0
  -22.0085    8.5081  -18.2153 C   0  0  0  0  0  0  0  0  0  0  0  0
  -15.3903    4.5037  -15.6536 N   0  0  0  0  0  0  0  0  0  0  0  0
  -17.3951    3.6658  -14.6996 N   0  0  0  0  0  0  0  0  0  0  0  0
  -19.0861    4.9653  -13.9105 N   0  0  0  0  0  0  0  0  0  0  0  0
  -16.8197    7.3354  -15.0509 N   0  0  0  0  0  0  0  0  0  0  0  0
  -18.8100    7.4257  -14.0879 N   0  0  0  0  0  0  0  0  0  0  0  0
  -20.7866    9.7897  -14.7653 O   0  0  0  0  0  0  0  0  0  0  0  0
  -22.5554    9.7026  -16.2673 O   0  0  0  0  0  0  0  0  0  0  0  0
  -20.4964   11.2312  -18.7779 O   0  0  0  0  0  0  0  0  0  0  0  0
  -21.9203   12.5412  -16.7732 O   0  0  0  0  0  0  0  0  0  0  0  0
  -22.3158    9.2243  -12.5429 O   0  0  0  0  0  0  0  0  0  0  0  0
  -21.9122    5.5644  -14.7873 O   0  0  0  0  0  0  0  0  0  0  0  0
  -21.3521    4.2317  -17.0078 O   0  0  0  0  0  0  0  0  0  0  0  0
  -23.3235    5.9690  -16.9092 O   0  0  0  0  0  0  0  0  0  0  0  0
  -22.7052    5.6818  -19.5399 O   0  0  0  0  0  0  0  0  0  0  0  0
  -23.3217    7.9982  -18.4533 O   0  0  0  0  0  0  0  0  0  0  0  0
  -24.9562    6.0491  -18.7318 O   0  0  0  0  0  0  0  0  0  0  0  0
  -23.4686    3.8243  -15.7790 O   0  0  0  0  0  0  0  0  0  0  0  0
  -20.6217    6.8631  -12.8436 O   0  0  0  0  0  0  0  0  0  0  0  0
  -22.4354    4.8355  -16.1445 P   0  0  2  0  0  0  0  0  0  0  0  0
  -23.5136    6.3586  -18.4691 P   0  0  2  0  0  0  0  0  0  0  0  0
  -19.9059    9.9484  -17.3833 H   0  0  0  0  0  0  0  0  0  0  0  0
  -23.2209    8.3180  -14.1947 H   0  0  0  0  0  0  0  0  0  0  0  0
  -22.6126    4.8425  -12.9985 H   0  0  0  0  0  0  0  0  0  0  0  0
  -23.7255    5.9186  -13.8677 H   0  0  0  0  0  0  0  0  0  0  0  0
  -19.1573    2.8780  -13.8418 H   0  0  0  0  0  0  0  0  0  0  0  0
  -17.7506    9.2487  -14.6439 H   0  0  0  0  0  0  0  0  0  0  0  0
  -19.6422    8.8463  -12.8680 H   0  0  0  0  0  0  0  0  0  0  0  0
  -21.1671    7.8882  -15.3411 H   0  0  0  0  0  0  0  0  0  0  0  0
  -22.3659   11.0587  -14.6543 H   0  0  0  0  0  0  0  0  0  0  0  0
  -22.8293   10.4647  -18.2391 H   0  0  0  0  0  0  0  0  0  0  0  0
  -20.1429   11.8956  -15.9803 H   0  0  0  0  0  0  0  0  0  0  0  0
  -22.5635    6.8564  -11.9236 H   0  0  0  0  0  0  0  0  0  0  0  0
  -21.4544    8.5664  -19.1637 H   0  0  0  0  0  0  0  0  0  0  0  0
  -21.4626    7.8446  -17.5284 H   0  0  0  0  0  0  0  0  0  0  0  0
  -15.0577    3.5377  -15.7843 H   0  0  0  0  0  0  0  0  0  0  0  0
  -14.8038    5.2954  -15.9538 H   0  0  0  0  0  0  0  0  0  0  0  0
  -20.0896   12.1147  -18.5936 H   0  0  0  0  0  0  0  0  0  0  0  0
  -22.2694   12.9857  -15.9604 H   0  0  0  0  0  0  0  0  0  0  0  0
  -22.3103    8.7653  -11.6657 H   0  0  0  0  0  0  0  0  0  0  0  0
  1 12  1  0
  1 13  1  0
  1 23  1  0
  2 10  1  0
  2 14  1  0
  2 25  1  0
 14  3  1  0
  3 26  1  0
  4  7  2  0
  4 16  1  0
  4 17  1  0
  5 17  2  0
  5 18  1  0
  6  7  1  0
  6 18  2  0
  6 20  1  0
  7 19  1  0
  8 19  2  0
  8 20  1  0
  9 10  1  0
  9 20  1  0
  9 33  1  0
 10 21  1  0
 11 13  1  0
 11 21  1  0
 11 22  1  0
 12 15  1  0
 12 22  1  0
 13 24  1  0
 14 33  1  0
 15 30  1  0
 26 34  1  0
 34 27  1  6
 28 34  1  0
 28 35  1  0
 35 29  1  6
 30 35  1  0
 31 35  2  0
 32 34  2  0
  1 36  1  1
  2 37  1  6
  3 38  1  0
  3 39  1  0
  5 40  1  0
  8 41  1  0
  9 42  1  1
 10 43  1  6
 11 44  1  1
 12 45  1  6
 13 46  1  1
 14 47  1  1
 15 48  1  0
 15 49  1  0
 16 50  1  0
 16 51  1  0
 23 52  1  0
 24 53  1  0
 25 54  1  0
M  CHG  2  27  -1  29  -1
M  END
>  <filename_input>  (6) 
7UAW_MF6_docked.sdf

>  <pdb_id>  (6) 
7UAW_MF6

>  <pose_rank>  (6) 
5

>  <num_atoms_heavy>  (6) 
35

>  <num_torsions>  (6) 
1

>  <pose>  (6) 
[-20.80009993878307, 10.571833051436915, -17.530571031010957, 4.293207998337893, 3.904398008303585, 0.7064105388756892, -1.6719442506894173]

>  <energy>  (6) 
-705.5530673594527

>  <inter_energy>  (6) 
-730.3763927709574

>  <intra_energy>  (6) 
28.961915211037315

>  <rmsd>  (6) 
2.35738

>  <sdf_rank>  (6) 
0

$$$$

     RDKit          3D

 54 58  0  0  0  0  0  0  0  0999 V2000
  -21.2347   11.4033  -16.6879 C   0  0  2  0  0  0  0  0  0  0  0  0
  -22.0717    7.1551  -14.5842 C   0  0  1  0  0  0  0  0  0  0  0  0
  -22.6729    5.1223  -15.9732 C   0  0  0  0  0  0  0  0  0  0  0  0
  -15.5898    6.7114  -17.6167 C   0  0  0  0  0  0  0  0  0  0  0  0
  -15.3751    6.3702  -15.3198 C   0  0  0  0  0  0  0  0  0  0  0  0
  -17.5177    6.7756  -16.1890 C   0  0  0  0  0  0  0  0  0  0  0  0
  -17.0023    6.8596  -17.4711 C   0  0  0  0  0  0  0  0  0  0  0  0
  -19.1667    7.1453  -17.5609 C   0  0  0  0  0  0  0  0  0  0  0  0
  -19.8181    6.9846  -15.1713 C   0  0  2  0  0  0  0  0  0  0  0  0
  -21.0272    7.8322  -15.3911 C   0  0  2  0  0  0  0  0  0  0  0  0
  -21.7170   10.1037  -14.8227 C   0  0  2  0  0  0  0  0  0  0  0  0
  -22.6195   10.8253  -16.8481 C   0  0  1  0  0  0  0  0  0  0  0  0
  -21.1562   11.4360  -15.2322 C   0  0  2  0  0  0  0  0  0  0  0  0
  -21.8248    5.6865  -14.8656 C   0  0  1  0  0  0  0  0  0  0  0  0
  -22.7546   10.0664  -18.1337 C   0  0  0  0  0  0  0  0  0  0  0  0
  -14.8924    6.7964  -18.8820 N   0  0  0  0  0  0  0  0  0  0  0  0
  -14.8371    6.4603  -16.5335 N   0  0  0  0  0  0  0  0  0  0  0  0
  -16.6645    6.5197  -15.1816 N   0  0  0  0  0  0  0  0  0  0  0  0
  -18.0555    7.0996  -18.3093 N   0  0  0  0  0  0  0  0  0  0  0  0
  -18.8622    6.9430  -16.2548 N   0  0  0  0  0  0  0  0  0  0  0  0
  -20.7017    9.1615  -14.9708 O   0  0  0  0  0  0  0  0  0  0  0  0
  -22.7522    9.8781  -15.7917 O   0  0  0  0  0  0  0  0  0  0  0  0
  -21.1446   12.6786  -17.3576 O   0  0  0  0  0  0  0  0  0  0  0  0
  -21.9711   12.5088  -14.7024 O   0  0  0  0  0  0  0  0  0  0  0  0
  -21.7641    7.3366  -13.1991 O   0  0  0  0  0  0  0  0  0  0  0  0
  -22.2063    5.6874  -17.1589 O   0  0  0  0  0  0  0  0  0  0  0  0
  -22.2677    5.9225  -19.7974 O   0  0  0  0  0  0  0  0  0  0  0  0
  -23.9955    7.1812  -18.2661 O   0  0  0  0  0  0  0  0  0  0  0  0
  -23.9882    8.5066  -20.6385 O   0  0  0  0  0  0  0  0  0  0  0  0
  -24.1310    9.7270  -18.3111 O   0  0  0  0  0  0  0  0  0  0  0  0
  -25.9667    8.2266  -19.2739 O   0  0  0  0  0  0  0  0  0  0  0  0
  -24.0995    4.7750  -18.5793 O   0  0  0  0  0  0  0  0  0  0  0  0
  -20.4092    5.6752  -15.1840 O   0  0  0  0  0  0  0  0  0  0  0  0
  -23.0768    5.8589  -18.5227 P   0  0  2  0  0  0  0  0  0  0  0  0
  -24.4785    8.3950  -19.2224 P   0  0  2  0  0  0  0  0  0  0  0  0
  -20.3938   10.8545  -17.1371 H   0  0  0  0  0  0  0  0  0  0  0  0
  -23.0862    7.5166  -14.8081 H   0  0  0  0  0  0  0  0  0  0  0  0
  -22.5715    4.0276  -16.0088 H   0  0  0  0  0  0  0  0  0  0  0  0
  -23.7367    5.3531  -15.8153 H   0  0  0  0  0  0  0  0  0  0  0  0
  -14.7408    6.1720  -14.4432 H   0  0  0  0  0  0  0  0  0  0  0  0
  -20.1802    7.3215  -17.9502 H   0  0  0  0  0  0  0  0  0  0  0  0
  -19.2720    7.3478  -14.2882 H   0  0  0  0  0  0  0  0  0  0  0  0
  -21.3781    7.9331  -16.4287 H   0  0  0  0  0  0  0  0  0  0  0  0
  -22.0908   10.0514  -13.7894 H   0  0  0  0  0  0  0  0  0  0  0  0
  -23.3695   11.6299  -16.8377 H   0  0  0  0  0  0  0  0  0  0  0  0
  -20.1352   11.6094  -14.8613 H   0  0  0  0  0  0  0  0  0  0  0  0
  -22.0991    5.0411  -14.0181 H   0  0  0  0  0  0  0  0  0  0  0  0
  -22.4145   10.6917  -18.9724 H   0  0  0  0  0  0  0  0  0  0  0  0
  -22.1401    9.1546  -18.1023 H   0  0  0  0  0  0  0  0  0  0  0  0
  -13.8696    6.6795  -18.9151 H   0  0  0  0  0  0  0  0  0  0  0  0
  -15.4188    6.9739  -19.7493 H   0  0  0  0  0  0  0  0  0  0  0  0
  -21.0934   13.4022  -16.6839 H   0  0  0  0  0  0  0  0  0  0  0  0
  -21.9503   12.4813  -13.7130 H   0  0  0  0  0  0  0  0  0  0  0  0
  -22.4715    6.9191  -12.6465 H   0  0  0  0  0  0  0  0  0  0  0  0
  1 12  1  0
  1 13  1  0
  1 23  1  0
  2 10  1  0
  2 14  1  0
  2 25  1  0
 14  3  1  0
  3 26  1  0
  4  7  2  0
  4 16  1  0
  4 17  1  0
  5 17  2  0
  5 18  1  0
  6  7  1  0
  6 18  2  0
  6 20  1  0
  7 19  1  0
  8 19  2  0
  8 20  1  0
  9 10  1  0
  9 20  1  0
  9 33  1  0
 10 21  1  0
 11 13  1  0
 11 21  1  0
 11 22  1  0
 12 15  1  0
 12 22  1  0
 13 24  1  0
 14 33  1  0
 15 30  1  0
 26 34  1  0
 34 27  1  6
 28 34  1  0
 28 35  1  0
 35 29  1  6
 30 35  1  0
 31 35  2  0
 32 34  2  0
  1 36  1  6
  2 37  1  1
  3 38  1  0
  3 39  1  0
  5 40  1  0
  8 41  1  0
  9 42  1  1
 10 43  1  6
 11 44  1  1
 12 45  1  1
 13 46  1  6
 14 47  1  1
 15 48  1  0
 15 49  1  0
 16 50  1  0
 16 51  1  0
 23 52  1  0
 24 53  1  0
 25 54  1  0
M  CHG  2  27  -1  29  -1
M  END
>  <filename_input>  (7) 
7UAW_MF6_docked.sdf

>  <pdb_id>  (7) 
7UAW_MF6

>  <pose_rank>  (7) 
6

>  <num_atoms_heavy>  (7) 
35

>  <num_torsions>  (7) 
1

>  <pose>  (7) 
[-21.23465782279245, 11.403301575150365, -16.687929134524126, 0.28799356071143056, -0.023358085105131182, -0.12577795081792784, 2.7080031226237677]

>  <energy>  (7) 
-702.2481698197628

>  <inter_energy>  (7) 
-698.7067175935546

>  <intra_energy>  (7) 
1.2598894221308505

>  <rmsd>  (7) 
1.99568

>  <sdf_rank>  (7) 
0

$$$$

     RDKit          3D

 54 58  0  0  0  0  0  0  0  0999 V2000
  -19.8979    6.5743  -14.4311 C   0  0  2  0  0  0  0  0  0  0  0  0
  -20.5533   10.6607  -16.8898 C   0  0  1  0  0  0  0  0  0  0  0  0
  -20.1923   10.7313  -19.3973 C   0  0  0  0  0  0  0  0  0  0  0  0
  -23.6936    4.9894  -18.3955 C   0  0  0  0  0  0  0  0  0  0  0  0
  -21.7697    5.1858  -17.0923 C   0  0  0  0  0  0  0  0  0  0  0  0
  -22.9535    7.1402  -17.6303 C   0  0  0  0  0  0  0  0  0  0  0  0
  -23.8955    6.4010  -18.3249 C   0  0  0  0  0  0  0  0  0  0  0  0
  -24.4541    8.5118  -18.4079 C   0  0  0  0  0  0  0  0  0  0  0  0
  -22.6149    9.5930  -17.1398 C   0  0  2  0  0  0  0  0  0  0  0  0
  -21.2184    9.3531  -16.6699 C   0  0  2  0  0  0  0  0  0  0  0  0
  -20.1305    8.8842  -14.5356 C   0  0  2  0  0  0  0  0  0  0  0  0
  -18.6905    7.1492  -15.1304 C   0  0  1  0  0  0  0  0  0  0  0  0
  -20.2588    7.7162  -13.5993 C   0  0  2  0  0  0  0  0  0  0  0  0
  -21.0850   11.0935  -18.2414 C   0  0  1  0  0  0  0  0  0  0  0  0
  -18.4855    6.5260  -16.4782 C   0  0  0  0  0  0  0  0  0  0  0  0
  -24.5704    4.0798  -19.1014 N   0  0  0  0  0  0  0  0  0  0  0  0
  -22.6433    4.4403  -17.7642 N   0  0  0  0  0  0  0  0  0  0  0  0
  -21.9436    6.4784  -17.0381 N   0  0  0  0  0  0  0  0  0  0  0  0
  -24.8193    7.2856  -18.8082 N   0  0  0  0  0  0  0  0  0  0  0  0
  -23.3133    8.4473  -17.6773 N   0  0  0  0  0  0  0  0  0  0  0  0
  -21.2916    8.9310  -15.3039 O   0  0  0  0  0  0  0  0  0  0  0  0
  -19.0065    8.5210  -15.3518 O   0  0  0  0  0  0  0  0  0  0  0  0
  -19.5405    5.3649  -13.7292 O   0  0  0  0  0  0  0  0  0  0  0  0
  -19.3335    7.8539  -12.4944 O   0  0  0  0  0  0  0  0  0  0  0  0
  -21.0815   11.6020  -15.9512 O   0  0  0  0  0  0  0  0  0  0  0  0
  -20.2592    9.3456  -19.5327 O   0  0  0  0  0  0  0  0  0  0  0  0
  -19.6109    7.1041  -20.7882 O   0  0  0  0  0  0  0  0  0  0  0  0
  -17.9768    8.2357  -19.0667 O   0  0  0  0  0  0  0  0  0  0  0  0
  -17.1846    5.6436  -19.2634 O   0  0  0  0  0  0  0  0  0  0  0  0
  -17.2251    6.9650  -16.9878 O   0  0  0  0  0  0  0  0  0  0  0  0
  -15.6500    7.4855  -18.9361 O   0  0  0  0  0  0  0  0  0  0  0  0
  -18.3952    9.2174  -21.2483 O   0  0  0  0  0  0  0  0  0  0  0  0
  -22.3671   10.4157  -18.2912 O   0  0  0  0  0  0  0  0  0  0  0  0
  -19.1160    8.4137  -20.2195 P   0  0  2  0  0  0  0  0  0  0  0  0
  -17.0324    6.9964  -18.6270 P   0  0  2  0  0  0  0  0  0  0  0  0
  -20.7376    6.2320  -15.0538 H   0  0  0  0  0  0  0  0  0  0  0  0
  -19.4579   10.6024  -16.8079 H   0  0  0  0  0  0  0  0  0  0  0  0
  -20.5454   11.2201  -20.3173 H   0  0  0  0  0  0  0  0  0  0  0  0
  -19.1588   11.0632  -19.2196 H   0  0  0  0  0  0  0  0  0  0  0  0
  -20.9108    4.7184  -16.5884 H   0  0  0  0  0  0  0  0  0  0  0  0
  -25.0014    9.4376  -18.6389 H   0  0  0  0  0  0  0  0  0  0  0  0
  -23.2241    9.9643  -16.3025 H   0  0  0  0  0  0  0  0  0  0  0  0
  -20.6512    8.5654  -17.1876 H   0  0  0  0  0  0  0  0  0  0  0  0
  -19.9972    9.8614  -14.0486 H   0  0  0  0  0  0  0  0  0  0  0  0
  -17.7866    6.9799  -14.5268 H   0  0  0  0  0  0  0  0  0  0  0  0
  -21.2610    7.6241  -13.1553 H   0  0  0  0  0  0  0  0  0  0  0  0
  -21.1516   12.1870  -18.3397 H   0  0  0  0  0  0  0  0  0  0  0  0
  -18.4879    5.4299  -16.3855 H   0  0  0  0  0  0  0  0  0  0  0  0
  -19.2951    6.8237  -17.1608 H   0  0  0  0  0  0  0  0  0  0  0  0
  -24.3650    3.0705  -19.1118 H   0  0  0  0  0  0  0  0  0  0  0  0
  -25.3998    4.4417  -19.5933 H   0  0  0  0  0  0  0  0  0  0  0  0
  -19.5874    5.5238  -12.7532 H   0  0  0  0  0  0  0  0  0  0  0  0
  -19.8272    7.7804  -11.6394 H   0  0  0  0  0  0  0  0  0  0  0  0
  -20.9036   11.2851  -15.0304 H   0  0  0  0  0  0  0  0  0  0  0  0
  1 12  1  0
  1 13  1  0
  1 23  1  0
  2 10  1  0
  2 14  1  0
  2 25  1  0
 14  3  1  0
  3 26  1  0
  4  7  2  0
  4 16  1  0
  4 17  1  0
  5 17  2  0
  5 18  1  0
  6  7  1  0
  6 18  2  0
  6 20  1  0
  7 19  1  0
  8 19  2  0
  8 20  1  0
  9 10  1  0
  9 20  1  0
  9 33  1  0
 10 21  1  0
 11 13  1  0
 11 21  1  0
 11 22  1  0
 12 15  1  0
 12 22  1  0
 13 24  1  0
 14 33  1  0
 15 30  1  0
 26 34  1  0
 34 27  1  6
 28 34  1  0
 28 35  1  0
 35 29  1  6
 30 35  1  0
 31 35  2  0
 32 34  2  0
  1 36  1  6
  2 37  1  6
  3 38  1  0
  3 39  1  0
  5 40  1  0
  8 41  1  0
  9 42  1  1
 10 43  1  6
 11 44  1  1
 12 45  1  1
 13 46  1  1
 14 47  1  1
 15 48  1  0
 15 49  1  0
 16 50  1  0
 16 51  1  0
 23 52  1  0
 24 53  1  0
 25 54  1  0
M  CHG  2  27  -1  29  -1
M  END
>  <filename_input>  (8) 
7UAW_MF6_docked.sdf

>  <pdb_id>  (8) 
7UAW_MF6

>  <pose_rank>  (8) 
7

>  <num_atoms_heavy>  (8) 
35

>  <num_torsions>  (8) 
1

>  <pose>  (8) 
[-19.89793529531571, 6.574255173176498, -14.431124923951742, -0.24258343891586318, 1.9771174501285205, 2.658865170581008, 0.2920861090264553]

>  <energy>  (8) 
-669.950617161142

>  <inter_energy>  (8) 
-693.1977596991576

>  <intra_energy>  (8) 
31.09160407453328

>  <rmsd>  (8) 
6.04399

>  <sdf_rank>  (8) 
0

$$$$

     RDKit          3D

 54 58  0  0  0  0  0  0  0  0999 V2000
  -18.5550    7.0659  -19.8338 C   0  0  2  0  0  0  0  0  0  0  0  0
  -18.8000    7.6444  -15.0610 C   0  0  1  0  0  0  0  0  0  0  0  0
  -20.7795    8.8208  -14.0027 C   0  0  0  0  0  0  0  0  0  0  0  0
  -23.5864    4.6637  -18.5978 C   0  0  0  0  0  0  0  0  0  0  0  0
  -21.9166    6.0504  -19.4505 C   0  0  0  0  0  0  0  0  0  0  0  0
  -21.7200    5.3061  -17.2329 C   0  0  0  0  0  0  0  0  0  0  0  0
  -22.8957    4.5850  -17.3508 C   0  0  0  0  0  0  0  0  0  0  0  0
  -22.0854    4.2895  -15.3433 C   0  0  0  0  0  0  0  0  0  0  0  0
  -20.0386    5.6926  -15.3903 C   0  0  2  0  0  0  0  0  0  0  0  0
  -19.4142    6.8258  -16.1349 C   0  0  2  0  0  0  0  0  0  0  0  0
  -17.5811    7.0965  -17.7239 C   0  0  2  0  0  0  0  0  0  0  0  0
  -18.5633    8.4847  -19.3194 C   0  0  1  0  0  0  0  0  0  0  0  0
  -17.3934    6.5574  -19.1137 C   0  0  2  0  0  0  0  0  0  0  0  0
  -19.8560    7.6332  -13.9741 C   0  0  1  0  0  0  0  0  0  0  0  0
  -19.9450    9.0660  -19.3283 C   0  0  0  0  0  0  0  0  0  0  0  0
  -24.8376    3.9913  -18.8750 N   0  0  0  0  0  0  0  0  0  0  0  0
  -23.0592    5.3851  -19.6002 N   0  0  0  0  0  0  0  0  0  0  0  0
  -21.2902    5.9920  -18.3067 N   0  0  0  0  0  0  0  0  0  0  0  0
  -23.1050    3.9644  -16.1505 N   0  0  0  0  0  0  0  0  0  0  0  0
  -21.2180    5.1087  -15.9883 N   0  0  0  0  0  0  0  0  0  0  0  0
  -18.4910    6.2653  -17.0745 O   0  0  0  0  0  0  0  0  0  0  0  0
  -18.1628    8.3886  -17.9552 O   0  0  0  0  0  0  0  0  0  0  0  0
  -18.4634    7.0568  -21.2741 O   0  0  0  0  0  0  0  0  0  0  0  0
  -16.1703    7.0728  -19.6918 O   0  0  0  0  0  0  0  0  0  0  0  0
  -17.6876    6.9249  -14.5217 O   0  0  0  0  0  0  0  0  0  0  0  0
  -21.5812    8.6744  -15.1336 O   0  0  0  0  0  0  0  0  0  0  0  0
  -23.5595    9.4911  -16.6956 O   0  0  0  0  0  0  0  0  0  0  0  0
  -21.1616   10.5600  -16.8444 O   0  0  0  0  0  0  0  0  0  0  0  0
  -22.3860   11.1285  -19.2029 O   0  0  0  0  0  0  0  0  0  0  0  0
  -19.8469   10.4590  -19.0267 O   0  0  0  0  0  0  0  0  0  0  0  0
  -20.8381   12.6319  -18.1079 O   0  0  0  0  0  0  0  0  0  0  0  0
  -22.6198   10.9811  -14.9484 O   0  0  0  0  0  0  0  0  0  0  0  0
  -20.5443    6.3831  -14.2364 O   0  0  0  0  0  0  0  0  0  0  0  0
  -22.3251    9.8889  -15.9200 P   0  0  2  0  0  0  0  0  0  0  0  0
  -21.1589   11.1861  -18.3374 P   0  0  2  0  0  0  0  0  0  0  0  0
  -19.4515    6.4521  -19.6624 H   0  0  0  0  0  0  0  0  0  0  0  0
  -18.4877    8.6404  -15.4083 H   0  0  0  0  0  0  0  0  0  0  0  0
  -21.4020    8.8395  -13.0959 H   0  0  0  0  0  0  0  0  0  0  0  0
  -20.2132    9.7632  -14.0371 H   0  0  0  0  0  0  0  0  0  0  0  0
  -21.5047    6.6427  -20.2809 H   0  0  0  0  0  0  0  0  0  0  0  0
  -21.9689    3.9416  -14.3063 H   0  0  0  0  0  0  0  0  0  0  0  0
  -19.3076    4.8775  -15.2838 H   0  0  0  0  0  0  0  0  0  0  0  0
  -20.0893    7.4568  -16.7316 H   0  0  0  0  0  0  0  0  0  0  0  0
  -16.6659    7.1509  -17.1160 H   0  0  0  0  0  0  0  0  0  0  0  0
  -17.9147    9.1176  -19.9429 H   0  0  0  0  0  0  0  0  0  0  0  0
  -17.3143    5.4608  -19.1467 H   0  0  0  0  0  0  0  0  0  0  0  0
  -19.4251    7.7047  -12.9645 H   0  0  0  0  0  0  0  0  0  0  0  0
  -20.3989    8.9313  -20.3212 H   0  0  0  0  0  0  0  0  0  0  0  0
  -20.5742    8.5597  -18.5815 H   0  0  0  0  0  0  0  0  0  0  0  0
  -25.2826    4.0914  -19.7985 H   0  0  0  0  0  0  0  0  0  0  0  0
  -25.2831    3.4125  -18.1487 H   0  0  0  0  0  0  0  0  0  0  0  0
  -17.5157    6.9617  -21.5439 H   0  0  0  0  0  0  0  0  0  0  0  0
  -15.5480    7.3350  -18.9678 H   0  0  0  0  0  0  0  0  0  0  0  0
  -17.7265    6.9500  -13.5328 H   0  0  0  0  0  0  0  0  0  0  0  0
  1 12  1  0
  1 13  1  0
  1 23  1  0
  2 10  1  0
  2 14  1  0
  2 25  1  0
 14  3  1  0
  3 26  1  0
  4  7  2  0
  4 16  1  0
  4 17  1  0
  5 17  2  0
  5 18  1  0
  6  7  1  0
  6 18  2  0
  6 20  1  0
  7 19  1  0
  8 19  2  0
  8 20  1  0
  9 10  1  0
  9 20  1  0
  9 33  1  0
 10 21  1  0
 11 13  1  0
 11 21  1  0
 11 22  1  0
 12 15  1  0
 12 22  1  0
 13 24  1  0
 14 33  1  0
 15 30  1  0
 26 34  1  0
 34 27  1  6
 28 34  1  0
 28 35  1  0
 35 29  1  6
 30 35  1  0
 31 35  2  0
 32 34  2  0
  1 36  1  6
  2 37  1  6
  3 38  1  0
  3 39  1  0
  5 40  1  0
  8 41  1  0
  9 42  1  1
 10 43  1  6
 11 44  1  1
 12 45  1  6
 13 46  1  1
 14 47  1  1
 15 48  1  0
 15 49  1  0
 16 50  1  0
 16 51  1  0
 23 52  1  0
 24 53  1  0
 25 54  1  0
M  CHG  2  27  -1  29  -1
M  END
>  <filename_input>  (9) 
7UAW_MF6_docked.sdf

>  <pdb_id>  (9) 
7UAW_MF6

>  <pose_rank>  (9) 
8

>  <num_atoms_heavy>  (9) 
35

>  <num_torsions>  (9) 
1

>  <pose>  (9) 
[-18.55495525838033, 7.06594037899059, -19.833764183131173, 1.0813246263701246, -1.4307987116425838, 3.841863612187073, 0.2964975319428788]

>  <energy>  (9) 
-648.3781832221384

>  <inter_energy>  (9) 
-679.1302330607461

>  <intra_energy>  (9) 
31.199625536168764

>  <rmsd>  (9) 
5.23571

>  <sdf_rank>  (9) 
0

$$$$

     RDKit          3D

 54 58  0  0  0  0  0  0  0  0999 V2000
  -17.4748    6.7823  -20.1017 C   0  0  2  0  0  0  0  0  0  0  0  0
  -21.4588    9.3481  -19.2544 C   0  0  1  0  0  0  0  0  0  0  0  0
  -23.5812    8.2134  -18.4603 C   0  0  0  0  0  0  0  0  0  0  0  0
  -20.6968    6.3976  -13.1300 C   0  0  0  0  0  0  0  0  0  0  0  0
  -22.7784    7.1644  -13.8494 C   0  0  0  0  0  0  0  0  0  0  0  0
  -20.8786    7.7807  -15.0828 C   0  0  0  0  0  0  0  0  0  0  0  0
  -20.0655    7.0562  -14.2282 C   0  0  0  0  0  0  0  0  0  0  0  0
  -18.8257    7.9608  -15.7835 C   0  0  0  0  0  0  0  0  0  0  0  0
  -20.4974    9.2055  -17.1312 C   0  0  2  0  0  0  0  0  0  0  0  0
  -20.3869    8.6432  -18.5097 C   0  0  2  0  0  0  0  0  0  0  0  0
  -18.7492    8.7136  -20.3184 C   0  0  2  0  0  0  0  0  0  0  0  0
  -18.6793    6.4718  -20.9564 C   0  0  1  0  0  0  0  0  0  0  0  0
  -17.3372    8.2050  -20.3903 C   0  0  2  0  0  0  0  0  0  0  0  0
  -22.6139    9.3508  -18.2734 C   0  0  1  0  0  0  0  0  0  0  0  0
  -19.4633    5.3190  -20.4057 C   0  0  0  0  0  0  0  0  0  0  0  0
  -19.9884    5.6218  -12.1347 N   0  0  0  0  0  0  0  0  0  0  0  0
  -22.0308    6.4704  -12.9949 N   0  0  0  0  0  0  0  0  0  0  0  0
  -22.2024    7.7795  -14.8463 N   0  0  0  0  0  0  0  0  0  0  0  0
  -18.7842    7.1928  -14.6856 N   0  0  0  0  0  0  0  0  0  0  0  0
  -20.1032    8.3297  -16.0510 N   0  0  0  0  0  0  0  0  0  0  0  0
  -19.0566    8.8992  -18.9724 O   0  0  0  0  0  0  0  0  0  0  0  0
  -19.5122    7.6240  -20.8588 O   0  0  0  0  0  0  0  0  0  0  0  0
  -16.3620    5.9464  -20.4834 O   0  0  0  0  0  0  0  0  0  0  0  0
  -16.7979    8.4053  -21.7188 O   0  0  0  0  0  0  0  0  0  0  0  0
  -21.0808   10.7195  -19.4045 O   0  0  0  0  0  0  0  0  0  0  0  0
  -22.9155    7.0554  -18.0619 O   0  0  0  0  0  0  0  0  0  0  0  0
  -22.8703    4.4445  -17.6122 O   0  0  0  0  0  0  0  0  0  0  0  0
  -22.5831    5.4258  -20.0348 O   0  0  0  0  0  0  0  0  0  0  0  0
  -21.5504    2.9134  -20.1138 O   0  0  0  0  0  0  0  0  0  0  0  0
  -20.4587    4.9557  -21.3641 O   0  0  0  0  0  0  0  0  0  0  0  0
  -22.7242    3.9313  -21.9688 O   0  0  0  0  0  0  0  0  0  0  0  0
  -24.7251    5.4833  -18.8915 O   0  0  0  0  0  0  0  0  0  0  0  0
  -21.9250    9.2950  -16.9975 O   0  0  0  0  0  0  0  0  0  0  0  0
  -23.2721    5.5489  -18.5622 P   0  0  2  0  0  0  0  0  0  0  0  0
  -21.8260    4.2193  -20.8043 P   0  0  2  0  0  0  0  0  0  0  0  0
  -17.5455    6.5822  -19.0224 H   0  0  0  0  0  0  0  0  0  0  0  0
  -21.6695    8.8932  -20.2335 H   0  0  0  0  0  0  0  0  0  0  0  0
  -24.4756    8.3698  -17.8395 H   0  0  0  0  0  0  0  0  0  0  0  0
  -23.9112    8.1412  -19.5072 H   0  0  0  0  0  0  0  0  0  0  0  0
  -23.8691    7.2190  -13.7173 H   0  0  0  0  0  0  0  0  0  0  0  0
  -17.9493    8.2504  -16.3818 H   0  0  0  0  0  0  0  0  0  0  0  0
  -19.8665   10.1030  -17.0503 H   0  0  0  0  0  0  0  0  0  0  0  0
  -20.5267    7.5570  -18.6130 H   0  0  0  0  0  0  0  0  0  0  0  0
  -18.9331    9.6590  -20.8497 H   0  0  0  0  0  0  0  0  0  0  0  0
  -18.3632    6.2215  -21.9799 H   0  0  0  0  0  0  0  0  0  0  0  0
  -16.6550    8.7194  -19.6975 H   0  0  0  0  0  0  0  0  0  0  0  0
  -23.2681   10.2272  -18.3919 H   0  0  0  0  0  0  0  0  0  0  0  0
  -18.7929    4.4661  -20.2240 H   0  0  0  0  0  0  0  0  0  0  0  0
  -19.9381    5.6030  -19.4549 H   0  0  0  0  0  0  0  0  0  0  0  0
  -20.5074    5.1722  -11.3669 H   0  0  0  0  0  0  0  0  0  0  0  0
  -18.9652    5.5192  -12.1941 H   0  0  0  0  0  0  0  0  0  0  0  0
  -15.9102    5.6070  -19.6705 H   0  0  0  0  0  0  0  0  0  0  0  0
  -15.8720    8.7490  -21.6507 H   0  0  0  0  0  0  0  0  0  0  0  0
  -20.9675   11.1303  -18.5109 H   0  0  0  0  0  0  0  0  0  0  0  0
  1 12  1  0
  1 13  1  0
  1 23  1  0
  2 10  1  0
  2 14  1  0
  2 25  1  0
 14  3  1  0
  3 26  1  0
  4  7  2  0
  4 16  1  0
  4 17  1  0
  5 17  2  0
  5 18  1  0
  6  7  1  0
  6 18  2  0
  6 20  1  0
  7 19  1  0
  8 19  2  0
  8 20  1  0
  9 10  1  0
  9 20  1  0
  9 33  1  0
 10 21  1  0
 11 13  1  0
 11 21  1  0
 11 22  1  0
 12 15  1  0
 12 22  1  0
 13 24  1  0
 14 33  1  0
 15 30  1  0
 26 34  1  0
 34 27  1  1
 28 34  1  0
 28 35  1  0
 35 29  1  1
 30 35  1  0
 31 35  2  0
 32 34  2  0
  1 36  1  1
  2 37  1  6
  3 38  1  0
  3 39  1  0
  5 40  1  0
  8 41  1  0
  9 42  1  6
 10 43  1  1
 11 44  1  6
 12 45  1  6
 13 46  1  1
 14 47  1  1
 15 48  1  0
 15 49  1  0
 16 50  1  0
 16 51  1  0
 23 52  1  0
 24 53  1  0
 25 54  1  0
M  CHG  2  27  -1  29  -1
M  END
>  <filename_input>  (10) 
7UAW_MF6_docked.sdf

>  <pdb_id>  (10) 
7UAW_MF6

>  <pose_rank>  (10) 
9

>  <num_atoms_heavy>  (10) 
35

>  <num_torsions>  (10) 
1

>  <pose>  (10) 
[-17.474812345227733, 6.782325296751084, -20.10172218404031, 3.210632473857197, 2.5758826563640214, 1.5999201185457301, -1.8730865840026074]

>  <energy>  (10) 
-670.6542645199983

>  <inter_energy>  (10) 
-693.614128239267

>  <intra_energy>  (10) 
24.519344352326694

>  <rmsd>  (10) 
5.41054

>  <sdf_rank>  (10) 
0

$$$$

     RDKit          3D

 54 58  0  0  0  0  0  0  0  0999 V2000
  -23.4359    5.8253  -17.2808 C   0  0  2  0  0  0  0  0  0  0  0  0
  -18.9471    5.7590  -15.5430 C   0  0  1  0  0  0  0  0  0  0  0  0
  -17.0398    6.7934  -16.8525 C   0  0  0  0  0  0  0  0  0  0  0  0
  -21.5275   11.4596  -17.6255 C   0  0  0  0  0  0  0  0  0  0  0  0
  -21.5951    9.3630  -18.6443 C   0  0  0  0  0  0  0  0  0  0  0  0
  -20.7152    9.5174  -16.4735 C   0  0  0  0  0  0  0  0  0  0  0  0
  -20.9609   10.8796  -16.4505 C   0  0  0  0  0  0  0  0  0  0  0  0
  -20.0804   10.2893  -14.5398 C   0  0  0  0  0  0  0  0  0  0  0  0
  -19.7151    7.8551  -14.8585 C   0  0  2  0  0  0  0  0  0  0  0  0
  -20.0672    6.7096  -15.7485 C   0  0  2  0  0  0  0  0  0  0  0  0
  -21.8165    5.0089  -15.8276 C   0  0  2  0  0  0  0  0  0  0  0  0
  -22.4064    5.0675  -18.0829 C   0  0  1  0  0  0  0  0  0  0  0  0
  -23.3034    5.1314  -16.0052 C   0  0  2  0  0  0  0  0  0  0  0  0
  -17.7300    6.6616  -15.5219 C   0  0  1  0  0  0  0  0  0  0  0  0
  -21.8291    5.9130  -19.1777 C   0  0  0  0  0  0  0  0  0  0  0  0
  -21.8223   12.8689  -17.7721 N   0  0  0  0  0  0  0  0  0  0  0  0
  -21.8321   10.6721  -18.6696 N   0  0  0  0  0  0  0  0  0  0  0  0
  -21.0637    8.8320  -17.5767 N   0  0  0  0  0  0  0  0  0  0  0  0
  -20.5466   11.3390  -15.2311 N   0  0  0  0  0  0  0  0  0  0  0  0
  -20.1791    9.1574  -15.2805 N   0  0  0  0  0  0  0  0  0  0  0  0
  -21.3533    6.2297  -15.3422 O   0  0  0  0  0  0  0  0  0  0  0  0
  -21.3484    4.7949  -17.1680 O   0  0  0  0  0  0  0  0  0  0  0  0
  -24.7279    5.7409  -17.9184 O   0  0  0  0  0  0  0  0  0  0  0  0
  -23.9112    3.8193  -16.0738 O   0  0  0  0  0  0  0  0  0  0  0  0
  -19.0465    5.2192  -14.2220 O   0  0  0  0  0  0  0  0  0  0  0  0
  -17.8900    7.5365  -17.6699 O   0  0  0  0  0  0  0  0  0  0  0  0
  -18.4306    8.7422  -19.9666 O   0  0  0  0  0  0  0  0  0  0  0  0
  -18.7337    6.1467  -19.6736 O   0  0  0  0  0  0  0  0  0  0  0  0
  -20.2652    6.8466  -21.8066 O   0  0  0  0  0  0  0  0  0  0  0  0
  -21.0239    5.0779  -20.0115 O   0  0  0  0  0  0  0  0  0  0  0  0
  -19.0848    4.7405  -21.6467 O   0  0  0  0  0  0  0  0  0  0  0  0
  -16.5289    7.1599  -19.7770 O   0  0  0  0  0  0  0  0  0  0  0  0
  -18.2937    7.9156  -15.0577 O   0  0  0  0  0  0  0  0  0  0  0  0
  -17.9000    7.4961  -19.2963 P   0  0  2  0  0  0  0  0  0  0  0  0
  -19.7918    5.7920  -20.8465 P   0  0  2  0  0  0  0  0  0  0  0  0
  -23.3078    6.9129  -17.1774 H   0  0  0  0  0  0  0  0  0  0  0  0
  -18.9270    4.9535  -16.2918 H   0  0  0  0  0  0  0  0  0  0  0  0
  -16.0785    7.3141  -16.7316 H   0  0  0  0  0  0  0  0  0  0  0  0
  -16.8309    5.8063  -17.2906 H   0  0  0  0  0  0  0  0  0  0  0  0
  -21.8441    8.7355  -19.5128 H   0  0  0  0  0  0  0  0  0  0  0  0
  -19.6758   10.3388  -13.5181 H   0  0  0  0  0  0  0  0  0  0  0  0
  -20.1370    7.6838  -13.8571 H   0  0  0  0  0  0  0  0  0  0  0  0
  -20.1647    6.9294  -16.8219 H   0  0  0  0  0  0  0  0  0  0  0  0
  -21.4918    4.2157  -15.1380 H   0  0  0  0  0  0  0  0  0  0  0  0
  -22.8612    4.1739  -18.5353 H   0  0  0  0  0  0  0  0  0  0  0  0
  -23.7972    5.6593  -15.1761 H   0  0  0  0  0  0  0  0  0  0  0  0
  -16.9231    6.2696  -14.8853 H   0  0  0  0  0  0  0  0  0  0  0  0
  -22.6411    6.3589  -19.7709 H   0  0  0  0  0  0  0  0  0  0  0  0
  -21.2196    6.7228  -18.7502 H   0  0  0  0  0  0  0  0  0  0  0  0
  -22.2317   13.2209  -18.6493 H   0  0  0  0  0  0  0  0  0  0  0  0
  -21.6226   13.5199  -16.9993 H   0  0  0  0  0  0  0  0  0  0  0  0
  -25.4348    5.6947  -17.2269 H   0  0  0  0  0  0  0  0  0  0  0  0
  -24.0683    3.4800  -15.1571 H   0  0  0  0  0  0  0  0  0  0  0  0
  -18.9133    5.9424  -13.5592 H   0  0  0  0  0  0  0  0  0  0  0  0
  1 12  1  0
  1 13  1  0
  1 23  1  0
  2 10  1  0
  2 14  1  0
  2 25  1  0
 14  3  1  0
  3 26  1  0
  4  7  2  0
  4 16  1  0
  4 17  1  0
  5 17  2  0
  5 18  1  0
  6  7  1  0
  6 18  2  0
  6 20  1  0
  7 19  1  0
  8 19  2  0
  8 20  1  0
  9 10  1  0
  9 20  1  0
  9 33  1  0
 10 21  1  0
 11 13  1  0
 11 21  1  0
 11 22  1  0
 12 15  1  0
 12 22  1  0
 13 24  1  0
 14 33  1  0
 15 30  1  0
 26 34  1  0
 34 27  1  6
 28 34  1  0
 28 35  1  0
 35 29  1  6
 30 35  1  0
 31 35  2  0
 32 34  2  0
  1 36  1  1
  2 37  1  6
  3 38  1  0
  3 39  1  0
  5 40  1  0
  8 41  1  0
  9 42  1  1
 10 43  1  6
 11 44  1  1
 12 45  1  6
 13 46  1  1
 14 47  1  1
 15 48  1  0
 15 49  1  0
 16 50  1  0
 16 51  1  0
 23 52  1  0
 24 53  1  0
 25 54  1  0
M  CHG  2  27  -1  29  -1
M  END
>  <filename_input>  (11) 
7UAW_MF6_docked.sdf

>  <pdb_id>  (11) 
7UAW_MF6

>  <pose_rank>  (11) 
10

>  <num_atoms_heavy>  (11) 
35

>  <num_torsions>  (11) 
1

>  <pose>  (11) 
[-23.435904105176395, 5.825321789673485, -17.280757424214475, -1.4868366905321488, 0.3062950897948656, -3.990084304557798, -6.3784831085517215]

>  <energy>  (11) 
-661.2557731243724

>  <inter_energy>  (11) 
-675.274244109236

>  <intra_energy>  (11) 
21.864224970095428

>  <rmsd>  (11) 
5.18716

>  <sdf_rank>  (11) 
0

$$$$

     RDKit          3D

 54 58  0  0  0  0  0  0  0  0999 V2000
  -17.8190    8.1045  -20.2196 C   0  0  2  0  0  0  0  0  0  0  0  0
  -21.5679    5.5651  -18.5854 C   0  0  1  0  0  0  0  0  0  0  0  0
  -21.9781    5.3244  -16.0961 C   0  0  0  0  0  0  0  0  0  0  0  0
  -22.2398   11.4288  -15.3763 C   0  0  0  0  0  0  0  0  0  0  0  0
  -22.3580    9.3197  -14.3884 C   0  0  0  0  0  0  0  0  0  0  0  0
  -22.3146    9.4499  -16.7318 C   0  0  0  0  0  0  0  0  0  0  0  0
  -22.2276   10.8302  -16.6723 C   0  0  0  0  0  0  0  0  0  0  0  0
  -22.2081   10.2119  -18.7679 C   0  0  0  0  0  0  0  0  0  0  0  0
  -22.4067    7.7443  -18.5903 C   0  0  2  0  0  0  0  0  0  0  0  0
  -21.1346    6.9762  -18.7325 C   0  0  2  0  0  0  0  0  0  0  0  0
  -19.5206    6.5491  -20.5133 C   0  0  2  0  0  0  0  0  0  0  0  0
  -17.5047    6.8836  -19.3901 C   0  0  1  0  0  0  0  0  0  0  0  0
  -18.6168    7.4815  -21.2692 C   0  0  2  0  0  0  0  0  0  0  0  0
  -22.5663    5.6293  -17.4471 C   0  0  1  0  0  0  0  0  0  0  0  0
  -17.2853    7.2373  -17.9500 C   0  0  0  0  0  0  0  0  0  0  0  0
  -22.1805   12.8558  -15.1423 N   0  0  0  0  0  0  0  0  0  0  0  0
  -22.2923   10.6448  -14.2874 N   0  0  0  0  0  0  0  0  0  0  0  0
  -22.3615    8.7701  -15.5725 N   0  0  0  0  0  0  0  0  0  0  0  0
  -22.1703   11.2821  -17.9616 N   0  0  0  0  0  0  0  0  0  0  0  0
  -22.2910    9.0738  -18.0350 N   0  0  0  0  0  0  0  0  0  0  0  0
  -20.5722    7.3091  -20.0063 O   0  0  0  0  0  0  0  0  0  0  0  0
  -18.6820    6.0825  -19.4454 O   0  0  0  0  0  0  0  0  0  0  0  0
  -16.5990    8.7469  -20.6460 O   0  0  0  0  0  0  0  0  0  0  0  0
  -17.7709    6.7356  -22.1768 O   0  0  0  0  0  0  0  0  0  0  0  0
  -22.3278    5.2008  -19.7411 O   0  0  0  0  0  0  0  0  0  0  0  0
  -21.1541    6.4000  -15.7689 O   0  0  0  0  0  0  0  0  0  0  0  0
  -19.5373    7.6550  -14.0861 O   0  0  0  0  0  0  0  0  0  0  0  0
  -18.6809    5.6834  -15.6006 O   0  0  0  0  0  0  0  0  0  0  0  0
  -16.4694    7.0794  -14.8617 O   0  0  0  0  0  0  0  0  0  0  0  0
  -16.7972    6.0776  -17.2732 O   0  0  0  0  0  0  0  0  0  0  0  0
  -16.4942    4.6774  -15.1530 O   0  0  0  0  0  0  0  0  0  0  0  0
  -20.1629    5.2823  -13.7188 O   0  0  0  0  0  0  0  0  0  0  0  0
  -23.0528    6.9925  -17.5504 O   0  0  0  0  0  0  0  0  0  0  0  0
  -19.8980    6.3396  -14.7366 P   0  0  2  0  0  0  0  0  0  0  0  0
  -17.0866    5.9602  -15.6522 P   0  0  2  0  0  0  0  0  0  0  0  0
  -18.3504    8.9345  -19.7311 H   0  0  0  0  0  0  0  0  0  0  0  0
  -20.7261    4.8724  -18.4390 H   0  0  0  0  0  0  0  0  0  0  0  0
  -22.7783    5.2181  -15.3488 H   0  0  0  0  0  0  0  0  0  0  0  0
  -21.4117    4.3815  -16.1136 H   0  0  0  0  0  0  0  0  0  0  0  0
  -22.4087    8.6945  -13.4847 H   0  0  0  0  0  0  0  0  0  0  0  0
  -22.1766   10.2511  -19.8668 H   0  0  0  0  0  0  0  0  0  0  0  0
  -22.8773    7.8594  -19.5779 H   0  0  0  0  0  0  0  0  0  0  0  0
  -20.3428    7.1913  -17.9999 H   0  0  0  0  0  0  0  0  0  0  0  0
  -19.9430    5.7245  -21.1063 H   0  0  0  0  0  0  0  0  0  0  0  0
  -16.5978    6.3904  -19.7701 H   0  0  0  0  0  0  0  0  0  0  0  0
  -19.1632    8.2121  -21.8837 H   0  0  0  0  0  0  0  0  0  0  0  0
  -23.3529    4.8649  -17.5302 H   0  0  0  0  0  0  0  0  0  0  0  0
  -16.5478    8.0500  -17.8747 H   0  0  0  0  0  0  0  0  0  0  0  0
  -18.2282    7.5737  -17.4942 H   0  0  0  0  0  0  0  0  0  0  0  0
  -22.1933   13.2207  -14.1791 H   0  0  0  0  0  0  0  0  0  0  0  0
  -22.1254   13.5064  -15.9388 H   0  0  0  0  0  0  0  0  0  0  0  0
  -16.0761    9.0223  -19.8517 H   0  0  0  0  0  0  0  0  0  0  0  0
  -17.1391    6.1785  -21.6566 H   0  0  0  0  0  0  0  0  0  0  0  0
  -23.1832    4.7907  -19.4579 H   0  0  0  0  0  0  0  0  0  0  0  0
  1 12  1  0
  1 13  1  0
  1 23  1  0
  2 10  1  0
  2 14  1  0
  2 25  1  0
 14  3  1  0
  3 26  1  0
  4  7  2  0
  4 16  1  0
  4 17  1  0
  5 17  2  0
  5 18  1  0
  6  7  1  0
  6 18  2  0
  6 20  1  0
  7 19  1  0
  8 19  2  0
  8 20  1  0
  9 10  1  0
  9 20  1  0
  9 33  1  0
 10 21  1  0
 11 13  1  0
 11 21  1  0
 11 22  1  0
 12 15  1  0
 12 22  1  0
 13 24  1  0
 14 33  1  0
 15 30  1  0
 26 34  1  0
 34 27  1  1
 28 34  1  0
 28 35  1  0
 35 29  1  1
 30 35  1  0
 31 35  2  0
 32 34  2  0
  1 36  1  1
  2 37  1  1
  3 38  1  0
  3 39  1  0
  5 40  1  0
  8 41  1  0
  9 42  1  6
 10 43  1  1
 11 44  1  6
 12 45  1  6
 13 46  1  6
 14 47  1  6
 15 48  1  0
 15 49  1  0
 16 50  1  0
 16 51  1  0
 23 52  1  0
 24 53  1  0
 25 54  1  0
M  CHG  2  27  -1  29  -1
M  END
>  <filename_input>  (12) 
7UAW_MF6_docked.sdf

>  <pdb_id>  (12) 
7UAW_MF6

>  <pose_rank>  (12) 
11

>  <num_atoms_heavy>  (12) 
35

>  <num_torsions>  (12) 
1

>  <pose>  (12) 
[-17.81900206986304, 8.10447577737442, -20.219600581875138, 1.565519740229943, 2.630156974799048, -1.7311257839965128, 4.847827430669416]

>  <energy>  (12) 
-670.8171458391232

>  <inter_energy>  (12) 
-710.2058752455927

>  <intra_energy>  (12) 
48.107386020813806

>  <rmsd>  (12) 
6.35527

>  <sdf_rank>  (12) 
0

$$$$

     RDKit          3D

 54 58  0  0  0  0  0  0  0  0999 V2000
  -21.5605    3.9995  -19.2157 C   0  0  2  0  0  0  0  0  0  0  0  0
  -19.7130    7.8470  -21.4422 C   0  0  1  0  0  0  0  0  0  0  0  0
  -19.9284   10.1568  -20.4218 C   0  0  0  0  0  0  0  0  0  0  0  0
  -18.2685    6.9305  -15.0819 C   0  0  0  0  0  0  0  0  0  0  0  0
  -20.3476    6.9613  -16.1378 C   0  0  0  0  0  0  0  0  0  0  0  0
  -18.4200    7.0717  -17.4728 C   0  0  0  0  0  0  0  0  0  0  0  0
  -17.6147    6.9959  -16.3494 C   0  0  0  0  0  0  0  0  0  0  0  0
  -16.3429    7.1060  -18.1227 C   0  0  0  0  0  0  0  0  0  0  0  0
  -18.0087    7.2658  -19.9557 C   0  0  2  0  0  0  0  0  0  0  0  0
  -19.4376    6.9743  -20.2747 C   0  0  2  0  0  0  0  0  0  0  0  0
  -20.7065    5.0591  -21.0995 C   0  0  2  0  0  0  0  0  0  0  0  0
  -22.5344    5.0668  -19.6517 C   0  0  1  0  0  0  0  0  0  0  0  0
  -20.9416    3.7008  -20.5017 C   0  0  2  0  0  0  0  0  0  0  0  0
  -19.0239    9.1447  -21.0712 C   0  0  1  0  0  0  0  0  0  0  0  0
  -22.8398    6.0224  -18.5379 C   0  0  0  0  0  0  0  0  0  0  0  0
  -17.5736    6.8715  -13.8138 N   0  0  0  0  0  0  0  0  0  0  0  0
  -19.6101    6.9036  -15.0317 N   0  0  0  0  0  0  0  0  0  0  0  0
  -19.7527    7.0358  -17.2973 N   0  0  0  0  0  0  0  0  0  0  0  0
  -16.3188    7.0274  -16.7847 N   0  0  0  0  0  0  0  0  0  0  0  0
  -17.6233    7.1287  -18.5693 N   0  0  0  0  0  0  0  0  0  0  0  0
  -19.5429    5.5693  -20.5284 O   0  0  0  0  0  0  0  0  0  0  0  0
  -21.8490    5.8079  -20.6575 O   0  0  0  0  0  0  0  0  0  0  0  0
  -22.2633    2.9105  -18.5809 O   0  0  0  0  0  0  0  0  0  0  0  0
  -21.8436    2.9342  -21.3351 O   0  0  0  0  0  0  0  0  0  0  0  0
  -18.9924    7.3391  -22.5686 O   0  0  0  0  0  0  0  0  0  0  0  0
  -20.2334    9.6628  -19.1546 O   0  0  0  0  0  0  0  0  0  0  0  0
  -21.4075    9.9051  -16.7917 O   0  0  0  0  0  0  0  0  0  0  0  0
  -22.7496    9.1413  -18.9200 O   0  0  0  0  0  0  0  0  0  0  0  0
  -24.2047    8.3175  -16.7778 O   0  0  0  0  0  0  0  0  0  0  0  0
  -23.9100    6.8712  -18.9567 O   0  0  0  0  0  0  0  0  0  0  0  0
  -25.1961    9.0808  -18.8488 O   0  0  0  0  0  0  0  0  0  0  0  0
  -21.9834   11.4314  -18.6611 O   0  0  0  0  0  0  0  0  0  0  0  0
  -17.9724    8.6838  -20.1838 O   0  0  0  0  0  0  0  0  0  0  0  0
  -21.5543   10.0527  -18.2884 P   0  0  2  0  0  0  0  0  0  0  0  0
  -24.0132    8.3677  -18.2674 P   0  0  2  0  0  0  0  0  0  0  0  0
  -20.8178    4.2642  -18.4486 H   0  0  0  0  0  0  0  0  0  0  0  0
  -20.7858    7.9286  -21.6713 H   0  0  0  0  0  0  0  0  0  0  0  0
  -19.4152   11.1261  -20.3380 H   0  0  0  0  0  0  0  0  0  0  0  0
  -20.8404   10.3134  -21.0167 H   0  0  0  0  0  0  0  0  0  0  0  0
  -21.4457    6.9463  -16.0757 H   0  0  0  0  0  0  0  0  0  0  0  0
  -15.4517    7.1463  -18.7663 H   0  0  0  0  0  0  0  0  0  0  0  0
  -17.3599    6.5862  -20.5278 H   0  0  0  0  0  0  0  0  0  0  0  0
  -20.1731    7.1828  -19.4837 H   0  0  0  0  0  0  0  0  0  0  0  0
  -20.5918    5.0750  -22.1934 H   0  0  0  0  0  0  0  0  0  0  0  0
  -23.4765    4.6068  -19.9847 H   0  0  0  0  0  0  0  0  0  0  0  0
  -20.0228    3.1035  -20.4074 H   0  0  0  0  0  0  0  0  0  0  0  0
  -18.6592    9.6967  -21.9500 H   0  0  0  0  0  0  0  0  0  0  0  0
  -23.1386    5.4629  -17.6391 H   0  0  0  0  0  0  0  0  0  0  0  0
  -21.9501    6.6235  -18.2993 H   0  0  0  0  0  0  0  0  0  0  0  0
  -18.1088    6.8257  -12.9349 H   0  0  0  0  0  0  0  0  0  0  0  0
  -16.5439    6.8754  -13.7902 H   0  0  0  0  0  0  0  0  0  0  0  0
  -22.2014    3.0064  -17.5975 H   0  0  0  0  0  0  0  0  0  0  0  0
  -22.4586    2.4115  -20.7618 H   0  0  0  0  0  0  0  0  0  0  0  0
  -18.2253    6.7985  -22.2531 H   0  0  0  0  0  0  0  0  0  0  0  0
  1 12  1  0
  1 13  1  0
  1 23  1  0
  2 10  1  0
  2 14  1  0
  2 25  1  0
 14  3  1  0
  3 26  1  0
  4  7  2  0
  4 16  1  0
  4 17  1  0
  5 17  2  0
  5 18  1  0
  6  7  1  0
  6 18  2  0
  6 20  1  0
  7 19  1  0
  8 19  2  0
  8 20  1  0
  9 10  1  0
  9 20  1  0
  9 33  1  0
 10 21  1  0
 11 13  1  0
 11 21  1  0
 11 22  1  0
 12 15  1  0
 12 22  1  0
 13 24  1  0
 14 33  1  0
 15 30  1  0
 26 34  1  0
 34 27  1  1
 28 34  1  0
 28 35  1  0
 35 29  1  1
 30 35  1  0
 31 35  2  0
 32 34  2  0
  1 36  1  1
  2 37  1  6
  3 38  1  0
  3 39  1  0
  5 40  1  0
  8 41  1  0
  9 42  1  6
 10 43  1  1
 11 44  1  6
 12 45  1  6
 13 46  1  1
 14 47  1  6
 15 48  1  0
 15 49  1  0
 16 50  1  0
 16 51  1  0
 23 52  1  0
 24 53  1  0
 25 54  1  0
M  CHG  2  27  -1  29  -1
M  END
>  <filename_input>  (13) 
7UAW_MF6_docked.sdf

>  <pdb_id>  (13) 
7UAW_MF6

>  <pose_rank>  (13) 
12

>  <num_atoms_heavy>  (13) 
35

>  <num_torsions>  (13) 
1

>  <pose>  (13) 
[-21.56052207668556, 3.9995453091567486, -19.215661986885824, -2.8745858309496586, 0.32947853244615966, -0.672381330884065, -6.475364523708533]

>  <energy>  (13) 
-581.9846471082898

>  <inter_energy>  (13) 
-607.9634374982396

>  <intra_energy>  (13) 
27.113584214435818

>  <rmsd>  (13) 
5.96251

>  <sdf_rank>  (13) 
0

$$$$

     RDKit          3D

 54 58  0  0  0  0  0  0  0  0999 V2000
  -17.7506    6.7331  -19.8646 C   0  0  2  0  0  0  0  0  0  0  0  0
  -20.7708   10.3096  -18.7416 C   0  0  1  0  0  0  0  0  0  0  0  0
  -23.2709    9.9062  -18.6446 C   0  0  0  0  0  0  0  0  0  0  0  0
  -19.4796    5.2421  -14.0690 C   0  0  0  0  0  0  0  0  0  0  0  0
  -17.5919    6.5154  -14.5731 C   0  0  0  0  0  0  0  0  0  0  0  0
  -19.6811    7.2769  -15.3253 C   0  0  0  0  0  0  0  0  0  0  0  0
  -20.3096    6.1938  -14.7350 C   0  0  0  0  0  0  0  0  0  0  0  0
  -21.8202    7.4530  -15.6873 C   0  0  0  0  0  0  0  0  0  0  0  0
  -20.4453    9.2662  -16.6781 C   0  0  2  0  0  0  0  0  0  0  0  0
  -20.1959    9.0823  -18.1384 C   0  0  2  0  0  0  0  0  0  0  0  0
  -18.2406    8.9890  -19.5968 C   0  0  2  0  0  0  0  0  0  0  0  0
  -18.7489    7.1384  -20.9214 C   0  0  1  0  0  0  0  0  0  0  0  0
  -17.0954    8.0179  -19.6495 C   0  0  2  0  0  0  0  0  0  0  0  0
  -22.0623   10.4982  -17.9715 C   0  0  1  0  0  0  0  0  0  0  0  0
  -19.9714    6.2717  -20.8858 C   0  0  0  0  0  0  0  0  0  0  0  0
  -19.9758    4.0455  -13.4237 N   0  0  0  0  0  0  0  0  0  0  0  0
  -18.1546    5.4511  -14.0063 N   0  0  0  0  0  0  0  0  0  0  0  0
  -18.3466    7.3798  -15.1953 N   0  0  0  0  0  0  0  0  0  0  0  0
  -21.6476    6.3249  -14.9840 N   0  0  0  0  0  0  0  0  0  0  0  0
  -20.6264    8.0588  -15.9044 N   0  0  0  0  0  0  0  0  0  0  0  0
  -18.7844    8.9221  -18.3161 O   0  0  0  0  0  0  0  0  0  0  0  0
  -19.1621    8.4530  -20.5587 O   0  0  0  0  0  0  0  0  0  0  0  0
  -16.9108    5.6659  -20.3531 O   0  0  0  0  0  0  0  0  0  0  0  0
  -16.2187    8.3342  -20.7573 O   0  0  0  0  0  0  0  0  0  0  0  0
  -19.9452   11.4212  -18.3828 O   0  0  0  0  0  0  0  0  0  0  0  0
  -23.1315    8.5214  -18.5666 O   0  0  0  0  0  0  0  0  0  0  0  0
  -24.0423    6.0709  -18.9978 O   0  0  0  0  0  0  0  0  0  0  0  0
  -22.8817    7.4599  -20.9052 O   0  0  0  0  0  0  0  0  0  0  0  0
  -22.7300    4.8571  -21.6717 O   0  0  0  0  0  0  0  0  0  0  0  0
  -20.7706    6.5771  -22.0300 O   0  0  0  0  0  0  0  0  0  0  0  0
  -23.0311    6.6887  -23.2240 O   0  0  0  0  0  0  0  0  0  0  0  0
  -25.0978    8.0314  -20.0922 O   0  0  0  0  0  0  0  0  0  0  0  0
  -21.7552    9.8554  -16.7074 O   0  0  0  0  0  0  0  0  0  0  0  0
  -23.8253    7.4502  -19.5755 P   0  0  2  0  0  0  0  0  0  0  0  0
  -22.3945    6.3000  -21.9241 P   0  0  2  0  0  0  0  0  0  0  0  0
  -18.1385    6.3028  -18.9295 H   0  0  0  0  0  0  0  0  0  0  0  0
  -20.8762   10.2399  -19.8343 H   0  0  0  0  0  0  0  0  0  0  0  0
  -24.1878   10.2252  -18.1274 H   0  0  0  0  0  0  0  0  0  0  0  0
  -23.3456   10.2392  -19.6903 H   0  0  0  0  0  0  0  0  0  0  0  0
  -16.5036    6.6649  -14.5180 H   0  0  0  0  0  0  0  0  0  0  0  0
  -22.7911    7.8329  -16.0381 H   0  0  0  0  0  0  0  0  0  0  0  0
  -19.5968    9.8011  -16.2263 H   0  0  0  0  0  0  0  0  0  0  0  0
  -20.6504    8.1985  -18.6100 H   0  0  0  0  0  0  0  0  0  0  0  0
  -17.9760   10.0358  -19.8071 H   0  0  0  0  0  0  0  0  0  0  0  0
  -18.2955    7.0609  -21.9206 H   0  0  0  0  0  0  0  0  0  0  0  0
  -16.4704    8.0347  -18.7444 H   0  0  0  0  0  0  0  0  0  0  0  0
  -22.3493   11.5560  -17.8787 H   0  0  0  0  0  0  0  0  0  0  0  0
  -19.6771    5.2120  -20.9097 H   0  0  0  0  0  0  0  0  0  0  0  0
  -20.5419    6.4582  -19.9640 H   0  0  0  0  0  0  0  0  0  0  0  0
  -19.3198    3.4004  -12.9606 H   0  0  0  0  0  0  0  0  0  0  0  0
  -20.9848    3.8390  -13.4276 H   0  0  0  0  0  0  0  0  0  0  0  0
  -16.5234    5.1735  -19.5865 H   0  0  0  0  0  0  0  0  0  0  0  0
  -15.3470    8.6487  -20.4089 H   0  0  0  0  0  0  0  0  0  0  0  0
  -19.8943   11.4897  -17.3965 H   0  0  0  0  0  0  0  0  0  0  0  0
  1 12  1  0
  1 13  1  0
  1 23  1  0
  2 10  1  0
  2 14  1  0
  2 25  1  0
 14  3  1  0
  3 26  1  0
  4  7  2  0
  4 16  1  0
  4 17  1  0
  5 17  2  0
  5 18  1  0
  6  7  1  0
  6 18  2  0
  6 20  1  0
  7 19  1  0
  8 19  2  0
  8 20  1  0
  9 10  1  0
  9 20  1  0
  9 33  1  0
 10 21  1  0
 11 13  1  0
 11 21  1  0
 11 22  1  0
 12 15  1  0
 12 22  1  0
 13 24  1  0
 14 33  1  0
 15 30  1  0
 26 34  1  0
 34 27  1  1
 28 34  1  0
 28 35  1  0
 35 29  1  1
 30 35  1  0
 31 35  2  0
 32 34  2  0
  1 36  1  1
  2 37  1  6
  3 38  1  0
  3 39  1  0
  5 40  1  0
  8 41  1  0
  9 42  1  1
 10 43  1  6
 11 44  1  6
 12 45  1  6
 13 46  1  1
 14 47  1  1
 15 48  1  0
 15 49  1  0
 16 50  1  0
 16 51  1  0
 23 52  1  0
 24 53  1  0
 25 54  1  0
M  CHG  2  27  -1  29  -1
M  END
>  <filename_input>  (14) 
7UAW_MF6_docked.sdf

>  <pdb_id>  (14) 
7UAW_MF6

>  <pose_rank>  (14) 
13

>  <num_atoms_heavy>  (14) 
35

>  <num_torsions>  (14) 
1

>  <pose>  (14) 
[-17.75059876791514, 6.733113475388422, -19.864605339732524, 2.805997698354304, 1.8936216539393447, 2.7250956749848427, 1.6054364478656589]

>  <energy>  (14) 
-681.9283290319459

>  <inter_energy>  (14) 
-679.3971716584363

>  <intra_energy>  (14) 
2.1880121238883077

>  <rmsd>  (14) 
5.31969

>  <sdf_rank>  (14) 
0

$$$$

     RDKit          3D

 54 58  0  0  0  0  0  0  0  0999 V2000
  -21.2373    4.6491  -20.7621 C   0  0  2  0  0  0  0  0  0  0  0  0
  -21.0621    9.0545  -18.8294 C   0  0  1  0  0  0  0  0  0  0  0  0
  -20.9864    9.3595  -16.3147 C   0  0  0  0  0  0  0  0  0  0  0  0
  -15.9052    5.9234  -15.8813 C   0  0  0  0  0  0  0  0  0  0  0  0
  -17.5428    7.1738  -14.7890 C   0  0  0  0  0  0  0  0  0  0  0  0
  -17.4712    7.2413  -17.1344 C   0  0  0  0  0  0  0  0  0  0  0  0
  -16.4025    6.3614  -17.1459 C   0  0  0  0  0  0  0  0  0  0  0  0
  -16.9230    6.8659  -19.2071 C   0  0  0  0  0  0  0  0  0  0  0  0
  -18.8073    8.4520  -18.9009 C   0  0  2  0  0  0  0  0  0  0  0  0
  -20.1789    7.8863  -19.0657 C   0  0  2  0  0  0  0  0  0  0  0  0
  -21.4951    6.9547  -20.8983 C   0  0  2  0  0  0  0  0  0  0  0  0
  -22.3994    5.0566  -19.8898 C   0  0  1  0  0  0  0  0  0  0  0  0
  -21.2828    5.7290  -21.7409 C   0  0  2  0  0  0  0  0  0  0  0  0
  -20.4090    9.7457  -17.6494 C   0  0  1  0  0  0  0  0  0  0  0  0
  -22.2263    4.5752  -18.4808 C   0  0  0  0  0  0  0  0  0  0  0  0
  -14.7819    5.0254  -15.7193 N   0  0  0  0  0  0  0  0  0  0  0  0
  -16.5062    6.3402  -14.7552 N   0  0  0  0  0  0  0  0  0  0  0  0
  -17.9907    7.5874  -15.9433 N   0  0  0  0  0  0  0  0  0  0  0  0
  -16.0744    6.1497  -18.4563 N   0  0  0  0  0  0  0  0  0  0  0  0
  -17.7948    7.5408  -18.4172 N   0  0  0  0  0  0  0  0  0  0  0  0
  -20.2558    7.3228  -20.3795 O   0  0  0  0  0  0  0  0  0  0  0  0
  -22.3538    6.4804  -19.8499 O   0  0  0  0  0  0  0  0  0  0  0  0
  -21.4417    3.3164  -21.2768 O   0  0  0  0  0  0  0  0  0  0  0  0
  -22.3942    5.5455  -22.6502 O   0  0  0  0  0  0  0  0  0  0  0  0
  -20.9221    9.9591  -19.9286 O   0  0  0  0  0  0  0  0  0  0  0  0
  -20.5990    8.0413  -16.0799 O   0  0  0  0  0  0  0  0  0  0  0  0
  -20.5179    5.8871  -14.5392 O   0  0  0  0  0  0  0  0  0  0  0  0
  -22.6328    6.4556  -15.9946 O   0  0  0  0  0  0  0  0  0  0  0  0
  -22.7990    3.8023  -15.4307 O   0  0  0  0  0  0  0  0  0  0  0  0
  -23.4431    4.8169  -17.7721 O   0  0  0  0  0  0  0  0  0  0  0  0
  -24.7286    5.2522  -15.6028 O   0  0  0  0  0  0  0  0  0  0  0  0
  -22.0623    7.7602  -14.0272 O   0  0  0  0  0  0  0  0  0  0  0  0
  -19.0222    9.3447  -17.7959 O   0  0  0  0  0  0  0  0  0  0  0  0
  -21.3758    6.9941  -15.1068 P   0  0  2  0  0  0  0  0  0  0  0  0
  -23.3488    5.0103  -16.1354 P   0  0  2  0  0  0  0  0  0  0  0  0
  -20.2479    4.5576  -20.2900 H   0  0  0  0  0  0  0  0  0  0  0  0
  -22.1160    8.7723  -18.6896 H   0  0  0  0  0  0  0  0  0  0  0  0
  -20.5924   10.0172  -15.5259 H   0  0  0  0  0  0  0  0  0  0  0  0
  -22.0821    9.4573  -16.3130 H   0  0  0  0  0  0  0  0  0  0  0  0
  -18.0168    7.5105  -13.8552 H   0  0  0  0  0  0  0  0  0  0  0  0
  -16.9137    6.9011  -20.3065 H   0  0  0  0  0  0  0  0  0  0  0  0
  -18.4484    8.8304  -19.8694 H   0  0  0  0  0  0  0  0  0  0  0  0
  -20.4630    7.0720  -18.3830 H   0  0  0  0  0  0  0  0  0  0  0  0
  -21.9194    7.8194  -21.4295 H   0  0  0  0  0  0  0  0  0  0  0  0
  -23.3364    4.6401  -20.2880 H   0  0  0  0  0  0  0  0  0  0  0  0
  -20.3776    5.7821  -22.3637 H   0  0  0  0  0  0  0  0  0  0  0  0
  -20.5643   10.8347  -17.6576 H   0  0  0  0  0  0  0  0  0  0  0  0
  -22.0032    3.4981  -18.4804 H   0  0  0  0  0  0  0  0  0  0  0  0
  -21.3938    5.1077  -17.9977 H   0  0  0  0  0  0  0  0  0  0  0  0
  -14.4749    4.7496  -14.7756 H   0  0  0  0  0  0  0  0  0  0  0  0
  -14.2894    4.6621  -16.5478 H   0  0  0  0  0  0  0  0  0  0  0  0
  -21.5389    2.6826  -20.5225 H   0  0  0  0  0  0  0  0  0  0  0  0
  -23.2260    5.4081  -22.1312 H   0  0  0  0  0  0  0  0  0  0  0  0
  -20.7802   10.8766  -19.5849 H   0  0  0  0  0  0  0  0  0  0  0  0
  1 12  1  0
  1 13  1  0
  1 23  1  0
  2 10  1  0
  2 14  1  0
  2 25  1  0
 14  3  1  0
  3 26  1  0
  4  7  2  0
  4 16  1  0
  4 17  1  0
  5 17  2  0
  5 18  1  0
  6  7  1  0
  6 18  2  0
  6 20  1  0
  7 19  1  0
  8 19  2  0
  8 20  1  0
  9 10  1  0
  9 20  1  0
  9 33  1  0
 10 21  1  0
 11 13  1  0
 11 21  1  0
 11 22  1  0
 12 15  1  0
 12 22  1  0
 13 24  1  0
 14 33  1  0
 15 30  1  0
 26 34  1  0
 34 27  1  1
 28 34  1  0
 28 35  1  0
 35 29  1  1
 30 35  1  0
 31 35  2  0
 32 34  2  0
  1 36  1  1
  2 37  1  1
  3 38  1  0
  3 39  1  0
  5 40  1  0
  8 41  1  0
  9 42  1  6
 10 43  1  1
 11 44  1  6
 12 45  1  6
 13 46  1  6
 14 47  1  6
 15 48  1  0
 15 49  1  0
 16 50  1  0
 16 51  1  0
 23 52  1  0
 24 53  1  0
 25 54  1  0
M  CHG  2  27  -1  29  -1
M  END
>  <filename_input>  (15) 
7UAW_MF6_docked.sdf

>  <pdb_id>  (15) 
7UAW_MF6

>  <pose_rank>  (15) 
14

>  <num_atoms_heavy>  (15) 
35

>  <num_torsions>  (15) 
1

>  <pose>  (15) 
[-21.237279065068016, 4.6490834812492565, -20.7620738797117, 4.26992500964685, -0.29534820784132726, -0.3068675285615106, -7.705632684408793]

>  <energy>  (15) 
-655.1508966902898

>  <inter_energy>  (15) 
-701.5972341063122

>  <intra_energy>  (15) 
50.63720752736285

>  <rmsd>  (15) 
5.12352

>  <sdf_rank>  (15) 
0

$$$$

     RDKit          3D

 54 58  0  0  0  0  0  0  0  0999 V2000
  -17.6004    7.1884  -20.3655 C   0  0  2  0  0  0  0  0  0  0  0  0
  -21.7701    9.3608  -19.3320 C   0  0  1  0  0  0  0  0  0  0  0  0
  -23.7102    8.0423  -18.3728 C   0  0  0  0  0  0  0  0  0  0  0  0
  -17.7939    6.3168  -14.7767 C   0  0  0  0  0  0  0  0  0  0  0  0
  -17.0293    6.7872  -16.9290 C   0  0  0  0  0  0  0  0  0  0  0  0
  -19.0137    7.8109  -16.2048 C   0  0  0  0  0  0  0  0  0  0  0  0
  -18.9042    7.1932  -14.9707 C   0  0  0  0  0  0  0  0  0  0  0  0
  -20.6960    8.4436  -14.9770 C   0  0  0  0  0  0  0  0  0  0  0  0
  -20.6706    9.3878  -17.2722 C   0  0  2  0  0  0  0  0  0  0  0  0
  -20.5870    8.7941  -18.6394 C   0  0  2  0  0  0  0  0  0  0  0  0
  -19.0796    8.9712  -20.5511 C   0  0  2  0  0  0  0  0  0  0  0  0
  -18.8162    6.7283  -21.1321 C   0  0  1  0  0  0  0  0  0  0  0  0
  -17.6295    8.6073  -20.7003 C   0  0  2  0  0  0  0  0  0  0  0  0
  -22.8569    9.2781  -18.2791 C   0  0  1  0  0  0  0  0  0  0  0  0
  -19.4408    5.5204  -20.5014 C   0  0  0  0  0  0  0  0  0  0  0  0
  -17.5486    5.5776  -13.5570 N   0  0  0  0  0  0  0  0  0  0  0  0
  -16.8957    6.1609  -15.7626 N   0  0  0  0  0  0  0  0  0  0  0  0
  -18.0512    7.5780  -17.1145 N   0  0  0  0  0  0  0  0  0  0  0  0
  -19.9749    7.6008  -14.2243 N   0  0  0  0  0  0  0  0  0  0  0  0
  -20.1219    8.5932  -16.1966 N   0  0  0  0  0  0  0  0  0  0  0  0
  -19.3214    9.1691  -19.1936 O   0  0  0  0  0  0  0  0  0  0  0  0
  -19.7568    7.7920  -21.0119 O   0  0  0  0  0  0  0  0  0  0  0  0
  -16.4322    6.4582  -20.7956 O   0  0  0  0  0  0  0  0  0  0  0  0
  -17.1964    8.8173  -22.0656 O   0  0  0  0  0  0  0  0  0  0  0  0
  -21.5466   10.7578  -19.5429 O   0  0  0  0  0  0  0  0  0  0  0  0
  -22.9046    6.9722  -17.9872 O   0  0  0  0  0  0  0  0  0  0  0  0
  -22.5606    4.3960  -17.4716 O   0  0  0  0  0  0  0  0  0  0  0  0
  -22.5261    5.3204  -19.9331 O   0  0  0  0  0  0  0  0  0  0  0  0
  -21.2445    2.9253  -20.0113 O   0  0  0  0  0  0  0  0  0  0  0  0
  -20.4499    5.0257  -21.3836 O   0  0  0  0  0  0  0  0  0  0  0  0
  -22.6294    3.7557  -21.8133 O   0  0  0  0  0  0  0  0  0  0  0  0
  -24.5883    5.1969  -18.6561 O   0  0  0  0  0  0  0  0  0  0  0  0
  -22.0889    9.3354  -17.0492 O   0  0  0  0  0  0  0  0  0  0  0  0
  -23.1325    5.4214  -18.4230 P   0  0  2  0  0  0  0  0  0  0  0  0
  -21.6963    4.1725  -20.7173 P   0  0  2  0  0  0  0  0  0  0  0  0
  -17.5835    7.0182  -19.2789 H   0  0  0  0  0  0  0  0  0  0  0  0
  -21.9920    8.8544  -20.2830 H   0  0  0  0  0  0  0  0  0  0  0  0
  -24.5763    8.1272  -17.6999 H   0  0  0  0  0  0  0  0  0  0  0  0
  -24.0945    7.9020  -19.3938 H   0  0  0  0  0  0  0  0  0  0  0  0
  -16.2873    6.6403  -17.7277 H   0  0  0  0  0  0  0  0  0  0  0  0
  -21.6209    8.9425  -14.6520 H   0  0  0  0  0  0  0  0  0  0  0  0
  -20.1327   10.3472  -17.2562 H   0  0  0  0  0  0  0  0  0  0  0  0
  -20.6191    7.6965  -18.7044 H   0  0  0  0  0  0  0  0  0  0  0  0
  -19.3931    9.8747  -21.0946 H   0  0  0  0  0  0  0  0  0  0  0  0
  -18.5392    6.4776  -22.1668 H   0  0  0  0  0  0  0  0  0  0  0  0
  -16.9633    9.2114  -20.0669 H   0  0  0  0  0  0  0  0  0  0  0  0
  -23.6046   10.0787  -18.3786 H   0  0  0  0  0  0  0  0  0  0  0  0
  -18.6755    4.7469  -20.3405 H   0  0  0  0  0  0  0  0  0  0  0  0
  -19.8833    5.7859  -19.5299 H   0  0  0  0  0  0  0  0  0  0  0  0
  -16.7264    4.9616  -13.4846 H   0  0  0  0  0  0  0  0  0  0  0  0
  -18.1964    5.6675  -12.7612 H   0  0  0  0  0  0  0  0  0  0  0  0
  -15.9292    6.1438  -20.0029 H   0  0  0  0  0  0  0  0  0  0  0  0
  -16.3056    9.2492  -22.0666 H   0  0  0  0  0  0  0  0  0  0  0  0
  -21.4734   11.2159  -18.6683 H   0  0  0  0  0  0  0  0  0  0  0  0
  1 12  1  0
  1 13  1  0
  1 23  1  0
  2 10  1  0
  2 14  1  0
  2 25  1  0
 14  3  1  0
  3 26  1  0
  4  7  2  0
  4 16  1  0
  4 17  1  0
  5 17  2  0
  5 18  1  0
  6  7  1  0
  6 18  2  0
  6 20  1  0
  7 19  1  0
  8 19  2  0
  8 20  1  0
  9 10  1  0
  9 20  1  0
  9 33  1  0
 10 21  1  0
 11 13  1  0
 11 21  1  0
 11 22  1  0
 12 15  1  0
 12 22  1  0
 13 24  1  0
 14 33  1  0
 15 30  1  0
 26 34  1  0
 34 27  1  1
 28 34  1  0
 28 35  1  0
 35 29  1  1
 30 35  1  0
 31 35  2  0
 32 34  2  0
  1 36  1  1
  2 37  1  6
  3 38  1  0
  3 39  1  0
  5 40  1  0
  8 41  1  0
  9 42  1  6
 10 43  1  1
 11 44  1  6
 12 45  1  6
 13 46  1  1
 14 47  1  1
 15 48  1  0
 15 49  1  0
 16 50  1  0
 16 51  1  0
 23 52  1  0
 24 53  1  0
 25 54  1  0
M  CHG  2  27  -1  29  -1
M  END
>  <filename_input>  (16) 
7UAW_MF6_docked.sdf

>  <pdb_id>  (16) 
7UAW_MF6

>  <pose_rank>  (16) 
15

>  <num_atoms_heavy>  (16) 
35

>  <num_torsions>  (16) 
1

>  <pose>  (16) 
[-17.600396247198187, 7.188401184718771, -20.365473936711926, -1.329680851724322, -1.1144191981332452, -0.5401250763913616, 0.756280975945661]

>  <energy>  (16) 
-681.406434171232

>  <inter_energy>  (16) 
-701.7501791920871

>  <intra_energy>  (16) 
27.977612916109145

>  <rmsd>  (16) 
5.01262

>  <sdf_rank>  (16) 
0

$$$$

     RDKit          3D

 54 58  0  0  0  0  0  0  0  0999 V2000
  -17.3013    6.7503  -20.1018 C   0  0  2  0  0  0  0  0  0  0  0  0
  -21.1456    9.3885  -18.9039 C   0  0  1  0  0  0  0  0  0  0  0  0
  -23.3172    8.2723  -18.2248 C   0  0  0  0  0  0  0  0  0  0  0  0
  -20.5032    5.1577  -13.7454 C   0  0  0  0  0  0  0  0  0  0  0  0
  -22.4468    5.5430  -14.9751 C   0  0  0  0  0  0  0  0  0  0  0  0
  -20.6015    6.9468  -15.3418 C   0  0  0  0  0  0  0  0  0  0  0  0
  -19.8555    6.2399  -14.4144 C   0  0  0  0  0  0  0  0  0  0  0  0
  -18.6163    7.8345  -15.2487 C   0  0  0  0  0  0  0  0  0  0  0  0
  -20.1788    8.9449  -16.8253 C   0  0  2  0  0  0  0  0  0  0  0  0
  -20.1057    8.5474  -18.2623 C   0  0  2  0  0  0  0  0  0  0  0  0
  -18.4783    8.7540  -20.0699 C   0  0  2  0  0  0  0  0  0  0  0  0
  -18.5254    6.6043  -20.9724 C   0  0  1  0  0  0  0  0  0  0  0  0
  -17.0942    8.1889  -20.2198 C   0  0  2  0  0  0  0  0  0  0  0  0
  -22.2927    9.3301  -17.9153 C   0  0  1  0  0  0  0  0  0  0  0  0
  -19.3628    5.4336  -20.5538 C   0  0  0  0  0  0  0  0  0  0  0  0
  -19.8726    4.3366  -12.7341 N   0  0  0  0  0  0  0  0  0  0  0  0
  -21.7701    4.8477  -14.0644 N   0  0  0  0  0  0  0  0  0  0  0  0
  -21.8620    6.5422  -15.5780 N   0  0  0  0  0  0  0  0  0  0  0  0
  -18.6190    6.8220  -14.3701 N   0  0  0  0  0  0  0  0  0  0  0  0
  -19.8221    7.9274  -15.8626 N   0  0  0  0  0  0  0  0  0  0  0  0
  -18.7672    8.7914  -18.7077 O   0  0  0  0  0  0  0  0  0  0  0  0
  -19.2986    7.7759  -20.7272 O   0  0  0  0  0  0  0  0  0  0  0  0
  -16.2344    5.9126  -20.5946 O   0  0  0  0  0  0  0  0  0  0  0  0
  -16.5542    8.5205  -21.5215 O   0  0  0  0  0  0  0  0  0  0  0  0
  -20.7001   10.7477  -18.8937 O   0  0  0  0  0  0  0  0  0  0  0  0
  -22.7080    7.0435  -17.9761 O   0  0  0  0  0  0  0  0  0  0  0  0
  -22.7912    4.3985  -17.8425 O   0  0  0  0  0  0  0  0  0  0  0  0
  -22.4708    5.6483  -20.1337 O   0  0  0  0  0  0  0  0  0  0  0  0
  -21.5663    3.1158  -20.5256 O   0  0  0  0  0  0  0  0  0  0  0  0
  -20.3814    5.2374  -21.5362 O   0  0  0  0  0  0  0  0  0  0  0  0
  -22.6995    4.4055  -22.2307 O   0  0  0  0  0  0  0  0  0  0  0  0
  -24.5997    5.6732  -18.9651 O   0  0  0  0  0  0  0  0  0  0  0  0
  -21.5992    9.0877  -16.6640 O   0  0  0  0  0  0  0  0  0  0  0  0
  -23.1431    5.6273  -18.6485 P   0  0  2  0  0  0  0  0  0  0  0  0
  -21.7803    4.5071  -21.0514 P   0  0  2  0  0  0  0  0  0  0  0  0
  -17.3749    6.4258  -19.0533 H   0  0  0  0  0  0  0  0  0  0  0  0
  -21.3853    9.0653  -19.9277 H   0  0  0  0  0  0  0  0  0  0  0  0
  -24.1986    8.3968  -17.5786 H   0  0  0  0  0  0  0  0  0  0  0  0
  -23.6572    8.3426  -19.2686 H   0  0  0  0  0  0  0  0  0  0  0  0
  -23.4869    5.2789  -15.2169 H   0  0  0  0  0  0  0  0  0  0  0  0
  -17.7588    8.4954  -15.4437 H   0  0  0  0  0  0  0  0  0  0  0  0
  -19.5031    9.7940  -16.6455 H   0  0  0  0  0  0  0  0  0  0  0  0
  -20.3006    7.4897  -18.4931 H   0  0  0  0  0  0  0  0  0  0  0  0
  -18.6180    9.7642  -20.4821 H   0  0  0  0  0  0  0  0  0  0  0  0
  -18.2290    6.4634  -22.0223 H   0  0  0  0  0  0  0  0  0  0  0  0
  -16.3825    8.5822  -19.4790 H   0  0  0  0  0  0  0  0  0  0  0  0
  -22.9027   10.2454  -17.9200 H   0  0  0  0  0  0  0  0  0  0  0  0
  -18.7350    4.5331  -20.4837 H   0  0  0  0  0  0  0  0  0  0  0  0
  -19.8165    5.6243  -19.5700 H   0  0  0  0  0  0  0  0  0  0  0  0
  -20.3992    3.5703  -12.2909 H   0  0  0  0  0  0  0  0  0  0  0  0
  -18.8972    4.5185  -12.4576 H   0  0  0  0  0  0  0  0  0  0  0  0
  -15.7398    5.5242  -19.8300 H   0  0  0  0  0  0  0  0  0  0  0  0
  -15.7159    9.0351  -21.4096 H   0  0  0  0  0  0  0  0  0  0  0  0
  -20.5994   11.0549  -17.9579 H   0  0  0  0  0  0  0  0  0  0  0  0
  1 12  1  0
  1 13  1  0
  1 23  1  0
  2 10  1  0
  2 14  1  0
  2 25  1  0
 14  3  1  0
  3 26  1  0
  4  7  2  0
  4 16  1  0
  4 17  1  0
  5 17  2  0
  5 18  1  0
  6  7  1  0
  6 18  2  0
  6 20  1  0
  7 19  1  0
  8 19  2  0
  8 20  1  0
  9 10  1  0
  9 20  1  0
  9 33  1  0
 10 21  1  0
 11 13  1  0
 11 21  1  0
 11 22  1  0
 12 15  1  0
 12 22  1  0
 13 24  1  0
 14 33  1  0
 15 30  1  0
 26 34  1  0
 34 27  1  1
 28 34  1  0
 28 35  1  0
 35 29  1  1
 30 35  1  0
 31 35  2  0
 32 34  2  0
  1 36  1  1
  2 37  1  6
  3 38  1  0
  3 39  1  0
  5 40  1  0
  8 41  1  0
  9 42  1  6
 10 43  1  1
 11 44  1  6
 12 45  1  6
 13 46  1  1
 14 47  1  1
 15 48  1  0
 15 49  1  0
 16 50  1  0
 16 51  1  0
 23 52  1  0
 24 53  1  0
 25 54  1  0
M  CHG  2  27  -1  29  -1
M  END
>  <filename_input>  (17) 
7UAW_MF6_docked.sdf

>  <pdb_id>  (17) 
7UAW_MF6

>  <pose_rank>  (17) 
16

>  <num_atoms_heavy>  (17) 
35

>  <num_torsions>  (17) 
1

>  <pose>  (17) 
[-17.301299744184593, 6.750324375600836, -20.101794560542555, 3.218596652418005, 2.4864319082801054, 1.8995949186311416, 4.910416905597922]

>  <energy>  (17) 
-674.2914128236207

>  <inter_energy>  (17) 
-736.9802540587417

>  <intra_energy>  (17) 
62.17681128021758

>  <rmsd>  (17) 
5.23273

>  <sdf_rank>  (17) 
0

$$$$

     RDKit          3D

 54 58  0  0  0  0  0  0  0  0999 V2000
  -21.6095   10.8957  -18.4312 C   0  0  2  0  0  0  0  0  0  0  0  0
  -20.2238    7.5777  -15.2305 C   0  0  1  0  0  0  0  0  0  0  0  0
  -20.8051    5.1344  -15.5694 C   0  0  0  0  0  0  0  0  0  0  0  0
  -15.9292    6.7714  -20.9146 C   0  0  0  0  0  0  0  0  0  0  0  0
  -14.6221    7.1857  -19.0282 C   0  0  0  0  0  0  0  0  0  0  0  0
  -16.9552    7.1322  -18.7753 C   0  0  0  0  0  0  0  0  0  0  0  0
  -17.1135    6.8490  -20.1211 C   0  0  0  0  0  0  0  0  0  0  0  0
  -19.0839    6.9250  -19.1798 C   0  0  0  0  0  0  0  0  0  0  0  0
  -18.5214    7.4728  -16.8253 C   0  0  2  0  0  0  0  0  0  0  0  0
  -19.8801    8.0469  -16.5952 C   0  0  2  0  0  0  0  0  0  0  0  0
  -20.8308   10.2794  -16.3301 C   0  0  2  0  0  0  0  0  0  0  0  0
  -22.7034   10.1437  -17.7131 C   0  0  1  0  0  0  0  0  0  0  0  0
  -20.8992   11.4412  -17.2804 C   0  0  2  0  0  0  0  0  0  0  0  0
  -19.7401    6.1415  -15.2291 C   0  0  1  0  0  0  0  0  0  0  0  0
  -23.1880    8.9751  -18.5171 C   0  0  0  0  0  0  0  0  0  0  0  0
  -15.9231    6.5083  -22.3377 N   0  0  0  0  0  0  0  0  0  0  0  0
  -14.7311    6.9314  -20.3298 N   0  0  0  0  0  0  0  0  0  0  0  0
  -15.7040    7.2716  -18.3029 N   0  0  0  0  0  0  0  0  0  0  0  0
  -18.4567    6.7322  -20.3488 N   0  0  0  0  0  0  0  0  0  0  0  0
  -18.1816    7.1668  -18.1965 N   0  0  0  0  0  0  0  0  0  0  0  0
  -19.7763    9.4673  -16.7409 O   0  0  0  0  0  0  0  0  0  0  0  0
  -22.0853    9.6143  -16.5434 O   0  0  0  0  0  0  0  0  0  0  0  0
  -22.1799   11.8600  -19.3410 O   0  0  0  0  0  0  0  0  0  0  0  0
  -21.6477   12.5305  -16.6896 O   0  0  0  0  0  0  0  0  0  0  0  0
  -19.3905    8.2633  -14.2916 O   0  0  0  0  0  0  0  0  0  0  0  0
  -21.0929    5.3015  -16.9230 O   0  0  0  0  0  0  0  0  0  0  0  0
  -22.3916    4.5961  -19.1222 O   0  0  0  0  0  0  0  0  0  0  0  0
  -23.5191    6.1020  -17.2851 O   0  0  0  0  0  0  0  0  0  0  0  0
  -24.9366    6.5117  -19.5672 O   0  0  0  0  0  0  0  0  0  0  0  0
  -24.3472    8.4401  -17.8759 O   0  0  0  0  0  0  0  0  0  0  0  0
  -25.9337    6.4991  -17.3625 O   0  0  0  0  0  0  0  0  0  0  0  0
  -23.0934    3.7420  -16.9010 O   0  0  0  0  0  0  0  0  0  0  0  0
  -18.6742    6.1822  -16.2129 O   0  0  0  0  0  0  0  0  0  0  0  0
  -22.4920    4.8874  -17.6428 P   0  0  2  0  0  0  0  0  0  0  0  0
  -24.6891    6.8440  -18.1227 P   0  0  2  0  0  0  0  0  0  0  0  0
  -20.9455   10.3250  -19.0970 H   0  0  0  0  0  0  0  0  0  0  0  0
  -21.2864    7.7203  -14.9844 H   0  0  0  0  0  0  0  0  0  0  0  0
  -20.4369    4.1148  -15.3827 H   0  0  0  0  0  0  0  0  0  0  0  0
  -21.7031    5.2823  -14.9515 H   0  0  0  0  0  0  0  0  0  0  0  0
  -13.6319    7.3219  -18.5689 H   0  0  0  0  0  0  0  0  0  0  0  0
  -20.1743    6.8919  -19.0383 H   0  0  0  0  0  0  0  0  0  0  0  0
  -17.7594    8.1802  -16.4663 H   0  0  0  0  0  0  0  0  0  0  0  0
  -20.6714    7.7399  -17.2949 H   0  0  0  0  0  0  0  0  0  0  0  0
  -20.6718   10.5472  -15.2751 H   0  0  0  0  0  0  0  0  0  0  0  0
  -23.5562   10.8103  -17.5178 H   0  0  0  0  0  0  0  0  0  0  0  0
  -19.9108   11.8483  -17.5397 H   0  0  0  0  0  0  0  0  0  0  0  0
  -19.4183    5.8041  -14.2329 H   0  0  0  0  0  0  0  0  0  0  0  0
  -23.4444    9.3044  -19.5349 H   0  0  0  0  0  0  0  0  0  0  0  0
  -22.4026    8.2078  -18.5824 H   0  0  0  0  0  0  0  0  0  0  0  0
  -15.0304    6.4658  -22.8497 H   0  0  0  0  0  0  0  0  0  0  0  0
  -16.8115    6.3637  -22.8385 H   0  0  0  0  0  0  0  0  0  0  0  0
  -22.6098   12.5870  -18.8244 H   0  0  0  0  0  0  0  0  0  0  0  0
  -21.6026   12.4648  -15.7028 H   0  0  0  0  0  0  0  0  0  0  0  0
  -19.6714    8.0322  -13.3708 H   0  0  0  0  0  0  0  0  0  0  0  0
  1 12  1  0
  1 13  1  0
  1 23  1  0
  2 10  1  0
  2 14  1  0
  2 25  1  0
 14  3  1  0
  3 26  1  0
  4  7  2  0
  4 16  1  0
  4 17  1  0
  5 17  2  0
  5 18  1  0
  6  7  1  0
  6 18  2  0
  6 20  1  0
  7 19  1  0
  8 19  2  0
  8 20  1  0
  9 10  1  0
  9 20  1  0
  9 33  1  0
 10 21  1  0
 11 13  1  0
 11 21  1  0
 11 22  1  0
 12 15  1  0
 12 22  1  0
 13 24  1  0
 14 33  1  0
 15 30  1  0
 26 34  1  0
 34 27  1  6
 28 34  1  0
 28 35  1  0
 35 29  1  6
 30 35  1  0
 31 35  2  0
 32 34  2  0
  1 36  1  6
  2 37  1  1
  3 38  1  0
  3 39  1  0
  5 40  1  0
  8 41  1  0
  9 42  1  1
 10 43  1  6
 11 44  1  1
 12 45  1  1
 13 46  1  6
 14 47  1  1
 15 48  1  0
 15 49  1  0
 16 50  1  0
 16 51  1  0
 23 52  1  0
 24 53  1  0
 25 54  1  0
M  CHG  2  27  -1  29  -1
M  END
>  <filename_input>  (18) 
7UAW_MF6_docked.sdf

>  <pdb_id>  (18) 
7UAW_MF6

>  <pose_rank>  (18) 
17

>  <num_atoms_heavy>  (18) 
35

>  <num_torsions>  (18) 
1

>  <pose>  (18) 
[-21.60951925073989, 10.895713062755041, -18.43119017664024, 0.7665559291109408, -5.733763226884956, -0.15577300042520434, -3.520939453683457]

>  <energy>  (18) 
-615.9256531539804

>  <inter_energy>  (18) 
-621.9774016145225

>  <intra_energy>  (18) 
0.8693868372787428

>  <rmsd>  (18) 
2.28112

>  <sdf_rank>  (18) 
0

$$$$

     RDKit          3D

 54 58  0  0  0  0  0  0  0  0999 V2000
  -21.4448    6.6418  -22.1773 C   0  0  2  0  0  0  0  0  0  0  0  0
  -21.7006    4.7183  -17.7718 C   0  0  1  0  0  0  0  0  0  0  0  0
  -19.9650    5.2826  -16.0135 C   0  0  0  0  0  0  0  0  0  0  0  0
  -21.5364   11.3311  -16.2101 C   0  0  0  0  0  0  0  0  0  0  0  0
  -20.6239    9.6865  -14.8313 C   0  0  0  0  0  0  0  0  0  0  0  0
  -21.9743    9.0088  -16.6278 C   0  0  0  0  0  0  0  0  0  0  0  0
  -22.1547   10.3260  -17.0136 C   0  0  0  0  0  0  0  0  0  0  0  0
  -23.2267    9.0294  -18.4079 C   0  0  0  0  0  0  0  0  0  0  0  0
  -22.7734    6.7719  -17.4816 C   0  0  2  0  0  0  0  0  0  0  0  0
  -21.9364    6.0126  -18.4570 C   0  0  2  0  0  0  0  0  0  0  0  0
  -22.2486    5.0557  -20.6809 C   0  0  2  0  0  0  0  0  0  0  0  0
  -20.2999    5.7541  -21.7544 C   0  0  1  0  0  0  0  0  0  0  0  0
  -22.5499    5.7068  -22.0010 C   0  0  2  0  0  0  0  0  0  0  0  0
  -21.4261    5.1326  -16.3401 C   0  0  1  0  0  0  0  0  0  0  0  0
  -19.1608    6.5526  -21.1960 C   0  0  0  0  0  0  0  0  0  0  0  0
  -21.6471   12.7518  -16.4625 N   0  0  0  0  0  0  0  0  0  0  0  0
  -20.7858   10.9662  -15.1582 N   0  0  0  0  0  0  0  0  0  0  0  0
  -21.1999    8.7659  -15.5556 N   0  0  0  0  0  0  0  0  0  0  0  0
  -22.9494   10.3103  -18.1262 N   0  0  0  0  0  0  0  0  0  0  0  0
  -22.6334    8.2103  -17.5042 N   0  0  0  0  0  0  0  0  0  0  0  0
  -22.6748    5.9264  -19.6805 O   0  0  0  0  0  0  0  0  0  0  0  0
  -20.8157    4.9647  -20.6860 O   0  0  0  0  0  0  0  0  0  0  0  0
  -21.2317    7.1272  -23.5196 O   0  0  0  0  0  0  0  0  0  0  0  0
  -22.5548    4.7189  -23.0592 O   0  0  0  0  0  0  0  0  0  0  0  0
  -22.9339    3.9948  -17.7313 O   0  0  0  0  0  0  0  0  0  0  0  0
  -19.5195    6.4153  -16.6928 O   0  0  0  0  0  0  0  0  0  0  0  0
  -17.6192    8.1606  -17.2955 O   0  0  0  0  0  0  0  0  0  0  0  0
  -17.7577    5.8174  -18.4807 O   0  0  0  0  0  0  0  0  0  0  0  0
  -16.2725    7.4006  -20.1157 O   0  0  0  0  0  0  0  0  0  0  0  0
  -18.0480    5.6761  -21.0100 O   0  0  0  0  0  0  0  0  0  0  0  0
  -15.8713    5.0316  -19.8291 O   0  0  0  0  0  0  0  0  0  0  0  0
  -17.0706    6.0236  -16.1604 O   0  0  0  0  0  0  0  0  0  0  0  0
  -22.1518    6.3855  -16.2453 O   0  0  0  0  0  0  0  0  0  0  0  0
  -17.9787    6.7023  -17.1292 P   0  0  2  0  0  0  0  0  0  0  0  0
  -16.9413    6.0806  -19.8538 P   0  0  2  0  0  0  0  0  0  0  0  0
  -21.6007    7.5786  -21.6223 H   0  0  0  0  0  0  0  0  0  0  0  0
  -20.9130    4.1181  -18.2509 H   0  0  0  0  0  0  0  0  0  0  0  0
  -19.8297    5.4123  -14.9296 H   0  0  0  0  0  0  0  0  0  0  0  0
  -19.3972    4.3900  -16.3152 H   0  0  0  0  0  0  0  0  0  0  0  0
  -20.0118    9.4077  -13.9609 H   0  0  0  0  0  0  0  0  0  0  0  0
  -23.8465    8.6910  -19.2513 H   0  0  0  0  0  0  0  0  0  0  0  0
  -23.8364    6.5596  -17.6682 H   0  0  0  0  0  0  0  0  0  0  0  0
  -20.9696    6.4596  -18.7318 H   0  0  0  0  0  0  0  0  0  0  0  0
  -22.7305    4.0801  -20.5200 H   0  0  0  0  0  0  0  0  0  0  0  0
  -19.9316    5.1753  -22.6142 H   0  0  0  0  0  0  0  0  0  0  0  0
  -23.5346    6.1963  -22.0285 H   0  0  0  0  0  0  0  0  0  0  0  0
  -21.7452    4.3732  -15.6110 H   0  0  0  0  0  0  0  0  0  0  0  0
  -18.8893    7.3547  -21.8982 H   0  0  0  0  0  0  0  0  0  0  0  0
  -19.4502    7.0069  -20.2370 H   0  0  0  0  0  0  0  0  0  0  0  0
  -21.1741   13.4236  -15.8413 H   0  0  0  0  0  0  0  0  0  0  0  0
  -22.1989   13.0912  -17.2633 H   0  0  0  0  0  0  0  0  0  0  0  0
  -20.8341    8.0331  -23.4836 H   0  0  0  0  0  0  0  0  0  0  0  0
  -22.5593    3.8115  -22.6635 H   0  0  0  0  0  0  0  0  0  0  0  0
  -23.1957    3.8413  -16.7890 H   0  0  0  0  0  0  0  0  0  0  0  0
  1 12  1  0
  1 13  1  0
  1 23  1  0
  2 10  1  0
  2 14  1  0
  2 25  1  0
 14  3  1  0
  3 26  1  0
  4  7  2  0
  4 16  1  0
  4 17  1  0
  5 17  2  0
  5 18  1  0
  6  7  1  0
  6 18  2  0
  6 20  1  0
  7 19  1  0
  8 19  2  0
  8 20  1  0
  9 10  1  0
  9 20  1  0
  9 33  1  0
 10 21  1  0
 11 13  1  0
 11 21  1  0
 11 22  1  0
 12 15  1  0
 12 22  1  0
 13 24  1  0
 14 33  1  0
 15 30  1  0
 26 34  1  0
 34 27  1  6
 28 34  1  0
 28 35  1  0
 35 29  1  6
 30 35  1  0
 31 35  2  0
 32 34  2  0
  1 36  1  1
  2 37  1  6
  3 38  1  0
  3 39  1  0
  5 40  1  0
  8 41  1  0
  9 42  1  1
 10 43  1  6
 11 44  1  6
 12 45  1  6
 13 46  1  1
 14 47  1  1
 15 48  1  0
 15 49  1  0
 16 50  1  0
 16 51  1  0
 23 52  1  0
 24 53  1  0
 25 54  1  0
M  CHG  2  27  -1  29  -1
M  END
>  <filename_input>  (19) 
7UAW_MF6_docked.sdf

>  <pdb_id>  (19) 
7UAW_MF6

>  <pose_rank>  (19) 
18

>  <num_atoms_heavy>  (19) 
35

>  <num_torsions>  (19) 
1

>  <pose>  (19) 
[-21.44484699920063, 6.641750949383043, -22.177284105100373, 0.5809712557887692, 2.267839944822161, -3.183237307029603, 4.560261527543885]

>  <energy>  (19) 
-594.1475635035619

>  <inter_energy>  (19) 
-611.6027225622538

>  <intra_energy>  (19) 
27.343599312846628

>  <rmsd>  (19) 
6.38421

>  <sdf_rank>  (19) 
0

$$$$

     RDKit          3D

 54 58  0  0  0  0  0  0  0  0999 V2000
  -21.2970   11.4228  -16.7086 C   0  0  2  0  0  0  0  0  0  0  0  0
  -22.1855    7.1805  -14.6140 C   0  0  1  0  0  0  0  0  0  0  0  0
  -22.7101    5.1339  -16.0135 C   0  0  0  0  0  0  0  0  0  0  0  0
  -15.5877    6.6769  -17.3734 C   0  0  0  0  0  0  0  0  0  0  0  0
  -15.4885    6.2458  -15.0838 C   0  0  0  0  0  0  0  0  0  0  0  0
  -17.5736    6.7647  -16.0289 C   0  0  0  0  0  0  0  0  0  0  0  0
  -16.9988    6.8745  -17.2835 C   0  0  0  0  0  0  0  0  0  0  0  0
  -19.1449    7.2469  -17.4560 C   0  0  0  0  0  0  0  0  0  0  0  0
  -19.9078    7.0263  -15.1045 C   0  0  2  0  0  0  0  0  0  0  0  0
  -21.1137    7.8618  -15.3806 C   0  0  2  0  0  0  0  0  0  0  0  0
  -21.8464   10.1306  -14.8568 C   0  0  2  0  0  0  0  0  0  0  0  0
  -22.6689   10.8315  -16.9232 C   0  0  1  0  0  0  0  0  0  0  0  0
  -21.2802   11.4653  -15.2512 C   0  0  2  0  0  0  0  0  0  0  0  0
  -21.9144    5.7125  -14.8750 C   0  0  1  0  0  0  0  0  0  0  0  0
  -22.7431   10.0635  -18.2083 C   0  0  0  0  0  0  0  0  0  0  0  0
  -14.8319    6.7799  -18.6033 N   0  0  0  0  0  0  0  0  0  0  0  0
  -14.8939    6.3582  -16.2688 N   0  0  0  0  0  0  0  0  0  0  0  0
  -16.7764    6.4401  -14.9959 N   0  0  0  0  0  0  0  0  0  0  0  0
  -18.0039    7.1849  -18.1569 N   0  0  0  0  0  0  0  0  0  0  0  0
  -18.9068    6.9864  -16.1464 N   0  0  0  0  0  0  0  0  0  0  0  0
  -20.8178    9.1965  -14.9557 O   0  0  0  0  0  0  0  0  0  0  0  0
  -22.8379    9.8898  -15.8671 O   0  0  0  0  0  0  0  0  0  0  0  0
  -21.1897   12.6946  -17.3823 O   0  0  0  0  0  0  0  0  0  0  0  0
  -22.1260   12.5341  -14.7632 O   0  0  0  0  0  0  0  0  0  0  0  0
  -21.9382    7.3734  -13.2184 O   0  0  0  0  0  0  0  0  0  0  0  0
  -22.1989    5.6957  -17.1823 O   0  0  0  0  0  0  0  0  0  0  0  0
  -22.1510    5.9137  -19.8225 O   0  0  0  0  0  0  0  0  0  0  0  0
  -23.9526    7.1666  -18.3736 O   0  0  0  0  0  0  0  0  0  0  0  0
  -23.8566    8.4772  -20.7523 O   0  0  0  0  0  0  0  0  0  0  0  0
  -24.1078    9.7107  -18.4412 O   0  0  0  0  0  0  0  0  0  0  0  0
  -25.8883    8.1882  -19.4705 O   0  0  0  0  0  0  0  0  0  0  0  0
  -24.0226    4.7577  -18.6751 O   0  0  0  0  0  0  0  0  0  0  0  0
  -20.4866    5.7117  -15.1334 O   0  0  0  0  0  0  0  0  0  0  0  0
  -23.0125    5.8509  -18.5826 P   0  0  2  0  0  0  0  0  0  0  0  0
  -24.4051    8.3701  -19.3574 P   0  0  2  0  0  0  0  0  0  0  0  0
  -20.4333   10.8786  -17.1184 H   0  0  0  0  0  0  0  0  0  0  0  0
  -23.1927    7.5317  -14.8827 H   0  0  0  0  0  0  0  0  0  0  0  0
  -22.5980    4.0399  -16.0376 H   0  0  0  0  0  0  0  0  0  0  0  0
  -23.7816    5.3562  -15.9021 H   0  0  0  0  0  0  0  0  0  0  0  0
  -14.9017    5.9920  -14.1886 H   0  0  0  0  0  0  0  0  0  0  0  0
  -20.1329    7.4761  -17.8819 H   0  0  0  0  0  0  0  0  0  0  0  0
  -19.4026    7.3998  -14.2016 H   0  0  0  0  0  0  0  0  0  0  0  0
  -21.4215    7.9531  -16.4327 H   0  0  0  0  0  0  0  0  0  0  0  0
  -22.2629   10.0815  -13.8399 H   0  0  0  0  0  0  0  0  0  0  0  0
  -23.4255   11.6296  -16.9497 H   0  0  0  0  0  0  0  0  0  0  0  0
  -20.2774   11.6500  -14.8387 H   0  0  0  0  0  0  0  0  0  0  0  0
  -22.2187    5.0700  -14.0355 H   0  0  0  0  0  0  0  0  0  0  0  0
  -22.3734   10.6865  -19.0360 H   0  0  0  0  0  0  0  0  0  0  0  0
  -22.1227    9.1573  -18.1449 H   0  0  0  0  0  0  0  0  0  0  0  0
  -13.8137    6.6247  -18.5966 H   0  0  0  0  0  0  0  0  0  0  0  0
  -15.3122    7.0086  -19.4853 H   0  0  0  0  0  0  0  0  0  0  0  0
  -21.1285   13.4195  -16.7109 H   0  0  0  0  0  0  0  0  0  0  0  0
  -22.1236   12.5310  -13.7732 H   0  0  0  0  0  0  0  0  0  0  0  0
  -22.5992    6.8579  -12.6917 H   0  0  0  0  0  0  0  0  0  0  0  0
  1 12  1  0
  1 13  1  0
  1 23  1  0
  2 10  1  0
  2 14  1  0
  2 25  1  0
 14  3  1  0
  3 26  1  0
  4  7  2  0
  4 16  1  0
  4 17  1  0
  5 17  2  0
  5 18  1  0
  6  7  1  0
  6 18  2  0
  6 20  1  0
  7 19  1  0
  8 19  2  0
  8 20  1  0
  9 10  1  0
  9 20  1  0
  9 33  1  0
 10 21  1  0
 11 13  1  0
 11 21  1  0
 11 22  1  0
 12 15  1  0
 12 22  1  0
 13 24  1  0
 14 33  1  0
 15 30  1  0
 26 34  1  0
 34 27  1  6
 28 34  1  0
 28 35  1  0
 35 29  1  6
 30 35  1  0
 31 35  2  0
 32 34  2  0
  1 36  1  6
  2 37  1  6
  3 38  1  0
  3 39  1  0
  5 40  1  0
  8 41  1  0
  9 42  1  1
 10 43  1  6
 11 44  1  1
 12 45  1  6
 13 46  1  1
 14 47  1  1
 15 48  1  0
 15 49  1  0
 16 50  1  0
 16 51  1  0
 23 52  1  0
 24 53  1  0
 25 54  1  0
M  CHG  2  27  -1  29  -1
M  END
>  <filename_input>  (20) 
7UAW_MF6_docked.sdf

>  <pdb_id>  (20) 
7UAW_MF6

>  <pose_rank>  (20) 
19

>  <num_atoms_heavy>  (20) 
35

>  <num_torsions>  (20) 
1

>  <pose>  (20) 
[-21.296995652798746, 11.422758327327658, -16.70862071490919, 0.28427236389637034, -0.06429677367364399, -0.11094939851478125, 2.7715388870944864]

>  <energy>  (20) 
-700.888422229242

>  <inter_energy>  (20) 
-701.5671350843338

>  <intra_energy>  (20) 
0.8113557234797734

>  <rmsd>  (20) 
2.03411

>  <sdf_rank>  (20) 
0

$$$$

     RDKit          3D

 54 58  0  0  0  0  0  0  0  0999 V2000
  -17.3748    6.7875  -20.1117 C   0  0  2  0  0  0  0  0  0  0  0  0
  -21.2515    9.3852  -18.9296 C   0  0  1  0  0  0  0  0  0  0  0  0
  -23.3825    8.2487  -18.1617 C   0  0  0  0  0  0  0  0  0  0  0  0
  -20.4283    5.4494  -13.5427 C   0  0  0  0  0  0  0  0  0  0  0  0
  -22.4482    5.8281  -14.6448 C   0  0  0  0  0  0  0  0  0  0  0  0
  -20.5967    7.1469  -15.2307 C   0  0  0  0  0  0  0  0  0  0  0  0
  -19.8027    6.4697  -14.3211 C   0  0  0  0  0  0  0  0  0  0  0  0
  -18.5855    7.9722  -15.3386 C   0  0  0  0  0  0  0  0  0  0  0  0
  -20.2312    9.0420  -16.8575 C   0  0  2  0  0  0  0  0  0  0  0  0
  -20.1795    8.5918  -18.2799 C   0  0  2  0  0  0  0  0  0  0  0  0
  -18.5957    8.7648  -20.1292 C   0  0  2  0  0  0  0  0  0  0  0  0
  -18.6134    6.5819  -20.9491 C   0  0  1  0  0  0  0  0  0  0  0  0
  -17.2027    8.2247  -20.2881 C   0  0  2  0  0  0  0  0  0  0  0  0
  -22.3759    9.3395  -17.9146 C   0  0  1  0  0  0  0  0  0  0  0  0
  -19.4152    5.4101  -20.4686 C   0  0  0  0  0  0  0  0  0  0  0  0
  -19.7462    4.6669  -12.5342 N   0  0  0  0  0  0  0  0  0  0  0  0
  -21.7242    5.1638  -13.7475 N   0  0  0  0  0  0  0  0  0  0  0  0
  -21.8826    6.7714  -15.3479 N   0  0  0  0  0  0  0  0  0  0  0  0
  -18.5503    7.0120  -14.4037 N   0  0  0  0  0  0  0  0  0  0  0  0
  -19.8314    8.0697  -15.8654 N   0  0  0  0  0  0  0  0  0  0  0  0
  -18.8566    8.8478  -18.7634 O   0  0  0  0  0  0  0  0  0  0  0  0
  -19.4075    7.7449  -20.7312 O   0  0  0  0  0  0  0  0  0  0  0  0
  -16.3000    5.9550  -20.5960 O   0  0  0  0  0  0  0  0  0  0  0  0
  -16.6979    8.5182  -21.6128 O   0  0  0  0  0  0  0  0  0  0  0  0
  -20.8365   10.7531  -18.9802 O   0  0  0  0  0  0  0  0  0  0  0  0
  -22.7407    7.0437  -17.8804 O   0  0  0  0  0  0  0  0  0  0  0  0
  -22.7615    4.4046  -17.6459 O   0  0  0  0  0  0  0  0  0  0  0  0
  -22.5177    5.5730  -19.9889 O   0  0  0  0  0  0  0  0  0  0  0  0
  -21.5648    3.0477  -20.3052 O   0  0  0  0  0  0  0  0  0  0  0  0
  -20.4496    5.1546  -21.4204 O   0  0  0  0  0  0  0  0  0  0  0  0
  -22.7626    4.2468  -22.0322 O   0  0  0  0  0  0  0  0  0  0  0  0
  -24.6215    5.5962  -18.7756 O   0  0  0  0  0  0  0  0  0  0  0  0
  -21.6508    9.1599  -16.6706 O   0  0  0  0  0  0  0  0  0  0  0  0
  -23.1579    5.5939  -18.4895 P   0  0  2  0  0  0  0  0  0  0  0  0
  -21.8212    4.4131  -20.8780 P   0  0  2  0  0  0  0  0  0  0  0  0
  -17.4190    6.5015  -19.0504 H   0  0  0  0  0  0  0  0  0  0  0  0
  -21.5053    9.0182  -19.9351 H   0  0  0  0  0  0  0  0  0  0  0  0
  -24.2526    8.3785  -17.5013 H   0  0  0  0  0  0  0  0  0  0  0  0
  -23.7460    8.2719  -19.1996 H   0  0  0  0  0  0  0  0  0  0  0  0
  -23.5108    5.5852  -14.7924 H   0  0  0  0  0  0  0  0  0  0  0  0
  -17.7268    8.5921  -15.6358 H   0  0  0  0  0  0  0  0  0  0  0  0
  -19.5712    9.9118  -16.7246 H   0  0  0  0  0  0  0  0  0  0  0  0
  -20.3554    7.5221  -18.4665 H   0  0  0  0  0  0  0  0  0  0  0  0
  -18.7668    9.7554  -20.5758 H   0  0  0  0  0  0  0  0  0  0  0  0
  -18.3362    6.4077  -21.9993 H   0  0  0  0  0  0  0  0  0  0  0  0
  -16.4846    8.6612  -19.5784 H   0  0  0  0  0  0  0  0  0  0  0  0
  -23.0063   10.2406  -17.9402 H   0  0  0  0  0  0  0  0  0  0  0  0
  -18.7659    4.5268  -20.3786 H   0  0  0  0  0  0  0  0  0  0  0  0
  -19.8522    5.6281  -19.4830 H   0  0  0  0  0  0  0  0  0  0  0  0
  -20.2592    3.9450  -12.0083 H   0  0  0  0  0  0  0  0  0  0  0  0
  -18.7478    4.8319  -12.3424 H   0  0  0  0  0  0  0  0  0  0  0  0
  -15.8066    5.5728  -19.8275 H   0  0  0  0  0  0  0  0  0  0  0  0
  -15.8445    9.0144  -21.5383 H   0  0  0  0  0  0  0  0  0  0  0  0
  -20.7312   11.1003  -18.0590 H   0  0  0  0  0  0  0  0  0  0  0  0
  1 12  1  0
  1 13  1  0
  1 23  1  0
  2 10  1  0
  2 14  1  0
  2 25  1  0
 14  3  1  0
  3 26  1  0
  4  7  2  0
  4 16  1  0
  4 17  1  0
  5 17  2  0
  5 18  1  0
  6  7  1  0
  6 18  2  0
  6 20  1  0
  7 19  1  0
  8 19  2  0
  8 20  1  0
  9 10  1  0
  9 20  1  0
  9 33  1  0
 10 21  1  0
 11 13  1  0
 11 21  1  0
 11 22  1  0
 12 15  1  0
 12 22  1  0
 13 24  1  0
 14 33  1  0
 15 30  1  0
 26 34  1  0
 34 27  1  1
 28 34  1  0
 28 35  1  0
 35 29  1  1
 30 35  1  0
 31 35  2  0
 32 34  2  0
  1 36  1  1
  2 37  1  6
  3 38  1  0
  3 39  1  0
  5 40  1  0
  8 41  1  0
  9 42  1  6
 10 43  1  1
 11 44  1  6
 12 45  1  6
 13 46  1  1
 14 47  1  1
 15 48  1  0
 15 49  1  0
 16 50  1  0
 16 51  1  0
 23 52  1  0
 24 53  1  0
 25 54  1  0
M  CHG  2  27  -1  29  -1
M  END
>  <filename_input>  (21) 
7UAW_MF6_docked.sdf

>  <pdb_id>  (21) 
7UAW_MF6

>  <pose_rank>  (21) 
20

>  <num_atoms_heavy>  (21) 
35

>  <num_torsions>  (21) 
1

>  <pose>  (21) 
[-17.37482077518654, 6.787466544993289, -20.11169917271421, -1.311680156438244, -1.0077337798400086, -0.7113256228274374, -1.4512100089177076]

>  <energy>  (21) 
-679.1772476609912

>  <inter_energy>  (21) 
-731.2263785309534

>  <intra_energy>  (21) 
45.293103167069404

>  <rmsd>  (21) 
5.23048

>  <sdf_rank>  (21) 
0

$$$$

     RDKit          3D

 54 58  0  0  0  0  0  0  0  0999 V2000
  -20.9136   10.6869  -17.4769 C   0  0  2  0  0  0  0  0  0  0  0  0
  -22.3338    8.2531  -13.5739 C   0  0  1  0  0  0  0  0  0  0  0  0
  -22.6385    5.7386  -13.6599 C   0  0  0  0  0  0  0  0  0  0  0  0
  -15.3315    6.9357  -14.3738 C   0  0  0  0  0  0  0  0  0  0  0  0
  -15.6806    7.9371  -12.2969 C   0  0  0  0  0  0  0  0  0  0  0  0
  -17.5411    7.5630  -13.6786 C   0  0  0  0  0  0  0  0  0  0  0  0
  -16.7328    6.9849  -14.6424 C   0  0  0  0  0  0  0  0  0  0  0  0
  -18.8038    6.9370  -15.3374 C   0  0  0  0  0  0  0  0  0  0  0  0
  -20.0103    8.0447  -13.4726 C   0  0  2  0  0  0  0  0  0  0  0  0
  -21.1106    8.4839  -14.3808 C   0  0  2  0  0  0  0  0  0  0  0  0
  -21.8583   10.5932  -15.3556 C   0  0  2  0  0  0  0  0  0  0  0  0
  -22.2348    9.9633  -17.5690 C   0  0  1  0  0  0  0  0  0  0  0  0
  -21.1827   11.5292  -16.3174 C   0  0  2  0  0  0  0  0  0  0  0  0
  -22.0643    6.9143  -12.9168 C   0  0  1  0  0  0  0  0  0  0  0  0
  -22.0794    8.6099  -18.1944 C   0  0  0  0  0  0  0  0  0  0  0  0
  -14.3505    6.3875  -15.2857 N   0  0  0  0  0  0  0  0  0  0  0  0
  -14.8665    7.4041  -13.2044 N   0  0  0  0  0  0  0  0  0  0  0  0
  -16.9607    7.9966  -12.5457 N   0  0  0  0  0  0  0  0  0  0  0  0
  -17.5482    6.6092  -15.6736 N   0  0  0  0  0  0  0  0  0  0  0  0
  -18.8255    7.5194  -14.1127 N   0  0  0  0  0  0  0  0  0  0  0  0
  -20.8611    9.8501  -14.7281 O   0  0  0  0  0  0  0  0  0  0  0  0
  -22.6387    9.7522  -16.2189 O   0  0  0  0  0  0  0  0  0  0  0  0
  -20.6347   11.3780  -18.7128 O   0  0  0  0  0  0  0  0  0  0  0  0
  -22.0730   12.6143  -16.6719 O   0  0  0  0  0  0  0  0  0  0  0  0
  -22.3599    9.2051  -12.5067 O   0  0  0  0  0  0  0  0  0  0  0  0
  -21.8893    5.6012  -14.8273 O   0  0  0  0  0  0  0  0  0  0  0  0
  -21.3156    4.3265  -17.0782 O   0  0  0  0  0  0  0  0  0  0  0  0
  -23.3257    6.0154  -16.9305 O   0  0  0  0  0  0  0  0  0  0  0  0
  -22.7210    5.7952  -19.5708 O   0  0  0  0  0  0  0  0  0  0  0  0
  -23.3822    8.0745  -18.4333 O   0  0  0  0  0  0  0  0  0  0  0  0
  -24.9736    6.0941  -18.7394 O   0  0  0  0  0  0  0  0  0  0  0  0
  -23.4128    3.8457  -15.8428 O   0  0  0  0  0  0  0  0  0  0  0  0
  -20.6142    6.8903  -12.8671 O   0  0  0  0  0  0  0  0  0  0  0  0
  -22.4059    4.8877  -16.1951 P   0  0  2  0  0  0  0  0  0  0  0  0
  -23.5365    6.4316  -18.4808 P   0  0  2  0  0  0  0  0  0  0  0  0
  -20.0042   10.0815  -17.3486 H   0  0  0  0  0  0  0  0  0  0  0  0
  -23.2565    8.3114  -14.1699 H   0  0  0  0  0  0  0  0  0  0  0  0
  -22.5593    4.8277  -13.0485 H   0  0  0  0  0  0  0  0  0  0  0  0
  -23.7033    5.8949  -13.8878 H   0  0  0  0  0  0  0  0  0  0  0  0
  -15.2797    8.3230  -11.3480 H   0  0  0  0  0  0  0  0  0  0  0  0
  -19.6896    6.7592  -15.9649 H   0  0  0  0  0  0  0  0  0  0  0  0
  -19.6809    8.8958  -12.8584 H   0  0  0  0  0  0  0  0  0  0  0  0
  -21.2021    7.9523  -15.3394 H   0  0  0  0  0  0  0  0  0  0  0  0
  -22.4682   11.0797  -14.5802 H   0  0  0  0  0  0  0  0  0  0  0  0
  -22.9452   10.5470  -18.1729 H   0  0  0  0  0  0  0  0  0  0  0  0
  -20.2752   11.9943  -15.9049 H   0  0  0  0  0  0  0  0  0  0  0  0
  -22.5484    6.8202  -11.9336 H   0  0  0  0  0  0  0  0  0  0  0  0
  -21.5340    8.6999  -19.1454 H   0  0  0  0  0  0  0  0  0  0  0  0
  -21.5132    7.9456  -17.5250 H   0  0  0  0  0  0  0  0  0  0  0  0
  -13.3533    6.3836  -15.0280 H   0  0  0  0  0  0  0  0  0  0  0  0
  -14.6495    6.0013  -16.1926 H   0  0  0  0  0  0  0  0  0  0  0  0
  -20.2718   12.2772  -18.5134 H   0  0  0  0  0  0  0  0  0  0  0  0
  -22.4209   13.0384  -15.8478 H   0  0  0  0  0  0  0  0  0  0  0  0
  -22.3468    8.7286  -11.6390 H   0  0  0  0  0  0  0  0  0  0  0  0
  1 12  1  0
  1 13  1  0
  1 23  1  0
  2 10  1  0
  2 14  1  0
  2 25  1  0
 14  3  1  0
  3 26  1  0
  4  7  2  0
  4 16  1  0
  4 17  1  0
  5 17  2  0
  5 18  1  0
  6  7  1  0
  6 18  2  0
  6 20  1  0
  7 19  1  0
  8 19  2  0
  8 20  1  0
  9 10  1  0
  9 20  1  0
  9 33  1  0
 10 21  1  0
 11 13  1  0
 11 21  1  0
 11 22  1  0
 12 15  1  0
 12 22  1  0
 13 24  1  0
 14 33  1  0
 15 30  1  0
 26 34  1  0
 34 27  1  6
 28 34  1  0
 28 35  1  0
 35 29  1  6
 30 35  1  0
 31 35  2  0
 32 34  2  0
  1 36  1  1
  2 37  1  6
  3 38  1  0
  3 39  1  0
  5 40  1  0
  8 41  1  0
  9 42  1  1
 10 43  1  6
 11 44  1  1
 12 45  1  6
 13 46  1  1
 14 47  1  1
 15 48  1  0
 15 49  1  0
 16 50  1  0
 16 51  1  0
 23 52  1  0
 24 53  1  0
 25 54  1  0
M  CHG  2  27  -1  29  -1
M  END
>  <filename_input>  (22) 
7UAW_MF6_docked.sdf

>  <pdb_id>  (22) 
7UAW_MF6

>  <pose_rank>  (22) 
21

>  <num_atoms_heavy>  (22) 
35

>  <num_torsions>  (22) 
1

>  <pose>  (22) 
[-20.9136185393046, 10.68691048165506, -17.476867104805798, -0.297894265740361, -0.2876819812853708, -0.03184097142220232, 2.717101345013717]

>  <energy>  (22) 
-724.1294561524634

>  <inter_energy>  (22) 
-721.9846331914536

>  <intra_energy>  (22) 
1.19071095811175

>  <rmsd>  (22) 
2.60926

>  <sdf_rank>  (22) 
0

$$$$

     RDKit          3D

 54 58  0  0  0  0  0  0  0  0999 V2000
  -23.6709    6.0844  -16.3679 C   0  0  2  0  0  0  0  0  0  0  0  0
  -19.4502    7.5091  -14.5433 C   0  0  1  0  0  0  0  0  0  0  0  0
  -18.7318    9.9349  -14.6919 C   0  0  0  0  0  0  0  0  0  0  0  0
  -23.8848   10.7360  -10.0454 C   0  0  0  0  0  0  0  0  0  0  0  0
  -21.7890   10.3594   -9.0946 C   0  0  0  0  0  0  0  0  0  0  0  0
  -22.2394    9.4257  -11.2007 C   0  0  0  0  0  0  0  0  0  0  0  0
  -23.5054    9.9857  -11.1992 C   0  0  0  0  0  0  0  0  0  0  0  0
  -23.2214    8.8889  -13.0676 C   0  0  0  0  0  0  0  0  0  0  0  0
  -20.9298    7.9747  -12.7979 C   0  0  2  0  0  0  0  0  0  0  0  0
  -20.9000    7.5927  -14.2407 C   0  0  2  0  0  0  0  0  0  0  0  0
  -21.5360    5.6421  -15.5633 C   0  0  2  0  0  0  0  0  0  0  0  0
  -22.6631    6.6456  -17.3410 C   0  0  1  0  0  0  0  0  0  0  0  0
  -22.8758    5.0036  -15.7970 C   0  0  2  0  0  0  0  0  0  0  0  0
  -18.8792    8.7146  -13.8240 C   0  0  1  0  0  0  0  0  0  0  0  0
  -22.8958    8.1045  -17.5953 C   0  0  0  0  0  0  0  0  0  0  0  0
  -25.1778   11.3639   -9.8764 N   0  0  0  0  0  0  0  0  0  0  0  0
  -23.0035   10.9010   -9.0459 N   0  0  0  0  0  0  0  0  0  0  0  0
  -21.4444    9.6606  -10.1419 N   0  0  0  0  0  0  0  0  0  0  0  0
  -24.1014    9.6271  -12.3764 N   0  0  0  0  0  0  0  0  0  0  0  0
  -22.0672    8.7562  -12.3679 N   0  0  0  0  0  0  0  0  0  0  0  0
  -21.6201    6.3626  -14.3741 O   0  0  0  0  0  0  0  0  0  0  0  0
  -21.4056    6.5355  -16.6798 O   0  0  0  0  0  0  0  0  0  0  0  0
  -24.8721    5.6899  -17.0640 O   0  0  0  0  0  0  0  0  0  0  0  0
  -22.7541    3.9096  -16.7373 O   0  0  0  0  0  0  0  0  0  0  0  0
  -18.9106    6.3693  -13.8682 O   0  0  0  0  0  0  0  0  0  0  0  0
  -20.0216   10.3902  -14.9607 O   0  0  0  0  0  0  0  0  0  0  0  0
  -21.6819   12.1440  -16.0508 O   0  0  0  0  0  0  0  0  0  0  0  0
  -20.5803   10.2272  -17.4746 O   0  0  0  0  0  0  0  0  0  0  0  0
  -22.7690   11.0359  -18.8677 O   0  0  0  0  0  0  0  0  0  0  0  0
  -22.0444    8.5138  -18.6671 O   0  0  0  0  0  0  0  0  0  0  0  0
  -20.7146   10.3069  -19.9178 O   0  0  0  0  0  0  0  0  0  0  0  0
  -19.2791   12.1127  -16.6682 O   0  0  0  0  0  0  0  0  0  0  0  0
  -19.8358    8.9047  -12.7496 O   0  0  0  0  0  0  0  0  0  0  0  0
  -20.4498   11.2911  -16.2459 P   0  0  2  0  0  0  0  0  0  0  0  0
  -21.5999   10.1026  -18.7260 P   0  0  2  0  0  0  0  0  0  0  0  0
  -24.0704    6.7587  -15.5961 H   0  0  0  0  0  0  0  0  0  0  0  0
  -19.2408    7.4577  -15.6219 H   0  0  0  0  0  0  0  0  0  0  0  0
  -18.1583   10.7101  -14.1626 H   0  0  0  0  0  0  0  0  0  0  0  0
  -18.1928    9.6983  -15.6211 H   0  0  0  0  0  0  0  0  0  0  0  0
  -21.0838   10.4988   -8.2620 H   0  0  0  0  0  0  0  0  0  0  0  0
  -23.4087    8.4533  -14.0601 H   0  0  0  0  0  0  0  0  0  0  0  0
  -20.9245    7.0658  -12.1784 H   0  0  0  0  0  0  0  0  0  0  0  0
  -21.3789    8.2878  -14.9461 H   0  0  0  0  0  0  0  0  0  0  0  0
  -20.6914    4.9416  -15.4855 H   0  0  0  0  0  0  0  0  0  0  0  0
  -22.7238    6.1105  -18.3002 H   0  0  0  0  0  0  0  0  0  0  0  0
  -23.3198    4.5803  -14.8840 H   0  0  0  0  0  0  0  0  0  0  0  0
  -17.8463    8.5533  -13.4815 H   0  0  0  0  0  0  0  0  0  0  0  0
  -23.9475    8.2709  -17.8712 H   0  0  0  0  0  0  0  0  0  0  0  0
  -22.6725    8.6876  -16.6897 H   0  0  0  0  0  0  0  0  0  0  0  0
  -25.3855   11.8917   -9.0166 H   0  0  0  0  0  0  0  0  0  0  0  0
  -25.8902   11.2830  -10.6158 H   0  0  0  0  0  0  0  0  0  0  0  0
  -25.5744    5.4593  -16.4054 H   0  0  0  0  0  0  0  0  0  0  0  0
  -22.6593    3.0577  -16.2419 H   0  0  0  0  0  0  0  0  0  0  0  0
  -18.9746    6.5045  -12.8896 H   0  0  0  0  0  0  0  0  0  0  0  0
  1 12  1  0
  1 13  1  0
  1 23  1  0
  2 10  1  0
  2 14  1  0
  2 25  1  0
 14  3  1  0
  3 26  1  0
  4  7  2  0
  4 16  1  0
  4 17  1  0
  5 17  2  0
  5 18  1  0
  6  7  1  0
  6 18  2  0
  6 20  1  0
  7 19  1  0
  8 19  2  0
  8 20  1  0
  9 10  1  0
  9 20  1  0
  9 33  1  0
 10 21  1  0
 11 13  1  0
 11 21  1  0
 11 22  1  0
 12 15  1  0
 12 22  1  0
 13 24  1  0
 14 33  1  0
 15 30  1  0
 26 34  1  0
 34 27  1  1
 28 34  1  0
 28 35  1  0
 35 29  1  1
 30 35  1  0
 31 35  2  0
 32 34  2  0
  1 36  1  1
  2 37  1  6
  3 38  1  0
  3 39  1  0
  5 40  1  0
  8 41  1  0
  9 42  1  1
 10 43  1  6
 11 44  1  1
 12 45  1  6
 13 46  1  1
 14 47  1  1
 15 48  1  0
 15 49  1  0
 16 50  1  0
 16 51  1  0
 23 52  1  0
 24 53  1  0
 25 54  1  0
M  CHG  2  27  -1  29  -1
M  END
>  <filename_input>  (23) 
7UAW_MF6_docked.sdf

>  <pdb_id>  (23) 
7UAW_MF6

>  <pose_rank>  (23) 
22

>  <num_atoms_heavy>  (23) 
35

>  <num_torsions>  (23) 
1

>  <pose>  (23) 
[-23.670905473566716, 6.084399105267896, -16.367915435351357, 1.4143596495834307, -0.6000479084377947, 2.378418723029968, -15.391536178957816]

>  <energy>  (23) 
-520.2050215038477

>  <inter_energy>  (23) 
-521.2736959102305

>  <intra_energy>  (23) 
6.941190475478164

>  <rmsd>  (23) 
6.75008

>  <sdf_rank>  (23) 
0

$$$$

     RDKit          3D

 54 58  0  0  0  0  0  0  0  0999 V2000
  -20.7896    4.4940  -20.4369 C   0  0  2  0  0  0  0  0  0  0  0  0
  -19.2949    9.0320  -19.8483 C   0  0  1  0  0  0  0  0  0  0  0  0
  -20.4725   10.5790  -18.2226 C   0  0  0  0  0  0  0  0  0  0  0  0
  -20.2297    5.4757  -14.3918 C   0  0  0  0  0  0  0  0  0  0  0  0
  -21.7347    6.0450  -16.0797 C   0  0  0  0  0  0  0  0  0  0  0  0
  -19.4851    6.6630  -16.3399 C   0  0  0  0  0  0  0  0  0  0  0  0
  -19.1628    6.0699  -15.1313 C   0  0  0  0  0  0  0  0  0  0  0  0
  -17.3466    6.9049  -16.0138 C   0  0  0  0  0  0  0  0  0  0  0  0
  -18.1994    7.9178  -18.1130 C   0  0  2  0  0  0  0  0  0  0  0  0
  -19.2704    7.7309  -19.1361 C   0  0  2  0  0  0  0  0  0  0  0  0
  -19.5866    6.3579  -21.1294 C   0  0  2  0  0  0  0  0  0  0  0  0
  -21.7634    5.5853  -20.8091 C   0  0  1  0  0  0  0  0  0  0  0  0
  -19.6724    4.8672  -21.2964 C   0  0  2  0  0  0  0  0  0  0  0  0
  -19.1603   10.0408  -18.7254 C   0  0  1  0  0  0  0  0  0  0  0  0
  -22.7065    5.8894  -19.6843 C   0  0  0  0  0  0  0  0  0  0  0  0
  -20.0654    4.8379  -13.1031 N   0  0  0  0  0  0  0  0  0  0  0  0
  -21.4704    5.4783  -14.9051 N   0  0  0  0  0  0  0  0  0  0  0  0
  -20.7638    6.6019  -16.7514 N   0  0  0  0  0  0  0  0  0  0  0  0
  -17.8189    6.2431  -14.9479 N   0  0  0  0  0  0  0  0  0  0  0  0
  -18.3511    7.1689  -16.8860 N   0  0  0  0  0  0  0  0  0  0  0  0
  -18.9038    6.6049  -19.9406 O   0  0  0  0  0  0  0  0  0  0  0  0
  -20.9628    6.7479  -21.0046 O   0  0  0  0  0  0  0  0  0  0  0  0
  -21.3741    3.1974  -20.6822 O   0  0  0  0  0  0  0  0  0  0  0  0
  -19.9567    4.5315  -22.6756 O   0  0  0  0  0  0  0  0  0  0  0  0
  -18.0942    9.1515  -20.6164 O   0  0  0  0  0  0  0  0  0  0  0  0
  -21.0991    9.5329  -17.5472 O   0  0  0  0  0  0  0  0  0  0  0  0
  -23.1054    8.5749  -16.1059 O   0  0  0  0  0  0  0  0  0  0  0  0
  -23.2868    8.8238  -18.7173 O   0  0  0  0  0  0  0  0  0  0  0  0
  -25.1826    7.0133  -18.0010 O   0  0  0  0  0  0  0  0  0  0  0  0
  -23.7157    6.7747  -20.1730 O   0  0  0  0  0  0  0  0  0  0  0  0
  -25.4694    8.6014  -19.8039 O   0  0  0  0  0  0  0  0  0  0  0  0
  -23.2976   10.7644  -17.2571 O   0  0  0  0  0  0  0  0  0  0  0  0
  -18.4467    9.2770  -17.7189 O   0  0  0  0  0  0  0  0  0  0  0  0
  -22.7026    9.3979  -17.3075 P   0  0  2  0  0  0  0  0  0  0  0  0
  -24.4572    7.7658  -19.0806 P   0  0  2  0  0  0  0  0  0  0  0  0
  -20.4917    4.4094  -19.3814 H   0  0  0  0  0  0  0  0  0  0  0  0
  -20.1805    9.1518  -20.4895 H   0  0  0  0  0  0  0  0  0  0  0  0
  -20.2996   11.4229  -17.5386 H   0  0  0  0  0  0  0  0  0  0  0  0
  -21.0952   10.9451  -19.0522 H   0  0  0  0  0  0  0  0  0  0  0  0
  -22.7593    6.0443  -16.4799 H   0  0  0  0  0  0  0  0  0  0  0  0
  -16.2951    7.1926  -16.1600 H   0  0  0  0  0  0  0  0  0  0  0  0
  -17.2297    7.6224  -18.5401 H   0  0  0  0  0  0  0  0  0  0  0  0
  -20.2789    7.5036  -18.7601 H   0  0  0  0  0  0  0  0  0  0  0  0
  -19.0715    6.8906  -21.9424 H   0  0  0  0  0  0  0  0  0  0  0  0
  -22.3534    5.2835  -21.6870 H   0  0  0  0  0  0  0  0  0  0  0  0
  -18.7386    4.3472  -21.0364 H   0  0  0  0  0  0  0  0  0  0  0  0
  -18.6440   10.9593  -19.0411 H   0  0  0  0  0  0  0  0  0  0  0  0
  -23.1700    4.9586  -19.3254 H   0  0  0  0  0  0  0  0  0  0  0  0
  -22.1633    6.3571  -18.8499 H   0  0  0  0  0  0  0  0  0  0  0  0
  -20.8799    4.4285  -12.6235 H   0  0  0  0  0  0  0  0  0  0  0  0
  -19.1341    4.7934  -12.6654 H   0  0  0  0  0  0  0  0  0  0  0  0
  -21.5729    2.7563  -19.8185 H   0  0  0  0  0  0  0  0  0  0  0  0
  -20.5961    3.7763  -22.7064 H   0  0  0  0  0  0  0  0  0  0  0  0
  -17.3184    9.2288  -20.0063 H   0  0  0  0  0  0  0  0  0  0  0  0
  1 12  1  0
  1 13  1  0
  1 23  1  0
  2 10  1  0
  2 14  1  0
  2 25  1  0
 14  3  1  0
  3 26  1  0
  4  7  2  0
  4 16  1  0
  4 17  1  0
  5 17  2  0
  5 18  1  0
  6  7  1  0
  6 18  2  0
  6 20  1  0
  7 19  1  0
  8 19  2  0
  8 20  1  0
  9 10  1  0
  9 20  1  0
  9 33  1  0
 10 21  1  0
 11 13  1  0
 11 21  1  0
 11 22  1  0
 12 15  1  0
 12 22  1  0
 13 24  1  0
 14 33  1  0
 15 30  1  0
 26 34  1  0
 34 27  1  1
 28 34  1  0
 28 35  1  0
 35 29  1  1
 30 35  1  0
 31 35  2  0
 32 34  2  0
  1 36  1  1
  2 37  1  6
  3 38  1  0
  3 39  1  0
  5 40  1  0
  8 41  1  0
  9 42  1  6
 10 43  1  1
 11 44  1  6
 12 45  1  6
 13 46  1  1
 14 47  1  6
 15 48  1  0
 15 49  1  0
 16 50  1  0
 16 51  1  0
 23 52  1  0
 24 53  1  0
 25 54  1  0
M  CHG  2  27  -1  29  -1
M  END
>  <filename_input>  (24) 
7UAW_MF6_docked.sdf

>  <pdb_id>  (24) 
7UAW_MF6

>  <pose_rank>  (24) 
23

>  <num_atoms_heavy>  (24) 
35

>  <num_torsions>  (24) 
1

>  <pose>  (24) 
[-20.789625111307668, 4.494027845355935, -20.436933597207194, 3.4802021611414644, -0.23232097162740462, 1.6167165601079971, -0.30552621599161683]

>  <energy>  (24) 
-614.2323334355539

>  <inter_energy>  (24) 
-663.4397180036323

>  <intra_energy>  (24) 
48.70441142459197

>  <rmsd>  (24) 
5.59033

>  <sdf_rank>  (24) 
0

$$$$

     RDKit          3D

 54 58  0  0  0  0  0  0  0  0999 V2000
  -17.7450    7.9473  -20.0237 C   0  0  2  0  0  0  0  0  0  0  0  0
  -21.4840    5.2828  -18.5765 C   0  0  1  0  0  0  0  0  0  0  0  0
  -23.8483    6.1813  -18.7350 C   0  0  0  0  0  0  0  0  0  0  0  0
  -20.2875    6.5548  -25.3101 C   0  0  0  0  0  0  0  0  0  0  0  0
  -18.4661    5.6816  -24.1446 C   0  0  0  0  0  0  0  0  0  0  0  0
  -20.5740    5.6335  -23.1127 C   0  0  0  0  0  0  0  0  0  0  0  0
  -21.1532    6.2181  -24.2259 C   0  0  0  0  0  0  0  0  0  0  0  0
  -22.7080    5.8411  -22.7377 C   0  0  0  0  0  0  0  0  0  0  0  0
  -21.4161    4.8423  -20.8686 C   0  0  2  0  0  0  0  0  0  0  0  0
  -20.8474    5.7529  -19.8312 C   0  0  2  0  0  0  0  0  0  0  0  0
  -18.6486    6.1560  -18.8509 C   0  0  2  0  0  0  0  0  0  0  0  0
  -18.5605    8.4861  -18.8738 C   0  0  1  0  0  0  0  0  0  0  0  0
  -17.3710    6.6530  -19.4658 C   0  0  2  0  0  0  0  0  0  0  0  0
  -22.9182    5.0271  -18.9937 C   0  0  1  0  0  0  0  0  0  0  0  0
  -19.6026    9.4557  -19.3439 C   0  0  0  0  0  0  0  0  0  0  0  0
  -20.7296    7.1914  -26.5323 N   0  0  0  0  0  0  0  0  0  0  0  0
  -18.9801    6.2600  -25.2271 N   0  0  0  0  0  0  0  0  0  0  0  0
  -19.2527    5.3858  -23.1458 N   0  0  0  0  0  0  0  0  0  0  0  0
  -22.4887    6.3439  -23.9608 N   0  0  0  0  0  0  0  0  0  0  0  0
  -21.5470    5.3928  -22.1987 N   0  0  0  0  0  0  0  0  0  0  0  0
  -19.4229    5.6188  -19.8768 O   0  0  0  0  0  0  0  0  0  0  0  0
  -19.2523    7.3573  -18.3467 O   0  0  0  0  0  0  0  0  0  0  0  0
  -16.6574    8.8453  -20.3294 O   0  0  0  0  0  0  0  0  0  0  0  0
  -16.3525    6.8119  -18.4494 O   0  0  0  0  0  0  0  0  0  0  0  0
  -20.9460    3.9988  -18.2480 O   0  0  0  0  0  0  0  0  0  0  0  0
  -23.4988    7.1842  -19.6377 O   0  0  0  0  0  0  0  0  0  0  0  0
  -23.8808    9.5782  -20.7070 O   0  0  0  0  0  0  0  0  0  0  0  0
  -22.6045    9.2803  -18.4274 O   0  0  0  0  0  0  0  0  0  0  0  0
  -21.8679   11.7128  -19.3894 O   0  0  0  0  0  0  0  0  0  0  0  0
  -20.1915   10.0714  -18.1971 O   0  0  0  0  0  0  0  0  0  0  0  0
  -22.1477   11.2401  -17.0329 O   0  0  0  0  0  0  0  0  0  0  0  0
  -25.0033    8.9368  -18.5894 O   0  0  0  0  0  0  0  0  0  0  0  0
  -22.7722    4.7326  -20.4071 O   0  0  0  0  0  0  0  0  0  0  0  0
  -23.7840    8.7727  -19.4322 P   0  0  2  0  0  0  0  0  0  0  0  0
  -21.7335   10.6424  -18.3433 P   0  0  2  0  0  0  0  0  0  0  0  0
  -18.2379    7.8511  -21.0024 H   0  0  0  0  0  0  0  0  0  0  0  0
  -21.3516    5.9855  -17.7406 H   0  0  0  0  0  0  0  0  0  0  0  0
  -24.8915    5.8718  -18.8965 H   0  0  0  0  0  0  0  0  0  0  0  0
  -23.7630    6.5346  -17.6967 H   0  0  0  0  0  0  0  0  0  0  0  0
  -17.3909    5.4555  -24.0921 H   0  0  0  0  0  0  0  0  0  0  0  0
  -23.6891    5.7982  -22.2421 H   0  0  0  0  0  0  0  0  0  0  0  0
  -20.7789    3.9506  -20.9621 H   0  0  0  0  0  0  0  0  0  0  0  0
  -21.0425    6.8281  -19.9568 H   0  0  0  0  0  0  0  0  0  0  0  0
  -18.5251    5.3894  -18.0717 H   0  0  0  0  0  0  0  0  0  0  0  0
  -17.9067    8.9991  -18.1532 H   0  0  0  0  0  0  0  0  0  0  0  0
  -16.9553    5.9658  -20.2173 H   0  0  0  0  0  0  0  0  0  0  0  0
  -23.3904    4.2203  -18.4139 H   0  0  0  0  0  0  0  0  0  0  0  0
  -19.1370   10.2228  -19.9802 H   0  0  0  0  0  0  0  0  0  0  0  0
  -20.3718    8.9312  -19.9298 H   0  0  0  0  0  0  0  0  0  0  0  0
  -20.0501    7.4067  -27.2758 H   0  0  0  0  0  0  0  0  0  0  0  0
  -21.7238    7.4293  -26.6586 H   0  0  0  0  0  0  0  0  0  0  0  0
  -16.2562    9.1765  -19.4871 H   0  0  0  0  0  0  0  0  0  0  0  0
  -16.7678    6.7471  -17.5531 H   0  0  0  0  0  0  0  0  0  0  0  0
  -20.9047    3.9003  -17.2637 H   0  0  0  0  0  0  0  0  0  0  0  0
  1 12  1  0
  1 13  1  0
  1 23  1  0
  2 10  1  0
  2 14  1  0
  2 25  1  0
 14  3  1  0
  3 26  1  0
  4  7  2  0
  4 16  1  0
  4 17  1  0
  5 17  2  0
  5 18  1  0
  6  7  1  0
  6 18  2  0
  6 20  1  0
  7 19  1  0
  8 19  2  0
  8 20  1  0
  9 10  1  0
  9 20  1  0
  9 33  1  0
 10 21  1  0
 11 13  1  0
 11 21  1  0
 11 22  1  0
 12 15  1  0
 12 22  1  0
 13 24  1  0
 14 33  1  0
 15 30  1  0
 26 34  1  0
 34 27  1  6
 28 34  1  0
 28 35  1  0
 35 29  1  6
 30 35  1  0
 31 35  2  0
 32 34  2  0
  1 36  1  6
  2 37  1  1
  3 38  1  0
  3 39  1  0
  5 40  1  0
  8 41  1  0
  9 42  1  6
 10 43  1  6
 11 44  1  1
 12 45  1  1
 13 46  1  6
 14 47  1  1
 15 48  1  0
 15 49  1  0
 16 50  1  0
 16 51  1  0
 23 52  1  0
 24 53  1  0
 25 54  1  0
M  CHG  2  27  -1  29  -1
M  END
>  <filename_input>  (25) 
7UAW_MF6_docked.sdf

>  <pdb_id>  (25) 
7UAW_MF6

>  <pose_rank>  (25) 
24

>  <num_atoms_heavy>  (25) 
35

>  <num_torsions>  (25) 
1

>  <pose>  (25) 
[-17.74503325664291, 7.947313271537982, -20.023724350601604, -2.214366405147095, -1.9328776683682323, 3.3115505506175533, 1.3979213267874964]

>  <energy>  (25) 
-484.9748236435793

>  <inter_energy>  (25) 
-481.3476714740814

>  <intra_energy>  (25) 
2.7587150220799086

>  <rmsd>  (25) 
6.3269

>  <sdf_rank>  (25) 
0

$$$$

     RDKit          3D

 54 58  0  0  0  0  0  0  0  0999 V2000
  -21.0350   10.9420  -16.9980 C   0  0  2  0  0  0  0  0  0  0  0  0
  -21.3150    7.4000  -13.7500 C   0  0  1  0  0  0  0  0  0  0  0  0
  -21.6600    4.9990  -14.4840 C   0  0  0  0  0  0  0  0  0  0  0  0
  -17.1130    6.9560  -18.8280 C   0  0  0  0  0  0  0  0  0  0  0  0
  -19.2750    7.8300  -18.8130 C   0  0  0  0  0  0  0  0  0  0  0  0
  -18.2890    7.2650  -16.7590 C   0  0  0  0  0  0  0  0  0  0  0  0
  -17.1290    6.8700  -17.4030 C   0  0  0  0  0  0  0  0  0  0  0  0
  -16.8650    6.6070  -15.2500 C   0  0  0  0  0  0  0  0  0  0  0  0
  -19.0610    7.3420  -14.3570 C   0  0  2  0  0  0  0  0  0  0  0  0
  -20.3690    7.9400  -14.7570 C   0  0  2  0  0  0  0  0  0  0  0  0
  -21.3390   10.1790  -14.8240 C   0  0  2  0  0  0  0  0  0  0  0  0
  -22.3360   10.1800  -16.9320 C   0  0  1  0  0  0  0  0  0  0  0  0
  -20.9540   11.3970  -15.6150 C   0  0  2  0  0  0  0  0  0  0  0  0
  -20.8850    5.9530  -13.6160 C   0  0  1  0  0  0  0  0  0  0  0  0
  -22.3800    9.0760  -17.9450 C   0  0  0  0  0  0  0  0  0  0  0  0
  -15.9900    6.5610  -19.6510 N   0  0  0  0  0  0  0  0  0  0  0  0
  -18.1850    7.4450  -19.4720 N   0  0  0  0  0  0  0  0  0  0  0  0
  -19.2980    7.7390  -17.5110 N   0  0  0  0  0  0  0  0  0  0  0  0
  -16.2570    6.4550  -16.4350 N   0  0  0  0  0  0  0  0  0  0  0  0
  -18.1130    7.1090  -15.4230 N   0  0  0  0  0  0  0  0  0  0  0  0
  -20.2130    9.3630  -14.7420 O   0  0  0  0  0  0  0  0  0  0  0  0
  -22.3420    9.5640  -15.6470 O   0  0  0  0  0  0  0  0  0  0  0  0
  -21.1110   11.9750  -18.0030 O   0  0  0  0  0  0  0  0  0  0  0  0
  -21.8960   12.4700  -15.3760 O   0  0  0  0  0  0  0  0  0  0  0  0
  -21.0260    8.0040  -12.4860 O   0  0  0  0  0  0  0  0  0  0  0  0
  -21.2750    5.2550  -15.7990 O   0  0  0  0  0  0  0  0  0  0  0  0
  -21.3790    4.7200  -18.3920 O   0  0  0  0  0  0  0  0  0  0  0  0
  -23.2450    6.1450  -17.2080 O   0  0  0  0  0  0  0  0  0  0  0  0
  -23.4180    6.7310  -19.8560 O   0  0  0  0  0  0  0  0  0  0  0  0
  -23.7030    8.5370  -17.9630 O   0  0  0  0  0  0  0  0  0  0  0  0
  -25.3380    6.6150  -18.3880 O   0  0  0  0  0  0  0  0  0  0  0  0
  -23.0440    3.7550  -16.8260 O   0  0  0  0  0  0  0  0  0  0  0  0
  -19.4810    6.0220  -13.9760 O   0  0  0  0  0  0  0  0  0  0  0  0
  -22.1670    4.9250  -17.1190 P   0  0  2  0  0  0  0  0  0  0  0  0
  -23.8830    6.9690  -18.4470 P   0  0  2  0  0  0  0  0  0  0  0  0
  -20.1335   10.3934  -17.3084 H   0  0  0  0  0  0  0  0  0  0  0  0
  -22.3683    7.5580  -14.0249 H   0  0  0  0  0  0  0  0  0  0  0  0
  -21.4206    3.9599  -14.2138 H   0  0  0  0  0  0  0  0  0  0  0  0
  -22.7438    5.1354  -14.3541 H   0  0  0  0  0  0  0  0  0  0  0  0
  -20.1465    8.2204  -19.3590 H   0  0  0  0  0  0  0  0  0  0  0  0
  -16.4160    6.3600  -14.2767 H   0  0  0  0  0  0  0  0  0  0  0  0
  -18.5610    8.0045  -13.6352 H   0  0  0  0  0  0  0  0  0  0  0  0
  -20.7351    7.6983  -15.7657 H   0  0  0  0  0  0  0  0  0  0  0  0
  -21.6979   10.3785  -13.8035 H   0  0  0  0  0  0  0  0  0  0  0  0
  -23.1820   10.8579  -17.1181 H   0  0  0  0  0  0  0  0  0  0  0  0
  -19.9615   11.7904  -15.3501 H   0  0  0  0  0  0  0  0  0  0  0  0
  -21.0708    5.5475  -12.6105 H   0  0  0  0  0  0  0  0  0  0  0  0
  -22.1264    9.4728  -18.9391 H   0  0  0  0  0  0  0  0  0  0  0  0
  -21.6545    8.2918  -17.6830 H   0  0  0  0  0  0  0  0  0  0  0  0
  -16.0460    6.6498  -20.6756 H   0  0  0  0  0  0  0  0  0  0  0  0
  -15.1348    6.1911  -19.2121 H   0  0  0  0  0  0  0  0  0  0  0  0
  -21.1761   12.8594  -17.5629 H   0  0  0  0  0  0  0  0  0  0  0  0
  -22.0091   12.5988  -14.4009 H   0  0  0  0  0  0  0  0  0  0  0  0
  -21.3153    7.3993  -11.7575 H   0  0  0  0  0  0  0  0  0  0  0  0
  1 12  1  0
  1 13  1  0
  1 23  1  0
  2 10  1  0
  2 14  1  0
  2 25  1  0
 14  3  1  0
  3 26  1  0
  4  7  2  0
  4 16  1  0
  4 17  1  0
  5 17  2  0
  5 18  1  0
  6  7  1  0
  6 18  2  0
  6 20  1  0
  7 19  1  0
  8 19  2  0
  8 20  1  0
  9 10  1  0
  9 20  1  0
  9 33  1  0
 10 21  1  0
 11 13  1  0
 11 21  1  0
 11 22  1  0
 12 15  1  0
 12 22  1  0
 13 24  1  0
 14 33  1  0
 15 30  1  0
 26 34  1  0
 34 27  1  6
 28 34  1  0
 28 35  1  0
 35 29  1  6
 30 35  1  0
 31 35  2  0
 32 34  2  0
  1 36  1  6
  2 37  1  6
  3 38  1  0
  3 39  1  0
  5 40  1  0
  8 41  1  0
  9 42  1  1
 10 43  1  6
 11 44  1  1
 12 45  1  1
 13 46  1  1
 14 47  1  1
 15 48  1  0
 15 49  1  0
 16 50  1  0
 16 51  1  0
 23 52  1  0
 24 53  1  0
 25 54  1  0
M  CHG  2  27  -1  29  -1
M  END
>  <filename_input>  (26) 
7UAW_MF6_docked.sdf

>  <pdb_id>  (26) 
7UAW_MF6

>  <pose_rank>  (26) 
25

>  <num_atoms_heavy>  (26) 
35

>  <num_torsions>  (26) 
1

>  <pose>  (26) 
[-21.035, 10.942, -16.998, 1e-06, 1e-06, 1e-06, 0.0]

>  <energy>  (26) 
-914.9018315181021

>  <inter_energy>  (26) 
-944.389367564104

>  <intra_energy>  (26) 
23.993780961921242

>  <rmsd>  (26) 
0.0

>  <sdf_rank>  (26) 
0

$$$$
