
     RDKit          3D

 92 96  0  0  0  0  0  0  0  0999 V2000
  -23.7785    5.5946   24.7516 C   0  0  0  0  0  0  0  0  0  0  0  0
  -22.6636    4.5869   24.5801 C   0  0  2  0  0  0  0  0  0  0  0  0
  -21.8821    4.7624   23.3034 C   0  0  0  0  0  0  0  0  0  0  0  0
  -23.1928    3.2217   24.6913 N   0  0  0  0  0  0  0  0  0  0  0  0
  -24.0317    2.7856   23.5652 C   0  0  0  0  0  0  0  0  0  0  0  0
  -25.4786    3.1480   23.7230 C   0  0  0  0  0  0  0  0  0  0  0  0
  -23.0094    2.4399   25.7706 C   0  0  0  0  0  0  0  0  0  0  0  0
  -23.6294    1.3898   25.8651 O   0  0  0  0  0  0  0  0  0  0  0  0
  -22.0405    2.7846   26.8900 C   0  0  0  0  0  0  0  0  0  0  0  0
  -22.3980    3.5943   27.9693 C   0  0  0  0  0  0  0  0  0  0  0  0
  -21.4779    3.8022   28.9669 C   0  0  0  0  0  0  0  0  0  0  0  0
  -21.8157    4.5775   30.0199 F   0  0  0  0  0  0  0  0  0  0  0  0
  -20.2096    3.2710   28.9661 C   0  0  0  0  0  0  0  0  0  0  0  0
  -19.8458    2.4899   27.8862 C   0  0  0  0  0  0  0  0  0  0  0  0
  -20.7331    2.2934   26.8504 C   0  0  0  0  0  0  0  0  0  0  0  0
  -20.3672    1.4695   25.7968 O   0  0  0  0  0  0  0  0  0  0  0  0
  -19.7548    1.9427   24.6853 C   0  0  0  0  0  0  0  0  0  0  0  0
  -19.2589    3.2219   24.6997 C   0  0  0  0  0  0  0  0  0  0  0  0
  -18.6580    3.7144   23.6353 N   0  0  0  0  0  0  0  0  0  0  0  0
  -18.6043    2.9460   22.5415 C   0  0  0  0  0  0  0  0  0  0  0  0
  -19.0145    1.6750   22.4715 N   0  0  0  0  0  0  0  0  0  0  0  0
  -19.6270    1.1738   23.5354 C   0  0  0  0  0  0  0  0  0  0  0  0
  -20.0375   -0.1194   23.5107 N   0  0  0  0  0  0  0  0  0  0  0  0
  -19.8658   -1.1105   22.4618 C   0  0  0  0  0  0  0  0  0  0  0  0
  -20.5658   -0.9517   24.5853 C   0  0  0  0  0  0  0  0  0  0  0  0
  -20.3355   -2.1486   23.5708 C   0  0  2  0  0  0  0  0  0  0  0  0
  -19.2726   -3.1781   23.9521 C   0  0  0  0  0  0  0  0  0  0  0  0
  -19.0609   -4.1756   22.8363 C   0  0  0  0  0  0  0  0  0  0  0  0
  -21.6203   -2.8909   23.2134 C   0  0  0  0  0  0  0  0  0  0  0  0
  -21.4148   -3.8905   22.1023 C   0  0  0  0  0  0  0  0  0  0  0  0
  -20.3381   -4.8730   22.4456 N   0  0  1  0  0  0  0  0  0  0  0  0
  -20.1114   -5.7539   21.2557 C   0  0  0  0  0  0  0  0  0  0  0  0
  -19.2328   -6.9709   21.5475 C   0  0  1  0  0  0  0  0  0  0  0  0
  -19.6298   -7.6949   22.8422 C   0  0  0  0  0  0  0  0  0  0  0  0
  -18.7761   -8.9224   23.1131 C   0  0  0  0  0  0  0  0  0  0  0  0
  -19.2113   -7.9350   20.3634 C   0  0  0  0  0  0  0  0  0  0  0  0
  -18.3055   -9.1247   20.6459 C   0  0  0  0  0  0  0  0  0  0  0  0
  -18.7427   -9.8430   21.9123 C   0  0  1  0  0  0  0  0  0  0  0  0
  -17.8297  -10.9733   22.1559 N   0  0  0  0  0  0  0  0  0  0  0  0
  -18.1793  -12.5080   21.7288 S   0  0  1  0  0  0  0  0  0  0  0  0
  -19.2375  -12.3886   20.7717 O   0  0  0  0  0  0  0  0  0  0  0  0
  -16.9426  -13.1214   21.3352 O   0  0  0  0  0  0  0  0  0  0  0  0
  -18.8000  -13.2958   23.2051 C   0  0  0  0  0  0  0  0  0  0  0  0
  -19.1674  -14.7507   22.9943 C   0  0  0  0  0  0  0  0  0  0  0  0
  -23.9615    5.7600   25.8235 H   0  0  0  0  0  0  0  0  0  0  0  0
  -23.4901    6.5446   24.2779 H   0  0  0  0  0  0  0  0  0  0  0  0
  -24.6946    5.2120   24.2779 H   0  0  0  0  0  0  0  0  0  0  0  0
  -21.9469    4.7688   25.3945 H   0  0  0  0  0  0  0  0  0  0  0  0
  -20.8349    4.9977   23.5439 H   0  0  0  0  0  0  0  0  0  0  0  0
  -21.9238    3.8326   22.7172 H   0  0  0  0  0  0  0  0  0  0  0  0
  -22.3175    5.5852   22.7172 H   0  0  0  0  0  0  0  0  0  0  0  0
  -23.6529    3.2562   22.6459 H   0  0  0  0  0  0  0  0  0  0  0  0
  -23.9751    1.6878   23.5251 H   0  0  0  0  0  0  0  0  0  0  0  0
  -25.7264    3.2101   24.7929 H   0  0  0  0  0  0  0  0  0  0  0  0
  -25.6670    4.1211   23.2459 H   0  0  0  0  0  0  0  0  0  0  0  0
  -26.1034    2.3786   23.2459 H   0  0  0  0  0  0  0  0  0  0  0  0
  -23.3953    4.0558   28.0196 H   0  0  0  0  0  0  0  0  0  0  0  0
  -19.5109    3.4608   29.7943 H   0  0  0  0  0  0  0  0  0  0  0  0
  -18.8492    2.0255   27.8532 H   0  0  0  0  0  0  0  0  0  0  0  0
  -19.3634    3.8393   25.6040 H   0  0  0  0  0  0  0  0  0  0  0  0
  -18.1898    3.3953   21.6270 H   0  0  0  0  0  0  0  0  0  0  0  0
  -20.5423   -1.0050   21.6009 H   0  0  0  0  0  0  0  0  0  0  0  0
  -18.9354   -1.2237   21.8860 H   0  0  0  0  0  0  0  0  0  0  0  0
  -19.9527   -0.9852   25.4980 H   0  0  0  0  0  0  0  0  0  0  0  0
  -21.5290   -0.7577   25.0800 H   0  0  0  0  0  0  0  0  0  0  0  0
  -18.3245   -2.6584   24.1549 H   0  0  0  0  0  0  0  0  0  0  0  0
  -19.6136   -3.7197   24.8468 H   0  0  0  0  0  0  0  0  0  0  0  0
  -18.6640   -3.6455   21.9580 H   0  0  0  0  0  0  0  0  0  0  0  0
  -18.3558   -4.9394   23.1958 H   0  0  0  0  0  0  0  0  0  0  0  0
  -21.9809   -3.4233   24.1059 H   0  0  0  0  0  0  0  0  0  0  0  0
  -22.3524   -2.1473   22.8655 H   0  0  0  0  0  0  0  0  0  0  0  0
  -22.3553   -4.4349   21.9318 H   0  0  0  0  0  0  0  0  0  0  0  0
  -21.1107   -3.3450   21.1968 H   0  0  0  0  0  0  0  0  0  0  0  0
  -20.6349   -5.4356   23.2557 H   0  0  0  0  0  0  0  0  0  0  0  0
  -21.0882   -6.1095   20.8962 H   0  0  0  0  0  0  0  0  0  0  0  0
  -19.5816   -5.1487   20.5053 H   0  0  0  0  0  0  0  0  0  0  0  0
  -18.2127   -6.5887   21.7007 H   0  0  0  0  0  0  0  0  0  0  0  0
  -19.5187   -6.9962   23.6844 H   0  0  0  0  0  0  0  0  0  0  0  0
  -20.6705   -8.0326   22.7283 H   0  0  0  0  0  0  0  0  0  0  0  0
  -17.7505   -8.6013   23.3475 H   0  0  0  0  0  0  0  0  0  0  0  0
  -19.2144   -9.4710   23.9599 H   0  0  0  0  0  0  0  0  0  0  0  0
  -20.2329   -8.2972   20.1758 H   0  0  0  0  0  0  0  0  0  0  0  0
  -18.8244   -7.4008   19.4831 H   0  0  0  0  0  0  0  0  0  0  0  0
  -18.3535   -9.8246   19.7987 H   0  0  0  0  0  0  0  0  0  0  0  0
  -17.2762   -8.7614   20.7824 H   0  0  0  0  0  0  0  0  0  0  0  0
  -19.7704  -10.2071   21.7664 H   0  0  0  0  0  0  0  0  0  0  0  0
  -16.9515  -10.7376   21.6720 H   0  0  0  0  0  0  0  0  0  0  0  0
  -18.0251  -13.2399   23.9838 H   0  0  0  0  0  0  0  0  0  0  0  0
  -19.7181  -12.7654   23.4980 H   0  0  0  0  0  0  0  0  0  0  0  0
  -19.2916  -15.2426   23.9703 H   0  0  0  0  0  0  0  0  0  0  0  0
  -20.1094  -14.8129   22.4298 H   0  0  0  0  0  0  0  0  0  0  0  0
  -18.3678  -15.2527   22.4298 H   0  0  0  0  0  0  0  0  0  0  0  0
  2  1  1  0
  2  3  1  0
  2  4  1  0
  4  5  1  0
  4  7  1  0
  5  6  1  0
  7  8  2  0
  7  9  1  0
  9 10  2  0
  9 15  1  0
 10 11  1  0
 11 12  1  0
 11 13  2  0
 13 14  1  0
 14 15  2  0
 15 16  1  0
 16 17  1  0
 17 18  2  0
 17 22  1  0
 18 19  1  0
 19 20  2  0
 20 21  1  0
 21 22  2  0
 22 23  1  0
 23 24  1  0
 23 25  1  0
 26 24  1  6
 25 26  1  0
 26 27  1  0
 26 29  1  0
 27 28  1  0
 28 31  1  0
 29 30  1  0
 30 31  1  0
 31 32  1  0
 33 32  1  0
 33 34  1  0
 33 36  1  0
 34 35  1  0
 35 38  1  0
 36 37  1  0
 37 38  1  0
 38 39  1  0
 40 39  1  1
 40 41  2  0
 40 42  2  0
 40 43  1  0
 43 44  1  0
  1 45  1  0
  1 46  1  0
  1 47  1  0
  2 48  1  1
  3 49  1  0
  3 50  1  0
  3 51  1  0
  5 52  1  0
  5 53  1  0
  6 54  1  0
  6 55  1  0
  6 56  1  0
 10 57  1  0
 13 58  1  0
 14 59  1  0
 18 60  1  0
 20 61  1  0
 24 62  1  0
 24 63  1  0
 25 64  1  0
 25 65  1  0
 27 66  1  0
 27 67  1  0
 28 68  1  0
 28 69  1  0
 29 70  1  0
 29 71  1  0
 30 72  1  0
 30 73  1  0
 31 74  1  1
 32 75  1  0
 32 76  1  0
 33 77  1  1
 34 78  1  0
 34 79  1  0
 35 80  1  0
 35 81  1  0
 36 82  1  0
 36 83  1  0
 37 84  1  0
 37 85  1  0
 38 86  1  6
 39 87  1  0
 43 88  1  0
 43 89  1  0
 44 90  1  0
 44 91  1  0
 44 92  1  0
M  CHG  1  31   1
M  END
>  <filename_input>  (1) 
7UJ4_OQ4_docked.sdf

>  <pdb_id>  (1) 
7UJ4_OQ4

>  <pose_rank>  (1) 
0

>  <num_atoms_heavy>  (1) 
44

>  <num_torsions>  (1) 
10

>  <pose>  (1) 
[-19.7548291636911, 1.9426813590867198, 24.685276995362624, 1.4209161178552578, 4.421008742989077, -4.121428131039291, -0.214195022988317, -6.221749420588412, 0.012725133796420839, -0.13871702993736768, 2.709087480763939, -12.47798166687962, -0.10270284175323491, 0.46858093904108006, -0.44888049788752793, 0.7168898611109943]

>  <energy>  (1) 
-965.0050723488991

>  <inter_energy>  (1) 
-1002.1175054750621

>  <intra_energy>  (1) 
41.35903597204862

>  <rmsd>  (1) 
0.687449

>  <sdf_rank>  (1) 
0

$$$$

     RDKit          3D

 92 96  0  0  0  0  0  0  0  0999 V2000
  -21.9053    2.9502   28.7595 C   0  0  0  0  0  0  0  0  0  0  0  0
  -23.1945    3.1380   27.9911 C   0  0  2  0  0  0  0  0  0  0  0  0
  -24.1528    4.0999   28.6455 C   0  0  0  0  0  0  0  0  0  0  0  0
  -23.8342    1.8387   27.7491 N   0  0  0  0  0  0  0  0  0  0  0  0
  -23.9986    0.9941   28.9414 C   0  0  0  0  0  0  0  0  0  0  0  0
  -25.4239    0.8658   29.3905 C   0  0  0  0  0  0  0  0  0  0  0  0
  -24.1754    1.3954   26.5257 C   0  0  0  0  0  0  0  0  0  0  0  0
  -24.5354    0.2349   26.3850 O   0  0  0  0  0  0  0  0  0  0  0  0
  -24.1587    2.2785   25.2885 C   0  0  0  0  0  0  0  0  0  0  0  0
  -25.2457    3.0720   24.9180 C   0  0  0  0  0  0  0  0  0  0  0  0
  -25.1198    3.8861   23.8197 C   0  0  0  0  0  0  0  0  0  0  0  0
  -26.1625    4.6640   23.4567 F   0  0  0  0  0  0  0  0  0  0  0  0
  -23.9867    3.9620   23.0446 C   0  0  0  0  0  0  0  0  0  0  0  0
  -22.9188    3.1585   23.3953 C   0  0  0  0  0  0  0  0  0  0  0  0
  -23.0270    2.3023   24.4695 C   0  0  0  0  0  0  0  0  0  0  0  0
  -21.9296    1.5371   24.8344 O   0  0  0  0  0  0  0  0  0  0  0  0
  -20.6631    1.8794   24.4981 C   0  0  0  0  0  0  0  0  0  0  0  0
  -20.1710    3.0870   24.9251 C   0  0  0  0  0  0  0  0  0  0  0  0
  -18.9433    3.4520   24.6154 N   0  0  0  0  0  0  0  0  0  0  0  0
  -18.2309    2.6333   23.8332 C   0  0  0  0  0  0  0  0  0  0  0  0
  -18.6227    1.4207   23.4272 N   0  0  0  0  0  0  0  0  0  0  0  0
  -19.8593    1.0485   23.7279 C   0  0  0  0  0  0  0  0  0  0  0  0
  -20.2858   -0.1839   23.3528 N   0  0  0  0  0  0  0  0  0  0  0  0
  -19.5486   -1.2360   22.6731 C   0  0  0  0  0  0  0  0  0  0  0  0
  -21.5105   -0.8942   23.7022 C   0  0  0  0  0  0  0  0  0  0  0  0
  -20.7810   -2.1559   23.0769 C   0  0  2  0  0  0  0  0  0  0  0  0
  -20.4249   -3.2901   24.0372 C   0  0  0  0  0  0  0  0  0  0  0  0
  -19.6136   -4.3563   23.3375 C   0  0  0  0  0  0  0  0  0  0  0  0
  -21.5225   -2.7497   21.8824 C   0  0  0  0  0  0  0  0  0  0  0  0
  -20.7190   -3.8171   21.1817 C   0  0  0  0  0  0  0  0  0  0  0  0
  -20.3210   -4.9081   22.1270 N   0  0  1  0  0  0  0  0  0  0  0  0
  -19.4331   -5.8641   21.3915 C   0  0  0  0  0  0  0  0  0  0  0  0
  -19.5211   -7.3036   21.8999 C   0  0  1  0  0  0  0  0  0  0  0  0
  -20.1164   -8.2660   20.8618 C   0  0  0  0  0  0  0  0  0  0  0  0
  -20.1730   -9.7013   21.3575 C   0  0  0  0  0  0  0  0  0  0  0  0
  -18.1644   -7.8000   22.3947 C   0  0  0  0  0  0  0  0  0  0  0  0
  -18.2673   -9.2193   22.9339 C   0  0  0  0  0  0  0  0  0  0  0  0
  -18.8256  -10.1563   21.8750 C   0  0  1  0  0  0  0  0  0  0  0  0
  -18.9242  -11.5113   22.4449 N   0  0  0  0  0  0  0  0  0  0  0  0
  -18.0303  -12.7677   21.9136 S   0  0  1  0  0  0  0  0  0  0  0  0
  -18.5037  -13.0166   20.5853 O   0  0  0  0  0  0  0  0  0  0  0  0
  -16.6541  -12.4119   22.1133 O   0  0  0  0  0  0  0  0  0  0  0  0
  -18.4550  -14.1471   22.9635 C   0  0  0  0  0  0  0  0  0  0  0  0
  -19.2562  -13.7419   24.1842 C   0  0  0  0  0  0  0  0  0  0  0  0
  -22.1141    2.9806   29.8391 H   0  0  0  0  0  0  0  0  0  0  0  0
  -21.4616    1.9779   28.4991 H   0  0  0  0  0  0  0  0  0  0  0  0
  -21.2026    3.7555   28.4991 H   0  0  0  0  0  0  0  0  0  0  0  0
  -22.9234    3.5971   27.0290 H   0  0  0  0  0  0  0  0  0  0  0  0
  -24.0681    4.0149   29.7389 H   0  0  0  0  0  0  0  0  0  0  0  0
  -23.9085    5.1273   28.3376 H   0  0  0  0  0  0  0  0  0  0  0  0
  -25.1811    3.8595   28.3376 H   0  0  0  0  0  0  0  0  0  0  0  0
  -23.6138   -0.0107   28.7123 H   0  0  0  0  0  0  0  0  0  0  0  0
  -23.4433    1.4764   29.7593 H   0  0  0  0  0  0  0  0  0  0  0  0
  -25.4631    0.8623   30.4898 H   0  0  0  0  0  0  0  0  0  0  0  0
  -26.0075    1.7151   29.0055 H   0  0  0  0  0  0  0  0  0  0  0  0
  -25.8465   -0.0740   29.0055 H   0  0  0  0  0  0  0  0  0  0  0  0
  -26.1828    3.0455   25.4935 H   0  0  0  0  0  0  0  0  0  0  0  0
  -23.9324    4.6371   22.1778 H   0  0  0  0  0  0  0  0  0  0  0  0
  -21.9836    3.2023   22.8178 H   0  0  0  0  0  0  0  0  0  0  0  0
  -20.8044    3.7536   25.5288 H   0  0  0  0  0  0  0  0  0  0  0  0
  -17.2444    2.9854   23.4972 H   0  0  0  0  0  0  0  0  0  0  0  0
  -19.4078   -1.0876   21.5923 H   0  0  0  0  0  0  0  0  0  0  0  0
  -18.5046   -1.4894   22.9091 H   0  0  0  0  0  0  0  0  0  0  0  0
  -21.7236   -0.9611   24.7793 H   0  0  0  0  0  0  0  0  0  0  0  0
  -22.5110   -0.5603   23.3898 H   0  0  0  0  0  0  0  0  0  0  0  0
  -19.8384   -2.8825   24.8737 H   0  0  0  0  0  0  0  0  0  0  0  0
  -21.3570   -3.7436   24.4055 H   0  0  0  0  0  0  0  0  0  0  0  0
  -18.6551   -3.9203   23.0194 H   0  0  0  0  0  0  0  0  0  0  0  0
  -19.4618   -5.1840   24.0460 H   0  0  0  0  0  0  0  0  0  0  0  0
  -22.4656   -3.1918   22.2359 H   0  0  0  0  0  0  0  0  0  0  0  0
  -21.7038   -1.9383   21.1621 H   0  0  0  0  0  0  0  0  0  0  0  0
  -21.3259   -4.2486   20.3719 H   0  0  0  0  0  0  0  0  0  0  0  0
  -19.8049   -3.3556   20.7799 H   0  0  0  0  0  0  0  0  0  0  0  0
  -21.1652   -5.3919   22.4650 H   0  0  0  0  0  0  0  0  0  0  0  0
  -19.7169   -5.8536   20.3288 H   0  0  0  0  0  0  0  0  0  0  0  0
  -18.3978   -5.5297   21.5540 H   0  0  0  0  0  0  0  0  0  0  0  0
  -20.2164   -7.2906   22.7522 H   0  0  0  0  0  0  0  0  0  0  0  0
  -21.1379   -7.9362   20.6213 H   0  0  0  0  0  0  0  0  0  0  0  0
  -19.4634   -8.2456   19.9769 H   0  0  0  0  0  0  0  0  0  0  0  0
  -20.9114   -9.7713   22.1698 H   0  0  0  0  0  0  0  0  0  0  0  0
  -20.4591  -10.3490   20.5157 H   0  0  0  0  0  0  0  0  0  0  0  0
  -17.4487   -7.7834   21.5595 H   0  0  0  0  0  0  0  0  0  0  0  0
  -17.8243   -7.1402   23.2065 H   0  0  0  0  0  0  0  0  0  0  0  0
  -17.2667   -9.5660   23.2318 H   0  0  0  0  0  0  0  0  0  0  0  0
  -18.9448   -9.2205   23.8005 H   0  0  0  0  0  0  0  0  0  0  0  0
  -18.1407  -10.1531   21.0143 H   0  0  0  0  0  0  0  0  0  0  0  0
  -18.7080  -11.4136   23.4473 H   0  0  0  0  0  0  0  0  0  0  0  0
  -19.0492  -14.8633   22.3769 H   0  0  0  0  0  0  0  0  0  0  0  0
  -17.5131  -14.5882   23.3215 H   0  0  0  0  0  0  0  0  0  0  0  0
  -18.7045  -14.0209   25.0940 H   0  0  0  0  0  0  0  0  0  0  0  0
  -19.4175  -12.6539   24.1723 H   0  0  0  0  0  0  0  0  0  0  0  0
  -20.2281  -14.2569   24.1723 H   0  0  0  0  0  0  0  0  0  0  0  0
  2  1  1  0
  2  3  1  0
  2  4  1  0
  4  5  1  0
  4  7  1  0
  5  6  1  0
  7  8  2  0
  7  9  1  0
  9 10  2  0
  9 15  1  0
 10 11  1  0
 11 12  1  0
 11 13  2  0
 13 14  1  0
 14 15  2  0
 15 16  1  0
 16 17  1  0
 17 18  2  0
 17 22  1  0
 18 19  1  0
 19 20  2  0
 20 21  1  0
 21 22  2  0
 22 23  1  0
 23 24  1  0
 23 25  1  0
 26 24  1  6
 25 26  1  0
 26 27  1  0
 26 29  1  0
 27 28  1  0
 28 31  1  0
 29 30  1  0
 30 31  1  0
 31 32  1  0
 33 32  1  0
 33 34  1  0
 33 36  1  0
 34 35  1  0
 35 38  1  0
 36 37  1  0
 37 38  1  0
 38 39  1  0
 40 39  1  1
 40 41  2  0
 40 42  2  0
 40 43  1  0
 43 44  1  0
  1 45  1  0
  1 46  1  0
  1 47  1  0
  2 48  1  6
  3 49  1  0
  3 50  1  0
  3 51  1  0
  5 52  1  0
  5 53  1  0
  6 54  1  0
  6 55  1  0
  6 56  1  0
 10 57  1  0
 13 58  1  0
 14 59  1  0
 18 60  1  0
 20 61  1  0
 24 62  1  0
 24 63  1  0
 25 64  1  0
 25 65  1  0
 27 66  1  0
 27 67  1  0
 28 68  1  0
 28 69  1  0
 29 70  1  0
 29 71  1  0
 30 72  1  0
 30 73  1  0
 31 74  1  1
 32 75  1  0
 32 76  1  0
 33 77  1  1
 34 78  1  0
 34 79  1  0
 35 80  1  0
 35 81  1  0
 36 82  1  0
 36 83  1  0
 37 84  1  0
 37 85  1  0
 38 86  1  6
 39 87  1  0
 43 88  1  0
 43 89  1  0
 44 90  1  0
 44 91  1  0
 44 92  1  0
M  CHG  1  31   1
M  END
>  <filename_input>  (2) 
7UJ4_OQ4_docked.sdf

>  <pdb_id>  (2) 
7UJ4_OQ4

>  <pose_rank>  (2) 
1

>  <num_atoms_heavy>  (2) 
44

>  <num_torsions>  (2) 
10

>  <pose>  (2) 
[-20.663076868375587, 1.8794306162315508, 24.498131805417362, 0.2246423492689803, 5.4057379065795415, 0.6225223822552354, -5.675321787021772, 2.039360436715485, 9.5610697787592, 5.803645812578916, -0.14461262068481356, 0.41496161728089964, 1.0911540076878485, 0.18902803716018626, -1.9286455209594666, -2.6412869802700576]

>  <energy>  (2) 
-810.5032860706805

>  <inter_energy>  (2) 
-834.8890690736233

>  <intra_energy>  (2) 
22.207336524462484

>  <rmsd>  (2) 
3.09879

>  <sdf_rank>  (2) 
0

$$$$

     RDKit          3D

 92 96  0  0  0  0  0  0  0  0999 V2000
  -25.1575    1.9131   28.2421 C   0  0  0  0  0  0  0  0  0  0  0  0
  -24.6845    1.0195   27.1171 C   0  0  2  0  0  0  0  0  0  0  0  0
  -23.4721    0.1962   27.4691 C   0  0  0  0  0  0  0  0  0  0  0  0
  -24.4494    1.8130   25.9042 N   0  0  0  0  0  0  0  0  0  0  0  0
  -25.4448    1.6296   24.8377 C   0  0  0  0  0  0  0  0  0  0  0  0
  -25.3156    0.3194   24.1192 C   0  0  0  0  0  0  0  0  0  0  0  0
  -23.3668    2.5910   25.7240 C   0  0  0  0  0  0  0  0  0  0  0  0
  -23.1513    3.0762   24.6221 O   0  0  0  0  0  0  0  0  0  0  0  0
  -22.3897    2.9246   26.8397 C   0  0  0  0  0  0  0  0  0  0  0  0
  -22.7227    3.7664   27.9022 C   0  0  0  0  0  0  0  0  0  0  0  0
  -21.7986    3.9626   28.8985 C   0  0  0  0  0  0  0  0  0  0  0  0
  -22.1129    4.7689   29.9354 F   0  0  0  0  0  0  0  0  0  0  0  0
  -20.5488    3.3895   28.9118 C   0  0  0  0  0  0  0  0  0  0  0  0
  -20.2086    2.5761   27.8482 C   0  0  0  0  0  0  0  0  0  0  0  0
  -21.0994    2.3895   26.8135 C   0  0  0  0  0  0  0  0  0  0  0  0
  -20.7586    1.5337   25.7771 O   0  0  0  0  0  0  0  0  0  0  0  0
  -20.1788    1.9734   24.6347 C   0  0  0  0  0  0  0  0  0  0  0  0
  -19.7085    3.2615   24.5875 C   0  0  0  0  0  0  0  0  0  0  0  0
  -19.1396    3.7222   23.4917 N   0  0  0  0  0  0  0  0  0  0  0  0
  -19.0930    2.9114   22.4286 C   0  0  0  0  0  0  0  0  0  0  0  0
  -19.4789    1.6309   22.4181 N   0  0  0  0  0  0  0  0  0  0  0  0
  -20.0592    1.1614   23.5140 C   0  0  0  0  0  0  0  0  0  0  0  0
  -20.4439   -0.1395   23.5498 N   0  0  0  0  0  0  0  0  0  0  0  0
  -20.2739   -1.1686   22.5378 C   0  0  0  0  0  0  0  0  0  0  0  0
  -20.9333   -0.9378   24.6677 C   0  0  0  0  0  0  0  0  0  0  0  0
  -20.6998   -2.1700   23.6971 C   0  0  2  0  0  0  0  0  0  0  0  0
  -19.6087   -3.1626   24.0965 C   0  0  0  0  0  0  0  0  0  0  0  0
  -19.4000   -4.2000   23.0171 C   0  0  0  0  0  0  0  0  0  0  0  0
  -21.9764   -2.9507   23.3971 C   0  0  0  0  0  0  0  0  0  0  0  0
  -21.7737   -3.9902   22.3227 C   0  0  0  0  0  0  0  0  0  0  0  0
  -20.6706   -4.9371   22.6819 N   0  0  1  0  0  0  0  0  0  0  0  0
  -20.4506   -5.8607   21.5235 C   0  0  0  0  0  0  0  0  0  0  0  0
  -19.9243   -7.2392   21.9248 C   0  0  1  0  0  0  0  0  0  0  0  0
  -20.9478   -8.3592   21.6876 C   0  0  0  0  0  0  0  0  0  0  0  0
  -20.4110   -9.7319   22.0570 C   0  0  0  0  0  0  0  0  0  0  0  0
  -18.5997   -7.5496   21.2312 C   0  0  0  0  0  0  0  0  0  0  0  0
  -18.0630   -8.9061   21.6640 C   0  0  0  0  0  0  0  0  0  0  0  0
  -19.0815   -9.9997   21.3853 C   0  0  1  0  0  0  0  0  0  0  0  0
  -18.5283  -11.2890   21.8351 N   0  0  0  0  0  0  0  0  0  0  0  0
  -19.2543  -12.7198   21.5427 S   0  0  1  0  0  0  0  0  0  0  0  0
  -20.1626  -12.8983   22.6352 O   0  0  0  0  0  0  0  0  0  0  0  0
  -19.7695  -12.6580   20.2043 O   0  0  0  0  0  0  0  0  0  0  0  0
  -17.9642  -13.9496   21.6361 C   0  0  0  0  0  0  0  0  0  0  0  0
  -17.7377  -14.6758   20.3256 C   0  0  0  0  0  0  0  0  0  0  0  0
  -24.9113    1.4480   29.2081 H   0  0  0  0  0  0  0  0  0  0  0  0
  -24.6587    2.8908   28.1682 H   0  0  0  0  0  0  0  0  0  0  0  0
  -26.2463    2.0504   28.1682 H   0  0  0  0  0  0  0  0  0  0  0  0
  -25.4912    0.2955   26.9299 H   0  0  0  0  0  0  0  0  0  0  0  0
  -23.3775    0.1320   28.5631 H   0  0  0  0  0  0  0  0  0  0  0  0
  -23.5815   -0.8151   27.0505 H   0  0  0  0  0  0  0  0  0  0  0  0
  -22.5724    0.6709   27.0505 H   0  0  0  0  0  0  0  0  0  0  0  0
  -26.4484    1.6843   25.2847 H   0  0  0  0  0  0  0  0  0  0  0  0
  -25.2753    2.4240   24.0960 H   0  0  0  0  0  0  0  0  0  0  0  0
  -25.2353   -0.4954   24.8538 H   0  0  0  0  0  0  0  0  0  0  0  0
  -26.2022    0.1581   23.4883 H   0  0  0  0  0  0  0  0  0  0  0  0
  -24.4146    0.3344   23.4883 H   0  0  0  0  0  0  0  0  0  0  0  0
  -23.7040    4.2619   27.9405 H   0  0  0  0  0  0  0  0  0  0  0  0
  -19.8462    3.5718   29.7384 H   0  0  0  0  0  0  0  0  0  0  0  0
  -19.2279    2.0781   27.8272 H   0  0  0  0  0  0  0  0  0  0  0  0
  -19.8068    3.9127   25.4685 H   0  0  0  0  0  0  0  0  0  0  0  0
  -18.7064    3.3314   21.4883 H   0  0  0  0  0  0  0  0  0  0  0  0
  -20.9699   -1.1110   21.6879 H   0  0  0  0  0  0  0  0  0  0  0  0
  -19.3534   -1.2869   21.9473 H   0  0  0  0  0  0  0  0  0  0  0  0
  -20.3010   -0.9226   25.5677 H   0  0  0  0  0  0  0  0  0  0  0  0
  -21.8898   -0.7426   25.1746 H   0  0  0  0  0  0  0  0  0  0  0  0
  -18.6674   -2.6169   24.2581 H   0  0  0  0  0  0  0  0  0  0  0  0
  -19.9204   -3.6741   25.0191 H   0  0  0  0  0  0  0  0  0  0  0  0
  -19.0319   -3.6981   22.1101 H   0  0  0  0  0  0  0  0  0  0  0  0
  -18.6723   -4.9349   23.3917 H   0  0  0  0  0  0  0  0  0  0  0  0
  -22.3078   -3.4535   24.3176 H   0  0  0  0  0  0  0  0  0  0  0  0
  -22.7303   -2.2360   23.0354 H   0  0  0  0  0  0  0  0  0  0  0  0
  -22.7064   -4.5590   22.1941 H   0  0  0  0  0  0  0  0  0  0  0  0
  -21.4993   -3.4759   21.3898 H   0  0  0  0  0  0  0  0  0  0  0  0
  -20.9394   -5.4722   23.5199 H   0  0  0  0  0  0  0  0  0  0  0  0
  -21.4086   -5.9942   20.9996 H   0  0  0  0  0  0  0  0  0  0  0  0
  -19.6831   -5.3978   20.8858 H   0  0  0  0  0  0  0  0  0  0  0  0
  -19.7459   -7.2004   23.0095 H   0  0  0  0  0  0  0  0  0  0  0  0
  -21.8406   -8.1549   22.2969 H   0  0  0  0  0  0  0  0  0  0  0  0
  -21.1829   -8.3724   20.6131 H   0  0  0  0  0  0  0  0  0  0  0  0
  -20.2785   -9.7836   23.1477 H   0  0  0  0  0  0  0  0  0  0  0  0
  -21.1315  -10.4903   21.7168 H   0  0  0  0  0  0  0  0  0  0  0  0
  -18.7564   -7.5553   20.1424 H   0  0  0  0  0  0  0  0  0  0  0  0
  -17.8680   -6.7774   21.5109 H   0  0  0  0  0  0  0  0  0  0  0  0
  -17.1388   -9.1230   21.1082 H   0  0  0  0  0  0  0  0  0  0  0  0
  -17.8602   -8.8782   22.7448 H   0  0  0  0  0  0  0  0  0  0  0  0
  -19.2753  -10.0244   20.3028 H   0  0  0  0  0  0  0  0  0  0  0  0
  -17.5899  -11.3565   21.4158 H   0  0  0  0  0  0  0  0  0  0  0  0
  -17.0272  -13.4523   21.9270 H   0  0  0  0  0  0  0  0  0  0  0  0
  -18.2800  -14.6998   22.3760 H   0  0  0  0  0  0  0  0  0  0  0  0
  -17.4159  -15.7078   20.5292 H   0  0  0  0  0  0  0  0  0  0  0  0
  -18.6738  -14.6909   19.7482 H   0  0  0  0  0  0  0  0  0  0  0  0
  -16.9590  -14.1560   19.7482 H   0  0  0  0  0  0  0  0  0  0  0  0
  2  1  1  0
  2  3  1  0
  2  4  1  0
  4  5  1  0
  4  7  1  0
  5  6  1  0
  7  8  2  0
  7  9  1  0
  9 10  2  0
  9 15  1  0
 10 11  1  0
 11 12  1  0
 11 13  2  0
 13 14  1  0
 14 15  2  0
 15 16  1  0
 16 17  1  0
 17 18  2  0
 17 22  1  0
 18 19  1  0
 19 20  2  0
 20 21  1  0
 21 22  2  0
 22 23  1  0
 23 24  1  0
 23 25  1  0
 26 24  1  6
 25 26  1  0
 26 27  1  0
 26 29  1  0
 27 28  1  0
 28 31  1  0
 29 30  1  0
 30 31  1  0
 31 32  1  0
 33 32  1  0
 33 34  1  0
 33 36  1  0
 34 35  1  0
 35 38  1  0
 36 37  1  0
 37 38  1  0
 38 39  1  0
 40 39  1  1
 40 41  2  0
 40 42  2  0
 40 43  1  0
 43 44  1  0
  1 45  1  0
  1 46  1  0
  1 47  1  0
  2 48  1  6
  3 49  1  0
  3 50  1  0
  3 51  1  0
  5 52  1  0
  5 53  1  0
  6 54  1  0
  6 55  1  0
  6 56  1  0
 10 57  1  0
 13 58  1  0
 14 59  1  0
 18 60  1  0
 20 61  1  0
 24 62  1  0
 24 63  1  0
 25 64  1  0
 25 65  1  0
 27 66  1  0
 27 67  1  0
 28 68  1  0
 28 69  1  0
 29 70  1  0
 29 71  1  0
 30 72  1  0
 30 73  1  0
 31 74  1  1
 32 75  1  0
 32 76  1  0
 33 77  1  1
 34 78  1  0
 34 79  1  0
 35 80  1  0
 35 81  1  0
 36 82  1  0
 36 83  1  0
 37 84  1  0
 37 85  1  0
 38 86  1  6
 39 87  1  0
 43 88  1  0
 43 89  1  0
 44 90  1  0
 44 91  1  0
 44 92  1  0
M  CHG  1  31   1
M  END
>  <filename_input>  (3) 
7UJ4_OQ4_docked.sdf

>  <pdb_id>  (3) 
7UJ4_OQ4

>  <pose_rank>  (3) 
2

>  <num_atoms_heavy>  (3) 
44

>  <num_torsions>  (3) 
10

>  <pose>  (3) 
[-20.178816827653595, 1.9733715508237237, 24.634747846908915, 3.6478893010932367, 2.0259949961428956, -4.569491811884106, -0.2330470733692727, 0.011762171961973437, -2.720154031932113, -3.2469680343083063, -3.337491349758596, 0.40057388539403677, -5.231758929531532, -0.8293243596241324, -2.285712822676574, -4.476449671831206]

>  <energy>  (3) 
-846.7150806197053

>  <inter_energy>  (3) 
-920.1832476632853

>  <intra_energy>  (3) 
81.36549966730436

>  <rmsd>  (3) 
1.95939

>  <sdf_rank>  (3) 
0

$$$$

     RDKit          3D

 92 96  0  0  0  0  0  0  0  0999 V2000
  -18.6298    3.6610   25.9457 C   0  0  0  0  0  0  0  0  0  0  0  0
  -19.5009    2.5699   25.3638 C   0  0  2  0  0  0  0  0  0  0  0  0
  -18.7465    1.5904   24.5018 C   0  0  0  0  0  0  0  0  0  0  0  0
  -20.6285    3.1586   24.6304 N   0  0  0  0  0  0  0  0  0  0  0  0
  -20.3913    3.3789   23.1961 C   0  0  0  0  0  0  0  0  0  0  0  0
  -20.0130    4.7917   22.8635 C   0  0  0  0  0  0  0  0  0  0  0  0
  -21.7715    3.5546   25.2190 C   0  0  0  0  0  0  0  0  0  0  0  0
  -22.5882    4.1984   24.5751 O   0  0  0  0  0  0  0  0  0  0  0  0
  -22.1211    3.2219   26.6604 C   0  0  0  0  0  0  0  0  0  0  0  0
  -21.9860    4.1458   27.6980 C   0  0  0  0  0  0  0  0  0  0  0  0
  -22.3846    3.7789   28.9595 C   0  0  0  0  0  0  0  0  0  0  0  0
  -22.2658    4.6676   29.9696 F   0  0  0  0  0  0  0  0  0  0  0  0
  -22.9009    2.5440   29.2742 C   0  0  0  0  0  0  0  0  0  0  0  0
  -23.0117    1.6199   28.2531 C   0  0  0  0  0  0  0  0  0  0  0  0
  -22.5849    1.9442   26.9836 C   0  0  0  0  0  0  0  0  0  0  0  0
  -22.7462    1.0205   25.9621 O   0  0  0  0  0  0  0  0  0  0  0  0
  -23.9189    0.8668   25.3020 C   0  0  0  0  0  0  0  0  0  0  0  0
  -24.8721    1.8473   25.4144 C   0  0  0  0  0  0  0  0  0  0  0  0
  -26.0246    1.7297   24.7864 N   0  0  0  0  0  0  0  0  0  0  0  0
  -26.2419    0.6063   24.0931 C   0  0  0  0  0  0  0  0  0  0  0  0
  -25.3421   -0.3629   23.8940 N   0  0  0  0  0  0  0  0  0  0  0  0
  -24.1826   -0.2563   24.5282 C   0  0  0  0  0  0  0  0  0  0  0  0
  -23.2355   -1.2084   24.3336 N   0  0  0  0  0  0  0  0  0  0  0  0
  -23.2754   -2.3688   23.4595 C   0  0  0  0  0  0  0  0  0  0  0  0
  -21.8415   -1.2395   24.7607 C   0  0  0  0  0  0  0  0  0  0  0  0
  -21.7171   -2.4640   23.7607 C   0  0  2  0  0  0  0  0  0  0  0  0
  -20.8306   -2.2614   22.5326 C   0  0  0  0  0  0  0  0  0  0  0  0
  -20.9166   -3.4490   21.6016 C   0  0  0  0  0  0  0  0  0  0  0  0
  -21.3016   -3.7623   24.4470 C   0  0  0  0  0  0  0  0  0  0  0  0
  -21.3822   -4.9512   23.5218 C   0  0  0  0  0  0  0  0  0  0  0  0
  -20.5570   -4.7401   22.2902 N   0  0  1  0  0  0  0  0  0  0  0  0
  -20.7791   -5.9029   21.3728 C   0  0  0  0  0  0  0  0  0  0  0  0
  -19.7777   -7.0421   21.5670 C   0  0  1  0  0  0  0  0  0  0  0  0
  -20.1243   -7.9418   22.7623 C   0  0  0  0  0  0  0  0  0  0  0  0
  -19.1459   -9.0917   22.9337 C   0  0  0  0  0  0  0  0  0  0  0  0
  -19.6185   -7.8632   20.2894 C   0  0  0  0  0  0  0  0  0  0  0  0
  -18.5929   -8.9714   20.4783 C   0  0  0  0  0  0  0  0  0  0  0  0
  -18.9792   -9.8667   21.6445 C   0  0  1  0  0  0  0  0  0  0  0  0
  -17.9521  -10.9112   21.8013 N   0  0  0  0  0  0  0  0  0  0  0  0
  -18.2742  -12.5041   21.6645 S   0  0  1  0  0  0  0  0  0  0  0  0
  -19.2920  -12.5860   20.6606 O   0  0  0  0  0  0  0  0  0  0  0  0
  -17.0184  -13.1644   21.4466 O   0  0  0  0  0  0  0  0  0  0  0  0
  -18.9519  -13.0017   23.2389 C   0  0  0  0  0  0  0  0  0  0  0  0
  -20.3153  -13.6524   23.1216 C   0  0  0  0  0  0  0  0  0  0  0  0
  -18.6676    3.6137   27.0440 H   0  0  0  0  0  0  0  0  0  0  0  0
  -17.5923    3.5211   25.6081 H   0  0  0  0  0  0  0  0  0  0  0  0
  -18.9962    4.6418   25.6081 H   0  0  0  0  0  0  0  0  0  0  0  0
  -19.8826    1.9851   26.2137 H   0  0  0  0  0  0  0  0  0  0  0  0
  -18.2010    0.8822   25.1429 H   0  0  0  0  0  0  0  0  0  0  0  0
  -19.4554    1.0390   23.8668 H   0  0  0  0  0  0  0  0  0  0  0  0
  -18.0323    2.1351   23.8668 H   0  0  0  0  0  0  0  0  0  0  0  0
  -19.5768    2.7145   22.8716 H   0  0  0  0  0  0  0  0  0  0  0  0
  -21.3360    3.1650   22.6748 H   0  0  0  0  0  0  0  0  0  0  0  0
  -19.8610    5.3592   23.7934 H   0  0  0  0  0  0  0  0  0  0  0  0
  -19.0827    4.7937   22.2765 H   0  0  0  0  0  0  0  0  0  0  0  0
  -20.8178    5.2583   22.2765 H   0  0  0  0  0  0  0  0  0  0  0  0
  -21.5691    5.1461   27.5090 H   0  0  0  0  0  0  0  0  0  0  0  0
  -23.2138    2.3008   30.3003 H   0  0  0  0  0  0  0  0  0  0  0  0
  -23.4401    0.6267   28.4532 H   0  0  0  0  0  0  0  0  0  0  0  0
  -24.6733    2.7358   26.0317 H   0  0  0  0  0  0  0  0  0  0  0  0
  -27.2401    0.4689   23.6517 H   0  0  0  0  0  0  0  0  0  0  0  0
  -23.8771   -3.2131   23.8271 H   0  0  0  0  0  0  0  0  0  0  0  0
  -23.6920   -2.3426   22.4418 H   0  0  0  0  0  0  0  0  0  0  0  0
  -21.2485   -0.3525   24.4929 H   0  0  0  0  0  0  0  0  0  0  0  0
  -21.5354   -1.2896   25.8160 H   0  0  0  0  0  0  0  0  0  0  0  0
  -21.1595   -1.3591   21.9962 H   0  0  0  0  0  0  0  0  0  0  0  0
  -19.7882   -2.1521   22.8665 H   0  0  0  0  0  0  0  0  0  0  0  0
  -21.9454   -3.5259   21.2198 H   0  0  0  0  0  0  0  0  0  0  0  0
  -20.1970   -3.2904   20.7849 H   0  0  0  0  0  0  0  0  0  0  0  0
  -20.2652   -3.6592   24.8009 H   0  0  0  0  0  0  0  0  0  0  0  0
  -21.9960   -3.9383   25.2818 H   0  0  0  0  0  0  0  0  0  0  0  0
  -21.0142   -5.8425   24.0511 H   0  0  0  0  0  0  0  0  0  0  0  0
  -22.4311   -5.0839   23.2181 H   0  0  0  0  0  0  0  0  0  0  0  0
  -19.5629   -4.6759   22.5521 H   0  0  0  0  0  0  0  0  0  0  0  0
  -21.7909   -6.2965   21.5503 H   0  0  0  0  0  0  0  0  0  0  0  0
  -20.6463   -5.5311   20.3461 H   0  0  0  0  0  0  0  0  0  0  0  0
  -18.8111   -6.5706   21.7978 H   0  0  0  0  0  0  0  0  0  0  0  0
  -20.1135   -7.3312   23.6772 H   0  0  0  0  0  0  0  0  0  0  0  0
  -21.1175   -8.3758   22.5745 H   0  0  0  0  0  0  0  0  0  0  0  0
  -18.1689   -8.6889   23.2389 H   0  0  0  0  0  0  0  0  0  0  0  0
  -19.5416   -9.7737   23.7008 H   0  0  0  0  0  0  0  0  0  0  0  0
  -20.5881   -8.3114   20.0265 H   0  0  0  0  0  0  0  0  0  0  0  0
  -19.2714   -7.1974   19.4855 H   0  0  0  0  0  0  0  0  0  0  0  0
  -18.5408   -9.5757   19.5607 H   0  0  0  0  0  0  0  0  0  0  0  0
  -17.6145   -8.5157   20.6907 H   0  0  0  0  0  0  0  0  0  0  0  0
  -19.9557  -10.3219   21.4227 H   0  0  0  0  0  0  0  0  0  0  0  0
  -17.2299  -10.7066   21.0960 H   0  0  0  0  0  0  0  0  0  0  0  0
  -18.2610  -13.7188   23.7063 H   0  0  0  0  0  0  0  0  0  0  0  0
  -19.0743  -12.0919   23.8450 H   0  0  0  0  0  0  0  0  0  0  0  0
  -20.7176  -13.8445   24.1272 H   0  0  0  0  0  0  0  0  0  0  0  0
  -20.9958  -12.9821   22.5762 H   0  0  0  0  0  0  0  0  0  0  0  0
  -20.2221  -14.6032   22.5762 H   0  0  0  0  0  0  0  0  0  0  0  0
  2  1  1  0
  2  3  1  0
  2  4  1  0
  4  5  1  0
  4  7  1  0
  5  6  1  0
  7  8  2  0
  7  9  1  0
  9 10  2  0
  9 15  1  0
 10 11  1  0
 11 12  1  0
 11 13  2  0
 13 14  1  0
 14 15  2  0
 15 16  1  0
 16 17  1  0
 17 18  2  0
 17 22  1  0
 18 19  1  0
 19 20  2  0
 20 21  1  0
 21 22  2  0
 22 23  1  0
 23 24  1  0
 23 25  1  0
 26 24  1  6
 25 26  1  0
 26 27  1  0
 26 29  1  0
 27 28  1  0
 28 31  1  0
 29 30  1  0
 30 31  1  0
 31 32  1  0
 33 32  1  0
 33 34  1  0
 33 36  1  0
 34 35  1  0
 35 38  1  0
 36 37  1  0
 37 38  1  0
 38 39  1  0
 40 39  1  1
 40 41  2  0
 40 42  2  0
 40 43  1  0
 43 44  1  0
  1 45  1  0
  1 46  1  0
  1 47  1  0
  2 48  1  1
  3 49  1  0
  3 50  1  0
  3 51  1  0
  5 52  1  0
  5 53  1  0
  6 54  1  0
  6 55  1  0
  6 56  1  0
 10 57  1  0
 13 58  1  0
 14 59  1  0
 18 60  1  0
 20 61  1  0
 24 62  1  0
 24 63  1  0
 25 64  1  0
 25 65  1  0
 27 66  1  0
 27 67  1  0
 28 68  1  0
 28 69  1  0
 29 70  1  0
 29 71  1  0
 30 72  1  0
 30 73  1  0
 31 74  1  1
 32 75  1  0
 32 76  1  0
 33 77  1  1
 34 78  1  0
 34 79  1  0
 35 80  1  0
 35 81  1  0
 36 82  1  0
 36 83  1  0
 37 84  1  0
 37 85  1  0
 38 86  1  6
 39 87  1  0
 43 88  1  0
 43 89  1  0
 44 90  1  0
 44 91  1  0
 44 92  1  0
M  CHG  1  31   1
M  END
>  <filename_input>  (4) 
7UJ4_OQ4_docked.sdf

>  <pdb_id>  (4) 
7UJ4_OQ4

>  <pose_rank>  (4) 
3

>  <num_atoms_heavy>  (4) 
44

>  <num_torsions>  (4) 
10

>  <pose>  (4) 
[-23.91885065006187, 0.8668105163228268, 25.30204799825396, -0.15521507513350422, 1.2772141318702226, 1.086694027091691, -12.719314009800733, -3.202773931104151, -6.000734961156708, 0.23274240570241966, 2.511465301442172, 1.4368056618585023, 0.496245828493673, 0.10346693420040248, -0.15872498050218323, -0.26798774843942996]

>  <energy>  (4) 
-847.9398621900175

>  <inter_energy>  (4) 
-875.1358457645231

>  <intra_energy>  (4) 
38.046678856657884

>  <rmsd>  (4) 
3.24845

>  <sdf_rank>  (4) 
0

$$$$

     RDKit          3D

 92 96  0  0  0  0  0  0  0  0999 V2000
  -21.0694    3.6510   28.6638 C   0  0  0  0  0  0  0  0  0  0  0  0
  -21.9759    3.3548   27.4898 C   0  0  2  0  0  0  0  0  0  0  0  0
  -23.2295    4.1911   27.4689 C   0  0  0  0  0  0  0  0  0  0  0  0
  -22.2963    1.9225   27.4455 N   0  0  0  0  0  0  0  0  0  0  0  0
  -22.6134    1.3151   28.7465 C   0  0  0  0  0  0  0  0  0  0  0  0
  -24.0015    1.6207   29.2257 C   0  0  0  0  0  0  0  0  0  0  0  0
  -22.2283    1.1806   26.3254 C   0  0  0  0  0  0  0  0  0  0  0  0
  -22.3332   -0.0356   26.4020 O   0  0  0  0  0  0  0  0  0  0  0  0
  -22.0467    1.7823   24.9413 C   0  0  0  0  0  0  0  0  0  0  0  0
  -21.2876    2.9319   24.7163 C   0  0  0  0  0  0  0  0  0  0  0  0
  -21.1262    3.3695   23.4251 C   0  0  0  0  0  0  0  0  0  0  0  0
  -20.3871    4.4762   23.1948 F   0  0  0  0  0  0  0  0  0  0  0  0
  -21.6802    2.7515   22.3288 C   0  0  0  0  0  0  0  0  0  0  0  0
  -22.4527    1.6280   22.5523 C   0  0  0  0  0  0  0  0  0  0  0  0
  -22.6653    1.1855   23.8399 C   0  0  0  0  0  0  0  0  0  0  0  0
  -23.4053    0.0303   24.0417 O   0  0  0  0  0  0  0  0  0  0  0  0
  -24.5500   -0.2250   23.3644 C   0  0  0  0  0  0  0  0  0  0  0  0
  -25.5587    0.7045   23.4004 C   0  0  0  0  0  0  0  0  0  0  0  0
  -26.6862    0.4881   22.7535 N   0  0  0  0  0  0  0  0  0  0  0  0
  -26.8228   -0.6815   22.1186 C   0  0  0  0  0  0  0  0  0  0  0  0
  -25.8659   -1.6075   21.9942 N   0  0  0  0  0  0  0  0  0  0  0  0
  -24.7310   -1.4013   22.6480 C   0  0  0  0  0  0  0  0  0  0  0  0
  -23.7278   -2.3074   22.5282 N   0  0  0  0  0  0  0  0  0  0  0  0
  -23.6807   -3.5136   21.7189 C   0  0  0  0  0  0  0  0  0  0  0  0
  -22.3459   -2.2362   22.9883 C   0  0  0  0  0  0  0  0  0  0  0  0
  -22.1279   -3.5039   22.0606 C   0  0  2  0  0  0  0  0  0  0  0  0
  -21.2223   -3.3178   20.8439 C   0  0  0  0  0  0  0  0  0  0  0  0
  -21.2182   -4.5570   19.9783 C   0  0  0  0  0  0  0  0  0  0  0  0
  -21.6592   -4.7376   22.8271 C   0  0  0  0  0  0  0  0  0  0  0  0
  -21.6497   -5.9774   21.9675 C   0  0  0  0  0  0  0  0  0  0  0  0
  -20.8057   -5.7865   20.7454 N   0  0  1  0  0  0  0  0  0  0  0  0
  -20.9391   -7.0079   19.8888 C   0  0  0  0  0  0  0  0  0  0  0  0
  -19.9218   -8.1026   20.2125 C   0  0  1  0  0  0  0  0  0  0  0  0
  -20.2164   -8.8150   21.5406 C   0  0  0  0  0  0  0  0  0  0  0  0
  -19.2229   -9.9239   21.8443 C   0  0  0  0  0  0  0  0  0  0  0  0
  -19.8031   -9.1046   19.0662 C   0  0  0  0  0  0  0  0  0  0  0  0
  -18.7620  -10.1694   19.3792 C   0  0  0  0  0  0  0  0  0  0  0  0
  -19.0975  -10.8819   20.6794 C   0  0  1  0  0  0  0  0  0  0  0  0
  -18.0566  -11.8886   20.9510 N   0  0  0  0  0  0  0  0  0  0  0  0
  -18.3701  -13.3253   21.6564 S   0  0  1  0  0  0  0  0  0  0  0  0
  -17.4995  -14.2526   20.9988 O   0  0  0  0  0  0  0  0  0  0  0  0
  -18.2452  -13.1283   23.0728 O   0  0  0  0  0  0  0  0  0  0  0  0
  -20.0645  -13.7097   21.2482 C   0  0  0  0  0  0  0  0  0  0  0  0
  -20.2230  -14.3073   19.8648 C   0  0  0  0  0  0  0  0  0  0  0  0
  -21.6148    3.4728   29.6023 H   0  0  0  0  0  0  0  0  0  0  0  0
  -20.1881    2.9941   28.6215 H   0  0  0  0  0  0  0  0  0  0  0  0
  -20.7460    4.7016   28.6215 H   0  0  0  0  0  0  0  0  0  0  0  0
  -21.4180    3.6330   26.5834 H   0  0  0  0  0  0  0  0  0  0  0  0
  -23.5465    4.4025   28.5008 H   0  0  0  0  0  0  0  0  0  0  0  0
  -23.0302    5.1377   26.9453 H   0  0  0  0  0  0  0  0  0  0  0  0
  -24.0270    3.6434   26.9453 H   0  0  0  0  0  0  0  0  0  0  0  0
  -22.5082    0.2239   28.6564 H   0  0  0  0  0  0  0  0  0  0  0  0
  -21.9154    1.7416   29.4820 H   0  0  0  0  0  0  0  0  0  0  0  0
  -24.0172    1.6241   30.3256 H   0  0  0  0  0  0  0  0  0  0  0  0
  -24.3095    2.6081   28.8515 H   0  0  0  0  0  0  0  0  0  0  0  0
  -24.6957    0.8538   28.8515 H   0  0  0  0  0  0  0  0  0  0  0  0
  -20.8286    3.4754   25.5554 H   0  0  0  0  0  0  0  0  0  0  0  0
  -21.5145    3.1370   21.3120 H   0  0  0  0  0  0  0  0  0  0  0  0
  -22.8973    1.0876   21.7037 H   0  0  0  0  0  0  0  0  0  0  0  0
  -25.4255    1.6348   23.9720 H   0  0  0  0  0  0  0  0  0  0  0  0
  -27.8000   -0.8989   21.6627 H   0  0  0  0  0  0  0  0  0  0  0  0
  -24.2441   -4.3695   22.1188 H   0  0  0  0  0  0  0  0  0  0  0  0
  -24.0715   -3.5659   20.6920 H   0  0  0  0  0  0  0  0  0  0  0  0
  -21.7961   -1.3328   22.6856 H   0  0  0  0  0  0  0  0  0  0  0  0
  -22.0651   -2.2119   24.0515 H   0  0  0  0  0  0  0  0  0  0  0  0
  -21.5865   -2.4659   20.2510 H   0  0  0  0  0  0  0  0  0  0  0  0
  -20.1966   -3.1318   21.1951 H   0  0  0  0  0  0  0  0  0  0  0  0
  -22.2308   -4.7125   19.5778 H   0  0  0  0  0  0  0  0  0  0  0  0
  -20.4874   -4.4021   19.1709 H   0  0  0  0  0  0  0  0  0  0  0  0
  -20.6397   -4.5570   23.1985 H   0  0  0  0  0  0  0  0  0  0  0  0
  -22.3643   -4.9074   23.6542 H   0  0  0  0  0  0  0  0  0  0  0  0
  -21.2468   -6.8165   22.5536 H   0  0  0  0  0  0  0  0  0  0  0  0
  -22.6814   -6.1855   21.6475 H   0  0  0  0  0  0  0  0  0  0  0  0
  -19.8239   -5.6520   21.0261 H   0  0  0  0  0  0  0  0  0  0  0  0
  -21.9491   -7.4207   20.0283 H   0  0  0  0  0  0  0  0  0  0  0  0
  -20.7525   -6.6936   18.8513 H   0  0  0  0  0  0  0  0  0  0  0  0
  -18.9512   -7.5994   20.3338 H   0  0  0  0  0  0  0  0  0  0  0  0
  -20.1769   -8.0748   22.3533 H   0  0  0  0  0  0  0  0  0  0  0  0
  -21.2123   -9.2748   21.4573 H   0  0  0  0  0  0  0  0  0  0  0  0
  -18.2386   -9.4773   22.0489 H   0  0  0  0  0  0  0  0  0  0  0  0
  -19.5843  -10.4849   22.7187 H   0  0  0  0  0  0  0  0  0  0  0  0
  -20.7780   -9.5896   18.9098 H   0  0  0  0  0  0  0  0  0  0  0  0
  -19.4915   -8.5652   18.1597 H   0  0  0  0  0  0  0  0  0  0  0  0
  -18.7388  -10.9037   18.5604 H   0  0  0  0  0  0  0  0  0  0  0  0
  -17.7802   -9.6846   19.4842 H   0  0  0  0  0  0  0  0  0  0  0  0
  -20.0777  -11.3678   20.5649 H   0  0  0  0  0  0  0  0  0  0  0  0
  -17.6295  -12.1076   20.0397 H   0  0  0  0  0  0  0  0  0  0  0  0
  -20.4475  -14.4298   21.9863 H   0  0  0  0  0  0  0  0  0  0  0  0
  -20.6275  -12.7648   21.2632 H   0  0  0  0  0  0  0  0  0  0  0  0
  -20.5041  -15.3671   19.9531 H   0  0  0  0  0  0  0  0  0  0  0  0
  -21.0081  -13.7640   19.3184 H   0  0  0  0  0  0  0  0  0  0  0  0
  -19.2719  -14.2245   19.3184 H   0  0  0  0  0  0  0  0  0  0  0  0
  2  1  1  0
  2  3  1  0
  2  4  1  0
  4  5  1  0
  4  7  1  0
  5  6  1  0
  7  8  2  0
  7  9  1  0
  9 10  2  0
  9 15  1  0
 10 11  1  0
 11 12  1  0
 11 13  2  0
 13 14  1  0
 14 15  2  0
 15 16  1  0
 16 17  1  0
 17 18  2  0
 17 22  1  0
 18 19  1  0
 19 20  2  0
 20 21  1  0
 21 22  2  0
 22 23  1  0
 23 24  1  0
 23 25  1  0
 26 24  1  6
 25 26  1  0
 26 27  1  0
 26 29  1  0
 27 28  1  0
 28 31  1  0
 29 30  1  0
 30 31  1  0
 31 32  1  0
 33 32  1  0
 33 34  1  0
 33 36  1  0
 34 35  1  0
 35 38  1  0
 36 37  1  0
 37 38  1  0
 38 39  1  0
 40 39  1  6
 40 41  2  0
 40 42  2  0
 40 43  1  0
 43 44  1  0
  1 45  1  0
  1 46  1  0
  1 47  1  0
  2 48  1  6
  3 49  1  0
  3 50  1  0
  3 51  1  0
  5 52  1  0
  5 53  1  0
  6 54  1  0
  6 55  1  0
  6 56  1  0
 10 57  1  0
 13 58  1  0
 14 59  1  0
 18 60  1  0
 20 61  1  0
 24 62  1  0
 24 63  1  0
 25 64  1  0
 25 65  1  0
 27 66  1  0
 27 67  1  0
 28 68  1  0
 28 69  1  0
 29 70  1  0
 29 71  1  0
 30 72  1  0
 30 73  1  0
 31 74  1  1
 32 75  1  0
 32 76  1  0
 33 77  1  1
 34 78  1  0
 34 79  1  0
 35 80  1  0
 35 81  1  0
 36 82  1  0
 36 83  1  0
 37 84  1  0
 37 85  1  0
 38 86  1  6
 39 87  1  0
 43 88  1  0
 43 89  1  0
 44 90  1  0
 44 91  1  0
 44 92  1  0
M  CHG  1  31   1
M  END
>  <filename_input>  (5) 
7UJ4_OQ4_docked.sdf

>  <pdb_id>  (5) 
7UJ4_OQ4

>  <pose_rank>  (5) 
4

>  <num_atoms_heavy>  (5) 
44

>  <num_torsions>  (5) 
10

>  <pose>  (5) 
[-24.550035053600542, -0.22497168463770073, 23.36442336203228, -0.2461863472228462, 1.2876231852365212, 1.0950023909359548, -1.3876359419587159, -5.387020361860627, -0.9015390512146375, -0.6222177629646477, -6.972955955506027, 1.4832557234956596, 0.360872206643935, -0.3484723851267772, 1.7396905392176025, -1.0166631198620326]

>  <energy>  (5) 
-618.3810501852797

>  <inter_energy>  (5) 
-688.474807771443

>  <intra_energy>  (5) 
76.66164119059607

>  <rmsd>  (5) 
4.31342

>  <sdf_rank>  (5) 
0

$$$$

     RDKit          3D

 92 96  0  0  0  0  0  0  0  0999 V2000
  -18.6751    4.9781   25.0251 C   0  0  0  0  0  0  0  0  0  0  0  0
  -19.3915    3.9364   24.1948 C   0  0  2  0  0  0  0  0  0  0  0  0
  -20.8898    4.0992   24.1832 C   0  0  0  0  0  0  0  0  0  0  0  0
  -19.0107    2.5882   24.6345 N   0  0  0  0  0  0  0  0  0  0  0  0
  -17.9771    1.9356   23.8174 C   0  0  0  0  0  0  0  0  0  0  0  0
  -18.4905    1.4182   22.5065 C   0  0  0  0  0  0  0  0  0  0  0  0
  -19.6078    1.9429   25.6528 C   0  0  0  0  0  0  0  0  0  0  0  0
  -19.3612    0.7601   25.8427 O   0  0  0  0  0  0  0  0  0  0  0  0
  -20.5736    2.6199   26.6117 C   0  0  0  0  0  0  0  0  0  0  0  0
  -20.1986    3.6933   27.4215 C   0  0  0  0  0  0  0  0  0  0  0  0
  -21.1532    4.2838   28.2120 C   0  0  0  0  0  0  0  0  0  0  0  0
  -20.8034    5.3283   28.9937 F   0  0  0  0  0  0  0  0  0  0  0  0
  -22.4647    3.8747   28.2696 C   0  0  0  0  0  0  0  0  0  0  0  0
  -22.8314    2.7964   27.4876 C   0  0  0  0  0  0  0  0  0  0  0  0
  -21.8883    2.1578   26.7120 C   0  0  0  0  0  0  0  0  0  0  0  0
  -22.2843    1.1065   25.8991 O   0  0  0  0  0  0  0  0  0  0  0  0
  -22.9432    1.3010   24.7319 C   0  0  0  0  0  0  0  0  0  0  0  0
  -23.6418    2.4686   24.5557 C   0  0  0  0  0  0  0  0  0  0  0  0
  -24.2948    2.6902   23.4328 N   0  0  0  0  0  0  0  0  0  0  0  0
  -24.2931    1.7199   22.5119 C   0  0  0  0  0  0  0  0  0  0  0  0
  -23.5918    0.5838   22.5905 N   0  0  0  0  0  0  0  0  0  0  0  0
  -22.9379    0.3493   23.7199 C   0  0  0  0  0  0  0  0  0  0  0  0
  -22.1967   -0.7821   23.8291 N   0  0  0  0  0  0  0  0  0  0  0  0
  -21.9577   -1.8149   22.8350 C   0  0  0  0  0  0  0  0  0  0  0  0
  -21.2602   -1.1876   24.8708 C   0  0  0  0  0  0  0  0  0  0  0  0
  -20.8281   -2.3108   23.8380 C   0  0  2  0  0  0  0  0  0  0  0  0
  -19.4101   -2.2189   23.2758 C   0  0  0  0  0  0  0  0  0  0  0  0
  -19.1842   -3.2619   22.2052 C   0  0  0  0  0  0  0  0  0  0  0  0
  -21.0490   -3.7273   24.3613 C   0  0  0  0  0  0  0  0  0  0  0  0
  -20.8218   -4.7733   23.2981 C   0  0  0  0  0  0  0  0  0  0  0  0
  -19.4519   -4.6581   22.7044 N   0  0  1  0  0  0  0  0  0  0  0  0
  -19.3429   -5.6453   21.5833 C   0  0  0  0  0  0  0  0  0  0  0  0
  -19.3565   -7.1039   22.0422 C   0  0  1  0  0  0  0  0  0  0  0  0
  -20.0779   -8.0320   21.0541 C   0  0  0  0  0  0  0  0  0  0  0  0
  -20.0620   -9.4856   21.4965 C   0  0  0  0  0  0  0  0  0  0  0  0
  -17.9442   -7.6052   22.3356 C   0  0  0  0  0  0  0  0  0  0  0  0
  -17.9685   -9.0450   22.8277 C   0  0  0  0  0  0  0  0  0  0  0  0
  -18.6562   -9.9465   21.8152 C   0  0  1  0  0  0  0  0  0  0  0  0
  -18.6725  -11.3231   22.3397 N   0  0  0  0  0  0  0  0  0  0  0  0
  -18.1086  -12.6024   21.5000 S   0  0  1  0  0  0  0  0  0  0  0  0
  -18.2724  -12.2376   20.1251 O   0  0  0  0  0  0  0  0  0  0  0  0
  -16.7923  -12.8801   22.0006 O   0  0  0  0  0  0  0  0  0  0  0  0
  -19.2002  -13.9602   21.8880 C   0  0  0  0  0  0  0  0  0  0  0  0
  -19.6138  -13.9940   23.3454 C   0  0  0  0  0  0  0  0  0  0  0  0
  -18.8241    4.7616   26.0932 H   0  0  0  0  0  0  0  0  0  0  0  0
  -17.6001    4.9563   24.7929 H   0  0  0  0  0  0  0  0  0  0  0  0
  -19.0803    5.9741   24.7929 H   0  0  0  0  0  0  0  0  0  0  0  0
  -19.0682    4.0866   23.1541 H   0  0  0  0  0  0  0  0  0  0  0  0
  -21.2622    4.1397   25.2175 H   0  0  0  0  0  0  0  0  0  0  0  0
  -21.1533    5.0313   23.6619 H   0  0  0  0  0  0  0  0  0  0  0  0
  -21.3474    3.2455   23.6619 H   0  0  0  0  0  0  0  0  0  0  0  0
  -17.1799    2.6662   23.6154 H   0  0  0  0  0  0  0  0  0  0  0  0
  -17.6127    1.0685   24.3877 H   0  0  0  0  0  0  0  0  0  0  0  0
  -19.2545    0.6484   22.6901 H   0  0  0  0  0  0  0  0  0  0  0  0
  -18.9343    2.2461   21.9341 H   0  0  0  0  0  0  0  0  0  0  0  0
  -17.6593    0.9807   21.9341 H   0  0  0  0  0  0  0  0  0  0  0  0
  -19.1609    4.0581   27.4261 H   0  0  0  0  0  0  0  0  0  0  0  0
  -23.1944    4.3867   28.9141 H   0  0  0  0  0  0  0  0  0  0  0  0
  -23.8749    2.4482   27.4841 H   0  0  0  0  0  0  0  0  0  0  0  0
  -23.6569    3.2235   25.3558 H   0  0  0  0  0  0  0  0  0  0  0  0
  -24.9182    1.8682   21.6190 H   0  0  0  0  0  0  0  0  0  0  0  0
  -22.7891   -2.5182   22.6794 H   0  0  0  0  0  0  0  0  0  0  0  0
  -21.7679   -1.5973   21.7735 H   0  0  0  0  0  0  0  0  0  0  0  0
  -20.4816   -0.4500   25.1153 H   0  0  0  0  0  0  0  0  0  0  0  0
  -21.5659   -1.4050   25.9048 H   0  0  0  0  0  0  0  0  0  0  0  0
  -19.2590   -1.2194   22.8420 H   0  0  0  0  0  0  0  0  0  0  0  0
  -18.6962   -2.3955   24.0938 H   0  0  0  0  0  0  0  0  0  0  0  0
  -19.8564   -3.0530   21.3600 H   0  0  0  0  0  0  0  0  0  0  0  0
  -18.1286   -3.2092   21.9002 H   0  0  0  0  0  0  0  0  0  0  0  0
  -20.3515   -3.9102   25.1920 H   0  0  0  0  0  0  0  0  0  0  0  0
  -22.0957   -3.8046   24.6906 H   0  0  0  0  0  0  0  0  0  0  0  0
  -20.9347   -5.7711   23.7473 H   0  0  0  0  0  0  0  0  0  0  0  0
  -21.5607   -4.6205   22.4977 H   0  0  0  0  0  0  0  0  0  0  0  0
  -18.7478   -4.8600   23.4285 H   0  0  0  0  0  0  0  0  0  0  0  0
  -20.1904   -5.4889   20.8998 H   0  0  0  0  0  0  0  0  0  0  0  0
  -18.3719   -5.4716   21.0966 H   0  0  0  0  0  0  0  0  0  0  0  0
  -19.9341   -7.1303   22.9780 H   0  0  0  0  0  0  0  0  0  0  0  0
  -21.1237   -7.7035   20.9623 H   0  0  0  0  0  0  0  0  0  0  0  0
  -19.5466   -7.9714   20.0929 H   0  0  0  0  0  0  0  0  0  0  0  0
  -20.6872   -9.5939   22.3951 H   0  0  0  0  0  0  0  0  0  0  0  0
  -20.4528  -10.1036   20.6747 H   0  0  0  0  0  0  0  0  0  0  0  0
  -17.3442   -7.5497   21.4152 H   0  0  0  0  0  0  0  0  0  0  0  0
  -17.5038   -6.9735   23.1210 H   0  0  0  0  0  0  0  0  0  0  0  0
  -16.9358   -9.3927   22.9784 H   0  0  0  0  0  0  0  0  0  0  0  0
  -18.5265   -9.0860   23.7748 H   0  0  0  0  0  0  0  0  0  0  0  0
  -18.0900   -9.9037   20.8730 H   0  0  0  0  0  0  0  0  0  0  0  0
  -18.1319  -11.2989   23.2161 H   0  0  0  0  0  0  0  0  0  0  0  0
  -20.1052  -13.8692   21.2695 H   0  0  0  0  0  0  0  0  0  0  0  0
  -18.6513  -14.8909   21.6816 H   0  0  0  0  0  0  0  0  0  0  0  0
  -18.7198  -13.9208   23.9820 H   0  0  0  0  0  0  0  0  0  0  0  0
  -20.2842  -13.1477   23.5560 H   0  0  0  0  0  0  0  0  0  0  0  0
  -20.1377  -14.9380   23.5560 H   0  0  0  0  0  0  0  0  0  0  0  0
  2  1  1  0
  2  3  1  0
  2  4  1  0
  4  5  1  0
  4  7  1  0
  5  6  1  0
  7  8  2  0
  7  9  1  0
  9 10  2  0
  9 15  1  0
 10 11  1  0
 11 12  1  0
 11 13  2  0
 13 14  1  0
 14 15  2  0
 15 16  1  0
 16 17  1  0
 17 18  2  0
 17 22  1  0
 18 19  1  0
 19 20  2  0
 20 21  1  0
 21 22  2  0
 22 23  1  0
 23 24  1  0
 23 25  1  0
 26 24  1  6
 25 26  1  0
 26 27  1  0
 26 29  1  0
 27 28  1  0
 28 31  1  0
 29 30  1  0
 30 31  1  0
 31 32  1  0
 33 32  1  0
 33 34  1  0
 33 36  1  0
 34 35  1  0
 35 38  1  0
 36 37  1  0
 37 38  1  0
 38 39  1  0
 40 39  1  1
 40 41  2  0
 40 42  2  0
 40 43  1  0
 43 44  1  0
  1 45  1  0
  1 46  1  0
  1 47  1  0
  2 48  1  6
  3 49  1  0
  3 50  1  0
  3 51  1  0
  5 52  1  0
  5 53  1  0
  6 54  1  0
  6 55  1  0
  6 56  1  0
 10 57  1  0
 13 58  1  0
 14 59  1  0
 18 60  1  0
 20 61  1  0
 24 62  1  0
 24 63  1  0
 25 64  1  0
 25 65  1  0
 27 66  1  0
 27 67  1  0
 28 68  1  0
 28 69  1  0
 29 70  1  0
 29 71  1  0
 30 72  1  0
 30 73  1  0
 31 74  1  1
 32 75  1  0
 32 76  1  0
 33 77  1  1
 34 78  1  0
 34 79  1  0
 35 80  1  0
 35 81  1  0
 36 82  1  0
 36 83  1  0
 37 84  1  0
 37 85  1  0
 38 86  1  6
 39 87  1  0
 43 88  1  0
 43 89  1  0
 44 90  1  0
 44 91  1  0
 44 92  1  0
M  CHG  1  31   1
M  END
>  <filename_input>  (6) 
7UJ4_OQ4_docked.sdf

>  <pdb_id>  (6) 
7UJ4_OQ4

>  <pose_rank>  (6) 
5

>  <num_atoms_heavy>  (6) 
44

>  <num_torsions>  (6) 
10

>  <pose>  (6) 
[-22.943157232774038, 1.3009888122683049, 24.731875547245263, 0.7961606876850772, -3.186654354645875, -3.960967916171471, -0.8304530287935058, 2.9858037066876624, 3.724651750423889, 3.1857579018478157, -3.3733381005343275, 1.8511001224959507, 1.6255347931438453, -0.03279184795483408, -1.240583795197136, 3.1540175962290484]

>  <energy>  (6) 
-731.6287322395981

>  <inter_energy>  (6) 
-850.0605781188676

>  <intra_energy>  (6) 
118.3995263966128

>  <rmsd>  (6) 
2.79674

>  <sdf_rank>  (6) 
0

$$$$

     RDKit          3D

 92 96  0  0  0  0  0  0  0  0999 V2000
  -22.2222    4.4094   25.5631 C   0  0  0  0  0  0  0  0  0  0  0  0
  -21.5099    3.0754   25.5301 C   0  0  2  0  0  0  0  0  0  0  0  0
  -20.5205    2.8914   26.6520 C   0  0  0  0  0  0  0  0  0  0  0  0
  -20.8698    2.8749   24.2239 N   0  0  0  0  0  0  0  0  0  0  0  0
  -19.4819    3.3515   24.1311 C   0  0  0  0  0  0  0  0  0  0  0  0
  -18.4812    2.2471   23.9620 C   0  0  0  0  0  0  0  0  0  0  0  0
  -21.5101    2.3737   23.1522 C   0  0  0  0  0  0  0  0  0  0  0  0
  -20.9662    2.4054   22.0572 O   0  0  0  0  0  0  0  0  0  0  0  0
  -22.8891    1.7388   23.2314 C   0  0  0  0  0  0  0  0  0  0  0  0
  -24.0482    2.4861   23.4467 C   0  0  0  0  0  0  0  0  0  0  0  0
  -25.2580    1.8370   23.4414 C   0  0  0  0  0  0  0  0  0  0  0  0
  -26.3868    2.5513   23.6408 F   0  0  0  0  0  0  0  0  0  0  0  0
  -25.4034    0.4832   23.2497 C   0  0  0  0  0  0  0  0  0  0  0  0
  -24.2550   -0.2615   23.0615 C   0  0  0  0  0  0  0  0  0  0  0  0
  -23.0229    0.3544   23.0994 C   0  0  0  0  0  0  0  0  0  0  0  0
  -21.8844   -0.4012   22.8631 O   0  0  0  0  0  0  0  0  0  0  0  0
  -21.2906   -1.1395   23.8309 C   0  0  0  0  0  0  0  0  0  0  0  0
  -21.2051   -0.6197   25.0978 C   0  0  0  0  0  0  0  0  0  0  0  0
  -20.6330   -1.3106   26.0632 N   0  0  0  0  0  0  0  0  0  0  0  0
  -20.0988   -2.4954   25.7460 C   0  0  0  0  0  0  0  0  0  0  0  0
  -20.1926   -3.0881   24.5507 N   0  0  0  0  0  0  0  0  0  0  0  0
  -20.7600   -2.3969   23.5717 C   0  0  0  0  0  0  0  0  0  0  0  0
  -20.8939   -2.9732   22.3504 N   0  0  0  0  0  0  0  0  0  0  0  0
  -20.5327   -4.3173   21.9321 C   0  0  0  0  0  0  0  0  0  0  0  0
  -21.6222   -2.5107   21.1748 C   0  0  0  0  0  0  0  0  0  0  0  0
  -21.3853   -3.9820   20.6326 C   0  0  2  0  0  0  0  0  0  0  0  0
  -22.6252   -4.8577   20.4565 C   0  0  0  0  0  0  0  0  0  0  0  0
  -22.2409   -6.2682   20.0724 C   0  0  0  0  0  0  0  0  0  0  0  0
  -20.5768   -4.0242   19.3389 C   0  0  0  0  0  0  0  0  0  0  0  0
  -20.1930   -5.4300   18.9483 C   0  0  0  0  0  0  0  0  0  0  0  0
  -21.3986   -6.3093   18.8238 N   0  0  1  0  0  0  0  0  0  0  0  0
  -20.9330   -7.7066   18.5515 C   0  0  0  0  0  0  0  0  0  0  0  0
  -20.3199   -8.4007   19.7683 C   0  0  1  0  0  0  0  0  0  0  0  0
  -21.0999   -9.6528   20.1950 C   0  0  0  0  0  0  0  0  0  0  0  0
  -20.4705  -10.3588   21.3842 C   0  0  0  0  0  0  0  0  0  0  0  0
  -18.8456   -8.7244   19.5366 C   0  0  0  0  0  0  0  0  0  0  0  0
  -18.2324   -9.3806   20.7651 C   0  0  0  0  0  0  0  0  0  0  0  0
  -19.0022  -10.6356   21.1435 C   0  0  1  0  0  0  0  0  0  0  0  0
  -18.3863  -11.2260   22.3446 N   0  0  0  0  0  0  0  0  0  0  0  0
  -18.0487  -12.8156   22.4821 S   0  0  1  0  0  0  0  0  0  0  0  0
  -16.6838  -12.9363   22.0663 O   0  0  0  0  0  0  0  0  0  0  0  0
  -18.4134  -13.2037   23.8150 O   0  0  0  0  0  0  0  0  0  0  0  0
  -19.1037  -13.6421   21.3034 C   0  0  0  0  0  0  0  0  0  0  0  0
  -20.3719  -14.1931   21.9231 C   0  0  0  0  0  0  0  0  0  0  0  0
  -22.3842    4.7128   26.6079 H   0  0  0  0  0  0  0  0  0  0  0  0
  -21.6079    5.1658   25.0526 H   0  0  0  0  0  0  0  0  0  0  0  0
  -23.1924    4.3197   25.0526 H   0  0  0  0  0  0  0  0  0  0  0  0
  -22.2792    2.3041   25.6827 H   0  0  0  0  0  0  0  0  0  0  0  0
  -21.0388    2.9878   27.6174 H   0  0  0  0  0  0  0  0  0  0  0  0
  -20.0646    1.8930   26.5787 H   0  0  0  0  0  0  0  0  0  0  0  0
  -19.7360    3.6590   26.5787 H   0  0  0  0  0  0  0  0  0  0  0  0
  -19.4030    4.0283   23.2675 H   0  0  0  0  0  0  0  0  0  0  0  0
  -19.2489    3.8575   25.0796 H   0  0  0  0  0  0  0  0  0  0  0  0
  -18.1581    1.8904   24.9512 H   0  0  0  0  0  0  0  0  0  0  0  0
  -18.9414    1.4173   23.4055 H   0  0  0  0  0  0  0  0  0  0  0  0
  -17.6103    2.6234   23.4055 H   0  0  0  0  0  0  0  0  0  0  0  0
  -23.9936    3.5715   23.6169 H   0  0  0  0  0  0  0  0  0  0  0  0
  -26.3968    0.0108   23.2462 H   0  0  0  0  0  0  0  0  0  0  0  0
  -24.3241   -1.3445   22.8818 H   0  0  0  0  0  0  0  0  0  0  0  0
  -21.6160    0.3787   25.3087 H   0  0  0  0  0  0  0  0  0  0  0  0
  -19.5378   -3.0241   26.5306 H   0  0  0  0  0  0  0  0  0  0  0  0
  -19.4590   -4.4828   21.7595 H   0  0  0  0  0  0  0  0  0  0  0  0
  -20.7059   -5.2087   22.5531 H   0  0  0  0  0  0  0  0  0  0  0  0
  -22.6735   -2.2386   21.3507 H   0  0  0  0  0  0  0  0  0  0  0  0
  -21.3447   -1.6083   20.6103 H   0  0  0  0  0  0  0  0  0  0  0  0
  -23.1857   -4.8824   21.4027 H   0  0  0  0  0  0  0  0  0  0  0  0
  -23.2445   -4.4317   19.6534 H   0  0  0  0  0  0  0  0  0  0  0  0
  -21.6710   -6.7175   20.8990 H   0  0  0  0  0  0  0  0  0  0  0  0
  -23.1668   -6.8278   19.8734 H   0  0  0  0  0  0  0  0  0  0  0  0
  -21.1798   -3.5848   18.5306 H   0  0  0  0  0  0  0  0  0  0  0  0
  -19.6494   -3.4559   19.5034 H   0  0  0  0  0  0  0  0  0  0  0  0
  -19.6683   -5.4026   17.9818 H   0  0  0  0  0  0  0  0  0  0  0  0
  -19.5422   -5.8427   19.7333 H   0  0  0  0  0  0  0  0  0  0  0  0
  -21.9889   -5.9719   18.0501 H   0  0  0  0  0  0  0  0  0  0  0  0
  -21.7950   -8.2994   18.2117 H   0  0  0  0  0  0  0  0  0  0  0  0
  -20.1425   -7.6382   17.7896 H   0  0  0  0  0  0  0  0  0  0  0  0
  -20.3903   -7.6867   20.6021 H   0  0  0  0  0  0  0  0  0  0  0  0
  -22.1239   -9.3547   20.4643 H   0  0  0  0  0  0  0  0  0  0  0  0
  -21.0900  -10.3550   19.3483 H   0  0  0  0  0  0  0  0  0  0  0  0
  -20.5741   -9.7221   22.2752 H   0  0  0  0  0  0  0  0  0  0  0  0
  -20.9860  -11.3194   21.5312 H   0  0  0  0  0  0  0  0  0  0  0  0
  -18.7579   -9.4101   18.6809 H   0  0  0  0  0  0  0  0  0  0  0  0
  -18.3080   -7.7862   19.3350 H   0  0  0  0  0  0  0  0  0  0  0  0
  -17.1881   -9.6491   20.5479 H   0  0  0  0  0  0  0  0  0  0  0  0
  -18.2770   -8.6713   21.6047 H   0  0  0  0  0  0  0  0  0  0  0  0
  -18.9492  -11.3413   20.3013 H   0  0  0  0  0  0  0  0  0  0  0  0
  -17.4909  -10.7338   22.4749 H   0  0  0  0  0  0  0  0  0  0  0  0
  -19.3815  -12.9233   20.5183 H   0  0  0  0  0  0  0  0  0  0  0  0
  -18.5387  -14.4954   20.9001 H   0  0  0  0  0  0  0  0  0  0  0  0
  -20.2898  -14.1574   23.0194 H   0  0  0  0  0  0  0  0  0  0  0  0
  -21.2312  -13.5872   21.5999 H   0  0  0  0  0  0  0  0  0  0  0  0
  -20.5154  -15.2347   21.5999 H   0  0  0  0  0  0  0  0  0  0  0  0
  2  1  1  0
  2  3  1  0
  2  4  1  0
  4  5  1  0
  4  7  1  0
  5  6  1  0
  7  8  2  0
  7  9  1  0
  9 10  2  0
  9 15  1  0
 10 11  1  0
 11 12  1  0
 11 13  2  0
 13 14  1  0
 14 15  2  0
 15 16  1  0
 16 17  1  0
 17 18  2  0
 17 22  1  0
 18 19  1  0
 19 20  2  0
 20 21  1  0
 21 22  2  0
 22 23  1  0
 23 24  1  0
 23 25  1  0
 26 24  1  1
 25 26  1  0
 26 27  1  0
 26 29  1  0
 27 28  1  0
 28 31  1  0
 29 30  1  0
 30 31  1  0
 31 32  1  0
 33 32  1  0
 33 34  1  0
 33 36  1  0
 34 35  1  0
 35 38  1  0
 36 37  1  0
 37 38  1  0
 38 39  1  0
 40 39  1  1
 40 41  2  0
 40 42  2  0
 40 43  1  0
 43 44  1  0
  1 45  1  0
  1 46  1  0
  1 47  1  0
  2 48  1  1
  3 49  1  0
  3 50  1  0
  3 51  1  0
  5 52  1  0
  5 53  1  0
  6 54  1  0
  6 55  1  0
  6 56  1  0
 10 57  1  0
 13 58  1  0
 14 59  1  0
 18 60  1  0
 20 61  1  0
 24 62  1  0
 24 63  1  0
 25 64  1  0
 25 65  1  0
 27 66  1  0
 27 67  1  0
 28 68  1  0
 28 69  1  0
 29 70  1  0
 29 71  1  0
 30 72  1  0
 30 73  1  0
 31 74  1  6
 32 75  1  0
 32 76  1  0
 33 77  1  1
 34 78  1  0
 34 79  1  0
 35 80  1  0
 35 81  1  0
 36 82  1  0
 36 83  1  0
 37 84  1  0
 37 85  1  0
 38 86  1  6
 39 87  1  0
 43 88  1  0
 43 89  1  0
 44 90  1  0
 44 91  1  0
 44 92  1  0
M  CHG  1  31   1
M  END
>  <filename_input>  (7) 
7UJ4_OQ4_docked.sdf

>  <pdb_id>  (7) 
7UJ4_OQ4

>  <pose_rank>  (7) 
6

>  <num_atoms_heavy>  (7) 
44

>  <num_torsions>  (7) 
10

>  <pose>  (7) 
[-21.290571080278607, -1.139504357137163, 23.830924536937207, -0.100954493791482, 3.502909250324787, 2.0020737369184096, -7.40496973826698, 6.491073453818758, 12.325719236755774, 0.21591051485290141, -0.07836102284093717, -1.9657614061981243, -5.125939244613477, -0.1468025641844224, 0.8819067411675979, 2.155281349932318]

>  <energy>  (7) 
-640.3997513721308

>  <inter_energy>  (7) 
-676.6834542036801

>  <intra_energy>  (7) 
38.28507687308011

>  <rmsd>  (7) 
4.0517

>  <sdf_rank>  (7) 
0

$$$$

     RDKit          3D

 92 96  0  0  0  0  0  0  0  0999 V2000
  -20.9132  -12.4159   18.9287 C   0  0  0  0  0  0  0  0  0  0  0  0
  -21.4579  -11.2164   19.6720 C   0  0  2  0  0  0  0  0  0  0  0  0
  -22.8879  -10.8899   19.3258 C   0  0  0  0  0  0  0  0  0  0  0  0
  -20.5861  -10.0531   19.4650 N   0  0  0  0  0  0  0  0  0  0  0  0
  -20.9481   -9.1991   18.3241 C   0  0  0  0  0  0  0  0  0  0  0  0
  -20.3213   -9.6316   17.0319 C   0  0  0  0  0  0  0  0  0  0  0  0
  -19.4835   -9.8119   20.1969 C   0  0  0  0  0  0  0  0  0  0  0  0
  -18.7126   -8.9280   19.8500 O   0  0  0  0  0  0  0  0  0  0  0  0
  -19.1468  -10.5765   21.4669 C   0  0  0  0  0  0  0  0  0  0  0  0
  -18.4232  -11.7701   21.4549 C   0  0  0  0  0  0  0  0  0  0  0  0
  -18.1108  -12.3602   22.6545 C   0  0  0  0  0  0  0  0  0  0  0  0
  -17.4041  -13.5112   22.6552 F   0  0  0  0  0  0  0  0  0  0  0  0
  -18.4794  -11.8551   23.8791 C   0  0  0  0  0  0  0  0  0  0  0  0
  -19.2174  -10.6872   23.8915 C   0  0  0  0  0  0  0  0  0  0  0  0
  -19.5797  -10.0907   22.7033 C   0  0  0  0  0  0  0  0  0  0  0  0
  -20.2809   -8.8949   22.7360 O   0  0  0  0  0  0  0  0  0  0  0  0
  -21.6307   -8.8430   22.6366 C   0  0  0  0  0  0  0  0  0  0  0  0
  -22.3596   -9.9569   22.9688 C   0  0  0  0  0  0  0  0  0  0  0  0
  -23.6745   -9.9415   22.8829 N   0  0  0  0  0  0  0  0  0  0  0  0
  -24.2528   -8.8308   22.4120 C   0  0  0  0  0  0  0  0  0  0  0  0
  -23.6136   -7.6922   22.1227 N   0  0  0  0  0  0  0  0  0  0  0  0
  -22.2899   -7.7012   22.1992 C   0  0  0  0  0  0  0  0  0  0  0  0
  -21.6072   -6.5585   21.9351 N   0  0  0  0  0  0  0  0  0  0  0  0
  -22.1264   -5.2419   21.6046 C   0  0  0  0  0  0  0  0  0  0  0  0
  -20.1922   -6.2541   22.1133 C   0  0  0  0  0  0  0  0  0  0  0  0
  -20.6366   -4.7520   21.8660 C   0  0  2  0  0  0  0  0  0  0  0  0
  -20.4937   -3.7899   23.0446 C   0  0  0  0  0  0  0  0  0  0  0  0
  -21.0825   -2.4378   22.7133 C   0  0  0  0  0  0  0  0  0  0  0  0
  -19.9735   -4.1212   20.6447 C   0  0  0  0  0  0  0  0  0  0  0  0
  -20.5547   -2.7696   20.3108 C   0  0  0  0  0  0  0  0  0  0  0  0
  -20.4661   -1.8351   21.4776 N   0  0  1  0  0  0  0  0  0  0  0  0
  -21.1641   -0.5615   21.1115 C   0  0  0  0  0  0  0  0  0  0  0  0
  -20.6748    0.6573   21.8946 C   0  0  1  0  0  0  0  0  0  0  0  0
  -21.4425    0.8685   23.2077 C   0  0  0  0  0  0  0  0  0  0  0  0
  -20.9330    2.0612   23.9995 C   0  0  0  0  0  0  0  0  0  0  0  0
  -19.1697    0.5880   22.1432 C   0  0  0  0  0  0  0  0  0  0  0  0
  -18.6835    1.8218   22.8896 C   0  0  0  0  0  0  0  0  0  0  0  0
  -19.4349    1.9863   24.2008 C   0  0  1  0  0  0  0  0  0  0  0  0
  -18.9456    3.1992   24.8790 N   0  0  0  0  0  0  0  0  0  0  0  0
  -18.3210    3.1861   26.3855 S   0  0  1  0  0  0  0  0  0  0  0  0
  -18.1248    1.8002   26.6874 O   0  0  0  0  0  0  0  0  0  0  0  0
  -17.1893    4.0691   26.3734 O   0  0  0  0  0  0  0  0  0  0  0  0
  -19.5929    3.8507   27.4467 C   0  0  0  0  0  0  0  0  0  0  0  0
  -20.2539    2.7991   28.3147 C   0  0  0  0  0  0  0  0  0  0  0  0
  -20.5704  -13.1707   19.6517 H   0  0  0  0  0  0  0  0  0  0  0  0
  -21.7043  -12.8460   18.2969 H   0  0  0  0  0  0  0  0  0  0  0  0
  -20.0687  -12.1033   18.2969 H   0  0  0  0  0  0  0  0  0  0  0  0
  -21.4640  -11.4837   20.7390 H   0  0  0  0  0  0  0  0  0  0  0  0
  -23.4681  -10.7575   20.2509 H   0  0  0  0  0  0  0  0  0  0  0  0
  -22.9198   -9.9614   18.7369 H   0  0  0  0  0  0  0  0  0  0  0  0
  -23.3196  -11.7126   18.7369 H   0  0  0  0  0  0  0  0  0  0  0  0
  -22.0415   -9.2212   18.2056 H   0  0  0  0  0  0  0  0  0  0  0  0
  -20.5732   -8.1886   18.5440 H   0  0  0  0  0  0  0  0  0  0  0  0
  -19.4326  -10.2447   17.2425 H   0  0  0  0  0  0  0  0  0  0  0  0
  -21.0458  -10.2229   16.4527 H   0  0  0  0  0  0  0  0  0  0  0  0
  -20.0258   -8.7443   16.4527 H   0  0  0  0  0  0  0  0  0  0  0  0
  -18.1100  -12.2278   20.5050 H   0  0  0  0  0  0  0  0  0  0  0  0
  -18.1974  -12.3619   24.8138 H   0  0  0  0  0  0  0  0  0  0  0  0
  -19.5152  -10.2340   24.8486 H   0  0  0  0  0  0  0  0  0  0  0  0
  -21.8439  -10.8672   23.3085 H   0  0  0  0  0  0  0  0  0  0  0  0
  -25.3405   -8.8561   22.2499 H   0  0  0  0  0  0  0  0  0  0  0  0
  -22.4848   -5.1244   20.5713 H   0  0  0  0  0  0  0  0  0  0  0  0
  -23.0025   -4.7979   22.0999 H   0  0  0  0  0  0  0  0  0  0  0  0
  -19.7889   -6.4657   23.1147 H   0  0  0  0  0  0  0  0  0  0  0  0
  -19.3928   -6.7482   21.5417 H   0  0  0  0  0  0  0  0  0  0  0  0
  -21.0193   -4.2076   23.9159 H   0  0  0  0  0  0  0  0  0  0  0  0
  -19.4237   -3.6620   23.2655 H   0  0  0  0  0  0  0  0  0  0  0  0
  -22.1641   -2.5531   22.5493 H   0  0  0  0  0  0  0  0  0  0  0  0
  -20.8749   -1.7634   23.5572 H   0  0  0  0  0  0  0  0  0  0  0  0
  -18.8987   -4.0037   20.8471 H   0  0  0  0  0  0  0  0  0  0  0  0
  -20.1507   -4.7848   19.7856 H   0  0  0  0  0  0  0  0  0  0  0  0
  -19.9987   -2.3397   19.4646 H   0  0  0  0  0  0  0  0  0  0  0  0
  -21.6157   -2.9024   20.0526 H   0  0  0  0  0  0  0  0  0  0  0  0
  -19.4758   -1.6510   21.6932 H   0  0  0  0  0  0  0  0  0  0  0  0
  -21.0024   -0.3730   20.0399 H   0  0  0  0  0  0  0  0  0  0  0  0
  -22.2273   -0.6961   21.3595 H   0  0  0  0  0  0  0  0  0  0  0  0
  -20.8812    1.5352   21.2647 H   0  0  0  0  0  0  0  0  0  0  0  0
  -22.5047    1.0302   22.9722 H   0  0  0  0  0  0  0  0  0  0  0  0
  -21.2950   -0.0287   23.8267 H   0  0  0  0  0  0  0  0  0  0  0  0
  -21.1757    2.9845   23.4530 H   0  0  0  0  0  0  0  0  0  0  0  0
  -21.4174    2.0556   24.9871 H   0  0  0  0  0  0  0  0  0  0  0  0
  -18.9448   -0.3068   22.7422 H   0  0  0  0  0  0  0  0  0  0  0  0
  -18.6556    0.5404   21.1719 H   0  0  0  0  0  0  0  0  0  0  0  0
  -17.6089    1.7167   23.0997 H   0  0  0  0  0  0  0  0  0  0  0  0
  -18.8647    2.7083   22.2641 H   0  0  0  0  0  0  0  0  0  0  0  0
  -19.2451    1.0987   24.8222 H   0  0  0  0  0  0  0  0  0  0  0  0
  -18.2104    3.5870   24.2708 H   0  0  0  0  0  0  0  0  0  0  0  0
  -19.1409    4.6107   28.1010 H   0  0  0  0  0  0  0  0  0  0  0  0
  -20.3721    4.2762   26.7972 H   0  0  0  0  0  0  0  0  0  0  0  0
  -20.0978    3.0475   29.3748 H   0  0  0  0  0  0  0  0  0  0  0  0
  -21.3324    2.7711   28.0996 H   0  0  0  0  0  0  0  0  0  0  0  0
  -19.8116    1.8152   28.0996 H   0  0  0  0  0  0  0  0  0  0  0  0
  2  1  1  0
  2  3  1  0
  2  4  1  0
  4  5  1  0
  4  7  1  0
  5  6  1  0
  7  8  2  0
  7  9  1  0
  9 10  2  0
  9 15  1  0
 10 11  1  0
 11 12  1  0
 11 13  2  0
 13 14  1  0
 14 15  2  0
 15 16  1  0
 16 17  1  0
 17 18  2  0
 17 22  1  0
 18 19  1  0
 19 20  2  0
 20 21  1  0
 21 22  2  0
 22 23  1  0
 23 24  1  0
 23 25  1  0
 26 24  1  6
 25 26  1  0
 26 27  1  0
 26 29  1  0
 27 28  1  0
 28 31  1  0
 29 30  1  0
 30 31  1  0
 31 32  1  0
 33 32  1  0
 33 34  1  0
 33 36  1  0
 34 35  1  0
 35 38  1  0
 36 37  1  0
 37 38  1  0
 38 39  1  0
 40 39  1  6
 40 41  2  0
 40 42  2  0
 40 43  1  0
 43 44  1  0
  1 45  1  0
  1 46  1  0
  1 47  1  0
  2 48  1  1
  3 49  1  0
  3 50  1  0
  3 51  1  0
  5 52  1  0
  5 53  1  0
  6 54  1  0
  6 55  1  0
  6 56  1  0
 10 57  1  0
 13 58  1  0
 14 59  1  0
 18 60  1  0
 20 61  1  0
 24 62  1  0
 24 63  1  0
 25 64  1  0
 25 65  1  0
 27 66  1  0
 27 67  1  0
 28 68  1  0
 28 69  1  0
 29 70  1  0
 29 71  1  0
 30 72  1  0
 30 73  1  0
 31 74  1  1
 32 75  1  0
 32 76  1  0
 33 77  1  6
 34 78  1  0
 34 79  1  0
 35 80  1  0
 35 81  1  0
 36 82  1  0
 36 83  1  0
 37 84  1  0
 37 85  1  0
 38 86  1  1
 39 87  1  0
 43 88  1  0
 43 89  1  0
 44 90  1  0
 44 91  1  0
 44 92  1  0
M  CHG  1  31   1
M  END
>  <filename_input>  (8) 
7UJ4_OQ4_docked.sdf

>  <pdb_id>  (8) 
7UJ4_OQ4

>  <pose_rank>  (8) 
7

>  <num_atoms_heavy>  (8) 
44

>  <num_torsions>  (8) 
10

>  <pose>  (8) 
[-21.63065700578494, -8.842991961094887, 22.63655278950029, -1.678467065429491, 0.5137102719827593, -2.9174786177230514, 6.2520407671061955, -0.02824109610957081, 0.0391069701276299, 0.22529648299369187, 2.696877094806217, 0.32715839320671186, -2.454463341918047, 0.036658094541890444, -0.554780989849934, -0.5650905617748476]

>  <energy>  (8) 
-648.8540275304957

>  <inter_energy>  (8) 
-680.161634182308

>  <intra_energy>  (8) 
31.98165016981167

>  <rmsd>  (8) 
12.5422

>  <sdf_rank>  (8) 
0

$$$$

     RDKit          3D

 92 96  0  0  0  0  0  0  0  0999 V2000
  -20.2529    3.9248   23.5953 C   0  0  0  0  0  0  0  0  0  0  0  0
  -20.4447    2.4398   23.8093 C   0  0  2  0  0  0  0  0  0  0  0  0
  -21.4974    1.8324   22.9180 C   0  0  0  0  0  0  0  0  0  0  0  0
  -20.7273    2.1639   25.2235 N   0  0  0  0  0  0  0  0  0  0  0  0
  -19.6349    1.5122   25.9610 C   0  0  0  0  0  0  0  0  0  0  0  0
  -19.6107    0.0214   25.7985 C   0  0  0  0  0  0  0  0  0  0  0  0
  -21.9180    2.4013   25.8028 C   0  0  0  0  0  0  0  0  0  0  0  0
  -22.1330    1.9798   26.9307 O   0  0  0  0  0  0  0  0  0  0  0  0
  -23.0242    3.1977   25.1298 C   0  0  0  0  0  0  0  0  0  0  0  0
  -22.9407    4.5765   24.9289 C   0  0  0  0  0  0  0  0  0  0  0  0
  -23.9596    5.2045   24.2563 C   0  0  0  0  0  0  0  0  0  0  0  0
  -23.8857    6.5371   24.0493 F   0  0  0  0  0  0  0  0  0  0  0  0
  -25.0749    4.5604   23.7746 C   0  0  0  0  0  0  0  0  0  0  0  0
  -25.1708    3.1999   23.9949 C   0  0  0  0  0  0  0  0  0  0  0  0
  -24.1832    2.5467   24.6999 C   0  0  0  0  0  0  0  0  0  0  0  0
  -24.2738    1.1737   24.8716 O   0  0  0  0  0  0  0  0  0  0  0  0
  -25.1996    0.6036   25.6792 C   0  0  0  0  0  0  0  0  0  0  0  0
  -26.1216    1.4101   26.2974 C   0  0  0  0  0  0  0  0  0  0  0  0
  -27.0359    0.8888   27.0903 N   0  0  0  0  0  0  0  0  0  0  0  0
  -26.9908   -0.4307   27.3064 C   0  0  0  0  0  0  0  0  0  0  0  0
  -26.1598   -1.2836   26.6976 N   0  0  0  0  0  0  0  0  0  0  0  0
  -25.2318   -0.7669   25.9039 C   0  0  0  0  0  0  0  0  0  0  0  0
  -24.3845   -1.6018   25.2508 N   0  0  0  0  0  0  0  0  0  0  0  0
  -24.3573   -3.0548   25.2493 C   0  0  0  0  0  0  0  0  0  0  0  0
  -23.4094   -1.3120   24.2059 C   0  0  0  0  0  0  0  0  0  0  0  0
  -23.3540   -2.8868   24.0273 C   0  0  2  0  0  0  0  0  0  0  0  0
  -23.8796   -3.4478   22.7066 C   0  0  0  0  0  0  0  0  0  0  0  0
  -23.8981   -4.9590   22.7302 C   0  0  0  0  0  0  0  0  0  0  0  0
  -21.9687   -3.4736   24.2839 C   0  0  0  0  0  0  0  0  0  0  0  0
  -21.9801   -4.9821   24.3054 C   0  0  0  0  0  0  0  0  0  0  0  0
  -22.5421   -5.5409   23.0348 N   0  0  1  0  0  0  0  0  0  0  0  0
  -22.6302   -7.0293   23.1766 C   0  0  0  0  0  0  0  0  0  0  0  0
  -21.3578   -7.7656   22.7557 C   0  0  1  0  0  0  0  0  0  0  0  0
  -20.4130   -8.0426   23.9342 C   0  0  0  0  0  0  0  0  0  0  0  0
  -19.1646   -8.8027   23.5187 C   0  0  0  0  0  0  0  0  0  0  0  0
  -21.6863   -9.0518   22.0009 C   0  0  0  0  0  0  0  0  0  0  0  0
  -20.4162   -9.7597   21.5523 C   0  0  0  0  0  0  0  0  0  0  0  0
  -19.5167  -10.0530   22.7422 C   0  0  1  0  0  0  0  0  0  0  0  0
  -18.2950  -10.7205   22.2602 N   0  0  0  0  0  0  0  0  0  0  0  0
  -18.1091  -12.3408   22.2542 S   0  0  1  0  0  0  0  0  0  0  0  0
  -16.7068  -12.5467   22.0504 O   0  0  0  0  0  0  0  0  0  0  0  0
  -18.7239  -12.8335   23.4541 O   0  0  0  0  0  0  0  0  0  0  0  0
  -19.0089  -12.9298   20.8299 C   0  0  0  0  0  0  0  0  0  0  0  0
  -19.1541  -14.4378   20.7990 C   0  0  0  0  0  0  0  0  0  0  0  0
  -20.1876    4.4303   24.5701 H   0  0  0  0  0  0  0  0  0  0  0  0
  -19.3250    4.0970   23.0301 H   0  0  0  0  0  0  0  0  0  0  0  0
  -21.1065    4.3271   23.0301 H   0  0  0  0  0  0  0  0  0  0  0  0
  -19.4988    1.9561   23.5242 H   0  0  0  0  0  0  0  0  0  0  0  0
  -22.2847    1.3781   23.5375 H   0  0  0  0  0  0  0  0  0  0  0  0
  -21.9368    2.6158   22.2830 H   0  0  0  0  0  0  0  0  0  0  0  0
  -21.0391    1.0599   22.2830 H   0  0  0  0  0  0  0  0  0  0  0  0
  -18.6790    1.9178   25.5981 H   0  0  0  0  0  0  0  0  0  0  0  0
  -19.7965    1.7192   27.0292 H   0  0  0  0  0  0  0  0  0  0  0  0
  -19.6030   -0.4555   26.7897 H   0  0  0  0  0  0  0  0  0  0  0  0
  -20.5037   -0.3015   25.2432 H   0  0  0  0  0  0  0  0  0  0  0  0
  -18.7077   -0.2723   25.2432 H   0  0  0  0  0  0  0  0  0  0  0  0
  -22.0774    5.1474   25.3013 H   0  0  0  0  0  0  0  0  0  0  0  0
  -25.8612    5.1079   23.2342 H   0  0  0  0  0  0  0  0  0  0  0  0
  -26.0342    2.6388   23.6080 H   0  0  0  0  0  0  0  0  0  0  0  0
  -26.0974    2.4970   26.1302 H   0  0  0  0  0  0  0  0  0  0  0  0
  -27.6931   -0.8472   28.0435 H   0  0  0  0  0  0  0  0  0  0  0  0
  -23.9271   -3.5173   26.1498 H   0  0  0  0  0  0  0  0  0  0  0  0
  -25.2650   -3.6745   25.2029 H   0  0  0  0  0  0  0  0  0  0  0  0
  -23.7993   -0.7548   23.3412 H   0  0  0  0  0  0  0  0  0  0  0  0
  -22.5157   -0.6922   24.3705 H   0  0  0  0  0  0  0  0  0  0  0  0
  -24.9020   -3.0779   22.5399 H   0  0  0  0  0  0  0  0  0  0  0  0
  -23.2138   -3.1178   21.8955 H   0  0  0  0  0  0  0  0  0  0  0  0
  -24.6079   -5.2924   23.5017 H   0  0  0  0  0  0  0  0  0  0  0  0
  -24.1986   -5.3085   21.7314 H   0  0  0  0  0  0  0  0  0  0  0  0
  -21.2889   -3.1364   23.4876 H   0  0  0  0  0  0  0  0  0  0  0  0
  -21.6342   -3.1259   25.2724 H   0  0  0  0  0  0  0  0  0  0  0  0
  -20.9498   -5.3463   24.4320 H   0  0  0  0  0  0  0  0  0  0  0  0
  -22.6154   -5.3124   25.1404 H   0  0  0  0  0  0  0  0  0  0  0  0
  -21.9236   -5.2924   22.2495 H   0  0  0  0  0  0  0  0  0  0  0  0
  -22.8350   -7.2658   24.2311 H   0  0  0  0  0  0  0  0  0  0  0  0
  -23.4333   -7.3681   22.5056 H   0  0  0  0  0  0  0  0  0  0  0  0
  -20.8199   -7.0917   22.0727 H   0  0  0  0  0  0  0  0  0  0  0  0
  -20.1096   -7.0818   24.3753 H   0  0  0  0  0  0  0  0  0  0  0  0
  -20.9577   -8.6681   24.6568 H   0  0  0  0  0  0  0  0  0  0  0  0
  -18.5420   -8.1518   22.8872 H   0  0  0  0  0  0  0  0  0  0  0  0
  -18.6195   -9.0992   24.4270 H   0  0  0  0  0  0  0  0  0  0  0  0
  -22.2570   -9.7210   22.6617 H   0  0  0  0  0  0  0  0  0  0  0  0
  -22.2777   -8.7943   21.1099 H   0  0  0  0  0  0  0  0  0  0  0  0
  -20.6847  -10.7063   21.0604 H   0  0  0  0  0  0  0  0  0  0  0  0
  -19.8752   -9.1063   20.8521 H   0  0  0  0  0  0  0  0  0  0  0  0
  -20.0627  -10.7102   23.4350 H   0  0  0  0  0  0  0  0  0  0  0  0
  -18.1732  -10.4177   21.2832 H   0  0  0  0  0  0  0  0  0  0  0  0
  -20.0135  -12.4818   20.8408 H   0  0  0  0  0  0  0  0  0  0  0  0
  -18.4366  -12.6376   19.9371 H   0  0  0  0  0  0  0  0  0  0  0  0
  -19.1912  -14.8238   21.8284 H   0  0  0  0  0  0  0  0  0  0  0  0
  -20.0822  -14.7062   20.2730 H   0  0  0  0  0  0  0  0  0  0  0  0
  -18.2942  -14.8783   20.2730 H   0  0  0  0  0  0  0  0  0  0  0  0
  2  1  1  0
  2  3  1  0
  2  4  1  0
  4  5  1  0
  4  7  1  0
  5  6  1  0
  7  8  2  0
  7  9  1  0
  9 10  2  0
  9 15  1  0
 10 11  1  0
 11 12  1  0
 11 13  2  0
 13 14  1  0
 14 15  2  0
 15 16  1  0
 16 17  1  0
 17 18  2  0
 17 22  1  0
 18 19  1  0
 19 20  2  0
 20 21  1  0
 21 22  2  0
 22 23  1  0
 23 24  1  0
 23 25  1  0
 26 24  1  1
 25 26  1  0
 26 27  1  0
 26 29  1  0
 27 28  1  0
 28 31  1  0
 29 30  1  0
 30 31  1  0
 31 32  1  0
 33 32  1  0
 33 34  1  0
 33 36  1  0
 34 35  1  0
 35 38  1  0
 36 37  1  0
 37 38  1  0
 38 39  1  0
 40 39  1  1
 40 41  2  0
 40 42  2  0
 40 43  1  0
 43 44  1  0
  1 45  1  0
  1 46  1  0
  1 47  1  0
  2 48  1  6
  3 49  1  0
  3 50  1  0
  3 51  1  0
  5 52  1  0
  5 53  1  0
  6 54  1  0
  6 55  1  0
  6 56  1  0
 10 57  1  0
 13 58  1  0
 14 59  1  0
 18 60  1  0
 20 61  1  0
 24 62  1  0
 24 63  1  0
 25 64  1  0
 25 65  1  0
 27 66  1  0
 27 67  1  0
 28 68  1  0
 28 69  1  0
 29 70  1  0
 29 71  1  0
 30 72  1  0
 30 73  1  0
 31 74  1  6
 32 75  1  0
 32 76  1  0
 33 77  1  6
 34 78  1  0
 34 79  1  0
 35 80  1  0
 35 81  1  0
 36 82  1  0
 36 83  1  0
 37 84  1  0
 37 85  1  0
 38 86  1  1
 39 87  1  0
 43 88  1  0
 43 89  1  0
 44 90  1  0
 44 91  1  0
 44 92  1  0
M  CHG  1  31   1
M  END
>  <filename_input>  (9) 
7UJ4_OQ4_docked.sdf

>  <pdb_id>  (9) 
7UJ4_OQ4

>  <pose_rank>  (9) 
8

>  <num_atoms_heavy>  (9) 
44

>  <num_torsions>  (9) 
10

>  <pose>  (9) 
[-25.199614442891306, 0.6036086363997326, 25.679172435559693, 0.3828462324672552, -3.1663996358425113, -1.38797540379447, 5.9115712564789265, 0.42170410093477545, -2.7270202979399203, -3.25980729916241, 2.7714840260689226, 1.4948170455565313, 0.7391626946722119, 0.5090656206006879, 2.634843561230679, 0.8858195893509588]

>  <energy>  (9) 
-575.1575132822431

>  <inter_energy>  (9) 
-651.0673836914199

>  <intra_energy>  (9) 
81.37198984146522

>  <rmsd>  (9) 
4.50076

>  <sdf_rank>  (9) 
0

$$$$

     RDKit          3D

 92 96  0  0  0  0  0  0  0  0999 V2000
  -21.4590  -13.2513   21.4330 C   0  0  0  0  0  0  0  0  0  0  0  0
  -20.1611  -12.6470   20.9451 C   0  0  2  0  0  0  0  0  0  0  0  0
  -19.3595  -13.5696   20.0631 C   0  0  0  0  0  0  0  0  0  0  0  0
  -19.3608  -12.1781   22.0834 N   0  0  0  0  0  0  0  0  0  0  0  0
  -19.2275  -13.1388   23.1885 C   0  0  0  0  0  0  0  0  0  0  0  0
  -18.0362  -14.0403   23.0556 C   0  0  0  0  0  0  0  0  0  0  0  0
  -18.8494  -10.9369   22.1704 C   0  0  0  0  0  0  0  0  0  0  0  0
  -18.3513  -10.5638   23.2233 O   0  0  0  0  0  0  0  0  0  0  0  0
  -18.8364   -9.9612   21.0048 C   0  0  0  0  0  0  0  0  0  0  0  0
  -18.1041  -10.1939   19.8394 C   0  0  0  0  0  0  0  0  0  0  0  0
  -18.2003   -9.2881   18.8121 C   0  0  0  0  0  0  0  0  0  0  0  0
  -17.5024   -9.5072   17.6767 F   0  0  0  0  0  0  0  0  0  0  0  0
  -18.9676   -8.1481   18.8613 C   0  0  0  0  0  0  0  0  0  0  0  0
  -19.6731   -7.9037   20.0237 C   0  0  0  0  0  0  0  0  0  0  0  0
  -19.5678   -8.7737   21.0871 C   0  0  0  0  0  0  0  0  0  0  0  0
  -20.3186   -8.5364   22.2286 O   0  0  0  0  0  0  0  0  0  0  0  0
  -21.6714   -8.6018   22.2331 C   0  0  0  0  0  0  0  0  0  0  0  0
  -22.2719   -9.8259   22.3866 C   0  0  0  0  0  0  0  0  0  0  0  0
  -23.5858   -9.9259   22.3948 N   0  0  0  0  0  0  0  0  0  0  0  0
  -24.2946   -8.8093   22.1937 C   0  0  0  0  0  0  0  0  0  0  0  0
  -23.7817   -7.5782   22.0932 N   0  0  0  0  0  0  0  0  0  0  0  0
  -22.4603   -7.4692   22.0765 C   0  0  0  0  0  0  0  0  0  0  0  0
  -21.9023   -6.2347   21.9985 N   0  0  0  0  0  0  0  0  0  0  0  0
  -22.5578   -4.9379   21.9715 C   0  0  0  0  0  0  0  0  0  0  0  0
  -20.5082   -5.8300   22.1372 C   0  0  0  0  0  0  0  0  0  0  0  0
  -21.0980   -4.3604   22.2232 C   0  0  2  0  0  0  0  0  0  0  0  0
  -20.9364   -3.6318   23.5567 C   0  0  0  0  0  0  0  0  0  0  0  0
  -21.6641   -2.3071   23.5407 C   0  0  0  0  0  0  0  0  0  0  0  0
  -20.5983   -3.4448   21.1091 C   0  0  0  0  0  0  0  0  0  0  0  0
  -21.3187   -2.1193   21.0899 C   0  0  0  0  0  0  0  0  0  0  0  0
  -21.2096   -1.4209   22.4100 N   0  0  1  0  0  0  0  0  0  0  0  0
  -22.0421   -0.1771   22.3518 C   0  0  0  0  0  0  0  0  0  0  0  0
  -21.3855    1.0362   23.0113 C   0  0  1  0  0  0  0  0  0  0  0  0
  -22.1007    1.4740   24.2978 C   0  0  0  0  0  0  0  0  0  0  0  0
  -21.4274    2.6597   24.9686 C   0  0  0  0  0  0  0  0  0  0  0  0
  -19.8995    0.7921   23.2648 C   0  0  0  0  0  0  0  0  0  0  0  0
  -19.2445    2.0170   23.8863 C   0  0  0  0  0  0  0  0  0  0  0  0
  -19.9498    2.4064   25.1754 C   0  0  1  0  0  0  0  0  0  0  0  0
  -19.2954    3.6037   25.7312 N   0  0  0  0  0  0  0  0  0  0  0  0
  -18.1413    3.5344   26.8814 S   0  0  1  0  0  0  0  0  0  0  0  0
  -18.0890    2.1554   27.2635 O   0  0  0  0  0  0  0  0  0  0  0  0
  -16.9697    4.1556   26.3318 O   0  0  0  0  0  0  0  0  0  0  0  0
  -18.7546    4.5061   28.2471 C   0  0  0  0  0  0  0  0  0  0  0  0
  -19.9499    3.8784   28.9352 C   0  0  0  0  0  0  0  0  0  0  0  0
  -21.4704  -13.2566   22.5329 H   0  0  0  0  0  0  0  0  0  0  0  0
  -22.3044  -12.6542   21.0605 H   0  0  0  0  0  0  0  0  0  0  0  0
  -21.5463  -14.2826   21.0605 H   0  0  0  0  0  0  0  0  0  0  0  0
  -20.4318  -11.7902   20.3106 H   0  0  0  0  0  0  0  0  0  0  0  0
  -18.7665  -14.2522   20.6895 H   0  0  0  0  0  0  0  0  0  0  0  0
  -20.0416  -14.1541   19.4280 H   0  0  0  0  0  0  0  0  0  0  0  0
  -18.6856  -12.9760   19.4280 H   0  0  0  0  0  0  0  0  0  0  0  0
  -19.1359  -12.5768   24.1296 H   0  0  0  0  0  0  0  0  0  0  0  0
  -20.1219  -13.7790   23.1710 H   0  0  0  0  0  0  0  0  0  0  0  0
  -17.6717  -14.3162   24.0561 H   0  0  0  0  0  0  0  0  0  0  0  0
  -18.3235  -14.9492   22.5066 H   0  0  0  0  0  0  0  0  0  0  0  0
  -17.2396  -13.5168   22.5066 H   0  0  0  0  0  0  0  0  0  0  0  0
  -17.4640  -11.0835   19.7461 H   0  0  0  0  0  0  0  0  0  0  0  0
  -19.0178   -7.4568   18.0072 H   0  0  0  0  0  0  0  0  0  0  0  0
  -20.3180   -7.0158   20.1002 H   0  0  0  0  0  0  0  0  0  0  0  0
  -21.6535  -10.7281   22.5033 H   0  0  0  0  0  0  0  0  0  0  0  0
  -25.3861   -8.9118   22.1040 H   0  0  0  0  0  0  0  0  0  0  0  0
  -23.0125   -4.6616   21.0087 H   0  0  0  0  0  0  0  0  0  0  0  0
  -23.4226   -4.6865   22.6032 H   0  0  0  0  0  0  0  0  0  0  0  0
  -20.0037   -6.1875   23.0470 H   0  0  0  0  0  0  0  0  0  0  0  0
  -19.7218   -6.1232   21.4261 H   0  0  0  0  0  0  0  0  0  0  0  0
  -21.3478   -4.2587   24.3615 H   0  0  0  0  0  0  0  0  0  0  0  0
  -19.8661   -3.4421   23.7254 H   0  0  0  0  0  0  0  0  0  0  0  0
  -22.7421   -2.4965   23.4308 H   0  0  0  0  0  0  0  0  0  0  0  0
  -21.4426   -1.7890   24.4854 H   0  0  0  0  0  0  0  0  0  0  0  0
  -19.5240   -3.2612   21.2574 H   0  0  0  0  0  0  0  0  0  0  0  0
  -20.7919   -3.9465   20.1495 H   0  0  0  0  0  0  0  0  0  0  0  0
  -20.8760   -1.4824   20.3100 H   0  0  0  0  0  0  0  0  0  0  0  0
  -22.3828   -2.3059   20.8831 H   0  0  0  0  0  0  0  0  0  0  0  0
  -20.2237   -1.1833   22.5902 H   0  0  0  0  0  0  0  0  0  0  0  0
  -22.2331    0.0633   21.2955 H   0  0  0  0  0  0  0  0  0  0  0  0
  -22.9669   -0.3841   22.9103 H   0  0  0  0  0  0  0  0  0  0  0  0
  -21.4826    1.8683   22.2985 H   0  0  0  0  0  0  0  0  0  0  0  0
  -23.1354    1.7517   24.0482 H   0  0  0  0  0  0  0  0  0  0  0  0
  -22.0647    0.6295   25.0018 H   0  0  0  0  0  0  0  0  0  0  0  0
  -21.5534    3.5495   24.3343 H   0  0  0  0  0  0  0  0  0  0  0  0
  -21.8949    2.8145   25.9522 H   0  0  0  0  0  0  0  0  0  0  0  0
  -19.7867   -0.0622   23.9485 H   0  0  0  0  0  0  0  0  0  0  0  0
  -19.4094    0.5826   22.3025 H   0  0  0  0  0  0  0  0  0  0  0  0
  -18.1905    1.7911   24.1051 H   0  0  0  0  0  0  0  0  0  0  0  0
  -19.3155    2.8547   23.1769 H   0  0  0  0  0  0  0  0  0  0  0  0
  -19.8705    1.5660   25.8808 H   0  0  0  0  0  0  0  0  0  0  0  0
  -18.8685    4.0908   24.9303 H   0  0  0  0  0  0  0  0  0  0  0  0
  -17.9470    4.6216   28.9848 H   0  0  0  0  0  0  0  0  0  0  0  0
  -19.0824    5.4738   27.8393 H   0  0  0  0  0  0  0  0  0  0  0  0
  -19.8221    3.9455   30.0257 H   0  0  0  0  0  0  0  0  0  0  0  0
  -20.8652    4.4122   28.6398 H   0  0  0  0  0  0  0  0  0  0  0  0
  -20.0300    2.8219   28.6398 H   0  0  0  0  0  0  0  0  0  0  0  0
  2  1  1  0
  2  3  1  0
  2  4  1  0
  4  5  1  0
  4  7  1  0
  5  6  1  0
  7  8  2  0
  7  9  1  0
  9 10  2  0
  9 15  1  0
 10 11  1  0
 11 12  1  0
 11 13  2  0
 13 14  1  0
 14 15  2  0
 15 16  1  0
 16 17  1  0
 17 18  2  0
 17 22  1  0
 18 19  1  0
 19 20  2  0
 20 21  1  0
 21 22  2  0
 22 23  1  0
 23 24  1  0
 23 25  1  0
 26 24  1  6
 25 26  1  0
 26 27  1  0
 26 29  1  0
 27 28  1  0
 28 31  1  0
 29 30  1  0
 30 31  1  0
 31 32  1  0
 33 32  1  0
 33 34  1  0
 33 36  1  0
 34 35  1  0
 35 38  1  0
 36 37  1  0
 37 38  1  0
 38 39  1  0
 40 39  1  6
 40 41  2  0
 40 42  2  0
 40 43  1  0
 43 44  1  0
  1 45  1  0
  1 46  1  0
  1 47  1  0
  2 48  1  6
  3 49  1  0
  3 50  1  0
  3 51  1  0
  5 52  1  0
  5 53  1  0
  6 54  1  0
  6 55  1  0
  6 56  1  0
 10 57  1  0
 13 58  1  0
 14 59  1  0
 18 60  1  0
 20 61  1  0
 24 62  1  0
 24 63  1  0
 25 64  1  0
 25 65  1  0
 27 66  1  0
 27 67  1  0
 28 68  1  0
 28 69  1  0
 29 70  1  0
 29 71  1  0
 30 72  1  0
 30 73  1  0
 31 74  1  1
 32 75  1  0
 32 76  1  0
 33 77  1  6
 34 78  1  0
 34 79  1  0
 35 80  1  0
 35 81  1  0
 36 82  1  0
 36 83  1  0
 37 84  1  0
 37 85  1  0
 38 86  1  1
 39 87  1  0
 43 88  1  0
 43 89  1  0
 44 90  1  0
 44 91  1  0
 44 92  1  0
M  CHG  1  31   1
M  END
>  <filename_input>  (10) 
7UJ4_OQ4_docked.sdf

>  <pdb_id>  (10) 
7UJ4_OQ4

>  <pose_rank>  (10) 
9

>  <num_atoms_heavy>  (10) 
44

>  <num_torsions>  (10) 
10

>  <pose>  (10) 
[-21.671364898282828, -8.601776118189424, 22.23311819115704, 1.6401094270677237, -0.6216398036110821, 2.487930324356584, 1.0327644410603516, 2.8010319434814943, -2.6232382714190874, -0.5379452492898862, -0.4732900798250573, 0.6114401447435467, -2.844888813277117, 0.5057460976941043, -0.8728198317176403, -1.2432157119943823]

>  <energy>  (10) 
-620.1493374314109

>  <inter_energy>  (10) 
-662.9502659566524

>  <intra_energy>  (10) 
53.24684265095832

>  <rmsd>  (10) 
12.9496

>  <sdf_rank>  (10) 
0

$$$$

     RDKit          3D

 92 96  0  0  0  0  0  0  0  0999 V2000
  -20.2400    4.5531   23.6775 C   0  0  0  0  0  0  0  0  0  0  0  0
  -20.7977    3.4149   22.8519 C   0  0  2  0  0  0  0  0  0  0  0  0
  -22.2518    3.1271   23.1248 C   0  0  0  0  0  0  0  0  0  0  0  0
  -19.9785    2.2096   23.0315 N   0  0  0  0  0  0  0  0  0  0  0  0
  -19.3052    1.7278   21.8164 C   0  0  0  0  0  0  0  0  0  0  0  0
  -18.0733    2.5088   21.4668 C   0  0  0  0  0  0  0  0  0  0  0  0
  -19.9018    1.5297   24.1898 C   0  0  0  0  0  0  0  0  0  0  0  0
  -19.3466    0.4402   24.2122 O   0  0  0  0  0  0  0  0  0  0  0  0
  -20.4582    2.0596   25.5015 C   0  0  0  0  0  0  0  0  0  0  0  0
  -19.8691    3.1194   26.1931 C   0  0  0  0  0  0  0  0  0  0  0  0
  -20.4753    3.5733   27.3383 C   0  0  0  0  0  0  0  0  0  0  0  0
  -19.9184    4.6034   28.0113 F   0  0  0  0  0  0  0  0  0  0  0  0
  -21.6288    3.0385   27.8617 C   0  0  0  0  0  0  0  0  0  0  0  0
  -22.1992    1.9731   27.1919 C   0  0  0  0  0  0  0  0  0  0  0  0
  -21.5944    1.4695   26.0608 C   0  0  0  0  0  0  0  0  0  0  0  0
  -22.2055    0.4299   25.3762 O   0  0  0  0  0  0  0  0  0  0  0  0
  -23.5467    0.2423   25.3898 C   0  0  0  0  0  0  0  0  0  0  0  0
  -24.3644    1.3374   25.5110 C   0  0  0  0  0  0  0  0  0  0  0  0
  -25.6740    1.1912   25.5285 N   0  0  0  0  0  0  0  0  0  0  0  0
  -26.1601   -0.0543   25.4809 C   0  0  0  0  0  0  0  0  0  0  0  0
  -25.4295   -1.1609   25.3068 N   0  0  0  0  0  0  0  0  0  0  0  0
  -24.1107   -1.0237   25.2955 C   0  0  0  0  0  0  0  0  0  0  0  0
  -23.3361   -2.1204   25.0986 N   0  0  0  0  0  0  0  0  0  0  0  0
  -23.7450   -3.4911   24.8414 C   0  0  0  0  0  0  0  0  0  0  0  0
  -21.8992   -2.2196   24.8705 C   0  0  0  0  0  0  0  0  0  0  0  0
  -22.2172   -3.7194   24.4649 C   0  0  2  0  0  0  0  0  0  0  0  0
  -21.9848   -4.1003   23.0034 C   0  0  0  0  0  0  0  0  0  0  0  0
  -22.4600   -5.5088   22.7295 C   0  0  0  0  0  0  0  0  0  0  0  0
  -21.5126   -4.7446   25.3489 C   0  0  0  0  0  0  0  0  0  0  0  0
  -21.9803   -6.1531   25.0780 C   0  0  0  0  0  0  0  0  0  0  0  0
  -21.8043   -6.5178   23.6363 N   0  0  1  0  0  0  0  0  0  0  0  0
  -22.3953   -7.8772   23.4217 C   0  0  0  0  0  0  0  0  0  0  0  0
  -21.3556   -8.9679   23.1617 C   0  0  1  0  0  0  0  0  0  0  0  0
  -21.4145   -9.5169   21.7287 C   0  0  0  0  0  0  0  0  0  0  0  0
  -20.3593  -10.5776   21.4633 C   0  0  0  0  0  0  0  0  0  0  0  0
  -19.9486   -8.4855   23.5077 C   0  0  0  0  0  0  0  0  0  0  0  0
  -18.9240   -9.5878   23.2826 C   0  0  0  0  0  0  0  0  0  0  0  0
  -18.9801  -10.0874   21.8479 C   0  0  1  0  0  0  0  0  0  0  0  0
  -17.9868  -11.1626   21.6808 N   0  0  0  0  0  0  0  0  0  0  0  0
  -18.3929  -12.7036   21.3342 S   0  0  1  0  0  0  0  0  0  0  0  0
  -19.0091  -12.6373   20.0434 O   0  0  0  0  0  0  0  0  0  0  0  0
  -17.2071  -13.4941   21.5064 O   0  0  0  0  0  0  0  0  0  0  0  0
  -19.6119  -13.1723   22.5507 C   0  0  0  0  0  0  0  0  0  0  0  0
  -19.0083  -13.5116   23.8986 C   0  0  0  0  0  0  0  0  0  0  0  0
  -20.3539    4.3206   24.7466 H   0  0  0  0  0  0  0  0  0  0  0  0
  -19.1738    4.6879   23.4431 H   0  0  0  0  0  0  0  0  0  0  0  0
  -20.7868    5.4783   23.4431 H   0  0  0  0  0  0  0  0  0  0  0  0
  -20.7505    3.7360   21.8009 H   0  0  0  0  0  0  0  0  0  0  0  0
  -22.4213    3.0935   24.2111 H   0  0  0  0  0  0  0  0  0  0  0  0
  -22.8720    3.9199   22.6812 H   0  0  0  0  0  0  0  0  0  0  0  0
  -22.5232    2.1578   22.6812 H   0  0  0  0  0  0  0  0  0  0  0  0
  -19.0195    0.6767   21.9700 H   0  0  0  0  0  0  0  0  0  0  0  0
  -20.0134    1.8497   20.9836 H   0  0  0  0  0  0  0  0  0  0  0  0
  -17.5680    2.8291   22.3898 H   0  0  0  0  0  0  0  0  0  0  0  0
  -17.3934    1.8764   20.8771 H   0  0  0  0  0  0  0  0  0  0  0  0
  -18.3551    3.3935   20.8771 H   0  0  0  0  0  0  0  0  0  0  0  0
  -18.9394    3.5807   25.8285 H   0  0  0  0  0  0  0  0  0  0  0  0
  -22.0805    3.4436   28.7792 H   0  0  0  0  0  0  0  0  0  0  0  0
  -23.1347    1.5276   27.5611 H   0  0  0  0  0  0  0  0  0  0  0  0
  -23.9248    2.3423   25.5939 H   0  0  0  0  0  0  0  0  0  0  0  0
  -27.2473   -0.1780   25.5939 H   0  0  0  0  0  0  0  0  0  0  0  0
  -24.1001   -4.0480   25.7211 H   0  0  0  0  0  0  0  0  0  0  0  0
  -24.5767   -3.7564   24.1722 H   0  0  0  0  0  0  0  0  0  0  0  0
  -21.5076   -1.5870   24.0603 H   0  0  0  0  0  0  0  0  0  0  0  0
  -21.1486   -1.9458   25.6266 H   0  0  0  0  0  0  0  0  0  0  0  0
  -22.5371   -3.4021   22.3573 H   0  0  0  0  0  0  0  0  0  0  0  0
  -20.9062   -4.0470   22.7942 H   0  0  0  0  0  0  0  0  0  0  0  0
  -23.5487   -5.5510   22.8813 H   0  0  0  0  0  0  0  0  0  0  0  0
  -22.1899   -5.7606   21.6934 H   0  0  0  0  0  0  0  0  0  0  0  0
  -20.4302   -4.6892   25.1610 H   0  0  0  0  0  0  0  0  0  0  0  0
  -21.7517   -4.5066   26.3959 H   0  0  0  0  0  0  0  0  0  0  0  0
  -21.3965   -6.8498   25.6975 H   0  0  0  0  0  0  0  0  0  0  0  0
  -23.0506   -6.2165   25.3237 H   0  0  0  0  0  0  0  0  0  0  0  0
  -20.8005   -6.5237   23.4056 H   0  0  0  0  0  0  0  0  0  0  0  0
  -22.9689   -8.1517   24.3193 H   0  0  0  0  0  0  0  0  0  0  0  0
  -23.0255   -7.8144   22.5224 H   0  0  0  0  0  0  0  0  0  0  0  0
  -21.6084   -9.8044   23.8298 H   0  0  0  0  0  0  0  0  0  0  0  0
  -22.4078   -9.9591   21.5618 H   0  0  0  0  0  0  0  0  0  0  0  0
  -21.2222   -8.6782   21.0435 H   0  0  0  0  0  0  0  0  0  0  0  0
  -20.5977  -11.4758   22.0519 H   0  0  0  0  0  0  0  0  0  0  0  0
  -20.3595  -10.8069   20.3875 H   0  0  0  0  0  0  0  0  0  0  0  0
  -19.6967   -7.6246   22.8710 H   0  0  0  0  0  0  0  0  0  0  0  0
  -19.9275   -8.1985   24.5694 H   0  0  0  0  0  0  0  0  0  0  0  0
  -17.9180   -9.1935   23.4888 H   0  0  0  0  0  0  0  0  0  0  0  0
  -19.1510  -10.4255   23.9583 H   0  0  0  0  0  0  0  0  0  0  0  0
  -18.7476   -9.2457   21.1790 H   0  0  0  0  0  0  0  0  0  0  0  0
  -17.3627  -10.8562   20.9209 H   0  0  0  0  0  0  0  0  0  0  0  0
  -20.3142  -12.3360   22.6824 H   0  0  0  0  0  0  0  0  0  0  0  0
  -20.1138  -14.0779   22.1793 H   0  0  0  0  0  0  0  0  0  0  0  0
  -19.6664  -13.1416   24.6986 H   0  0  0  0  0  0  0  0  0  0  0  0
  -18.9004  -14.6027   23.9878 H   0  0  0  0  0  0  0  0  0  0  0  0
  -18.0200  -13.0369   23.9878 H   0  0  0  0  0  0  0  0  0  0  0  0
  2  1  1  0
  2  3  1  0
  2  4  1  0
  4  5  1  0
  4  7  1  0
  5  6  1  0
  7  8  2  0
  7  9  1  0
  9 10  2  0
  9 15  1  0
 10 11  1  0
 11 12  1  0
 11 13  2  0
 13 14  1  0
 14 15  2  0
 15 16  1  0
 16 17  1  0
 17 18  2  0
 17 22  1  0
 18 19  1  0
 19 20  2  0
 20 21  1  0
 21 22  2  0
 22 23  1  0
 23 24  1  0
 23 25  1  0
 26 24  1  1
 25 26  1  0
 26 27  1  0
 26 29  1  0
 27 28  1  0
 28 31  1  0
 29 30  1  0
 30 31  1  0
 31 32  1  0
 33 32  1  0
 33 34  1  0
 33 36  1  0
 34 35  1  0
 35 38  1  0
 36 37  1  0
 37 38  1  0
 38 39  1  0
 40 39  1  1
 40 41  2  0
 40 42  2  0
 40 43  1  0
 43 44  1  0
  1 45  1  0
  1 46  1  0
  1 47  1  0
  2 48  1  6
  3 49  1  0
  3 50  1  0
  3 51  1  0
  5 52  1  0
  5 53  1  0
  6 54  1  0
  6 55  1  0
  6 56  1  0
 10 57  1  0
 13 58  1  0
 14 59  1  0
 18 60  1  0
 20 61  1  0
 24 62  1  0
 24 63  1  0
 25 64  1  0
 25 65  1  0
 27 66  1  0
 27 67  1  0
 28 68  1  0
 28 69  1  0
 29 70  1  0
 29 71  1  0
 30 72  1  0
 30 73  1  0
 31 74  1  6
 32 75  1  0
 32 76  1  0
 33 77  1  1
 34 78  1  0
 34 79  1  0
 35 80  1  0
 35 81  1  0
 36 82  1  0
 36 83  1  0
 37 84  1  0
 37 85  1  0
 38 86  1  6
 39 87  1  0
 43 88  1  0
 43 89  1  0
 44 90  1  0
 44 91  1  0
 44 92  1  0
M  CHG  1  31   1
M  END
>  <filename_input>  (11) 
7UJ4_OQ4_docked.sdf

>  <pdb_id>  (11) 
7UJ4_OQ4

>  <pose_rank>  (11) 
10

>  <num_atoms_heavy>  (11) 
44

>  <num_torsions>  (11) 
10

>  <pose>  (11) 
[-23.546727394951592, 0.242335860828105, 25.38977098178867, -0.14971235654615989, 1.8956871297771583, 0.8237802644900533, 0.10808131035764676, 2.14106395630925, 3.5449020862594143, 2.8744304602793354, -0.6790743916622031, 1.1242068570483095, -2.857988002675599, -2.081556230329046, 0.35064874066169416, -3.7956581898523436]

>  <energy>  (11) 
-652.3213635718357

>  <inter_energy>  (11) 
-778.5258761948057

>  <intra_energy>  (11) 
134.92585009331043

>  <rmsd>  (11) 
3.58379

>  <sdf_rank>  (11) 
0

$$$$

     RDKit          3D

 92 96  0  0  0  0  0  0  0  0999 V2000
  -21.7912  -14.5762   16.4048 C   0  0  0  0  0  0  0  0  0  0  0  0
  -21.2250  -13.6310   17.4412 C   0  0  2  0  0  0  0  0  0  0  0  0
  -20.1715  -14.2576   18.3182 C   0  0  0  0  0  0  0  0  0  0  0  0
  -22.3085  -13.0550   18.2475 N   0  0  0  0  0  0  0  0  0  0  0  0
  -23.3440  -14.0091   18.6712 C   0  0  0  0  0  0  0  0  0  0  0  0
  -23.1739  -14.4871   20.0827 C   0  0  0  0  0  0  0  0  0  0  0  0
  -22.4143  -11.7418   18.5195 C   0  0  0  0  0  0  0  0  0  0  0  0
  -23.4355  -11.3156   19.0405 O   0  0  0  0  0  0  0  0  0  0  0  0
  -21.3060  -10.7425   18.2298 C   0  0  0  0  0  0  0  0  0  0  0  0
  -21.2159  -10.0513   17.0204 C   0  0  0  0  0  0  0  0  0  0  0  0
  -20.2174   -9.1212   16.8690 C   0  0  0  0  0  0  0  0  0  0  0  0
  -20.1254   -8.4408   15.7058 F   0  0  0  0  0  0  0  0  0  0  0  0
  -19.2825   -8.8324   17.8349 C   0  0  0  0  0  0  0  0  0  0  0  0
  -19.3552   -9.5338   19.0231 C   0  0  0  0  0  0  0  0  0  0  0  0
  -20.3221  -10.5010   19.1919 C   0  0  0  0  0  0  0  0  0  0  0  0
  -20.4085  -11.1624   20.4076 O   0  0  0  0  0  0  0  0  0  0  0  0
  -19.3263  -11.3820   21.1918 C   0  0  0  0  0  0  0  0  0  0  0  0
  -18.5815  -12.5157   20.9854 C   0  0  0  0  0  0  0  0  0  0  0  0
  -17.5229  -12.7611   21.7307 N   0  0  0  0  0  0  0  0  0  0  0  0
  -17.2447  -11.9004   22.7164 C   0  0  0  0  0  0  0  0  0  0  0  0
  -17.8898  -10.7505   22.9406 N   0  0  0  0  0  0  0  0  0  0  0  0
  -18.9607  -10.4993   22.2002 C   0  0  0  0  0  0  0  0  0  0  0  0
  -19.6286   -9.3322   22.3827 N   0  0  0  0  0  0  0  0  0  0  0  0
  -19.3154   -8.2334   23.2810 C   0  0  0  0  0  0  0  0  0  0  0  0
  -20.7078   -8.7419   21.5996 C   0  0  0  0  0  0  0  0  0  0  0  0
  -20.4047   -7.4337   22.4432 C   0  0  2  0  0  0  0  0  0  0  0  0
  -19.8464   -6.2354   21.6766 C   0  0  0  0  0  0  0  0  0  0  0  0
  -19.4736   -5.1155   22.6208 C   0  0  0  0  0  0  0  0  0  0  0  0
  -21.5956   -6.9632   23.2736 C   0  0  0  0  0  0  0  0  0  0  0  0
  -21.2307   -5.8429   24.2159 C   0  0  0  0  0  0  0  0  0  0  0  0
  -20.6344   -4.6837   23.4790 N   0  0  1  0  0  0  0  0  0  0  0  0
  -20.1920   -3.6666   24.4856 C   0  0  0  0  0  0  0  0  0  0  0  0
  -20.9701   -2.3520   24.4172 C   0  0  1  0  0  0  0  0  0  0  0  0
  -20.2616   -1.2023   25.1482 C   0  0  0  0  0  0  0  0  0  0  0  0
  -21.0208    0.1104   25.0514 C   0  0  0  0  0  0  0  0  0  0  0  0
  -21.2883   -1.9713   22.9729 C   0  0  0  0  0  0  0  0  0  0  0  0
  -22.0951   -0.6825   22.9144 C   0  0  0  0  0  0  0  0  0  0  0  0
  -21.3548    0.4461   23.6139 C   0  0  1  0  0  0  0  0  0  0  0  0
  -22.1783    1.6660   23.5484 N   0  0  0  0  0  0  0  0  0  0  0  0
  -21.5507    3.1690   23.6303 S   0  0  1  0  0  0  0  0  0  0  0  0
  -21.1535    3.3248   24.9972 O   0  0  0  0  0  0  0  0  0  0  0  0
  -20.5596    3.2620   22.5962 O   0  0  0  0  0  0  0  0  0  0  0  0
  -22.9003    4.2812   23.2738 C   0  0  0  0  0  0  0  0  0  0  0  0
  -24.2535    3.5994   23.2875 C   0  0  0  0  0  0  0  0  0  0  0  0
  -22.2936  -15.4148   16.9090 H   0  0  0  0  0  0  0  0  0  0  0  0
  -22.5163  -14.0389   15.7759 H   0  0  0  0  0  0  0  0  0  0  0  0
  -20.9754  -14.9620   15.7759 H   0  0  0  0  0  0  0  0  0  0  0  0
  -20.7135  -12.8287   16.8893 H   0  0  0  0  0  0  0  0  0  0  0  0
  -20.4339  -14.1015   19.3750 H   0  0  0  0  0  0  0  0  0  0  0  0
  -20.1150  -15.3362   18.1098 H   0  0  0  0  0  0  0  0  0  0  0  0
  -19.1968  -13.7923   18.1098 H   0  0  0  0  0  0  0  0  0  0  0  0
  -24.3252  -13.5194   18.5851 H   0  0  0  0  0  0  0  0  0  0  0  0
  -23.2594  -14.8903   18.0183 H   0  0  0  0  0  0  0  0  0  0  0  0
  -23.4595  -13.6844   20.7786 H   0  0  0  0  0  0  0  0  0  0  0  0
  -23.8150  -15.3647   20.2524 H   0  0  0  0  0  0  0  0  0  0  0  0
  -22.1226  -14.7626   20.2524 H   0  0  0  0  0  0  0  0  0  0  0  0
  -21.9292  -10.2476   16.2064 H   0  0  0  0  0  0  0  0  0  0  0  0
  -18.5058   -8.0716   17.6680 H   0  0  0  0  0  0  0  0  0  0  0  0
  -18.6422   -9.3204   19.8331 H   0  0  0  0  0  0  0  0  0  0  0  0
  -18.8695  -13.2232   20.1938 H   0  0  0  0  0  0  0  0  0  0  0  0
  -16.4198  -12.1590   23.3965 H   0  0  0  0  0  0  0  0  0  0  0  0
  -19.5683   -8.4042   24.3378 H   0  0  0  0  0  0  0  0  0  0  0  0
  -18.2928   -7.8640   23.4476 H   0  0  0  0  0  0  0  0  0  0  0  0
  -20.5139   -8.6599   20.5199 H   0  0  0  0  0  0  0  0  0  0  0  0
  -21.7096   -9.1894   21.5204 H   0  0  0  0  0  0  0  0  0  0  0  0
  -18.9512   -6.5497   21.1199 H   0  0  0  0  0  0  0  0  0  0  0  0
  -20.6203   -5.8692   20.9860 H   0  0  0  0  0  0  0  0  0  0  0  0
  -18.6587   -5.4599   23.2745 H   0  0  0  0  0  0  0  0  0  0  0  0
  -19.1630   -4.2521   22.0141 H   0  0  0  0  0  0  0  0  0  0  0  0
  -22.3839   -6.6099   22.5927 H   0  0  0  0  0  0  0  0  0  0  0  0
  -21.9396   -7.8140   23.8801 H   0  0  0  0  0  0  0  0  0  0  0  0
  -22.1372   -5.5061   24.7400 H   0  0  0  0  0  0  0  0  0  0  0  0
  -20.4847   -6.2202   24.9309 H   0  0  0  0  0  0  0  0  0  0  0  0
  -21.3417   -4.2792   22.8489 H   0  0  0  0  0  0  0  0  0  0  0  0
  -20.3214   -4.0943   25.4907 H   0  0  0  0  0  0  0  0  0  0  0  0
  -19.1417   -3.4293   24.2611 H   0  0  0  0  0  0  0  0  0  0  0  0
  -21.9189   -2.5241   24.9465 H   0  0  0  0  0  0  0  0  0  0  0  0
  -20.1576   -1.4712   26.2097 H   0  0  0  0  0  0  0  0  0  0  0  0
  -19.2829   -1.0562   24.6678 H   0  0  0  0  0  0  0  0  0  0  0  0
  -21.9548    0.0277   25.6266 H   0  0  0  0  0  0  0  0  0  0  0  0
  -20.3846    0.9110   25.4567 H   0  0  0  0  0  0  0  0  0  0  0  0
  -20.3466   -1.8317   22.4218 H   0  0  0  0  0  0  0  0  0  0  0  0
  -21.8832   -2.7784   22.5204 H   0  0  0  0  0  0  0  0  0  0  0  0
  -22.2614   -0.4078   21.8623 H   0  0  0  0  0  0  0  0  0  0  0  0
  -23.0571   -0.8435   23.4229 H   0  0  0  0  0  0  0  0  0  0  0  0
  -20.3967    0.6041   23.0971 H   0  0  0  0  0  0  0  0  0  0  0  0
  -22.6842    1.6186   22.6524 H   0  0  0  0  0  0  0  0  0  0  0  0
  -22.9037    5.0807   24.0294 H   0  0  0  0  0  0  0  0  0  0  0  0
  -22.7417    4.6738   22.2586 H   0  0  0  0  0  0  0  0  0  0  0  0
  -24.5725    3.4386   24.3279 H   0  0  0  0  0  0  0  0  0  0  0  0
  -24.9892    4.2344   22.7723 H   0  0  0  0  0  0  0  0  0  0  0  0
  -24.1809    2.6302   22.7723 H   0  0  0  0  0  0  0  0  0  0  0  0
  2  1  1  0
  2  3  1  0
  2  4  1  0
  4  5  1  0
  4  7  1  0
  5  6  1  0
  7  8  2  0
  7  9  1  0
  9 10  2  0
  9 15  1  0
 10 11  1  0
 11 12  1  0
 11 13  2  0
 13 14  1  0
 14 15  2  0
 15 16  1  0
 16 17  1  0
 17 18  2  0
 17 22  1  0
 18 19  1  0
 19 20  2  0
 20 21  1  0
 21 22  2  0
 22 23  1  0
 23 24  1  0
 23 25  1  0
 26 24  1  1
 25 26  1  0
 26 27  1  0
 26 29  1  0
 27 28  1  0
 28 31  1  0
 29 30  1  0
 30 31  1  0
 31 32  1  0
 33 32  1  0
 33 34  1  0
 33 36  1  0
 34 35  1  0
 35 38  1  0
 36 37  1  0
 37 38  1  0
 38 39  1  0
 40 39  1  1
 40 41  2  0
 40 42  2  0
 40 43  1  0
 43 44  1  0
  1 45  1  0
  1 46  1  0
  1 47  1  0
  2 48  1  6
  3 49  1  0
  3 50  1  0
  3 51  1  0
  5 52  1  0
  5 53  1  0
  6 54  1  0
  6 55  1  0
  6 56  1  0
 10 57  1  0
 13 58  1  0
 14 59  1  0
 18 60  1  0
 20 61  1  0
 24 62  1  0
 24 63  1  0
 25 64  1  0
 25 65  1  0
 27 66  1  0
 27 67  1  0
 28 68  1  0
 28 69  1  0
 29 70  1  0
 29 71  1  0
 30 72  1  0
 30 73  1  0
 31 74  1  6
 32 75  1  0
 32 76  1  0
 33 77  1  1
 34 78  1  0
 34 79  1  0
 35 80  1  0
 35 81  1  0
 36 82  1  0
 36 83  1  0
 37 84  1  0
 37 85  1  0
 38 86  1  6
 39 87  1  0
 43 88  1  0
 43 89  1  0
 44 90  1  0
 44 91  1  0
 44 92  1  0
M  CHG  1  31   1
M  END
>  <filename_input>  (12) 
7UJ4_OQ4_docked.sdf

>  <pdb_id>  (12) 
7UJ4_OQ4

>  <pose_rank>  (12) 
11

>  <num_atoms_heavy>  (12) 
44

>  <num_torsions>  (12) 
10

>  <pose>  (12) 
[-19.32631639819636, -11.382026978825825, 21.191840568153918, 2.969858357689799, 0.29222162061093016, -0.6792850680889619, -1.9605353434991755, 1.1209420803610368, 6.373524289889094, -0.613567501092108, -0.3089912828986555, 1.0403142711399274, -3.7533804762250385, -0.5236318997688609, 4.26318223987145, -2.2256706788912877]

>  <energy>  (12) 
-553.8324713603096

>  <inter_energy>  (12) 
-614.8775891642517

>  <intra_energy>  (12) 
62.61164869658243

>  <rmsd>  (12) 
13.5819

>  <sdf_rank>  (12) 
0

$$$$

     RDKit          3D

 92 96  0  0  0  0  0  0  0  0999 V2000
  -22.8092  -11.5007   15.3820 C   0  0  0  0  0  0  0  0  0  0  0  0
  -22.3190  -11.5057   16.8129 C   0  0  2  0  0  0  0  0  0  0  0  0
  -23.4235  -11.6437   17.8291 C   0  0  0  0  0  0  0  0  0  0  0  0
  -21.5075  -10.3102   17.0748 N   0  0  0  0  0  0  0  0  0  0  0  0
  -21.9664   -9.0866   16.4010 C   0  0  0  0  0  0  0  0  0  0  0  0
  -23.0438   -8.3604   17.1503 C   0  0  0  0  0  0  0  0  0  0  0  0
  -20.3766  -10.3254   17.8031 C   0  0  0  0  0  0  0  0  0  0  0  0
  -19.6623   -9.3328   17.8258 O   0  0  0  0  0  0  0  0  0  0  0  0
  -19.9394  -11.5222   18.6322 C   0  0  0  0  0  0  0  0  0  0  0  0
  -19.8906  -12.8171   18.1134 C   0  0  0  0  0  0  0  0  0  0  0  0
  -19.4239  -13.8285   18.9160 C   0  0  0  0  0  0  0  0  0  0  0  0
  -19.3648  -15.0841   18.4219 F   0  0  0  0  0  0  0  0  0  0  0  0
  -19.0099  -13.6504   20.2151 C   0  0  0  0  0  0  0  0  0  0  0  0
  -19.0814  -12.3736   20.7381 C   0  0  0  0  0  0  0  0  0  0  0  0
  -19.5810  -11.3438   19.9707 C   0  0  0  0  0  0  0  0  0  0  0  0
  -19.6026  -10.0609   20.4965 O   0  0  0  0  0  0  0  0  0  0  0  0
  -19.3485   -9.8084   21.8027 C   0  0  0  0  0  0  0  0  0  0  0  0
  -18.5255  -10.6632   22.4916 C   0  0  0  0  0  0  0  0  0  0  0  0
  -18.2576  -10.4479   23.7637 N   0  0  0  0  0  0  0  0  0  0  0  0
  -18.8578   -9.4101   24.3574 C   0  0  0  0  0  0  0  0  0  0  0  0
  -19.6246   -8.5058   23.7386 N   0  0  0  0  0  0  0  0  0  0  0  0
  -19.9053   -8.7188   22.4603 C   0  0  0  0  0  0  0  0  0  0  0  0
  -20.6616   -7.8116   21.7921 N   0  0  0  0  0  0  0  0  0  0  0  0
  -21.2083   -6.5523   22.2690 C   0  0  0  0  0  0  0  0  0  0  0  0
  -20.9641   -7.7159   20.3687 C   0  0  0  0  0  0  0  0  0  0  0  0
  -21.5082   -6.2715   20.7330 C   0  0  2  0  0  0  0  0  0  0  0  0
  -20.7421   -5.0823   20.1549 C   0  0  0  0  0  0  0  0  0  0  0  0
  -21.2812   -3.7776   20.6950 C   0  0  0  0  0  0  0  0  0  0  0  0
  -22.9905   -6.0895   20.4191 C   0  0  0  0  0  0  0  0  0  0  0  0
  -23.5339   -4.7872   20.9528 C   0  0  0  0  0  0  0  0  0  0  0  0
  -22.7563   -3.6182   20.4322 N   0  0  1  0  0  0  0  0  0  0  0  0
  -23.2754   -2.3785   21.0933 C   0  0  0  0  0  0  0  0  0  0  0  0
  -22.2031   -1.5794   21.8347 C   0  0  1  0  0  0  0  0  0  0  0  0
  -21.9428   -0.2040   21.2031 C   0  0  0  0  0  0  0  0  0  0  0  0
  -20.9001    0.6011   21.9604 C   0  0  0  0  0  0  0  0  0  0  0  0
  -22.5376   -1.4479   23.3188 C   0  0  0  0  0  0  0  0  0  0  0  0
  -21.4479   -0.6843   24.0572 C   0  0  0  0  0  0  0  0  0  0  0  0
  -21.2362    0.6857   23.4336 C   0  0  1  0  0  0  0  0  0  0  0  0
  -20.1636    1.3802   24.1669 N   0  0  0  0  0  0  0  0  0  0  0  0
  -20.4516    2.5214   25.2958 S   0  0  1  0  0  0  0  0  0  0  0  0
  -19.2323    3.2673   25.3804 O   0  0  0  0  0  0  0  0  0  0  0  0
  -21.6599    3.1927   24.9086 O   0  0  0  0  0  0  0  0  0  0  0  0
  -20.7153    1.6394   26.8249 C   0  0  0  0  0  0  0  0  0  0  0  0
  -21.8180    2.2374   27.6749 C   0  0  0  0  0  0  0  0  0  0  0  0
  -23.9091  -11.4896   15.3713 H   0  0  0  0  0  0  0  0  0  0  0  0
  -22.4285  -10.6064   14.8671 H   0  0  0  0  0  0  0  0  0  0  0  0
  -22.4466  -12.4026   14.8671 H   0  0  0  0  0  0  0  0  0  0  0  0
  -21.6948  -12.4040   16.9286 H   0  0  0  0  0  0  0  0  0  0  0  0
  -22.9984  -11.5906   18.8422 H   0  0  0  0  0  0  0  0  0  0  0  0
  -24.1505  -10.8294   17.6933 H   0  0  0  0  0  0  0  0  0  0  0  0
  -23.9277  -12.6119   17.6933 H   0  0  0  0  0  0  0  0  0  0  0  0
  -21.1069   -8.4101   16.2839 H   0  0  0  0  0  0  0  0  0  0  0  0
  -22.3926   -9.3898   15.4333 H   0  0  0  0  0  0  0  0  0  0  0  0
  -22.8776   -8.4724   18.2319 H   0  0  0  0  0  0  0  0  0  0  0  0
  -23.0201   -7.2933   16.8843 H   0  0  0  0  0  0  0  0  0  0  0  0
  -24.0240   -8.7829   16.8843 H   0  0  0  0  0  0  0  0  0  0  0  0
  -20.2190  -13.0228   17.0839 H   0  0  0  0  0  0  0  0  0  0  0  0
  -18.6359  -14.4928   20.8154 H   0  0  0  0  0  0  0  0  0  0  0  0
  -18.7399  -12.1793   21.7655 H   0  0  0  0  0  0  0  0  0  0  0  0
  -18.0872  -11.5324   21.9794 H   0  0  0  0  0  0  0  0  0  0  0  0
  -18.7089   -9.2911   25.4408 H   0  0  0  0  0  0  0  0  0  0  0  0
  -22.0963   -6.6397   22.9124 H   0  0  0  0  0  0  0  0  0  0  0  0
  -20.6478   -5.8565   22.9107 H   0  0  0  0  0  0  0  0  0  0  0  0
  -20.0903   -7.7338   19.7008 H   0  0  0  0  0  0  0  0  0  0  0  0
  -21.5598   -8.4655   19.8274 H   0  0  0  0  0  0  0  0  0  0  0  0
  -19.6798   -5.1724   20.4259 H   0  0  0  0  0  0  0  0  0  0  0  0
  -20.8620   -5.0857   19.0615 H   0  0  0  0  0  0  0  0  0  0  0  0
  -21.1096   -3.7459   21.7810 H   0  0  0  0  0  0  0  0  0  0  0  0
  -20.7566   -2.9578   20.1823 H   0  0  0  0  0  0  0  0  0  0  0  0
  -23.1257   -6.1082   19.3276 H   0  0  0  0  0  0  0  0  0  0  0  0
  -23.5404   -6.9080   20.9066 H   0  0  0  0  0  0  0  0  0  0  0  0
  -24.5848   -4.6843   20.6443 H   0  0  0  0  0  0  0  0  0  0  0  0
  -23.4493   -4.7994   22.0494 H   0  0  0  0  0  0  0  0  0  0  0  0
  -22.8760   -3.5559   19.4110 H   0  0  0  0  0  0  0  0  0  0  0  0
  -23.7173   -1.7324   20.3205 H   0  0  0  0  0  0  0  0  0  0  0  0
  -24.0118   -2.7004   21.8444 H   0  0  0  0  0  0  0  0  0  0  0  0
  -21.2681   -2.1511   21.7402 H   0  0  0  0  0  0  0  0  0  0  0  0
  -21.5922   -0.3514   20.1709 H   0  0  0  0  0  0  0  0  0  0  0  0
  -22.8864    0.3604   21.2356 H   0  0  0  0  0  0  0  0  0  0  0  0
  -19.9191    0.1173   21.8436 H   0  0  0  0  0  0  0  0  0  0  0  0
  -20.8816    1.6210   21.5486 H   0  0  0  0  0  0  0  0  0  0  0  0
  -23.4906   -0.9091   23.4265 H   0  0  0  0  0  0  0  0  0  0  0  0
  -22.6142   -2.4562   23.7518 H   0  0  0  0  0  0  0  0  0  0  0  0
  -21.7433   -0.5605   25.1096 H   0  0  0  0  0  0  0  0  0  0  0  0
  -20.5089   -1.2532   23.9893 H   0  0  0  0  0  0  0  0  0  0  0  0
  -22.1775    1.2498   23.5095 H   0  0  0  0  0  0  0  0  0  0  0  0
  -19.6212    0.6437   24.6405 H   0  0  0  0  0  0  0  0  0  0  0  0
  -20.9819    0.5991   26.5872 H   0  0  0  0  0  0  0  0  0  0  0  0
  -19.7830    1.7040   27.4052 H   0  0  0  0  0  0  0  0  0  0  0  0
  -21.5735    2.1048   28.7391 H   0  0  0  0  0  0  0  0  0  0  0  0
  -21.9124    3.3103   27.4513 H   0  0  0  0  0  0  0  0  0  0  0  0
  -22.7687    1.7313   27.4513 H   0  0  0  0  0  0  0  0  0  0  0  0
  2  1  1  0
  2  3  1  0
  2  4  1  0
  4  5  1  0
  4  7  1  0
  5  6  1  0
  7  8  2  0
  7  9  1  0
  9 10  2  0
  9 15  1  0
 10 11  1  0
 11 12  1  0
 11 13  2  0
 13 14  1  0
 14 15  2  0
 15 16  1  0
 16 17  1  0
 17 18  2  0
 17 22  1  0
 18 19  1  0
 19 20  2  0
 20 21  1  0
 21 22  2  0
 22 23  1  0
 23 24  1  0
 23 25  1  0
 26 24  1  1
 25 26  1  0
 26 27  1  0
 26 29  1  0
 27 28  1  0
 28 31  1  0
 29 30  1  0
 30 31  1  0
 31 32  1  0
 33 32  1  0
 33 34  1  0
 33 36  1  0
 34 35  1  0
 35 38  1  0
 36 37  1  0
 37 38  1  0
 38 39  1  0
 40 39  1  6
 40 41  2  0
 40 42  2  0
 40 43  1  0
 43 44  1  0
  1 45  1  0
  1 46  1  0
  1 47  1  0
  2 48  1  6
  3 49  1  0
  3 50  1  0
  3 51  1  0
  5 52  1  0
  5 53  1  0
  6 54  1  0
  6 55  1  0
  6 56  1  0
 10 57  1  0
 13 58  1  0
 14 59  1  0
 18 60  1  0
 20 61  1  0
 24 62  1  0
 24 63  1  0
 25 64  1  0
 25 65  1  0
 27 66  1  0
 27 67  1  0
 28 68  1  0
 28 69  1  0
 29 70  1  0
 29 71  1  0
 30 72  1  0
 30 73  1  0
 31 74  1  6
 32 75  1  0
 32 76  1  0
 33 77  1  1
 34 78  1  0
 34 79  1  0
 35 80  1  0
 35 81  1  0
 36 82  1  0
 36 83  1  0
 37 84  1  0
 37 85  1  0
 38 86  1  6
 39 87  1  0
 43 88  1  0
 43 89  1  0
 44 90  1  0
 44 91  1  0
 44 92  1  0
M  CHG  1  31   1
M  END
>  <filename_input>  (13) 
7UJ4_OQ4_docked.sdf

>  <pdb_id>  (13) 
7UJ4_OQ4

>  <pose_rank>  (13) 
12

>  <num_atoms_heavy>  (13) 
44

>  <num_torsions>  (13) 
10

>  <pose>  (13) 
[-19.34845989092348, -9.808365193340185, 21.80268606988281, 2.625555001732479, 0.45325443938754406, 0.38527813446269554, 0.06418240066163883, -4.813724860146281, -0.6228249895674192, -0.7341389531576478, -0.5768887850584892, -1.094118599885007, -5.193559465366029, 0.42524930591306714, -3.5312799305836546, 1.3911463788649907]

>  <energy>  (13) 
-445.6417384028166

>  <inter_energy>  (13) 
-542.7467839494857

>  <intra_energy>  (13) 
91.04941242943484

>  <rmsd>  (13) 
13.0585

>  <sdf_rank>  (13) 
0

$$$$

     RDKit          3D

 92 96  0  0  0  0  0  0  0  0999 V2000
  -19.3739  -10.1013   19.6309 C   0  0  0  0  0  0  0  0  0  0  0  0
  -19.5278   -8.6906   20.1543 C   0  0  2  0  0  0  0  0  0  0  0  0
  -18.2301   -8.0671   20.6002 C   0  0  0  0  0  0  0  0  0  0  0  0
  -20.5271   -8.6551   21.2296 N   0  0  0  0  0  0  0  0  0  0  0  0
  -20.3396   -9.6594   22.2870 C   0  0  0  0  0  0  0  0  0  0  0  0
  -19.5647   -9.1484   23.4652 C   0  0  0  0  0  0  0  0  0  0  0  0
  -21.5917   -7.8327   21.2271 C   0  0  0  0  0  0  0  0  0  0  0  0
  -22.4726   -7.9864   22.0616 O   0  0  0  0  0  0  0  0  0  0  0  0
  -21.7537   -6.6880   20.2401 C   0  0  0  0  0  0  0  0  0  0  0  0
  -21.7524   -6.8829   18.8579 C   0  0  0  0  0  0  0  0  0  0  0  0
  -21.9675   -5.7997   18.0422 C   0  0  0  0  0  0  0  0  0  0  0  0
  -21.9762   -5.9780   16.7034 F   0  0  0  0  0  0  0  0  0  0  0  0
  -22.1727   -4.5200   18.5014 C   0  0  0  0  0  0  0  0  0  0  0  0
  -22.1492   -4.3213   19.8684 C   0  0  0  0  0  0  0  0  0  0  0  0
  -21.8978   -5.3811   20.7125 C   0  0  0  0  0  0  0  0  0  0  0  0
  -21.9235   -5.1716   22.0830 O   0  0  0  0  0  0  0  0  0  0  0  0
  -21.0031   -4.4064   22.7167 C   0  0  0  0  0  0  0  0  0  0  0  0
  -19.6931   -4.8144   22.7162 C   0  0  0  0  0  0  0  0  0  0  0  0
  -18.7718   -4.0944   23.3238 N   0  0  0  0  0  0  0  0  0  0  0  0
  -19.1720   -2.9978   23.9773 C   0  0  0  0  0  0  0  0  0  0  0  0
  -20.4173   -2.5102   23.9746 N   0  0  0  0  0  0  0  0  0  0  0  0
  -21.3520   -3.2322   23.3720 C   0  0  0  0  0  0  0  0  0  0  0  0
  -22.6234   -2.7596   23.3285 N   0  0  0  0  0  0  0  0  0  0  0  0
  -23.1447   -1.4983   23.8280 C   0  0  0  0  0  0  0  0  0  0  0  0
  -23.7799   -3.2579   22.5932 C   0  0  0  0  0  0  0  0  0  0  0  0
  -24.4403   -1.8702   22.9847 C   0  0  2  0  0  0  0  0  0  0  0  0
  -24.7383   -0.9033   21.8395 C   0  0  0  0  0  0  0  0  0  0  0  0
  -25.2305    0.4247   22.3674 C   0  0  0  0  0  0  0  0  0  0  0  0
  -25.7019   -2.0209   23.8301 C   0  0  0  0  0  0  0  0  0  0  0  0
  -26.2002   -0.6981   24.3572 C   0  0  0  0  0  0  0  0  0  0  0  0
  -26.4460    0.2740   23.2450 N   0  0  1  0  0  0  0  0  0  0  0  0
  -26.8227    1.5916   23.8494 C   0  0  0  0  0  0  0  0  0  0  0  0
  -25.6357    2.3739   24.4127 C   0  0  1  0  0  0  0  0  0  0  0  0
  -24.9642    1.6650   25.5979 C   0  0  0  0  0  0  0  0  0  0  0  0
  -23.7654    2.4286   26.1352 C   0  0  0  0  0  0  0  0  0  0  0  0
  -24.6195    2.7006   23.3207 C   0  0  0  0  0  0  0  0  0  0  0  0
  -23.4599    3.5115   23.8806 C   0  0  0  0  0  0  0  0  0  0  0  0
  -22.7921    2.7709   25.0280 C   0  0  1  0  0  0  0  0  0  0  0  0
  -21.6902    3.5983   25.5492 N   0  0  0  0  0  0  0  0  0  0  0  0
  -20.1703    3.0386   25.7405 S   0  0  1  0  0  0  0  0  0  0  0  0
  -20.3181    1.6213   25.8806 O   0  0  0  0  0  0  0  0  0  0  0  0
  -19.3959    3.5593   24.6497 O   0  0  0  0  0  0  0  0  0  0  0  0
  -19.5860    3.7297   27.2788 C   0  0  0  0  0  0  0  0  0  0  0  0
  -20.6664    3.8263   28.3368 C   0  0  0  0  0  0  0  0  0  0  0  0
  -19.2977  -10.8001   20.4771 H   0  0  0  0  0  0  0  0  0  0  0  0
  -20.2489  -10.3624   19.0175 H   0  0  0  0  0  0  0  0  0  0  0  0
  -18.4632  -10.1676   19.0175 H   0  0  0  0  0  0  0  0  0  0  0  0
  -19.8771   -8.0781   19.3100 H   0  0  0  0  0  0  0  0  0  0  0  0
  -18.1910   -8.0483   21.6993 H   0  0  0  0  0  0  0  0  0  0  0  0
  -17.3872   -8.6586   20.2133 H   0  0  0  0  0  0  0  0  0  0  0  0
  -18.1651   -7.0395   20.2133 H   0  0  0  0  0  0  0  0  0  0  0  0
  -21.3300   -9.9863   22.6366 H   0  0  0  0  0  0  0  0  0  0  0  0
  -19.7585  -10.4851   21.8504 H   0  0  0  0  0  0  0  0  0  0  0  0
  -20.0554   -9.4720   24.3950 H   0  0  0  0  0  0  0  0  0  0  0  0
  -18.5408   -9.5491   23.4324 H   0  0  0  0  0  0  0  0  0  0  0  0
  -19.5297   -8.0495   23.4324 H   0  0  0  0  0  0  0  0  0  0  0  0
  -21.5826   -7.8826   18.4315 H   0  0  0  0  0  0  0  0  0  0  0  0
  -22.3489   -3.6857   17.8064 H   0  0  0  0  0  0  0  0  0  0  0  0
  -22.3309   -3.3185   20.2824 H   0  0  0  0  0  0  0  0  0  0  0  0
  -19.4106   -5.7471   22.2060 H   0  0  0  0  0  0  0  0  0  0  0  0
  -18.4167   -2.4540   24.5636 H   0  0  0  0  0  0  0  0  0  0  0  0
  -23.2914   -1.4492   24.9171 H   0  0  0  0  0  0  0  0  0  0  0  0
  -22.6114   -0.5419   23.7231 H   0  0  0  0  0  0  0  0  0  0  0  0
  -23.6197   -3.4144   21.5162 H   0  0  0  0  0  0  0  0  0  0  0  0
  -24.2523   -4.2297   22.7993 H   0  0  0  0  0  0  0  0  0  0  0  0
  -23.8193   -0.7409   21.2572 H   0  0  0  0  0  0  0  0  0  0  0  0
  -25.5232   -1.3416   21.2056 H   0  0  0  0  0  0  0  0  0  0  0  0
  -24.4262    0.8928   22.9538 H   0  0  0  0  0  0  0  0  0  0  0  0
  -25.5121    1.0471   21.5051 H   0  0  0  0  0  0  0  0  0  0  0  0
  -26.4901   -2.4744   23.2112 H   0  0  0  0  0  0  0  0  0  0  0  0
  -25.4540   -2.6551   24.6940 H   0  0  0  0  0  0  0  0  0  0  0  0
  -27.1405   -0.8617   24.9042 H   0  0  0  0  0  0  0  0  0  0  0  0
  -25.4311   -0.2775   25.0218 H   0  0  0  0  0  0  0  0  0  0  0  0
  -27.2083   -0.0764   22.6475 H   0  0  0  0  0  0  0  0  0  0  0  0
  -27.3048    2.2041   23.0732 H   0  0  0  0  0  0  0  0  0  0  0  0
  -27.4944    1.3766   24.6935 H   0  0  0  0  0  0  0  0  0  0  0  0
  -26.0423    3.3195   24.8008 H   0  0  0  0  0  0  0  0  0  0  0  0
  -25.7023    1.5548   26.4061 H   0  0  0  0  0  0  0  0  0  0  0  0
  -24.6036    0.6892   25.2404 H   0  0  0  0  0  0  0  0  0  0  0  0
  -24.1148    3.3593   26.6061 H   0  0  0  0  0  0  0  0  0  0  0  0
  -23.2482    1.7926   26.8687 H   0  0  0  0  0  0  0  0  0  0  0  0
  -24.2313    1.7622   22.8980 H   0  0  0  0  0  0  0  0  0  0  0  0
  -25.1200    3.2955   22.5424 H   0  0  0  0  0  0  0  0  0  0  0  0
  -22.7216    3.6840   23.0836 H   0  0  0  0  0  0  0  0  0  0  0  0
  -23.8470    4.4704   24.2557 H   0  0  0  0  0  0  0  0  0  0  0  0
  -22.4039    1.8160   24.6442 H   0  0  0  0  0  0  0  0  0  0  0  0
  -21.6170    4.4057   24.9139 H   0  0  0  0  0  0  0  0  0  0  0  0
  -18.7759    3.0925   27.6632 H   0  0  0  0  0  0  0  0  0  0  0  0
  -19.2414    4.7529   27.0682 H   0  0  0  0  0  0  0  0  0  0  0  0
  -20.2066    3.7852   29.3352 H   0  0  0  0  0  0  0  0  0  0  0  0
  -21.2085    4.7765   28.2216 H   0  0  0  0  0  0  0  0  0  0  0  0
  -21.3685    2.9873   28.2216 H   0  0  0  0  0  0  0  0  0  0  0  0
  2  1  1  0
  2  3  1  0
  2  4  1  0
  4  5  1  0
  4  7  1  0
  5  6  1  0
  7  8  2  0
  7  9  1  0
  9 10  2  0
  9 15  1  0
 10 11  1  0
 11 12  1  0
 11 13  2  0
 13 14  1  0
 14 15  2  0
 15 16  1  0
 16 17  1  0
 17 18  2  0
 17 22  1  0
 18 19  1  0
 19 20  2  0
 20 21  1  0
 21 22  2  0
 22 23  1  0
 23 24  1  0
 23 25  1  0
 26 24  1  1
 25 26  1  0
 26 27  1  0
 26 29  1  0
 27 28  1  0
 28 31  1  0
 29 30  1  0
 30 31  1  0
 31 32  1  0
 33 32  1  0
 33 34  1  0
 33 36  1  0
 34 35  1  0
 35 38  1  0
 36 37  1  0
 37 38  1  0
 38 39  1  0
 40 39  1  6
 40 41  2  0
 40 42  2  0
 40 43  1  0
 43 44  1  0
  1 45  1  0
  1 46  1  0
  1 47  1  0
  2 48  1  6
  3 49  1  0
  3 50  1  0
  3 51  1  0
  5 52  1  0
  5 53  1  0
  6 54  1  0
  6 55  1  0
  6 56  1  0
 10 57  1  0
 13 58  1  0
 14 59  1  0
 18 60  1  0
 20 61  1  0
 24 62  1  0
 24 63  1  0
 25 64  1  0
 25 65  1  0
 27 66  1  0
 27 67  1  0
 28 68  1  0
 28 69  1  0
 29 70  1  0
 29 71  1  0
 30 72  1  0
 30 73  1  0
 31 74  1  6
 32 75  1  0
 32 76  1  0
 33 77  1  1
 34 78  1  0
 34 79  1  0
 35 80  1  0
 35 81  1  0
 36 82  1  0
 36 83  1  0
 37 84  1  0
 37 85  1  0
 38 86  1  6
 39 87  1  0
 43 88  1  0
 43 89  1  0
 44 90  1  0
 44 91  1  0
 44 92  1  0
M  CHG  1  31   1
M  END
>  <filename_input>  (14) 
7UJ4_OQ4_docked.sdf

>  <pdb_id>  (14) 
7UJ4_OQ4

>  <pose_rank>  (14) 
13

>  <num_atoms_heavy>  (14) 
44

>  <num_torsions>  (14) 
10

>  <pose>  (14) 
[-21.003074680044982, -4.406362979329254, 22.71674387495529, -3.250974069035315, -1.4743993328195897, 0.8849479517906013, -1.552462485816892, 0.477825370976667, -0.4875176353794602, -0.49967328598968996, -0.4013856547222237, -1.902140994879438, -2.030510613571573, -0.053940629691546275, -1.185069998422099, -1.7991349459587096]

>  <energy>  (14) 
-446.0479588573131

>  <inter_energy>  (14) 
-555.8262953596233

>  <intra_energy>  (14) 
112.49110315835256

>  <rmsd>  (14) 
11.4401

>  <sdf_rank>  (14) 
0

$$$$

     RDKit          3D

 92 96  0  0  0  0  0  0  0  0999 V2000
  -18.2454   -8.5228   22.5371 C   0  0  0  0  0  0  0  0  0  0  0  0
  -19.3931   -9.3216   21.9603 C   0  0  2  0  0  0  0  0  0  0  0  0
  -19.0553  -10.7687   21.7088 C   0  0  0  0  0  0  0  0  0  0  0  0
  -19.8961   -8.6775   20.7403 N   0  0  0  0  0  0  0  0  0  0  0  0
  -19.1610   -9.0116   19.5115 C   0  0  0  0  0  0  0  0  0  0  0  0
  -17.9977   -8.1029   19.2458 C   0  0  0  0  0  0  0  0  0  0  0  0
  -20.8978   -7.7796   20.7336 C   0  0  0  0  0  0  0  0  0  0  0  0
  -21.1386   -7.1545   19.7103 O   0  0  0  0  0  0  0  0  0  0  0  0
  -21.7776   -7.5088   21.9434 C   0  0  0  0  0  0  0  0  0  0  0  0
  -22.4449   -8.5254   22.6288 C   0  0  0  0  0  0  0  0  0  0  0  0
  -23.1681   -8.1968   23.7486 C   0  0  0  0  0  0  0  0  0  0  0  0
  -23.8113   -9.1735   24.4242 F   0  0  0  0  0  0  0  0  0  0  0  0
  -23.2908   -6.9172   24.2367 C   0  0  0  0  0  0  0  0  0  0  0  0
  -22.6516   -5.9065   23.5449 C   0  0  0  0  0  0  0  0  0  0  0  0
  -21.9493   -6.1981   22.3956 C   0  0  0  0  0  0  0  0  0  0  0  0
  -21.2764   -5.1781   21.7402 O   0  0  0  0  0  0  0  0  0  0  0  0
  -20.2998   -4.4535   22.3366 C   0  0  0  0  0  0  0  0  0  0  0  0
  -19.0969   -5.0587   22.5995 C   0  0  0  0  0  0  0  0  0  0  0  0
  -18.1252   -4.3835   23.1795 N   0  0  0  0  0  0  0  0  0  0  0  0
  -18.3784   -3.1217   23.5450 C   0  0  0  0  0  0  0  0  0  0  0  0
  -19.5030   -2.4511   23.2725 N   0  0  0  0  0  0  0  0  0  0  0  0
  -20.4886   -3.1250   22.6959 C   0  0  0  0  0  0  0  0  0  0  0  0
  -21.6372   -2.4734   22.3831 N   0  0  0  0  0  0  0  0  0  0  0  0
  -21.9617   -1.0666   22.5501 C   0  0  0  0  0  0  0  0  0  0  0  0
  -22.7836   -2.9246   21.6030 C   0  0  0  0  0  0  0  0  0  0  0  0
  -23.2090   -1.3970   21.6211 C   0  0  2  0  0  0  0  0  0  0  0  0
  -23.1995   -0.6648   20.2798 C   0  0  0  0  0  0  0  0  0  0  0  0
  -23.4861    0.8076   20.4654 C   0  0  0  0  0  0  0  0  0  0  0  0
  -24.5576   -1.1552   22.2935 C   0  0  0  0  0  0  0  0  0  0  0  0
  -24.8510    0.3130   22.4786 C   0  0  0  0  0  0  0  0  0  0  0  0
  -24.7929    1.0487   21.1756 N   0  0  1  0  0  0  0  0  0  0  0  0
  -24.9765    2.5089   21.4539 C   0  0  0  0  0  0  0  0  0  0  0  0
  -23.8186    3.1399   22.2281 C   0  0  1  0  0  0  0  0  0  0  0  0
  -23.9537    2.9654   23.7478 C   0  0  0  0  0  0  0  0  0  0  0  0
  -22.7858    3.5650   24.5130 C   0  0  0  0  0  0  0  0  0  0  0  0
  -22.4717    2.6178   21.7328 C   0  0  0  0  0  0  0  0  0  0  0  0
  -21.3230    3.2778   22.4814 C   0  0  0  0  0  0  0  0  0  0  0  0
  -21.4630    3.0592   23.9793 C   0  0  1  0  0  0  0  0  0  0  0  0
  -20.3426    3.7284   24.6631 N   0  0  0  0  0  0  0  0  0  0  0  0
  -19.4323    2.9992   25.8030 S   0  0  1  0  0  0  0  0  0  0  0  0
  -19.0826    1.7320   25.2355 O   0  0  0  0  0  0  0  0  0  0  0  0
  -18.3909    3.9220   26.1556 O   0  0  0  0  0  0  0  0  0  0  0  0
  -20.5123    2.7458   27.2012 C   0  0  0  0  0  0  0  0  0  0  0  0
  -20.0543    3.4760   28.4475 C   0  0  0  0  0  0  0  0  0  0  0  0
  -18.2918   -8.5551   23.6356 H   0  0  0  0  0  0  0  0  0  0  0  0
  -17.2918   -8.9534   22.1976 H   0  0  0  0  0  0  0  0  0  0  0  0
  -18.3179   -7.4790   22.1976 H   0  0  0  0  0  0  0  0  0  0  0  0
  -20.1856   -9.3296   22.7231 H   0  0  0  0  0  0  0  0  0  0  0  0
  -18.9338  -11.2892   22.6702 H   0  0  0  0  0  0  0  0  0  0  0  0
  -19.8674  -11.2407   21.1364 H   0  0  0  0  0  0  0  0  0  0  0  0
  -18.1181  -10.8323   21.1364 H   0  0  0  0  0  0  0  0  0  0  0  0
  -18.7854  -10.0418   19.5995 H   0  0  0  0  0  0  0  0  0  0  0  0
  -19.8623   -8.8941   18.6723 H   0  0  0  0  0  0  0  0  0  0  0  0
  -17.5685   -7.7676   20.2016 H   0  0  0  0  0  0  0  0  0  0  0  0
  -17.2328   -8.6451   18.6705 H   0  0  0  0  0  0  0  0  0  0  0  0
  -18.3386   -7.2295   18.6705 H   0  0  0  0  0  0  0  0  0  0  0  0
  -22.3925   -9.5671   22.2793 H   0  0  0  0  0  0  0  0  0  0  0  0
  -23.8760   -6.7062   25.1439 H   0  0  0  0  0  0  0  0  0  0  0  0
  -22.7031   -4.8705   23.9109 H   0  0  0  0  0  0  0  0  0  0  0  0
  -18.9428   -6.1127   22.3249 H   0  0  0  0  0  0  0  0  0  0  0  0
  -17.5997   -2.5939   24.1151 H   0  0  0  0  0  0  0  0  0  0  0  0
  -22.2092   -0.7606   23.5772 H   0  0  0  0  0  0  0  0  0  0  0  0
  -21.2504   -0.2548   22.3378 H   0  0  0  0  0  0  0  0  0  0  0  0
  -22.5444   -3.3337   20.6104 H   0  0  0  0  0  0  0  0  0  0  0  0
  -23.4488   -3.7394   21.9251 H   0  0  0  0  0  0  0  0  0  0  0  0
  -22.2108   -0.7829   19.8123 H   0  0  0  0  0  0  0  0  0  0  0  0
  -23.9823   -1.0965   19.6389 H   0  0  0  0  0  0  0  0  0  0  0  0
  -22.6737    1.2546   21.0572 H   0  0  0  0  0  0  0  0  0  0  0  0
  -23.5545    1.2664   19.4680 H   0  0  0  0  0  0  0  0  0  0  0  0
  -25.3481   -1.5979   21.6696 H   0  0  0  0  0  0  0  0  0  0  0  0
  -24.5244   -1.6197   23.2901 H   0  0  0  0  0  0  0  0  0  0  0  0
  -25.8570    0.4257   22.9090 H   0  0  0  0  0  0  0  0  0  0  0  0
  -24.0901    0.7367   23.1505 H   0  0  0  0  0  0  0  0  0  0  0  0
  -25.5409    0.7058   20.5562 H   0  0  0  0  0  0  0  0  0  0  0  0
  -25.0788    3.0349   20.4932 H   0  0  0  0  0  0  0  0  0  0  0  0
  -25.8732    2.6048   22.0838 H   0  0  0  0  0  0  0  0  0  0  0  0
  -23.8645    4.2210   22.0301 H   0  0  0  0  0  0  0  0  0  0  0  0
  -24.8804    3.4578   24.0776 H   0  0  0  0  0  0  0  0  0  0  0  0
  -23.9696    1.8859   23.9582 H   0  0  0  0  0  0  0  0  0  0  0  0
  -22.8170    4.6602   24.4146 H   0  0  0  0  0  0  0  0  0  0  0  0
  -22.8718    3.2672   25.5684 H   0  0  0  0  0  0  0  0  0  0  0  0
  -22.4270    1.5302   21.8915 H   0  0  0  0  0  0  0  0  0  0  0  0
  -22.3755    2.8551   20.6630 H   0  0  0  0  0  0  0  0  0  0  0  0
  -20.3721    2.8427   22.1401 H   0  0  0  0  0  0  0  0  0  0  0  0
  -21.3425    4.3587   22.2780 H   0  0  0  0  0  0  0  0  0  0  0  0
  -21.4380    1.9771   24.1749 H   0  0  0  0  0  0  0  0  0  0  0  0
  -19.6895    4.0172   23.9209 H   0  0  0  0  0  0  0  0  0  0  0  0
  -21.5180    3.1035   26.9358 H   0  0  0  0  0  0  0  0  0  0  0  0
  -20.5043    1.6700   27.4304 H   0  0  0  0  0  0  0  0  0  0  0  0
  -20.3967    2.9300   29.3390 H   0  0  0  0  0  0  0  0  0  0  0  0
  -18.9560    3.5368   28.4541 H   0  0  0  0  0  0  0  0  0  0  0  0
  -20.4778    4.4912   28.4541 H   0  0  0  0  0  0  0  0  0  0  0  0
  2  1  1  0
  2  3  1  0
  2  4  1  0
  4  5  1  0
  4  7  1  0
  5  6  1  0
  7  8  2  0
  7  9  1  0
  9 10  2  0
  9 15  1  0
 10 11  1  0
 11 12  1  0
 11 13  2  0
 13 14  1  0
 14 15  2  0
 15 16  1  0
 16 17  1  0
 17 18  2  0
 17 22  1  0
 18 19  1  0
 19 20  2  0
 20 21  1  0
 21 22  2  0
 22 23  1  0
 23 24  1  0
 23 25  1  0
 26 24  1  1
 25 26  1  0
 26 27  1  0
 26 29  1  0
 27 28  1  0
 28 31  1  0
 29 30  1  0
 30 31  1  0
 31 32  1  0
 33 32  1  0
 33 34  1  0
 33 36  1  0
 34 35  1  0
 35 38  1  0
 36 37  1  0
 37 38  1  0
 38 39  1  0
 40 39  1  6
 40 41  2  0
 40 42  2  0
 40 43  1  0
 43 44  1  0
  1 45  1  0
  1 46  1  0
  1 47  1  0
  2 48  1  1
  3 49  1  0
  3 50  1  0
  3 51  1  0
  5 52  1  0
  5 53  1  0
  6 54  1  0
  6 55  1  0
  6 56  1  0
 10 57  1  0
 13 58  1  0
 14 59  1  0
 18 60  1  0
 20 61  1  0
 24 62  1  0
 24 63  1  0
 25 64  1  0
 25 65  1  0
 27 66  1  0
 27 67  1  0
 28 68  1  0
 28 69  1  0
 29 70  1  0
 29 71  1  0
 30 72  1  0
 30 73  1  0
 31 74  1  6
 32 75  1  0
 32 76  1  0
 33 77  1  1
 34 78  1  0
 34 79  1  0
 35 80  1  0
 35 81  1  0
 36 82  1  0
 36 83  1  0
 37 84  1  0
 37 85  1  0
 38 86  1  6
 39 87  1  0
 43 88  1  0
 43 89  1  0
 44 90  1  0
 44 91  1  0
 44 92  1  0
M  CHG  1  31   1
M  END
>  <filename_input>  (15) 
7UJ4_OQ4_docked.sdf

>  <pdb_id>  (15) 
7UJ4_OQ4

>  <pose_rank>  (15) 
14

>  <num_atoms_heavy>  (15) 
44

>  <num_torsions>  (15) 
10

>  <pose>  (15) 
[-20.299838328343558, -4.453542033510996, 22.336570791933323, -3.5691123163102545, -1.1008136786838458, 0.9919612958000568, -11.763890430139893, -9.871678079110778, -8.700444944782268, 0.09739135566732739, 2.689578278378019, -2.070871319247932, -2.3867313617224633, -0.11387661503079792, 0.08387917260114182, 1.7822739345786234]

>  <energy>  (15) 
-534.1737396183195

>  <inter_energy>  (15) 
-636.559764537915

>  <intra_energy>  (15) 
115.39732604620109

>  <rmsd>  (15) 
11.1529

>  <sdf_rank>  (15) 
0

$$$$

     RDKit          3D

 92 96  0  0  0  0  0  0  0  0999 V2000
  -21.6884    4.6011   25.0466 C   0  0  0  0  0  0  0  0  0  0  0  0
  -20.5083    4.0923   24.2488 C   0  0  2  0  0  0  0  0  0  0  0  0
  -20.8769    3.6003   22.8727 C   0  0  0  0  0  0  0  0  0  0  0  0
  -19.7936    3.0566   25.0055 N   0  0  0  0  0  0  0  0  0  0  0  0
  -18.3539    3.2971   25.1828 C   0  0  0  0  0  0  0  0  0  0  0  0
  -18.0327    4.1443   26.3781 C   0  0  0  0  0  0  0  0  0  0  0  0
  -20.3718    1.9225   25.4404 C   0  0  0  0  0  0  0  0  0  0  0  0
  -19.6743    1.0303   25.9024 O   0  0  0  0  0  0  0  0  0  0  0  0
  -21.8741    1.6922   25.4091 C   0  0  0  0  0  0  0  0  0  0  0  0
  -22.7366    2.2343   26.3633 C   0  0  0  0  0  0  0  0  0  0  0  0
  -24.0862    2.0261   26.2216 C   0  0  0  0  0  0  0  0  0  0  0  0
  -24.9308    2.5527   27.1347 F   0  0  0  0  0  0  0  0  0  0  0  0
  -24.6491    1.2997   25.1987 C   0  0  0  0  0  0  0  0  0  0  0  0
  -23.7947    0.7414   24.2675 C   0  0  0  0  0  0  0  0  0  0  0  0
  -22.4326    0.8999   24.4029 C   0  0  0  0  0  0  0  0  0  0  0  0
  -21.5932    0.3713   23.4340 O   0  0  0  0  0  0  0  0  0  0  0  0
  -22.0228    0.0809   22.1828 C   0  0  0  0  0  0  0  0  0  0  0  0
  -22.4971    1.0996   21.3955 C   0  0  0  0  0  0  0  0  0  0  0  0
  -22.9238    0.8525   20.1734 N   0  0  0  0  0  0  0  0  0  0  0  0
  -22.9267   -0.4207   19.7626 C   0  0  0  0  0  0  0  0  0  0  0  0
  -22.4296   -1.4540   20.4510 N   0  0  0  0  0  0  0  0  0  0  0  0
  -22.0051   -1.2156   21.6843 C   0  0  0  0  0  0  0  0  0  0  0  0
  -21.4731   -2.2341   22.4061 N   0  0  0  0  0  0  0  0  0  0  0  0
  -21.2426   -3.6121   22.0058 C   0  0  0  0  0  0  0  0  0  0  0  0
  -20.7854   -2.2075   23.6918 C   0  0  0  0  0  0  0  0  0  0  0  0
  -20.3744   -3.6970   23.3351 C   0  0  2  0  0  0  0  0  0  0  0  0
  -18.8886   -3.9613   23.0942 C   0  0  0  0  0  0  0  0  0  0  0  0
  -18.6605   -5.3808   22.6278 C   0  0  0  0  0  0  0  0  0  0  0  0
  -20.8899   -4.7216   24.3419 C   0  0  0  0  0  0  0  0  0  0  0  0
  -20.6621   -6.1407   23.8835 C   0  0  0  0  0  0  0  0  0  0  0  0
  -19.2148   -6.3944   23.5951 N   0  0  1  0  0  0  0  0  0  0  0  0
  -19.0842   -7.7780   23.0364 C   0  0  0  0  0  0  0  0  0  0  0  0
  -20.2040   -8.1605   22.0679 C   0  0  1  0  0  0  0  0  0  0  0  0
  -19.7140   -8.3080   20.6200 C   0  0  0  0  0  0  0  0  0  0  0  0
  -20.8221   -8.7196   19.6651 C   0  0  0  0  0  0  0  0  0  0  0  0
  -20.9317   -9.4201   22.5326 C   0  0  0  0  0  0  0  0  0  0  0  0
  -22.0686   -9.7733   21.5848 C   0  0  0  0  0  0  0  0  0  0  0  0
  -21.5500   -9.9481   20.1666 C   0  0  1  0  0  0  0  0  0  0  0  0
  -22.6840  -10.2706   19.2831 N   0  0  0  0  0  0  0  0  0  0  0  0
  -22.5556  -11.2651   17.9969 S   0  0  1  0  0  0  0  0  0  0  0  0
  -22.5118  -10.3917   16.8631 O   0  0  0  0  0  0  0  0  0  0  0  0
  -21.4445  -12.1365   18.2551 O   0  0  0  0  0  0  0  0  0  0  0  0
  -24.0682  -12.2116   17.9592 C   0  0  0  0  0  0  0  0  0  0  0  0
  -23.8536  -13.6881   18.2236 C   0  0  0  0  0  0  0  0  0  0  0  0
  -21.4721    4.5078   26.1211 H   0  0  0  0  0  0  0  0  0  0  0  0
  -21.8700    5.6574   24.7994 H   0  0  0  0  0  0  0  0  0  0  0  0
  -22.5812    4.0079   24.7994 H   0  0  0  0  0  0  0  0  0  0  0  0
  -19.8425    4.9530   24.0882 H   0  0  0  0  0  0  0  0  0  0  0  0
  -21.5343    2.7228   22.9609 H   0  0  0  0  0  0  0  0  0  0  0  0
  -21.4015    4.3980   22.3264 H   0  0  0  0  0  0  0  0  0  0  0  0
  -19.9639    3.3210   22.3264 H   0  0  0  0  0  0  0  0  0  0  0  0
  -17.8501    2.3261   25.2984 H   0  0  0  0  0  0  0  0  0  0  0  0
  -18.0050    3.8443   24.2946 H   0  0  0  0  0  0  0  0  0  0  0  0
  -18.2472    3.5785   27.2968 H   0  0  0  0  0  0  0  0  0  0  0  0
  -16.9678    4.4194   26.3571 H   0  0  0  0  0  0  0  0  0  0  0  0
  -18.6475    5.0562   26.3571 H   0  0  0  0  0  0  0  0  0  0  0  0
  -22.3436    2.8157   27.2104 H   0  0  0  0  0  0  0  0  0  0  0  0
  -25.7387    1.1682   25.1246 H   0  0  0  0  0  0  0  0  0  0  0  0
  -24.2013    0.1711   23.4193 H   0  0  0  0  0  0  0  0  0  0  0  0
  -22.5214    2.1276   21.7863 H   0  0  0  0  0  0  0  0  0  0  0  0
  -23.3735   -0.6347   18.7804 H   0  0  0  0  0  0  0  0  0  0  0  0
  -22.1374   -4.2517   21.9878 H   0  0  0  0  0  0  0  0  0  0  0  0
  -20.8574   -3.8955   21.0152 H   0  0  0  0  0  0  0  0  0  0  0  0
  -19.9509   -1.4944   23.7632 H   0  0  0  0  0  0  0  0  0  0  0  0
  -21.2795   -1.9277   24.6339 H   0  0  0  0  0  0  0  0  0  0  0  0
  -18.5194   -3.2662   22.3257 H   0  0  0  0  0  0  0  0  0  0  0  0
  -18.3478   -3.8117   24.0403 H   0  0  0  0  0  0  0  0  0  0  0  0
  -19.1515   -5.5164   21.6528 H   0  0  0  0  0  0  0  0  0  0  0  0
  -17.5748   -5.5419   22.5555 H   0  0  0  0  0  0  0  0  0  0  0  0
  -20.3680   -4.5709   25.2984 H   0  0  0  0  0  0  0  0  0  0  0  0
  -21.9746   -4.5725   24.4477 H   0  0  0  0  0  0  0  0  0  0  0  0
  -20.9962   -6.8301   24.6729 H   0  0  0  0  0  0  0  0  0  0  0  0
  -21.2338   -6.3022   22.9577 H   0  0  0  0  0  0  0  0  0  0  0  0
  -18.6726   -6.3080   24.4666 H   0  0  0  0  0  0  0  0  0  0  0  0
  -18.1250   -7.8473   22.5024 H   0  0  0  0  0  0  0  0  0  0  0  0
  -19.1440   -8.4737   23.8863 H   0  0  0  0  0  0  0  0  0  0  0  0
  -20.9198   -7.3253   22.0744 H   0  0  0  0  0  0  0  0  0  0  0  0
  -19.3032   -7.3433   20.2875 H   0  0  0  0  0  0  0  0  0  0  0  0
  -18.9520   -9.1011   20.6063 H   0  0  0  0  0  0  0  0  0  0  0  0
  -21.5397   -7.8914   19.5702 H   0  0  0  0  0  0  0  0  0  0  0  0
  -20.3710   -8.9563   18.6902 H   0  0  0  0  0  0  0  0  0  0  0  0
  -20.2179  -10.2564   22.5658 H   0  0  0  0  0  0  0  0  0  0  0  0
  -21.3529   -9.2334   23.5315 H   0  0  0  0  0  0  0  0  0  0  0  0
  -22.5369  -10.7118   21.9164 H   0  0  0  0  0  0  0  0  0  0  0  0
  -22.8045   -8.9558   21.5945 H   0  0  0  0  0  0  0  0  0  0  0  0
  -20.8186  -10.7698   20.1643 H   0  0  0  0  0  0  0  0  0  0  0  0
  -23.4071  -10.6835   19.8894 H   0  0  0  0  0  0  0  0  0  0  0  0
  -24.7489  -11.8141   18.7264 H   0  0  0  0  0  0  0  0  0  0  0  0
  -24.4880  -12.1179   16.9468 H   0  0  0  0  0  0  0  0  0  0  0  0
  -23.8277  -13.8663   19.3087 H   0  0  0  0  0  0  0  0  0  0  0  0
  -24.6774  -14.2642   17.7770 H   0  0  0  0  0  0  0  0  0  0  0  0
  -22.8998  -14.0058   17.7770 H   0  0  0  0  0  0  0  0  0  0  0  0
  2  1  1  0
  2  3  1  0
  2  4  1  0
  4  5  1  0
  4  7  1  0
  5  6  1  0
  7  8  2  0
  7  9  1  0
  9 10  2  0
  9 15  1  0
 10 11  1  0
 11 12  1  0
 11 13  2  0
 13 14  1  0
 14 15  2  0
 15 16  1  0
 16 17  1  0
 17 18  2  0
 17 22  1  0
 18 19  1  0
 19 20  2  0
 20 21  1  0
 21 22  2  0
 22 23  1  0
 23 24  1  0
 23 25  1  0
 26 24  1  6
 25 26  1  0
 26 27  1  0
 26 29  1  0
 27 28  1  0
 28 31  1  0
 29 30  1  0
 30 31  1  0
 31 32  1  0
 33 32  1  0
 33 34  1  0
 33 36  1  0
 34 35  1  0
 35 38  1  0
 36 37  1  0
 37 38  1  0
 38 39  1  0
 40 39  1  1
 40 41  2  0
 40 42  2  0
 40 43  1  0
 43 44  1  0
  1 45  1  0
  1 46  1  0
  1 47  1  0
  2 48  1  6
  3 49  1  0
  3 50  1  0
  3 51  1  0
  5 52  1  0
  5 53  1  0
  6 54  1  0
  6 55  1  0
  6 56  1  0
 10 57  1  0
 13 58  1  0
 14 59  1  0
 18 60  1  0
 20 61  1  0
 24 62  1  0
 24 63  1  0
 25 64  1  0
 25 65  1  0
 27 66  1  0
 27 67  1  0
 28 68  1  0
 28 69  1  0
 29 70  1  0
 29 71  1  0
 30 72  1  0
 30 73  1  0
 31 74  1  1
 32 75  1  0
 32 76  1  0
 33 77  1  6
 34 78  1  0
 34 79  1  0
 35 80  1  0
 35 81  1  0
 36 82  1  0
 36 83  1  0
 37 84  1  0
 37 85  1  0
 38 86  1  1
 39 87  1  0
 43 88  1  0
 43 89  1  0
 44 90  1  0
 44 91  1  0
 44 92  1  0
M  CHG  1  31   1
M  END
>  <filename_input>  (16) 
7UJ4_OQ4_docked.sdf

>  <pdb_id>  (16) 
7UJ4_OQ4

>  <pose_rank>  (16) 
15

>  <num_atoms_heavy>  (16) 
44

>  <num_torsions>  (16) 
10

>  <pose>  (16) 
[-22.02276793773493, 0.08092906238686834, 22.182755357591457, 2.849877397644013, -3.3866594912195827, -2.7050992505583475, 0.652218283933137, 2.0210737015265035, -9.156639170269704, 2.7138129978009635, -0.5402855802907002, -2.555218486442564, 1.0474837914558206, -0.3651368313828613, -2.5515671351367644, 1.8584546344053525]

>  <energy>  (16) 
-520.0823259444802

>  <inter_energy>  (16) 
-605.9941349223689

>  <intra_energy>  (16) 
83.49934652414595

>  <rmsd>  (16) 
4.02793

>  <sdf_rank>  (16) 
0

$$$$

     RDKit          3D

 92 96  0  0  0  0  0  0  0  0999 V2000
  -25.8093   -1.6393   24.0133 C   0  0  0  0  0  0  0  0  0  0  0  0
  -24.5653   -2.1615   23.3294 C   0  0  2  0  0  0  0  0  0  0  0  0
  -24.7742   -3.4719   22.6147 C   0  0  0  0  0  0  0  0  0  0  0  0
  -23.4598   -2.2554   24.2911 N   0  0  0  0  0  0  0  0  0  0  0  0
  -23.8156   -2.8372   25.5938 C   0  0  0  0  0  0  0  0  0  0  0  0
  -23.4037   -4.2721   25.7395 C   0  0  0  0  0  0  0  0  0  0  0  0
  -22.2261   -1.7744   24.0537 C   0  0  0  0  0  0  0  0  0  0  0  0
  -21.4128   -1.7272   24.9660 O   0  0  0  0  0  0  0  0  0  0  0  0
  -21.7709   -1.2972   22.6840 C   0  0  0  0  0  0  0  0  0  0  0  0
  -21.7998    0.0472   22.3098 C   0  0  0  0  0  0  0  0  0  0  0  0
  -21.3110    0.3953   21.0749 C   0  0  0  0  0  0  0  0  0  0  0  0
  -21.3267    1.6943   20.7054 F   0  0  0  0  0  0  0  0  0  0  0  0
  -20.8021   -0.5041   20.1678 C   0  0  0  0  0  0  0  0  0  0  0  0
  -20.7961   -1.8382   20.5269 C   0  0  0  0  0  0  0  0  0  0  0  0
  -21.3147   -2.2245   21.7438 C   0  0  0  0  0  0  0  0  0  0  0  0
  -21.2586   -3.5618   22.1061 O   0  0  0  0  0  0  0  0  0  0  0  0
  -20.0861   -4.2160   22.2842 C   0  0  0  0  0  0  0  0  0  0  0  0
  -19.1390   -3.6599   23.1066 C   0  0  0  0  0  0  0  0  0  0  0  0
  -17.9869   -4.2691   23.3016 N   0  0  0  0  0  0  0  0  0  0  0  0
  -17.7635   -5.4043   22.6299 C   0  0  0  0  0  0  0  0  0  0  0  0
  -18.6574   -6.0320   21.8581 N   0  0  0  0  0  0  0  0  0  0  0  0
  -19.8164   -5.4224   21.6504 C   0  0  0  0  0  0  0  0  0  0  0  0
  -20.7577   -6.0382   20.8913 N   0  0  0  0  0  0  0  0  0  0  0  0
  -20.7118   -7.3510   20.2696 C   0  0  0  0  0  0  0  0  0  0  0  0
  -22.1507   -5.6763   20.6564 C   0  0  0  0  0  0  0  0  0  0  0  0
  -22.2689   -7.1307   20.0353 C   0  0  2  0  0  0  0  0  0  0  0  0
  -23.1589   -8.1256   20.7791 C   0  0  0  0  0  0  0  0  0  0  0  0
  -23.0668   -9.5015   20.1599 C   0  0  0  0  0  0  0  0  0  0  0  0
  -22.6748   -7.1261   18.5641 C   0  0  0  0  0  0  0  0  0  0  0  0
  -22.5882   -8.4974   17.9411 C   0  0  0  0  0  0  0  0  0  0  0  0
  -23.4169   -9.4914   18.6945 N   0  0  1  0  0  0  0  0  0  0  0  0
  -23.1888  -10.8436   18.0919 C   0  0  0  0  0  0  0  0  0  0  0  0
  -22.0745  -11.6413   18.7702 C   0  0  1  0  0  0  0  0  0  0  0  0
  -20.7752  -10.8372   18.9230 C   0  0  0  0  0  0  0  0  0  0  0  0
  -19.6797  -11.6212   19.6261 C   0  0  0  0  0  0  0  0  0  0  0  0
  -22.5344  -12.2026   20.1139 C   0  0  0  0  0  0  0  0  0  0  0  0
  -21.4335  -13.0266   20.7655 C   0  0  0  0  0  0  0  0  0  0  0  0
  -20.1717  -12.1962   20.9367 C   0  0  1  0  0  0  0  0  0  0  0  0
  -19.1305  -13.0368   21.5529 N   0  0  0  0  0  0  0  0  0  0  0  0
  -18.1197  -12.4950   22.7125 S   0  0  1  0  0  0  0  0  0  0  0  0
  -18.1949  -13.4780   23.7509 O   0  0  0  0  0  0  0  0  0  0  0  0
  -16.8580  -12.2397   22.0773 O   0  0  0  0  0  0  0  0  0  0  0  0
  -18.8229  -10.9613   23.2948 C   0  0  0  0  0  0  0  0  0  0  0  0
  -18.0714   -9.7389   22.8080 C   0  0  0  0  0  0  0  0  0  0  0  0
  -25.6785   -1.6942   25.1041 H   0  0  0  0  0  0  0  0  0  0  0  0
  -25.9795   -0.5939   23.7166 H   0  0  0  0  0  0  0  0  0  0  0  0
  -26.6747   -2.2502   23.7166 H   0  0  0  0  0  0  0  0  0  0  0  0
  -24.3078   -1.4335   22.5460 H   0  0  0  0  0  0  0  0  0  0  0  0
  -24.9024   -4.2763   23.3539 H   0  0  0  0  0  0  0  0  0  0  0  0
  -25.6732   -3.4065   21.9843 H   0  0  0  0  0  0  0  0  0  0  0  0
  -23.8993   -3.6892   21.9843 H   0  0  0  0  0  0  0  0  0  0  0  0
  -23.3225   -2.2513   26.3834 H   0  0  0  0  0  0  0  0  0  0  0  0
  -24.9122   -2.8050   25.6744 H   0  0  0  0  0  0  0  0  0  0  0  0
  -23.3308   -4.5260   26.8073 H   0  0  0  0  0  0  0  0  0  0  0  0
  -24.1524   -4.9190   25.2590 H   0  0  0  0  0  0  0  0  0  0  0  0
  -22.4258   -4.4234   25.2590 H   0  0  0  0  0  0  0  0  0  0  0  0
  -22.2054    0.8112   22.9894 H   0  0  0  0  0  0  0  0  0  0  0  0
  -20.4144   -0.1738   19.1928 H   0  0  0  0  0  0  0  0  0  0  0  0
  -20.3780   -2.5909   19.8424 H   0  0  0  0  0  0  0  0  0  0  0  0
  -19.3425   -2.7010   23.6056 H   0  0  0  0  0  0  0  0  0  0  0  0
  -16.7653   -5.8576   22.7197 H   0  0  0  0  0  0  0  0  0  0  0  0
  -20.1040   -7.4165   19.3551 H   0  0  0  0  0  0  0  0  0  0  0  0
  -20.2972   -8.2397   20.7680 H   0  0  0  0  0  0  0  0  0  0  0  0
  -22.7499   -5.5026   21.5624 H   0  0  0  0  0  0  0  0  0  0  0  0
  -22.4546   -4.7653   20.1200 H   0  0  0  0  0  0  0  0  0  0  0  0
  -22.8368   -8.1813   21.8294 H   0  0  0  0  0  0  0  0  0  0  0  0
  -24.2014   -7.7807   20.7140 H   0  0  0  0  0  0  0  0  0  0  0  0
  -22.0383   -9.8738   20.2758 H   0  0  0  0  0  0  0  0  0  0  0  0
  -23.7889  -10.1522   20.6749 H   0  0  0  0  0  0  0  0  0  0  0  0
  -23.7112   -6.7663   18.4843 H   0  0  0  0  0  0  0  0  0  0  0  0
  -21.9778   -6.4674   18.0251 H   0  0  0  0  0  0  0  0  0  0  0  0
  -22.9495   -8.4430   16.9036 H   0  0  0  0  0  0  0  0  0  0  0  0
  -21.5390   -8.8265   17.9715 H   0  0  0  0  0  0  0  0  0  0  0  0
  -24.4109   -9.2311   18.6232 H   0  0  0  0  0  0  0  0  0  0  0  0
  -24.1231  -11.4192   18.1679 H   0  0  0  0  0  0  0  0  0  0  0  0
  -22.8779  -10.6815   17.0493 H   0  0  0  0  0  0  0  0  0  0  0  0
  -21.8457  -12.4854   18.1029 H   0  0  0  0  0  0  0  0  0  0  0  0
  -20.4176  -10.5529   17.9223 H   0  0  0  0  0  0  0  0  0  0  0  0
  -21.0009   -9.9551   19.5401 H   0  0  0  0  0  0  0  0  0  0  0  0
  -19.3525  -12.4442   18.9737 H   0  0  0  0  0  0  0  0  0  0  0  0
  -18.8441  -10.9378   19.8379 H   0  0  0  0  0  0  0  0  0  0  0  0
  -22.8017  -11.3687   20.7796 H   0  0  0  0  0  0  0  0  0  0  0  0
  -23.4048  -12.8530   19.9429 H   0  0  0  0  0  0  0  0  0  0  0  0
  -21.7761  -13.3709   21.7525 H   0  0  0  0  0  0  0  0  0  0  0  0
  -21.2059  -13.8873   20.1194 H   0  0  0  0  0  0  0  0  0  0  0  0
  -20.4061  -11.3407   21.5872 H   0  0  0  0  0  0  0  0  0  0  0  0
  -19.6229  -13.8443   21.9609 H   0  0  0  0  0  0  0  0  0  0  0  0
  -19.8625  -10.8966   22.9413 H   0  0  0  0  0  0  0  0  0  0  0  0
  -18.7602  -10.9685   24.3930 H   0  0  0  0  0  0  0  0  0  0  0  0
  -17.7151   -9.1592   23.6724 H   0  0  0  0  0  0  0  0  0  0  0  0
  -17.2116  -10.0553   22.1992 H   0  0  0  0  0  0  0  0  0  0  0  0
  -18.7419   -9.1146   22.1992 H   0  0  0  0  0  0  0  0  0  0  0  0
  2  1  1  0
  2  3  1  0
  2  4  1  0
  4  5  1  0
  4  7  1  0
  5  6  1  0
  7  8  2  0
  7  9  1  0
  9 10  2  0
  9 15  1  0
 10 11  1  0
 11 12  1  0
 11 13  2  0
 13 14  1  0
 14 15  2  0
 15 16  1  0
 16 17  1  0
 17 18  2  0
 17 22  1  0
 18 19  1  0
 19 20  2  0
 20 21  1  0
 21 22  2  0
 22 23  1  0
 23 24  1  0
 23 25  1  0
 26 24  1  6
 25 26  1  0
 26 27  1  0
 26 29  1  0
 27 28  1  0
 28 31  1  0
 29 30  1  0
 30 31  1  0
 31 32  1  0
 33 32  1  0
 33 34  1  0
 33 36  1  0
 34 35  1  0
 35 38  1  0
 36 37  1  0
 37 38  1  0
 38 39  1  0
 40 39  1  6
 40 41  2  0
 40 42  2  0
 40 43  1  0
 43 44  1  0
  1 45  1  0
  1 46  1  0
  1 47  1  0
  2 48  1  6
  3 49  1  0
  3 50  1  0
  3 51  1  0
  5 52  1  0
  5 53  1  0
  6 54  1  0
  6 55  1  0
  6 56  1  0
 10 57  1  0
 13 58  1  0
 14 59  1  0
 18 60  1  0
 20 61  1  0
 24 62  1  0
 24 63  1  0
 25 64  1  0
 25 65  1  0
 27 66  1  0
 27 67  1  0
 28 68  1  0
 28 69  1  0
 29 70  1  0
 29 71  1  0
 30 72  1  0
 30 73  1  0
 31 74  1  1
 32 75  1  0
 32 76  1  0
 33 77  1  6
 34 78  1  0
 34 79  1  0
 35 80  1  0
 35 81  1  0
 36 82  1  0
 36 83  1  0
 37 84  1  0
 37 85  1  0
 38 86  1  1
 39 87  1  0
 43 88  1  0
 43 89  1  0
 44 90  1  0
 44 91  1  0
 44 92  1  0
M  CHG  1  31   1
M  END
>  <filename_input>  (17) 
7UJ4_OQ4_docked.sdf

>  <pdb_id>  (17) 
7UJ4_OQ4

>  <pose_rank>  (17) 
16

>  <num_atoms_heavy>  (17) 
44

>  <num_torsions>  (17) 
10

>  <pose>  (17) 
[-20.0860869275818, -4.215991612184381, 22.284150033097276, 0.8236621849204498, 3.766802417403893, 2.830901812433925, 0.46614111929071317, 2.7544763988994387, 0.1891745876981048, -0.5989842226420957, -0.2802749291356685, -1.6296766886549081, -1.7776138630877882, -0.24735038234247284, 1.507206737316612, -4.279543363525271]

>  <energy>  (17) 
-493.01569730616495

>  <inter_energy>  (17) 
-567.2674340935317

>  <intra_energy>  (17) 
81.30271672940252

>  <rmsd>  (17) 
6.16561

>  <sdf_rank>  (17) 
0

$$$$

     RDKit          3D

 92 96  0  0  0  0  0  0  0  0999 V2000
  -19.8156  -11.0126   18.9453 C   0  0  0  0  0  0  0  0  0  0  0  0
  -20.4268  -12.1510   19.7317 C   0  0  2  0  0  0  0  0  0  0  0  0
  -21.5618  -12.8379   19.0166 C   0  0  0  0  0  0  0  0  0  0  0  0
  -20.8457  -11.6827   21.0589 N   0  0  0  0  0  0  0  0  0  0  0  0
  -20.3270  -12.4681   22.1885 C   0  0  0  0  0  0  0  0  0  0  0  0
  -19.0161  -11.9636   22.7146 C   0  0  0  0  0  0  0  0  0  0  0  0
  -21.7070  -10.6672   21.2503 C   0  0  0  0  0  0  0  0  0  0  0  0
  -22.1461  -10.4540   22.3717 O   0  0  0  0  0  0  0  0  0  0  0  0
  -22.1568   -9.7390   20.1336 C   0  0  0  0  0  0  0  0  0  0  0  0
  -22.8929  -10.1874   19.0356 C   0  0  0  0  0  0  0  0  0  0  0  0
  -23.3103   -9.2677   18.1057 C   0  0  0  0  0  0  0  0  0  0  0  0
  -24.0300   -9.6891   17.0433 F   0  0  0  0  0  0  0  0  0  0  0  0
  -23.0366   -7.9221   18.1781 C   0  0  0  0  0  0  0  0  0  0  0  0
  -22.2866   -7.4806   19.2511 C   0  0  0  0  0  0  0  0  0  0  0  0
  -21.8202   -8.3838   20.1815 C   0  0  0  0  0  0  0  0  0  0  0  0
  -21.1081   -7.9168   21.2758 O   0  0  0  0  0  0  0  0  0  0  0  0
  -19.7584   -7.8041   21.2681 C   0  0  0  0  0  0  0  0  0  0  0  0
  -19.0110   -8.8620   20.8155 C   0  0  0  0  0  0  0  0  0  0  0  0
  -17.6956   -8.7866   20.7950 N   0  0  0  0  0  0  0  0  0  0  0  0
  -17.1299   -7.6752   21.2791 C   0  0  0  0  0  0  0  0  0  0  0  0
  -17.7926   -6.5860   21.6831 N   0  0  0  0  0  0  0  0  0  0  0  0
  -19.1163   -6.6558   21.7141 C   0  0  0  0  0  0  0  0  0  0  0  0
  -19.8247   -5.5634   22.0967 N   0  0  0  0  0  0  0  0  0  0  0  0
  -19.3387   -4.2422   22.4575 C   0  0  0  0  0  0  0  0  0  0  0  0
  -21.2618   -5.3199   22.0514 C   0  0  0  0  0  0  0  0  0  0  0  0
  -20.8656   -3.8129   22.3461 C   0  0  2  0  0  0  0  0  0  0  0  0
  -21.1494   -2.7984   21.2390 C   0  0  0  0  0  0  0  0  0  0  0  0
  -20.5957   -1.4383   21.5970 C   0  0  0  0  0  0  0  0  0  0  0  0
  -21.4514   -3.2802   23.6508 C   0  0  0  0  0  0  0  0  0  0  0  0
  -20.9051   -1.9211   24.0119 C   0  0  0  0  0  0  0  0  0  0  0  0
  -21.1327   -0.9322   22.9107 N   0  0  1  0  0  0  0  0  0  0  0  0
  -20.4638    0.3531   23.2900 C   0  0  0  0  0  0  0  0  0  0  0  0
  -21.4333    1.5201   23.4813 C   0  0  1  0  0  0  0  0  0  0  0  0
  -21.4487    2.4832   22.2853 C   0  0  0  0  0  0  0  0  0  0  0  0
  -22.4363    3.6242   22.4639 C   0  0  0  0  0  0  0  0  0  0  0  0
  -22.8406    1.0235   23.8048 C   0  0  0  0  0  0  0  0  0  0  0  0
  -23.7913    2.1899   24.0311 C   0  0  0  0  0  0  0  0  0  0  0  0
  -23.8135    3.1068   22.8188 C   0  0  1  0  0  0  0  0  0  0  0  0
  -24.7305    4.2280   23.0887 N   0  0  0  0  0  0  0  0  0  0  0  0
  -24.9535    4.8571   24.5767 S   0  0  1  0  0  0  0  0  0  0  0  0
  -25.6500    3.8385   25.3031 O   0  0  0  0  0  0  0  0  0  0  0  0
  -23.6671    5.2946   25.0396 O   0  0  0  0  0  0  0  0  0  0  0  0
  -26.0258    6.2666   24.3547 C   0  0  0  0  0  0  0  0  0  0  0  0
  -25.3510    7.5847   24.6760 C   0  0  0  0  0  0  0  0  0  0  0  0
  -19.4124  -10.2616   19.6406 H   0  0  0  0  0  0  0  0  0  0  0  0
  -19.0037  -11.3991   18.3117 H   0  0  0  0  0  0  0  0  0  0  0  0
  -20.5863  -10.5494   18.3117 H   0  0  0  0  0  0  0  0  0  0  0  0
  -19.6416  -12.9132   19.8438 H   0  0  0  0  0  0  0  0  0  0  0  0
  -22.2590  -13.2597   19.7556 H   0  0  0  0  0  0  0  0  0  0  0  0
  -22.0925  -12.1092   18.3862 H   0  0  0  0  0  0  0  0  0  0  0  0
  -21.1625  -13.6460   18.3862 H   0  0  0  0  0  0  0  0  0  0  0  0
  -21.0651  -12.4357   23.0034 H   0  0  0  0  0  0  0  0  0  0  0  0
  -20.1567  -13.4908   21.8210 H   0  0  0  0  0  0  0  0  0  0  0  0
  -19.0351  -11.9709   23.8144 H   0  0  0  0  0  0  0  0  0  0  0  0
  -18.2033  -12.6132   22.3576 H   0  0  0  0  0  0  0  0  0  0  0  0
  -18.8484  -10.9368   22.3576 H   0  0  0  0  0  0  0  0  0  0  0  0
  -23.1333  -11.2543   18.9181 H   0  0  0  0  0  0  0  0  0  0  0  0
  -23.4011   -7.2235   17.4106 H   0  0  0  0  0  0  0  0  0  0  0  0
  -22.0622   -6.4095   19.3627 H   0  0  0  0  0  0  0  0  0  0  0  0
  -19.5123   -9.7774   20.4681 H   0  0  0  0  0  0  0  0  0  0  0  0
  -16.0324   -7.6555   21.3506 H   0  0  0  0  0  0  0  0  0  0  0  0
  -18.9006   -4.1616   23.4633 H   0  0  0  0  0  0  0  0  0  0  0  0
  -18.5279   -3.7303   21.9185 H   0  0  0  0  0  0  0  0  0  0  0  0
  -21.7378   -5.4981   21.0759 H   0  0  0  0  0  0  0  0  0  0  0  0
  -21.9877   -5.8818   22.6574 H   0  0  0  0  0  0  0  0  0  0  0  0
  -20.6806   -3.1436   20.3057 H   0  0  0  0  0  0  0  0  0  0  0  0
  -22.2388   -2.7117   21.1134 H   0  0  0  0  0  0  0  0  0  0  0  0
  -19.5002   -1.5088   21.6658 H   0  0  0  0  0  0  0  0  0  0  0  0
  -20.9032   -0.7316   20.8121 H   0  0  0  0  0  0  0  0  0  0  0  0
  -22.5436   -3.2051   23.5433 H   0  0  0  0  0  0  0  0  0  0  0  0
  -21.1734   -3.9785   24.4539 H   0  0  0  0  0  0  0  0  0  0  0  0
  -21.4068   -1.5640   24.9234 H   0  0  0  0  0  0  0  0  0  0  0  0
  -19.8213   -2.0151   24.1752 H   0  0  0  0  0  0  0  0  0  0  0  0
  -22.1447   -0.7858   22.7870 H   0  0  0  0  0  0  0  0  0  0  0  0
  -19.9199    0.1960   24.2331 H   0  0  0  0  0  0  0  0  0  0  0  0
  -19.7960    0.6243   22.4591 H   0  0  0  0  0  0  0  0  0  0  0  0
  -21.0626    2.0945   24.3431 H   0  0  0  0  0  0  0  0  0  0  0  0
  -20.4409    2.9062   22.1611 H   0  0  0  0  0  0  0  0  0  0  0  0
  -21.7608    1.9091   21.4004 H   0  0  0  0  0  0  0  0  0  0  0  0
  -22.0816    4.2825   23.2706 H   0  0  0  0  0  0  0  0  0  0  0  0
  -22.5058    4.1758   21.5147 H   0  0  0  0  0  0  0  0  0  0  0  0
  -23.2097    0.4161   22.9652 H   0  0  0  0  0  0  0  0  0  0  0  0
  -22.7976    0.4225   24.7251 H   0  0  0  0  0  0  0  0  0  0  0  0
  -24.8048    1.8008   24.2084 H   0  0  0  0  0  0  0  0  0  0  0  0
  -23.4456    2.7644   24.9032 H   0  0  0  0  0  0  0  0  0  0  0  0
  -24.1644    2.5268   21.9526 H   0  0  0  0  0  0  0  0  0  0  0  0
  -24.4075    5.0069   22.4972 H   0  0  0  0  0  0  0  0  0  0  0  0
  -26.3595    6.2907   23.3068 H   0  0  0  0  0  0  0  0  0  0  0  0
  -26.8677    6.1508   25.0531 H   0  0  0  0  0  0  0  0  0  0  0  0
  -25.2879    7.7079   25.7673 H   0  0  0  0  0  0  0  0  0  0  0  0
  -24.3381    7.5923   24.2470 H   0  0  0  0  0  0  0  0  0  0  0  0
  -25.9371    8.4108   24.2470 H   0  0  0  0  0  0  0  0  0  0  0  0
  2  1  1  0
  2  3  1  0
  2  4  1  0
  4  5  1  0
  4  7  1  0
  5  6  1  0
  7  8  2  0
  7  9  1  0
  9 10  2  0
  9 15  1  0
 10 11  1  0
 11 12  1  0
 11 13  2  0
 13 14  1  0
 14 15  2  0
 15 16  1  0
 16 17  1  0
 17 18  2  0
 17 22  1  0
 18 19  1  0
 19 20  2  0
 20 21  1  0
 21 22  2  0
 22 23  1  0
 23 24  1  0
 23 25  1  0
 26 24  1  1
 25 26  1  0
 26 27  1  0
 26 29  1  0
 27 28  1  0
 28 31  1  0
 29 30  1  0
 30 31  1  0
 31 32  1  0
 33 32  1  0
 33 34  1  0
 33 36  1  0
 34 35  1  0
 35 38  1  0
 36 37  1  0
 37 38  1  0
 38 39  1  0
 40 39  1  6
 40 41  2  0
 40 42  2  0
 40 43  1  0
 43 44  1  0
  1 45  1  0
  1 46  1  0
  1 47  1  0
  2 48  1  1
  3 49  1  0
  3 50  1  0
  3 51  1  0
  5 52  1  0
  5 53  1  0
  6 54  1  0
  6 55  1  0
  6 56  1  0
 10 57  1  0
 13 58  1  0
 14 59  1  0
 18 60  1  0
 20 61  1  0
 24 62  1  0
 24 63  1  0
 25 64  1  0
 25 65  1  0
 27 66  1  0
 27 67  1  0
 28 68  1  0
 28 69  1  0
 29 70  1  0
 29 71  1  0
 30 72  1  0
 30 73  1  0
 31 74  1  6
 32 75  1  0
 32 76  1  0
 33 77  1  1
 34 78  1  0
 34 79  1  0
 35 80  1  0
 35 81  1  0
 36 82  1  0
 36 83  1  0
 37 84  1  0
 37 85  1  0
 38 86  1  6
 39 87  1  0
 43 88  1  0
 43 89  1  0
 44 90  1  0
 44 91  1  0
 44 92  1  0
M  CHG  1  31   1
M  END
>  <filename_input>  (18) 
7UJ4_OQ4_docked.sdf

>  <pdb_id>  (18) 
7UJ4_OQ4

>  <pose_rank>  (18) 
17

>  <num_atoms_heavy>  (18) 
44

>  <num_torsions>  (18) 
10

>  <pose>  (18) 
[-19.758434388081795, -7.80410002107564, 21.268077059052597, -2.8492374664085323, -0.5857655213098435, 1.7735027274899973, 5.020013649429624, 0.05740403858640634, -0.37791394199087125, 2.693894793154492, -0.4700349562997767, 1.010454268641401, -2.687992092629864, 2.7495612356815435, -1.970049231437268, -4.425336946494459]

>  <energy>  (18) 
-406.30095965685393

>  <inter_energy>  (18) 
-559.419882818507

>  <intra_energy>  (18) 
152.68509651789734

>  <rmsd>  (18) 
13.1087

>  <sdf_rank>  (18) 
0

$$$$

     RDKit          3D

 92 96  0  0  0  0  0  0  0  0999 V2000
  -20.8236   -8.7300   24.0910 C   0  0  0  0  0  0  0  0  0  0  0  0
  -21.4475   -9.2793   22.8273 C   0  0  2  0  0  0  0  0  0  0  0  0
  -21.9964  -10.6744   22.9821 C   0  0  0  0  0  0  0  0  0  0  0  0
  -20.4889   -9.2097   21.7172 N   0  0  0  0  0  0  0  0  0  0  0  0
  -19.0919   -9.4869   22.0826 C   0  0  0  0  0  0  0  0  0  0  0  0
  -18.7920  -10.9491   22.2299 C   0  0  0  0  0  0  0  0  0  0  0  0
  -20.8246   -8.8388   20.4684 C   0  0  0  0  0  0  0  0  0  0  0  0
  -19.9441   -8.6305   19.6454 O   0  0  0  0  0  0  0  0  0  0  0  0
  -22.2649   -8.6819   20.0082 C   0  0  0  0  0  0  0  0  0  0  0  0
  -22.9779   -9.7202   19.4065 C   0  0  0  0  0  0  0  0  0  0  0  0
  -24.2943   -9.5087   19.0791 C   0  0  0  0  0  0  0  0  0  0  0  0
  -24.9962  -10.5089   18.5036 F   0  0  0  0  0  0  0  0  0  0  0  0
  -24.9598   -8.3249   19.2948 C   0  0  0  0  0  0  0  0  0  0  0  0
  -24.2483   -7.2882   19.8673 C   0  0  0  0  0  0  0  0  0  0  0  0
  -22.9150   -7.4562   20.1724 C   0  0  0  0  0  0  0  0  0  0  0  0
  -22.2291   -6.4203   20.7883 O   0  0  0  0  0  0  0  0  0  0  0  0
  -21.9022   -5.2788   20.1367 C   0  0  0  0  0  0  0  0  0  0  0  0
  -21.2869   -5.3708   18.9138 C   0  0  0  0  0  0  0  0  0  0  0  0
  -20.9543   -4.2804   18.2528 N   0  0  0  0  0  0  0  0  0  0  0  0
  -21.1878   -3.1020   18.8416 C   0  0  0  0  0  0  0  0  0  0  0  0
  -21.8317   -2.9342   20.0018 N   0  0  0  0  0  0  0  0  0  0  0  0
  -22.1632   -4.0260   20.6771 C   0  0  0  0  0  0  0  0  0  0  0  0
  -22.8376   -3.8971   21.8476 N   0  0  0  0  0  0  0  0  0  0  0  0
  -23.3185   -2.6876   22.4942 C   0  0  0  0  0  0  0  0  0  0  0  0
  -23.4631   -4.9166   22.6818 C   0  0  0  0  0  0  0  0  0  0  0  0
  -24.1395   -3.6865   23.4195 C   0  0  2  0  0  0  0  0  0  0  0  0
  -25.6563   -3.5554   23.2878 C   0  0  0  0  0  0  0  0  0  0  0  0
  -26.1445   -2.2703   23.9162 C   0  0  0  0  0  0  0  0  0  0  0  0
  -23.7738   -3.5959   24.8985 C   0  0  0  0  0  0  0  0  0  0  0  0
  -24.2614   -2.3167   25.5324 C   0  0  0  0  0  0  0  0  0  0  0  0
  -25.7403   -2.1539   25.3630 N   0  0  1  0  0  0  0  0  0  0  0  0
  -26.1296   -0.8150   25.9099 C   0  0  0  0  0  0  0  0  0  0  0  0
  -24.9402    0.0949   26.2188 C   0  0  1  0  0  0  0  0  0  0  0  0
  -24.5314    0.9668   25.0226 C   0  0  0  0  0  0  0  0  0  0  0  0
  -23.3700    1.8932   25.3419 C   0  0  0  0  0  0  0  0  0  0  0  0
  -25.2034    0.9493   27.4568 C   0  0  0  0  0  0  0  0  0  0  0  0
  -24.0014    1.8245   27.7804 C   0  0  0  0  0  0  0  0  0  0  0  0
  -23.6412    2.7017   26.5922 C   0  0  1  0  0  0  0  0  0  0  0  0
  -22.4649    3.5163   26.9433 N   0  0  0  0  0  0  0  0  0  0  0  0
  -21.2432    2.9624   27.8709 S   0  0  1  0  0  0  0  0  0  0  0  0
  -21.6030    3.3311   29.2069 O   0  0  0  0  0  0  0  0  0  0  0  0
  -21.0728    1.5743   27.5474 O   0  0  0  0  0  0  0  0  0  0  0  0
  -19.7963    3.8801   27.3709 C   0  0  0  0  0  0  0  0  0  0  0  0
  -18.7668    3.0268   26.6581 C   0  0  0  0  0  0  0  0  0  0  0  0
  -21.3226   -9.1694   24.9673 H   0  0  0  0  0  0  0  0  0  0  0  0
  -19.7537   -8.9845   24.1123 H   0  0  0  0  0  0  0  0  0  0  0  0
  -20.9408   -7.6364   24.1123 H   0  0  0  0  0  0  0  0  0  0  0  0
  -22.3151   -8.6419   22.6019 H   0  0  0  0  0  0  0  0  0  0  0  0
  -22.0909  -10.9147   24.0514 H   0  0  0  0  0  0  0  0  0  0  0  0
  -22.9852  -10.7345   22.5040 H   0  0  0  0  0  0  0  0  0  0  0  0
  -21.3137  -11.3922   22.5040 H   0  0  0  0  0  0  0  0  0  0  0  0
  -18.4386   -9.0744   21.2997 H   0  0  0  0  0  0  0  0  0  0  0  0
  -18.9144   -9.0193   23.0624 H   0  0  0  0  0  0  0  0  0  0  0  0
  -18.7392  -11.2068   23.2980 H   0  0  0  0  0  0  0  0  0  0  0  0
  -19.5883  -11.5369   21.7499 H   0  0  0  0  0  0  0  0  0  0  0  0
  -17.8287  -11.1760   21.7499 H   0  0  0  0  0  0  0  0  0  0  0  0
  -22.4955  -10.6867   19.1990 H   0  0  0  0  0  0  0  0  0  0  0  0
  -26.0189   -8.2077   19.0217 H   0  0  0  0  0  0  0  0  0  0  0  0
  -24.7453   -6.3301   20.0793 H   0  0  0  0  0  0  0  0  0  0  0  0
  -21.0701   -6.3595   18.4831 H   0  0  0  0  0  0  0  0  0  0  0  0
  -20.8210   -2.1994   18.3310 H   0  0  0  0  0  0  0  0  0  0  0  0
  -22.5499   -2.0938   23.0105 H   0  0  0  0  0  0  0  0  0  0  0  0
  -23.7829   -1.8549   21.9457 H   0  0  0  0  0  0  0  0  0  0  0  0
  -24.1577   -5.5902   22.1586 H   0  0  0  0  0  0  0  0  0  0  0  0
  -22.8940   -5.6968   23.2087 H   0  0  0  0  0  0  0  0  0  0  0  0
  -25.9267   -3.5600   22.2216 H   0  0  0  0  0  0  0  0  0  0  0  0
  -26.1282   -4.4018   23.8082 H   0  0  0  0  0  0  0  0  0  0  0  0
  -25.7204   -1.4209   23.3606 H   0  0  0  0  0  0  0  0  0  0  0  0
  -27.2437   -2.2693   23.8718 H   0  0  0  0  0  0  0  0  0  0  0  0
  -24.2264   -4.4476   25.4274 H   0  0  0  0  0  0  0  0  0  0  0  0
  -22.6766   -3.6121   24.9750 H   0  0  0  0  0  0  0  0  0  0  0  0
  -24.0238   -2.3359   26.6062 H   0  0  0  0  0  0  0  0  0  0  0  0
  -23.7605   -1.4715   25.0376 H   0  0  0  0  0  0  0  0  0  0  0  0
  -26.2271   -2.9043   25.8738 H   0  0  0  0  0  0  0  0  0  0  0  0
  -26.7691   -0.3109   25.1704 H   0  0  0  0  0  0  0  0  0  0  0  0
  -26.6498   -0.9967   26.8620 H   0  0  0  0  0  0  0  0  0  0  0  0
  -24.0882   -0.5679   26.4308 H   0  0  0  0  0  0  0  0  0  0  0  0
  -24.2385    0.3088   24.1913 H   0  0  0  0  0  0  0  0  0  0  0  0
  -25.3950    1.5953   24.7591 H   0  0  0  0  0  0  0  0  0  0  0  0
  -22.4623    1.2909   25.4941 H   0  0  0  0  0  0  0  0  0  0  0  0
  -23.2381    2.5885   24.4998 H   0  0  0  0  0  0  0  0  0  0  0  0
  -26.0768    1.5918   27.2715 H   0  0  0  0  0  0  0  0  0  0  0  0
  -25.3909    0.2814   28.3105 H   0  0  0  0  0  0  0  0  0  0  0  0
  -24.2419    2.4644   28.6421 H   0  0  0  0  0  0  0  0  0  0  0  0
  -23.1442    1.1761   28.0145 H   0  0  0  0  0  0  0  0  0  0  0  0
  -24.5010    3.3498   26.3673 H   0  0  0  0  0  0  0  0  0  0  0  0
  -22.0372    3.7966   26.0492 H   0  0  0  0  0  0  0  0  0  0  0  0
  -20.1110    4.6876   26.6936 H   0  0  0  0  0  0  0  0  0  0  0  0
  -19.3233    4.2690   28.2847 H   0  0  0  0  0  0  0  0  0  0  0  0
  -18.1420    2.5090   27.4008 H   0  0  0  0  0  0  0  0  0  0  0  0
  -19.2786    2.2845   26.0280 H   0  0  0  0  0  0  0  0  0  0  0  0
  -18.1323    3.6675   26.0280 H   0  0  0  0  0  0  0  0  0  0  0  0
  2  1  1  0
  2  3  1  0
  2  4  1  0
  4  5  1  0
  4  7  1  0
  5  6  1  0
  7  8  2  0
  7  9  1  0
  9 10  2  0
  9 15  1  0
 10 11  1  0
 11 12  1  0
 11 13  2  0
 13 14  1  0
 14 15  2  0
 15 16  1  0
 16 17  1  0
 17 18  2  0
 17 22  1  0
 18 19  1  0
 19 20  2  0
 20 21  1  0
 21 22  2  0
 22 23  1  0
 23 24  1  0
 23 25  1  0
 26 24  1  6
 25 26  1  0
 26 27  1  0
 26 29  1  0
 27 28  1  0
 28 31  1  0
 29 30  1  0
 30 31  1  0
 31 32  1  0
 33 32  1  0
 33 34  1  0
 33 36  1  0
 34 35  1  0
 35 38  1  0
 36 37  1  0
 37 38  1  0
 38 39  1  0
 40 39  1  6
 40 41  2  0
 40 42  2  0
 40 43  1  0
 43 44  1  0
  1 45  1  0
  1 46  1  0
  1 47  1  0
  2 48  1  6
  3 49  1  0
  3 50  1  0
  3 51  1  0
  5 52  1  0
  5 53  1  0
  6 54  1  0
  6 55  1  0
  6 56  1  0
 10 57  1  0
 13 58  1  0
 14 59  1  0
 18 60  1  0
 20 61  1  0
 24 62  1  0
 24 63  1  0
 25 64  1  0
 25 65  1  0
 27 66  1  0
 27 67  1  0
 28 68  1  0
 28 69  1  0
 29 70  1  0
 29 71  1  0
 30 72  1  0
 30 73  1  0
 31 74  1  1
 32 75  1  0
 32 76  1  0
 33 77  1  1
 34 78  1  0
 34 79  1  0
 35 80  1  0
 35 81  1  0
 36 82  1  0
 36 83  1  0
 37 84  1  0
 37 85  1  0
 38 86  1  6
 39 87  1  0
 43 88  1  0
 43 89  1  0
 44 90  1  0
 44 91  1  0
 44 92  1  0
M  CHG  1  31   1
M  END
>  <filename_input>  (19) 
7UJ4_OQ4_docked.sdf

>  <pdb_id>  (19) 
7UJ4_OQ4

>  <pose_rank>  (19) 
18

>  <num_atoms_heavy>  (19) 
44

>  <num_torsions>  (19) 
10

>  <pose>  (19) 
[-21.90224639841086, -5.278845489969741, 20.13668366721939, -1.4658053010797256, -2.214181407299227, 2.352219364749086, -1.292249479768182, 6.691235360449652, -9.389085711177083, -0.7217401097986458, -0.6696093157424599, -3.0509026824375822, 0.6659032714173093, 2.816235698987694, -2.360072507391072, 1.9014235860581046]

>  <energy>  (19) 
-359.26283495306717

>  <inter_energy>  (19) 
-408.2096293125793

>  <intra_energy>  (19) 
45.46937006367808

>  <rmsd>  (19) 
12.1237

>  <sdf_rank>  (19) 
0

$$$$

     RDKit          3D

 92 96  0  0  0  0  0  0  0  0999 V2000
  -20.9539    4.1412   23.0236 C   0  0  0  0  0  0  0  0  0  0  0  0
  -19.9488    3.0338   22.7975 C   0  0  2  0  0  0  0  0  0  0  0  0
  -20.4597    1.9261   21.9124 C   0  0  0  0  0  0  0  0  0  0  0  0
  -19.4779    2.5062   24.0844 N   0  0  0  0  0  0  0  0  0  0  0  0
  -18.0709    2.7956   24.3986 C   0  0  0  0  0  0  0  0  0  0  0  0
  -17.1631    2.7087   23.2077 C   0  0  0  0  0  0  0  0  0  0  0  0
  -20.2317    1.7401   24.8934 C   0  0  0  0  0  0  0  0  0  0  0  0
  -19.7142    1.1910   25.8560 O   0  0  0  0  0  0  0  0  0  0  0  0
  -21.7233    1.5321   24.6866 C   0  0  0  0  0  0  0  0  0  0  0  0
  -22.6750    2.4696   25.0912 C   0  0  0  0  0  0  0  0  0  0  0  0
  -23.9964    2.2275   24.8080 C   0  0  0  0  0  0  0  0  0  0  0  0
  -24.9252    3.1315   25.1878 F   0  0  0  0  0  0  0  0  0  0  0  0
  -24.4502    1.1043   24.1574 C   0  0  0  0  0  0  0  0  0  0  0  0
  -23.5118    0.1636   23.7787 C   0  0  0  0  0  0  0  0  0  0  0  0
  -22.1819    0.3590   24.0821 C   0  0  0  0  0  0  0  0  0  0  0  0
  -21.2491   -0.5735   23.6540 O   0  0  0  0  0  0  0  0  0  0  0  0
  -21.0972   -1.7765   24.2573 C   0  0  0  0  0  0  0  0  0  0  0  0
  -20.9209   -1.8145   25.6175 C   0  0  0  0  0  0  0  0  0  0  0  0
  -20.7692   -2.9678   26.2367 N   0  0  0  0  0  0  0  0  0  0  0  0
  -20.7385   -4.0754   25.4871 C   0  0  0  0  0  0  0  0  0  0  0  0
  -20.9584   -4.1203   24.1686 N   0  0  0  0  0  0  0  0  0  0  0  0
  -21.1045   -2.9640   23.5365 C   0  0  0  0  0  0  0  0  0  0  0  0
  -21.3518   -2.9695   22.2021 N   0  0  0  0  0  0  0  0  0  0  0  0
  -21.5342   -4.1048   21.3134 C   0  0  0  0  0  0  0  0  0  0  0  0
  -21.7198   -1.8710   21.3165 C   0  0  0  0  0  0  0  0  0  0  0  0
  -22.0559   -3.0192   20.2755 C   0  0  2  0  0  0  0  0  0  0  0  0
  -23.5239   -3.1845   19.8845 C   0  0  0  0  0  0  0  0  0  0  0  0
  -23.7154   -4.3971   19.0027 C   0  0  0  0  0  0  0  0  0  0  0  0
  -21.2226   -2.9381   18.9995 C   0  0  0  0  0  0  0  0  0  0  0  0
  -21.4120   -4.1443   18.1134 C   0  0  0  0  0  0  0  0  0  0  0  0
  -22.8550   -4.3447   17.7669 N   0  0  1  0  0  0  0  0  0  0  0  0
  -22.9771   -5.6187   16.9888 C   0  0  0  0  0  0  0  0  0  0  0  0
  -22.1853   -6.7835   17.5841 C   0  0  1  0  0  0  0  0  0  0  0  0
  -20.8493   -6.3422   18.1994 C   0  0  0  0  0  0  0  0  0  0  0  0
  -20.0792   -7.4965   18.8187 C   0  0  0  0  0  0  0  0  0  0  0  0
  -23.0237   -7.5644   18.5937 C   0  0  0  0  0  0  0  0  0  0  0  0
  -22.2427   -8.7442   19.1537 C   0  0  0  0  0  0  0  0  0  0  0  0
  -20.9430   -8.2749   19.7874 C   0  0  1  0  0  0  0  0  0  0  0  0
  -20.2136   -9.4484   20.2987 N   0  0  0  0  0  0  0  0  0  0  0  0
  -20.0147   -9.7494   21.8891 S   0  0  1  0  0  0  0  0  0  0  0  0
  -19.2503   -8.6415   22.3776 O   0  0  0  0  0  0  0  0  0  0  0  0
  -21.3208   -9.9950   22.4317 O   0  0  0  0  0  0  0  0  0  0  0  0
  -19.0326  -11.2366   21.9850 C   0  0  0  0  0  0  0  0  0  0  0  0
  -19.5129  -12.3288   21.0509 C   0  0  0  0  0  0  0  0  0  0  0  0
  -21.0934    4.2949   24.1039 H   0  0  0  0  0  0  0  0  0  0  0  0
  -20.5846    5.0707   22.5657 H   0  0  0  0  0  0  0  0  0  0  0  0
  -21.9147    3.8634   22.5657 H   0  0  0  0  0  0  0  0  0  0  0  0
  -19.1035    3.4820   22.2547 H   0  0  0  0  0  0  0  0  0  0  0  0
  -20.8391    1.1035   22.5365 H   0  0  0  0  0  0  0  0  0  0  0  0
  -21.2720    2.3093   21.2774 H   0  0  0  0  0  0  0  0  0  0  0  0
  -19.6409    1.5569   21.2774 H   0  0  0  0  0  0  0  0  0  0  0  0
  -18.0083    3.8135   24.8109 H   0  0  0  0  0  0  0  0  0  0  0  0
  -17.7361    2.0335   25.1176 H   0  0  0  0  0  0  0  0  0  0  0  0
  -16.1216    2.6091   23.5472 H   0  0  0  0  0  0  0  0  0  0  0  0
  -17.4365    1.8327   22.6014 H   0  0  0  0  0  0  0  0  0  0  0  0
  -17.2654    3.6208   22.6014 H   0  0  0  0  0  0  0  0  0  0  0  0
  -22.3729    3.3825   25.6254 H   0  0  0  0  0  0  0  0  0  0  0  0
  -25.5201    0.9601   23.9464 H   0  0  0  0  0  0  0  0  0  0  0  0
  -23.8259   -0.7400   23.2357 H   0  0  0  0  0  0  0  0  0  0  0  0
  -20.9062   -0.8777   26.1938 H   0  0  0  0  0  0  0  0  0  0  0  0
  -20.5145   -5.0248   25.9956 H   0  0  0  0  0  0  0  0  0  0  0  0
  -20.6105   -4.6266   21.0227 H   0  0  0  0  0  0  0  0  0  0  0  0
  -22.1105   -5.0001   21.5899 H   0  0  0  0  0  0  0  0  0  0  0  0
  -22.5799   -1.2698   21.6464 H   0  0  0  0  0  0  0  0  0  0  0  0
  -21.0492   -1.0291   21.0896 H   0  0  0  0  0  0  0  0  0  0  0  0
  -24.1280   -3.3033   20.7960 H   0  0  0  0  0  0  0  0  0  0  0  0
  -23.8410   -2.2912   19.3263 H   0  0  0  0  0  0  0  0  0  0  0  0
  -23.4547   -5.2978   19.5778 H   0  0  0  0  0  0  0  0  0  0  0  0
  -24.7671   -4.4176   18.6810 H   0  0  0  0  0  0  0  0  0  0  0  0
  -21.5190   -2.0385   18.4402 H   0  0  0  0  0  0  0  0  0  0  0  0
  -20.1629   -2.8989   19.2920 H   0  0  0  0  0  0  0  0  0  0  0  0
  -20.8375   -4.0014   17.1863 H   0  0  0  0  0  0  0  0  0  0  0  0
  -21.0592   -5.0330   18.6572 H   0  0  0  0  0  0  0  0  0  0  0  0
  -23.1845   -3.5482   17.2031 H   0  0  0  0  0  0  0  0  0  0  0  0
  -24.0391   -5.9032   16.9538 H   0  0  0  0  0  0  0  0  0  0  0  0
  -22.5600   -5.4251   15.9896 H   0  0  0  0  0  0  0  0  0  0  0  0
  -21.9401   -7.4532   16.7466 H   0  0  0  0  0  0  0  0  0  0  0  0
  -20.2308   -5.8897   17.4103 H   0  0  0  0  0  0  0  0  0  0  0  0
  -21.0742   -5.6242   19.0019 H   0  0  0  0  0  0  0  0  0  0  0  0
  -19.7398   -8.1712   18.0190 H   0  0  0  0  0  0  0  0  0  0  0  0
  -19.2210   -7.0857   19.3707 H   0  0  0  0  0  0  0  0  0  0  0  0
  -23.3071   -6.8957   19.4198 H   0  0  0  0  0  0  0  0  0  0  0  0
  -23.9199   -7.9474   18.0836 H   0  0  0  0  0  0  0  0  0  0  0  0
  -22.8527   -9.2528   19.9147 H   0  0  0  0  0  0  0  0  0  0  0  0
  -22.0061   -9.4348   18.3308 H   0  0  0  0  0  0  0  0  0  0  0  0
  -21.1879   -7.5889   20.6117 H   0  0  0  0  0  0  0  0  0  0  0  0
  -20.6962  -10.2724   19.9125 H   0  0  0  0  0  0  0  0  0  0  0  0
  -17.9931  -10.9868   21.7260 H   0  0  0  0  0  0  0  0  0  0  0  0
  -19.1207  -11.6216   23.0117 H   0  0  0  0  0  0  0  0  0  0  0  0
  -19.8865  -13.1783   21.6415 H   0  0  0  0  0  0  0  0  0  0  0  0
  -20.3226  -11.9389   20.4166 H   0  0  0  0  0  0  0  0  0  0  0  0
  -18.6783  -12.6620   20.4166 H   0  0  0  0  0  0  0  0  0  0  0  0
  2  1  1  0
  2  3  1  0
  2  4  1  0
  4  5  1  0
  4  7  1  0
  5  6  1  0
  7  8  2  0
  7  9  1  0
  9 10  2  0
  9 15  1  0
 10 11  1  0
 11 12  1  0
 11 13  2  0
 13 14  1  0
 14 15  2  0
 15 16  1  0
 16 17  1  0
 17 18  2  0
 17 22  1  0
 18 19  1  0
 19 20  2  0
 20 21  1  0
 21 22  2  0
 22 23  1  0
 23 24  1  0
 23 25  1  0
 26 24  1  1
 25 26  1  0
 26 27  1  0
 26 29  1  0
 27 28  1  0
 28 31  1  0
 29 30  1  0
 30 31  1  0
 31 32  1  0
 33 32  1  0
 33 34  1  0
 33 36  1  0
 34 35  1  0
 35 38  1  0
 36 37  1  0
 37 38  1  0
 38 39  1  0
 40 39  1  6
 40 41  2  0
 40 42  2  0
 40 43  1  0
 43 44  1  0
  1 45  1  0
  1 46  1  0
  1 47  1  0
  2 48  1  6
  3 49  1  0
  3 50  1  0
  3 51  1  0
  5 52  1  0
  5 53  1  0
  6 54  1  0
  6 55  1  0
  6 56  1  0
 10 57  1  0
 13 58  1  0
 14 59  1  0
 18 60  1  0
 20 61  1  0
 24 62  1  0
 24 63  1  0
 25 64  1  0
 25 65  1  0
 27 66  1  0
 27 67  1  0
 28 68  1  0
 28 69  1  0
 29 70  1  0
 29 71  1  0
 30 72  1  0
 30 73  1  0
 31 74  1  6
 32 75  1  0
 32 76  1  0
 33 77  1  6
 34 78  1  0
 34 79  1  0
 35 80  1  0
 35 81  1  0
 36 82  1  0
 36 83  1  0
 37 84  1  0
 37 85  1  0
 38 86  1  1
 39 87  1  0
 43 88  1  0
 43 89  1  0
 44 90  1  0
 44 91  1  0
 44 92  1  0
M  CHG  1  31   1
M  END
>  <filename_input>  (20) 
7UJ4_OQ4_docked.sdf

>  <pdb_id>  (20) 
7UJ4_OQ4

>  <pose_rank>  (20) 
19

>  <num_atoms_heavy>  (20) 
44

>  <num_torsions>  (20) 
10

>  <pose>  (20) 
[-21.09715060732708, -1.7765205684342622, 24.257288113315848, -0.16866173997917372, -1.7872100025726774, -1.7540836438954355, 55.21620004580791, 19.17825093291306, -9.177825729408621, 2.963367384182582, 3.560881195657901, 3.8241425438215066, -1.5352688538546109, 0.25257448261074966, -1.8511516470314624, 3.0455974707427296]

>  <energy>  (20) 
-403.5280576788731

>  <inter_energy>  (20) 
-556.3719663262408

>  <intra_energy>  (20) 
151.57123527425975

>  <rmsd>  (20) 
4.46595

>  <sdf_rank>  (20) 
0

$$$$

     RDKit          3D

 92 96  0  0  0  0  0  0  0  0999 V2000
  -19.2296  -10.1638   19.7454 C   0  0  0  0  0  0  0  0  0  0  0  0
  -18.8788  -10.8171   21.0638 C   0  0  2  0  0  0  0  0  0  0  0  0
  -19.4538  -12.2011   21.2236 C   0  0  0  0  0  0  0  0  0  0  0  0
  -19.2739   -9.9494   22.1805 N   0  0  0  0  0  0  0  0  0  0  0  0
  -18.1865   -9.5854   23.1009 C   0  0  0  0  0  0  0  0  0  0  0  0
  -17.7028   -8.1764   22.9263 C   0  0  0  0  0  0  0  0  0  0  0  0
  -20.5438   -9.5721   22.4144 C   0  0  0  0  0  0  0  0  0  0  0  0
  -20.8188   -9.0018   23.4609 O   0  0  0  0  0  0  0  0  0  0  0  0
  -21.6732   -9.8002   21.4229 C   0  0  0  0  0  0  0  0  0  0  0  0
  -22.4048  -10.9882   21.3787 C   0  0  0  0  0  0  0  0  0  0  0  0
  -23.4488  -11.0834   20.4922 C   0  0  0  0  0  0  0  0  0  0  0  0
  -24.1685  -12.2253   20.4463 F   0  0  0  0  0  0  0  0  0  0  0  0
  -23.8165  -10.0803   19.6265 C   0  0  0  0  0  0  0  0  0  0  0  0
  -23.0775   -8.9132   19.6516 C   0  0  0  0  0  0  0  0  0  0  0  0
  -21.9998   -8.8006   20.5030 C   0  0  0  0  0  0  0  0  0  0  0  0
  -21.2981   -7.6054   20.5471 O   0  0  0  0  0  0  0  0  0  0  0  0
  -21.4844   -6.6213   19.6355 C   0  0  0  0  0  0  0  0  0  0  0  0
  -21.4557   -6.9436   18.3021 C   0  0  0  0  0  0  0  0  0  0  0  0
  -21.6325   -6.0108   17.3882 N   0  0  0  0  0  0  0  0  0  0  0  0
  -21.7817   -4.7498   17.8092 C   0  0  0  0  0  0  0  0  0  0  0  0
  -21.8756   -4.3701   19.0882 N   0  0  0  0  0  0  0  0  0  0  0  0
  -21.6915   -5.3009   20.0143 C   0  0  0  0  0  0  0  0  0  0  0  0
  -21.8014   -4.9589   21.3229 N   0  0  0  0  0  0  0  0  0  0  0  0
  -22.1498   -3.6726   21.9028 C   0  0  0  0  0  0  0  0  0  0  0  0
  -21.8206   -5.8050   22.5105 C   0  0  0  0  0  0  0  0  0  0  0  0
  -22.3058   -4.4923   23.2563 C   0  0  2  0  0  0  0  0  0  0  0  0
  -23.7272   -4.5060   23.8173 C   0  0  0  0  0  0  0  0  0  0  0  0
  -24.1027   -3.1509   24.3719 C   0  0  0  0  0  0  0  0  0  0  0  0
  -21.3549   -4.0411   24.3615 C   0  0  0  0  0  0  0  0  0  0  0  0
  -21.7265   -2.6905   24.9216 C   0  0  0  0  0  0  0  0  0  0  0  0
  -23.1360   -2.6793   25.4270 N   0  0  1  0  0  0  0  0  0  0  0  0
  -23.4685   -1.2833   25.8560 C   0  0  0  0  0  0  0  0  0  0  0  0
  -22.3695   -0.2653   25.5493 C   0  0  1  0  0  0  0  0  0  0  0  0
  -22.8350    0.8435   24.5943 C   0  0  0  0  0  0  0  0  0  0  0  0
  -21.7511    1.8715   24.3165 C   0  0  0  0  0  0  0  0  0  0  0  0
  -21.7864    0.3235   26.8320 C   0  0  0  0  0  0  0  0  0  0  0  0
  -20.6679    1.3071   26.5205 C   0  0  0  0  0  0  0  0  0  0  0  0
  -21.1655    2.4124   25.6030 C   0  0  1  0  0  0  0  0  0  0  0  0
  -20.0484    3.3286   25.3147 N   0  0  0  0  0  0  0  0  0  0  0  0
  -18.7634    2.9064   24.4034 S   0  0  1  0  0  0  0  0  0  0  0  0
  -17.6404    3.5131   25.0524 O   0  0  0  0  0  0  0  0  0  0  0  0
  -18.8057    1.4785   24.2624 O   0  0  0  0  0  0  0  0  0  0  0  0
  -19.0182    3.6771   22.8139 C   0  0  0  0  0  0  0  0  0  0  0  0
  -19.8840    4.9187   22.8860 C   0  0  0  0  0  0  0  0  0  0  0  0
  -19.7423   -9.2091   19.9343 H   0  0  0  0  0  0  0  0  0  0  0  0
  -18.3096   -9.9787   19.1716 H   0  0  0  0  0  0  0  0  0  0  0  0
  -19.8921  -10.8285   19.1716 H   0  0  0  0  0  0  0  0  0  0  0  0
  -17.7865  -10.9467   21.0699 H   0  0  0  0  0  0  0  0  0  0  0  0
  -19.5515  -12.4362   22.2938 H   0  0  0  0  0  0  0  0  0  0  0  0
  -20.4442  -12.2440   20.7469 H   0  0  0  0  0  0  0  0  0  0  0  0
  -18.7854  -12.9332   20.7469 H   0  0  0  0  0  0  0  0  0  0  0  0
  -18.5490   -9.7040   24.1326 H   0  0  0  0  0  0  0  0  0  0  0  0
  -17.3380  -10.2492   22.8786 H   0  0  0  0  0  0  0  0  0  0  0  0
  -17.5454   -7.7178   23.9136 H   0  0  0  0  0  0  0  0  0  0  0  0
  -16.7547   -8.1807   22.3686 H   0  0  0  0  0  0  0  0  0  0  0  0
  -18.4537   -7.5975   22.3686 H   0  0  0  0  0  0  0  0  0  0  0  0
  -22.1503  -11.8298   22.0397 H   0  0  0  0  0  0  0  0  0  0  0  0
  -24.6671  -10.2025   18.9398 H   0  0  0  0  0  0  0  0  0  0  0  0
  -23.3489   -8.0752   18.9929 H   0  0  0  0  0  0  0  0  0  0  0  0
  -21.2844   -7.9858   17.9945 H   0  0  0  0  0  0  0  0  0  0  0  0
  -21.8311   -3.9626   17.0425 H   0  0  0  0  0  0  0  0  0  0  0  0
  -21.3455   -2.9223   21.8984 H   0  0  0  0  0  0  0  0  0  0  0  0
  -22.9393   -3.0228   21.4974 H   0  0  0  0  0  0  0  0  0  0  0  0
  -22.5490   -6.6289   22.4883 H   0  0  0  0  0  0  0  0  0  0  0  0
  -20.9567   -6.4010   22.8399 H   0  0  0  0  0  0  0  0  0  0  0  0
  -24.4289   -4.7728   23.0133 H   0  0  0  0  0  0  0  0  0  0  0  0
  -23.7759   -5.2441   24.6315 H   0  0  0  0  0  0  0  0  0  0  0  0
  -24.1119   -2.4215   23.5486 H   0  0  0  0  0  0  0  0  0  0  0  0
  -25.0946   -3.2406   24.8390 H   0  0  0  0  0  0  0  0  0  0  0  0
  -21.3820   -4.7809   25.1751 H   0  0  0  0  0  0  0  0  0  0  0  0
  -20.3481   -3.9591   23.9260 H   0  0  0  0  0  0  0  0  0  0  0  0
  -21.0465   -2.4474   25.7514 H   0  0  0  0  0  0  0  0  0  0  0  0
  -21.6407   -1.9457   24.1167 H   0  0  0  0  0  0  0  0  0  0  0  0
  -23.2183   -3.3273   26.2234 H   0  0  0  0  0  0  0  0  0  0  0  0
  -24.3861   -0.9701   25.3366 H   0  0  0  0  0  0  0  0  0  0  0  0
  -23.5898   -1.3043   26.9491 H   0  0  0  0  0  0  0  0  0  0  0  0
  -21.5724   -0.8156   25.0278 H   0  0  0  0  0  0  0  0  0  0  0  0
  -23.1365    0.3838   23.6415 H   0  0  0  0  0  0  0  0  0  0  0  0
  -23.6736    1.3670   25.0767 H   0  0  0  0  0  0  0  0  0  0  0  0
  -20.9503    1.3985   23.7291 H   0  0  0  0  0  0  0  0  0  0  0  0
  -22.1992    2.7077   23.7597 H   0  0  0  0  0  0  0  0  0  0  0  0
  -22.5825    0.8463   27.3822 H   0  0  0  0  0  0  0  0  0  0  0  0
  -21.3737   -0.4964   27.4382 H   0  0  0  0  0  0  0  0  0  0  0  0
  -20.3065    1.7523   27.4592 H   0  0  0  0  0  0  0  0  0  0  0  0
  -19.8527    0.7681   26.0156 H   0  0  0  0  0  0  0  0  0  0  0  0
  -21.9768    2.9493   26.1165 H   0  0  0  0  0  0  0  0  0  0  0  0
  -20.4665    4.1486   24.8524 H   0  0  0  0  0  0  0  0  0  0  0  0
  -18.0384    3.9574   22.3999 H   0  0  0  0  0  0  0  0  0  0  0  0
  -19.5422    2.9491   22.1772 H   0  0  0  0  0  0  0  0  0  0  0  0
  -20.0652    5.1786   23.9394 H   0  0  0  0  0  0  0  0  0  0  0  0
  -19.3708    5.7530   22.3855 H   0  0  0  0  0  0  0  0  0  0  0  0
  -20.8443    4.7256   22.3855 H   0  0  0  0  0  0  0  0  0  0  0  0
  2  1  1  0
  2  3  1  0
  2  4  1  0
  4  5  1  0
  4  7  1  0
  5  6  1  0
  7  8  2  0
  7  9  1  0
  9 10  2  0
  9 15  1  0
 10 11  1  0
 11 12  1  0
 11 13  2  0
 13 14  1  0
 14 15  2  0
 15 16  1  0
 16 17  1  0
 17 18  2  0
 17 22  1  0
 18 19  1  0
 19 20  2  0
 20 21  1  0
 21 22  2  0
 22 23  1  0
 23 24  1  0
 23 25  1  0
 26 24  1  6
 25 26  1  0
 26 27  1  0
 26 29  1  0
 27 28  1  0
 28 31  1  0
 29 30  1  0
 30 31  1  0
 31 32  1  0
 33 32  1  0
 33 34  1  0
 33 36  1  0
 34 35  1  0
 35 38  1  0
 36 37  1  0
 37 38  1  0
 38 39  1  0
 40 39  1  1
 40 41  2  0
 40 42  2  0
 40 43  1  0
 43 44  1  0
  1 45  1  0
  1 46  1  0
  1 47  1  0
  2 48  1  6
  3 49  1  0
  3 50  1  0
  3 51  1  0
  5 52  1  0
  5 53  1  0
  6 54  1  0
  6 55  1  0
  6 56  1  0
 10 57  1  0
 13 58  1  0
 14 59  1  0
 18 60  1  0
 20 61  1  0
 24 62  1  0
 24 63  1  0
 25 64  1  0
 25 65  1  0
 27 66  1  0
 27 67  1  0
 28 68  1  0
 28 69  1  0
 29 70  1  0
 29 71  1  0
 30 72  1  0
 30 73  1  0
 31 74  1  1
 32 75  1  0
 32 76  1  0
 33 77  1  6
 34 78  1  0
 34 79  1  0
 35 80  1  0
 35 81  1  0
 36 82  1  0
 36 83  1  0
 37 84  1  0
 37 85  1  0
 38 86  1  1
 39 87  1  0
 43 88  1  0
 43 89  1  0
 44 90  1  0
 44 91  1  0
 44 92  1  0
M  CHG  1  31   1
M  END
>  <filename_input>  (21) 
7UJ4_OQ4_docked.sdf

>  <pdb_id>  (21) 
7UJ4_OQ4

>  <pose_rank>  (21) 
20

>  <num_atoms_heavy>  (21) 
44

>  <num_torsions>  (21) 
10

>  <pose>  (21) 
[-21.484365584985433, -6.62128975249564, 19.635455158953395, -0.6241104108907918, -2.050837199983179, 2.6553613231800512, -1.294432598126439, 1.4576002975221676, -6.267295500506745, 2.7639098987054944, -0.2206244790194551, -3.1535930228632205, 1.1707061970448307, -2.8978769032811993, -3.220654413942238, -1.9839145228343218]

>  <energy>  (21) 
-390.4206359492275

>  <inter_energy>  (21) 
-503.07763483112313

>  <intra_energy>  (21) 
113.20099930191927

>  <rmsd>  (21) 
12.1224

>  <sdf_rank>  (21) 
0

$$$$

     RDKit          3D

 92 96  0  0  0  0  0  0  0  0999 V2000
  -24.5653   -5.7711   33.9207 C   0  0  0  0  0  0  0  0  0  0  0  0
  -24.6490   -6.4285   32.5610 C   0  0  2  0  0  0  0  0  0  0  0  0
  -23.5698   -5.9835   31.6077 C   0  0  0  0  0  0  0  0  0  0  0  0
  -25.9824   -6.2247   31.9808 N   0  0  0  0  0  0  0  0  0  0  0  0
  -26.5754   -4.9029   32.2324 C   0  0  0  0  0  0  0  0  0  0  0  0
  -26.5571   -4.0021   31.0333 C   0  0  0  0  0  0  0  0  0  0  0  0
  -26.6671   -7.1871   31.3369 C   0  0  0  0  0  0  0  0  0  0  0  0
  -27.8388   -6.9973   31.0421 O   0  0  0  0  0  0  0  0  0  0  0  0
  -26.0480   -8.5141   30.9284 C   0  0  0  0  0  0  0  0  0  0  0  0
  -25.8263   -9.5502   31.8370 C   0  0  0  0  0  0  0  0  0  0  0  0
  -25.3200  -10.7371   31.3681 C   0  0  0  0  0  0  0  0  0  0  0  0
  -25.1088  -11.7493   32.2371 F   0  0  0  0  0  0  0  0  0  0  0  0
  -25.0009  -10.9703   30.0511 C   0  0  0  0  0  0  0  0  0  0  0  0
  -25.1962   -9.9371   29.1549 C   0  0  0  0  0  0  0  0  0  0  0  0
  -25.6670   -8.7210   29.6002 C   0  0  0  0  0  0  0  0  0  0  0  0
  -25.9001   -7.7106   28.6795 O   0  0  0  0  0  0  0  0  0  0  0  0
  -26.7300   -7.8714   27.6213 C   0  0  0  0  0  0  0  0  0  0  0  0
  -28.0685   -8.0604   27.8559 C   0  0  0  0  0  0  0  0  0  0  0  0
  -28.9041   -8.2210   26.8496 N   0  0  0  0  0  0  0  0  0  0  0  0
  -28.3906   -8.2477   25.6146 C   0  0  0  0  0  0  0  0  0  0  0  0
  -27.1098   -8.0157   25.3071 N   0  0  0  0  0  0  0  0  0  0  0  0
  -26.2609   -7.8606   26.3138 C   0  0  0  0  0  0  0  0  0  0  0  0
  -24.9570   -7.6009   26.0417 N   0  0  0  0  0  0  0  0  0  0  0  0
  -24.3147   -7.4133   24.7516 C   0  0  0  0  0  0  0  0  0  0  0  0
  -23.8734   -7.2217   26.9409 C   0  0  0  0  0  0  0  0  0  0  0  0
  -23.0860   -6.8791   25.6077 C   0  0  2  0  0  0  0  0  0  0  0  0
  -22.7500   -5.4079   25.3665 C   0  0  0  0  0  0  0  0  0  0  0  0
  -22.1301   -5.2115   24.0020 C   0  0  0  0  0  0  0  0  0  0  0  0
  -21.8115   -7.7002   25.4329 C   0  0  0  0  0  0  0  0  0  0  0  0
  -21.1860   -7.5059   24.0739 C   0  0  0  0  0  0  0  0  0  0  0  0
  -20.9005   -6.0603   23.8073 N   0  0  1  0  0  0  0  0  0  0  0  0
  -20.3937   -5.9343   22.4035 C   0  0  0  0  0  0  0  0  0  0  0  0
  -19.5304   -7.1125   21.9511 C   0  0  1  0  0  0  0  0  0  0  0  0
  -18.8086   -7.8037   23.1171 C   0  0  0  0  0  0  0  0  0  0  0  0
  -17.9770   -8.9939   22.6691 C   0  0  0  0  0  0  0  0  0  0  0  0
  -20.3449   -8.1156   21.1373 C   0  0  0  0  0  0  0  0  0  0  0  0
  -19.4713   -9.2659   20.6585 C   0  0  0  0  0  0  0  0  0  0  0  0
  -18.7978   -9.9536   21.8351 C   0  0  1  0  0  0  0  0  0  0  0  0
  -17.9509  -11.0459   21.3248 N   0  0  0  0  0  0  0  0  0  0  0  0
  -18.4172  -12.6087   21.3259 S   0  0  1  0  0  0  0  0  0  0  0  0
  -19.1421  -12.7743   20.1022 O   0  0  0  0  0  0  0  0  0  0  0  0
  -17.2374  -13.3937   21.5548 O   0  0  0  0  0  0  0  0  0  0  0  0
  -19.5349  -12.7833   22.7064 C   0  0  0  0  0  0  0  0  0  0  0  0
  -19.1765  -13.9374   23.6206 C   0  0  0  0  0  0  0  0  0  0  0  0
  -24.6628   -6.5365   34.7047 H   0  0  0  0  0  0  0  0  0  0  0  0
  -23.5951   -5.2628   34.0231 H   0  0  0  0  0  0  0  0  0  0  0  0
  -25.3770   -5.0358   34.0231 H   0  0  0  0  0  0  0  0  0  0  0  0
  -24.4800   -7.5037   32.7204 H   0  0  0  0  0  0  0  0  0  0  0  0
  -22.7008   -5.6252   32.1791 H   0  0  0  0  0  0  0  0  0  0  0  0
  -23.2681   -6.8306   30.9742 H   0  0  0  0  0  0  0  0  0  0  0  0
  -23.9528   -5.1700   30.9742 H   0  0  0  0  0  0  0  0  0  0  0  0
  -27.6202   -5.0439   32.5464 H   0  0  0  0  0  0  0  0  0  0  0  0
  -25.9682   -4.4183   33.0111 H   0  0  0  0  0  0  0  0  0  0  0  0
  -26.5358   -2.9530   31.3631 H   0  0  0  0  0  0  0  0  0  0  0  0
  -25.6631   -4.2146   30.4287 H   0  0  0  0  0  0  0  0  0  0  0  0
  -27.4590   -4.1782   30.4287 H   0  0  0  0  0  0  0  0  0  0  0  0
  -26.0522   -9.4186   32.9055 H   0  0  0  0  0  0  0  0  0  0  0  0
  -24.6049  -11.9428   29.7235 H   0  0  0  0  0  0  0  0  0  0  0  0
  -24.9763  -10.0851   28.0873 H   0  0  0  0  0  0  0  0  0  0  0  0
  -28.4460   -8.0780   28.8889 H   0  0  0  0  0  0  0  0  0  0  0  0
  -29.0762   -8.4789   24.7861 H   0  0  0  0  0  0  0  0  0  0  0  0
  -24.1251   -8.3356   24.1830 H   0  0  0  0  0  0  0  0  0  0  0  0
  -24.7700   -6.8419   23.9292 H   0  0  0  0  0  0  0  0  0  0  0  0
  -24.0849   -6.3631   27.5952 H   0  0  0  0  0  0  0  0  0  0  0  0
  -23.4765   -7.8880   27.7211 H   0  0  0  0  0  0  0  0  0  0  0  0
  -23.6727   -4.8127   25.4317 H   0  0  0  0  0  0  0  0  0  0  0  0
  -22.0278   -5.0832   26.1300 H   0  0  0  0  0  0  0  0  0  0  0  0
  -22.8709   -5.4800   23.2345 H   0  0  0  0  0  0  0  0  0  0  0  0
  -21.8291   -4.1569   23.9169 H   0  0  0  0  0  0  0  0  0  0  0  0
  -21.0867   -7.3962   26.2025 H   0  0  0  0  0  0  0  0  0  0  0  0
  -22.0800   -8.7625   25.5306 H   0  0  0  0  0  0  0  0  0  0  0  0
  -20.2435   -8.0713   24.0292 H   0  0  0  0  0  0  0  0  0  0  0  0
  -21.8929   -7.8661   23.3120 H   0  0  0  0  0  0  0  0  0  0  0  0
  -20.1922   -5.7233   24.4748 H   0  0  0  0  0  0  0  0  0  0  0  0
  -21.2586   -5.8585   21.7280 H   0  0  0  0  0  0  0  0  0  0  0  0
  -19.7556   -5.0388   22.3723 H   0  0  0  0  0  0  0  0  0  0  0  0
  -18.7483   -6.6936   21.3009 H   0  0  0  0  0  0  0  0  0  0  0  0
  -18.1448   -7.0733   23.6027 H   0  0  0  0  0  0  0  0  0  0  0  0
  -19.5777   -8.1774   23.8092 H   0  0  0  0  0  0  0  0  0  0  0  0
  -17.1284   -8.6330   22.0694 H   0  0  0  0  0  0  0  0  0  0  0  0
  -17.6217   -9.5265   23.5636 H   0  0  0  0  0  0  0  0  0  0  0  0
  -21.1544   -8.5157   21.7655 H   0  0  0  0  0  0  0  0  0  0  0  0
  -20.7588   -7.6000   20.2581 H   0  0  0  0  0  0  0  0  0  0  0  0
  -20.0964   -9.9956   20.1230 H   0  0  0  0  0  0  0  0  0  0  0  0
  -18.6945   -8.8661   19.9901 H   0  0  0  0  0  0  0  0  0  0  0  0
  -19.5805  -10.3545   22.4960 H   0  0  0  0  0  0  0  0  0  0  0  0
  -17.7475  -10.8115   20.3427 H   0  0  0  0  0  0  0  0  0  0  0  0
  -19.5144  -11.8529   23.2929 H   0  0  0  0  0  0  0  0  0  0  0  0
  -20.5339  -12.9896   22.2948 H   0  0  0  0  0  0  0  0  0  0  0  0
  -19.2753  -13.6191   24.6689 H   0  0  0  0  0  0  0  0  0  0  0  0
  -19.8547  -14.7818   23.4283 H   0  0  0  0  0  0  0  0  0  0  0  0
  -18.1392  -14.2490   23.4283 H   0  0  0  0  0  0  0  0  0  0  0  0
  2  1  1  0
  2  3  1  0
  2  4  1  0
  4  5  1  0
  4  7  1  0
  5  6  1  0
  7  8  2  0
  7  9  1  0
  9 10  2  0
  9 15  1  0
 10 11  1  0
 11 12  1  0
 11 13  2  0
 13 14  1  0
 14 15  2  0
 15 16  1  0
 16 17  1  0
 17 18  2  0
 17 22  1  0
 18 19  1  0
 19 20  2  0
 20 21  1  0
 21 22  2  0
 22 23  1  0
 23 24  1  0
 23 25  1  0
 26 24  1  6
 25 26  1  0
 26 27  1  0
 26 29  1  0
 27 28  1  0
 28 31  1  0
 29 30  1  0
 30 31  1  0
 31 32  1  0
 33 32  1  0
 33 34  1  0
 33 36  1  0
 34 35  1  0
 35 38  1  0
 36 37  1  0
 37 38  1  0
 38 39  1  0
 40 39  1  6
 40 41  2  0
 40 42  2  0
 40 43  1  0
 43 44  1  0
  1 45  1  0
  1 46  1  0
  1 47  1  0
  2 48  1  1
  3 49  1  0
  3 50  1  0
  3 51  1  0
  5 52  1  0
  5 53  1  0
  6 54  1  0
  6 55  1  0
  6 56  1  0
 10 57  1  0
 13 58  1  0
 14 59  1  0
 18 60  1  0
 20 61  1  0
 24 62  1  0
 24 63  1  0
 25 64  1  0
 25 65  1  0
 27 66  1  0
 27 67  1  0
 28 68  1  0
 28 69  1  0
 29 70  1  0
 29 71  1  0
 30 72  1  0
 30 73  1  0
 31 74  1  1
 32 75  1  0
 32 76  1  0
 33 77  1  6
 34 78  1  0
 34 79  1  0
 35 80  1  0
 35 81  1  0
 36 82  1  0
 36 83  1  0
 37 84  1  0
 37 85  1  0
 38 86  1  1
 39 87  1  0
 43 88  1  0
 43 89  1  0
 44 90  1  0
 44 91  1  0
 44 92  1  0
M  CHG  1  31   1
M  END
>  <filename_input>  (22) 
7UJ4_OQ4_docked.sdf

>  <pdb_id>  (22) 
7UJ4_OQ4

>  <pose_rank>  (22) 
21

>  <num_atoms_heavy>  (22) 
44

>  <num_torsions>  (22) 
10

>  <pose>  (22) 
[-26.729952664927055, -7.871423848852742, 27.621324161143203, 0.14577207388788022, -0.8234656839490385, -4.019802017696636, 0.7146049078761268, -3.644224538052186, -0.14427337271847415, -0.7047083208649326, -0.2102115907758851, -3.8620494926464257, 4.897847165815187, 0.4440497110407344, 0.7524551311964814, 1.5993626781807413]

>  <energy>  (22) 
-422.4559270935382

>  <inter_energy>  (22) 
-483.0562931574863

>  <intra_energy>  (22) 
75.78990517397635

>  <rmsd>  (22) 
9.83516

>  <sdf_rank>  (22) 
0

$$$$

     RDKit          3D

 92 96  0  0  0  0  0  0  0  0999 V2000
  -17.5824   -8.6102   22.7111 C   0  0  0  0  0  0  0  0  0  0  0  0
  -18.8226   -9.2924   22.1780 C   0  0  2  0  0  0  0  0  0  0  0  0
  -20.0704   -8.9748   22.9615 C   0  0  0  0  0  0  0  0  0  0  0  0
  -18.6070  -10.7424   22.0941 N   0  0  0  0  0  0  0  0  0  0  0  0
  -17.9270  -11.3388   23.2533 C   0  0  0  0  0  0  0  0  0  0  0  0
  -18.8457  -12.1128   24.1515 C   0  0  0  0  0  0  0  0  0  0  0  0
  -18.9213  -11.4785   21.0128 C   0  0  0  0  0  0  0  0  0  0  0  0
  -18.5477  -12.6413   20.9473 O   0  0  0  0  0  0  0  0  0  0  0  0
  -19.7486  -10.9422   19.8558 C   0  0  0  0  0  0  0  0  0  0  0  0
  -19.2130  -10.1074   18.8736 C   0  0  0  0  0  0  0  0  0  0  0  0
  -20.0177   -9.7211   17.8305 C   0  0  0  0  0  0  0  0  0  0  0  0
  -19.5077   -8.9198   16.8702 F   0  0  0  0  0  0  0  0  0  0  0  0
  -21.3340  -10.0949   17.6953 C   0  0  0  0  0  0  0  0  0  0  0  0
  -21.8727  -10.9006   18.6799 C   0  0  0  0  0  0  0  0  0  0  0  0
  -21.1023  -11.2745   19.7596 C   0  0  0  0  0  0  0  0  0  0  0  0
  -21.6457  -12.1205   20.7144 O   0  0  0  0  0  0  0  0  0  0  0  0
  -22.3237  -13.2456   20.3844 C   0  0  0  0  0  0  0  0  0  0  0  0
  -21.6590  -14.2449   19.7196 C   0  0  0  0  0  0  0  0  0  0  0  0
  -22.2882  -15.3526   19.3826 N   0  0  0  0  0  0  0  0  0  0  0  0
  -23.5940  -15.4343   19.6620 C   0  0  0  0  0  0  0  0  0  0  0  0
  -24.2924  -14.5278   20.3543 N   0  0  0  0  0  0  0  0  0  0  0  0
  -23.6690  -13.4070   20.6908 C   0  0  0  0  0  0  0  0  0  0  0  0
  -24.3377  -12.4729   21.4133 N   0  0  0  0  0  0  0  0  0  0  0  0
  -25.6901  -12.5261   21.9428 C   0  0  0  0  0  0  0  0  0  0  0  0
  -23.8452  -11.2576   22.0512 C   0  0  0  0  0  0  0  0  0  0  0  0
  -25.2536  -11.2468   22.7800 C   0  0  2  0  0  0  0  0  0  0  0  0
  -25.2465  -11.4635   24.2927 C   0  0  0  0  0  0  0  0  0  0  0  0
  -26.6551  -11.5703   24.8303 C   0  0  0  0  0  0  0  0  0  0  0  0
  -26.0802  -10.0007   22.4747 C   0  0  0  0  0  0  0  0  0  0  0  0
  -27.4866  -10.0999   23.0118 C   0  0  0  0  0  0  0  0  0  0  0  0
  -27.4895  -10.3640   24.4857 N   0  0  1  0  0  0  0  0  0  0  0  0
  -28.9080  -10.5658   24.9224 C   0  0  0  0  0  0  0  0  0  0  0  0
  -29.2355   -9.9244   26.2713 C   0  0  1  0  0  0  0  0  0  0  0  0
  -29.1168  -10.9097   27.4432 C   0  0  0  0  0  0  0  0  0  0  0  0
  -29.4113  -10.2622   28.7859 C   0  0  0  0  0  0  0  0  0  0  0  0
  -28.3860   -8.6787   26.5129 C   0  0  0  0  0  0  0  0  0  0  0  0
  -28.7436   -8.0244   27.8394 C   0  0  0  0  0  0  0  0  0  0  0  0
  -28.5832   -9.0110   28.9847 C   0  0  1  0  0  0  0  0  0  0  0  0
  -28.9561   -8.3418   30.2432 N   0  0  0  0  0  0  0  0  0  0  0  0
  -27.9646   -7.3163   31.0337 S   0  0  1  0  0  0  0  0  0  0  0  0
  -26.6443   -7.7166   30.6504 O   0  0  0  0  0  0  0  0  0  0  0  0
  -28.4120   -5.9872   30.7272 O   0  0  0  0  0  0  0  0  0  0  0  0
  -28.2047   -7.6476   32.7710 C   0  0  0  0  0  0  0  0  0  0  0  0
  -29.2363   -6.7423   33.4130 C   0  0  0  0  0  0  0  0  0  0  0  0
  -17.6020   -8.6209   23.8109 H   0  0  0  0  0  0  0  0  0  0  0  0
  -16.6887   -9.1436   22.3551 H   0  0  0  0  0  0  0  0  0  0  0  0
  -17.5544   -7.5697   22.3551 H   0  0  0  0  0  0  0  0  0  0  0  0
  -18.9946   -8.8891   21.1691 H   0  0  0  0  0  0  0  0  0  0  0  0
  -19.8514   -9.0305   24.0381 H   0  0  0  0  0  0  0  0  0  0  0  0
  -20.4136   -7.9607   22.7092 H   0  0  0  0  0  0  0  0  0  0  0  0
  -20.8567   -9.7015   22.7092 H   0  0  0  0  0  0  0  0  0  0  0  0
  -17.1442  -12.0188   22.8862 H   0  0  0  0  0  0  0  0  0  0  0  0
  -17.5141  -10.5107   23.8481 H   0  0  0  0  0  0  0  0  0  0  0  0
  -18.5953  -11.9019   25.2016 H   0  0  0  0  0  0  0  0  0  0  0  0
  -19.8864  -11.8152   23.9557 H   0  0  0  0  0  0  0  0  0  0  0  0
  -18.7290  -13.1889   23.9557 H   0  0  0  0  0  0  0  0  0  0  0  0
  -18.1689   -9.7666   18.9340 H   0  0  0  0  0  0  0  0  0  0  0  0
  -21.9356   -9.7649   16.8355 H   0  0  0  0  0  0  0  0  0  0  0  0
  -22.9151  -11.2432   18.6022 H   0  0  0  0  0  0  0  0  0  0  0  0
  -20.5957  -14.1209   19.4668 H   0  0  0  0  0  0  0  0  0  0  0  0
  -24.1364  -16.3173   19.2930 H   0  0  0  0  0  0  0  0  0  0  0  0
  -26.4895  -12.3553   21.2068 H   0  0  0  0  0  0  0  0  0  0  0  0
  -26.1227  -13.4276   22.4013 H   0  0  0  0  0  0  0  0  0  0  0  0
  -22.9758  -11.3930   22.7114 H   0  0  0  0  0  0  0  0  0  0  0  0
  -23.4513  -10.3985   21.4882 H   0  0  0  0  0  0  0  0  0  0  0  0
  -24.7029  -12.3922   24.5207 H   0  0  0  0  0  0  0  0  0  0  0  0
  -24.7539  -10.6026   24.7682 H   0  0  0  0  0  0  0  0  0  0  0  0
  -27.1311  -12.4644   24.4012 H   0  0  0  0  0  0  0  0  0  0  0  0
  -26.5938  -11.6362   25.9266 H   0  0  0  0  0  0  0  0  0  0  0  0
  -25.5880   -9.1293   22.9312 H   0  0  0  0  0  0  0  0  0  0  0  0
  -26.1443   -9.8994   21.3813 H   0  0  0  0  0  0  0  0  0  0  0  0
  -28.0121   -9.1535   22.8164 H   0  0  0  0  0  0  0  0  0  0  0  0
  -27.9919  -10.9372   22.5083 H   0  0  0  0  0  0  0  0  0  0  0  0
  -27.0749   -9.5596   24.9776 H   0  0  0  0  0  0  0  0  0  0  0  0
  -29.5708  -10.1292   24.1607 H   0  0  0  0  0  0  0  0  0  0  0  0
  -29.0565  -11.6495   25.0383 H   0  0  0  0  0  0  0  0  0  0  0  0
  -30.2911   -9.6191   26.2226 H   0  0  0  0  0  0  0  0  0  0  0  0
  -29.8300  -11.7321   27.2852 H   0  0  0  0  0  0  0  0  0  0  0  0
  -28.0782  -11.2714   27.4694 H   0  0  0  0  0  0  0  0  0  0  0  0
  -30.4779   -9.9970   28.8299 H   0  0  0  0  0  0  0  0  0  0  0  0
  -29.1559  -10.9782   29.5809 H   0  0  0  0  0  0  0  0  0  0  0  0
  -27.3239   -8.9646   26.5275 H   0  0  0  0  0  0  0  0  0  0  0  0
  -28.5800   -7.9595   25.7035 H   0  0  0  0  0  0  0  0  0  0  0  0
  -28.0796   -7.1638   28.0083 H   0  0  0  0  0  0  0  0  0  0  0  0
  -29.7923   -7.6948   27.8003 H   0  0  0  0  0  0  0  0  0  0  0  0
  -27.5317   -9.3322   29.0202 H   0  0  0  0  0  0  0  0  0  0  0  0
  -29.8115   -7.8064   30.0368 H   0  0  0  0  0  0  0  0  0  0  0  0
  -28.5346   -8.6907   32.8859 H   0  0  0  0  0  0  0  0  0  0  0  0
  -27.2454   -7.4605   33.2757 H   0  0  0  0  0  0  0  0  0  0  0  0
  -29.1557   -6.8130   34.5077 H   0  0  0  0  0  0  0  0  0  0  0  0
  -29.0586   -5.7032   33.0986 H   0  0  0  0  0  0  0  0  0  0  0  0
  -30.2435   -7.0533   33.0986 H   0  0  0  0  0  0  0  0  0  0  0  0
  2  1  1  0
  2  3  1  0
  2  4  1  0
  4  5  1  0
  4  7  1  0
  5  6  1  0
  7  8  2  0
  7  9  1  0
  9 10  2  0
  9 15  1  0
 10 11  1  0
 11 12  1  0
 11 13  2  0
 13 14  1  0
 14 15  2  0
 15 16  1  0
 16 17  1  0
 17 18  2  0
 17 22  1  0
 18 19  1  0
 19 20  2  0
 20 21  1  0
 21 22  2  0
 22 23  1  0
 23 24  1  0
 23 25  1  0
 26 24  1  6
 25 26  1  0
 26 27  1  0
 26 29  1  0
 27 28  1  0
 28 31  1  0
 29 30  1  0
 30 31  1  0
 31 32  1  0
 33 32  1  0
 33 34  1  0
 33 36  1  0
 34 35  1  0
 35 38  1  0
 36 37  1  0
 37 38  1  0
 38 39  1  0
 40 39  1  6
 40 41  2  0
 40 42  2  0
 40 43  1  0
 43 44  1  0
  1 45  1  0
  1 46  1  0
  1 47  1  0
  2 48  1  6
  3 49  1  0
  3 50  1  0
  3 51  1  0
  5 52  1  0
  5 53  1  0
  6 54  1  0
  6 55  1  0
  6 56  1  0
 10 57  1  0
 13 58  1  0
 14 59  1  0
 18 60  1  0
 20 61  1  0
 24 62  1  0
 24 63  1  0
 25 64  1  0
 25 65  1  0
 27 66  1  0
 27 67  1  0
 28 68  1  0
 28 69  1  0
 29 70  1  0
 29 71  1  0
 30 72  1  0
 30 73  1  0
 31 74  1  1
 32 75  1  0
 32 76  1  0
 33 77  1  6
 34 78  1  0
 34 79  1  0
 35 80  1  0
 35 81  1  0
 36 82  1  0
 36 83  1  0
 37 84  1  0
 37 85  1  0
 38 86  1  1
 39 87  1  0
 43 88  1  0
 43 89  1  0
 44 90  1  0
 44 91  1  0
 44 92  1  0
M  CHG  1  31   1
M  END
>  <filename_input>  (23) 
7UJ4_OQ4_docked.sdf

>  <pdb_id>  (23) 
7UJ4_OQ4

>  <pose_rank>  (23) 
22

>  <num_atoms_heavy>  (23) 
44

>  <num_torsions>  (23) 
10

>  <pose>  (23) 
[-22.323736028890547, -13.245563533453748, 20.384417651934427, 2.8650722212102475, -0.7541772534486142, 2.9751556312136858, 0.6707888004315145, 2.4703576240620246, -0.12966002144357594, -0.6179621931951598, -0.2136823068734502, 0.5879850246067382, -2.56703653935245, 0.8068799584721119, -1.212365816376788, 2.2103166951797]

>  <energy>  (23) 
-353.58580098750076

>  <inter_energy>  (23) 
-366.42076705171513

>  <intra_energy>  (23) 
16.897040925616675

>  <rmsd>  (23) 
14.2372

>  <sdf_rank>  (23) 
0

$$$$

     RDKit          3D

 92 96  0  0  0  0  0  0  0  0999 V2000
  -26.4740   -9.7085   22.5042 C   0  0  0  0  0  0  0  0  0  0  0  0
  -27.0752   -9.8049   23.8888 C   0  0  2  0  0  0  0  0  0  0  0  0
  -27.5871  -11.1807   24.2303 C   0  0  0  0  0  0  0  0  0  0  0  0
  -28.1271   -8.7941   24.0560 N   0  0  0  0  0  0  0  0  0  0  0  0
  -29.0401   -8.6507   22.9124 C   0  0  0  0  0  0  0  0  0  0  0  0
  -30.3454   -9.3662   23.0970 C   0  0  0  0  0  0  0  0  0  0  0  0
  -28.2182   -7.9877   25.1289 C   0  0  0  0  0  0  0  0  0  0  0  0
  -29.0078   -7.0538   25.1143 O   0  0  0  0  0  0  0  0  0  0  0  0
  -27.3946   -8.1891   26.3907 C   0  0  0  0  0  0  0  0  0  0  0  0
  -27.6220   -9.2449   27.2749 C   0  0  0  0  0  0  0  0  0  0  0  0
  -26.7891   -9.3855   28.3572 C   0  0  0  0  0  0  0  0  0  0  0  0
  -26.9949  -10.4082   29.2151 F   0  0  0  0  0  0  0  0  0  0  0  0
  -25.7434   -8.5380   28.6380 C   0  0  0  0  0  0  0  0  0  0  0  0
  -25.5327   -7.4778   27.7775 C   0  0  0  0  0  0  0  0  0  0  0  0
  -26.3745   -7.2871   26.7033 C   0  0  0  0  0  0  0  0  0  0  0  0
  -26.1203   -6.2447   25.8249 O   0  0  0  0  0  0  0  0  0  0  0  0
  -24.9000   -6.0431   25.2729 C   0  0  0  0  0  0  0  0  0  0  0  0
  -24.3317   -7.0555   24.5417 C   0  0  0  0  0  0  0  0  0  0  0  0
  -23.1453   -6.8937   23.9914 N   0  0  0  0  0  0  0  0  0  0  0  0
  -22.5069   -5.7406   24.2205 C   0  0  0  0  0  0  0  0  0  0  0  0
  -23.0197   -4.6920   24.8734 N   0  0  0  0  0  0  0  0  0  0  0  0
  -24.2098   -4.8488   25.4366 C   0  0  0  0  0  0  0  0  0  0  0  0
  -24.7732   -3.8003   26.0885 N   0  0  0  0  0  0  0  0  0  0  0  0
  -24.2712   -2.4449   26.2402 C   0  0  0  0  0  0  0  0  0  0  0  0
  -26.1181   -3.6530   26.6324 C   0  0  0  0  0  0  0  0  0  0  0  0
  -25.7372   -2.1191   26.7625 C   0  0  2  0  0  0  0  0  0  0  0  0
  -26.5114   -1.1412   25.8795 C   0  0  0  0  0  0  0  0  0  0  0  0
  -25.9514    0.2574   26.0016 C   0  0  0  0  0  0  0  0  0  0  0  0
  -25.7784   -1.6081   28.2000 C   0  0  0  0  0  0  0  0  0  0  0  0
  -25.2238   -0.2109   28.3279 C   0  0  0  0  0  0  0  0  0  0  0  0
  -25.9426    0.7452   27.4271 N   0  0  1  0  0  0  0  0  0  0  0  0
  -25.2640    2.0772   27.5210 C   0  0  0  0  0  0  0  0  0  0  0  0
  -23.7618    2.0254   27.2406 C   0  0  1  0  0  0  0  0  0  0  0  0
  -23.4385    1.9494   25.7413 C   0  0  0  0  0  0  0  0  0  0  0  0
  -21.9447    1.9306   25.4637 C   0  0  0  0  0  0  0  0  0  0  0  0
  -23.0346    3.1948   27.9007 C   0  0  0  0  0  0  0  0  0  0  0  0
  -21.5359    3.1161   27.6493 C   0  0  0  0  0  0  0  0  0  0  0  0
  -21.2434    3.0780   26.1580 C   0  0  1  0  0  0  0  0  0  0  0  0
  -19.7861    2.9842   25.9626 N   0  0  0  0  0  0  0  0  0  0  0  0
  -19.0169    3.6297   24.6775 S   0  0  1  0  0  0  0  0  0  0  0  0
  -18.7101    4.9716   25.0718 O   0  0  0  0  0  0  0  0  0  0  0  0
  -17.9463    2.7343   24.3418 O   0  0  0  0  0  0  0  0  0  0  0  0
  -20.2157    3.6587   23.3555 C   0  0  0  0  0  0  0  0  0  0  0  0
  -20.8724    5.0126   23.1767 C   0  0  0  0  0  0  0  0  0  0  0  0
  -25.3908   -9.5349   22.5861 H   0  0  0  0  0  0  0  0  0  0  0  0
  -26.6547  -10.6471   21.9598 H   0  0  0  0  0  0  0  0  0  0  0  0
  -26.9390   -8.8734   21.9598 H   0  0  0  0  0  0  0  0  0  0  0  0
  -26.2603   -9.6059   24.6003 H   0  0  0  0  0  0  0  0  0  0  0  0
  -27.6296  -11.2952   25.3235 H   0  0  0  0  0  0  0  0  0  0  0  0
  -28.5943  -11.3124   23.8083 H   0  0  0  0  0  0  0  0  0  0  0  0
  -26.9108  -11.9387   23.8083 H   0  0  0  0  0  0  0  0  0  0  0  0
  -29.2474   -7.5806   22.7641 H   0  0  0  0  0  0  0  0  0  0  0  0
  -28.5428   -9.1033   22.0419 H   0  0  0  0  0  0  0  0  0  0  0  0
  -30.5526   -9.4798   24.1714 H   0  0  0  0  0  0  0  0  0  0  0  0
  -31.1522   -8.7843   22.6275 H   0  0  0  0  0  0  0  0  0  0  0  0
  -30.2887  -10.3594   22.6275 H   0  0  0  0  0  0  0  0  0  0  0  0
  -28.4505   -9.9491   27.1082 H   0  0  0  0  0  0  0  0  0  0  0  0
  -25.0987   -8.6981   29.5148 H   0  0  0  0  0  0  0  0  0  0  0  0
  -24.6942   -6.7870   27.9496 H   0  0  0  0  0  0  0  0  0  0  0  0
  -24.8690   -8.0069   24.4143 H   0  0  0  0  0  0  0  0  0  0  0  0
  -21.4784   -5.6474   23.8417 H   0  0  0  0  0  0  0  0  0  0  0  0
  -23.4697   -2.3214   26.9834 H   0  0  0  0  0  0  0  0  0  0  0  0
  -23.7839   -1.8882   25.4262 H   0  0  0  0  0  0  0  0  0  0  0  0
  -26.9354   -3.8760   25.9308 H   0  0  0  0  0  0  0  0  0  0  0  0
  -26.4976   -4.2531   27.4726 H   0  0  0  0  0  0  0  0  0  0  0  0
  -26.4389   -1.4677   24.8315 H   0  0  0  0  0  0  0  0  0  0  0  0
  -27.5614   -1.1286   26.2069 H   0  0  0  0  0  0  0  0  0  0  0  0
  -24.9197    0.2604   25.6199 H   0  0  0  0  0  0  0  0  0  0  0  0
  -26.5963    0.9312   25.4183 H   0  0  0  0  0  0  0  0  0  0  0  0
  -26.8229   -1.6068   28.5450 H   0  0  0  0  0  0  0  0  0  0  0  0
  -25.1535   -2.2751   28.8119 H   0  0  0  0  0  0  0  0  0  0  0  0
  -25.3359    0.1250   29.3693 H   0  0  0  0  0  0  0  0  0  0  0  0
  -24.1631   -0.2308   28.0370 H   0  0  0  0  0  0  0  0  0  0  0  0
  -26.9253    0.8226   27.7258 H   0  0  0  0  0  0  0  0  0  0  0  0
  -25.7299    2.7560   26.7915 H   0  0  0  0  0  0  0  0  0  0  0  0
  -25.3847    2.4260   28.5573 H   0  0  0  0  0  0  0  0  0  0  0  0
  -23.3934    1.0913   27.6897 H   0  0  0  0  0  0  0  0  0  0  0  0
  -23.8842    1.0311   25.3313 H   0  0  0  0  0  0  0  0  0  0  0  0
  -23.8534    2.8504   25.2658 H   0  0  0  0  0  0  0  0  0  0  0  0
  -21.5244    0.9811   25.8267 H   0  0  0  0  0  0  0  0  0  0  0  0
  -21.7910    2.0340   24.3794 H   0  0  0  0  0  0  0  0  0  0  0  0
  -23.4199    4.1382   27.4864 H   0  0  0  0  0  0  0  0  0  0  0  0
  -23.2111    3.1501   28.9855 H   0  0  0  0  0  0  0  0  0  0  0  0
  -21.0488    3.9982   28.0905 H   0  0  0  0  0  0  0  0  0  0  0  0
  -21.1475    2.1958   28.1099 H   0  0  0  0  0  0  0  0  0  0  0  0
  -21.6304    4.0030   25.7057 H   0  0  0  0  0  0  0  0  0  0  0  0
  -19.3602    3.4171   26.7946 H   0  0  0  0  0  0  0  0  0  0  0  0
  -19.7085    3.3892   22.4174 H   0  0  0  0  0  0  0  0  0  0  0  0
  -21.0084    2.9421   23.6165 H   0  0  0  0  0  0  0  0  0  0  0  0
  -21.0847    5.4503   24.1632 H   0  0  0  0  0  0  0  0  0  0  0  0
  -20.1965    5.6771   22.6185 H   0  0  0  0  0  0  0  0  0  0  0  0
  -21.8127    4.8931   22.6185 H   0  0  0  0  0  0  0  0  0  0  0  0
  2  1  1  0
  2  3  1  0
  2  4  1  0
  4  5  1  0
  4  7  1  0
  5  6  1  0
  7  8  2  0
  7  9  1  0
  9 10  2  0
  9 15  1  0
 10 11  1  0
 11 12  1  0
 11 13  2  0
 13 14  1  0
 14 15  2  0
 15 16  1  0
 16 17  1  0
 17 18  2  0
 17 22  1  0
 18 19  1  0
 19 20  2  0
 20 21  1  0
 21 22  2  0
 22 23  1  0
 23 24  1  0
 23 25  1  0
 26 24  1  6
 25 26  1  0
 26 27  1  0
 26 29  1  0
 27 28  1  0
 28 31  1  0
 29 30  1  0
 30 31  1  0
 31 32  1  0
 33 32  1  0
 33 34  1  0
 33 36  1  0
 34 35  1  0
 35 38  1  0
 36 37  1  0
 37 38  1  0
 38 39  1  0
 40 39  1  1
 40 41  2  0
 40 42  2  0
 40 43  1  0
 43 44  1  0
  1 45  1  0
  1 46  1  0
  1 47  1  0
  2 48  1  1
  3 49  1  0
  3 50  1  0
  3 51  1  0
  5 52  1  0
  5 53  1  0
  6 54  1  0
  6 55  1  0
  6 56  1  0
 10 57  1  0
 13 58  1  0
 14 59  1  0
 18 60  1  0
 20 61  1  0
 24 62  1  0
 24 63  1  0
 25 64  1  0
 25 65  1  0
 27 66  1  0
 27 67  1  0
 28 68  1  0
 28 69  1  0
 29 70  1  0
 29 71  1  0
 30 72  1  0
 30 73  1  0
 31 74  1  1
 32 75  1  0
 32 76  1  0
 33 77  1  1
 34 78  1  0
 34 79  1  0
 35 80  1  0
 35 81  1  0
 36 82  1  0
 36 83  1  0
 37 84  1  0
 37 85  1  0
 38 86  1  6
 39 87  1  0
 43 88  1  0
 43 89  1  0
 44 90  1  0
 44 91  1  0
 44 92  1  0
M  CHG  1  31   1
M  END
>  <filename_input>  (24) 
7UJ4_OQ4_docked.sdf

>  <pdb_id>  (24) 
7UJ4_OQ4

>  <pose_rank>  (24) 
23

>  <num_atoms_heavy>  (24) 
44

>  <num_torsions>  (24) 
10

>  <pose>  (24) 
[-24.900021497845096, -6.043137821861347, 25.2728612530183, 2.049455471592833, 0.65201450330678, -1.9724290973150753, 0.5743361567751669, 2.530570441929623, -2.732115837308297, -0.6130835499067202, -0.30787538864663794, 3.9816779479368694, 0.47039049964958246, -0.41437940173348325, 0.7834328778123222, -0.7106660449833095]

>  <energy>  (24) 
-366.9611827833962

>  <inter_energy>  (24) 
-408.94267052335493

>  <intra_energy>  (24) 
45.043483018893866

>  <rmsd>  (24) 
12.2435

>  <sdf_rank>  (24) 
0

$$$$

     RDKit          3D

 92 96  0  0  0  0  0  0  0  0999 V2000
  -28.3926   -3.0892   23.3809 C   0  0  0  0  0  0  0  0  0  0  0  0
  -29.2255   -3.3074   22.1373 C   0  0  2  0  0  0  0  0  0  0  0  0
  -30.4220   -4.1963   22.3603 C   0  0  0  0  0  0  0  0  0  0  0  0
  -28.3846   -3.8181   21.0473 N   0  0  0  0  0  0  0  0  0  0  0  0
  -28.2328   -5.2802   21.0110 C   0  0  0  0  0  0  0  0  0  0  0  0
  -27.0538   -5.7777   21.7934 C   0  0  0  0  0  0  0  0  0  0  0  0
  -27.7227   -3.0247   20.1859 C   0  0  0  0  0  0  0  0  0  0  0  0
  -26.9031   -3.5168   19.4229 O   0  0  0  0  0  0  0  0  0  0  0  0
  -27.9566   -1.5257   20.0910 C   0  0  0  0  0  0  0  0  0  0  0  0
  -28.9803   -0.9730   19.3196 C   0  0  0  0  0  0  0  0  0  0  0  0
  -29.1571    0.3883   19.3420 C   0  0  0  0  0  0  0  0  0  0  0  0
  -30.1496    0.9332   18.6056 F   0  0  0  0  0  0  0  0  0  0  0  0
  -28.3754    1.2534   20.0709 C   0  0  0  0  0  0  0  0  0  0  0  0
  -27.3459    0.7101   20.8151 C   0  0  0  0  0  0  0  0  0  0  0  0
  -27.1183   -0.6486   20.7839 C   0  0  0  0  0  0  0  0  0  0  0  0
  -26.1097   -1.1811   21.5726 O   0  0  0  0  0  0  0  0  0  0  0  0
  -24.7981   -0.9518   21.3246 C   0  0  0  0  0  0  0  0  0  0  0  0
  -24.3107   -1.2049   20.0673 C   0  0  0  0  0  0  0  0  0  0  0  0
  -23.0395   -0.9939   19.7916 N   0  0  0  0  0  0  0  0  0  0  0  0
  -22.2480   -0.5835   20.7890 C   0  0  0  0  0  0  0  0  0  0  0  0
  -22.6618   -0.2640   22.0200 N   0  0  0  0  0  0  0  0  0  0  0  0
  -23.9378   -0.4804   22.3081 C   0  0  0  0  0  0  0  0  0  0  0  0
  -24.4005   -0.1477   23.5398 N   0  0  0  0  0  0  0  0  0  0  0  0
  -23.6909    0.4820   24.6407 C   0  0  0  0  0  0  0  0  0  0  0  0
  -25.7674   -0.1177   24.0467 C   0  0  0  0  0  0  0  0  0  0  0  0
  -25.1386    0.6715   25.2701 C   0  0  2  0  0  0  0  0  0  0  0  0
  -25.5605    2.1308   25.4367 C   0  0  0  0  0  0  0  0  0  0  0  0
  -24.7818    2.7953   26.5488 C   0  0  0  0  0  0  0  0  0  0  0  0
  -25.3262   -0.0408   26.6067 C   0  0  0  0  0  0  0  0  0  0  0  0
  -24.5540    0.6198   27.7218 C   0  0  0  0  0  0  0  0  0  0  0  0
  -24.9233    2.0645   27.8588 N   0  0  1  0  0  0  0  0  0  0  0  0
  -24.0373    2.6776   28.8993 C   0  0  0  0  0  0  0  0  0  0  0  0
  -22.6085    2.9350   28.4190 C   0  0  1  0  0  0  0  0  0  0  0  0
  -22.0408    1.7734   27.5904 C   0  0  0  0  0  0  0  0  0  0  0  0
  -20.6329    2.0452   27.0873 C   0  0  0  0  0  0  0  0  0  0  0  0
  -22.5101    4.2539   27.6556 C   0  0  0  0  0  0  0  0  0  0  0  0
  -21.0789    4.5220   27.2136 C   0  0  0  0  0  0  0  0  0  0  0  0
  -20.5551    3.3736   26.3664 C   0  0  1  0  0  0  0  0  0  0  0  0
  -19.1648    3.6670   25.9770 N   0  0  0  0  0  0  0  0  0  0  0  0
  -18.5766    3.3699   24.4852 S   0  0  1  0  0  0  0  0  0  0  0  0
  -17.3134    4.0432   24.4500 O   0  0  0  0  0  0  0  0  0  0  0  0
  -18.6195    1.9474   24.2976 O   0  0  0  0  0  0  0  0  0  0  0  0
  -19.7033    4.1620   23.3500 C   0  0  0  0  0  0  0  0  0  0  0  0
  -20.4855    3.1783   22.5034 C   0  0  0  0  0  0  0  0  0  0  0  0
  -29.0156   -3.2524   24.2727 H   0  0  0  0  0  0  0  0  0  0  0  0
  -27.5507   -3.7971   23.3872 H   0  0  0  0  0  0  0  0  0  0  0  0
  -28.0059   -2.0594   23.3872 H   0  0  0  0  0  0  0  0  0  0  0  0
  -29.6333   -2.3254   21.8554 H   0  0  0  0  0  0  0  0  0  0  0  0
  -30.5900   -4.3210   23.4402 H   0  0  0  0  0  0  0  0  0  0  0  0
  -31.3103   -3.7373   21.9017 H   0  0  0  0  0  0  0  0  0  0  0  0
  -30.2391   -5.1792   21.9017 H   0  0  0  0  0  0  0  0  0  0  0  0
  -29.1439   -5.7355   21.4264 H   0  0  0  0  0  0  0  0  0  0  0  0
  -28.0674   -5.5628   19.9608 H   0  0  0  0  0  0  0  0  0  0  0  0
  -27.2640   -5.6890   22.8695 H   0  0  0  0  0  0  0  0  0  0  0  0
  -26.8656   -6.8320   21.5422 H   0  0  0  0  0  0  0  0  0  0  0  0
  -26.1672   -5.1771   21.5422 H   0  0  0  0  0  0  0  0  0  0  0  0
  -29.6313   -1.6143   18.7072 H   0  0  0  0  0  0  0  0  0  0  0  0
  -28.5628    2.3373   20.0619 H   0  0  0  0  0  0  0  0  0  0  0  0
  -26.7088    1.3613   21.4316 H   0  0  0  0  0  0  0  0  0  0  0  0
  -24.9844   -1.5858   19.2855 H   0  0  0  0  0  0  0  0  0  0  0  0
  -21.1711   -0.5023   20.5799 H   0  0  0  0  0  0  0  0  0  0  0  0
  -23.0168   -0.1797   25.2045 H   0  0  0  0  0  0  0  0  0  0  0  0
  -22.9799    1.3101   24.5043 H   0  0  0  0  0  0  0  0  0  0  0  0
  -26.4820    0.4541   23.4364 H   0  0  0  0  0  0  0  0  0  0  0  0
  -26.3863   -1.0193   24.1651 H   0  0  0  0  0  0  0  0  0  0  0  0
  -25.3742    2.6690   24.4956 H   0  0  0  0  0  0  0  0  0  0  0  0
  -26.6302    2.1599   25.6914 H   0  0  0  0  0  0  0  0  0  0  0  0
  -23.7180    2.8202   26.2703 H   0  0  0  0  0  0  0  0  0  0  0  0
  -25.1848    3.8100   26.6833 H   0  0  0  0  0  0  0  0  0  0  0  0
  -26.3956   -0.0332   26.8644 H   0  0  0  0  0  0  0  0  0  0  0  0
  -24.9463   -1.0672   26.4968 H   0  0  0  0  0  0  0  0  0  0  0  0
  -24.7759    0.1021   28.6667 H   0  0  0  0  0  0  0  0  0  0  0  0
  -23.4815    0.5568   27.4856 H   0  0  0  0  0  0  0  0  0  0  0  0
  -25.9110    2.1391   28.1411 H   0  0  0  0  0  0  0  0  0  0  0  0
  -24.4775    3.6371   29.2081 H   0  0  0  0  0  0  0  0  0  0  0  0
  -23.9718    1.9581   29.7288 H   0  0  0  0  0  0  0  0  0  0  0  0
  -21.9856    3.0111   29.3225 H   0  0  0  0  0  0  0  0  0  0  0  0
  -22.0221    0.8699   28.2176 H   0  0  0  0  0  0  0  0  0  0  0  0
  -22.6888    1.6448   26.7109 H   0  0  0  0  0  0  0  0  0  0  0  0
  -19.9429    2.0610   27.9438 H   0  0  0  0  0  0  0  0  0  0  0  0
  -20.3564    1.2490   26.3804 H   0  0  0  0  0  0  0  0  0  0  0  0
  -23.1577    4.2049   26.7678 H   0  0  0  0  0  0  0  0  0  0  0  0
  -22.8302    5.0691   28.3211 H   0  0  0  0  0  0  0  0  0  0  0  0
  -21.0511    5.4491   26.6222 H   0  0  0  0  0  0  0  0  0  0  0  0
  -20.4450    4.6206   28.1071 H   0  0  0  0  0  0  0  0  0  0  0  0
  -21.1909    3.2844   25.4732 H   0  0  0  0  0  0  0  0  0  0  0  0
  -19.0322    4.6756   26.1383 H   0  0  0  0  0  0  0  0  0  0  0  0
  -20.4152    4.7683   23.9294 H   0  0  0  0  0  0  0  0  0  0  0  0
  -19.1003    4.7763   22.6652 H   0  0  0  0  0  0  0  0  0  0  0  0
  -21.0353    2.4867   23.1588 H   0  0  0  0  0  0  0  0  0  0  0  0
  -21.1975    3.7259   21.8685 H   0  0  0  0  0  0  0  0  0  0  0  0
  -19.7914    2.6081   21.8685 H   0  0  0  0  0  0  0  0  0  0  0  0
  2  1  1  0
  2  3  1  0
  2  4  1  0
  4  5  1  0
  4  7  1  0
  5  6  1  0
  7  8  2  0
  7  9  1  0
  9 10  2  0
  9 15  1  0
 10 11  1  0
 11 12  1  0
 11 13  2  0
 13 14  1  0
 14 15  2  0
 15 16  1  0
 16 17  1  0
 17 18  2  0
 17 22  1  0
 18 19  1  0
 19 20  2  0
 20 21  1  0
 21 22  2  0
 22 23  1  0
 23 24  1  0
 23 25  1  0
 26 24  1  6
 25 26  1  0
 26 27  1  0
 26 29  1  0
 27 28  1  0
 28 31  1  0
 29 30  1  0
 30 31  1  0
 31 32  1  0
 33 32  1  0
 33 34  1  0
 33 36  1  0
 34 35  1  0
 35 38  1  0
 36 37  1  0
 37 38  1  0
 38 39  1  0
 40 39  1  1
 40 41  2  0
 40 42  2  0
 40 43  1  0
 43 44  1  0
  1 45  1  0
  1 46  1  0
  1 47  1  0
  2 48  1  6
  3 49  1  0
  3 50  1  0
  3 51  1  0
  5 52  1  0
  5 53  1  0
  6 54  1  0
  6 55  1  0
  6 56  1  0
 10 57  1  0
 13 58  1  0
 14 59  1  0
 18 60  1  0
 20 61  1  0
 24 62  1  0
 24 63  1  0
 25 64  1  0
 25 65  1  0
 27 66  1  0
 27 67  1  0
 28 68  1  0
 28 69  1  0
 29 70  1  0
 29 71  1  0
 30 72  1  0
 30 73  1  0
 31 74  1  1
 32 75  1  0
 32 76  1  0
 33 77  1  1
 34 78  1  0
 34 79  1  0
 35 80  1  0
 35 81  1  0
 36 82  1  0
 36 83  1  0
 37 84  1  0
 37 85  1  0
 38 86  1  6
 39 87  1  0
 43 88  1  0
 43 89  1  0
 44 90  1  0
 44 91  1  0
 44 92  1  0
M  CHG  1  31   1
M  END
>  <filename_input>  (25) 
7UJ4_OQ4_docked.sdf

>  <pdb_id>  (25) 
7UJ4_OQ4

>  <pose_rank>  (25) 
24

>  <num_atoms_heavy>  (25) 
44

>  <num_torsions>  (25) 
10

>  <pose>  (25) 
[-24.798129756726965, -0.951844662655031, 21.324626723706793, -1.9795738338857094, -1.0521829798879612, 1.3643506305290742, 17.501738595332466, 19.296476255497073, -2.969783210078412, 0.15348594927441261, -3.6310242581892602, -1.9351220310134192, -1.6433823336828595, -0.2390455840027186, 2.1794328447064224, 1.8886594369885146]

>  <energy>  (25) 
-361.981276085334

>  <inter_energy>  (25) 
-432.93758402737103

>  <intra_energy>  (25) 
85.34460645848901

>  <rmsd>  (25) 
10.9494

>  <sdf_rank>  (25) 
0

$$$$

     RDKit          3D

 92 96  0  0  0  0  0  0  0  0999 V2000
  -23.6770    5.0750   24.5340 C   0  0  0  0  0  0  0  0  0  0  0  0
  -22.5010    4.1580   24.2810 C   0  0  2  0  0  0  0  0  0  0  0  0
  -21.8350    4.3840   22.9480 C   0  0  0  0  0  0  0  0  0  0  0  0
  -22.9090    2.7560   24.4360 N   0  0  0  0  0  0  0  0  0  0  0  0
  -23.6390    2.1900   23.2920 C   0  0  0  0  0  0  0  0  0  0  0  0
  -22.9260    1.0450   22.6360 C   0  0  0  0  0  0  0  0  0  0  0  0
  -22.7170    2.0470   25.5630 C   0  0  0  0  0  0  0  0  0  0  0  0
  -23.2430    0.9490   25.6800 O   0  0  0  0  0  0  0  0  0  0  0  0
  -21.8490    2.5340   26.7120 C   0  0  0  0  0  0  0  0  0  0  0  0
  -22.3360    3.3690   27.7190 C   0  0  0  0  0  0  0  0  0  0  0  0
  -21.4980    3.7090   28.7520 C   0  0  0  0  0  0  0  0  0  0  0  0
  -21.9610    4.5100   29.7360 F   0  0  0  0  0  0  0  0  0  0  0  0
  -20.1930    3.2880   28.8540 C   0  0  0  0  0  0  0  0  0  0  0  0
  -19.7020    2.4820   27.8450 C   0  0  0  0  0  0  0  0  0  0  0  0
  -20.5060    2.1540   26.7750 C   0  0  0  0  0  0  0  0  0  0  0  0
  -20.0110    1.3070   25.7950 O   0  0  0  0  0  0  0  0  0  0  0  0
  -19.4350    1.7700   24.6600 C   0  0  0  0  0  0  0  0  0  0  0  0
  -18.8760    3.0230   24.6680 C   0  0  0  0  0  0  0  0  0  0  0  0
  -18.3080    3.5050   23.5810 N   0  0  0  0  0  0  0  0  0  0  0  0
  -18.3500    2.7550   22.4740 C   0  0  0  0  0  0  0  0  0  0  0  0
  -18.8260    1.5070   22.4060 N   0  0  0  0  0  0  0  0  0  0  0  0
  -19.4060    1.0170   23.4930 C   0  0  0  0  0  0  0  0  0  0  0  0
  -19.8810   -0.2540   23.4700 N   0  0  0  0  0  0  0  0  0  0  0  0
  -19.8140   -1.2330   22.3980 C   0  0  0  0  0  0  0  0  0  0  0  0
  -20.3930   -1.0790   24.5580 C   0  0  0  0  0  0  0  0  0  0  0  0
  -20.2760   -2.2670   23.5140 C   0  0  2  0  0  0  0  0  0  0  0  0
  -19.2470   -3.3540   23.8220 C   0  0  0  0  0  0  0  0  0  0  0  0
  -19.1440   -4.3400   22.6810 C   0  0  0  0  0  0  0  0  0  0  0  0
  -21.6130   -2.9390   23.2140 C   0  0  0  0  0  0  0  0  0  0  0  0
  -21.5160   -3.9270   22.0780 C   0  0  0  0  0  0  0  0  0  0  0  0
  -20.4730   -4.9670   22.3480 N   0  0  1  0  0  0  0  0  0  0  0  0
  -20.3530   -5.8360   21.1340 C   0  0  0  0  0  0  0  0  0  0  0  0
  -19.4230   -7.0350   21.3230 C   0  0  1  0  0  0  0  0  0  0  0  0
  -19.7610   -7.8590   22.5740 C   0  0  0  0  0  0  0  0  0  0  0  0
  -18.8560   -9.0680   22.7420 C   0  0  0  0  0  0  0  0  0  0  0  0
  -19.3950   -7.9160   20.0760 C   0  0  0  0  0  0  0  0  0  0  0  0
  -18.4390   -9.0860   20.2570 C   0  0  0  0  0  0  0  0  0  0  0  0
  -18.8180   -9.9040   21.4810 C   0  0  1  0  0  0  0  0  0  0  0  0
  -17.8580  -11.0120   21.6270 N   0  0  0  0  0  0  0  0  0  0  0  0
  -18.3110  -12.5760   21.7190 S   0  0  1  0  0  0  0  0  0  0  0  0
  -19.3160  -12.7250   20.7100 O   0  0  0  0  0  0  0  0  0  0  0  0
  -17.1120  -13.3610   21.6370 O   0  0  0  0  0  0  0  0  0  0  0  0
  -19.0530  -12.7750   23.3300 C   0  0  0  0  0  0  0  0  0  0  0  0
  -20.2900  -13.6500   23.3120 C   0  0  0  0  0  0  0  0  0  0  0  0
  -23.8253    5.1906   25.6178 H   0  0  0  0  0  0  0  0  0  0  0  0
  -23.4782    6.0589   24.0841 H   0  0  0  0  0  0  0  0  0  0  0  0
  -24.5828    4.6424   24.0841 H   0  0  0  0  0  0  0  0  0  0  0  0
  -21.7417    4.4038   25.0380 H   0  0  0  0  0  0  0  0  0  0  0  0
  -20.8044    4.7337   23.1077 H   0  0  0  0  0  0  0  0  0  0  0  0
  -21.8187    3.4411   22.3817 H   0  0  0  0  0  0  0  0  0  0  0  0
  -22.3959    5.1421   22.3817 H   0  0  0  0  0  0  0  0  0  0  0  0
  -24.6182    1.8343   23.6450 H   0  0  0  0  0  0  0  0  0  0  0  0
  -23.7318    2.9875   22.5401 H   0  0  0  0  0  0  0  0  0  0  0  0
  -22.5119    0.3801   23.4083 H   0  0  0  0  0  0  0  0  0  0  0  0
  -23.6340    0.4828   22.0093 H   0  0  0  0  0  0  0  0  0  0  0  0
  -22.1092    1.4324   22.0093 H   0  0  0  0  0  0  0  0  0  0  0  0
  -23.3687    3.7464   27.6856 H   0  0  0  0  0  0  0  0  0  0  0  0
  -19.5636    3.5819   29.7069 H   0  0  0  0  0  0  0  0  0  0  0  0
  -18.6707    2.1026   27.8957 H   0  0  0  0  0  0  0  0  0  0  0  0
  -18.9021    3.6281   25.5862 H   0  0  0  0  0  0  0  0  0  0  0  0
  -17.9622    3.2002   21.5459 H   0  0  0  0  0  0  0  0  0  0  0  0
  -20.5286   -1.0789   21.5761 H   0  0  0  0  0  0  0  0  0  0  0  0
  -18.9218   -1.3808   21.7718 H   0  0  0  0  0  0  0  0  0  0  0  0
  -19.7353   -1.1591   25.4361 H   0  0  0  0  0  0  0  0  0  0  0  0
  -21.3181   -0.8473   25.1062 H   0  0  0  0  0  0  0  0  0  0  0  0
  -18.2650   -2.8850   23.9821 H   0  0  0  0  0  0  0  0  0  0  0  0
  -19.5672   -3.8945   24.7250 H   0  0  0  0  0  0  0  0  0  0  0  0
  -18.7678   -3.8139   21.7912 H   0  0  0  0  0  0  0  0  0  0  0  0
  -18.4598   -5.1438   22.9904 H   0  0  0  0  0  0  0  0  0  0  0  0
  -21.9524   -3.4694   24.1159 H   0  0  0  0  0  0  0  0  0  0  0  0
  -22.3245   -2.1543   22.9172 H   0  0  0  0  0  0  0  0  0  0  0  0
  -22.4901   -4.4216   21.9493 H   0  0  0  0  0  0  0  0  0  0  0  0
  -21.2331   -3.3805   21.1662 H   0  0  0  0  0  0  0  0  0  0  0  0
  -20.7545   -5.5292   23.1638 H   0  0  0  0  0  0  0  0  0  0  0  0
  -21.3543   -6.2110   20.8756 H   0  0  0  0  0  0  0  0  0  0  0  0
  -19.9175   -5.2151   20.3372 H   0  0  0  0  0  0  0  0  0  0  0  0
  -18.4144   -6.6248   21.4793 H   0  0  0  0  0  0  0  0  0  0  0  0
  -19.6552   -7.2145   23.4591 H   0  0  0  0  0  0  0  0  0  0  0  0
  -20.7910   -8.2282   22.4604 H   0  0  0  0  0  0  0  0  0  0  0  0
  -17.8375   -8.7239   22.9750 H   0  0  0  0  0  0  0  0  0  0  0  0
  -19.2527   -9.6886   23.5590 H   0  0  0  0  0  0  0  0  0  0  0  0
  -20.4068   -8.3040   19.8867 H   0  0  0  0  0  0  0  0  0  0  0  0
  -19.0499   -7.3094   19.2257 H   0  0  0  0  0  0  0  0  0  0  0  0
  -18.4819   -9.7288   19.3654 H   0  0  0  0  0  0  0  0  0  0  0  0
  -17.4208   -8.6932   20.3951 H   0  0  0  0  0  0  0  0  0  0  0  0
  -19.8348  -10.2969   21.3334 H   0  0  0  0  0  0  0  0  0  0  0  0
  -17.2253  -10.9474   20.8168 H   0  0  0  0  0  0  0  0  0  0  0  0
  -18.3117  -13.2310   24.0027 H   0  0  0  0  0  0  0  0  0  0  0  0
  -19.3628  -11.7770   23.6734 H   0  0  0  0  0  0  0  0  0  0  0  0
  -20.5994  -13.8688   24.3446 H   0  0  0  0  0  0  0  0  0  0  0  0
  -21.1030  -13.1249   22.7891 H   0  0  0  0  0  0  0  0  0  0  0  0
  -20.0656  -14.5914   22.7891 H   0  0  0  0  0  0  0  0  0  0  0  0
  2  1  1  0
  2  3  1  0
  2  4  1  0
  4  5  1  0
  4  7  1  0
  5  6  1  0
  7  8  2  0
  7  9  1  0
  9 10  2  0
  9 15  1  0
 10 11  1  0
 11 12  1  0
 11 13  2  0
 13 14  1  0
 14 15  2  0
 15 16  1  0
 16 17  1  0
 17 18  2  0
 17 22  1  0
 18 19  1  0
 19 20  2  0
 20 21  1  0
 21 22  2  0
 22 23  1  0
 23 24  1  0
 23 25  1  0
 26 24  1  6
 25 26  1  0
 26 27  1  0
 26 29  1  0
 27 28  1  0
 28 31  1  0
 29 30  1  0
 30 31  1  0
 31 32  1  0
 33 32  1  0
 33 34  1  0
 33 36  1  0
 34 35  1  0
 35 38  1  0
 36 37  1  0
 37 38  1  0
 38 39  1  0
 40 39  1  1
 40 41  2  0
 40 42  2  0
 40 43  1  0
 43 44  1  0
  1 45  1  0
  1 46  1  0
  1 47  1  0
  2 48  1  1
  3 49  1  0
  3 50  1  0
  3 51  1  0
  5 52  1  0
  5 53  1  0
  6 54  1  0
  6 55  1  0
  6 56  1  0
 10 57  1  0
 13 58  1  0
 14 59  1  0
 18 60  1  0
 20 61  1  0
 24 62  1  0
 24 63  1  0
 25 64  1  0
 25 65  1  0
 27 66  1  0
 27 67  1  0
 28 68  1  0
 28 69  1  0
 29 70  1  0
 29 71  1  0
 30 72  1  0
 30 73  1  0
 31 74  1  1
 32 75  1  0
 32 76  1  0
 33 77  1  1
 34 78  1  0
 34 79  1  0
 35 80  1  0
 35 81  1  0
 36 82  1  0
 36 83  1  0
 37 84  1  0
 37 85  1  0
 38 86  1  6
 39 87  1  0
 43 88  1  0
 43 89  1  0
 44 90  1  0
 44 91  1  0
 44 92  1  0
M  CHG  1  31   1
M  END
>  <filename_input>  (26) 
7UJ4_OQ4_docked.sdf

>  <pdb_id>  (26) 
7UJ4_OQ4

>  <pose_rank>  (26) 
25

>  <num_atoms_heavy>  (26) 
44

>  <num_torsions>  (26) 
10

>  <pose>  (26) 
[-19.435, 1.77, 24.66, 1e-06, 1e-06, 1e-06, 0.0, 0.0, 0.0, 0.0, 0.0, 0.0, 0.0, 0.0, 0.0, 0.0]

>  <energy>  (26) 
-989.2008718263141

>  <inter_energy>  (26) 
-1019.9683935240903

>  <intra_energy>  (26) 
31.267280828878455

>  <rmsd>  (26) 
0.0

>  <sdf_rank>  (26) 
0

$$$$
