
     RDKit          3D

 18 17  0  0  0  0  0  0  0  0999 V2000
  -24.7484  -17.3267  -39.0508 N   0  0  0  0  0  0  0  0  0  0  0  0
  -23.6025  -18.2257  -39.2011 C   0  0  1  0  0  0  0  0  0  0  0  0
  -23.9768  -19.6286  -38.7655 C   0  0  0  0  0  0  0  0  0  0  0  0
  -25.0998  -19.7975  -38.2519 O   0  0  0  0  0  0  0  0  0  0  0  0
  -23.1869  -18.2537  -40.6717 C   0  0  0  0  0  0  0  0  0  0  0  0
  -21.9837  -17.3705  -40.9395 C   0  0  0  0  0  0  0  0  0  0  0  0
  -20.7381  -17.9080  -40.2216 C   0  0  0  0  0  0  0  0  0  0  0  0
  -20.6146  -17.6804  -38.9772 O   0  0  0  0  0  0  0  0  0  0  0  0
  -19.8809  -18.5339  -40.8991 O   0  0  0  0  0  0  0  0  0  0  0  0
  -23.1905  -20.5861  -38.9348 O   0  0  0  0  0  0  0  0  0  0  0  0
  -24.9387  -17.1775  -38.0496 H   0  0  0  0  0  0  0  0  0  0  0  0
  -24.5372  -16.4235  -39.4986 H   0  0  0  0  0  0  0  0  0  0  0  0
  -25.5754  -17.7468  -39.4986 H   0  0  0  0  0  0  0  0  0  0  0  0
  -22.7733  -17.8648  -38.5749 H   0  0  0  0  0  0  0  0  0  0  0  0
  -22.9371  -19.2881  -40.9504 H   0  0  0  0  0  0  0  0  0  0  0  0
  -24.0278  -17.8723  -41.2695 H   0  0  0  0  0  0  0  0  0  0  0  0
  -21.7914  -17.3428  -42.0222 H   0  0  0  0  0  0  0  0  0  0  0  0
  -22.1986  -16.3603  -40.5610 H   0  0  0  0  0  0  0  0  0  0  0  0
  2  1  1  0
  2  3  1  0
  2  5  1  0
  3  4  2  0
  3 10  1  0
  5  6  1  0
  6  7  1  0
  7  8  2  0
  7  9  1  0
  1 11  1  0
  1 12  1  0
  1 13  1  0
  2 14  1  1
  5 15  1  0
  5 16  1  0
  6 17  1  0
  6 18  1  0
M  CHG  3   1   1   9  -1  10  -1
M  END
>  <filename_input>  (1) 
7UJ5_DGL_docked.sdf

>  <pdb_id>  (1) 
7UJ5_DGL

>  <pose_rank>  (1) 
0

>  <num_atoms_heavy>  (1) 
10

>  <num_torsions>  (1) 
4

>  <pose>  (1) 
[-24.74837793595854, -17.326730300295125, -39.05081061876307, 0.43104373235834187, 4.033526578261674, 4.729148517172026, 5.879682547983182, -12.115114319480975, 19.066047720298798, -8.8722391715239]

>  <energy>  (1) 
-617.0478507164031

>  <inter_energy>  (1) 
-616.0078573101381

>  <intra_energy>  (1) 
9.222755008370301

>  <rmsd>  (1) 
0.912407

>  <sdf_rank>  (1) 
0

$$$$

     RDKit          3D

 18 17  0  0  0  0  0  0  0  0999 V2000
  -22.3240  -20.0666  -39.8917 N   0  0  0  0  0  0  0  0  0  0  0  0
  -23.3596  -19.0420  -39.7452 C   0  0  1  0  0  0  0  0  0  0  0  0
  -24.3071  -19.4121  -38.6214 C   0  0  0  0  0  0  0  0  0  0  0  0
  -24.3224  -20.5988  -38.2410 O   0  0  0  0  0  0  0  0  0  0  0  0
  -22.6906  -17.7079  -39.4154 C   0  0  0  0  0  0  0  0  0  0  0  0
  -22.1036  -17.0463  -40.6471 C   0  0  0  0  0  0  0  0  0  0  0  0
  -20.7511  -17.6723  -41.0141 C   0  0  0  0  0  0  0  0  0  0  0  0
  -20.6481  -18.2734  -42.1293 O   0  0  0  0  0  0  0  0  0  0  0  0
  -19.8063  -17.5822  -40.1866 O   0  0  0  0  0  0  0  0  0  0  0  0
  -25.0343  -18.5490  -38.0825 O   0  0  0  0  0  0  0  0  0  0  0  0
  -22.0121  -20.3752  -38.9598 H   0  0  0  0  0  0  0  0  0  0  0  0
  -22.7071  -20.8705  -40.4092 H   0  0  0  0  0  0  0  0  0  0  0  0
  -21.5242  -19.6748  -40.4092 H   0  0  0  0  0  0  0  0  0  0  0  0
  -23.9287  -18.9643  -40.6834 H   0  0  0  0  0  0  0  0  0  0  0  0
  -23.4400  -17.0345  -38.9738 H   0  0  0  0  0  0  0  0  0  0  0  0
  -21.8686  -17.9051  -38.7116 H   0  0  0  0  0  0  0  0  0  0  0  0
  -22.7993  -17.1727  -41.4897 H   0  0  0  0  0  0  0  0  0  0  0  0
  -21.9495  -15.9785  -40.4323 H   0  0  0  0  0  0  0  0  0  0  0  0
  2  1  1  0
  2  3  1  0
  2  5  1  0
  3  4  2  0
  3 10  1  0
  5  6  1  0
  6  7  1  0
  7  8  2  0
  7  9  1  0
  1 11  1  0
  1 12  1  0
  1 13  1  0
  2 14  1  6
  5 15  1  0
  5 16  1  0
  6 17  1  0
  6 18  1  0
M  CHG  3   1   1   9  -1  10  -1
M  END
>  <filename_input>  (2) 
7UJ5_DGL_docked.sdf

>  <pdb_id>  (2) 
7UJ5_DGL

>  <pose_rank>  (2) 
1

>  <num_atoms_heavy>  (2) 
10

>  <num_torsions>  (2) 
4

>  <pose>  (2) 
[-22.32396836422666, -20.06660437753782, -39.89172269321819, 1.5301496722525971, 2.1342459242242557, -1.8336698257639314, -0.6146086254983063, 0.07142121419094963, 3.964145398397095, 0.8199424520415549]

>  <energy>  (2) 
-480.020211152234

>  <inter_energy>  (2) 
-496.82915117416303

>  <intra_energy>  (2) 
12.612401944230948

>  <rmsd>  (2) 
1.84126

>  <sdf_rank>  (2) 
0

$$$$

     RDKit          3D

 18 17  0  0  0  0  0  0  0  0999 V2000
  -24.2212  -17.3024  -38.6454 N   0  0  0  0  0  0  0  0  0  0  0  0
  -23.2131  -18.3405  -38.4220 C   0  0  1  0  0  0  0  0  0  0  0  0
  -23.6644  -19.6500  -39.0380 C   0  0  0  0  0  0  0  0  0  0  0  0
  -23.3786  -20.7039  -38.4372 O   0  0  0  0  0  0  0  0  0  0  0  0
  -21.9029  -17.9053  -39.0781 C   0  0  0  0  0  0  0  0  0  0  0  0
  -21.9551  -18.0282  -40.5885 C   0  0  0  0  0  0  0  0  0  0  0  0
  -21.9663  -16.6439  -41.2515 C   0  0  0  0  0  0  0  0  0  0  0  0
  -21.3126  -16.4872  -42.3302 O   0  0  0  0  0  0  0  0  0  0  0  0
  -22.6053  -15.7165  -40.6884 O   0  0  0  0  0  0  0  0  0  0  0  0
  -24.3184  -19.6680  -40.1038 O   0  0  0  0  0  0  0  0  0  0  0  0
  -24.5608  -16.9526  -37.7381 H   0  0  0  0  0  0  0  0  0  0  0  0
  -23.8026  -16.5262  -39.1777 H   0  0  0  0  0  0  0  0  0  0  0  0
  -25.0093  -17.6980  -39.1777 H   0  0  0  0  0  0  0  0  0  0  0  0
  -23.0719  -18.4826  -37.3404 H   0  0  0  0  0  0  0  0  0  0  0  0
  -21.7049  -16.8561  -38.8139 H   0  0  0  0  0  0  0  0  0  0  0  0
  -21.1037  -18.5660  -38.7111 H   0  0  0  0  0  0  0  0  0  0  0  0
  -21.0727  -18.5862  -40.9350 H   0  0  0  0  0  0  0  0  0  0  0  0
  -22.8784  -18.5578  -40.8660 H   0  0  0  0  0  0  0  0  0  0  0  0
  2  1  1  0
  2  3  1  0
  2  5  1  0
  3  4  2  0
  3 10  1  0
  5  6  1  0
  6  7  1  0
  7  8  2  0
  7  9  1  0
  1 11  1  0
  1 12  1  0
  1 13  1  0
  2 14  1  1
  5 15  1  0
  5 16  1  0
  6 17  1  0
  6 18  1  0
M  CHG  3   1   1   9  -1  10  -1
M  END
>  <filename_input>  (3) 
7UJ5_DGL_docked.sdf

>  <pdb_id>  (3) 
7UJ5_DGL

>  <pose_rank>  (3) 
2

>  <num_atoms_heavy>  (3) 
10

>  <num_torsions>  (3) 
4

>  <pose>  (3) 
[-24.221167994699346, -17.30236997406638, -38.645448144551146, -2.830170074493335, 4.4469231560972515, 0.8527191518513967, 3.4777559653102816, -15.164344779361695, -30.418342629821396, -11.302668083270323]

>  <energy>  (3) 
-486.4267968835566

>  <inter_energy>  (3) 
-498.552338161303

>  <intra_energy>  (3) 
21.374886811060666

>  <rmsd>  (3) 
1.51594

>  <sdf_rank>  (3) 
0

$$$$

     RDKit          3D

 18 17  0  0  0  0  0  0  0  0999 V2000
  -24.5367  -17.2997  -39.1146 N   0  0  0  0  0  0  0  0  0  0  0  0
  -23.3622  -18.1486  -39.3236 C   0  0  1  0  0  0  0  0  0  0  0  0
  -23.6498  -19.5635  -38.8617 C   0  0  0  0  0  0  0  0  0  0  0  0
  -22.7125  -20.3847  -38.8861 O   0  0  0  0  0  0  0  0  0  0  0  0
  -23.0269  -18.1686  -40.8147 C   0  0  0  0  0  0  0  0  0  0  0  0
  -21.7998  -17.3365  -41.1327 C   0  0  0  0  0  0  0  0  0  0  0  0
  -20.5164  -18.0749  -40.7285 C   0  0  0  0  0  0  0  0  0  0  0  0
  -19.5654  -18.1351  -41.5697 O   0  0  0  0  0  0  0  0  0  0  0  0
  -20.4668  -18.6076  -39.5886 O   0  0  0  0  0  0  0  0  0  0  0  0
  -24.7858  -19.8882  -38.4519 O   0  0  0  0  0  0  0  0  0  0  0  0
  -24.6998  -17.1819  -38.1044 H   0  0  0  0  0  0  0  0  0  0  0  0
  -24.3756  -16.3785  -39.5462 H   0  0  0  0  0  0  0  0  0  0  0  0
  -25.3609  -17.7417  -39.5462 H   0  0  0  0  0  0  0  0  0  0  0  0
  -22.5167  -17.7473  -38.7455 H   0  0  0  0  0  0  0  0  0  0  0  0
  -22.8406  -19.2081  -41.1228 H   0  0  0  0  0  0  0  0  0  0  0  0
  -23.8796  -17.7384  -41.3602 H   0  0  0  0  0  0  0  0  0  0  0  0
  -21.7729  -17.1332  -42.2135 H   0  0  0  0  0  0  0  0  0  0  0  0
  -21.8570  -16.3957  -40.5657 H   0  0  0  0  0  0  0  0  0  0  0  0
  2  1  1  0
  2  3  1  0
  2  5  1  0
  3  4  2  0
  3 10  1  0
  5  6  1  0
  6  7  1  0
  7  8  2  0
  7  9  1  0
  1 11  1  0
  1 12  1  0
  1 13  1  0
  2 14  1  1
  5 15  1  0
  5 16  1  0
  6 17  1  0
  6 18  1  0
M  CHG  3   1   1   9  -1  10  -1
M  END
>  <filename_input>  (4) 
7UJ5_DGL_docked.sdf

>  <pdb_id>  (4) 
7UJ5_DGL

>  <pose_rank>  (4) 
3

>  <num_atoms_heavy>  (4) 
10

>  <num_torsions>  (4) 
4

>  <pose>  (4) 
[-24.5366893008782, -17.299735008036624, -39.11459070182123, -2.64585859936857, 5.604556160842219, 1.1659165258567539, 2.933946091605559, -12.022115355023509, -31.009066431496517, -11.480065513566426]

>  <energy>  (4) 
-514.0005205984505

>  <inter_energy>  (4) 
-535.2579013642745

>  <intra_energy>  (4) 
20.218661819440804

>  <rmsd>  (4) 
1.23943

>  <sdf_rank>  (4) 
0

$$$$

     RDKit          3D

 18 17  0  0  0  0  0  0  0  0999 V2000
  -22.8448  -16.1277  -41.4412 N   0  0  0  0  0  0  0  0  0  0  0  0
  -22.5575  -17.5159  -41.0750 C   0  0  1  0  0  0  0  0  0  0  0  0
  -21.0844  -17.6795  -40.7567 C   0  0  0  0  0  0  0  0  0  0  0  0
  -20.5744  -16.8865  -39.9416 O   0  0  0  0  0  0  0  0  0  0  0  0
  -23.3789  -17.8801  -39.8384 C   0  0  0  0  0  0  0  0  0  0  0  0
  -22.6432  -18.8476  -38.9319 C   0  0  0  0  0  0  0  0  0  0  0  0
  -23.4427  -20.1453  -38.7504 C   0  0  0  0  0  0  0  0  0  0  0  0
  -24.7109  -20.0709  -38.7098 O   0  0  0  0  0  0  0  0  0  0  0  0
  -22.8086  -21.2262  -38.6289 O   0  0  0  0  0  0  0  0  0  0  0  0
  -20.4104  -18.5928  -41.2816 O   0  0  0  0  0  0  0  0  0  0  0  0
  -22.9614  -15.5643  -40.5869 H   0  0  0  0  0  0  0  0  0  0  0  0
  -22.0640  -15.7507  -41.9972 H   0  0  0  0  0  0  0  0  0  0  0  0
  -23.7111  -16.0916  -41.9972 H   0  0  0  0  0  0  0  0  0  0  0  0
  -22.8181  -18.1748  -41.9164 H   0  0  0  0  0  0  0  0  0  0  0  0
  -23.5976  -16.9614  -39.2743 H   0  0  0  0  0  0  0  0  0  0  0  0
  -24.3041  -18.3690  -40.1774 H   0  0  0  0  0  0  0  0  0  0  0  0
  -21.6661  -19.0861  -39.3772 H   0  0  0  0  0  0  0  0  0  0  0  0
  -22.5122  -18.3754  -37.9470 H   0  0  0  0  0  0  0  0  0  0  0  0
  2  1  1  0
  2  3  1  0
  2  5  1  0
  3  4  2  0
  3 10  1  0
  5  6  1  0
  6  7  1  0
  7  8  2  0
  7  9  1  0
  1 11  1  0
  1 12  1  0
  1 13  1  0
  2 14  1  6
  5 15  1  0
  5 16  1  0
  6 17  1  0
  6 18  1  0
M  CHG  3   1   1   9  -1  10  -1
M  END
>  <filename_input>  (5) 
7UJ5_DGL_docked.sdf

>  <pdb_id>  (5) 
7UJ5_DGL

>  <pose_rank>  (5) 
4

>  <num_atoms_heavy>  (5) 
10

>  <num_torsions>  (5) 
4

>  <pose>  (5) 
[-22.84477823082902, -16.1277154625247, -41.441205391111225, 2.056819859817142, -2.860568371280245, 0.5221608991162974, -5.685696792044876, 8.712125544080905, -9.320367369310793, -1.8300988790065233]

>  <energy>  (5) 
-365.73119600749743

>  <inter_energy>  (5) 
-393.80402902991085

>  <intra_energy>  (5) 
13.591308076425967

>  <rmsd>  (5) 
4.0364

>  <sdf_rank>  (5) 
0

$$$$

     RDKit          3D

 18 17  0  0  0  0  0  0  0  0999 V2000
  -20.7310  -18.1040  -38.9691 N   0  0  0  0  0  0  0  0  0  0  0  0
  -21.7385  -17.3945  -39.7598 C   0  0  1  0  0  0  0  0  0  0  0  0
  -21.6246  -17.7808  -41.2212 C   0  0  0  0  0  0  0  0  0  0  0  0
  -21.9777  -16.9425  -42.0732 O   0  0  0  0  0  0  0  0  0  0  0  0
  -23.1269  -17.7781  -39.2486 C   0  0  0  0  0  0  0  0  0  0  0  0
  -23.5897  -19.1105  -39.8053 C   0  0  0  0  0  0  0  0  0  0  0  0
  -23.5107  -20.2089  -38.7362 C   0  0  0  0  0  0  0  0  0  0  0  0
  -22.4544  -20.9130  -38.6726 O   0  0  0  0  0  0  0  0  0  0  0  0
  -24.5032  -20.3803  -37.9805 O   0  0  0  0  0  0  0  0  0  0  0  0
  -21.1729  -18.8972  -41.5583 O   0  0  0  0  0  0  0  0  0  0  0  0
  -20.9235  -17.9684  -37.9663 H   0  0  0  0  0  0  0  0  0  0  0  0
  -20.7645  -19.1089  -39.1923 H   0  0  0  0  0  0  0  0  0  0  0  0
  -19.7961  -17.7337  -39.1923 H   0  0  0  0  0  0  0  0  0  0  0  0
  -21.5796  -16.3104  -39.6618 H   0  0  0  0  0  0  0  0  0  0  0  0
  -23.0955  -17.8435  -38.1510 H   0  0  0  0  0  0  0  0  0  0  0  0
  -23.8365  -17.0062  -39.5814 H   0  0  0  0  0  0  0  0  0  0  0  0
  -24.6308  -19.0155  -40.1476 H   0  0  0  0  0  0  0  0  0  0  0  0
  -22.9331  -19.3880  -40.6431 H   0  0  0  0  0  0  0  0  0  0  0  0
  2  1  1  0
  2  3  1  0
  2  5  1  0
  3  4  2  0
  3 10  1  0
  5  6  1  0
  6  7  1  0
  7  8  2  0
  7  9  1  0
  1 11  1  0
  1 12  1  0
  1 13  1  0
  2 14  1  6
  5 15  1  0
  5 16  1  0
  6 17  1  0
  6 18  1  0
M  CHG  3   1   1   9  -1  10  -1
M  END
>  <filename_input>  (6) 
7UJ5_DGL_docked.sdf

>  <pdb_id>  (6) 
7UJ5_DGL

>  <pose_rank>  (6) 
5

>  <num_atoms_heavy>  (6) 
10

>  <num_torsions>  (6) 
4

>  <pose>  (6) 
[-20.73096929839608, -18.103981943913137, -38.96905700153601, -1.526957382333835, -2.854476748243585, -1.881537050397709, -2.938458981743772, 9.85072754521133, -5.370730459466998, -2.8411001385483923]

>  <energy>  (6) 
-373.0109527887843

>  <inter_energy>  (6) 
-377.21794459521743

>  <intra_energy>  (6) 
13.566425830243928

>  <rmsd>  (6) 
4.02127

>  <sdf_rank>  (6) 
0

$$$$

     RDKit          3D

 18 17  0  0  0  0  0  0  0  0999 V2000
  -24.1174  -18.6674  -40.6875 N   0  0  0  0  0  0  0  0  0  0  0  0
  -23.8611  -18.5277  -39.2527 C   0  0  1  0  0  0  0  0  0  0  0  0
  -24.1754  -19.8259  -38.5358 C   0  0  0  0  0  0  0  0  0  0  0  0
  -25.3416  -19.9991  -38.1317 O   0  0  0  0  0  0  0  0  0  0  0  0
  -22.3854  -18.1877  -39.0459 C   0  0  0  0  0  0  0  0  0  0  0  0
  -21.5331  -18.6130  -40.2257 C   0  0  0  0  0  0  0  0  0  0  0  0
  -20.5873  -17.4829  -40.6549 C   0  0  0  0  0  0  0  0  0  0  0  0
  -20.2929  -17.3788  -41.8870 O   0  0  0  0  0  0  0  0  0  0  0  0
  -20.1264  -16.7191  -39.7663 O   0  0  0  0  0  0  0  0  0  0  0  0
  -23.2963  -20.7004  -38.3736 O   0  0  0  0  0  0  0  0  0  0  0  0
  -25.0131  -19.1556  -40.8303 H   0  0  0  0  0  0  0  0  0  0  0  0
  -24.1622  -17.7340  -41.1207 H   0  0  0  0  0  0  0  0  0  0  0  0
  -23.3573  -19.2109  -41.1207 H   0  0  0  0  0  0  0  0  0  0  0  0
  -24.4994  -17.7295  -38.8459 H   0  0  0  0  0  0  0  0  0  0  0  0
  -22.2871  -17.1005  -38.9106 H   0  0  0  0  0  0  0  0  0  0  0  0
  -22.0325  -18.7330  -38.1581 H   0  0  0  0  0  0  0  0  0  0  0  0
  -20.9371  -19.4926  -39.9408 H   0  0  0  0  0  0  0  0  0  0  0  0
  -22.1966  -18.8548  -41.0691 H   0  0  0  0  0  0  0  0  0  0  0  0
  2  1  1  0
  2  3  1  0
  2  5  1  0
  3  4  2  0
  3 10  1  0
  5  6  1  0
  6  7  1  0
  7  8  2  0
  7  9  1  0
  1 11  1  0
  1 12  1  0
  1 13  1  0
  2 14  1  1
  5 15  1  0
  5 16  1  0
  6 17  1  0
  6 18  1  0
M  CHG  3   1   1   9  -1  10  -1
M  END
>  <filename_input>  (7) 
7UJ5_DGL_docked.sdf

>  <pdb_id>  (7) 
7UJ5_DGL

>  <pose_rank>  (7) 
6

>  <num_atoms_heavy>  (7) 
10

>  <num_torsions>  (7) 
4

>  <pose>  (7) 
[-24.11741709051517, -18.667426589865272, -40.68748322649156, 1.3441814861477532, 4.061929677103191, -1.7159791715733017, -1.8418713801152462, -1.6922706507636796, 7.669485566807768, 2.4971104454950024]

>  <energy>  (7) 
-521.3680235745371

>  <inter_energy>  (7) 
-509.19713894193296

>  <intra_energy>  (7) 
2.682301371317232

>  <rmsd>  (7) 
1.36528

>  <sdf_rank>  (7) 
0

$$$$

     RDKit          3D

 18 17  0  0  0  0  0  0  0  0999 V2000
  -23.3573  -18.8177  -40.9120 N   0  0  0  0  0  0  0  0  0  0  0  0
  -24.0698  -18.3734  -39.7125 C   0  0  1  0  0  0  0  0  0  0  0  0
  -24.5513  -19.5698  -38.9160 C   0  0  0  0  0  0  0  0  0  0  0  0
  -23.7922  -20.5546  -38.8301 O   0  0  0  0  0  0  0  0  0  0  0  0
  -23.1152  -17.5497  -38.8484 C   0  0  0  0  0  0  0  0  0  0  0  0
  -21.6940  -18.0741  -38.9127 C   0  0  0  0  0  0  0  0  0  0  0  0
  -20.9190  -17.4188  -40.0641 C   0  0  0  0  0  0  0  0  0  0  0  0
  -19.9518  -18.0608  -40.5817 O   0  0  0  0  0  0  0  0  0  0  0  0
  -21.2603  -16.2647  -40.4341 O   0  0  0  0  0  0  0  0  0  0  0  0
  -25.6658  -19.5588  -38.3487 O   0  0  0  0  0  0  0  0  0  0  0  0
  -22.5153  -19.3430  -40.6363 H   0  0  0  0  0  0  0  0  0  0  0  0
  -23.9728  -19.4250  -41.4717 H   0  0  0  0  0  0  0  0  0  0  0  0
  -23.0827  -17.9979  -41.4717 H   0  0  0  0  0  0  0  0  0  0  0  0
  -24.9382  -17.7671  -40.0097 H   0  0  0  0  0  0  0  0  0  0  0  0
  -23.1256  -16.5080  -39.2018 H   0  0  0  0  0  0  0  0  0  0  0  0
  -23.4560  -17.6195  -37.8048 H   0  0  0  0  0  0  0  0  0  0  0  0
  -21.1848  -17.8515  -37.9634 H   0  0  0  0  0  0  0  0  0  0  0  0
  -21.7279  -19.1599  -39.0855 H   0  0  0  0  0  0  0  0  0  0  0  0
  2  1  1  0
  2  3  1  0
  2  5  1  0
  3  4  2  0
  3 10  1  0
  5  6  1  0
  6  7  1  0
  7  8  2  0
  7  9  1  0
  1 11  1  0
  1 12  1  0
  1 13  1  0
  2 14  1  6
  5 15  1  0
  5 16  1  0
  6 17  1  0
  6 18  1  0
M  CHG  3   1   1   9  -1  10  -1
M  END
>  <filename_input>  (8) 
7UJ5_DGL_docked.sdf

>  <pdb_id>  (8) 
7UJ5_DGL

>  <pose_rank>  (8) 
7

>  <num_atoms_heavy>  (8) 
10

>  <num_torsions>  (8) 
4

>  <pose>  (8) 
[-23.357329752814014, -18.81773264608259, -40.91196117924362, 1.2069916210739655, 3.358440373182564, -1.4906470250679416, 0.3931274166017417, -1.9180039246822247, 6.909915784591136, 2.389303329219566]

>  <energy>  (8) 
-448.3335758443291

>  <inter_energy>  (8) 
-466.3102014750893

>  <intra_energy>  (8) 
21.967493191708577

>  <rmsd>  (8) 
1.51317

>  <sdf_rank>  (8) 
0

$$$$

     RDKit          3D

 18 17  0  0  0  0  0  0  0  0999 V2000
  -21.7907  -15.9274  -40.6241 N   0  0  0  0  0  0  0  0  0  0  0  0
  -21.7585  -17.2342  -41.2836 C   0  0  1  0  0  0  0  0  0  0  0  0
  -20.4259  -17.9130  -41.0361 C   0  0  0  0  0  0  0  0  0  0  0  0
  -19.5666  -17.8523  -41.9369 O   0  0  0  0  0  0  0  0  0  0  0  0
  -22.8763  -18.1043  -40.7093 C   0  0  0  0  0  0  0  0  0  0  0  0
  -23.4161  -17.5493  -39.4055 C   0  0  0  0  0  0  0  0  0  0  0  0
  -23.7331  -18.6801  -38.4173 C   0  0  0  0  0  0  0  0  0  0  0  0
  -24.5908  -18.4606  -37.5054 O   0  0  0  0  0  0  0  0  0  0  0  0
  -23.1155  -19.7707  -38.5385 O   0  0  0  0  0  0  0  0  0  0  0  0
  -20.1923  -18.4973  -39.9554 O   0  0  0  0  0  0  0  0  0  0  0  0
  -21.7875  -16.0582  -39.6024 H   0  0  0  0  0  0  0  0  0  0  0  0
  -20.9629  -15.3816  -40.9030 H   0  0  0  0  0  0  0  0  0  0  0  0
  -22.6444  -15.4230  -40.9030 H   0  0  0  0  0  0  0  0  0  0  0  0
  -21.8963  -17.0980  -42.3664 H   0  0  0  0  0  0  0  0  0  0  0  0
  -23.6969  -18.1560  -41.4400 H   0  0  0  0  0  0  0  0  0  0  0  0
  -22.4599  -19.1021  -40.5069 H   0  0  0  0  0  0  0  0  0  0  0  0
  -22.6640  -16.8818  -38.9596 H   0  0  0  0  0  0  0  0  0  0  0  0
  -24.3438  -16.9970  -39.6164 H   0  0  0  0  0  0  0  0  0  0  0  0
  2  1  1  0
  2  3  1  0
  2  5  1  0
  3  4  2  0
  3 10  1  0
  5  6  1  0
  6  7  1  0
  7  8  2  0
  7  9  1  0
  1 11  1  0
  1 12  1  0
  1 13  1  0
  2 14  1  6
  5 15  1  0
  5 16  1  0
  6 17  1  0
  6 18  1  0
M  CHG  3   1   1   9  -1  10  -1
M  END
>  <filename_input>  (9) 
7UJ5_DGL_docked.sdf

>  <pdb_id>  (9) 
7UJ5_DGL

>  <pose_rank>  (9) 
8

>  <num_atoms_heavy>  (9) 
10

>  <num_torsions>  (9) 
4

>  <pose>  (9) 
[-21.790691183256598, -15.927386716919033, -40.624106015437214, -13.476786368976752, 30.64543279648638, 3.135283907224597, -2.0311137355833266, -7.868132203046996, 9.166031260475032, 2.346200403381878]

>  <energy>  (9) 
-320.08326220977926

>  <inter_energy>  (9) 
-320.9961017550742

>  <intra_energy>  (9) 
1.1402717106036417

>  <rmsd>  (9) 
3.94703

>  <sdf_rank>  (9) 
0

$$$$

     RDKit          3D

 18 17  0  0  0  0  0  0  0  0999 V2000
  -15.9648  -13.8934  -45.5568 N   0  0  0  0  0  0  0  0  0  0  0  0
  -14.9547  -14.8906  -45.9157 C   0  0  1  0  0  0  0  0  0  0  0  0
  -15.4171  -16.2751  -45.5065 C   0  0  0  0  0  0  0  0  0  0  0  0
  -16.2599  -16.3598  -44.5923 O   0  0  0  0  0  0  0  0  0  0  0  0
  -14.7478  -14.8605  -47.4298 C   0  0  0  0  0  0  0  0  0  0  0  0
  -13.7726  -13.7778  -47.8490 C   0  0  0  0  0  0  0  0  0  0  0  0
  -14.5028  -12.6218  -48.5464 C   0  0  0  0  0  0  0  0  0  0  0  0
  -13.8461  -11.8960  -49.3573 O   0  0  0  0  0  0  0  0  0  0  0  0
  -15.7161  -12.4281  -48.2708 O   0  0  0  0  0  0  0  0  0  0  0  0
  -14.9800  -17.2956  -46.0821 O   0  0  0  0  0  0  0  0  0  0  0  0
  -16.0323  -13.8268  -44.5311 H   0  0  0  0  0  0  0  0  0  0  0  0
  -15.6955  -12.9774  -45.9433 H   0  0  0  0  0  0  0  0  0  0  0  0
  -16.8772  -14.1743  -45.9433 H   0  0  0  0  0  0  0  0  0  0  0  0
  -14.0139  -14.6581  -45.3952 H   0  0  0  0  0  0  0  0  0  0  0  0
  -14.3562  -15.8360  -47.7541 H   0  0  0  0  0  0  0  0  0  0  0  0
  -15.7181  -14.6444  -47.9008 H   0  0  0  0  0  0  0  0  0  0  0  0
  -13.2575  -13.3921  -46.9568 H   0  0  0  0  0  0  0  0  0  0  0  0
  -13.0481  -14.2116  -48.5540 H   0  0  0  0  0  0  0  0  0  0  0  0
  2  1  1  0
  2  3  1  0
  2  5  1  0
  3  4  2  0
  3 10  1  0
  5  6  1  0
  6  7  1  0
  7  8  2  0
  7  9  1  0
  1 11  1  0
  1 12  1  0
  1 13  1  0
  2 14  1  1
  5 15  1  0
  5 16  1  0
  6 17  1  0
  6 18  1  0
M  CHG  3   1   1   9  -1  10  -1
M  END
>  <filename_input>  (10) 
7UJ5_DGL_docked.sdf

>  <pdb_id>  (10) 
7UJ5_DGL

>  <pose_rank>  (10) 
9

>  <num_atoms_heavy>  (10) 
10

>  <num_torsions>  (10) 
4

>  <pose>  (10) 
[-15.964818097556522, -13.89335288973683, -45.556760948981875, 3.559297312610058, 7.24205437897599, -9.877609337733869, -13.272545866567016, -12.408562259160568, -2.813061321106871, -3.925461883255374]

>  <energy>  (10) 
-63.92018198701987

>  <inter_energy>  (10) 
-70.94476250784994

>  <intra_energy>  (10) 
5.8552927152454854

>  <rmsd>  (10) 
11.5697

>  <sdf_rank>  (10) 
0

$$$$

     RDKit          3D

 18 17  0  0  0  0  0  0  0  0999 V2000
  -24.5394  -17.5473  -38.6166 N   0  0  0  0  0  0  0  0  0  0  0  0
  -23.3489  -18.3595  -38.8751 C   0  0  1  0  0  0  0  0  0  0  0  0
  -23.6318  -19.8165  -38.5667 C   0  0  0  0  0  0  0  0  0  0  0  0
  -24.8142  -20.1457  -38.3501 O   0  0  0  0  0  0  0  0  0  0  0  0
  -22.9710  -18.2256  -40.3500 C   0  0  0  0  0  0  0  0  0  0  0  0
  -21.6145  -17.5729  -40.5325 C   0  0  0  0  0  0  0  0  0  0  0  0
  -21.7156  -16.3438  -41.4463 C   0  0  0  0  0  0  0  0  0  0  0  0
  -21.0489  -16.3411  -42.5284 O   0  0  0  0  0  0  0  0  0  0  0  0
  -22.4383  -15.3814  -41.0763 O   0  0  0  0  0  0  0  0  0  0  0  0
  -22.7100  -20.6613  -38.5499 O   0  0  0  0  0  0  0  0  0  0  0  0
  -24.6769  -17.4535  -37.6001 H   0  0  0  0  0  0  0  0  0  0  0  0
  -24.4154  -16.6138  -39.0339 H   0  0  0  0  0  0  0  0  0  0  0  0
  -25.3633  -18.0032  -39.0339 H   0  0  0  0  0  0  0  0  0  0  0  0
  -22.5253  -18.0106  -38.2348 H   0  0  0  0  0  0  0  0  0  0  0  0
  -22.9465  -19.2278  -40.8027 H   0  0  0  0  0  0  0  0  0  0  0  0
  -23.7231  -17.5872  -40.8366 H   0  0  0  0  0  0  0  0  0  0  0  0
  -21.2303  -17.2605  -39.5502 H   0  0  0  0  0  0  0  0  0  0  0  0
  -20.9342  -18.3013  -40.9977 H   0  0  0  0  0  0  0  0  0  0  0  0
  2  1  1  0
  2  3  1  0
  2  5  1  0
  3  4  2  0
  3 10  1  0
  5  6  1  0
  6  7  1  0
  7  8  2  0
  7  9  1  0
  1 11  1  0
  1 12  1  0
  1 13  1  0
  2 14  1  1
  5 15  1  0
  5 16  1  0
  6 17  1  0
  6 18  1  0
M  CHG  3   1   1   9  -1  10  -1
M  END
>  <filename_input>  (11) 
7UJ5_DGL_docked.sdf

>  <pdb_id>  (11) 
7UJ5_DGL

>  <pose_rank>  (11) 
10

>  <num_atoms_heavy>  (11) 
10

>  <num_torsions>  (11) 
4

>  <pose>  (11) 
[-24.539405320367166, -17.547286573207916, -38.61655676590166, -6.067165628902794, 0.5822130496180016, -1.0814526187651414, -6.398158612459403, -5.556762275027216, 9.458444768673047, -3.2984532960597956]

>  <energy>  (11) 
-551.8265999652124

>  <inter_energy>  (11) 
-549.0277035848319

>  <intra_energy>  (11) 
0.0

>  <rmsd>  (11) 
1.30291

>  <sdf_rank>  (11) 
0

$$$$

     RDKit          3D

 18 17  0  0  0  0  0  0  0  0999 V2000
  -23.8996  -17.4100  -40.7970 N   0  0  0  0  0  0  0  0  0  0  0  0
  -22.6557  -18.1313  -40.5210 C   0  0  1  0  0  0  0  0  0  0  0  0
  -21.4938  -17.4610  -41.2272 C   0  0  0  0  0  0  0  0  0  0  0  0
  -21.5909  -16.2444  -41.4797 O   0  0  0  0  0  0  0  0  0  0  0  0
  -22.4002  -18.1158  -39.0141 C   0  0  0  0  0  0  0  0  0  0  0  0
  -22.5275  -19.4970  -38.4015 C   0  0  0  0  0  0  0  0  0  0  0  0
  -23.8800  -20.1312  -38.7544 C   0  0  0  0  0  0  0  0  0  0  0  0
  -24.9199  -19.4025  -38.6991 O   0  0  0  0  0  0  0  0  0  0  0  0
  -23.9056  -21.3514  -39.0640 O   0  0  0  0  0  0  0  0  0  0  0  0
  -20.4653  -18.1056  -41.5278 O   0  0  0  0  0  0  0  0  0  0  0  0
  -24.3496  -17.1491  -39.9080 H   0  0  0  0  0  0  0  0  0  0  0  0
  -23.6902  -16.5593  -41.3385 H   0  0  0  0  0  0  0  0  0  0  0  0
  -24.5340  -18.0143  -41.3385 H   0  0  0  0  0  0  0  0  0  0  0  0
  -22.7476  -19.1657  -40.8839 H   0  0  0  0  0  0  0  0  0  0  0  0
  -21.3836  -17.7382  -38.8302 H   0  0  0  0  0  0  0  0  0  0  0  0
  -23.1564  -17.4668  -38.5482 H   0  0  0  0  0  0  0  0  0  0  0  0
  -21.7189  -20.1368  -38.7849 H   0  0  0  0  0  0  0  0  0  0  0  0
  -22.4583  -19.4037  -37.3077 H   0  0  0  0  0  0  0  0  0  0  0  0
  2  1  1  0
  2  3  1  0
  2  5  1  0
  3  4  2  0
  3 10  1  0
  5  6  1  0
  6  7  1  0
  7  8  2  0
  7  9  1  0
  1 11  1  0
  1 12  1  0
  1 13  1  0
  2 14  1  6
  5 15  1  0
  5 16  1  0
  6 17  1  0
  6 18  1  0
M  CHG  3   1   1   9  -1  10  -1
M  END
>  <filename_input>  (12) 
7UJ5_DGL_docked.sdf

>  <pdb_id>  (12) 
7UJ5_DGL

>  <pose_rank>  (12) 
11

>  <num_atoms_heavy>  (12) 
10

>  <num_torsions>  (12) 
4

>  <pose>  (12) 
[-23.899580929585763, -17.410021521374162, -40.796986636665636, -2.7941472715715805, 1.8952970483615381, -0.11755921885231832, -6.125883766254824, -5.627076228891579, 10.699230779326385, -1.9585357645556118]

>  <energy>  (12) 
-374.4046352408307

>  <inter_energy>  (12) 
-369.11666352702673

>  <intra_energy>  (12) 
13.752924323814444

>  <rmsd>  (12) 
4.16009

>  <sdf_rank>  (12) 
0

$$$$

     RDKit          3D

 18 17  0  0  0  0  0  0  0  0999 V2000
  -25.2952  -18.6564  -37.5041 N   0  0  0  0  0  0  0  0  0  0  0  0
  -24.5442  -18.5155  -38.7531 C   0  0  1  0  0  0  0  0  0  0  0  0
  -25.3488  -19.0677  -39.9131 C   0  0  0  0  0  0  0  0  0  0  0  0
  -24.7293  -19.6454  -40.8274 O   0  0  0  0  0  0  0  0  0  0  0  0
  -24.2681  -17.0323  -38.9981 C   0  0  0  0  0  0  0  0  0  0  0  0
  -22.8834  -16.6270  -38.5314 C   0  0  0  0  0  0  0  0  0  0  0  0
  -21.8563  -16.7825  -39.6613 C   0  0  0  0  0  0  0  0  0  0  0  0
  -20.8259  -16.0385  -39.6456 O   0  0  0  0  0  0  0  0  0  0  0  0
  -22.0872  -17.6259  -40.5674 O   0  0  0  0  0  0  0  0  0  0  0  0
  -26.5947  -18.9626  -39.9398 O   0  0  0  0  0  0  0  0  0  0  0  0
  -24.6571  -18.5367  -36.7045 H   0  0  0  0  0  0  0  0  0  0  0  0
  -26.0335  -17.9393  -37.4646 H   0  0  0  0  0  0  0  0  0  0  0  0
  -25.7233  -19.5924  -37.4646 H   0  0  0  0  0  0  0  0  0  0  0  0
  -23.5997  -19.0736  -38.6737 H   0  0  0  0  0  0  0  0  0  0  0  0
  -24.3532  -16.8286  -40.0758 H   0  0  0  0  0  0  0  0  0  0  0  0
  -25.0038  -16.4505  -38.4236 H   0  0  0  0  0  0  0  0  0  0  0  0
  -22.9060  -15.5760  -38.2076 H   0  0  0  0  0  0  0  0  0  0  0  0
  -22.5890  -17.2804  -37.6969 H   0  0  0  0  0  0  0  0  0  0  0  0
  2  1  1  0
  2  3  1  0
  2  5  1  0
  3  4  2  0
  3 10  1  0
  5  6  1  0
  6  7  1  0
  7  8  2  0
  7  9  1  0
  1 11  1  0
  1 12  1  0
  1 13  1  0
  2 14  1  1
  5 15  1  0
  5 16  1  0
  6 17  1  0
  6 18  1  0
M  CHG  3   1   1   9  -1  10  -1
M  END
>  <filename_input>  (13) 
7UJ5_DGL_docked.sdf

>  <pdb_id>  (13) 
7UJ5_DGL

>  <pose_rank>  (13) 
12

>  <num_atoms_heavy>  (13) 
10

>  <num_torsions>  (13) 
4

>  <pose>  (13) 
[-25.295212293478155, -18.65644026049426, -37.504130859180826, 1.4757646640271107, 0.326441146815327, -0.2856298648492212, -2.815906686189022, 0.3936159785080108, 19.498591620221628, -4.8323241596430595]

>  <energy>  (13) 
-166.03976952085458

>  <inter_energy>  (13) 
-163.9630137248161

>  <intra_energy>  (13) 
5.386247275983982

>  <rmsd>  (13) 
2.10489

>  <sdf_rank>  (13) 
0

$$$$

     RDKit          3D

 18 17  0  0  0  0  0  0  0  0999 V2000
  -23.9621  -19.3942  -39.9007 N   0  0  0  0  0  0  0  0  0  0  0  0
  -22.5509  -19.0064  -39.8543 C   0  0  1  0  0  0  0  0  0  0  0  0
  -21.8450  -19.4461  -41.1217 C   0  0  0  0  0  0  0  0  0  0  0  0
  -20.7040  -18.9938  -41.3382 O   0  0  0  0  0  0  0  0  0  0  0  0
  -22.4609  -17.4853  -39.7345 C   0  0  0  0  0  0  0  0  0  0  0  0
  -22.4086  -17.0308  -38.2888 C   0  0  0  0  0  0  0  0  0  0  0  0
  -21.0898  -16.3050  -37.9893 C   0  0  0  0  0  0  0  0  0  0  0  0
  -20.6340  -15.4996  -38.8605 O   0  0  0  0  0  0  0  0  0  0  0  0
  -20.5043  -16.5530  -36.9025 O   0  0  0  0  0  0  0  0  0  0  0  0
  -22.3843  -20.2511  -41.9123 O   0  0  0  0  0  0  0  0  0  0  0  0
  -24.3227  -19.4932  -38.9410 H   0  0  0  0  0  0  0  0  0  0  0  0
  -24.5009  -18.6700  -40.3969 H   0  0  0  0  0  0  0  0  0  0  0  0
  -24.0553  -20.2919  -40.3969 H   0  0  0  0  0  0  0  0  0  0  0  0
  -22.0703  -19.4884  -38.9902 H   0  0  0  0  0  0  0  0  0  0  0  0
  -21.5505  -17.1421  -40.2477 H   0  0  0  0  0  0  0  0  0  0  0  0
  -23.3630  -17.0546  -40.1934 H   0  0  0  0  0  0  0  0  0  0  0  0
  -23.2480  -16.3465  -38.0961 H   0  0  0  0  0  0  0  0  0  0  0  0
  -22.4773  -17.9163  -37.6398 H   0  0  0  0  0  0  0  0  0  0  0  0
  2  1  1  0
  2  3  1  0
  2  5  1  0
  3  4  2  0
  3 10  1  0
  5  6  1  0
  6  7  1  0
  7  8  2  0
  7  9  1  0
  1 11  1  0
  1 12  1  0
  1 13  1  0
  2 14  1  1
  5 15  1  0
  5 16  1  0
  6 17  1  0
  6 18  1  0
M  CHG  3   1   1   9  -1  10  -1
M  END
>  <filename_input>  (14) 
7UJ5_DGL_docked.sdf

>  <pdb_id>  (14) 
7UJ5_DGL

>  <pose_rank>  (14) 
13

>  <num_atoms_heavy>  (14) 
10

>  <num_torsions>  (14) 
4

>  <pose>  (14) 
[-23.96208091001143, -19.394151297462916, -39.90071891703548, -4.108997774239463, 1.12656633890728, -1.7804049309801633, -9.931033398353891, -12.274188061157876, 7.408164367171684, -0.4996740921250454]

>  <energy>  (14) 
-245.4139898234781

>  <inter_energy>  (14) 
-227.853748656516

>  <intra_energy>  (14) 
0.0

>  <rmsd>  (14) 
2.77186

>  <sdf_rank>  (14) 
0

$$$$

     RDKit          3D

 18 17  0  0  0  0  0  0  0  0999 V2000
  -22.6842  -10.5212  -30.9318 N   0  0  0  0  0  0  0  0  0  0  0  0
  -24.0196   -9.9233  -30.9859 C   0  0  1  0  0  0  0  0  0  0  0  0
  -24.1786   -9.1107  -32.2557 C   0  0  0  0  0  0  0  0  0  0  0  0
  -25.3155   -8.6816  -32.5325 O   0  0  0  0  0  0  0  0  0  0  0  0
  -25.0616  -11.0415  -30.9748 C   0  0  0  0  0  0  0  0  0  0  0  0
  -24.5453  -12.3064  -31.6326 C   0  0  0  0  0  0  0  0  0  0  0  0
  -25.1636  -13.5531  -30.9850 C   0  0  0  0  0  0  0  0  0  0  0  0
  -24.3820  -14.4437  -30.5251 O   0  0  0  0  0  0  0  0  0  0  0  0
  -26.4186  -13.6512  -30.9549 O   0  0  0  0  0  0  0  0  0  0  0  0
  -23.1962   -8.8644  -32.9892 O   0  0  0  0  0  0  0  0  0  0  0  0
  -22.4037  -10.6467  -29.9487 H   0  0  0  0  0  0  0  0  0  0  0  0
  -22.6983  -11.4363  -31.4044 H   0  0  0  0  0  0  0  0  0  0  0  0
  -22.0110   -9.9011  -31.4044 H   0  0  0  0  0  0  0  0  0  0  0  0
  -24.1569   -9.2623  -30.1174 H   0  0  0  0  0  0  0  0  0  0  0  0
  -25.3290  -11.2673  -29.9320 H   0  0  0  0  0  0  0  0  0  0  0  0
  -25.9368  -10.6956  -31.5443 H   0  0  0  0  0  0  0  0  0  0  0  0
  -24.8062  -12.2888  -32.7010 H   0  0  0  0  0  0  0  0  0  0  0  0
  -23.4537  -12.3487  -31.5038 H   0  0  0  0  0  0  0  0  0  0  0  0
  2  1  1  0
  2  3  1  0
  2  5  1  0
  3  4  2  0
  3 10  1  0
  5  6  1  0
  6  7  1  0
  7  8  2  0
  7  9  1  0
  1 11  1  0
  1 12  1  0
  1 13  1  0
  2 14  1  1
  5 15  1  0
  5 16  1  0
  6 17  1  0
  6 18  1  0
M  CHG  3   1   1   9  -1  10  -1
M  END
>  <filename_input>  (15) 
7UJ5_DGL_docked.sdf

>  <pdb_id>  (15) 
7UJ5_DGL

>  <pose_rank>  (15) 
14

>  <num_atoms_heavy>  (15) 
10

>  <num_torsions>  (15) 
4

>  <pose>  (15) 
[-22.68415066412063, -10.52117879698467, -30.931839165229324, -1.1183645688860713, -1.7134126549603959, -2.326714249049407, -3.596127846743664, 4.448003455681545, 14.22803635395822, -3.3906527860279563]

>  <energy>  (15) 
-125.16872866662001

>  <inter_energy>  (15) 
-125.81554339908057

>  <intra_energy>  (15) 
0.0

>  <rmsd>  (15) 
11.5597

>  <sdf_rank>  (15) 
0

$$$$

     RDKit          3D

 18 17  0  0  0  0  0  0  0  0999 V2000
  -14.3634  -13.1148  -43.7447 N   0  0  0  0  0  0  0  0  0  0  0  0
  -14.6247  -13.4001  -45.1568 C   0  0  1  0  0  0  0  0  0  0  0  0
  -14.8530  -14.8851  -45.3576 C   0  0  0  0  0  0  0  0  0  0  0  0
  -13.9581  -15.6668  -44.9813 O   0  0  0  0  0  0  0  0  0  0  0  0
  -15.8776  -12.6393  -45.5902 C   0  0  0  0  0  0  0  0  0  0  0  0
  -15.6729  -11.1373  -45.5508 C   0  0  0  0  0  0  0  0  0  0  0  0
  -16.9040  -10.4014  -46.0972 C   0  0  0  0  0  0  0  0  0  0  0  0
  -17.0239   -9.1606  -45.8486 O   0  0  0  0  0  0  0  0  0  0  0  0
  -17.7538  -11.0615  -46.7511 O   0  0  0  0  0  0  0  0  0  0  0  0
  -15.9133  -15.3101  -45.8665 O   0  0  0  0  0  0  0  0  0  0  0  0
  -14.9348  -13.7384  -43.1570 H   0  0  0  0  0  0  0  0  0  0  0  0
  -13.3656  -13.2708  -43.5419 H   0  0  0  0  0  0  0  0  0  0  0  0
  -14.6058  -12.1345  -43.5419 H   0  0  0  0  0  0  0  0  0  0  0  0
  -13.7582  -13.0858  -45.7571 H   0  0  0  0  0  0  0  0  0  0  0  0
  -16.1352  -12.9356  -46.6177 H   0  0  0  0  0  0  0  0  0  0  0  0
  -16.6868  -12.8902  -44.8886 H   0  0  0  0  0  0  0  0  0  0  0  0
  -15.4990  -10.8249  -44.5105 H   0  0  0  0  0  0  0  0  0  0  0  0
  -14.8056  -10.8846  -46.1784 H   0  0  0  0  0  0  0  0  0  0  0  0
  2  1  1  0
  2  3  1  0
  2  5  1  0
  3  4  2  0
  3 10  1  0
  5  6  1  0
  6  7  1  0
  7  8  2  0
  7  9  1  0
  1 11  1  0
  1 12  1  0
  1 13  1  0
  2 14  1  6
  5 15  1  0
  5 16  1  0
  6 17  1  0
  6 18  1  0
M  CHG  3   1   1   9  -1  10  -1
M  END
>  <filename_input>  (16) 
7UJ5_DGL_docked.sdf

>  <pdb_id>  (16) 
7UJ5_DGL

>  <pose_rank>  (16) 
15

>  <num_atoms_heavy>  (16) 
10

>  <num_torsions>  (16) 
4

>  <pose>  (16) 
[-14.363351361025616, -13.114783507281874, -43.74470853038936, 0.6080372768967182, 1.3827377264361898, -0.07361058008682982, -1.2817037624335772, -0.15943289599654858, 2.1322499067613534, 1.6441659859357634]

>  <energy>  (16) 
-147.00071082058983

>  <inter_energy>  (16) 
-123.8682845418109

>  <intra_energy>  (16) 
0.0

>  <rmsd>  (16) 
11.219

>  <sdf_rank>  (16) 
0

$$$$

     RDKit          3D

 18 17  0  0  0  0  0  0  0  0999 V2000
  -26.7075  -18.3509  -47.6853 N   0  0  0  0  0  0  0  0  0  0  0  0
  -27.7168  -18.3011  -48.7448 C   0  0  1  0  0  0  0  0  0  0  0  0
  -29.0032  -18.9500  -48.2735 C   0  0  0  0  0  0  0  0  0  0  0  0
  -30.0569  -18.6507  -48.8681 O   0  0  0  0  0  0  0  0  0  0  0  0
  -27.9938  -16.8391  -49.0941 C   0  0  0  0  0  0  0  0  0  0  0  0
  -26.9655  -15.9047  -48.4868 C   0  0  0  0  0  0  0  0  0  0  0  0
  -27.6468  -14.7352  -47.7629 C   0  0  0  0  0  0  0  0  0  0  0  0
  -28.8567  -14.4716  -48.0497 O   0  0  0  0  0  0  0  0  0  0  0  0
  -26.9728  -14.0731  -46.9305 O   0  0  0  0  0  0  0  0  0  0  0  0
  -29.0013  -19.7726  -47.3316 O   0  0  0  0  0  0  0  0  0  0  0  0
  -27.1726  -18.3279  -46.7666 H   0  0  0  0  0  0  0  0  0  0  0  0
  -26.1613  -19.2198  -47.7720 H   0  0  0  0  0  0  0  0  0  0  0  0
  -26.0784  -17.5399  -47.7720 H   0  0  0  0  0  0  0  0  0  0  0  0
  -27.3441  -18.8423  -49.6269 H   0  0  0  0  0  0  0  0  0  0  0  0
  -27.9744  -16.7256  -50.1880 H   0  0  0  0  0  0  0  0  0  0  0  0
  -28.9790  -16.5727  -48.6835 H   0  0  0  0  0  0  0  0  0  0  0  0
  -26.3510  -16.4649  -47.7667 H   0  0  0  0  0  0  0  0  0  0  0  0
  -26.3384  -15.5000  -49.2948 H   0  0  0  0  0  0  0  0  0  0  0  0
  2  1  1  0
  2  3  1  0
  2  5  1  0
  3  4  2  0
  3 10  1  0
  5  6  1  0
  6  7  1  0
  7  8  2  0
  7  9  1  0
  1 11  1  0
  1 12  1  0
  1 13  1  0
  2 14  1  6
  5 15  1  0
  5 16  1  0
  6 17  1  0
  6 18  1  0
M  CHG  3   1   1   9  -1  10  -1
M  END
>  <filename_input>  (17) 
7UJ5_DGL_docked.sdf

>  <pdb_id>  (17) 
7UJ5_DGL

>  <pose_rank>  (17) 
16

>  <num_atoms_heavy>  (17) 
10

>  <num_torsions>  (17) 
4

>  <pose>  (17) 
[-26.707454379773264, -18.35087545857304, -47.685285648404516, 1.033879113527959, 1.366921241423475, -1.1837587594568075, 2.4796338980926405, -1.0895420157169318, 3.068267607013299, -1.5467459389655986]

>  <energy>  (17) 
-146.99077684504888

>  <inter_energy>  (17) 
-112.41179588772007

>  <intra_energy>  (17) 
0.0

>  <rmsd>  (17) 
10.5286

>  <sdf_rank>  (17) 
0

$$$$

     RDKit          3D

 18 17  0  0  0  0  0  0  0  0999 V2000
  -32.6761  -23.0049  -40.7241 N   0  0  0  0  0  0  0  0  0  0  0  0
  -31.2979  -23.4917  -40.6388 C   0  0  1  0  0  0  0  0  0  0  0  0
  -30.6019  -22.8856  -39.4363 C   0  0  0  0  0  0  0  0  0  0  0  0
  -29.3703  -22.7079  -39.5060 O   0  0  0  0  0  0  0  0  0  0  0  0
  -31.3203  -25.0127  -40.4887 C   0  0  0  0  0  0  0  0  0  0  0  0
  -31.8462  -25.6993  -41.7342 C   0  0  0  0  0  0  0  0  0  0  0  0
  -30.8982  -26.8190  -42.1851 C   0  0  0  0  0  0  0  0  0  0  0  0
  -30.7771  -27.0409  -43.4307 O   0  0  0  0  0  0  0  0  0  0  0  0
  -30.2959  -27.4843  -41.3018 O   0  0  0  0  0  0  0  0  0  0  0  0
  -31.2476  -22.5580  -38.4167 O   0  0  0  0  0  0  0  0  0  0  0  0
  -33.0527  -22.8718  -39.7747 H   0  0  0  0  0  0  0  0  0  0  0  0
  -32.6925  -22.1072  -41.2289 H   0  0  0  0  0  0  0  0  0  0  0  0
  -33.2528  -23.6931  -41.2289 H   0  0  0  0  0  0  0  0  0  0  0  0
  -30.7542  -23.2042  -41.5508 H   0  0  0  0  0  0  0  0  0  0  0  0
  -30.2967  -25.3653  -40.2943 H   0  0  0  0  0  0  0  0  0  0  0  0
  -31.9925  -25.2616  -39.6543 H   0  0  0  0  0  0  0  0  0  0  0  0
  -32.8349  -26.1301  -41.5175 H   0  0  0  0  0  0  0  0  0  0  0  0
  -31.9194  -24.9551  -42.5410 H   0  0  0  0  0  0  0  0  0  0  0  0
  2  1  1  0
  2  3  1  0
  2  5  1  0
  3  4  2  0
  3 10  1  0
  5  6  1  0
  6  7  1  0
  7  8  2  0
  7  9  1  0
  1 11  1  0
  1 12  1  0
  1 13  1  0
  2 14  1  6
  5 15  1  0
  5 16  1  0
  6 17  1  0
  6 18  1  0
M  CHG  3   1   1   9  -1  10  -1
M  END
>  <filename_input>  (18) 
7UJ5_DGL_docked.sdf

>  <pdb_id>  (18) 
7UJ5_DGL

>  <pose_rank>  (18) 
17

>  <num_atoms_heavy>  (18) 
10

>  <num_torsions>  (18) 
4

>  <pose>  (18) 
[-32.67613723188455, -23.004856313356406, -40.724145163802895, 4.039015143969292, -1.7463149026320635, -0.6578973041827514, 3.370795655984536, -0.136512640817304, 1.335767334904634, 2.5201891187499417]

>  <energy>  (18) 
-142.51860839399325

>  <inter_energy>  (18) 
-140.27925488546762

>  <intra_energy>  (18) 
0.0

>  <rmsd>  (18) 
11.1635

>  <sdf_rank>  (18) 
0

$$$$

     RDKit          3D

 18 17  0  0  0  0  0  0  0  0999 V2000
  -24.3755  -10.0252  -32.3789 N   0  0  0  0  0  0  0  0  0  0  0  0
  -24.0845  -10.8740  -31.2219 C   0  0  1  0  0  0  0  0  0  0  0  0
  -23.8812  -10.0216  -29.9849 C   0  0  0  0  0  0  0  0  0  0  0  0
  -24.8152   -9.2750  -29.6336 O   0  0  0  0  0  0  0  0  0  0  0  0
  -25.2663  -11.8154  -30.9908 C   0  0  0  0  0  0  0  0  0  0  0  0
  -25.5216  -12.7116  -32.1870 C   0  0  0  0  0  0  0  0  0  0  0  0
  -25.1012  -14.1574  -31.8889 C   0  0  0  0  0  0  0  0  0  0  0  0
  -25.7453  -15.0997  -32.4481 O   0  0  0  0  0  0  0  0  0  0  0  0
  -24.1495  -14.3501  -31.0873 O   0  0  0  0  0  0  0  0  0  0  0  0
  -22.8178  -10.0820  -29.3296 O   0  0  0  0  0  0  0  0  0  0  0  0
  -24.6927   -9.1003  -32.0550 H   0  0  0  0  0  0  0  0  0  0  0  0
  -23.5238   -9.9163  -32.9477 H   0  0  0  0  0  0  0  0  0  0  0  0
  -25.1148  -10.4619  -32.9477 H   0  0  0  0  0  0  0  0  0  0  0  0
  -23.1675  -11.4498  -31.4155 H   0  0  0  0  0  0  0  0  0  0  0  0
  -25.0525  -12.4451  -30.1146 H   0  0  0  0  0  0  0  0  0  0  0  0
  -26.1639  -11.2002  -30.8297 H   0  0  0  0  0  0  0  0  0  0  0  0
  -26.5944  -12.6914  -32.4294 H   0  0  0  0  0  0  0  0  0  0  0  0
  -24.9283  -12.3414  -33.0361 H   0  0  0  0  0  0  0  0  0  0  0  0
  2  1  1  0
  2  3  1  0
  2  5  1  0
  3  4  2  0
  3 10  1  0
  5  6  1  0
  6  7  1  0
  7  8  2  0
  7  9  1  0
  1 11  1  0
  1 12  1  0
  1 13  1  0
  2 14  1  6
  5 15  1  0
  5 16  1  0
  6 17  1  0
  6 18  1  0
M  CHG  3   1   1   9  -1  10  -1
M  END
>  <filename_input>  (19) 
7UJ5_DGL_docked.sdf

>  <pdb_id>  (19) 
7UJ5_DGL

>  <pose_rank>  (19) 
18

>  <num_atoms_heavy>  (19) 
10

>  <num_torsions>  (19) 
4

>  <pose>  (19) 
[-24.375517377459058, -10.025174371976352, -32.37886514045262, 3.303122589241327, -1.4951476428523371, 2.166407490177677, 0.7240767851860478, -0.2516762680313307, 0.9508906261422396, 1.3765939309116286]

>  <energy>  (19) 
-128.43871157072982

>  <inter_energy>  (19) 
-117.18864100401069

>  <intra_energy>  (19) 
0.43687905181787773

>  <rmsd>  (19) 
11.3336

>  <sdf_rank>  (19) 
0

$$$$

     RDKit          3D

 18 17  0  0  0  0  0  0  0  0999 V2000
  -14.4522  -12.0141  -44.3169 N   0  0  0  0  0  0  0  0  0  0  0  0
  -15.0656  -11.9646  -45.6455 C   0  0  1  0  0  0  0  0  0  0  0  0
  -14.6820  -10.6793  -46.3518 C   0  0  0  0  0  0  0  0  0  0  0  0
  -15.4488  -10.2508  -47.2359 O   0  0  0  0  0  0  0  0  0  0  0  0
  -14.5643  -13.1535  -46.4649 C   0  0  0  0  0  0  0  0  0  0  0  0
  -15.3456  -14.4186  -46.1679 C   0  0  0  0  0  0  0  0  0  0  0  0
  -14.4050  -15.6227  -46.0220 C   0  0  0  0  0  0  0  0  0  0  0  0
  -14.4133  -16.5078  -46.9341 O   0  0  0  0  0  0  0  0  0  0  0  0
  -13.6797  -15.6938  -44.9951 O   0  0  0  0  0  0  0  0  0  0  0  0
  -13.6398  -10.0614  -46.0421 O   0  0  0  0  0  0  0  0  0  0  0  0
  -15.1867  -11.9548  -43.5972 H   0  0  0  0  0  0  0  0  0  0  0  0
  -13.9369  -12.8995  -44.2094 H   0  0  0  0  0  0  0  0  0  0  0  0
  -13.8015  -11.2230  -44.2094 H   0  0  0  0  0  0  0  0  0  0  0  0
  -16.1599  -12.0042  -45.5418 H   0  0  0  0  0  0  0  0  0  0  0  0
  -14.6664  -12.9159  -47.5341 H   0  0  0  0  0  0  0  0  0  0  0  0
  -13.5130  -13.3325  -46.1954 H   0  0  0  0  0  0  0  0  0  0  0  0
  -15.9061  -14.2840  -45.2310 H   0  0  0  0  0  0  0  0  0  0  0  0
  -16.0343  -14.6104  -47.0040 H   0  0  0  0  0  0  0  0  0  0  0  0
  2  1  1  0
  2  3  1  0
  2  5  1  0
  3  4  2  0
  3 10  1  0
  5  6  1  0
  6  7  1  0
  7  8  2  0
  7  9  1  0
  1 11  1  0
  1 12  1  0
  1 13  1  0
  2 14  1  1
  5 15  1  0
  5 16  1  0
  6 17  1  0
  6 18  1  0
M  CHG  3   1   1   9  -1  10  -1
M  END
>  <filename_input>  (20) 
7UJ5_DGL_docked.sdf

>  <pdb_id>  (20) 
7UJ5_DGL

>  <pose_rank>  (20) 
19

>  <num_atoms_heavy>  (20) 
10

>  <num_torsions>  (20) 
4

>  <pose>  (20) 
[-14.452184264530777, -12.014122091543998, -44.31688041837564, -0.9908400184630739, 1.3799340338979598, 2.655988993036376, -2.9998036924021827, 0.1403197167123824, 2.974621528567273, -3.12616962619994]

>  <energy>  (20) 
-78.62131011967212

>  <inter_energy>  (20) 
-73.35964736511815

>  <intra_energy>  (20) 
0.0

>  <rmsd>  (20) 
12.437

>  <sdf_rank>  (20) 
0

$$$$

     RDKit          3D

 18 17  0  0  0  0  0  0  0  0999 V2000
  -14.8142  -18.2605  -46.3260 N   0  0  0  0  0  0  0  0  0  0  0  0
  -14.6653  -16.8543  -46.7059 C   0  0  1  0  0  0  0  0  0  0  0  0
  -14.0824  -16.7477  -48.1012 C   0  0  0  0  0  0  0  0  0  0  0  0
  -14.8084  -17.0722  -49.0608 O   0  0  0  0  0  0  0  0  0  0  0  0
  -16.0417  -16.1900  -46.6877 C   0  0  0  0  0  0  0  0  0  0  0  0
  -15.9493  -14.6970  -46.4391 C   0  0  0  0  0  0  0  0  0  0  0  0
  -15.1118  -14.4002  -45.1875 C   0  0  0  0  0  0  0  0  0  0  0  0
  -15.5023  -14.8742  -44.0748 O   0  0  0  0  0  0  0  0  0  0  0  0
  -14.0845  -13.6827  -45.3119 O   0  0  0  0  0  0  0  0  0  0  0  0
  -12.9178  -16.3293  -48.2816 O   0  0  0  0  0  0  0  0  0  0  0  0
  -14.8226  -18.3397  -45.2991 H   0  0  0  0  0  0  0  0  0  0  0  0
  -15.6987  -18.6270  -46.7058 H   0  0  0  0  0  0  0  0  0  0  0  0
  -14.0260  -18.8040  -46.7058 H   0  0  0  0  0  0  0  0  0  0  0  0
  -13.9893  -16.3559  -45.9955 H   0  0  0  0  0  0  0  0  0  0  0  0
  -16.5302  -16.3586  -47.6588 H   0  0  0  0  0  0  0  0  0  0  0  0
  -16.6230  -16.6355  -45.8669 H   0  0  0  0  0  0  0  0  0  0  0  0
  -15.4793  -14.2156  -47.3093 H   0  0  0  0  0  0  0  0  0  0  0  0
  -16.9646  -14.3035  -46.2835 H   0  0  0  0  0  0  0  0  0  0  0  0
  2  1  1  0
  2  3  1  0
  2  5  1  0
  3  4  2  0
  3 10  1  0
  5  6  1  0
  6  7  1  0
  7  8  2  0
  7  9  1  0
  1 11  1  0
  1 12  1  0
  1 13  1  0
  2 14  1  1
  5 15  1  0
  5 16  1  0
  6 17  1  0
  6 18  1  0
M  CHG  3   1   1   9  -1  10  -1
M  END
>  <filename_input>  (21) 
7UJ5_DGL_docked.sdf

>  <pdb_id>  (21) 
7UJ5_DGL

>  <pose_rank>  (21) 
20

>  <num_atoms_heavy>  (21) 
10

>  <num_torsions>  (21) 
4

>  <pose>  (21) 
[-14.814171374021718, -18.260504108212583, -46.326013736521666, -2.8333552900358905, -1.5039089128270913, -2.6143325066745264, 0.9430775959110741, 1.3832763973362954, -1.8389939806125968, -2.2615438736133022]

>  <energy>  (21) 
-65.85683446870082

>  <inter_energy>  (21) 
-65.05144724441536

>  <intra_energy>  (21) 
1.455472185031697

>  <rmsd>  (21) 
11.416

>  <sdf_rank>  (21) 
0

$$$$

     RDKit          3D

 18 17  0  0  0  0  0  0  0  0999 V2000
  -17.0716  -26.4740  -46.3848 N   0  0  0  0  0  0  0  0  0  0  0  0
  -17.8130  -27.5237  -45.6833 C   0  0  1  0  0  0  0  0  0  0  0  0
  -17.7638  -27.2887  -44.1865 C   0  0  0  0  0  0  0  0  0  0  0  0
  -18.3737  -28.0899  -43.4521 O   0  0  0  0  0  0  0  0  0  0  0  0
  -19.2694  -27.4925  -46.1460 C   0  0  0  0  0  0  0  0  0  0  0  0
  -19.8925  -26.1213  -45.9707 C   0  0  0  0  0  0  0  0  0  0  0  0
  -20.9318  -25.8468  -47.0664 C   0  0  0  0  0  0  0  0  0  0  0  0
  -20.7094  -26.2968  -48.2341 O   0  0  0  0  0  0  0  0  0  0  0  0
  -21.9508  -25.1701  -46.7679 O   0  0  0  0  0  0  0  0  0  0  0  0
  -17.1159  -26.3330  -43.7063 O   0  0  0  0  0  0  0  0  0  0  0  0
  -16.6293  -25.8478  -45.6969 H   0  0  0  0  0  0  0  0  0  0  0  0
  -16.3450  -26.9030  -46.9755 H   0  0  0  0  0  0  0  0  0  0  0  0
  -17.7189  -25.9327  -46.9755 H   0  0  0  0  0  0  0  0  0  0  0  0
  -17.3598  -28.5005  -45.9082 H   0  0  0  0  0  0  0  0  0  0  0  0
  -19.3097  -27.7674  -47.2104 H   0  0  0  0  0  0  0  0  0  0  0  0
  -19.8370  -28.2047  -45.5291 H   0  0  0  0  0  0  0  0  0  0  0  0
  -20.3840  -26.0722  -44.9879 H   0  0  0  0  0  0  0  0  0  0  0  0
  -19.0986  -25.3632  -46.0420 H   0  0  0  0  0  0  0  0  0  0  0  0
  2  1  1  0
  2  3  1  0
  2  5  1  0
  3  4  2  0
  3 10  1  0
  5  6  1  0
  6  7  1  0
  7  8  2  0
  7  9  1  0
  1 11  1  0
  1 12  1  0
  1 13  1  0
  2 14  1  1
  5 15  1  0
  5 16  1  0
  6 17  1  0
  6 18  1  0
M  CHG  3   1   1   9  -1  10  -1
M  END
>  <filename_input>  (22) 
7UJ5_DGL_docked.sdf

>  <pdb_id>  (22) 
7UJ5_DGL

>  <pose_rank>  (22) 
21

>  <num_atoms_heavy>  (22) 
10

>  <num_torsions>  (22) 
4

>  <pose>  (22) 
[-17.071602189931504, -26.473976790217304, -46.38478522337536, -0.8334801574687857, 1.1541696141346411, -1.5305091011137177, 2.823203616989759, 4.023603067309485, 1.6465173830496922, -1.8385321084955049]

>  <energy>  (22) 
-124.87250472616142

>  <inter_energy>  (22) 
-111.44098155295829

>  <intra_energy>  (22) 
0.11452331872675255

>  <rmsd>  (22) 
11.6335

>  <sdf_rank>  (22) 
0

$$$$

     RDKit          3D

 18 17  0  0  0  0  0  0  0  0999 V2000
  -13.6483  -13.4720  -45.1828 N   0  0  0  0  0  0  0  0  0  0  0  0
  -14.4591  -13.1604  -44.0042 C   0  0  1  0  0  0  0  0  0  0  0  0
  -13.5856  -12.5936  -42.9026 C   0  0  0  0  0  0  0  0  0  0  0  0
  -13.0684  -13.3951  -42.1004 O   0  0  0  0  0  0  0  0  0  0  0  0
  -15.5123  -12.1223  -44.3903 C   0  0  0  0  0  0  0  0  0  0  0  0
  -15.5305  -11.8589  -45.8835 C   0  0  0  0  0  0  0  0  0  0  0  0
  -16.9575  -11.5762  -46.3733 C   0  0  0  0  0  0  0  0  0  0  0  0
  -17.3533  -10.3690  -46.4117 O   0  0  0  0  0  0  0  0  0  0  0  0
  -17.6830  -12.5531  -46.6970 O   0  0  0  0  0  0  0  0  0  0  0  0
  -13.3769  -11.3636  -42.8156 O   0  0  0  0  0  0  0  0  0  0  0  0
  -12.7284  -13.8256  -44.8831 H   0  0  0  0  0  0  0  0  0  0  0  0
  -14.1247  -14.1899  -45.7473 H   0  0  0  0  0  0  0  0  0  0  0  0
  -13.5213  -12.6199  -45.7473 H   0  0  0  0  0  0  0  0  0  0  0  0
  -14.9417  -14.0802  -43.6420 H   0  0  0  0  0  0  0  0  0  0  0  0
  -16.5025  -12.4896  -44.0825 H   0  0  0  0  0  0  0  0  0  0  0  0
  -15.2618  -11.1793  -43.8823 H   0  0  0  0  0  0  0  0  0  0  0  0
  -14.8954  -10.9881  -46.1032 H   0  0  0  0  0  0  0  0  0  0  0  0
  -15.1518  -12.7519  -46.4021 H   0  0  0  0  0  0  0  0  0  0  0  0
  2  1  1  0
  2  3  1  0
  2  5  1  0
  3  4  2  0
  3 10  1  0
  5  6  1  0
  6  7  1  0
  7  8  2  0
  7  9  1  0
  1 11  1  0
  1 12  1  0
  1 13  1  0
  2 14  1  1
  5 15  1  0
  5 16  1  0
  6 17  1  0
  6 18  1  0
M  CHG  3   1   1   9  -1  10  -1
M  END
>  <filename_input>  (23) 
7UJ5_DGL_docked.sdf

>  <pdb_id>  (23) 
7UJ5_DGL

>  <pose_rank>  (23) 
22

>  <num_atoms_heavy>  (23) 
10

>  <num_torsions>  (23) 
4

>  <pose>  (23) 
[-13.648250153456612, -13.47204159072181, -45.182841877968805, -0.9648255463162975, 1.442853843476946, -2.620837291249835, -1.8548081143585313, -1.174808507356025, 1.6075840597390072, 0.39084772999674744]

>  <energy>  (23) 
-122.57866956266751

>  <inter_energy>  (23) 
-107.47732172448484

>  <intra_energy>  (23) 
0.0

>  <rmsd>  (23) 
11.6146

>  <sdf_rank>  (23) 
0

$$$$

     RDKit          3D

 18 17  0  0  0  0  0  0  0  0999 V2000
  -29.4911  -25.9105  -33.0518 N   0  0  0  0  0  0  0  0  0  0  0  0
  -28.4318  -25.4542  -32.1499 C   0  0  1  0  0  0  0  0  0  0  0  0
  -29.0056  -25.1480  -30.7807 C   0  0  0  0  0  0  0  0  0  0  0  0
  -28.8539  -23.9955  -30.3313 O   0  0  0  0  0  0  0  0  0  0  0  0
  -27.3861  -26.5610  -32.0170 C   0  0  0  0  0  0  0  0  0  0  0  0
  -26.4105  -26.2890  -30.8886 C   0  0  0  0  0  0  0  0  0  0  0  0
  -25.0249  -25.9223  -31.4378 C   0  0  0  0  0  0  0  0  0  0  0  0
  -24.1647  -26.8486  -31.5701 O   0  0  0  0  0  0  0  0  0  0  0  0
  -24.7916  -24.7164  -31.7148 O   0  0  0  0  0  0  0  0  0  0  0  0
  -29.6270  -26.0195  -30.1339 O   0  0  0  0  0  0  0  0  0  0  0  0
  -30.2889  -26.2542  -32.4983 H   0  0  0  0  0  0  0  0  0  0  0  0
  -29.7976  -25.1268  -33.6458 H   0  0  0  0  0  0  0  0  0  0  0  0
  -29.1321  -26.6716  -33.6458 H   0  0  0  0  0  0  0  0  0  0  0  0
  -27.9744  -24.5415  -32.5596 H   0  0  0  0  0  0  0  0  0  0  0  0
  -27.9002  -27.5133  -31.8201 H   0  0  0  0  0  0  0  0  0  0  0  0
  -26.8154  -26.6035  -32.9564 H   0  0  0  0  0  0  0  0  0  0  0  0
  -26.7884  -25.4550  -30.2791 H   0  0  0  0  0  0  0  0  0  0  0  0
  -26.3166  -27.1995  -30.2785 H   0  0  0  0  0  0  0  0  0  0  0  0
  2  1  1  0
  2  3  1  0
  2  5  1  0
  3  4  2  0
  3 10  1  0
  5  6  1  0
  6  7  1  0
  7  8  2  0
  7  9  1  0
  1 11  1  0
  1 12  1  0
  1 13  1  0
  2 14  1  6
  5 15  1  0
  5 16  1  0
  6 17  1  0
  6 18  1  0
M  CHG  3   1   1   9  -1  10  -1
M  END
>  <filename_input>  (24) 
7UJ5_DGL_docked.sdf

>  <pdb_id>  (24) 
7UJ5_DGL

>  <pose_rank>  (24) 
23

>  <num_atoms_heavy>  (24) 
10

>  <num_torsions>  (24) 
4

>  <pose>  (24) 
[-29.491115807150507, -25.910517080943947, -33.051815334020795, 4.3082687846720935, 1.208559719696569, -0.9889324146961853, -2.421300338545285, -4.2385933200045915, 3.4544109903115148, -2.856369816477693]

>  <energy>  (24) 
-119.11587964563846

>  <inter_energy>  (24) 
-110.51276342932432

>  <intra_energy>  (24) 
3.6730076179181603

>  <rmsd>  (24) 
12.0329

>  <sdf_rank>  (24) 
0

$$$$

     RDKit          3D

 18 17  0  0  0  0  0  0  0  0999 V2000
  -17.5958  -25.8082  -46.0866 N   0  0  0  0  0  0  0  0  0  0  0  0
  -16.6351  -26.9127  -46.1150 C   0  0  1  0  0  0  0  0  0  0  0  0
  -15.4229  -26.5313  -46.9415 C   0  0  0  0  0  0  0  0  0  0  0  0
  -14.3857  -27.2074  -46.7984 O   0  0  0  0  0  0  0  0  0  0  0  0
  -16.1890  -27.2155  -44.6848 C   0  0  0  0  0  0  0  0  0  0  0  0
  -15.8852  -25.9516  -43.9042 C   0  0  0  0  0  0  0  0  0  0  0  0
  -14.9961  -26.2565  -42.6908 C   0  0  0  0  0  0  0  0  0  0  0  0
  -15.5526  -26.6641  -41.6232 O   0  0  0  0  0  0  0  0  0  0  0  0
  -13.7552  -26.0707  -42.7970 O   0  0  0  0  0  0  0  0  0  0  0  0
  -15.4708  -25.5813  -47.7534 O   0  0  0  0  0  0  0  0  0  0  0  0
  -17.8087  -25.5634  -45.1090 H   0  0  0  0  0  0  0  0  0  0  0  0
  -17.1927  -24.9901  -46.5654 H   0  0  0  0  0  0  0  0  0  0  0  0
  -18.4618  -26.0940  -46.5654 H   0  0  0  0  0  0  0  0  0  0  0  0
  -17.1115  -27.7968  -46.5636 H   0  0  0  0  0  0  0  0  0  0  0  0
  -16.9916  -27.7655  -44.1715 H   0  0  0  0  0  0  0  0  0  0  0  0
  -15.2667  -27.8128  -44.7360 H   0  0  0  0  0  0  0  0  0  0  0  0
  -15.3653  -25.2388  -44.5613 H   0  0  0  0  0  0  0  0  0  0  0  0
  -16.8332  -25.5237  -43.5461 H   0  0  0  0  0  0  0  0  0  0  0  0
  2  1  1  0
  2  3  1  0
  2  5  1  0
  3  4  2  0
  3 10  1  0
  5  6  1  0
  6  7  1  0
  7  8  2  0
  7  9  1  0
  1 11  1  0
  1 12  1  0
  1 13  1  0
  2 14  1  6
  5 15  1  0
  5 16  1  0
  6 17  1  0
  6 18  1  0
M  CHG  3   1   1   9  -1  10  -1
M  END
>  <filename_input>  (25) 
7UJ5_DGL_docked.sdf

>  <pdb_id>  (25) 
7UJ5_DGL

>  <pose_rank>  (25) 
24

>  <num_atoms_heavy>  (25) 
10

>  <num_torsions>  (25) 
4

>  <pose>  (25) 
[-17.59579535312608, -25.80817083750766, -46.08657230340609, 2.1322639026507044, -1.9783395700708253, -0.2594274753860231, 2.541404500985555, -2.0758823167803118, 2.5594343885088495, -2.6738007116076328]

>  <energy>  (25) 
-72.59307148615207

>  <inter_energy>  (25) 
-70.2160378781347

>  <intra_energy>  (25) 
0.34260924885216326

>  <rmsd>  (25) 
12.6095

>  <sdf_rank>  (25) 
0

$$$$

     RDKit          3D

 18 17  0  0  0  0  0  0  0  0999 V2000
  -24.5910  -17.6070  -38.8060 N   0  0  0  0  0  0  0  0  0  0  0  0
  -23.4160  -18.4590  -38.9990 C   0  0  1  0  0  0  0  0  0  0  0  0
  -23.7190  -19.8770  -38.5570 C   0  0  0  0  0  0  0  0  0  0  0  0
  -24.9150  -20.2010  -38.4230 O   0  0  0  0  0  0  0  0  0  0  0  0
  -23.0500  -18.4660  -40.4830 C   0  0  0  0  0  0  0  0  0  0  0  0
  -22.3900  -17.1700  -40.9120 C   0  0  0  0  0  0  0  0  0  0  0  0
  -21.1920  -16.8400  -40.0110 C   0  0  0  0  0  0  0  0  0  0  0  0
  -20.1550  -17.5700  -40.0960 O   0  0  0  0  0  0  0  0  0  0  0  0
  -21.2940  -15.8730  -39.2110 O   0  0  0  0  0  0  0  0  0  0  0  0
  -22.7980  -20.6980  -38.3530 O   0  0  0  0  0  0  0  0  0  0  0  0
  -24.7629  -17.4824  -37.7981 H   0  0  0  0  0  0  0  0  0  0  0  0
  -24.4247  -16.6888  -39.2421 H   0  0  0  0  0  0  0  0  0  0  0  0
  -25.4120  -18.0505  -39.2421 H   0  0  0  0  0  0  0  0  0  0  0  0
  -22.5810  -18.0670  -38.3998 H   0  0  0  0  0  0  0  0  0  0  0  0
  -22.3560  -19.2979  -40.6736 H   0  0  0  0  0  0  0  0  0  0  0  0
  -23.9786  -18.5817  -41.0612 H   0  0  0  0  0  0  0  0  0  0  0  0
  -22.0424  -17.2697  -41.9509 H   0  0  0  0  0  0  0  0  0  0  0  0
  -23.1262  -16.3569  -40.8291 H   0  0  0  0  0  0  0  0  0  0  0  0
  2  1  1  0
  2  3  1  0
  2  5  1  0
  3  4  2  0
  3 10  1  0
  5  6  1  0
  6  7  1  0
  7  8  2  0
  7  9  1  0
  1 11  1  0
  1 12  1  0
  1 13  1  0
  2 14  1  1
  5 15  1  0
  5 16  1  0
  6 17  1  0
  6 18  1  0
M  CHG  3   1   1   9  -1  10  -1
M  END
>  <filename_input>  (26) 
7UJ5_DGL_docked.sdf

>  <pdb_id>  (26) 
7UJ5_DGL

>  <pose_rank>  (26) 
25

>  <num_atoms_heavy>  (26) 
10

>  <num_torsions>  (26) 
4

>  <pose>  (26) 
[-24.591, -17.607, -38.806, 1e-06, 1e-06, 1e-06, 0.0, 0.0, 0.0, 0.0]

>  <energy>  (26) 
-569.2273390729154

>  <inter_energy>  (26) 
-568.7965406087891

>  <intra_energy>  (26) 
1.9164237677322244

>  <rmsd>  (26) 
0.0

>  <sdf_rank>  (26) 
0

$$$$
