
     RDKit          3D

 66 70  0  0  0  0  0  0  0  0999 V2000
   -1.9227  -13.3086  -67.2551 C   0  0  0  0  0  0  0  0  0  0  0  0
   -1.0304  -13.2722  -68.4508 C   0  0  1  0  0  0  0  0  0  0  0  0
    0.0096  -14.4251  -68.3579 C   0  0  0  0  0  0  0  0  0  0  0  0
   -1.9041  -13.4219  -69.6122 C   0  0  0  0  0  0  0  0  0  0  0  0
   -3.3073  -13.0473  -69.0934 C   0  0  0  0  0  0  0  0  0  0  0  0
   -3.0359  -12.5278  -67.7499 N   0  0  1  0  0  0  0  0  0  0  0  0
   -4.1350  -12.6239  -66.8892 C   0  0  0  0  0  0  0  0  0  0  0  0
   -3.6502  -12.6909  -65.4296 C   0  0  0  0  0  0  0  0  0  0  0  0
   -3.8884  -14.0210  -64.9696 O   0  0  0  0  0  0  0  0  0  0  0  0
   -3.3020  -14.4056  -63.7246 C   0  0  0  0  0  0  0  0  0  0  0  0
   -2.2707  -15.5271  -63.6673 C   0  0  0  0  0  0  0  0  0  0  0  0
   -1.7017  -15.9044  -62.4674 C   0  0  0  0  0  0  0  0  0  0  0  0
   -3.6981  -13.7634  -62.5877 C   0  0  0  0  0  0  0  0  0  0  0  0
   -3.0681  -14.1963  -61.2655 C   0  0  0  0  0  0  0  0  0  0  0  0
   -2.1416  -15.2090  -61.1948 C   0  0  0  0  0  0  0  0  0  0  0  0
   -1.5498  -15.5693  -59.8413 C   0  0  2  0  0  0  0  0  0  0  0  0
   -0.1281  -15.5561  -60.0171 C   0  0  0  0  0  0  0  0  0  0  0  0
    0.4703  -14.1897  -60.3099 C   0  0  0  0  0  0  0  0  0  0  0  0
    1.8392  -14.1402  -60.4915 C   0  0  0  0  0  0  0  0  0  0  0  0
    2.7065  -15.3983  -60.4082 C   0  0  0  0  0  0  0  0  0  0  0  0
    4.0795  -15.3015  -60.6345 O   0  0  0  0  0  0  0  0  0  0  0  0
    2.1727  -16.6348  -60.1185 C   0  0  0  0  0  0  0  0  0  0  0  0
    0.6674  -16.6277  -59.9581 C   0  0  0  0  0  0  0  0  0  0  0  0
    0.3049  -18.1119  -59.6796 C   0  0  0  0  0  0  0  0  0  0  0  0
   -1.2068  -18.1317  -60.0296 C   0  0  0  0  0  0  0  0  0  0  0  0
   -1.9404  -16.9355  -59.3776 C   0  0  2  0  0  0  0  0  0  0  0  0
   -3.4650  -17.1076  -59.5067 C   0  0  0  0  0  0  0  0  0  0  0  0
   -4.0092  -17.9155  -60.4864 C   0  0  0  0  0  0  0  0  0  0  0  0
   -5.3896  -18.0600  -60.5869 C   0  0  0  0  0  0  0  0  0  0  0  0
   -6.2135  -17.3893  -59.6863 C   0  0  0  0  0  0  0  0  0  0  0  0
   -5.6708  -16.5874  -58.6979 C   0  0  0  0  0  0  0  0  0  0  0  0
   -4.2903  -16.4418  -58.6008 C   0  0  0  0  0  0  0  0  0  0  0  0
   -2.2247  -14.3356  -67.0019 H   0  0  0  0  0  0  0  0  0  0  0  0
   -1.4690  -12.9326  -66.3262 H   0  0  0  0  0  0  0  0  0  0  0  0
   -0.4606  -12.3340  -68.5222 H   0  0  0  0  0  0  0  0  0  0  0  0
    0.2132  -14.6509  -67.3007 H   0  0  0  0  0  0  0  0  0  0  0  0
   -0.3914  -15.3215  -68.8536 H   0  0  0  0  0  0  0  0  0  0  0  0
    0.9424  -14.1183  -68.8536 H   0  0  0  0  0  0  0  0  0  0  0  0
   -1.5951  -12.7433  -70.4209 H   0  0  0  0  0  0  0  0  0  0  0  0
   -1.8715  -14.4386  -70.0307 H   0  0  0  0  0  0  0  0  0  0  0  0
   -3.7709  -12.2780  -69.7283 H   0  0  0  0  0  0  0  0  0  0  0  0
   -4.0101  -13.8935  -69.0964 H   0  0  0  0  0  0  0  0  0  0  0  0
   -2.8253  -11.5204  -67.7924 H   0  0  0  0  0  0  0  0  0  0  0  0
   -4.7793  -11.7420  -67.0198 H   0  0  0  0  0  0  0  0  0  0  0  0
   -4.7026  -13.5360  -67.1255 H   0  0  0  0  0  0  0  0  0  0  0  0
   -2.5759  -12.4604  -65.3778 H   0  0  0  0  0  0  0  0  0  0  0  0
   -4.1838  -11.9590  -64.8055 H   0  0  0  0  0  0  0  0  0  0  0  0
   -1.9763  -16.0420  -64.5936 H   0  0  0  0  0  0  0  0  0  0  0  0
   -0.9405  -16.6979  -62.4356 H   0  0  0  0  0  0  0  0  0  0  0  0
   -4.4476  -12.9591  -62.6224 H   0  0  0  0  0  0  0  0  0  0  0  0
   -3.3653  -13.6811  -60.3402 H   0  0  0  0  0  0  0  0  0  0  0  0
   -1.9156  -14.8547  -59.0894 H   0  0  0  0  0  0  0  0  0  0  0  0
   -0.1545  -13.2866  -60.3739 H   0  0  0  0  0  0  0  0  0  0  0  0
    2.3176  -13.1722  -60.7012 H   0  0  0  0  0  0  0  0  0  0  0  0
    4.6480  -16.1104  -60.5826 H   0  0  0  0  0  0  0  0  0  0  0  0
    2.7839  -17.5434  -60.0134 H   0  0  0  0  0  0  0  0  0  0  0  0
    0.8762  -18.7934  -60.3269 H   0  0  0  0  0  0  0  0  0  0  0  0
    0.5328  -18.4449  -58.6563 H   0  0  0  0  0  0  0  0  0  0  0  0
   -1.3244  -18.0742  -61.1218 H   0  0  0  0  0  0  0  0  0  0  0  0
   -1.6445  -19.0645  -59.6446 H   0  0  0  0  0  0  0  0  0  0  0  0
   -1.6126  -16.9731  -58.3282 H   0  0  0  0  0  0  0  0  0  0  0  0
   -3.3496  -18.4461  -61.1888 H   0  0  0  0  0  0  0  0  0  0  0  0
   -5.8257  -18.6975  -61.3700 H   0  0  0  0  0  0  0  0  0  0  0  0
   -7.3056  -17.4982  -59.7614 H   0  0  0  0  0  0  0  0  0  0  0  0
   -6.3303  -16.0652  -57.9892 H   0  0  0  0  0  0  0  0  0  0  0  0
   -3.8535  -15.8067  -57.8160 H   0  0  0  0  0  0  0  0  0  0  0  0
  1  2  1  0
  1  6  1  0
  2  3  1  0
  2  4  1  0
  4  5  1  0
  5  6  1  0
  6  7  1  0
  7  8  1  0
  8  9  1  0
  9 10  1  0
 10 11  2  0
 10 13  1  0
 11 12  1  0
 12 15  2  0
 13 14  2  0
 14 15  1  0
 16 15  1  0
 16 17  1  0
 16 26  1  0
 17 18  2  0
 17 23  1  0
 18 19  1  0
 19 20  2  0
 20 21  1  0
 20 22  1  0
 22 23  2  0
 23 24  1  0
 24 25  1  0
 25 26  1  0
 26 27  1  0
 27 28  2  0
 27 32  1  0
 28 29  1  0
 29 30  2  0
 30 31  1  0
 31 32  2  0
  1 33  1  0
  1 34  1  0
  2 35  1  6
  3 36  1  0
  3 37  1  0
  3 38  1  0
  4 39  1  0
  4 40  1  0
  5 41  1  0
  5 42  1  0
  6 43  1  6
  7 44  1  0
  7 45  1  0
  8 46  1  0
  8 47  1  0
 11 48  1  0
 12 49  1  0
 13 50  1  0
 14 51  1  0
 16 52  1  1
 18 53  1  0
 19 54  1  0
 21 55  1  0
 22 56  1  0
 24 57  1  0
 24 58  1  0
 25 59  1  0
 25 60  1  0
 26 61  1  1
 28 62  1  0
 29 63  1  0
 30 64  1  0
 31 65  1  0
 32 66  1  0
M  CHG  1   6   1
M  END
>  <filename_input>  (1) 
7UJF_R3V_docked.sdf

>  <pdb_id>  (1) 
7UJF_R3V

>  <pose_rank>  (1) 
0

>  <num_atoms_heavy>  (1) 
32

>  <num_torsions>  (1) 
6

>  <pose>  (1) 
[-1.5498010362275465, -15.569326804252444, -59.841328777338504, -1.7901607989493222, 5.866545820274086, 1.2656292586846067, 0.07286413277379962, 0.28780902589905333, -0.07026680283241775, -0.2363525090360225, -0.6341144472193295, 0.25236900027950726]

>  <energy>  (1) 
-2283.851877225023

>  <inter_energy>  (1) 
-2287.6839202649703

>  <intra_energy>  (1) 
32.32545085389628

>  <rmsd>  (1) 
0.592191

>  <sdf_rank>  (1) 
0

$$$$

     RDKit          3D

 66 70  0  0  0  0  0  0  0  0999 V2000
   -5.5419  -11.3910  -65.3686 C   0  0  0  0  0  0  0  0  0  0  0  0
   -6.6713  -10.8131  -66.1546 C   0  0  1  0  0  0  0  0  0  0  0  0
   -7.5327   -9.9027  -65.2334 C   0  0  0  0  0  0  0  0  0  0  0  0
   -6.0601  -10.0578  -67.2457 C   0  0  0  0  0  0  0  0  0  0  0  0
   -4.6277  -10.6193  -67.3519 C   0  0  0  0  0  0  0  0  0  0  0  0
   -4.6560  -11.7722  -66.4473 N   0  0  1  0  0  0  0  0  0  0  0  0
   -3.3923  -12.1191  -65.9565 C   0  0  0  0  0  0  0  0  0  0  0  0
   -3.2612  -13.6515  -65.8898 C   0  0  0  0  0  0  0  0  0  0  0  0
   -4.0970  -14.0975  -64.8221 O   0  0  0  0  0  0  0  0  0  0  0  0
   -3.4633  -14.4675  -63.5960 C   0  0  0  0  0  0  0  0  0  0  0  0
   -2.3739  -15.5340  -63.5777 C   0  0  0  0  0  0  0  0  0  0  0  0
   -1.7590  -15.8972  -62.3963 C   0  0  0  0  0  0  0  0  0  0  0  0
   -3.8664  -13.8624  -62.4414 C   0  0  0  0  0  0  0  0  0  0  0  0
   -3.1849  -14.2794  -61.1398 C   0  0  0  0  0  0  0  0  0  0  0  0
   -2.2056  -15.2430  -61.1043 C   0  0  0  0  0  0  0  0  0  0  0  0
   -1.5653  -15.5901  -59.7695 C   0  0  2  0  0  0  0  0  0  0  0  0
   -0.1503  -15.5501  -59.9894 C   0  0  0  0  0  0  0  0  0  0  0  0
    0.4127  -14.1731  -60.3019 C   0  0  0  0  0  0  0  0  0  0  0  0
    1.7741  -14.0979  -60.5260 C   0  0  0  0  0  0  0  0  0  0  0  0
    2.6674  -15.3392  -60.4685 C   0  0  0  0  0  0  0  0  0  0  0  0
    4.0306  -15.2167  -60.7375 O   0  0  0  0  0  0  0  0  0  0  0  0
    2.1664  -16.5852  -60.1613 C   0  0  0  0  0  0  0  0  0  0  0  0
    0.6670  -16.6063  -59.9542 C   0  0  0  0  0  0  0  0  0  0  0  0
    0.3415  -18.0967  -59.6632 C   0  0  0  0  0  0  0  0  0  0  0  0
   -1.1797  -18.1457  -59.9661 C   0  0  0  0  0  0  0  0  0  0  0  0
   -1.9153  -16.9627  -59.2926 C   0  0  2  0  0  0  0  0  0  0  0  0
   -3.4395  -17.1638  -59.3742 C   0  0  0  0  0  0  0  0  0  0  0  0
   -3.9962  -18.0102  -60.3137 C   0  0  0  0  0  0  0  0  0  0  0  0
   -5.3760  -18.1804  -60.3715 C   0  0  0  0  0  0  0  0  0  0  0  0
   -6.1867  -17.4964  -59.4688 C   0  0  0  0  0  0  0  0  0  0  0  0
   -5.6312  -16.6559  -58.5204 C   0  0  0  0  0  0  0  0  0  0  0  0
   -4.2513  -16.4846  -58.4660 C   0  0  0  0  0  0  0  0  0  0  0  0
   -5.0808  -10.6436  -64.7062 H   0  0  0  0  0  0  0  0  0  0  0  0
   -5.8213  -12.2080  -64.6872 H   0  0  0  0  0  0  0  0  0  0  0  0
   -7.3429  -11.5859  -66.5568 H   0  0  0  0  0  0  0  0  0  0  0  0
   -7.3136  -10.1342  -64.1806 H   0  0  0  0  0  0  0  0  0  0  0  0
   -7.2944   -8.8477  -65.4340 H   0  0  0  0  0  0  0  0  0  0  0  0
   -8.5992  -10.0822  -65.4340 H   0  0  0  0  0  0  0  0  0  0  0  0
   -6.6105  -10.2173  -68.1846 H   0  0  0  0  0  0  0  0  0  0  0  0
   -6.0707   -8.9736  -67.0600 H   0  0  0  0  0  0  0  0  0  0  0  0
   -4.4009  -10.9310  -68.3822 H   0  0  0  0  0  0  0  0  0  0  0  0
   -3.8535   -9.8829  -67.0905 H   0  0  0  0  0  0  0  0  0  0  0  0
   -4.9804  -12.6116  -66.9484 H   0  0  0  0  0  0  0  0  0  0  0  0
   -2.6175  -11.7151  -66.6248 H   0  0  0  0  0  0  0  0  0  0  0  0
   -3.2669  -11.6997  -64.9474 H   0  0  0  0  0  0  0  0  0  0  0  0
   -3.5897  -14.1001  -66.8389 H   0  0  0  0  0  0  0  0  0  0  0  0
   -2.2158  -13.9483  -65.7192 H   0  0  0  0  0  0  0  0  0  0  0  0
   -2.0742  -16.0203  -64.5177 H   0  0  0  0  0  0  0  0  0  0  0  0
   -0.9569  -16.6500  -62.3928 H   0  0  0  0  0  0  0  0  0  0  0  0
   -4.6575  -13.0981  -62.4479 H   0  0  0  0  0  0  0  0  0  0  0  0
   -3.4876  -13.7930  -60.2008 H   0  0  0  0  0  0  0  0  0  0  0  0
   -1.9211  -14.8813  -59.0072 H   0  0  0  0  0  0  0  0  0  0  0  0
   -0.2308  -13.2821  -60.3472 H   0  0  0  0  0  0  0  0  0  0  0  0
    2.2273  -13.1212  -60.7513 H   0  0  0  0  0  0  0  0  0  0  0  0
    4.6156  -16.0146  -60.7025 H   0  0  0  0  0  0  0  0  0  0  0  0
    2.7977  -17.4818  -60.0744 H   0  0  0  0  0  0  0  0  0  0  0  0
    0.9053  -18.7683  -60.3274 H   0  0  0  0  0  0  0  0  0  0  0  0
    0.6074  -18.4239  -58.6472 H   0  0  0  0  0  0  0  0  0  0  0  0
   -1.3322  -18.0921  -61.0542 H   0  0  0  0  0  0  0  0  0  0  0  0
   -1.5874  -19.0861  -59.5668 H   0  0  0  0  0  0  0  0  0  0  0  0
   -1.5544  -16.9925  -58.2540 H   0  0  0  0  0  0  0  0  0  0  0  0
   -3.3468  -18.5508  -61.0180 H   0  0  0  0  0  0  0  0  0  0  0  0
   -5.8222  -18.8487  -61.1228 H   0  0  0  0  0  0  0  0  0  0  0  0
   -7.2783  -17.6256  -59.5102 H   0  0  0  0  0  0  0  0  0  0  0  0
   -6.2802  -16.1234  -57.8096 H   0  0  0  0  0  0  0  0  0  0  0  0
   -3.8045  -15.8188  -57.7130 H   0  0  0  0  0  0  0  0  0  0  0  0
  1  2  1  0
  1  6  1  0
  2  3  1  0
  2  4  1  0
  4  5  1  0
  5  6  1  0
  6  7  1  0
  7  8  1  0
  8  9  1  0
  9 10  1  0
 10 11  2  0
 10 13  1  0
 11 12  1  0
 12 15  2  0
 13 14  2  0
 14 15  1  0
 16 15  1  0
 16 17  1  0
 16 26  1  0
 17 18  2  0
 17 23  1  0
 18 19  1  0
 19 20  2  0
 20 21  1  0
 20 22  1  0
 22 23  2  0
 23 24  1  0
 24 25  1  0
 25 26  1  0
 26 27  1  0
 27 28  2  0
 27 32  1  0
 28 29  1  0
 29 30  2  0
 30 31  1  0
 31 32  2  0
  1 33  1  0
  1 34  1  0
  2 35  1  6
  3 36  1  0
  3 37  1  0
  3 38  1  0
  4 39  1  0
  4 40  1  0
  5 41  1  0
  5 42  1  0
  6 43  1  6
  7 44  1  0
  7 45  1  0
  8 46  1  0
  8 47  1  0
 11 48  1  0
 12 49  1  0
 13 50  1  0
 14 51  1  0
 16 52  1  1
 18 53  1  0
 19 54  1  0
 21 55  1  0
 22 56  1  0
 24 57  1  0
 24 58  1  0
 25 59  1  0
 25 60  1  0
 26 61  1  1
 28 62  1  0
 29 63  1  0
 30 64  1  0
 31 65  1  0
 32 66  1  0
M  CHG  1   6   1
M  END
>  <filename_input>  (2) 
7UJF_R3V_docked.sdf

>  <pdb_id>  (2) 
7UJF_R3V

>  <pose_rank>  (2) 
1

>  <num_atoms_heavy>  (2) 
32

>  <num_torsions>  (2) 
6

>  <pose>  (2) 
[-1.565281589435487, -15.590059542535284, -59.769517724924256, 1.5232203349750653, 3.862213340463206, 4.742255176823885, -6.248010321147389, -4.9275766386884, 1.4617619033033837, 6.706182280737187, 0.4925902201085594, -6.001521987420342]

>  <energy>  (2) 
-2092.604494850817

>  <inter_energy>  (2) 
-2121.225643878098

>  <intra_energy>  (2) 
32.036596624396715

>  <rmsd>  (2) 
2.22702

>  <sdf_rank>  (2) 
0

$$$$

     RDKit          3D

 66 70  0  0  0  0  0  0  0  0999 V2000
   -5.8646  -17.2852  -68.0033 C   0  0  0  0  0  0  0  0  0  0  0  0
   -6.4368  -18.6439  -67.7710 C   0  0  1  0  0  0  0  0  0  0  0  0
   -6.3496  -19.4752  -69.0828 C   0  0  0  0  0  0  0  0  0  0  0  0
   -5.6436  -19.2387  -66.6979 C   0  0  0  0  0  0  0  0  0  0  0  0
   -4.9626  -18.0394  -66.0078 C   0  0  0  0  0  0  0  0  0  0  0  0
   -5.6096  -16.8843  -66.6365 N   0  0  1  0  0  0  0  0  0  0  0  0
   -4.8285  -15.7240  -66.5940 C   0  0  0  0  0  0  0  0  0  0  0  0
   -5.1711  -14.9105  -65.3328 C   0  0  0  0  0  0  0  0  0  0  0  0
   -3.9901  -14.2021  -64.9575 O   0  0  0  0  0  0  0  0  0  0  0  0
   -3.3759  -14.5507  -63.7153 C   0  0  0  0  0  0  0  0  0  0  0  0
   -2.2969  -15.6263  -63.6592 C   0  0  0  0  0  0  0  0  0  0  0  0
   -1.7008  -15.9689  -62.4621 C   0  0  0  0  0  0  0  0  0  0  0  0
   -3.7885  -13.9167  -62.5797 C   0  0  0  0  0  0  0  0  0  0  0  0
   -3.1280  -14.3111  -61.2604 C   0  0  0  0  0  0  0  0  0  0  0  0
   -2.1582  -15.2825  -61.1907 C   0  0  0  0  0  0  0  0  0  0  0  0
   -1.5387  -15.6058  -59.8403 C   0  0  2  0  0  0  0  0  0  0  0  0
   -0.1205  -15.5816  -60.0418 C   0  0  0  0  0  0  0  0  0  0  0  0
    0.4576  -14.2160  -60.3758 C   0  0  0  0  0  0  0  0  0  0  0  0
    1.8225  -14.1562  -60.5830 C   0  0  0  0  0  0  0  0  0  0  0  0
    2.7049  -15.4029  -60.4870 C   0  0  0  0  0  0  0  0  0  0  0  0
    4.0725  -15.2968  -60.7400 O   0  0  0  0  0  0  0  0  0  0  0  0
    2.1898  -16.6381  -60.1601 C   0  0  0  0  0  0  0  0  0  0  0  0
    0.6876  -16.6431  -59.9730 C   0  0  0  0  0  0  0  0  0  0  0  0
    0.3462  -18.1244  -59.6547 C   0  0  0  0  0  0  0  0  0  0  0  0
   -1.1711  -18.1680  -59.9771 C   0  0  0  0  0  0  0  0  0  0  0  0
   -1.9061  -16.9651  -59.3391 C   0  0  2  0  0  0  0  0  0  0  0  0
   -3.4307  -17.1561  -59.4370 C   0  0  0  0  0  0  0  0  0  0  0  0
   -3.9892  -17.9148  -60.4476 C   0  0  0  0  0  0  0  0  0  0  0  0
   -5.3693  -18.0773  -60.5192 C   0  0  0  0  0  0  0  0  0  0  0  0
   -6.1784  -17.4752  -59.5587 C   0  0  0  0  0  0  0  0  0  0  0  0
   -5.6211  -16.7231  -58.5397 C   0  0  0  0  0  0  0  0  0  0  0  0
   -4.2409  -16.5591  -58.4714 C   0  0  0  0  0  0  0  0  0  0  0  0
   -4.9389  -17.3277  -68.5960 H   0  0  0  0  0  0  0  0  0  0  0  0
   -6.5100  -16.6016  -68.5744 H   0  0  0  0  0  0  0  0  0  0  0  0
   -7.4984  -18.6101  -67.4851 H   0  0  0  0  0  0  0  0  0  0  0  0
   -6.2379  -20.5410  -68.8348 H   0  0  0  0  0  0  0  0  0  0  0  0
   -7.2679  -19.3298  -69.6707 H   0  0  0  0  0  0  0  0  0  0  0  0
   -5.4814  -19.1425  -69.6707 H   0  0  0  0  0  0  0  0  0  0  0  0
   -6.2901  -19.7783  -65.9903 H   0  0  0  0  0  0  0  0  0  0  0  0
   -4.9155  -19.9723  -67.0745 H   0  0  0  0  0  0  0  0  0  0  0  0
   -5.1446  -18.0523  -64.9230 H   0  0  0  0  0  0  0  0  0  0  0  0
   -3.8685  -18.0382  -66.1222 H   0  0  0  0  0  0  0  0  0  0  0  0
   -6.4711  -16.6373  -66.1289 H   0  0  0  0  0  0  0  0  0  0  0  0
   -3.7642  -16.0010  -66.5720 H   0  0  0  0  0  0  0  0  0  0  0  0
   -5.0346  -15.1146  -67.4863 H   0  0  0  0  0  0  0  0  0  0  0  0
   -5.9836  -14.2016  -65.5500 H   0  0  0  0  0  0  0  0  0  0  0  0
   -5.5068  -15.5710  -64.5197 H   0  0  0  0  0  0  0  0  0  0  0  0
   -1.9894  -16.1359  -64.5843 H   0  0  0  0  0  0  0  0  0  0  0  0
   -0.9059  -16.7287  -62.4314 H   0  0  0  0  0  0  0  0  0  0  0  0
   -4.5723  -13.1457  -62.6134 H   0  0  0  0  0  0  0  0  0  0  0  0
   -3.4384  -13.8015  -60.3363 H   0  0  0  0  0  0  0  0  0  0  0  0
   -1.8990  -14.8782  -59.0982 H   0  0  0  0  0  0  0  0  0  0  0  0
   -0.1780  -13.3212  -60.4489 H   0  0  0  0  0  0  0  0  0  0  0  0
    2.2865  -13.1882  -60.8230 H   0  0  0  0  0  0  0  0  0  0  0  0
    4.6506  -16.0983  -60.6801 H   0  0  0  0  0  0  0  0  0  0  0  0
    2.8126  -17.5376  -60.0455 H   0  0  0  0  0  0  0  0  0  0  0  0
    0.9135  -18.8144  -60.2967 H   0  0  0  0  0  0  0  0  0  0  0  0
    0.5958  -18.4317  -58.6284 H   0  0  0  0  0  0  0  0  0  0  0  0
   -1.3085  -18.1366  -61.0680 H   0  0  0  0  0  0  0  0  0  0  0  0
   -1.5917  -19.0964  -59.5634 H   0  0  0  0  0  0  0  0  0  0  0  0
   -1.5594  -16.9755  -58.2952 H   0  0  0  0  0  0  0  0  0  0  0  0
   -3.3411  -18.3916  -61.1976 H   0  0  0  0  0  0  0  0  0  0  0  0
   -5.8169  -18.6755  -61.3265 H   0  0  0  0  0  0  0  0  0  0  0  0
   -7.2702  -17.5986  -59.6106 H   0  0  0  0  0  0  0  0  0  0  0  0
   -6.2688  -16.2549  -57.7839 H   0  0  0  0  0  0  0  0  0  0  0  0
   -3.7926  -15.9636  -57.6625 H   0  0  0  0  0  0  0  0  0  0  0  0
  1  2  1  0
  1  6  1  0
  2  3  1  0
  2  4  1  0
  4  5  1  0
  5  6  1  0
  6  7  1  0
  7  8  1  0
  8  9  1  0
  9 10  1  0
 10 11  2  0
 10 13  1  0
 11 12  1  0
 12 15  2  0
 13 14  2  0
 14 15  1  0
 16 15  1  0
 16 17  1  0
 16 26  1  0
 17 18  2  0
 17 23  1  0
 18 19  1  0
 19 20  2  0
 20 21  1  0
 20 22  1  0
 22 23  2  0
 23 24  1  0
 24 25  1  0
 25 26  1  0
 26 27  1  0
 27 28  2  0
 27 32  1  0
 28 29  1  0
 29 30  2  0
 30 31  1  0
 31 32  2  0
  1 33  1  0
  1 34  1  0
  2 35  1  1
  3 36  1  0
  3 37  1  0
  3 38  1  0
  4 39  1  0
  4 40  1  0
  5 41  1  0
  5 42  1  0
  6 43  1  1
  7 44  1  0
  7 45  1  0
  8 46  1  0
  8 47  1  0
 11 48  1  0
 12 49  1  0
 13 50  1  0
 14 51  1  0
 16 52  1  1
 18 53  1  0
 19 54  1  0
 21 55  1  0
 22 56  1  0
 24 57  1  0
 24 58  1  0
 25 59  1  0
 25 60  1  0
 26 61  1  1
 28 62  1  0
 29 63  1  0
 30 64  1  0
 31 65  1  0
 32 66  1  0
M  CHG  1   6   1
M  END
>  <filename_input>  (3) 
7UJF_R3V_docked.sdf

>  <pdb_id>  (3) 
7UJF_R3V

>  <pose_rank>  (3) 
2

>  <num_atoms_heavy>  (3) 
32

>  <num_torsions>  (3) 
6

>  <pose>  (3) 
[-1.5386687792202394, -15.605806504147015, -59.84030000077435, -5.823148158417948, -0.45454372654297404, 2.3642944780001467, 12.602937090651645, 10.20057767406381, 1.2681165225441682, -8.274397930778342, -4.93017617669524, 0.17017030671901986]

>  <energy>  (3) 
-1936.271442619412

>  <inter_energy>  (3) 
-1961.1032178530443

>  <intra_energy>  (3) 
26.582318393320747

>  <rmsd>  (3) 
2.95757

>  <sdf_rank>  (3) 
0

$$$$

     RDKit          3D

 66 70  0  0  0  0  0  0  0  0999 V2000
   -4.9237  -16.3983  -66.9126 C   0  0  0  0  0  0  0  0  0  0  0  0
   -5.0586  -17.2035  -68.1619 C   0  0  1  0  0  0  0  0  0  0  0  0
   -4.4572  -18.6198  -67.9343 C   0  0  0  0  0  0  0  0  0  0  0  0
   -6.4892  -17.2618  -68.4529 C   0  0  0  0  0  0  0  0  0  0  0  0
   -7.0959  -16.0900  -67.6548 C   0  0  0  0  0  0  0  0  0  0  0  0
   -5.9136  -15.3741  -67.1670 N   0  0  1  0  0  0  0  0  0  0  0  0
   -6.1615  -14.6217  -66.0135 C   0  0  0  0  0  0  0  0  0  0  0  0
   -4.9429  -14.6886  -65.0752 C   0  0  0  0  0  0  0  0  0  0  0  0
   -5.4221  -15.0989  -63.7948 O   0  0  0  0  0  0  0  0  0  0  0  0
   -4.4611  -15.2630  -62.7501 C   0  0  0  0  0  0  0  0  0  0  0  0
   -3.6883  -14.0636  -62.2125 C   0  0  0  0  0  0  0  0  0  0  0  0
   -2.7573  -14.2157  -61.2046 C   0  0  0  0  0  0  0  0  0  0  0  0
   -4.2351  -16.5156  -62.2585 C   0  0  0  0  0  0  0  0  0  0  0  0
   -3.1961  -16.6721  -61.1501 C   0  0  0  0  0  0  0  0  0  0  0  0
   -2.4864  -15.6030  -60.6580 C   0  0  0  0  0  0  0  0  0  0  0  0
   -1.4807  -15.8404  -59.5426 C   0  0  2  0  0  0  0  0  0  0  0  0
   -0.1891  -15.7954  -60.1608 C   0  0  0  0  0  0  0  0  0  0  0  0
    0.2120  -14.4369  -60.7125 C   0  0  0  0  0  0  0  0  0  0  0  0
    1.4497  -14.3579  -61.3217 C   0  0  0  0  0  0  0  0  0  0  0  0
    2.3661  -15.5778  -61.4400 C   0  0  0  0  0  0  0  0  0  0  0  0
    3.5911  -15.4550  -62.0957 O   0  0  0  0  0  0  0  0  0  0  0  0
    2.0183  -16.8051  -60.9197 C   0  0  0  0  0  0  0  0  0  0  0  0
    0.6415  -16.8336  -60.2908 C   0  0  0  0  0  0  0  0  0  0  0  0
    0.4658  -18.3031  -59.8201 C   0  0  0  0  0  0  0  0  0  0  0  0
   -1.0759  -18.3974  -59.6705 C   0  0  0  0  0  0  0  0  0  0  0  0
   -1.6311  -17.1791  -58.8950 C   0  0  2  0  0  0  0  0  0  0  0  0
   -3.1074  -17.4088  -58.5228 C   0  0  0  0  0  0  0  0  0  0  0  0
   -3.8748  -18.3386  -59.1976 C   0  0  0  0  0  0  0  0  0  0  0  0
   -5.2070  -18.5334  -58.8463 C   0  0  0  0  0  0  0  0  0  0  0  0
   -5.7542  -17.7887  -57.8044 C   0  0  0  0  0  0  0  0  0  0  0  0
   -4.9852  -16.8639  -57.1203 C   0  0  0  0  0  0  0  0  0  0  0  0
   -3.6539  -16.6682  -57.4750 C   0  0  0  0  0  0  0  0  0  0  0  0
   -5.1681  -16.9892  -66.0175 H   0  0  0  0  0  0  0  0  0  0  0  0
   -3.9097  -16.0231  -66.7098 H   0  0  0  0  0  0  0  0  0  0  0  0
   -4.5161  -16.7593  -69.0094 H   0  0  0  0  0  0  0  0  0  0  0  0
   -4.3747  -18.8140  -66.8547 H   0  0  0  0  0  0  0  0  0  0  0  0
   -5.1124  -19.3745  -68.3936 H   0  0  0  0  0  0  0  0  0  0  0  0
   -3.4591  -18.6724  -68.3936 H   0  0  0  0  0  0  0  0  0  0  0  0
   -6.6719  -17.1340  -69.5301 H   0  0  0  0  0  0  0  0  0  0  0  0
   -6.9324  -18.2296  -68.1756 H   0  0  0  0  0  0  0  0  0  0  0  0
   -7.7085  -15.4458  -68.3027 H   0  0  0  0  0  0  0  0  0  0  0  0
   -7.7671  -16.4179  -66.8473 H   0  0  0  0  0  0  0  0  0  0  0  0
   -5.6000  -14.6850  -67.8654 H   0  0  0  0  0  0  0  0  0  0  0  0
   -6.3495  -13.5748  -66.2939 H   0  0  0  0  0  0  0  0  0  0  0  0
   -7.0416  -15.0305  -65.4955 H   0  0  0  0  0  0  0  0  0  0  0  0
   -4.2127  -15.4176  -65.4563 H   0  0  0  0  0  0  0  0  0  0  0  0
   -4.4432  -13.7107  -65.0116 H   0  0  0  0  0  0  0  0  0  0  0  0
   -3.8749  -13.0645  -62.6332 H   0  0  0  0  0  0  0  0  0  0  0  0
   -2.2203  -13.3431  -60.8043 H   0  0  0  0  0  0  0  0  0  0  0  0
   -4.7840  -17.3855  -62.6483 H   0  0  0  0  0  0  0  0  0  0  0  0
   -3.0099  -17.6724  -60.7323 H   0  0  0  0  0  0  0  0  0  0  0  0
   -1.6299  -15.0826  -58.7593 H   0  0  0  0  0  0  0  0  0  0  0  0
   -0.4492  -13.5616  -60.6309 H   0  0  0  0  0  0  0  0  0  0  0  0
    1.7848  -13.3939  -61.7321 H   0  0  0  0  0  0  0  0  0  0  0  0
    4.1900  -16.2391  -62.1767 H   0  0  0  0  0  0  0  0  0  0  0  0
    2.6797  -17.6832  -60.9577 H   0  0  0  0  0  0  0  0  0  0  0  0
    0.8409  -19.0134  -60.5716 H   0  0  0  0  0  0  0  0  0  0  0  0
    1.0214  -18.5499  -58.9033 H   0  0  0  0  0  0  0  0  0  0  0  0
   -1.5336  -18.4270  -60.6703 H   0  0  0  0  0  0  0  0  0  0  0  0
   -1.3192  -19.3117  -59.1093 H   0  0  0  0  0  0  0  0  0  0  0  0
   -0.9887  -17.1263  -58.0036 H   0  0  0  0  0  0  0  0  0  0  0  0
   -3.4314  -18.9264  -60.0149 H   0  0  0  0  0  0  0  0  0  0  0  0
   -5.8220  -19.2685  -59.3863 H   0  0  0  0  0  0  0  0  0  0  0  0
   -6.8072  -17.9370  -57.5228 H   0  0  0  0  0  0  0  0  0  0  0  0
   -5.4261  -16.2836  -56.2963 H   0  0  0  0  0  0  0  0  0  0  0  0
   -3.0377  -15.9355  -56.9333 H   0  0  0  0  0  0  0  0  0  0  0  0
  1  2  1  0
  1  6  1  0
  2  3  1  0
  2  4  1  0
  4  5  1  0
  5  6  1  0
  6  7  1  0
  7  8  1  0
  8  9  1  0
  9 10  1  0
 10 11  2  0
 10 13  1  0
 11 12  1  0
 12 15  2  0
 13 14  2  0
 14 15  1  0
 16 15  1  0
 16 17  1  0
 16 26  1  0
 17 18  2  0
 17 23  1  0
 18 19  1  0
 19 20  2  0
 20 21  1  0
 20 22  1  0
 22 23  2  0
 23 24  1  0
 24 25  1  0
 25 26  1  0
 26 27  1  0
 27 28  2  0
 27 32  1  0
 28 29  1  0
 29 30  2  0
 30 31  1  0
 31 32  2  0
  1 33  1  0
  1 34  1  0
  2 35  1  6
  3 36  1  0
  3 37  1  0
  3 38  1  0
  4 39  1  0
  4 40  1  0
  5 41  1  0
  5 42  1  0
  6 43  1  6
  7 44  1  0
  7 45  1  0
  8 46  1  0
  8 47  1  0
 11 48  1  0
 12 49  1  0
 13 50  1  0
 14 51  1  0
 16 52  1  1
 18 53  1  0
 19 54  1  0
 21 55  1  0
 22 56  1  0
 24 57  1  0
 24 58  1  0
 25 59  1  0
 25 60  1  0
 26 61  1  1
 28 62  1  0
 29 63  1  0
 30 64  1  0
 31 65  1  0
 32 66  1  0
M  CHG  1   6   1
M  END
>  <filename_input>  (4) 
7UJF_R3V_docked.sdf

>  <pdb_id>  (4) 
7UJF_R3V

>  <pose_rank>  (4) 
3

>  <num_atoms_heavy>  (4) 
32

>  <num_torsions>  (4) 
6

>  <pose>  (4) 
[-1.4806576128157236, -15.840383950243742, -59.54257025659721, -1.370091404471274, 6.397103493141834, 0.83345524278262, -2.155034580710397, -2.804417368208088, 6.385388710215261, 5.7288051863038865, -0.8367823803633717, 0.2910216427733667]

>  <energy>  (4) 
-747.4865602701309

>  <inter_energy>  (4) 
-874.3259900101086

>  <intra_energy>  (4) 
117.24964535216918

>  <rmsd>  (4) 
2.51127

>  <sdf_rank>  (4) 
0

$$$$

     RDKit          3D

 66 70  0  0  0  0  0  0  0  0999 V2000
   -2.4279  -11.9562  -68.6252 C   0  0  0  0  0  0  0  0  0  0  0  0
   -3.1154  -11.7526  -69.9341 C   0  0  1  0  0  0  0  0  0  0  0  0
   -2.1052  -11.1763  -70.9670 C   0  0  0  0  0  0  0  0  0  0  0  0
   -3.6144  -13.0651  -70.3374 C   0  0  0  0  0  0  0  0  0  0  0  0
   -3.6360  -13.8895  -69.0342 C   0  0  0  0  0  0  0  0  0  0  0  0
   -3.3437  -12.8886  -68.0041 N   0  0  1  0  0  0  0  0  0  0  0  0
   -2.7867  -13.4378  -66.8439 C   0  0  0  0  0  0  0  0  0  0  0  0
   -3.5169  -12.8893  -65.6046 C   0  0  0  0  0  0  0  0  0  0  0  0
   -4.0691  -14.0097  -64.9137 O   0  0  0  0  0  0  0  0  0  0  0  0
   -3.4618  -14.3896  -63.6773 C   0  0  0  0  0  0  0  0  0  0  0  0
   -2.5815  -15.6318  -63.5958 C   0  0  0  0  0  0  0  0  0  0  0  0
   -1.9932  -16.0052  -62.4040 C   0  0  0  0  0  0  0  0  0  0  0  0
   -3.7017  -13.6308  -62.5690 C   0  0  0  0  0  0  0  0  0  0  0  0
   -3.0528  -14.0595  -61.2547 C   0  0  0  0  0  0  0  0  0  0  0  0
   -2.2614  -15.1794  -61.1619 C   0  0  0  0  0  0  0  0  0  0  0  0
   -1.6390  -15.5293  -59.8195 C   0  0  2  0  0  0  0  0  0  0  0  0
   -0.2215  -15.5079  -60.0252 C   0  0  0  0  0  0  0  0  0  0  0  0
    0.3619  -14.1393  -60.3370 C   0  0  0  0  0  0  0  0  0  0  0  0
    1.7263  -14.0820  -60.5476 C   0  0  0  0  0  0  0  0  0  0  0  0
    2.6033  -15.3341  -60.4766 C   0  0  0  0  0  0  0  0  0  0  0  0
    3.9705  -15.2298  -60.7321 O   0  0  0  0  0  0  0  0  0  0  0  0
    2.0837  -16.5726  -60.1698 C   0  0  0  0  0  0  0  0  0  0  0  0
    0.5820  -16.5742  -59.9779 C   0  0  0  0  0  0  0  0  0  0  0  0
    0.2349  -18.0592  -59.6847 C   0  0  0  0  0  0  0  0  0  0  0  0
   -1.2836  -18.0903  -60.0027 C   0  0  0  0  0  0  0  0  0  0  0  0
   -2.0110  -16.8956  -59.3411 C   0  0  2  0  0  0  0  0  0  0  0  0
   -3.5368  -17.0779  -59.4373 C   0  0  0  0  0  0  0  0  0  0  0  0
   -4.3983  -16.2280  -58.7707 C   0  0  0  0  0  0  0  0  0  0  0  0
   -5.7745  -16.4075  -58.8705 C   0  0  0  0  0  0  0  0  0  0  0  0
   -6.2725  -17.4455  -59.6544 C   0  0  0  0  0  0  0  0  0  0  0  0
   -5.4123  -18.2920  -60.3311 C   0  0  0  0  0  0  0  0  0  0  0  0
   -4.0362  -18.1129  -60.2277 C   0  0  0  0  0  0  0  0  0  0  0  0
   -1.4260  -12.3918  -68.7535 H   0  0  0  0  0  0  0  0  0  0  0  0
   -2.2420  -11.0366  -68.0510 H   0  0  0  0  0  0  0  0  0  0  0  0
   -3.9460  -11.0346  -69.8660 H   0  0  0  0  0  0  0  0  0  0  0  0
   -1.2689  -10.6992  -70.4351 H   0  0  0  0  0  0  0  0  0  0  0  0
   -1.7211  -11.9912  -71.5982 H   0  0  0  0  0  0  0  0  0  0  0  0
   -2.6112  -10.4309  -71.5982 H   0  0  0  0  0  0  0  0  0  0  0  0
   -4.6260  -12.9826  -70.7615 H   0  0  0  0  0  0  0  0  0  0  0  0
   -2.9890  -13.5288  -71.1144 H   0  0  0  0  0  0  0  0  0  0  0  0
   -4.6233  -14.3466  -68.8721 H   0  0  0  0  0  0  0  0  0  0  0  0
   -2.9221  -14.7264  -69.0395 H   0  0  0  0  0  0  0  0  0  0  0  0
   -4.2138  -12.4376  -67.6873 H   0  0  0  0  0  0  0  0  0  0  0  0
   -2.8885  -14.5327  -66.8729 H   0  0  0  0  0  0  0  0  0  0  0  0
   -1.7223  -13.1658  -66.7883 H   0  0  0  0  0  0  0  0  0  0  0  0
   -2.8079  -12.3566  -64.9538 H   0  0  0  0  0  0  0  0  0  0  0  0
   -4.3062  -12.1810  -65.8964 H   0  0  0  0  0  0  0  0  0  0  0  0
   -2.4130  -16.2381  -64.4980 H   0  0  0  0  0  0  0  0  0  0  0  0
   -1.3397  -16.8888  -62.3567 H   0  0  0  0  0  0  0  0  0  0  0  0
   -4.3426  -12.7382  -62.6206 H   0  0  0  0  0  0  0  0  0  0  0  0
   -3.2242  -13.4526  -60.3534 H   0  0  0  0  0  0  0  0  0  0  0  0
   -1.9936  -14.8133  -59.0634 H   0  0  0  0  0  0  0  0  0  0  0  0
   -0.2699  -13.2405  -60.3922 H   0  0  0  0  0  0  0  0  0  0  0  0
    2.1939  -13.1120  -60.7720 H   0  0  0  0  0  0  0  0  0  0  0  0
    4.5451  -16.0348  -60.6883 H   0  0  0  0  0  0  0  0  0  0  0  0
    2.7027  -17.4768  -60.0732 H   0  0  0  0  0  0  0  0  0  0  0  0
    0.7969  -18.7404  -60.3406 H   0  0  0  0  0  0  0  0  0  0  0  0
    0.4864  -18.3858  -58.6648 H   0  0  0  0  0  0  0  0  0  0  0  0
   -1.4244  -18.0390  -61.0925 H   0  0  0  0  0  0  0  0  0  0  0  0
   -1.7071  -19.0240  -59.6041 H   0  0  0  0  0  0  0  0  0  0  0  0
   -1.6610  -16.9260  -58.2987 H   0  0  0  0  0  0  0  0  0  0  0  0
   -3.9951  -15.4073  -58.1593 H   0  0  0  0  0  0  0  0  0  0  0  0
   -6.4624  -15.7362  -58.3356 H   0  0  0  0  0  0  0  0  0  0  0  0
   -7.3594  -17.5936  -59.7363 H   0  0  0  0  0  0  0  0  0  0  0  0
   -5.8161  -19.1064  -60.9506 H   0  0  0  0  0  0  0  0  0  0  0  0
   -3.3480  -18.7820  -60.7649 H   0  0  0  0  0  0  0  0  0  0  0  0
  1  2  1  0
  1  6  1  0
  2  3  1  0
  2  4  1  0
  4  5  1  0
  5  6  1  0
  6  7  1  0
  7  8  1  0
  8  9  1  0
  9 10  1  0
 10 11  2  0
 10 13  1  0
 11 12  1  0
 12 15  2  0
 13 14  2  0
 14 15  1  0
 16 15  1  0
 16 17  1  0
 16 26  1  0
 17 18  2  0
 17 23  1  0
 18 19  1  0
 19 20  2  0
 20 21  1  0
 20 22  1  0
 22 23  2  0
 23 24  1  0
 24 25  1  0
 25 26  1  0
 26 27  1  0
 27 28  2  0
 27 32  1  0
 28 29  1  0
 29 30  2  0
 30 31  1  0
 31 32  2  0
  1 33  1  0
  1 34  1  0
  2 35  1  1
  3 36  1  0
  3 37  1  0
  3 38  1  0
  4 39  1  0
  4 40  1  0
  5 41  1  0
  5 42  1  0
  6 43  1  1
  7 44  1  0
  7 45  1  0
  8 46  1  0
  8 47  1  0
 11 48  1  0
 12 49  1  0
 13 50  1  0
 14 51  1  0
 16 52  1  1
 18 53  1  0
 19 54  1  0
 21 55  1  0
 22 56  1  0
 24 57  1  0
 24 58  1  0
 25 59  1  0
 25 60  1  0
 26 61  1  1
 28 62  1  0
 29 63  1  0
 30 64  1  0
 31 65  1  0
 32 66  1  0
M  CHG  1   6   1
M  END
>  <filename_input>  (5) 
7UJF_R3V_docked.sdf

>  <pdb_id>  (5) 
7UJF_R3V

>  <pose_rank>  (5) 
4

>  <num_atoms_heavy>  (5) 
32

>  <num_torsions>  (5) 
6

>  <pose>  (5) 
[-1.6390237746188299, -15.529300975867077, -59.81948319946634, 1.9967829507733788, 3.909643117048048, 4.49948795018342, 6.510803190858629, 13.05542708542629, 17.72136233522272, 10.052803830547528, 0.6507289186022371, -2.643156608065404]

>  <energy>  (5) 
-2082.390463667258

>  <inter_energy>  (5) 
-2074.7821901292177

>  <intra_energy>  (5) 
26.864792468342998

>  <rmsd>  (5) 
1.03676

>  <sdf_rank>  (5) 
0

$$$$

     RDKit          3D

 66 70  0  0  0  0  0  0  0  0999 V2000
   -3.8492  -11.9935  -67.7159 C   0  0  0  0  0  0  0  0  0  0  0  0
   -3.9485  -11.3550  -69.0612 C   0  0  1  0  0  0  0  0  0  0  0  0
   -4.6650   -9.9804  -68.9319 C   0  0  0  0  0  0  0  0  0  0  0  0
   -2.5767  -11.2088  -69.5419 C   0  0  0  0  0  0  0  0  0  0  0  0
   -1.7595  -12.2035  -68.6926 C   0  0  0  0  0  0  0  0  0  0  0  0
   -2.7937  -12.9500  -67.9705 N   0  0  1  0  0  0  0  0  0  0  0  0
   -2.3332  -13.5151  -66.7760 C   0  0  0  0  0  0  0  0  0  0  0  0
   -3.4251  -14.4150  -66.1696 C   0  0  0  0  0  0  0  0  0  0  0  0
   -3.8822  -13.7747  -64.9786 O   0  0  0  0  0  0  0  0  0  0  0  0
   -3.3177  -14.2040  -63.7381 C   0  0  0  0  0  0  0  0  0  0  0  0
   -2.3383  -15.3717  -63.6952 C   0  0  0  0  0  0  0  0  0  0  0  0
   -1.7907  -15.7924  -62.4999 C   0  0  0  0  0  0  0  0  0  0  0  0
   -3.6879  -13.5617  -62.5926 C   0  0  0  0  0  0  0  0  0  0  0  0
   -3.0822  -14.0424  -61.2756 C   0  0  0  0  0  0  0  0  0  0  0  0
   -2.2027  -15.0969  -61.2180 C   0  0  0  0  0  0  0  0  0  0  0  0
   -1.6320  -15.5040  -59.8686 C   0  0  2  0  0  0  0  0  0  0  0  0
   -0.2083  -15.5048  -60.0274 C   0  0  0  0  0  0  0  0  0  0  0  0
    0.4115  -14.1389  -60.2736 C   0  0  0  0  0  0  0  0  0  0  0  0
    1.7831  -14.1027  -60.4377 C   0  0  0  0  0  0  0  0  0  0  0  0
    2.6327  -15.3742  -60.3807 C   0  0  0  0  0  0  0  0  0  0  0  0
    4.0095  -15.2895  -60.5881 O   0  0  0  0  0  0  0  0  0  0  0  0
    2.0792  -16.6112  -60.1330 C   0  0  0  0  0  0  0  0  0  0  0  0
    0.5723  -16.5883  -59.9901 C   0  0  0  0  0  0  0  0  0  0  0  0
    0.1869  -18.0749  -59.7588 C   0  0  0  0  0  0  0  0  0  0  0  0
   -1.3206  -18.0642  -60.1268 C   0  0  0  0  0  0  0  0  0  0  0  0
   -2.0461  -16.8775  -59.4491 C   0  0  2  0  0  0  0  0  0  0  0  0
   -3.5712  -17.0252  -59.6009 C   0  0  0  0  0  0  0  0  0  0  0  0
   -4.1184  -17.6651  -60.6963 C   0  0  0  0  0  0  0  0  0  0  0  0
   -5.4991  -17.7902  -60.8158 C   0  0  0  0  0  0  0  0  0  0  0  0
   -6.3204  -17.2719  -59.8175 C   0  0  0  0  0  0  0  0  0  0  0  0
   -5.7747  -16.6394  -58.7145 C   0  0  0  0  0  0  0  0  0  0  0  0
   -4.3938  -16.5125  -58.5982 C   0  0  0  0  0  0  0  0  0  0  0  0
   -3.5644  -11.2680  -66.9396 H   0  0  0  0  0  0  0  0  0  0  0  0
   -4.7868  -12.4270  -67.3379 H   0  0  0  0  0  0  0  0  0  0  0  0
   -4.5376  -11.9559  -69.7697 H   0  0  0  0  0  0  0  0  0  0  0  0
   -4.7940   -9.7328  -67.8679 H   0  0  0  0  0  0  0  0  0  0  0  0
   -4.0573   -9.2031  -69.4182 H   0  0  0  0  0  0  0  0  0  0  0  0
   -5.6503  -10.0333  -69.4182 H   0  0  0  0  0  0  0  0  0  0  0  0
   -2.5100  -11.4636  -70.6099 H   0  0  0  0  0  0  0  0  0  0  0  0
   -2.2084  -10.1768  -69.4455 H   0  0  0  0  0  0  0  0  0  0  0  0
   -1.1633  -12.8717  -69.3314 H   0  0  0  0  0  0  0  0  0  0  0  0
   -1.0360  -11.7113  -68.0261 H   0  0  0  0  0  0  0  0  0  0  0  0
   -3.1132  -13.7521  -68.5321 H   0  0  0  0  0  0  0  0  0  0  0  0
   -1.4352  -14.1170  -66.9792 H   0  0  0  0  0  0  0  0  0  0  0  0
   -2.0883  -12.7121  -66.0652 H   0  0  0  0  0  0  0  0  0  0  0  0
   -4.2573  -14.5295  -66.8798 H   0  0  0  0  0  0  0  0  0  0  0  0
   -3.0289  -15.4170  -65.9484 H   0  0  0  0  0  0  0  0  0  0  0  0
   -2.0647  -15.8855  -64.6286 H   0  0  0  0  0  0  0  0  0  0  0  0
   -1.0663  -16.6199  -62.4782 H   0  0  0  0  0  0  0  0  0  0  0  0
   -4.4002  -12.7239  -62.6170 H   0  0  0  0  0  0  0  0  0  0  0  0
   -3.3588  -13.5282  -60.3433 H   0  0  0  0  0  0  0  0  0  0  0  0
   -1.9975  -14.8063  -59.1007 H   0  0  0  0  0  0  0  0  0  0  0  0
   -0.2005  -13.2260  -60.3187 H   0  0  0  0  0  0  0  0  0  0  0  0
    2.2766  -13.1355  -60.6138 H   0  0  0  0  0  0  0  0  0  0  0  0
    4.5665  -16.1071  -60.5529 H   0  0  0  0  0  0  0  0  0  0  0  0
    2.6770  -17.5306  -60.0471 H   0  0  0  0  0  0  0  0  0  0  0  0
    0.7570  -18.7452  -60.4188 H   0  0  0  0  0  0  0  0  0  0  0  0
    0.3981  -18.4402  -58.7429 H   0  0  0  0  0  0  0  0  0  0  0  0
   -1.4242  -17.9739  -61.2182 H   0  0  0  0  0  0  0  0  0  0  0  0
   -1.7751  -19.0018  -59.7740 H   0  0  0  0  0  0  0  0  0  0  0  0
   -1.7315  -16.9496  -58.3975 H   0  0  0  0  0  0  0  0  0  0  0  0
   -3.4608  -18.0768  -61.4761 H   0  0  0  0  0  0  0  0  0  0  0  0
   -5.9375  -18.2936  -61.6900 H   0  0  0  0  0  0  0  0  0  0  0  0
   -7.4127  -17.3663  -59.9067 H   0  0  0  0  0  0  0  0  0  0  0  0
   -6.4322  -16.2369  -57.9298 H   0  0  0  0  0  0  0  0  0  0  0  0
   -3.9548  -16.0119  -57.7226 H   0  0  0  0  0  0  0  0  0  0  0  0
  1  2  1  0
  1  6  1  0
  2  3  1  0
  2  4  1  0
  4  5  1  0
  5  6  1  0
  6  7  1  0
  7  8  1  0
  8  9  1  0
  9 10  1  0
 10 11  2  0
 10 13  1  0
 11 12  1  0
 12 15  2  0
 13 14  2  0
 14 15  1  0
 16 15  1  0
 16 17  1  0
 16 26  1  0
 17 18  2  0
 17 23  1  0
 18 19  1  0
 19 20  2  0
 20 21  1  0
 20 22  1  0
 22 23  2  0
 23 24  1  0
 24 25  1  0
 25 26  1  0
 26 27  1  0
 27 28  2  0
 27 32  1  0
 28 29  1  0
 29 30  2  0
 30 31  1  0
 31 32  2  0
  1 33  1  0
  1 34  1  0
  2 35  1  6
  3 36  1  0
  3 37  1  0
  3 38  1  0
  4 39  1  0
  4 40  1  0
  5 41  1  0
  5 42  1  0
  6 43  1  6
  7 44  1  0
  7 45  1  0
  8 46  1  0
  8 47  1  0
 11 48  1  0
 12 49  1  0
 13 50  1  0
 14 51  1  0
 16 52  1  1
 18 53  1  0
 19 54  1  0
 21 55  1  0
 22 56  1  0
 24 57  1  0
 24 58  1  0
 25 59  1  0
 25 60  1  0
 26 61  1  1
 28 62  1  0
 29 63  1  0
 30 64  1  0
 31 65  1  0
 32 66  1  0
M  CHG  1   6   1
M  END
>  <filename_input>  (6) 
7UJF_R3V_docked.sdf

>  <pdb_id>  (6) 
7UJF_R3V

>  <pose_rank>  (6) 
5

>  <num_atoms_heavy>  (6) 
32

>  <num_torsions>  (6) 
6

>  <pose>  (6) 
[-1.6320326125006956, -15.50395803683946, -59.868634196425035, -4.3390553385452435, 3.8845857837463473, 2.222669366047619, 0.10876661999579572, 2.2598093491372886, 1.5761959091693685, -0.2747268718581993, -0.0658880628935862, 0.1188407753564241]

>  <energy>  (6) 
-2143.2577612249133

>  <inter_energy>  (6) 
-2180.6083069589986

>  <intra_energy>  (6) 
33.37229362626938

>  <rmsd>  (6) 
1.37794

>  <sdf_rank>  (6) 
0

$$$$

     RDKit          3D

 66 70  0  0  0  0  0  0  0  0999 V2000
   -7.4037  -13.1882  -66.4127 C   0  0  0  0  0  0  0  0  0  0  0  0
   -7.8306  -12.1268  -65.4543 C   0  0  1  0  0  0  0  0  0  0  0  0
   -9.3505  -11.8478  -65.6318 C   0  0  0  0  0  0  0  0  0  0  0  0
   -7.5251  -12.6394  -64.1207 C   0  0  0  0  0  0  0  0  0  0  0  0
   -6.4894  -13.7563  -64.3619 C   0  0  0  0  0  0  0  0  0  0  0  0
   -6.1702  -13.6105  -65.7849 N   0  0  1  0  0  0  0  0  0  0  0  0
   -5.6923  -14.7901  -66.3665 C   0  0  0  0  0  0  0  0  0  0  0  0
   -4.2834  -15.1024  -65.8305 C   0  0  0  0  0  0  0  0  0  0  0  0
   -3.9306  -14.0452  -64.9386 O   0  0  0  0  0  0  0  0  0  0  0  0
   -3.3191  -14.4029  -63.6977 C   0  0  0  0  0  0  0  0  0  0  0  0
   -2.4322  -15.6391  -63.5985 C   0  0  0  0  0  0  0  0  0  0  0  0
   -1.8399  -15.9909  -62.4023 C   0  0  0  0  0  0  0  0  0  0  0  0
   -3.5610  -13.6283  -62.6007 C   0  0  0  0  0  0  0  0  0  0  0  0
   -2.9075  -14.0332  -61.2811 C   0  0  0  0  0  0  0  0  0  0  0  0
   -2.1101  -15.1474  -61.1726 C   0  0  0  0  0  0  0  0  0  0  0  0
   -1.4835  -15.4733  -59.8260 C   0  0  2  0  0  0  0  0  0  0  0  0
   -0.0665  -15.4518  -60.0357 C   0  0  0  0  0  0  0  0  0  0  0  0
    0.5125  -14.0871  -60.3717 C   0  0  0  0  0  0  0  0  0  0  0  0
    1.8763  -14.0299  -60.5867 C   0  0  0  0  0  0  0  0  0  0  0  0
    2.7566  -15.2784  -60.4970 C   0  0  0  0  0  0  0  0  0  0  0  0
    4.1230  -15.1749  -60.7577 O   0  0  0  0  0  0  0  0  0  0  0  0
    2.2409  -16.5129  -60.1682 C   0  0  0  0  0  0  0  0  0  0  0  0
    0.7398  -16.5151  -59.9725 C   0  0  0  0  0  0  0  0  0  0  0  0
    0.3972  -17.9959  -59.6537 C   0  0  0  0  0  0  0  0  0  0  0  0
   -1.1220  -18.0361  -59.9674 C   0  0  0  0  0  0  0  0  0  0  0  0
   -1.8508  -16.8324  -59.3240 C   0  0  2  0  0  0  0  0  0  0  0  0
   -3.3764  -17.0202  -59.4133 C   0  0  0  0  0  0  0  0  0  0  0  0
   -3.9340  -17.8834  -60.3367 C   0  0  0  0  0  0  0  0  0  0  0  0
   -5.3150  -18.0412  -60.4018 C   0  0  0  0  0  0  0  0  0  0  0  0
   -6.1259  -17.3274  -59.5227 C   0  0  0  0  0  0  0  0  0  0  0  0
   -5.5696  -16.4697  -58.5904 C   0  0  0  0  0  0  0  0  0  0  0  0
   -4.1885  -16.3109  -58.5287 C   0  0  0  0  0  0  0  0  0  0  0  0
   -8.1355  -14.0075  -66.4673 H   0  0  0  0  0  0  0  0  0  0  0  0
   -7.3029  -12.8570  -67.4568 H   0  0  0  0  0  0  0  0  0  0  0  0
   -7.3096  -11.1728  -65.6235 H   0  0  0  0  0  0  0  0  0  0  0  0
   -9.8252  -11.7607  -64.6433 H   0  0  0  0  0  0  0  0  0  0  0  0
   -9.4884  -10.9093  -66.1888 H   0  0  0  0  0  0  0  0  0  0  0  0
   -9.8127  -12.6761  -66.1888 H   0  0  0  0  0  0  0  0  0  0  0  0
   -7.1007  -11.8463  -63.4875 H   0  0  0  0  0  0  0  0  0  0  0  0
   -8.4213  -13.0066  -63.5993 H   0  0  0  0  0  0  0  0  0  0  0  0
   -5.5951  -13.6070  -63.7390 H   0  0  0  0  0  0  0  0  0  0  0  0
   -6.8643  -14.7575  -64.1027 H   0  0  0  0  0  0  0  0  0  0  0  0
   -5.4078  -12.9297  -65.9120 H   0  0  0  0  0  0  0  0  0  0  0  0
   -6.3699  -15.6202  -66.1180 H   0  0  0  0  0  0  0  0  0  0  0  0
   -5.6457  -14.6637  -67.4582 H   0  0  0  0  0  0  0  0  0  0  0  0
   -4.2879  -16.0628  -65.2944 H   0  0  0  0  0  0  0  0  0  0  0  0
   -3.5586  -15.1782  -66.6545 H   0  0  0  0  0  0  0  0  0  0  0  0
   -2.2621  -16.2584  -64.4916 H   0  0  0  0  0  0  0  0  0  0  0  0
   -1.1817  -16.8703  -62.3425 H   0  0  0  0  0  0  0  0  0  0  0  0
   -4.2066  -12.7399  -62.6649 H   0  0  0  0  0  0  0  0  0  0  0  0
   -3.0804  -13.4133  -60.3890 H   0  0  0  0  0  0  0  0  0  0  0  0
   -1.8381  -14.7457  -59.0812 H   0  0  0  0  0  0  0  0  0  0  0  0
   -0.1217  -13.1909  -60.4403 H   0  0  0  0  0  0  0  0  0  0  0  0
    2.3408  -13.0625  -60.8284 H   0  0  0  0  0  0  0  0  0  0  0  0
    4.6998  -15.9776  -60.7019 H   0  0  0  0  0  0  0  0  0  0  0  0
    2.8625  -17.4138  -60.0582 H   0  0  0  0  0  0  0  0  0  0  0  0
    0.9594  -18.6865  -60.2996 H   0  0  0  0  0  0  0  0  0  0  0  0
    0.6521  -18.3048  -58.6292 H   0  0  0  0  0  0  0  0  0  0  0  0
   -1.2656  -18.0034  -61.0575 H   0  0  0  0  0  0  0  0  0  0  0  0
   -1.5421  -18.9641  -59.5522 H   0  0  0  0  0  0  0  0  0  0  0  0
   -1.4982  -16.8444  -58.2821 H   0  0  0  0  0  0  0  0  0  0  0  0
   -3.2846  -18.4476  -61.0222 H   0  0  0  0  0  0  0  0  0  0  0  0
   -5.7619  -18.7230  -61.1403 H   0  0  0  0  0  0  0  0  0  0  0  0
   -7.2184  -17.4466  -59.5701 H   0  0  0  0  0  0  0  0  0  0  0  0
   -6.2188  -15.9135  -57.8981 H   0  0  0  0  0  0  0  0  0  0  0  0
   -3.7409  -15.6315  -57.7883 H   0  0  0  0  0  0  0  0  0  0  0  0
  1  2  1  0
  1  6  1  0
  2  3  1  0
  2  4  1  0
  4  5  1  0
  5  6  1  0
  6  7  1  0
  7  8  1  0
  8  9  1  0
  9 10  1  0
 10 11  2  0
 10 13  1  0
 11 12  1  0
 12 15  2  0
 13 14  2  0
 14 15  1  0
 16 15  1  0
 16 17  1  0
 16 26  1  0
 17 18  2  0
 17 23  1  0
 18 19  1  0
 19 20  2  0
 20 21  1  0
 20 22  1  0
 22 23  2  0
 23 24  1  0
 24 25  1  0
 25 26  1  0
 26 27  1  0
 27 28  2  0
 27 32  1  0
 28 29  1  0
 29 30  2  0
 30 31  1  0
 31 32  2  0
  1 33  1  0
  1 34  1  0
  2 35  1  6
  3 36  1  0
  3 37  1  0
  3 38  1  0
  4 39  1  0
  4 40  1  0
  5 41  1  0
  5 42  1  0
  6 43  1  1
  7 44  1  0
  7 45  1  0
  8 46  1  0
  8 47  1  0
 11 48  1  0
 12 49  1  0
 13 50  1  0
 14 51  1  0
 16 52  1  1
 18 53  1  0
 19 54  1  0
 21 55  1  0
 22 56  1  0
 24 57  1  0
 24 58  1  0
 25 59  1  0
 25 60  1  0
 26 61  1  1
 28 62  1  0
 29 63  1  0
 30 64  1  0
 31 65  1  0
 32 66  1  0
M  CHG  1   6   1
M  END
>  <filename_input>  (7) 
7UJF_R3V_docked.sdf

>  <pdb_id>  (7) 
7UJF_R3V

>  <pose_rank>  (7) 
6

>  <num_atoms_heavy>  (7) 
32

>  <num_torsions>  (7) 
6

>  <pose>  (7) 
[-1.4835289485458516, -15.473313118233206, -59.82604668660794, 5.784673988642037, -1.6446465612078647, -1.7600499618416663, 0.22462241556199422, 2.882035493434379, -0.6435423195996761, -4.643059221343697, 1.7324388736378373, 0.2855320004416563]

>  <energy>  (7) 
-1834.589262908399

>  <inter_energy>  (7) 
-1911.4652467389653

>  <intra_energy>  (7) 
66.31199584093227

>  <rmsd>  (7) 
2.8442

>  <sdf_rank>  (7) 
0

$$$$

     RDKit          3D

 66 70  0  0  0  0  0  0  0  0999 V2000
   -3.6374  -16.3229  -61.3821 C   0  0  0  0  0  0  0  0  0  0  0  0
   -4.7890  -16.3430  -60.4330 C   0  0  1  0  0  0  0  0  0  0  0  0
   -5.8854  -17.3085  -60.9673 C   0  0  0  0  0  0  0  0  0  0  0  0
   -4.2492  -16.7911  -59.1515 C   0  0  0  0  0  0  0  0  0  0  0  0
   -2.7308  -16.5451  -59.2623 C   0  0  0  0  0  0  0  0  0  0  0  0
   -2.6076  -15.7932  -60.5145 N   0  0  1  0  0  0  0  0  0  0  0  0
   -1.3456  -15.9120  -61.1071 C   0  0  0  0  0  0  0  0  0  0  0  0
   -1.4137  -15.4546  -62.5755 C   0  0  0  0  0  0  0  0  0  0  0  0
   -1.9768  -14.1430  -62.5801 O   0  0  0  0  0  0  0  0  0  0  0  0
   -2.7332  -13.7517  -63.7275 C   0  0  0  0  0  0  0  0  0  0  0  0
   -3.1338  -14.7802  -64.7793 C   0  0  0  0  0  0  0  0  0  0  0  0
   -3.8631  -14.4083  -65.8909 C   0  0  0  0  0  0  0  0  0  0  0  0
   -3.0716  -12.4378  -63.8723 C   0  0  0  0  0  0  0  0  0  0  0  0
   -3.8704  -12.0375  -65.1109 C   0  0  0  0  0  0  0  0  0  0  0  0
   -4.2347  -12.9502  -66.0716 C   0  0  0  0  0  0  0  0  0  0  0  0
   -5.0436  -12.4737  -67.2677 C   0  0  2  0  0  0  0  0  0  0  0  0
   -4.1030  -12.2962  -68.3336 C   0  0  0  0  0  0  0  0  0  0  0  0
   -3.4525  -13.5749  -68.8360 C   0  0  0  0  0  0  0  0  0  0  0  0
   -2.5346  -13.4406  -69.8601 C   0  0  0  0  0  0  0  0  0  0  0  0
   -2.1869  -12.0734  -70.4530 C   0  0  0  0  0  0  0  0  0  0  0  0
   -1.2272  -11.9866  -71.4615 O   0  0  0  0  0  0  0  0  0  0  0  0
   -2.7917  -10.9143  -70.0185 C   0  0  0  0  0  0  0  0  0  0  0  0
   -3.7651  -11.1241  -68.8783 C   0  0  0  0  0  0  0  0  0  0  0  0
   -4.2785   -9.6966  -68.5455 C   0  0  0  0  0  0  0  0  0  0  0  0
   -4.8346   -9.8949  -67.1103 C   0  0  0  0  0  0  0  0  0  0  0  0
   -5.7194  -11.1618  -67.0311 C   0  0  2  0  0  0  0  0  0  0  0  0
   -6.4738  -11.2049  -65.6896 C   0  0  0  0  0  0  0  0  0  0  0  0
   -7.3238  -10.1810  -65.3182 C   0  0  0  0  0  0  0  0  0  0  0  0
   -7.9982  -10.2379  -64.1024 C   0  0  0  0  0  0  0  0  0  0  0  0
   -7.8135  -11.3394  -63.2703 C   0  0  0  0  0  0  0  0  0  0  0  0
   -6.9705  -12.3709  -63.6442 C   0  0  0  0  0  0  0  0  0  0  0  0
   -6.2946  -12.3108  -64.8591 C   0  0  0  0  0  0  0  0  0  0  0  0
   -3.3882  -17.3315  -61.7433 H   0  0  0  0  0  0  0  0  0  0  0  0
   -3.8070  -15.7487  -62.3049 H   0  0  0  0  0  0  0  0  0  0  0  0
   -5.2605  -15.3554  -60.3225 H   0  0  0  0  0  0  0  0  0  0  0  0
   -6.4112  -17.7715  -60.1193 H   0  0  0  0  0  0  0  0  0  0  0  0
   -6.6037  -16.7443  -61.5803 H   0  0  0  0  0  0  0  0  0  0  0  0
   -5.4166  -18.0924  -61.5803 H   0  0  0  0  0  0  0  0  0  0  0  0
   -4.6779  -16.2070  -58.3238 H   0  0  0  0  0  0  0  0  0  0  0  0
   -4.4873  -17.8447  -58.9437 H   0  0  0  0  0  0  0  0  0  0  0  0
   -2.3628  -15.9556  -58.4097 H   0  0  0  0  0  0  0  0  0  0  0  0
   -2.1402  -17.4731  -59.2548 H   0  0  0  0  0  0  0  0  0  0  0  0
   -2.7188  -14.7846  -60.3378 H   0  0  0  0  0  0  0  0  0  0  0  0
   -0.6256  -15.2840  -60.5620 H   0  0  0  0  0  0  0  0  0  0  0  0
   -1.0240  -16.9633  -61.0688 H   0  0  0  0  0  0  0  0  0  0  0  0
   -0.4040  -15.4334  -63.0114 H   0  0  0  0  0  0  0  0  0  0  0  0
   -2.0259  -16.1459  -63.1732 H   0  0  0  0  0  0  0  0  0  0  0  0
   -2.8380  -15.8318  -64.6508 H   0  0  0  0  0  0  0  0  0  0  0  0
   -4.1698  -15.1589  -66.6342 H   0  0  0  0  0  0  0  0  0  0  0  0
   -2.7782  -11.6903  -63.1205 H   0  0  0  0  0  0  0  0  0  0  0  0
   -4.1636  -10.9849  -65.2381 H   0  0  0  0  0  0  0  0  0  0  0  0
   -5.8317  -13.2104  -67.4828 H   0  0  0  0  0  0  0  0  0  0  0  0
   -3.6999  -14.5568  -68.4063 H   0  0  0  0  0  0  0  0  0  0  0  0
   -2.0414  -14.3392  -70.2593 H   0  0  0  0  0  0  0  0  0  0  0  0
   -0.9962  -11.1061  -71.8506 H   0  0  0  0  0  0  0  0  0  0  0  0
   -2.5863   -9.9277  -70.4594 H   0  0  0  0  0  0  0  0  0  0  0  0
   -3.4603   -8.9615  -68.5614 H   0  0  0  0  0  0  0  0  0  0  0  0
   -5.0159   -9.3066  -69.2624 H   0  0  0  0  0  0  0  0  0  0  0  0
   -3.9933   -9.9989  -66.4093 H   0  0  0  0  0  0  0  0  0  0  0  0
   -5.4482   -9.0207  -66.8473 H   0  0  0  0  0  0  0  0  0  0  0  0
   -6.4067  -11.0498  -67.8827 H   0  0  0  0  0  0  0  0  0  0  0  0
   -7.4679   -9.3184  -65.9855 H   0  0  0  0  0  0  0  0  0  0  0  0
   -8.6705   -9.4210  -63.8014 H   0  0  0  0  0  0  0  0  0  0  0  0
   -8.3426  -11.3898  -62.3072 H   0  0  0  0  0  0  0  0  0  0  0  0
   -6.8347  -13.2382  -62.9813 H   0  0  0  0  0  0  0  0  0  0  0  0
   -5.6246  -13.1290  -65.1619 H   0  0  0  0  0  0  0  0  0  0  0  0
  1  2  1  0
  1  6  1  0
  2  3  1  0
  2  4  1  0
  4  5  1  0
  5  6  1  0
  6  7  1  0
  7  8  1  0
  8  9  1  0
  9 10  1  0
 10 11  2  0
 10 13  1  0
 11 12  1  0
 12 15  2  0
 13 14  2  0
 14 15  1  0
 16 15  1  0
 16 17  1  0
 16 26  1  0
 17 18  2  0
 17 23  1  0
 18 19  1  0
 19 20  2  0
 20 21  1  0
 20 22  1  0
 22 23  2  0
 23 24  1  0
 24 25  1  0
 25 26  1  0
 26 27  1  0
 27 28  2  0
 27 32  1  0
 28 29  1  0
 29 30  2  0
 30 31  1  0
 31 32  2  0
  1 33  1  0
  1 34  1  0
  2 35  1  1
  3 36  1  0
  3 37  1  0
  3 38  1  0
  4 39  1  0
  4 40  1  0
  5 41  1  0
  5 42  1  0
  6 43  1  1
  7 44  1  0
  7 45  1  0
  8 46  1  0
  8 47  1  0
 11 48  1  0
 12 49  1  0
 13 50  1  0
 14 51  1  0
 16 52  1  6
 18 53  1  0
 19 54  1  0
 21 55  1  0
 22 56  1  0
 24 57  1  0
 24 58  1  0
 25 59  1  0
 25 60  1  0
 26 61  1  6
 28 62  1  0
 29 63  1  0
 30 64  1  0
 31 65  1  0
 32 66  1  0
M  CHG  1   6   1
M  END
>  <filename_input>  (8) 
7UJF_R3V_docked.sdf

>  <pdb_id>  (8) 
7UJF_R3V

>  <pose_rank>  (8) 
7

>  <num_atoms_heavy>  (8) 
32

>  <num_torsions>  (8) 
6

>  <pose>  (8) 
[-5.043592495023236, -12.473729326697528, -67.26774190307309, 2.8421527746050526, 0.17896976940239517, -1.5393967537198994, -2.2420345019713794, 2.5252210046934493, 0.6466669146240348, 2.605195683680271, -0.467691786529864, 1.66374208590801]

>  <energy>  (8) 
-280.92175280180334

>  <inter_energy>  (8) 
-482.3271571250256

>  <intra_energy>  (8) 
195.50856992506596

>  <rmsd>  (8) 
8.78576

>  <sdf_rank>  (8) 
0

$$$$

     RDKit          3D

 66 70  0  0  0  0  0  0  0  0999 V2000
   -4.4497  -15.7004  -60.2059 C   0  0  0  0  0  0  0  0  0  0  0  0
   -3.9024  -15.8497  -58.8255 C   0  0  1  0  0  0  0  0  0  0  0  0
   -5.0071  -16.4143  -57.8872 C   0  0  0  0  0  0  0  0  0  0  0  0
   -2.7669  -16.7623  -58.9372 C   0  0  0  0  0  0  0  0  0  0  0  0
   -2.3857  -16.7268  -60.4311 C   0  0  0  0  0  0  0  0  0  0  0  0
   -3.2157  -15.6402  -60.9590 N   0  0  1  0  0  0  0  0  0  0  0  0
   -3.4625  -15.7520  -62.3318 C   0  0  0  0  0  0  0  0  0  0  0  0
   -4.2234  -14.5091  -62.8280 C   0  0  0  0  0  0  0  0  0  0  0  0
   -3.3006  -13.7281  -63.5868 O   0  0  0  0  0  0  0  0  0  0  0  0
   -3.8128  -12.9986  -64.7036 C   0  0  0  0  0  0  0  0  0  0  0  0
   -3.0582  -12.9784  -66.0282 C   0  0  0  0  0  0  0  0  0  0  0  0
   -3.5469  -12.2742  -67.1103 C   0  0  0  0  0  0  0  0  0  0  0  0
   -4.9785  -12.3053  -64.5543 C   0  0  0  0  0  0  0  0  0  0  0  0
   -5.5040  -11.5227  -65.7559 C   0  0  0  0  0  0  0  0  0  0  0  0
   -4.8337  -11.4888  -66.9553 C   0  0  0  0  0  0  0  0  0  0  0  0
   -5.4319  -10.6987  -68.1085 C   0  0  2  0  0  0  0  0  0  0  0  0
   -4.3416  -10.4000  -68.9885 C   0  0  0  0  0  0  0  0  0  0  0  0
   -3.7203  -11.6062  -69.6738 C   0  0  0  0  0  0  0  0  0  0  0  0
   -2.6614  -11.3561  -70.5256 C   0  0  0  0  0  0  0  0  0  0  0  0
   -2.1379   -9.9375  -70.7612 C   0  0  0  0  0  0  0  0  0  0  0  0
   -1.0432   -9.7410  -71.6031 O   0  0  0  0  0  0  0  0  0  0  0  0
   -2.7132   -8.8384  -70.1622 C   0  0  0  0  0  0  0  0  0  0  0  0
   -3.8485   -9.1804  -69.2210 C   0  0  0  0  0  0  0  0  0  0  0  0
   -4.3002   -7.8081  -68.6511 C   0  0  0  0  0  0  0  0  0  0  0  0
   -5.0636   -8.2411  -67.3714 C   0  0  0  0  0  0  0  0  0  0  0  0
   -6.0389   -9.4029  -67.6765 C   0  0  2  0  0  0  0  0  0  0  0  0
   -6.9740   -9.6458  -66.4777 C   0  0  0  0  0  0  0  0  0  0  0  0
   -8.1316   -8.9088  -66.3177 C   0  0  0  0  0  0  0  0  0  0  0  0
   -8.9652   -9.1434  -65.2285 C   0  0  0  0  0  0  0  0  0  0  0  0
   -8.6248  -10.1323  -64.3087 C   0  0  0  0  0  0  0  0  0  0  0  0
   -7.4712  -10.8787  -64.4720 C   0  0  0  0  0  0  0  0  0  0  0  0
   -6.6372  -10.6406  -65.5601 C   0  0  0  0  0  0  0  0  0  0  0  0
   -5.0643  -16.5649  -60.4973 H   0  0  0  0  0  0  0  0  0  0  0  0
   -5.1220  -14.8414  -60.3478 H   0  0  0  0  0  0  0  0  0  0  0  0
   -3.5784  -14.8906  -58.3952 H   0  0  0  0  0  0  0  0  0  0  0  0
   -4.7105  -16.2627  -56.8389 H   0  0  0  0  0  0  0  0  0  0  0  0
   -5.9548  -15.8899  -58.0796 H   0  0  0  0  0  0  0  0  0  0  0  0
   -5.1374  -17.4894  -58.0796 H   0  0  0  0  0  0  0  0  0  0  0  0
   -1.9286  -16.4173  -58.3140 H   0  0  0  0  0  0  0  0  0  0  0  0
   -3.0122  -17.7778  -58.5930 H   0  0  0  0  0  0  0  0  0  0  0  0
   -1.3159  -16.5056  -60.5607 H   0  0  0  0  0  0  0  0  0  0  0  0
   -2.5515  -17.6861  -60.9431 H   0  0  0  0  0  0  0  0  0  0  0  0
   -2.7312  -14.7373  -60.8540 H   0  0  0  0  0  0  0  0  0  0  0  0
   -2.5063  -15.8334  -62.8693 H   0  0  0  0  0  0  0  0  0  0  0  0
   -4.0709  -16.6491  -62.5195 H   0  0  0  0  0  0  0  0  0  0  0  0
   -5.0705  -14.8127  -63.4607 H   0  0  0  0  0  0  0  0  0  0  0  0
   -4.6232  -13.9308  -61.9819 H   0  0  0  0  0  0  0  0  0  0  0  0
   -2.1124  -13.5320  -66.1228 H   0  0  0  0  0  0  0  0  0  0  0  0
   -3.0104  -12.2830  -68.0706 H   0  0  0  0  0  0  0  0  0  0  0  0
   -5.5228  -12.3099  -63.5984 H   0  0  0  0  0  0  0  0  0  0  0  0
   -6.4491  -10.9684  -65.6584 H   0  0  0  0  0  0  0  0  0  0  0  0
   -6.2328  -11.2934  -68.5720 H   0  0  0  0  0  0  0  0  0  0  0  0
   -4.0945  -12.6260  -69.5006 H   0  0  0  0  0  0  0  0  0  0  0  0
   -2.1827  -12.1978  -71.0475 H   0  0  0  0  0  0  0  0  0  0  0  0
   -0.6981   -8.8266  -71.7611 H   0  0  0  0  0  0  0  0  0  0  0  0
   -2.3786   -7.8076  -70.3504 H   0  0  0  0  0  0  0  0  0  0  0  0
   -3.4375   -7.1703  -68.4081 H   0  0  0  0  0  0  0  0  0  0  0  0
   -4.9008   -7.2078  -69.3503 H   0  0  0  0  0  0  0  0  0  0  0  0
   -4.3378   -8.5699  -66.6130 H   0  0  0  0  0  0  0  0  0  0  0  0
   -5.6440   -7.3831  -67.0012 H   0  0  0  0  0  0  0  0  0  0  0  0
   -6.5910   -9.0506  -68.5603 H   0  0  0  0  0  0  0  0  0  0  0  0
   -8.3949   -8.1345  -67.0532 H   0  0  0  0  0  0  0  0  0  0  0  0
   -9.8841   -8.5536  -65.0953 H   0  0  0  0  0  0  0  0  0  0  0  0
   -9.2789  -10.3216  -63.4448 H   0  0  0  0  0  0  0  0  0  0  0  0
   -7.2135  -11.6599  -63.7418 H   0  0  0  0  0  0  0  0  0  0  0  0
   -5.7197  -11.2322  -65.6955 H   0  0  0  0  0  0  0  0  0  0  0  0
  1  2  1  0
  1  6  1  0
  2  3  1  0
  2  4  1  0
  4  5  1  0
  5  6  1  0
  6  7  1  0
  7  8  1  0
  8  9  1  0
  9 10  1  0
 10 11  2  0
 10 13  1  0
 11 12  1  0
 12 15  2  0
 13 14  2  0
 14 15  1  0
 16 15  1  0
 16 17  1  0
 16 26  1  0
 17 18  2  0
 17 23  1  0
 18 19  1  0
 19 20  2  0
 20 21  1  0
 20 22  1  0
 22 23  2  0
 23 24  1  0
 24 25  1  0
 25 26  1  0
 26 27  1  0
 27 28  2  0
 27 32  1  0
 28 29  1  0
 29 30  2  0
 30 31  1  0
 31 32  2  0
  1 33  1  0
  1 34  1  0
  2 35  1  1
  3 36  1  0
  3 37  1  0
  3 38  1  0
  4 39  1  0
  4 40  1  0
  5 41  1  0
  5 42  1  0
  6 43  1  6
  7 44  1  0
  7 45  1  0
  8 46  1  0
  8 47  1  0
 11 48  1  0
 12 49  1  0
 13 50  1  0
 14 51  1  0
 16 52  1  6
 18 53  1  0
 19 54  1  0
 21 55  1  0
 22 56  1  0
 24 57  1  0
 24 58  1  0
 25 59  1  0
 25 60  1  0
 26 61  1  6
 28 62  1  0
 29 63  1  0
 30 64  1  0
 31 65  1  0
 32 66  1  0
M  CHG  1   6   1
M  END
>  <filename_input>  (9) 
7UJF_R3V_docked.sdf

>  <pdb_id>  (9) 
7UJF_R3V

>  <pose_rank>  (9) 
8

>  <num_atoms_heavy>  (9) 
32

>  <num_torsions>  (9) 
6

>  <pose>  (9) 
[-5.4318978144223475, -10.698661872329511, -68.10849814905951, 3.143794192432832, 0.24785688070823536, -1.419201039036353, -1.2146817085553199, -0.048578925307816836, 5.821322836992271, -2.7468967938775513, -0.09043725417349045, 2.1212441680723617]

>  <energy>  (9) 
-45.215380121568955

>  <inter_energy>  (9) 
-483.2036644322527

>  <intra_energy>  (9) 
442.605223693677

>  <rmsd>  (9) 
9.79635

>  <sdf_rank>  (9) 
0

$$$$

     RDKit          3D

 66 70  0  0  0  0  0  0  0  0999 V2000
   -2.3363  -13.5810  -62.3169 C   0  0  0  0  0  0  0  0  0  0  0  0
   -1.7225  -14.8021  -61.7172 C   0  0  1  0  0  0  0  0  0  0  0  0
   -1.0550  -14.4351  -60.3611 C   0  0  0  0  0  0  0  0  0  0  0  0
   -2.8126  -15.7593  -61.5440 C   0  0  0  0  0  0  0  0  0  0  0  0
   -3.9220  -15.2602  -62.4919 C   0  0  0  0  0  0  0  0  0  0  0  0
   -3.2568  -14.1958  -63.2488 N   0  0  1  0  0  0  0  0  0  0  0  0
   -4.1473  -13.2497  -63.7686 C   0  0  0  0  0  0  0  0  0  0  0  0
   -3.7974  -12.9567  -65.2388 C   0  0  0  0  0  0  0  0  0  0  0  0
   -5.0298  -12.8737  -65.9543 O   0  0  0  0  0  0  0  0  0  0  0  0
   -5.6594  -11.5940  -66.0415 C   0  0  0  0  0  0  0  0  0  0  0  0
   -5.2043  -10.5755  -67.0808 C   0  0  0  0  0  0  0  0  0  0  0  0
   -5.8073   -9.3368  -67.1691 C   0  0  0  0  0  0  0  0  0  0  0  0
   -6.6606  -11.2953  -65.1640 C   0  0  0  0  0  0  0  0  0  0  0  0
   -7.3135   -9.9183  -65.2658 C   0  0  0  0  0  0  0  0  0  0  0  0
   -6.9119   -8.9862  -66.1925 C   0  0  0  0  0  0  0  0  0  0  0  0
   -7.6240   -7.6436  -66.2393 C   0  0  2  0  0  0  0  0  0  0  0  0
   -8.7540   -7.7666  -65.3674 C   0  0  0  0  0  0  0  0  0  0  0  0
   -8.4143   -7.9331  -63.8952 C   0  0  0  0  0  0  0  0  0  0  0  0
   -9.4803   -8.0611  -63.0252 C   0  0  0  0  0  0  0  0  0  0  0  0
  -10.9281   -8.0423  -63.5206 C   0  0  0  0  0  0  0  0  0  0  0  0
  -11.9683   -8.2111  -62.6069 O   0  0  0  0  0  0  0  0  0  0  0  0
  -11.2421   -7.8666  -64.8505 C   0  0  0  0  0  0  0  0  0  0  0  0
  -10.0326   -7.7605  -65.7546 C   0  0  0  0  0  0  0  0  0  0  0  0
  -10.6316   -7.6085  -67.1794 C   0  0  0  0  0  0  0  0  0  0  0  0
   -9.4246   -8.0132  -68.0668 C   0  0  0  0  0  0  0  0  0  0  0  0
   -8.1331   -7.2991  -67.6017 C   0  0  2  0  0  0  0  0  0  0  0  0
   -7.0103   -7.4957  -68.6367 C   0  0  0  0  0  0  0  0  0  0  0  0
   -5.9170   -8.2931  -68.3575 C   0  0  0  0  0  0  0  0  0  0  0  0
   -4.9126   -8.4600  -69.3059 C   0  0  0  0  0  0  0  0  0  0  0  0
   -5.0254   -7.8228  -70.5392 C   0  0  0  0  0  0  0  0  0  0  0  0
   -6.1240   -7.0317  -70.8252 C   0  0  0  0  0  0  0  0  0  0  0  0
   -7.1261   -6.8635  -69.8744 C   0  0  0  0  0  0  0  0  0  0  0  0
   -2.8615  -12.9757  -61.5633 H   0  0  0  0  0  0  0  0  0  0  0  0
   -1.6219  -12.8762  -62.7673 H   0  0  0  0  0  0  0  0  0  0  0  0
   -0.9355  -15.2332  -62.3534 H   0  0  0  0  0  0  0  0  0  0  0  0
   -1.6900  -14.7842  -59.5335 H   0  0  0  0  0  0  0  0  0  0  0  0
   -0.0688  -14.9179  -60.2953 H   0  0  0  0  0  0  0  0  0  0  0  0
   -0.9341  -13.3437  -60.2953 H   0  0  0  0  0  0  0  0  0  0  0  0
   -2.4884  -16.7722  -61.8248 H   0  0  0  0  0  0  0  0  0  0  0  0
   -3.1523  -15.8205  -60.4995 H   0  0  0  0  0  0  0  0  0  0  0  0
   -4.2634  -16.0654  -63.1591 H   0  0  0  0  0  0  0  0  0  0  0  0
   -4.8223  -14.9165  -61.9615 H   0  0  0  0  0  0  0  0  0  0  0  0
   -2.7818  -14.5878  -64.0743 H   0  0  0  0  0  0  0  0  0  0  0  0
   -5.1731  -13.6423  -63.7086 H   0  0  0  0  0  0  0  0  0  0  0  0
   -4.0712  -12.3204  -63.1850 H   0  0  0  0  0  0  0  0  0  0  0  0
   -3.2522  -12.0043  -65.3145 H   0  0  0  0  0  0  0  0  0  0  0  0
   -3.1557  -13.7478  -65.6541 H   0  0  0  0  0  0  0  0  0  0  0  0
   -4.3851  -10.8309  -67.7690 H   0  0  0  0  0  0  0  0  0  0  0  0
   -5.4909   -8.6152  -67.9367 H   0  0  0  0  0  0  0  0  0  0  0  0
   -6.9874  -12.0234  -64.4069 H   0  0  0  0  0  0  0  0  0  0  0  0
   -8.1313   -9.6645  -64.5753 H   0  0  0  0  0  0  0  0  0  0  0  0
   -6.9165   -6.8532  -65.9481 H   0  0  0  0  0  0  0  0  0  0  0  0
   -7.3732   -7.9509  -63.5404 H   0  0  0  0  0  0  0  0  0  0  0  0
   -9.2832   -8.1795  -61.9495 H   0  0  0  0  0  0  0  0  0  0  0  0
  -12.9078   -8.2002  -62.9189 H   0  0  0  0  0  0  0  0  0  0  0  0
  -12.2762   -7.8088  -65.2211 H   0  0  0  0  0  0  0  0  0  0  0  0
  -11.4860   -8.2847  -67.3303 H   0  0  0  0  0  0  0  0  0  0  0  0
  -11.0299   -6.6059  -67.3940 H   0  0  0  0  0  0  0  0  0  0  0  0
   -9.2781   -9.1014  -68.0010 H   0  0  0  0  0  0  0  0  0  0  0  0
   -9.6362   -7.7160  -69.1046 H   0  0  0  0  0  0  0  0  0  0  0  0
   -8.4358   -6.2446  -67.5229 H   0  0  0  0  0  0  0  0  0  0  0  0
   -5.8405   -8.7973  -67.3828 H   0  0  0  0  0  0  0  0  0  0  0  0
   -4.0380   -9.0891  -69.0837 H   0  0  0  0  0  0  0  0  0  0  0  0
   -4.2340   -7.9496  -71.2926 H   0  0  0  0  0  0  0  0  0  0  0  0
   -6.2052   -6.5360  -71.8038 H   0  0  0  0  0  0  0  0  0  0  0  0
   -8.0023   -6.2370  -70.0972 H   0  0  0  0  0  0  0  0  0  0  0  0
  1  2  1  0
  1  6  1  0
  2  3  1  0
  2  4  1  0
  4  5  1  0
  5  6  1  0
  6  7  1  0
  7  8  1  0
  8  9  1  0
  9 10  1  0
 10 11  2  0
 10 13  1  0
 11 12  1  0
 12 15  2  0
 13 14  2  0
 14 15  1  0
 16 15  1  0
 16 17  1  0
 16 26  1  0
 17 18  2  0
 17 23  1  0
 18 19  1  0
 19 20  2  0
 20 21  1  0
 20 22  1  0
 22 23  2  0
 23 24  1  0
 24 25  1  0
 25 26  1  0
 26 27  1  0
 27 28  2  0
 27 32  1  0
 28 29  1  0
 29 30  2  0
 30 31  1  0
 31 32  2  0
  1 33  1  0
  1 34  1  0
  2 35  1  6
  3 36  1  0
  3 37  1  0
  3 38  1  0
  4 39  1  0
  4 40  1  0
  5 41  1  0
  5 42  1  0
  6 43  1  6
  7 44  1  0
  7 45  1  0
  8 46  1  0
  8 47  1  0
 11 48  1  0
 12 49  1  0
 13 50  1  0
 14 51  1  0
 16 52  1  1
 18 53  1  0
 19 54  1  0
 21 55  1  0
 22 56  1  0
 24 57  1  0
 24 58  1  0
 25 59  1  0
 25 60  1  0
 26 61  1  1
 28 62  1  0
 29 63  1  0
 30 64  1  0
 31 65  1  0
 32 66  1  0
M  CHG  1   6   1
M  END
>  <filename_input>  (10) 
7UJF_R3V_docked.sdf

>  <pdb_id>  (10) 
7UJF_R3V

>  <pose_rank>  (10) 
9

>  <num_atoms_heavy>  (10) 
32

>  <num_torsions>  (10) 
6

>  <pose>  (10) 
[-7.6239849201786365, -7.643568943546406, -66.23929255552964, 0.8389742026440303, 2.571083655983397, 2.326114892374516, 8.441397779905829, 3.7566822834925078, -1.4540471418869538, 10.37076598815897, 0.6188547075490708, -1.2780117412713539]

>  <energy>  (10) 
-5.86080645152316

>  <inter_energy>  (10) 
-391.03123309235957

>  <intra_energy>  (10) 
389.2327240020726

>  <rmsd>  (10) 
11.4775

>  <sdf_rank>  (10) 
0

$$$$

     RDKit          3D

 66 70  0  0  0  0  0  0  0  0999 V2000
   -2.3695  -12.8258  -67.0775 C   0  0  0  0  0  0  0  0  0  0  0  0
   -2.7482  -13.1998  -68.4718 C   0  0  1  0  0  0  0  0  0  0  0  0
   -1.4680  -13.5598  -69.2786 C   0  0  0  0  0  0  0  0  0  0  0  0
   -3.6533  -14.3405  -68.3529 C   0  0  0  0  0  0  0  0  0  0  0  0
   -4.1597  -14.2843  -66.8973 C   0  0  0  0  0  0  0  0  0  0  0  0
   -3.6453  -12.9986  -66.4170 N   0  0  1  0  0  0  0  0  0  0  0  0
   -3.4985  -12.9482  -65.0264 C   0  0  0  0  0  0  0  0  0  0  0  0
   -4.8455  -12.5911  -64.3722 C   0  0  0  0  0  0  0  0  0  0  0  0
   -5.8050  -12.4792  -65.4230 O   0  0  0  0  0  0  0  0  0  0  0  0
   -6.5150  -11.2448  -65.5420 C   0  0  0  0  0  0  0  0  0  0  0  0
   -7.8835  -11.0721  -64.8924 C   0  0  0  0  0  0  0  0  0  0  0  0
   -8.5752   -9.8827  -65.0051 C   0  0  0  0  0  0  0  0  0  0  0  0
   -5.9532  -10.2329  -66.2646 C   0  0  0  0  0  0  0  0  0  0  0  0
   -6.7324   -8.9253  -66.3896 C   0  0  0  0  0  0  0  0  0  0  0  0
   -7.9694   -8.7545  -65.8156 C   0  0  0  0  0  0  0  0  0  0  0  0
   -8.6734   -7.4160  -65.9733 C   0  0  2  0  0  0  0  0  0  0  0  0
   -8.4567   -7.0148  -67.3314 C   0  0  0  0  0  0  0  0  0  0  0  0
   -9.1297   -7.8911  -68.3753 C   0  0  0  0  0  0  0  0  0  0  0  0
   -8.9370   -7.5372  -69.6970 C   0  0  0  0  0  0  0  0  0  0  0  0
   -8.0841   -6.3284  -70.0888 C   0  0  0  0  0  0  0  0  0  0  0  0
   -7.8906   -6.0334  -71.4383 O   0  0  0  0  0  0  0  0  0  0  0  0
   -7.4926   -5.5164  -69.1461 C   0  0  0  0  0  0  0  0  0  0  0  0
   -7.7176   -5.9720  -67.7201 C   0  0  0  0  0  0  0  0  0  0  0  0
   -6.9380   -4.9398  -66.8607 C   0  0  0  0  0  0  0  0  0  0  0  0
   -6.7721   -5.7122  -65.5250 C   0  0  0  0  0  0  0  0  0  0  0  0
   -8.1112   -6.3519  -65.0870 C   0  0  2  0  0  0  0  0  0  0  0  0
   -8.0043   -6.8842  -63.6462 C   0  0  0  0  0  0  0  0  0  0  0  0
   -9.0096   -7.6562  -63.0966 C   0  0  0  0  0  0  0  0  0  0  0  0
   -8.8948   -8.1296  -61.7932 C   0  0  0  0  0  0  0  0  0  0  0  0
   -7.7546   -7.8242  -61.0539 C   0  0  0  0  0  0  0  0  0  0  0  0
   -6.7418   -7.0595  -61.6052 C   0  0  0  0  0  0  0  0  0  0  0  0
   -6.8597   -6.5845  -62.9078 C   0  0  0  0  0  0  0  0  0  0  0  0
   -1.6028  -13.4997  -66.6677 H   0  0  0  0  0  0  0  0  0  0  0  0
   -1.9235  -11.8259  -66.9704 H   0  0  0  0  0  0  0  0  0  0  0  0
   -3.2424  -12.3768  -69.0088 H   0  0  0  0  0  0  0  0  0  0  0  0
   -0.6484  -13.7903  -68.5822 H   0  0  0  0  0  0  0  0  0  0  0  0
   -1.6683  -14.4365  -69.9122 H   0  0  0  0  0  0  0  0  0  0  0  0
   -1.1820  -12.7073  -69.9122 H   0  0  0  0  0  0  0  0  0  0  0  0
   -4.4911  -14.2469  -69.0595 H   0  0  0  0  0  0  0  0  0  0  0  0
   -3.1562  -15.2938  -68.5854 H   0  0  0  0  0  0  0  0  0  0  0  0
   -5.2588  -14.3089  -66.8601 H   0  0  0  0  0  0  0  0  0  0  0  0
   -3.8259  -15.1383  -66.2896 H   0  0  0  0  0  0  0  0  0  0  0  0
   -4.3105  -12.2434  -66.6365 H   0  0  0  0  0  0  0  0  0  0  0  0
   -3.1628  -13.9292  -64.6589 H   0  0  0  0  0  0  0  0  0  0  0  0
   -2.7542  -12.1808  -64.7674 H   0  0  0  0  0  0  0  0  0  0  0  0
   -5.1456  -13.3826  -63.6698 H   0  0  0  0  0  0  0  0  0  0  0  0
   -4.7699  -11.6494  -63.8087 H   0  0  0  0  0  0  0  0  0  0  0  0
   -8.3252  -11.9057  -64.3268 H   0  0  0  0  0  0  0  0  0  0  0  0
   -9.5513   -9.7559  -64.5140 H   0  0  0  0  0  0  0  0  0  0  0  0
   -4.9698  -10.3550  -66.7421 H   0  0  0  0  0  0  0  0  0  0  0  0
   -6.2895   -8.0937  -66.9573 H   0  0  0  0  0  0  0  0  0  0  0  0
   -9.7333   -7.5356  -65.7044 H   0  0  0  0  0  0  0  0  0  0  0  0
   -9.7390   -8.7623  -68.0930 H   0  0  0  0  0  0  0  0  0  0  0  0
   -9.4084   -8.1395  -70.4876 H   0  0  0  0  0  0  0  0  0  0  0  0
   -7.3403   -5.2534  -71.7004 H   0  0  0  0  0  0  0  0  0  0  0  0
   -6.9106   -4.6198  -69.4056 H   0  0  0  0  0  0  0  0  0  0  0  0
   -5.9630   -4.6983  -67.3090 H   0  0  0  0  0  0  0  0  0  0  0  0
   -7.4441   -3.9686  -66.7574 H   0  0  0  0  0  0  0  0  0  0  0  0
   -6.0210   -6.5047  -65.6581 H   0  0  0  0  0  0  0  0  0  0  0  0
   -6.4500   -5.0041  -64.7473 H   0  0  0  0  0  0  0  0  0  0  0  0
   -8.8302   -5.5229  -65.1637 H   0  0  0  0  0  0  0  0  0  0  0  0
   -9.9032   -7.8974  -63.6910 H   0  0  0  0  0  0  0  0  0  0  0  0
   -9.6967   -8.7391  -61.3510 H   0  0  0  0  0  0  0  0  0  0  0  0
   -7.6585   -8.1942  -60.0224 H   0  0  0  0  0  0  0  0  0  0  0  0
   -5.8437   -6.8273  -61.0140 H   0  0  0  0  0  0  0  0  0  0  0  0
   -6.0567   -5.9775  -63.3515 H   0  0  0  0  0  0  0  0  0  0  0  0
  1  2  1  0
  1  6  1  0
  2  3  1  0
  2  4  1  0
  4  5  1  0
  5  6  1  0
  6  7  1  0
  7  8  1  0
  8  9  1  0
  9 10  1  0
 10 11  2  0
 10 13  1  0
 11 12  1  0
 12 15  2  0
 13 14  2  0
 14 15  1  0
 16 15  1  0
 16 17  1  0
 16 26  1  0
 17 18  2  0
 17 23  1  0
 18 19  1  0
 19 20  2  0
 20 21  1  0
 20 22  1  0
 22 23  2  0
 23 24  1  0
 24 25  1  0
 25 26  1  0
 26 27  1  0
 27 28  2  0
 27 32  1  0
 28 29  1  0
 29 30  2  0
 30 31  1  0
 31 32  2  0
  1 33  1  0
  1 34  1  0
  2 35  1  6
  3 36  1  0
  3 37  1  0
  3 38  1  0
  4 39  1  0
  4 40  1  0
  5 41  1  0
  5 42  1  0
  6 43  1  6
  7 44  1  0
  7 45  1  0
  8 46  1  0
  8 47  1  0
 11 48  1  0
 12 49  1  0
 13 50  1  0
 14 51  1  0
 16 52  1  6
 18 53  1  0
 19 54  1  0
 21 55  1  0
 22 56  1  0
 24 57  1  0
 24 58  1  0
 25 59  1  0
 25 60  1  0
 26 61  1  1
 28 62  1  0
 29 63  1  0
 30 64  1  0
 31 65  1  0
 32 66  1  0
M  CHG  1   6   1
M  END
>  <filename_input>  (11) 
7UJF_R3V_docked.sdf

>  <pdb_id>  (11) 
7UJF_R3V

>  <pose_rank>  (11) 
10

>  <num_atoms_heavy>  (11) 
32

>  <num_torsions>  (11) 
6

>  <pose>  (11) 
[-8.673390543210669, -7.416005728680553, -65.97330108362911, 2.6270885628731464, -0.5271415720952898, -2.907056836550186, 3.0395516659134154, 0.6802517441357703, 1.11688107656155, 1.7027822154279004, 1.5007871137970321, 3.938050545889065]

>  <energy>  (11) 
-333.98704463787675

>  <inter_energy>  (11) 
-426.33599989541193

>  <intra_energy>  (11) 
81.13270537730834

>  <rmsd>  (11) 
10.7956

>  <sdf_rank>  (11) 
0

$$$$

     RDKit          3D

 66 70  0  0  0  0  0  0  0  0999 V2000
   -3.2074  -12.9142  -69.1434 C   0  0  0  0  0  0  0  0  0  0  0  0
   -1.9738  -12.8362  -69.9797 C   0  0  1  0  0  0  0  0  0  0  0  0
   -2.0979  -11.6506  -70.9789 C   0  0  0  0  0  0  0  0  0  0  0  0
   -0.8647  -12.6466  -69.0478 C   0  0  0  0  0  0  0  0  0  0  0  0
   -1.4185  -13.1109  -67.6855 C   0  0  0  0  0  0  0  0  0  0  0  0
   -2.7108  -13.7055  -68.0385 N   0  0  1  0  0  0  0  0  0  0  0  0
   -3.6236  -13.7104  -66.9779 C   0  0  0  0  0  0  0  0  0  0  0  0
   -4.6876  -12.6204  -67.2004 C   0  0  0  0  0  0  0  0  0  0  0  0
   -4.5300  -11.6614  -66.1549 O   0  0  0  0  0  0  0  0  0  0  0  0
   -5.2122  -10.4135  -66.2934 C   0  0  0  0  0  0  0  0  0  0  0  0
   -4.4289   -9.1106  -66.4094 C   0  0  0  0  0  0  0  0  0  0  0  0
   -5.0820   -7.9016  -66.5417 C   0  0  0  0  0  0  0  0  0  0  0  0
   -6.5767  -10.4098  -66.2992 C   0  0  0  0  0  0  0  0  0  0  0  0
   -7.2876   -9.0651  -66.4368 C   0  0  0  0  0  0  0  0  0  0  0  0
   -6.5974   -7.8809  -66.5366 C   0  0  0  0  0  0  0  0  0  0  0  0
   -7.3796   -6.5857  -66.6866 C   0  0  2  0  0  0  0  0  0  0  0  0
   -8.5908   -6.7690  -65.9439 C   0  0  0  0  0  0  0  0  0  0  0  0
   -8.4091   -6.8976  -64.4402 C   0  0  0  0  0  0  0  0  0  0  0  0
   -9.5562   -7.0819  -63.6922 C   0  0  0  0  0  0  0  0  0  0  0  0
  -10.9377   -7.1586  -64.3459 C   0  0  0  0  0  0  0  0  0  0  0  0
  -12.0618   -7.3815  -63.5508 O   0  0  0  0  0  0  0  0  0  0  0  0
  -11.1106   -7.0177  -65.7054 C   0  0  0  0  0  0  0  0  0  0  0  0
   -9.8159   -6.8467  -66.4710 C   0  0  0  0  0  0  0  0  0  0  0  0
  -10.2593   -6.7482  -67.9562 C   0  0  0  0  0  0  0  0  0  0  0  0
   -8.9381   -7.0870  -68.6963 C   0  0  0  0  0  0  0  0  0  0  0  0
   -7.7525   -6.2888  -68.1033 C   0  0  2  0  0  0  0  0  0  0  0  0
   -6.5108   -6.4268  -69.0030 C   0  0  0  0  0  0  0  0  0  0  0  0
   -6.3046   -7.5630  -69.7616 C   0  0  0  0  0  0  0  0  0  0  0  0
   -5.1771   -7.6692  -70.5701 C   0  0  0  0  0  0  0  0  0  0  0  0
   -4.2656   -6.6169  -70.6122 C   0  0  0  0  0  0  0  0  0  0  0  0
   -4.4747   -5.4738  -69.8612 C   0  0  0  0  0  0  0  0  0  0  0  0
   -5.6013   -5.3705  -69.0509 C   0  0  0  0  0  0  0  0  0  0  0  0
   -3.5419  -11.9190  -68.8152 H   0  0  0  0  0  0  0  0  0  0  0  0
   -4.0881  -13.3313  -69.6537 H   0  0  0  0  0  0  0  0  0  0  0  0
   -1.8146  -13.7438  -70.5805 H   0  0  0  0  0  0  0  0  0  0  0  0
   -2.1966  -10.7085  -70.4196 H   0  0  0  0  0  0  0  0  0  0  0  0
   -1.1993  -11.6088  -71.6119 H   0  0  0  0  0  0  0  0  0  0  0  0
   -2.9858  -11.7959  -71.6119 H   0  0  0  0  0  0  0  0  0  0  0  0
    0.0005  -13.2579  -69.3442 H   0  0  0  0  0  0  0  0  0  0  0  0
   -0.5142  -11.6042  -69.0227 H   0  0  0  0  0  0  0  0  0  0  0  0
   -0.7545  -13.8553  -67.2220 H   0  0  0  0  0  0  0  0  0  0  0  0
   -1.5031  -12.2955  -66.9520 H   0  0  0  0  0  0  0  0  0  0  0  0
   -2.5917  -14.6986  -68.2846 H   0  0  0  0  0  0  0  0  0  0  0  0
   -4.1140  -14.6935  -66.9228 H   0  0  0  0  0  0  0  0  0  0  0  0
   -3.0890  -13.5096  -66.0378 H   0  0  0  0  0  0  0  0  0  0  0  0
   -4.5375  -12.1404  -68.1787 H   0  0  0  0  0  0  0  0  0  0  0  0
   -5.6994  -13.0519  -67.1869 H   0  0  0  0  0  0  0  0  0  0  0  0
   -3.3293   -9.1343  -66.3875 H   0  0  0  0  0  0  0  0  0  0  0  0
   -4.5112   -6.9675  -66.6492 H   0  0  0  0  0  0  0  0  0  0  0  0
   -7.1468  -11.3461  -66.2077 H   0  0  0  0  0  0  0  0  0  0  0  0
   -8.3872   -9.0438  -66.4567 H   0  0  0  0  0  0  0  0  0  0  0  0
   -6.7584   -5.7497  -66.3328 H   0  0  0  0  0  0  0  0  0  0  0  0
   -7.4152   -6.8466  -63.9715 H   0  0  0  0  0  0  0  0  0  0  0  0
   -9.4743   -7.1757  -62.5993 H   0  0  0  0  0  0  0  0  0  0  0  0
  -12.9593   -7.4326  -63.9656 H   0  0  0  0  0  0  0  0  0  0  0  0
  -12.0981   -7.0284  -66.1898 H   0  0  0  0  0  0  0  0  0  0  0  0
  -11.0488   -7.4778  -68.1891 H   0  0  0  0  0  0  0  0  0  0  0  0
  -10.6910   -5.7747  -68.2318 H   0  0  0  0  0  0  0  0  0  0  0  0
   -8.7342   -8.1632  -68.5949 H   0  0  0  0  0  0  0  0  0  0  0  0
   -9.0494   -6.8151  -69.7563 H   0  0  0  0  0  0  0  0  0  0  0  0
   -8.1254   -5.2543  -68.0777 H   0  0  0  0  0  0  0  0  0  0  0  0
   -7.0338   -8.3858  -69.7263 H   0  0  0  0  0  0  0  0  0  0  0  0
   -5.0073   -8.5754  -71.1700 H   0  0  0  0  0  0  0  0  0  0  0  0
   -3.3716   -6.6953  -71.2481 H   0  0  0  0  0  0  0  0  0  0  0  0
   -3.7506   -4.6469  -69.9046 H   0  0  0  0  0  0  0  0  0  0  0  0
   -5.7732   -4.4633  -68.4531 H   0  0  0  0  0  0  0  0  0  0  0  0
  1  2  1  0
  1  6  1  0
  2  3  1  0
  2  4  1  0
  4  5  1  0
  5  6  1  0
  6  7  1  0
  7  8  1  0
  8  9  1  0
  9 10  1  0
 10 11  2  0
 10 13  1  0
 11 12  1  0
 12 15  2  0
 13 14  2  0
 14 15  1  0
 16 15  1  0
 16 17  1  0
 16 26  1  0
 17 18  2  0
 17 23  1  0
 18 19  1  0
 19 20  2  0
 20 21  1  0
 20 22  1  0
 22 23  2  0
 23 24  1  0
 24 25  1  0
 25 26  1  0
 26 27  1  0
 27 28  2  0
 27 32  1  0
 28 29  1  0
 29 30  2  0
 30 31  1  0
 31 32  2  0
  1 33  1  0
  1 34  1  0
  2 35  1  6
  3 36  1  0
  3 37  1  0
  3 38  1  0
  4 39  1  0
  4 40  1  0
  5 41  1  0
  5 42  1  0
  6 43  1  6
  7 44  1  0
  7 45  1  0
  8 46  1  0
  8 47  1  0
 11 48  1  0
 12 49  1  0
 13 50  1  0
 14 51  1  0
 16 52  1  1
 18 53  1  0
 19 54  1  0
 21 55  1  0
 22 56  1  0
 24 57  1  0
 24 58  1  0
 25 59  1  0
 25 60  1  0
 26 61  1  1
 28 62  1  0
 29 63  1  0
 30 64  1  0
 31 65  1  0
 32 66  1  0
M  CHG  1   6   1
M  END
>  <filename_input>  (12) 
7UJF_R3V_docked.sdf

>  <pdb_id>  (12) 
7UJF_R3V

>  <pose_rank>  (12) 
11

>  <num_atoms_heavy>  (12) 
32

>  <num_torsions>  (12) 
6

>  <pose>  (12) 
[-7.379633959647306, -6.585672865300227, -66.68661657170553, -0.48811387964934344, -2.0429202274356113, -1.7917638259043476, 9.175452393205935, 6.584987360211002, -18.946402665836874, 31.074696116514016, 11.073527551883101, 0.127605258274216]

>  <energy>  (12) 
-227.12805952112225

>  <inter_energy>  (12) 
-278.02227042015414

>  <intra_energy>  (12) 
47.341972420609316

>  <rmsd>  (12) 
11.7201

>  <sdf_rank>  (12) 
0

$$$$

     RDKit          3D

 66 70  0  0  0  0  0  0  0  0999 V2000
   -3.2886  -13.6124  -67.3459 C   0  0  0  0  0  0  0  0  0  0  0  0
   -1.8137  -13.5290  -67.5583 C   0  0  1  0  0  0  0  0  0  0  0  0
   -1.5209  -12.7275  -68.8588 C   0  0  0  0  0  0  0  0  0  0  0  0
   -1.2720  -12.8624  -66.3765 C   0  0  0  0  0  0  0  0  0  0  0  0
   -2.3689  -13.0210  -65.3041 C   0  0  0  0  0  0  0  0  0  0  0  0
   -3.3202  -13.9392  -65.9367 N   0  0  1  0  0  0  0  0  0  0  0  0
   -4.6184  -13.8256  -65.4268 C   0  0  0  0  0  0  0  0  0  0  0  0
   -4.8680  -12.3826  -64.9523 C   0  0  0  0  0  0  0  0  0  0  0  0
   -5.5126  -11.6947  -66.0240 O   0  0  0  0  0  0  0  0  0  0  0  0
   -6.3613  -10.5950  -65.6890 C   0  0  0  0  0  0  0  0  0  0  0  0
   -6.5924   -9.4631  -66.6839 C   0  0  0  0  0  0  0  0  0  0  0  0
   -7.4098   -8.3971  -66.3657 C   0  0  0  0  0  0  0  0  0  0  0  0
   -6.9434  -10.5688  -64.4552 C   0  0  0  0  0  0  0  0  0  0  0  0
   -7.8381   -9.3797  -64.1117 C   0  0  0  0  0  0  0  0  0  0  0  0
   -8.0526   -8.3481  -64.9942 C   0  0  0  0  0  0  0  0  0  0  0  0
   -8.9701   -7.2079  -64.5816 C   0  0  2  0  0  0  0  0  0  0  0  0
   -8.4115   -6.6690  -63.3775 C   0  0  0  0  0  0  0  0  0  0  0  0
   -7.0611   -5.9911  -63.5431 C   0  0  0  0  0  0  0  0  0  0  0  0
   -6.4891   -5.4649  -62.4006 C   0  0  0  0  0  0  0  0  0  0  0  0
   -7.1779   -5.5657  -61.0378 C   0  0  0  0  0  0  0  0  0  0  0  0
   -6.5429   -5.0500  -59.9080 O   0  0  0  0  0  0  0  0  0  0  0  0
   -8.4131   -6.1568  -60.8864 C   0  0  0  0  0  0  0  0  0  0  0  0
   -8.9733   -6.7374  -62.1674 C   0  0  0  0  0  0  0  0  0  0  0  0
  -10.3267   -7.3690  -61.7419 C   0  0  0  0  0  0  0  0  0  0  0  0
  -10.5911   -8.3517  -62.9134 C   0  0  0  0  0  0  0  0  0  0  0  0
  -10.3624   -7.6587  -64.2778 C   0  0  2  0  0  0  0  0  0  0  0  0
  -10.8776   -8.5490  -65.4235 C   0  0  0  0  0  0  0  0  0  0  0  0
  -11.2563   -9.8575  -65.1924 C   0  0  0  0  0  0  0  0  0  0  0  0
  -11.7208  -10.6467  -66.2401 C   0  0  0  0  0  0  0  0  0  0  0  0
  -11.8072  -10.1018  -67.5189 C   0  0  0  0  0  0  0  0  0  0  0  0
  -11.4380   -8.7887  -67.7513 C   0  0  0  0  0  0  0  0  0  0  0  0
  -10.9709   -8.0019  -66.7029 C   0  0  0  0  0  0  0  0  0  0  0  0
   -3.7861  -12.6536  -67.5541 H   0  0  0  0  0  0  0  0  0  0  0  0
   -3.8117  -14.3261  -67.9994 H   0  0  0  0  0  0  0  0  0  0  0  0
   -1.3499  -14.5187  -67.6827 H   0  0  0  0  0  0  0  0  0  0  0  0
   -1.1543  -11.7241  -68.5964 H   0  0  0  0  0  0  0  0  0  0  0  0
   -0.7570  -13.2540  -69.4498 H   0  0  0  0  0  0  0  0  0  0  0  0
   -2.4443  -12.6376  -69.4498 H   0  0  0  0  0  0  0  0  0  0  0  0
   -0.3385  -13.3454  -66.0518 H   0  0  0  0  0  0  0  0  0  0  0  0
   -1.0252  -11.8078  -66.5684 H   0  0  0  0  0  0  0  0  0  0  0  0
   -1.9581  -13.4529  -64.3796 H   0  0  0  0  0  0  0  0  0  0  0  0
   -2.8234  -12.0650  -65.0052 H   0  0  0  0  0  0  0  0  0  0  0  0
   -3.0516  -14.9160  -65.7505 H   0  0  0  0  0  0  0  0  0  0  0  0
   -5.3434  -14.0820  -66.2134 H   0  0  0  0  0  0  0  0  0  0  0  0
   -4.7358  -14.5131  -64.5761 H   0  0  0  0  0  0  0  0  0  0  0  0
   -5.5142  -12.3844  -64.0621 H   0  0  0  0  0  0  0  0  0  0  0  0
   -3.9223  -11.8896  -64.6828 H   0  0  0  0  0  0  0  0  0  0  0  0
   -6.1016   -9.4963  -67.6678 H   0  0  0  0  0  0  0  0  0  0  0  0
   -7.5919   -7.5955  -67.0966 H   0  0  0  0  0  0  0  0  0  0  0  0
   -6.7736  -11.3788  -63.7306 H   0  0  0  0  0  0  0  0  0  0  0  0
   -8.3264   -9.3478  -63.1266 H   0  0  0  0  0  0  0  0  0  0  0  0
   -9.0363   -6.4852  -65.4082 H   0  0  0  0  0  0  0  0  0  0  0  0
   -6.5646   -5.9229  -64.5223 H   0  0  0  0  0  0  0  0  0  0  0  0
   -5.5140   -4.9609  -62.4725 H   0  0  0  0  0  0  0  0  0  0  0  0
   -6.9815   -5.1110  -59.0225 H   0  0  0  0  0  0  0  0  0  0  0  0
   -8.9433   -6.2027  -59.9237 H   0  0  0  0  0  0  0  0  0  0  0  0
  -10.2382   -7.9010  -60.7832 H   0  0  0  0  0  0  0  0  0  0  0  0
  -11.1320   -6.6373  -61.5797 H   0  0  0  0  0  0  0  0  0  0  0  0
   -9.9072   -9.2088  -62.8257 H   0  0  0  0  0  0  0  0  0  0  0  0
  -11.6372   -8.6878  -62.8609 H   0  0  0  0  0  0  0  0  0  0  0  0
  -10.9403   -6.7266  -64.1935 H   0  0  0  0  0  0  0  0  0  0  0  0
  -11.1904  -10.2765  -64.1775 H   0  0  0  0  0  0  0  0  0  0  0  0
  -12.0169  -11.6907  -66.0601 H   0  0  0  0  0  0  0  0  0  0  0  0
  -12.1722  -10.7209  -68.3517 H   0  0  0  0  0  0  0  0  0  0  0  0
  -11.5138   -8.3669  -68.7644 H   0  0  0  0  0  0  0  0  0  0  0  0
  -10.6776   -6.9569  -66.8818 H   0  0  0  0  0  0  0  0  0  0  0  0
  1  2  1  0
  1  6  1  0
  2  3  1  0
  2  4  1  0
  4  5  1  0
  5  6  1  0
  6  7  1  0
  7  8  1  0
  8  9  1  0
  9 10  1  0
 10 11  2  0
 10 13  1  0
 11 12  1  0
 12 15  2  0
 13 14  2  0
 14 15  1  0
 16 15  1  0
 16 17  1  0
 16 26  1  0
 17 18  2  0
 17 23  1  0
 18 19  1  0
 19 20  2  0
 20 21  1  0
 20 22  1  0
 22 23  2  0
 23 24  1  0
 24 25  1  0
 25 26  1  0
 26 27  1  0
 27 28  2  0
 27 32  1  0
 28 29  1  0
 29 30  2  0
 30 31  1  0
 31 32  2  0
  1 33  1  0
  1 34  1  0
  2 35  1  6
  3 36  1  0
  3 37  1  0
  3 38  1  0
  4 39  1  0
  4 40  1  0
  5 41  1  0
  5 42  1  0
  6 43  1  6
  7 44  1  0
  7 45  1  0
  8 46  1  0
  8 47  1  0
 11 48  1  0
 12 49  1  0
 13 50  1  0
 14 51  1  0
 16 52  1  6
 18 53  1  0
 19 54  1  0
 21 55  1  0
 22 56  1  0
 24 57  1  0
 24 58  1  0
 25 59  1  0
 25 60  1  0
 26 61  1  1
 28 62  1  0
 29 63  1  0
 30 64  1  0
 31 65  1  0
 32 66  1  0
M  CHG  1   6   1
M  END
>  <filename_input>  (13) 
7UJF_R3V_docked.sdf

>  <pdb_id>  (13) 
7UJF_R3V

>  <pose_rank>  (13) 
12

>  <num_atoms_heavy>  (13) 
32

>  <num_torsions>  (13) 
6

>  <pose>  (13) 
[-8.970091028023049, -7.207911463073847, -64.58158988437965, -1.1742974775293022, -1.347374260393145, -0.2184228780367059, 3.319876314170855, -1.2766758857840124, -0.34815992282864033, -2.9505052164019294, 3.4826439770262514, 0.46582057331937055]

>  <energy>  (13) 
-349.719430183021

>  <inter_energy>  (13) 
-373.1047931436163

>  <intra_energy>  (13) 
36.87425355940221

>  <rmsd>  (13) 
10.2683

>  <sdf_rank>  (13) 
0

$$$$

     RDKit          3D

 66 70  0  0  0  0  0  0  0  0999 V2000
   -5.1572  -17.1400  -58.6711 C   0  0  0  0  0  0  0  0  0  0  0  0
   -5.9139  -16.1830  -57.8115 C   0  0  1  0  0  0  0  0  0  0  0  0
   -6.7980  -16.9752  -56.8063 C   0  0  0  0  0  0  0  0  0  0  0  0
   -4.9093  -15.3717  -57.1281 C   0  0  0  0  0  0  0  0  0  0  0  0
   -3.6307  -15.5441  -57.9729 C   0  0  0  0  0  0  0  0  0  0  0  0
   -4.1094  -16.2670  -59.1546 N   0  0  1  0  0  0  0  0  0  0  0  0
   -3.1054  -17.0003  -59.7967 C   0  0  0  0  0  0  0  0  0  0  0  0
   -1.7223  -16.4961  -59.3464 C   0  0  0  0  0  0  0  0  0  0  0  0
   -1.0014  -16.1407  -60.5261 O   0  0  0  0  0  0  0  0  0  0  0  0
   -1.6562  -15.2925  -61.4713 C   0  0  0  0  0  0  0  0  0  0  0  0
   -2.1719  -15.8556  -62.7910 C   0  0  0  0  0  0  0  0  0  0  0  0
   -2.8039  -15.0411  -63.7091 C   0  0  0  0  0  0  0  0  0  0  0  0
   -1.7922  -13.9668  -61.1780 C   0  0  0  0  0  0  0  0  0  0  0  0
   -2.4849  -13.0745  -62.2058 C   0  0  0  0  0  0  0  0  0  0  0  0
   -2.9504  -13.5642  -63.4026 C   0  0  0  0  0  0  0  0  0  0  0  0
   -3.6430  -12.6128  -64.3655 C   0  0  2  0  0  0  0  0  0  0  0  0
   -5.0211  -12.5914  -63.9748 C   0  0  0  0  0  0  0  0  0  0  0  0
   -5.2932  -11.9730  -62.6131 C   0  0  0  0  0  0  0  0  0  0  0  0
   -6.6117  -11.9412  -62.2008 C   0  0  0  0  0  0  0  0  0  0  0  0
   -7.7386  -12.5055  -63.0688 C   0  0  0  0  0  0  0  0  0  0  0  0
   -9.0494  -12.4820  -62.5923 O   0  0  0  0  0  0  0  0  0  0  0  0
   -7.5006  -13.0442  -64.3142 C   0  0  0  0  0  0  0  0  0  0  0  0
   -6.0360  -13.0755  -64.6961 C   0  0  0  0  0  0  0  0  0  0  0  0
   -6.0196  -13.7476  -66.0961 C   0  0  0  0  0  0  0  0  0  0  0  0
   -4.5413  -14.2079  -66.2006 C   0  0  0  0  0  0  0  0  0  0  0  0
   -3.5779  -13.0699  -65.7871 C   0  0  2  0  0  0  0  0  0  0  0  0
   -2.1268  -13.4410  -66.1434 C   0  0  0  0  0  0  0  0  0  0  0  0
   -1.0623  -12.7319  -65.6209 C   0  0  0  0  0  0  0  0  0  0  0  0
    0.2425  -13.0828  -65.9533 C   0  0  0  0  0  0  0  0  0  0  0  0
    0.4631  -14.1588  -66.8096 C   0  0  0  0  0  0  0  0  0  0  0  0
   -0.6007  -14.8769  -67.3265 C   0  0  0  0  0  0  0  0  0  0  0  0
   -1.9051  -14.5227  -66.9954 C   0  0  0  0  0  0  0  0  0  0  0  0
   -4.7521  -17.9803  -58.0881 H   0  0  0  0  0  0  0  0  0  0  0  0
   -5.7527  -17.6290  -59.4561 H   0  0  0  0  0  0  0  0  0  0  0  0
   -6.5908  -15.5398  -58.3929 H   0  0  0  0  0  0  0  0  0  0  0  0
   -6.5073  -16.7147  -55.7779 H   0  0  0  0  0  0  0  0  0  0  0  0
   -7.8554  -16.7167  -56.9651 H   0  0  0  0  0  0  0  0  0  0  0  0
   -6.6566  -18.0545  -56.9651 H   0  0  0  0  0  0  0  0  0  0  0  0
   -5.2166  -14.3158  -57.0996 H   0  0  0  0  0  0  0  0  0  0  0  0
   -4.7638  -15.6809  -56.0826 H   0  0  0  0  0  0  0  0  0  0  0  0
   -3.2067  -14.5681  -58.2517 H   0  0  0  0  0  0  0  0  0  0  0  0
   -2.8269  -16.0719  -57.4387 H   0  0  0  0  0  0  0  0  0  0  0  0
   -4.4443  -15.6036  -59.8678 H   0  0  0  0  0  0  0  0  0  0  0  0
   -3.2081  -18.0644  -59.5379 H   0  0  0  0  0  0  0  0  0  0  0  0
   -3.2018  -16.8724  -60.8850 H   0  0  0  0  0  0  0  0  0  0  0  0
   -1.8348  -15.6177  -58.6939 H   0  0  0  0  0  0  0  0  0  0  0  0
   -1.1877  -17.2725  -58.7795 H   0  0  0  0  0  0  0  0  0  0  0  0
   -2.0387  -16.9244  -63.0143 H   0  0  0  0  0  0  0  0  0  0  0  0
   -3.1952  -15.4578  -64.6489 H   0  0  0  0  0  0  0  0  0  0  0  0
   -1.4148  -13.5538  -60.2309 H   0  0  0  0  0  0  0  0  0  0  0  0
   -2.6154  -12.0056  -61.9810 H   0  0  0  0  0  0  0  0  0  0  0  0
   -3.1476  -11.6318  -64.3173 H   0  0  0  0  0  0  0  0  0  0  0  0
   -4.4821  -11.5715  -61.9879 H   0  0  0  0  0  0  0  0  0  0  0  0
   -6.8574  -11.4990  -61.2240 H   0  0  0  0  0  0  0  0  0  0  0  0
   -9.7844  -12.8450  -63.1473 H   0  0  0  0  0  0  0  0  0  0  0  0
   -8.3007  -13.4171  -64.9705 H   0  0  0  0  0  0  0  0  0  0  0  0
   -6.7107  -14.6022  -66.1398 H   0  0  0  0  0  0  0  0  0  0  0  0
   -6.3427  -13.0874  -66.9144 H   0  0  0  0  0  0  0  0  0  0  0  0
   -4.3851  -15.0710  -65.5367 H   0  0  0  0  0  0  0  0  0  0  0  0
   -4.3320  -14.4835  -67.2447 H   0  0  0  0  0  0  0  0  0  0  0  0
   -3.9335  -12.2070  -66.3692 H   0  0  0  0  0  0  0  0  0  0  0  0
   -1.2469  -11.8878  -64.9402 H   0  0  0  0  0  0  0  0  0  0  0  0
    1.0916  -12.5158  -65.5437 H   0  0  0  0  0  0  0  0  0  0  0  0
    1.4922  -14.4403  -67.0774 H   0  0  0  0  0  0  0  0  0  0  0  0
   -0.4154  -15.7275  -67.9990 H   0  0  0  0  0  0  0  0  0  0  0  0
   -2.7543  -15.0913  -67.4023 H   0  0  0  0  0  0  0  0  0  0  0  0
  1  2  1  0
  1  6  1  0
  2  3  1  0
  2  4  1  0
  4  5  1  0
  5  6  1  0
  6  7  1  0
  7  8  1  0
  8  9  1  0
  9 10  1  0
 10 11  2  0
 10 13  1  0
 11 12  1  0
 12 15  2  0
 13 14  2  0
 14 15  1  0
 16 15  1  0
 16 17  1  0
 16 26  1  0
 17 18  2  0
 17 23  1  0
 18 19  1  0
 19 20  2  0
 20 21  1  0
 20 22  1  0
 22 23  2  0
 23 24  1  0
 24 25  1  0
 25 26  1  0
 26 27  1  0
 27 28  2  0
 27 32  1  0
 28 29  1  0
 29 30  2  0
 30 31  1  0
 31 32  2  0
  1 33  1  0
  1 34  1  0
  2 35  1  6
  3 36  1  0
  3 37  1  0
  3 38  1  0
  4 39  1  0
  4 40  1  0
  5 41  1  0
  5 42  1  0
  6 43  1  6
  7 44  1  0
  7 45  1  0
  8 46  1  0
  8 47  1  0
 11 48  1  0
 12 49  1  0
 13 50  1  0
 14 51  1  0
 16 52  1  6
 18 53  1  0
 19 54  1  0
 21 55  1  0
 22 56  1  0
 24 57  1  0
 24 58  1  0
 25 59  1  0
 25 60  1  0
 26 61  1  6
 28 62  1  0
 29 63  1  0
 30 64  1  0
 31 65  1  0
 32 66  1  0
M  CHG  1   6   1
M  END
>  <filename_input>  (14) 
7UJF_R3V_docked.sdf

>  <pdb_id>  (14) 
7UJF_R3V

>  <pose_rank>  (14) 
13

>  <num_atoms_heavy>  (14) 
32

>  <num_torsions>  (14) 
6

>  <pose>  (14) 
[-3.643022399608372, -12.61278039410788, -64.36553727066428, 0.31191356167548784, 2.888771392944345, 1.4523087241359933, 0.802325367287643, 0.47464743116149044, -2.1468060828658997, -0.5087022936508467, 2.651341821853469, 4.032627741228452]

>  <energy>  (14) 
-310.54588805984275

>  <inter_energy>  (14) 
-377.1126725497209

>  <intra_energy>  (14) 
83.45090901637934

>  <rmsd>  (14) 
8.72182

>  <sdf_rank>  (14) 
0

$$$$

     RDKit          3D

 66 70  0  0  0  0  0  0  0  0999 V2000
   -3.2960  -14.4911  -66.5706 C   0  0  0  0  0  0  0  0  0  0  0  0
   -2.5130  -13.3192  -67.0614 C   0  0  1  0  0  0  0  0  0  0  0  0
   -1.3701  -13.8123  -67.9942 C   0  0  0  0  0  0  0  0  0  0  0  0
   -3.4633  -12.4665  -67.7716 C   0  0  0  0  0  0  0  0  0  0  0  0
   -4.8463  -12.9122  -67.2549 C   0  0  0  0  0  0  0  0  0  0  0  0
   -4.5117  -13.8241  -66.1572 N   0  0  1  0  0  0  0  0  0  0  0  0
   -5.5225  -14.7524  -65.8841 C   0  0  0  0  0  0  0  0  0  0  0  0
   -5.5667  -15.8174  -66.9948 C   0  0  0  0  0  0  0  0  0  0  0  0
   -6.7132  -16.6315  -66.7494 O   0  0  0  0  0  0  0  0  0  0  0  0
   -6.7445  -17.9282  -67.3488 C   0  0  0  0  0  0  0  0  0  0  0  0
   -7.9629  -18.8296  -67.1827 C   0  0  0  0  0  0  0  0  0  0  0  0
   -7.9987  -20.0840  -67.7579 C   0  0  0  0  0  0  0  0  0  0  0  0
   -5.6557  -18.3502  -68.0546 C   0  0  0  0  0  0  0  0  0  0  0  0
   -5.7039  -19.7435  -68.6783 C   0  0  0  0  0  0  0  0  0  0  0  0
   -6.7914  -20.5713  -68.5336 C   0  0  0  0  0  0  0  0  0  0  0  0
   -6.7673  -21.9382  -69.1993 C   0  0  2  0  0  0  0  0  0  0  0  0
   -5.3995  -22.3634  -69.1758 C   0  0  0  0  0  0  0  0  0  0  0  0
   -4.8354  -22.6369  -67.7910 C   0  0  0  0  0  0  0  0  0  0  0  0
   -3.5161  -23.0432  -67.7298 C   0  0  0  0  0  0  0  0  0  0  0  0
   -2.6656  -23.2032  -68.9919 C   0  0  0  0  0  0  0  0  0  0  0  0
   -1.3282  -23.5815  -68.8749 O   0  0  0  0  0  0  0  0  0  0  0  0
   -3.1789  -22.9808  -70.2509 C   0  0  0  0  0  0  0  0  0  0  0  0
   -4.6184  -22.5122  -70.2493 C   0  0  0  0  0  0  0  0  0  0  0  0
   -4.9528  -22.2970  -71.7506 C   0  0  0  0  0  0  0  0  0  0  0  0
   -6.1915  -21.3666  -71.6611 C   0  0  0  0  0  0  0  0  0  0  0  0
   -7.2102  -21.9012  -70.6263 C   0  0  2  0  0  0  0  0  0  0  0  0
   -8.5381  -21.1295  -70.7343 C   0  0  0  0  0  0  0  0  0  0  0  0
   -9.7076  -21.6499  -70.2147 C   0  0  0  0  0  0  0  0  0  0  0  0
  -10.8981  -20.9373  -70.3205 C   0  0  0  0  0  0  0  0  0  0  0  0
  -10.8958  -19.6934  -70.9470 C   0  0  0  0  0  0  0  0  0  0  0  0
   -9.7240  -19.1653  -71.4595 C   0  0  0  0  0  0  0  0  0  0  0  0
   -8.5350  -19.8807  -71.3554 C   0  0  0  0  0  0  0  0  0  0  0  0
   -3.4830  -15.2216  -67.3714 H   0  0  0  0  0  0  0  0  0  0  0  0
   -2.8021  -15.0832  -65.7861 H   0  0  0  0  0  0  0  0  0  0  0  0
   -2.0371  -12.7587  -66.2433 H   0  0  0  0  0  0  0  0  0  0  0  0
   -0.5296  -14.1749  -67.3842 H   0  0  0  0  0  0  0  0  0  0  0  0
   -1.7420  -14.6300  -68.6291 H   0  0  0  0  0  0  0  0  0  0  0  0
   -1.0304  -12.9806  -68.6291 H   0  0  0  0  0  0  0  0  0  0  0  0
   -3.2843  -11.4067  -67.5378 H   0  0  0  0  0  0  0  0  0  0  0  0
   -3.3750  -12.5627  -68.8639 H   0  0  0  0  0  0  0  0  0  0  0  0
   -5.4279  -12.0524  -66.8909 H   0  0  0  0  0  0  0  0  0  0  0  0
   -5.4686  -13.3801  -68.0319 H   0  0  0  0  0  0  0  0  0  0  0  0
   -4.3962  -13.2985  -65.2789 H   0  0  0  0  0  0  0  0  0  0  0  0
   -5.3197  -15.2396  -64.9189 H   0  0  0  0  0  0  0  0  0  0  0  0
   -6.4909  -14.2325  -65.8407 H   0  0  0  0  0  0  0  0  0  0  0  0
   -5.6512  -15.3332  -67.9789 H   0  0  0  0  0  0  0  0  0  0  0  0
   -4.6485  -16.4232  -66.9935 H   0  0  0  0  0  0  0  0  0  0  0  0
   -8.8243  -18.4759  -66.5971 H   0  0  0  0  0  0  0  0  0  0  0  0
   -8.8901  -20.7203  -67.6547 H   0  0  0  0  0  0  0  0  0  0  0  0
   -4.7709  -17.7071  -68.1708 H   0  0  0  0  0  0  0  0  0  0  0  0
   -4.8406  -20.0957  -69.2619 H   0  0  0  0  0  0  0  0  0  0  0  0
   -7.4550  -22.6090  -68.6635 H   0  0  0  0  0  0  0  0  0  0  0  0
   -5.4462  -22.5175  -66.8840 H   0  0  0  0  0  0  0  0  0  0  0  0
   -3.0659  -23.2570  -66.7493 H   0  0  0  0  0  0  0  0  0  0  0  0
   -0.7708  -23.6873  -69.6862 H   0  0  0  0  0  0  0  0  0  0  0  0
   -2.5967  -23.1301  -71.1722 H   0  0  0  0  0  0  0  0  0  0  0  0
   -4.1218  -21.8098  -72.2816 H   0  0  0  0  0  0  0  0  0  0  0  0
   -5.1306  -23.2282  -72.3085 H   0  0  0  0  0  0  0  0  0  0  0  0
   -5.8652  -20.3606  -71.3585 H   0  0  0  0  0  0  0  0  0  0  0  0
   -6.6774  -21.3325  -72.6473 H   0  0  0  0  0  0  0  0  0  0  0  0
   -7.3288  -22.9589  -70.9042 H   0  0  0  0  0  0  0  0  0  0  0  0
   -9.6977  -22.6303  -69.7159 H   0  0  0  0  0  0  0  0  0  0  0  0
  -11.8319  -21.3524  -69.9134 H   0  0  0  0  0  0  0  0  0  0  0  0
  -11.8339  -19.1258  -71.0352 H   0  0  0  0  0  0  0  0  0  0  0  0
   -9.7324  -18.1803  -71.9490 H   0  0  0  0  0  0  0  0  0  0  0  0
   -7.6004  -19.4648  -71.7597 H   0  0  0  0  0  0  0  0  0  0  0  0
  1  2  1  0
  1  6  1  0
  2  3  1  0
  2  4  1  0
  4  5  1  0
  5  6  1  0
  6  7  1  0
  7  8  1  0
  8  9  1  0
  9 10  1  0
 10 11  2  0
 10 13  1  0
 11 12  1  0
 12 15  2  0
 13 14  2  0
 14 15  1  0
 16 15  1  0
 16 17  1  0
 16 26  1  0
 17 18  2  0
 17 23  1  0
 18 19  1  0
 19 20  2  0
 20 21  1  0
 20 22  1  0
 22 23  2  0
 23 24  1  0
 24 25  1  0
 25 26  1  0
 26 27  1  0
 27 28  2  0
 27 32  1  0
 28 29  1  0
 29 30  2  0
 30 31  1  0
 31 32  2  0
  1 33  1  0
  1 34  1  0
  2 35  1  1
  3 36  1  0
  3 37  1  0
  3 38  1  0
  4 39  1  0
  4 40  1  0
  5 41  1  0
  5 42  1  0
  6 43  1  1
  7 44  1  0
  7 45  1  0
  8 46  1  0
  8 47  1  0
 11 48  1  0
 12 49  1  0
 13 50  1  0
 14 51  1  0
 16 52  1  1
 18 53  1  0
 19 54  1  0
 21 55  1  0
 22 56  1  0
 24 57  1  0
 24 58  1  0
 25 59  1  0
 25 60  1  0
 26 61  1  6
 28 62  1  0
 29 63  1  0
 30 64  1  0
 31 65  1  0
 32 66  1  0
M  CHG  1   6   1
M  END
>  <filename_input>  (15) 
7UJF_R3V_docked.sdf

>  <pdb_id>  (15) 
7UJF_R3V

>  <pose_rank>  (15) 
14

>  <num_atoms_heavy>  (15) 
32

>  <num_torsions>  (15) 
6

>  <pose>  (15) 
[-6.767287242165955, -21.938157000563102, -69.19925934621003, -4.2700544160879295, 0.8974117223867256, 0.8098858223380704, 2.886779253744381, -0.7600459869326867, 0.4778848123894113, -1.3518399129154086, -2.047474564745242, -2.8302035039029865]

>  <energy>  (15) 
-201.37651063529793

>  <inter_energy>  (15) 
-255.71311303656867

>  <intra_energy>  (15) 
46.658359262091956

>  <rmsd>  (15) 
10.1488

>  <sdf_rank>  (15) 
0

$$$$

     RDKit          3D

 66 70  0  0  0  0  0  0  0  0999 V2000
   -1.5725  -15.5377  -62.5472 C   0  0  0  0  0  0  0  0  0  0  0  0
   -0.4212  -16.2699  -61.9427 C   0  0  1  0  0  0  0  0  0  0  0  0
    0.6305  -15.2473  -61.4253 C   0  0  0  0  0  0  0  0  0  0  0  0
   -0.9778  -17.0725  -60.8562 C   0  0  0  0  0  0  0  0  0  0  0  0
   -2.4841  -17.1649  -61.1739 C   0  0  0  0  0  0  0  0  0  0  0  0
   -2.5763  -16.5794  -62.5144 N   0  0  1  0  0  0  0  0  0  0  0  0
   -3.8435  -16.0610  -62.8037 C   0  0  0  0  0  0  0  0  0  0  0  0
   -4.6766  -17.1115  -63.5602 C   0  0  0  0  0  0  0  0  0  0  0  0
   -3.9841  -17.4002  -64.7745 O   0  0  0  0  0  0  0  0  0  0  0  0
   -4.4331  -18.5185  -65.5424 C   0  0  0  0  0  0  0  0  0  0  0  0
   -5.3125  -19.5908  -64.9089 C   0  0  0  0  0  0  0  0  0  0  0  0
   -5.7481  -20.6744  -65.6448 C   0  0  0  0  0  0  0  0  0  0  0  0
   -4.0427  -18.6172  -66.8461 C   0  0  0  0  0  0  0  0  0  0  0  0
   -4.5235  -19.8254  -67.6471 C   0  0  0  0  0  0  0  0  0  0  0  0
   -5.3116  -20.8041  -67.0903 C   0  0  0  0  0  0  0  0  0  0  0  0
   -5.7615  -21.9674  -67.9600 C   0  0  2  0  0  0  0  0  0  0  0  0
   -4.5856  -22.7439  -68.2179 C   0  0  0  0  0  0  0  0  0  0  0  0
   -3.9867  -23.4271  -66.9992 C   0  0  0  0  0  0  0  0  0  0  0  0
   -2.8474  -24.1800  -67.2099 C   0  0  0  0  0  0  0  0  0  0  0  0
   -2.2180  -24.3132  -68.5984 C   0  0  0  0  0  0  0  0  0  0  0  0
   -1.0473  -25.0557  -68.7529 O   0  0  0  0  0  0  0  0  0  0  0  0
   -2.7706  -23.7167  -69.7105 C   0  0  0  0  0  0  0  0  0  0  0  0
   -3.9992  -22.8848  -69.4100 C   0  0  0  0  0  0  0  0  0  0  0  0
   -4.4092  -22.2960  -70.7873 C   0  0  0  0  0  0  0  0  0  0  0  0
   -5.3016  -21.1008  -70.3592 C   0  0  0  0  0  0  0  0  0  0  0  0
   -6.3195  -21.5316  -69.2763 C   0  0  2  0  0  0  0  0  0  0  0  0
   -7.3640  -20.4229  -69.0520 C   0  0  0  0  0  0  0  0  0  0  0  0
   -7.0285  -19.2503  -68.4028 C   0  0  0  0  0  0  0  0  0  0  0  0
   -7.9857  -18.2589  -68.2104 C   0  0  0  0  0  0  0  0  0  0  0  0
   -9.2797  -18.4578  -68.6855 C   0  0  0  0  0  0  0  0  0  0  0  0
   -9.6159  -19.6269  -69.3447 C   0  0  0  0  0  0  0  0  0  0  0  0
   -8.6581  -20.6186  -69.5336 C   0  0  0  0  0  0  0  0  0  0  0  0
   -1.8667  -14.6678  -61.9416 H   0  0  0  0  0  0  0  0  0  0  0  0
   -1.3796  -15.1107  -63.5424 H   0  0  0  0  0  0  0  0  0  0  0  0
    0.0937  -16.9170  -62.6681 H   0  0  0  0  0  0  0  0  0  0  0  0
    0.6311  -15.2467  -60.3253 H   0  0  0  0  0  0  0  0  0  0  0  0
    1.6282  -15.5299  -61.7924 H   0  0  0  0  0  0  0  0  0  0  0  0
    0.3760  -14.2421  -61.7924 H   0  0  0  0  0  0  0  0  0  0  0  0
   -0.5222  -18.0736  -60.8399 H   0  0  0  0  0  0  0  0  0  0  0  0
   -0.7860  -16.6282  -59.8684 H   0  0  0  0  0  0  0  0  0  0  0  0
   -2.8241  -18.2110  -61.1754 H   0  0  0  0  0  0  0  0  0  0  0  0
   -3.1150  -16.6518  -60.4331 H   0  0  0  0  0  0  0  0  0  0  0  0
   -2.4205  -17.3023  -63.2314 H   0  0  0  0  0  0  0  0  0  0  0  0
   -4.3532  -15.7976  -61.8652 H   0  0  0  0  0  0  0  0  0  0  0  0
   -3.7343  -15.1639  -63.4307 H   0  0  0  0  0  0  0  0  0  0  0  0
   -4.7728  -18.0246  -62.9544 H   0  0  0  0  0  0  0  0  0  0  0  0
   -5.6890  -16.7341  -63.7666 H   0  0  0  0  0  0  0  0  0  0  0  0
   -5.6035  -19.4998  -63.8520 H   0  0  0  0  0  0  0  0  0  0  0  0
   -6.4021  -21.4324  -65.1890 H   0  0  0  0  0  0  0  0  0  0  0  0
   -3.4016  -17.8506  -67.3059 H   0  0  0  0  0  0  0  0  0  0  0  0
   -4.2297  -19.9152  -68.7033 H   0  0  0  0  0  0  0  0  0  0  0  0
   -6.5571  -22.5182  -67.4368 H   0  0  0  0  0  0  0  0  0  0  0  0
   -4.4373  -23.3273  -66.0007 H   0  0  0  0  0  0  0  0  0  0  0  0
   -2.3810  -24.6966  -66.3580 H   0  0  0  0  0  0  0  0  0  0  0  0
   -0.6334  -25.1470  -69.6476 H   0  0  0  0  0  0  0  0  0  0  0  0
   -2.3574  -23.8341  -70.7231 H   0  0  0  0  0  0  0  0  0  0  0  0
   -3.5313  -21.9580  -71.3574 H   0  0  0  0  0  0  0  0  0  0  0  0
   -4.9110  -23.0153  -71.4513 H   0  0  0  0  0  0  0  0  0  0  0  0
   -4.6632  -20.3011  -69.9556 H   0  0  0  0  0  0  0  0  0  0  0  0
   -5.8556  -20.7428  -71.2395 H   0  0  0  0  0  0  0  0  0  0  0  0
   -6.7733  -22.4413  -69.6965 H   0  0  0  0  0  0  0  0  0  0  0  0
   -6.0020  -19.1002  -68.0371 H   0  0  0  0  0  0  0  0  0  0  0  0
   -7.7229  -17.3271  -67.6882 H   0  0  0  0  0  0  0  0  0  0  0  0
  -10.0414  -17.6785  -68.5352 H   0  0  0  0  0  0  0  0  0  0  0  0
  -10.6398  -19.7724  -69.7194 H   0  0  0  0  0  0  0  0  0  0  0  0
   -8.9196  -21.5493  -70.0585 H   0  0  0  0  0  0  0  0  0  0  0  0
  1  2  1  0
  1  6  1  0
  2  3  1  0
  2  4  1  0
  4  5  1  0
  5  6  1  0
  6  7  1  0
  7  8  1  0
  8  9  1  0
  9 10  1  0
 10 11  2  0
 10 13  1  0
 11 12  1  0
 12 15  2  0
 13 14  2  0
 14 15  1  0
 16 15  1  0
 16 17  1  0
 16 26  1  0
 17 18  2  0
 17 23  1  0
 18 19  1  0
 19 20  2  0
 20 21  1  0
 20 22  1  0
 22 23  2  0
 23 24  1  0
 24 25  1  0
 25 26  1  0
 26 27  1  0
 27 28  2  0
 27 32  1  0
 28 29  1  0
 29 30  2  0
 30 31  1  0
 31 32  2  0
  1 33  1  0
  1 34  1  0
  2 35  1  6
  3 36  1  0
  3 37  1  0
  3 38  1  0
  4 39  1  0
  4 40  1  0
  5 41  1  0
  5 42  1  0
  6 43  1  6
  7 44  1  0
  7 45  1  0
  8 46  1  0
  8 47  1  0
 11 48  1  0
 12 49  1  0
 13 50  1  0
 14 51  1  0
 16 52  1  1
 18 53  1  0
 19 54  1  0
 21 55  1  0
 22 56  1  0
 24 57  1  0
 24 58  1  0
 25 59  1  0
 25 60  1  0
 26 61  1  6
 28 62  1  0
 29 63  1  0
 30 64  1  0
 31 65  1  0
 32 66  1  0
M  CHG  1   6   1
M  END
>  <filename_input>  (16) 
7UJF_R3V_docked.sdf

>  <pdb_id>  (16) 
7UJF_R3V

>  <pose_rank>  (16) 
15

>  <num_atoms_heavy>  (16) 
32

>  <num_torsions>  (16) 
6

>  <pose>  (16) 
[-5.761496048891054, -21.967425016707782, -67.95998386146015, 1.8651300246117928, -0.5191940819635731, -0.7098152854618516, 3.5328259523001457, 2.022147015118553, -0.06342084227223121, 0.6048953882558761, 1.2977760702489323, -0.6163927631448658]

>  <energy>  (16) 
-129.57944125758985

>  <inter_energy>  (16) 
-235.83932467344002

>  <intra_energy>  (16) 
115.38994893245405

>  <rmsd>  (16) 
9.78433

>  <sdf_rank>  (16) 
0

$$$$

     RDKit          3D

 66 70  0  0  0  0  0  0  0  0999 V2000
   -7.9543   -7.4540  -64.9914 C   0  0  0  0  0  0  0  0  0  0  0  0
   -8.5009   -6.2018  -65.5918 C   0  0  1  0  0  0  0  0  0  0  0  0
   -7.3737   -5.4636  -66.3689 C   0  0  0  0  0  0  0  0  0  0  0  0
   -9.5869   -6.6177  -66.4761 C   0  0  0  0  0  0  0  0  0  0  0  0
   -9.9611   -8.0334  -65.9922 C   0  0  0  0  0  0  0  0  0  0  0  0
   -9.1856   -8.1770  -64.7567 N   0  0  1  0  0  0  0  0  0  0  0  0
   -8.9255   -9.5102  -64.4207 C   0  0  0  0  0  0  0  0  0  0  0  0
   -8.0482  -10.1601  -65.5060 C   0  0  0  0  0  0  0  0  0  0  0  0
   -6.7140   -9.6969  -65.2992 O   0  0  0  0  0  0  0  0  0  0  0  0
   -5.6454  -10.5641  -65.6839 C   0  0  0  0  0  0  0  0  0  0  0  0
   -4.5395  -10.9169  -64.6954 C   0  0  0  0  0  0  0  0  0  0  0  0
   -3.5035  -11.7527  -65.0614 C   0  0  0  0  0  0  0  0  0  0  0  0
   -5.6244  -11.0528  -66.9576 C   0  0  0  0  0  0  0  0  0  0  0  0
   -4.4683  -11.9690  -67.3531 C   0  0  0  0  0  0  0  0  0  0  0  0
   -3.4601  -12.2926  -66.4768 C   0  0  0  0  0  0  0  0  0  0  0  0
   -2.3528  -13.2242  -66.9435 C   0  0  2  0  0  0  0  0  0  0  0  0
   -2.1645  -12.9455  -68.3360 C   0  0  0  0  0  0  0  0  0  0  0  0
   -1.6143  -11.5628  -68.6458 C   0  0  0  0  0  0  0  0  0  0  0  0
   -1.4257  -11.2570  -69.9800 C   0  0  0  0  0  0  0  0  0  0  0  0
   -1.7601  -12.2576  -71.0885 C   0  0  0  0  0  0  0  0  0  0  0  0
   -1.5855  -11.8882  -72.4222 O   0  0  0  0  0  0  0  0  0  0  0  0
   -2.2353  -13.5209  -70.8123 C   0  0  0  0  0  0  0  0  0  0  0  0
   -2.4462  -13.7847  -69.3366 C   0  0  0  0  0  0  0  0  0  0  0  0
   -3.0104  -15.2306  -69.2828 C   0  0  0  0  0  0  0  0  0  0  0  0
   -3.6670  -15.2541  -67.8769 C   0  0  0  0  0  0  0  0  0  0  0  0
   -2.7102  -14.6695  -66.8107 C   0  0  2  0  0  0  0  0  0  0  0  0
   -3.2565  -14.9377  -65.3964 C   0  0  0  0  0  0  0  0  0  0  0  0
   -2.4020  -15.1096  -64.3245 C   0  0  0  0  0  0  0  0  0  0  0  0
   -2.9141  -15.3498  -63.0532 C   0  0  0  0  0  0  0  0  0  0  0  0
   -4.2940  -15.4067  -62.8726 C   0  0  0  0  0  0  0  0  0  0  0  0
   -5.1522  -15.2250  -63.9425 C   0  0  0  0  0  0  0  0  0  0  0  0
   -4.6382  -14.9879  -65.2137 C   0  0  0  0  0  0  0  0  0  0  0  0
   -7.2941   -7.9879  -65.6908 H   0  0  0  0  0  0  0  0  0  0  0  0
   -7.3266   -7.3056  -64.1004 H   0  0  0  0  0  0  0  0  0  0  0  0
   -8.8765   -5.5002  -64.8324 H   0  0  0  0  0  0  0  0  0  0  0  0
   -6.6745   -5.0057  -65.6537 H   0  0  0  0  0  0  0  0  0  0  0  0
   -6.8326   -6.1828  -67.0013 H   0  0  0  0  0  0  0  0  0  0  0  0
   -7.8167   -4.6801  -67.0013 H   0  0  0  0  0  0  0  0  0  0  0  0
  -10.4454   -5.9362  -66.3840 H   0  0  0  0  0  0  0  0  0  0  0  0
   -9.2913   -6.6033  -67.5355 H   0  0  0  0  0  0  0  0  0  0  0  0
  -11.0401   -8.1104  -65.7925 H   0  0  0  0  0  0  0  0  0  0  0  0
   -9.7429   -8.8161  -66.7336 H   0  0  0  0  0  0  0  0  0  0  0  0
   -9.7167   -7.8052  -63.9564 H   0  0  0  0  0  0  0  0  0  0  0  0
   -8.3996   -9.5476  -63.4553 H   0  0  0  0  0  0  0  0  0  0  0  0
   -9.8765  -10.0580  -64.3463 H   0  0  0  0  0  0  0  0  0  0  0  0
   -8.0857  -11.2557  -65.4156 H   0  0  0  0  0  0  0  0  0  0  0  0
   -8.4049   -9.8911  -66.5112 H   0  0  0  0  0  0  0  0  0  0  0  0
   -4.5674  -10.5001  -63.6778 H   0  0  0  0  0  0  0  0  0  0  0  0
   -2.7214  -12.0229  -64.3366 H   0  0  0  0  0  0  0  0  0  0  0  0
   -6.4155  -10.7950  -67.6772 H   0  0  0  0  0  0  0  0  0  0  0  0
   -4.4416  -12.3831  -68.3718 H   0  0  0  0  0  0  0  0  0  0  0  0
   -1.4581  -13.0534  -66.3267 H   0  0  0  0  0  0  0  0  0  0  0  0
   -1.3783  -10.8425  -67.8486 H   0  0  0  0  0  0  0  0  0  0  0  0
   -1.0252  -10.2693  -70.2523 H   0  0  0  0  0  0  0  0  0  0  0  0
   -1.7994  -12.5294  -73.1455 H   0  0  0  0  0  0  0  0  0  0  0  0
   -2.4423  -14.2687  -71.5919 H   0  0  0  0  0  0  0  0  0  0  0  0
   -3.7530  -15.4020  -70.0761 H   0  0  0  0  0  0  0  0  0  0  0  0
   -2.2534  -16.0136  -69.4375 H   0  0  0  0  0  0  0  0  0  0  0  0
   -4.5894  -14.6551  -67.9002 H   0  0  0  0  0  0  0  0  0  0  0  0
   -3.8930  -16.2975  -67.6120 H   0  0  0  0  0  0  0  0  0  0  0  0
   -1.7656  -15.2033  -66.9917 H   0  0  0  0  0  0  0  0  0  0  0  0
   -1.3138  -15.0563  -64.4764 H   0  0  0  0  0  0  0  0  0  0  0  0
   -2.2358  -15.4934  -62.1992 H   0  0  0  0  0  0  0  0  0  0  0  0
   -4.7051  -15.5977  -61.8703 H   0  0  0  0  0  0  0  0  0  0  0  0
   -6.2405  -15.2681  -63.7884 H   0  0  0  0  0  0  0  0  0  0  0  0
   -5.3161  -14.8411  -66.0675 H   0  0  0  0  0  0  0  0  0  0  0  0
  1  2  1  0
  1  6  1  0
  2  3  1  0
  2  4  1  0
  4  5  1  0
  5  6  1  0
  6  7  1  0
  7  8  1  0
  8  9  1  0
  9 10  1  0
 10 11  2  0
 10 13  1  0
 11 12  1  0
 12 15  2  0
 13 14  2  0
 14 15  1  0
 16 15  1  0
 16 17  1  0
 16 26  1  0
 17 18  2  0
 17 23  1  0
 18 19  1  0
 19 20  2  0
 20 21  1  0
 20 22  1  0
 22 23  2  0
 23 24  1  0
 24 25  1  0
 25 26  1  0
 26 27  1  0
 27 28  2  0
 27 32  1  0
 28 29  1  0
 29 30  2  0
 30 31  1  0
 31 32  2  0
  1 33  1  0
  1 34  1  0
  2 35  1  1
  3 36  1  0
  3 37  1  0
  3 38  1  0
  4 39  1  0
  4 40  1  0
  5 41  1  0
  5 42  1  0
  6 43  1  1
  7 44  1  0
  7 45  1  0
  8 46  1  0
  8 47  1  0
 11 48  1  0
 12 49  1  0
 13 50  1  0
 14 51  1  0
 16 52  1  1
 18 53  1  0
 19 54  1  0
 21 55  1  0
 22 56  1  0
 24 57  1  0
 24 58  1  0
 25 59  1  0
 25 60  1  0
 26 61  1  1
 28 62  1  0
 29 63  1  0
 30 64  1  0
 31 65  1  0
 32 66  1  0
M  CHG  1   6   1
M  END
>  <filename_input>  (17) 
7UJF_R3V_docked.sdf

>  <pdb_id>  (17) 
7UJF_R3V

>  <pose_rank>  (17) 
16

>  <num_atoms_heavy>  (17) 
32

>  <num_torsions>  (17) 
6

>  <pose>  (17) 
[-2.352770407267292, -13.22423760379235, -66.94346774632017, 0.5445105944539758, 1.313350592542104, -0.27506864848260515, -3.3837391090491393, 0.11380420332980302, -0.3923845546074623, -3.269536187036399, -2.2154132897830454, -3.0344078656056803]

>  <energy>  (17) 
-165.84224349367827

>  <inter_energy>  (17) 
-247.24614115881107

>  <intra_energy>  (17) 
80.35085811290666

>  <rmsd>  (17) 
8.0726

>  <sdf_rank>  (17) 
0

$$$$

     RDKit          3D

 66 70  0  0  0  0  0  0  0  0999 V2000
   -3.7522  -10.0685  -52.6292 C   0  0  0  0  0  0  0  0  0  0  0  0
   -4.3348  -11.4157  -52.3592 C   0  0  1  0  0  0  0  0  0  0  0  0
   -5.7511  -11.5061  -52.9959 C   0  0  0  0  0  0  0  0  0  0  0  0
   -3.4115  -12.3815  -52.9503 C   0  0  0  0  0  0  0  0  0  0  0  0
   -2.0880  -11.6061  -53.1098 C   0  0  0  0  0  0  0  0  0  0  0  0
   -2.3517  -10.3511  -52.3999 N   0  0  1  0  0  0  0  0  0  0  0  0
   -1.5502   -9.2910  -52.8378 C   0  0  0  0  0  0  0  0  0  0  0  0
   -0.2792   -9.8411  -53.5099 C   0  0  0  0  0  0  0  0  0  0  0  0
   -0.3447   -9.4799  -54.8893 O   0  0  0  0  0  0  0  0  0  0  0  0
    0.6690   -8.6085  -55.3940 C   0  0  0  0  0  0  0  0  0  0  0  0
    1.6705   -9.1037  -56.4316 C   0  0  0  0  0  0  0  0  0  0  0  0
    2.6533   -8.2674  -56.9219 C   0  0  0  0  0  0  0  0  0  0  0  0
    0.7348   -7.3329  -54.9144 C   0  0  0  0  0  0  0  0  0  0  0  0
    1.8323   -6.4203  -55.4578 C   0  0  0  0  0  0  0  0  0  0  0  0
    2.7467   -6.8518  -56.3887 C   0  0  0  0  0  0  0  0  0  0  0  0
    3.7991   -5.8761  -56.8911 C   0  0  2  0  0  0  0  0  0  0  0  0
    3.5915   -5.7665  -58.3043 C   0  0  0  0  0  0  0  0  0  0  0  0
    2.2818   -5.1117  -58.7124 C   0  0  0  0  0  0  0  0  0  0  0  0
    2.0451   -4.9948  -60.0687 C   0  0  0  0  0  0  0  0  0  0  0  0
    3.0482   -5.5045  -61.1060 C   0  0  0  0  0  0  0  0  0  0  0  0
    2.7469   -5.3954  -62.4635 O   0  0  0  0  0  0  0  0  0  0  0  0
    4.2477   -6.0760  -60.7419 C   0  0  0  0  0  0  0  0  0  0  0  0
    4.4351   -6.2005  -59.2449 C   0  0  0  0  0  0  0  0  0  0  0  0
    5.8157   -6.8943  -59.0881 C   0  0  0  0  0  0  0  0  0  0  0  0
    5.7230   -7.4436  -57.6397 C   0  0  0  0  0  0  0  0  0  0  0  0
    5.1964   -6.3586  -56.6703 C   0  0  2  0  0  0  0  0  0  0  0  0
    5.3576   -6.8211  -55.2107 C   0  0  0  0  0  0  0  0  0  0  0  0
    5.5678   -8.1520  -54.9052 C   0  0  0  0  0  0  0  0  0  0  0  0
    5.7125   -8.5512  -53.5801 C   0  0  0  0  0  0  0  0  0  0  0  0
    5.6516   -7.5956  -52.5687 C   0  0  0  0  0  0  0  0  0  0  0  0
    5.4511   -6.2606  -52.8724 C   0  0  0  0  0  0  0  0  0  0  0  0
    5.3035   -5.8637  -54.1980 C   0  0  0  0  0  0  0  0  0  0  0  0
   -3.9391   -9.7424  -53.6630 H   0  0  0  0  0  0  0  0  0  0  0  0
   -4.1668   -9.2530  -52.0184 H   0  0  0  0  0  0  0  0  0  0  0  0
   -4.4555  -11.6142  -51.2840 H   0  0  0  0  0  0  0  0  0  0  0  0
   -6.5086  -11.5544  -52.1998 H   0  0  0  0  0  0  0  0  0  0  0  0
   -5.9303  -10.6175  -53.6191 H   0  0  0  0  0  0  0  0  0  0  0  0
   -5.8160  -12.4102  -53.6191 H   0  0  0  0  0  0  0  0  0  0  0  0
   -3.2767  -13.2473  -52.2853 H   0  0  0  0  0  0  0  0  0  0  0  0
   -3.7800  -12.7796  -53.9072 H   0  0  0  0  0  0  0  0  0  0  0  0
   -1.2519  -12.1525  -52.6490 H   0  0  0  0  0  0  0  0  0  0  0  0
   -1.7979  -11.4564  -54.1603 H   0  0  0  0  0  0  0  0  0  0  0  0
   -2.1267  -10.4524  -51.3999 H   0  0  0  0  0  0  0  0  0  0  0  0
   -2.1123   -8.6832  -53.5620 H   0  0  0  0  0  0  0  0  0  0  0  0
   -1.2654   -8.6708  -51.9752 H   0  0  0  0  0  0  0  0  0  0  0  0
    0.6148   -9.3988  -53.0460 H   0  0  0  0  0  0  0  0  0  0  0  0
   -0.2156  -10.9331  -53.3934 H   0  0  0  0  0  0  0  0  0  0  0  0
    1.6091  -10.1404  -56.7940 H   0  0  0  0  0  0  0  0  0  0  0  0
    3.3579   -8.6230  -57.6881 H   0  0  0  0  0  0  0  0  0  0  0  0
    0.0199   -6.9730  -54.1598 H   0  0  0  0  0  0  0  0  0  0  0  0
    1.8928   -5.3845  -55.0926 H   0  0  0  0  0  0  0  0  0  0  0  0
    3.6943   -4.9258  -56.3471 H   0  0  0  0  0  0  0  0  0  0  0  0
    1.5594   -4.7494  -57.9661 H   0  0  0  0  0  0  0  0  0  0  0  0
    1.1122   -4.5234  -60.4115 H   0  0  0  0  0  0  0  0  0  0  0  0
    3.3901   -5.7227  -63.1412 H   0  0  0  0  0  0  0  0  0  0  0  0
    4.9997   -6.4108  -61.4715 H   0  0  0  0  0  0  0  0  0  0  0  0
    5.9424   -7.7068  -59.8187 H   0  0  0  0  0  0  0  0  0  0  0  0
    6.6744   -6.2290  -59.2615 H   0  0  0  0  0  0  0  0  0  0  0  0
    5.0376   -8.3039  -57.6240 H   0  0  0  0  0  0  0  0  0  0  0  0
    6.7287   -7.7475  -57.3141 H   0  0  0  0  0  0  0  0  0  0  0  0
    5.8266   -5.4853  -56.8940 H   0  0  0  0  0  0  0  0  0  0  0  0
    5.6209   -8.8982  -55.7117 H   0  0  0  0  0  0  0  0  0  0  0  0
    5.8736   -9.6111  -53.3337 H   0  0  0  0  0  0  0  0  0  0  0  0
    5.7638   -7.9049  -51.5190 H   0  0  0  0  0  0  0  0  0  0  0  0
    5.4084   -5.5134  -52.0663 H   0  0  0  0  0  0  0  0  0  0  0  0
    5.1456   -4.8035  -54.4450 H   0  0  0  0  0  0  0  0  0  0  0  0
  1  2  1  0
  1  6  1  0
  2  3  1  0
  2  4  1  0
  4  5  1  0
  5  6  1  0
  6  7  1  0
  7  8  1  0
  8  9  1  0
  9 10  1  0
 10 11  2  0
 10 13  1  0
 11 12  1  0
 12 15  2  0
 13 14  2  0
 14 15  1  0
 16 15  1  0
 16 17  1  0
 16 26  1  0
 17 18  2  0
 17 23  1  0
 18 19  1  0
 19 20  2  0
 20 21  1  0
 20 22  1  0
 22 23  2  0
 23 24  1  0
 24 25  1  0
 25 26  1  0
 26 27  1  0
 27 28  2  0
 27 32  1  0
 28 29  1  0
 29 30  2  0
 30 31  1  0
 31 32  2  0
  1 33  1  0
  1 34  1  0
  2 35  1  1
  3 36  1  0
  3 37  1  0
  3 38  1  0
  4 39  1  0
  4 40  1  0
  5 41  1  0
  5 42  1  0
  6 43  1  1
  7 44  1  0
  7 45  1  0
  8 46  1  0
  8 47  1  0
 11 48  1  0
 12 49  1  0
 13 50  1  0
 14 51  1  0
 16 52  1  1
 18 53  1  0
 19 54  1  0
 21 55  1  0
 22 56  1  0
 24 57  1  0
 24 58  1  0
 25 59  1  0
 25 60  1  0
 26 61  1  1
 28 62  1  0
 29 63  1  0
 30 64  1  0
 31 65  1  0
 32 66  1  0
M  CHG  1   6   1
M  END
>  <filename_input>  (18) 
7UJF_R3V_docked.sdf

>  <pdb_id>  (18) 
7UJF_R3V

>  <pose_rank>  (18) 
17

>  <num_atoms_heavy>  (18) 
32

>  <num_torsions>  (18) 
6

>  <pose>  (18) 
[3.7990628930513024, -5.87612253129001, -56.891123854386535, 1.4812461739670804, -3.639278733963609, -2.26529347012461, 0.22787470718741581, -1.960409965898981, -0.9721934067293969, 3.6599696323374227, 2.5672192826332236, 0.34263907689851475]

>  <energy>  (18) 
-198.36619433794388

>  <inter_energy>  (18) 
-199.80570226450797

>  <intra_energy>  (18) 
29.483868034619412

>  <rmsd>  (18) 
13.2031

>  <sdf_rank>  (18) 
0

$$$$

     RDKit          3D

 66 70  0  0  0  0  0  0  0  0999 V2000
   -7.2955   -6.0515  -61.7491 C   0  0  0  0  0  0  0  0  0  0  0  0
   -7.5247   -6.4444  -60.3277 C   0  0  1  0  0  0  0  0  0  0  0  0
   -7.1993   -5.2410  -59.3974 C   0  0  0  0  0  0  0  0  0  0  0  0
   -8.9294   -6.8356  -60.2376 C   0  0  0  0  0  0  0  0  0  0  0  0
   -9.3448   -7.1293  -61.6935 C   0  0  0  0  0  0  0  0  0  0  0  0
   -8.0725   -7.0719  -62.4190 N   0  0  1  0  0  0  0  0  0  0  0  0
   -8.2253   -6.7720  -63.7772 C   0  0  0  0  0  0  0  0  0  0  0  0
   -8.1706   -8.0675  -64.6069 C   0  0  0  0  0  0  0  0  0  0  0  0
   -6.7976   -8.3136  -64.9096 O   0  0  0  0  0  0  0  0  0  0  0  0
   -6.4341   -8.4290  -66.2867 C   0  0  0  0  0  0  0  0  0  0  0  0
   -5.2306   -7.6716  -66.8367 C   0  0  0  0  0  0  0  0  0  0  0  0
   -4.8751   -7.7775  -68.1664 C   0  0  0  0  0  0  0  0  0  0  0  0
   -7.1966   -9.2134  -67.1021 C   0  0  0  0  0  0  0  0  0  0  0  0
   -6.7986   -9.3151  -68.5731 C   0  0  0  0  0  0  0  0  0  0  0  0
   -5.7206   -8.6348  -69.0868 C   0  0  0  0  0  0  0  0  0  0  0  0
   -5.3810   -8.8018  -70.5595 C   0  0  2  0  0  0  0  0  0  0  0  0
   -4.0273   -9.2687  -70.6008 C   0  0  0  0  0  0  0  0  0  0  0  0
   -3.8101  -10.6607  -70.0299 C   0  0  0  0  0  0  0  0  0  0  0  0
   -2.5146  -11.1412  -70.0477 C   0  0  0  0  0  0  0  0  0  0  0  0
   -1.3577  -10.3109  -70.6081 C   0  0  0  0  0  0  0  0  0  0  0  0
   -0.0621  -10.8264  -70.5709 O   0  0  0  0  0  0  0  0  0  0  0  0
   -1.5528   -9.0592  -71.1494 C   0  0  0  0  0  0  0  0  0  0  0  0
   -2.9864   -8.5787  -71.0752 C   0  0  0  0  0  0  0  0  0  0  0  0
   -2.9469   -7.1577  -71.7008 C   0  0  0  0  0  0  0  0  0  0  0  0
   -4.2595   -6.5406  -71.1491 C   0  0  0  0  0  0  0  0  0  0  0  0
   -5.4456   -7.5188  -71.3235 C   0  0  2  0  0  0  0  0  0  0  0  0
   -6.7764   -6.8057  -71.0220 C   0  0  0  0  0  0  0  0  0  0  0  0
   -6.8165   -5.6863  -70.2132 C   0  0  0  0  0  0  0  0  0  0  0  0
   -8.0285   -5.0542  -69.9531 C   0  0  0  0  0  0  0  0  0  0  0  0
   -9.1963   -5.5563  -70.5222 C   0  0  0  0  0  0  0  0  0  0  0  0
   -9.1578   -6.6713  -71.3407 C   0  0  0  0  0  0  0  0  0  0  0  0
   -7.9452   -7.3039  -71.5973 C   0  0  0  0  0  0  0  0  0  0  0  0
   -7.6781   -5.0421  -61.9606 H   0  0  0  0  0  0  0  0  0  0  0  0
   -6.2391   -5.9998  -62.0514 H   0  0  0  0  0  0  0  0  0  0  0  0
   -6.8775   -7.2757  -60.0113 H   0  0  0  0  0  0  0  0  0  0  0  0
   -7.2845   -5.5560  -58.3469 H   0  0  0  0  0  0  0  0  0  0  0  0
   -6.1747   -4.8923  -59.5937 H   0  0  0  0  0  0  0  0  0  0  0  0
   -7.9088   -4.4235  -59.5937 H   0  0  0  0  0  0  0  0  0  0  0  0
   -9.0433   -7.7335  -59.6125 H   0  0  0  0  0  0  0  0  0  0  0  0
   -9.5514   -6.0548  -59.7756 H   0  0  0  0  0  0  0  0  0  0  0  0
   -9.8044   -8.1250  -61.7800 H   0  0  0  0  0  0  0  0  0  0  0  0
  -10.0957   -6.4245  -62.0800 H   0  0  0  0  0  0  0  0  0  0  0  0
   -7.6119   -7.9931  -62.4056 H   0  0  0  0  0  0  0  0  0  0  0  0
   -9.1953   -6.2778  -63.9351 H   0  0  0  0  0  0  0  0  0  0  0  0
   -7.4122   -6.1027  -64.0949 H   0  0  0  0  0  0  0  0  0  0  0  0
   -8.5852   -8.9051  -64.0266 H   0  0  0  0  0  0  0  0  0  0  0  0
   -8.7633   -7.9681  -65.5282 H   0  0  0  0  0  0  0  0  0  0  0  0
   -4.6380   -7.0327  -66.1654 H   0  0  0  0  0  0  0  0  0  0  0  0
   -3.9916   -7.2477  -68.5521 H   0  0  0  0  0  0  0  0  0  0  0  0
   -8.0707   -9.7556  -66.7123 H   0  0  0  0  0  0  0  0  0  0  0  0
   -7.3938   -9.9532  -69.2429 H   0  0  0  0  0  0  0  0  0  0  0  0
   -6.1070   -9.4893  -71.0181 H   0  0  0  0  0  0  0  0  0  0  0  0
   -4.6416  -11.2551  -69.6234 H   0  0  0  0  0  0  0  0  0  0  0  0
   -2.3099  -12.1458  -69.6491 H   0  0  0  0  0  0  0  0  0  0  0  0
    0.6922  -10.2959  -70.9312 H   0  0  0  0  0  0  0  0  0  0  0  0
   -0.7418   -8.4640  -71.5944 H   0  0  0  0  0  0  0  0  0  0  0  0
   -2.0648   -6.5942  -71.3627 H   0  0  0  0  0  0  0  0  0  0  0  0
   -2.8755   -7.1527  -72.7984 H   0  0  0  0  0  0  0  0  0  0  0  0
   -4.1309   -6.3174  -70.0797 H   0  0  0  0  0  0  0  0  0  0  0  0
   -4.4779   -5.6200  -71.7102 H   0  0  0  0  0  0  0  0  0  0  0  0
   -5.3754   -7.8237  -72.3780 H   0  0  0  0  0  0  0  0  0  0  0  0
   -5.8876   -5.2937  -69.7737 H   0  0  0  0  0  0  0  0  0  0  0  0
   -8.0640   -4.1666  -69.3042 H   0  0  0  0  0  0  0  0  0  0  0  0
  -10.1578   -5.0620  -70.3193 H   0  0  0  0  0  0  0  0  0  0  0  0
  -10.0854   -7.0575  -71.7883 H   0  0  0  0  0  0  0  0  0  0  0  0
   -7.9088   -8.1897  -72.2485 H   0  0  0  0  0  0  0  0  0  0  0  0
  1  2  1  0
  1  6  1  0
  2  3  1  0
  2  4  1  0
  4  5  1  0
  5  6  1  0
  6  7  1  0
  7  8  1  0
  8  9  1  0
  9 10  1  0
 10 11  2  0
 10 13  1  0
 11 12  1  0
 12 15  2  0
 13 14  2  0
 14 15  1  0
 16 15  1  0
 16 17  1  0
 16 26  1  0
 17 18  2  0
 17 23  1  0
 18 19  1  0
 19 20  2  0
 20 21  1  0
 20 22  1  0
 22 23  2  0
 23 24  1  0
 24 25  1  0
 25 26  1  0
 26 27  1  0
 27 28  2  0
 27 32  1  0
 28 29  1  0
 29 30  2  0
 30 31  1  0
 31 32  2  0
  1 33  1  0
  1 34  1  0
  2 35  1  1
  3 36  1  0
  3 37  1  0
  3 38  1  0
  4 39  1  0
  4 40  1  0
  5 41  1  0
  5 42  1  0
  6 43  1  6
  7 44  1  0
  7 45  1  0
  8 46  1  0
  8 47  1  0
 11 48  1  0
 12 49  1  0
 13 50  1  0
 14 51  1  0
 16 52  1  6
 18 53  1  0
 19 54  1  0
 21 55  1  0
 22 56  1  0
 24 57  1  0
 24 58  1  0
 25 59  1  0
 25 60  1  0
 26 61  1  6
 28 62  1  0
 29 63  1  0
 30 64  1  0
 31 65  1  0
 32 66  1  0
M  CHG  1   6   1
M  END
>  <filename_input>  (19) 
7UJF_R3V_docked.sdf

>  <pdb_id>  (19) 
7UJF_R3V

>  <pose_rank>  (19) 
18

>  <num_atoms_heavy>  (19) 
32

>  <num_torsions>  (19) 
6

>  <pose>  (19) 
[-5.380986263970279, -8.801834646846197, -70.5594671298222, 2.838569046644326, -0.48059760304099547, -0.3127800150850547, 0.16819832446522898, -1.6382413948510135, 1.1216350431981592, 0.1360307860270086, 1.235235388688416, 0.2264997090068693]

>  <energy>  (19) 
-178.5280343253632

>  <inter_energy>  (19) 
-204.43158977507204

>  <intra_energy>  (19) 
26.40090271923862

>  <rmsd>  (19) 
12.5611

>  <sdf_rank>  (19) 
0

$$$$

     RDKit          3D

 66 70  0  0  0  0  0  0  0  0999 V2000
   -8.5978  -18.8728  -56.3504 C   0  0  0  0  0  0  0  0  0  0  0  0
   -9.7548  -18.5354  -57.2306 C   0  0  1  0  0  0  0  0  0  0  0  0
  -11.0765  -18.9900  -56.5478 C   0  0  0  0  0  0  0  0  0  0  0  0
   -9.7114  -17.0872  -57.4184 C   0  0  0  0  0  0  0  0  0  0  0  0
   -8.2655  -16.6918  -57.0556 C   0  0  0  0  0  0  0  0  0  0  0  0
   -7.5963  -17.9869  -56.9034 N   0  0  1  0  0  0  0  0  0  0  0  0
   -6.4683  -17.9308  -56.0772 C   0  0  0  0  0  0  0  0  0  0  0  0
   -5.1931  -18.0984  -56.9233 C   0  0  0  0  0  0  0  0  0  0  0  0
   -5.5867  -18.0250  -58.2934 O   0  0  0  0  0  0  0  0  0  0  0  0
   -4.8439  -17.1549  -59.1495 C   0  0  0  0  0  0  0  0  0  0  0  0
   -3.9566  -16.0625  -58.5630 C   0  0  0  0  0  0  0  0  0  0  0  0
   -3.2378  -15.2176  -59.3846 C   0  0  0  0  0  0  0  0  0  0  0  0
   -4.9605  -17.3084  -60.5003 C   0  0  0  0  0  0  0  0  0  0  0  0
   -4.1675  -16.3616  -61.3987 C   0  0  0  0  0  0  0  0  0  0  0  0
   -3.3677  -15.3679  -60.8871 C   0  0  0  0  0  0  0  0  0  0  0  0
   -2.5981  -14.4767  -61.8491 C   0  0  2  0  0  0  0  0  0  0  0  0
   -3.5678  -13.9603  -62.7686 C   0  0  0  0  0  0  0  0  0  0  0  0
   -4.5925  -13.0173  -62.1593 C   0  0  0  0  0  0  0  0  0  0  0  0
   -5.5475  -12.5046  -63.0163 C   0  0  0  0  0  0  0  0  0  0  0  0
   -5.5749  -12.8730  -64.5013 C   0  0  0  0  0  0  0  0  0  0  0  0
   -6.5810  -12.3569  -65.3180 O   0  0  0  0  0  0  0  0  0  0  0  0
   -4.6338  -13.7072  -65.0637 C   0  0  0  0  0  0  0  0  0  0  0  0
   -3.6332  -14.2569  -64.0695 C   0  0  0  0  0  0  0  0  0  0  0  0
   -2.7181  -15.1810  -64.9183 C   0  0  0  0  0  0  0  0  0  0  0  0
   -2.0806  -16.0758  -63.8223 C   0  0  0  0  0  0  0  0  0  0  0  0
   -1.5696  -15.2200  -62.6389 C   0  0  2  0  0  0  0  0  0  0  0  0
   -0.7110  -16.0764  -61.6903 C   0  0  0  0  0  0  0  0  0  0  0  0
    0.3438  -15.5228  -60.9906 C   0  0  0  0  0  0  0  0  0  0  0  0
    1.1080  -16.3122  -60.1367 C   0  0  0  0  0  0  0  0  0  0  0  0
    0.7934  -17.6610  -59.9896 C   0  0  0  0  0  0  0  0  0  0  0  0
   -0.2686  -18.2158  -60.6815 C   0  0  0  0  0  0  0  0  0  0  0  0
   -1.0299  -17.4255  -61.5373 C   0  0  0  0  0  0  0  0  0  0  0  0
   -8.8072  -18.6443  -55.2949 H   0  0  0  0  0  0  0  0  0  0  0  0
   -8.3195  -19.9370  -56.3377 H   0  0  0  0  0  0  0  0  0  0  0  0
   -9.7066  -19.0465  -58.2034 H   0  0  0  0  0  0  0  0  0  0  0  0
  -10.9576  -18.9491  -55.4551 H   0  0  0  0  0  0  0  0  0  0  0  0
  -11.8954  -18.3219  -56.8528 H   0  0  0  0  0  0  0  0  0  0  0  0
  -11.3111  -20.0205  -56.8528 H   0  0  0  0  0  0  0  0  0  0  0  0
   -9.9357  -16.8240  -58.4626 H   0  0  0  0  0  0  0  0  0  0  0  0
  -10.4550  -16.5636  -56.7997 H   0  0  0  0  0  0  0  0  0  0  0  0
   -7.8039  -16.1006  -57.8602 H   0  0  0  0  0  0  0  0  0  0  0  0
   -8.2017  -16.0630  -56.1553 H   0  0  0  0  0  0  0  0  0  0  0  0
   -7.2377  -18.3126  -57.8123 H   0  0  0  0  0  0  0  0  0  0  0  0
   -6.4402  -16.9588  -55.5630 H   0  0  0  0  0  0  0  0  0  0  0  0
   -6.5209  -18.7413  -55.3353 H   0  0  0  0  0  0  0  0  0  0  0  0
   -4.4785  -17.2947  -56.6923 H   0  0  0  0  0  0  0  0  0  0  0  0
   -4.7031  -19.0592  -56.7073 H   0  0  0  0  0  0  0  0  0  0  0  0
   -3.8884  -15.9462  -57.4713 H   0  0  0  0  0  0  0  0  0  0  0  0
   -2.5807  -14.4470  -58.9553 H   0  0  0  0  0  0  0  0  0  0  0  0
   -5.6055  -18.0897  -60.9288 H   0  0  0  0  0  0  0  0  0  0  0  0
   -4.2387  -16.4787  -62.4901 H   0  0  0  0  0  0  0  0  0  0  0  0
   -2.0686  -13.7029  -61.2739 H   0  0  0  0  0  0  0  0  0  0  0  0
   -4.5747  -12.7564  -61.0908 H   0  0  0  0  0  0  0  0  0  0  0  0
   -6.3073  -11.8142  -62.6210 H   0  0  0  0  0  0  0  0  0  0  0  0
   -6.6061  -12.5901  -66.2799 H   0  0  0  0  0  0  0  0  0  0  0  0
   -4.6114  -13.9513  -66.1361 H   0  0  0  0  0  0  0  0  0  0  0  0
   -3.3025  -15.7775  -65.6344 H   0  0  0  0  0  0  0  0  0  0  0  0
   -1.9869  -14.6415  -65.5383 H   0  0  0  0  0  0  0  0  0  0  0  0
   -2.8351  -16.7863  -63.4536 H   0  0  0  0  0  0  0  0  0  0  0  0
   -1.2275  -16.6144  -64.2607 H   0  0  0  0  0  0  0  0  0  0  0  0
   -0.9769  -14.4325  -63.1272 H   0  0  0  0  0  0  0  0  0  0  0  0
    0.5802  -14.4550  -61.1087 H   0  0  0  0  0  0  0  0  0  0  0  0
    1.9524  -15.8754  -59.5834 H   0  0  0  0  0  0  0  0  0  0  0  0
    1.3945  -18.2908  -59.3173 H   0  0  0  0  0  0  0  0  0  0  0  0
   -0.5111  -19.2813  -60.5552 H   0  0  0  0  0  0  0  0  0  0  0  0
   -1.8762  -17.8612  -62.0885 H   0  0  0  0  0  0  0  0  0  0  0  0
  1  2  1  0
  1  6  1  0
  2  3  1  0
  2  4  1  0
  4  5  1  0
  5  6  1  0
  6  7  1  0
  7  8  1  0
  8  9  1  0
  9 10  1  0
 10 11  2  0
 10 13  1  0
 11 12  1  0
 12 15  2  0
 13 14  2  0
 14 15  1  0
 16 15  1  0
 16 17  1  0
 16 26  1  0
 17 18  2  0
 17 23  1  0
 18 19  1  0
 19 20  2  0
 20 21  1  0
 20 22  1  0
 22 23  2  0
 23 24  1  0
 24 25  1  0
 25 26  1  0
 26 27  1  0
 27 28  2  0
 27 32  1  0
 28 29  1  0
 29 30  2  0
 30 31  1  0
 31 32  2  0
  1 33  1  0
  1 34  1  0
  2 35  1  6
  3 36  1  0
  3 37  1  0
  3 38  1  0
  4 39  1  0
  4 40  1  0
  5 41  1  0
  5 42  1  0
  6 43  1  6
  7 44  1  0
  7 45  1  0
  8 46  1  0
  8 47  1  0
 11 48  1  0
 12 49  1  0
 13 50  1  0
 14 51  1  0
 16 52  1  1
 18 53  1  0
 19 54  1  0
 21 55  1  0
 22 56  1  0
 24 57  1  0
 24 58  1  0
 25 59  1  0
 25 60  1  0
 26 61  1  6
 28 62  1  0
 29 63  1  0
 30 64  1  0
 31 65  1  0
 32 66  1  0
M  CHG  1   6   1
M  END
>  <filename_input>  (20) 
7UJF_R3V_docked.sdf

>  <pdb_id>  (20) 
7UJF_R3V

>  <pose_rank>  (20) 
19

>  <num_atoms_heavy>  (20) 
32

>  <num_torsions>  (20) 
6

>  <pose>  (20) 
[-2.598135449180942, -14.476670569619742, -61.84912108745011, 0.3445915885064142, 7.439568551317666, 4.026759288525001, -3.0412616173313136, 2.0298863056150784, -0.7270515052937029, -4.445728514184522, 1.0529987923379738, -3.055847926889629]

>  <energy>  (20) 
-311.0960634987647

>  <inter_energy>  (20) 
-338.8910460778656

>  <intra_energy>  (20) 
45.82399735147435

>  <rmsd>  (20) 
8.60195

>  <sdf_rank>  (20) 
0

$$$$

     RDKit          3D

 66 70  0  0  0  0  0  0  0  0999 V2000
   -2.5874  -13.7039  -68.1435 C   0  0  0  0  0  0  0  0  0  0  0  0
   -3.2743  -12.5006  -68.6980 C   0  0  1  0  0  0  0  0  0  0  0  0
   -3.9862  -11.7329  -67.5476 C   0  0  0  0  0  0  0  0  0  0  0  0
   -2.2313  -11.6926  -69.3254 C   0  0  0  0  0  0  0  0  0  0  0  0
   -1.0625  -12.6734  -69.5497 C   0  0  0  0  0  0  0  0  0  0  0  0
   -1.6514  -13.9729  -69.2137 N   0  0  1  0  0  0  0  0  0  0  0  0
   -0.7026  -14.9231  -68.8202 C   0  0  0  0  0  0  0  0  0  0  0  0
    0.7150  -14.3501  -68.9997 C   0  0  0  0  0  0  0  0  0  0  0  0
    1.6039  -15.1945  -68.2688 O   0  0  0  0  0  0  0  0  0  0  0  0
    2.4592  -16.0605  -69.0174 C   0  0  0  0  0  0  0  0  0  0  0  0
    2.5286  -15.9572  -70.5370 C   0  0  0  0  0  0  0  0  0  0  0  0
    3.3516  -16.7919  -71.2661 C   0  0  0  0  0  0  0  0  0  0  0  0
    3.1959  -16.9933  -68.3474 C   0  0  0  0  0  0  0  0  0  0  0  0
    4.0955  -17.9169  -69.1660 C   0  0  0  0  0  0  0  0  0  0  0  0
    4.1657  -17.8415  -70.5365 C   0  0  0  0  0  0  0  0  0  0  0  0
    5.0982  -18.7872  -71.2769 C   0  0  2  0  0  0  0  0  0  0  0  0
    4.5969  -20.1066  -71.0316 C   0  0  0  0  0  0  0  0  0  0  0  0
    3.2377  -20.4017  -71.6448 C   0  0  0  0  0  0  0  0  0  0  0  0
    2.7201  -21.6636  -71.4231 C   0  0  0  0  0  0  0  0  0  0  0  0
    3.4748  -22.7076  -70.5970 C   0  0  0  0  0  0  0  0  0  0  0  0
    2.8936  -23.9554  -70.3718 O   0  0  0  0  0  0  0  0  0  0  0  0
    4.7179  -22.4538  -70.0601 C   0  0  0  0  0  0  0  0  0  0  0  0
    5.2171  -21.0474  -70.3141 C   0  0  0  0  0  0  0  0  0  0  0  0
    6.5919  -20.9931  -69.5937 C   0  0  0  0  0  0  0  0  0  0  0  0
    6.8024  -19.4629  -69.4444 C   0  0  0  0  0  0  0  0  0  0  0  0
    6.5052  -18.7321  -70.7755 C   0  0  2  0  0  0  0  0  0  0  0  0
    6.9672  -17.2656  -70.6959 C   0  0  0  0  0  0  0  0  0  0  0  0
    7.0392  -16.4798  -71.8300 C   0  0  0  0  0  0  0  0  0  0  0  0
    7.4578  -15.1560  -71.7384 C   0  0  0  0  0  0  0  0  0  0  0  0
    7.7943  -14.6310  -70.4930 C   0  0  0  0  0  0  0  0  0  0  0  0
    7.7135  -15.4128  -69.3542 C   0  0  0  0  0  0  0  0  0  0  0  0
    7.2977  -16.7374  -69.4482 C   0  0  0  0  0  0  0  0  0  0  0  0
   -2.0727  -13.4806  -67.1973 H   0  0  0  0  0  0  0  0  0  0  0  0
   -3.2531  -14.5415  -67.8881 H   0  0  0  0  0  0  0  0  0  0  0  0
   -4.0488  -12.7603  -69.4347 H   0  0  0  0  0  0  0  0  0  0  0  0
   -3.6325  -12.1144  -66.5784 H   0  0  0  0  0  0  0  0  0  0  0  0
   -3.7562  -10.6601  -67.6254 H   0  0  0  0  0  0  0  0  0  0  0  0
   -5.0733  -11.8815  -67.6254 H   0  0  0  0  0  0  0  0  0  0  0  0
   -2.5822  -11.2810  -70.2832 H   0  0  0  0  0  0  0  0  0  0  0  0
   -1.9407  -10.8316  -68.7055 H   0  0  0  0  0  0  0  0  0  0  0  0
   -0.7238  -12.6518  -70.5960 H   0  0  0  0  0  0  0  0  0  0  0  0
   -0.1737  -12.4324  -68.9480 H   0  0  0  0  0  0  0  0  0  0  0  0
   -2.1046  -14.3845  -70.0420 H   0  0  0  0  0  0  0  0  0  0  0  0
   -0.8609  -15.1810  -67.7627 H   0  0  0  0  0  0  0  0  0  0  0  0
   -0.8115  -15.8240  -69.4419 H   0  0  0  0  0  0  0  0  0  0  0  0
    0.9884  -14.3463  -70.0651 H   0  0  0  0  0  0  0  0  0  0  0  0
    0.7682  -13.3143  -68.6330 H   0  0  0  0  0  0  0  0  0  0  0  0
    1.9151  -15.2081  -71.0590 H   0  0  0  0  0  0  0  0  0  0  0  0
    3.4155  -16.6967  -72.3601 H   0  0  0  0  0  0  0  0  0  0  0  0
    3.1435  -17.0774  -67.2519 H   0  0  0  0  0  0  0  0  0  0  0  0
    4.7067  -18.6664  -68.6420 H   0  0  0  0  0  0  0  0  0  0  0  0
    5.1216  -18.5066  -72.3403 H   0  0  0  0  0  0  0  0  0  0  0  0
    2.6939  -19.6492  -72.2349 H   0  0  0  0  0  0  0  0  0  0  0  0
    1.7409  -21.9243  -71.8512 H   0  0  0  0  0  0  0  0  0  0  0  0
    3.3750  -24.6366  -69.8385 H   0  0  0  0  0  0  0  0  0  0  0  0
    5.2944  -23.2039  -69.4988 H   0  0  0  0  0  0  0  0  0  0  0  0
    6.5519  -21.4908  -68.6135 H   0  0  0  0  0  0  0  0  0  0  0  0
    7.4015  -21.5068  -70.1328 H   0  0  0  0  0  0  0  0  0  0  0  0
    6.1266  -19.0807  -68.6652 H   0  0  0  0  0  0  0  0  0  0  0  0
    7.8509  -19.2777  -69.1684 H   0  0  0  0  0  0  0  0  0  0  0  0
    7.0832  -19.3027  -71.5174 H   0  0  0  0  0  0  0  0  0  0  0  0
    6.7650  -16.9019  -72.8081 H   0  0  0  0  0  0  0  0  0  0  0  0
    7.5222  -14.5301  -72.6407 H   0  0  0  0  0  0  0  0  0  0  0  0
    8.1273  -13.5856  -70.4140 H   0  0  0  0  0  0  0  0  0  0  0  0
    7.9780  -14.9873  -68.3749 H   0  0  0  0  0  0  0  0  0  0  0  0
    7.2301  -17.3627  -68.5457 H   0  0  0  0  0  0  0  0  0  0  0  0
  1  2  1  0
  1  6  1  0
  2  3  1  0
  2  4  1  0
  4  5  1  0
  5  6  1  0
  6  7  1  0
  7  8  1  0
  8  9  1  0
  9 10  1  0
 10 11  2  0
 10 13  1  0
 11 12  1  0
 12 15  2  0
 13 14  2  0
 14 15  1  0
 16 15  1  0
 16 17  1  0
 16 26  1  0
 17 18  2  0
 17 23  1  0
 18 19  1  0
 19 20  2  0
 20 21  1  0
 20 22  1  0
 22 23  2  0
 23 24  1  0
 24 25  1  0
 25 26  1  0
 26 27  1  0
 27 28  2  0
 27 32  1  0
 28 29  1  0
 29 30  2  0
 30 31  1  0
 31 32  2  0
  1 33  1  0
  1 34  1  0
  2 35  1  6
  3 36  1  0
  3 37  1  0
  3 38  1  0
  4 39  1  0
  4 40  1  0
  5 41  1  0
  5 42  1  0
  6 43  1  6
  7 44  1  0
  7 45  1  0
  8 46  1  0
  8 47  1  0
 11 48  1  0
 12 49  1  0
 13 50  1  0
 14 51  1  0
 16 52  1  6
 18 53  1  0
 19 54  1  0
 21 55  1  0
 22 56  1  0
 24 57  1  0
 24 58  1  0
 25 59  1  0
 25 60  1  0
 26 61  1  6
 28 62  1  0
 29 63  1  0
 30 64  1  0
 31 65  1  0
 32 66  1  0
M  CHG  1   6   1
M  END
>  <filename_input>  (21) 
7UJF_R3V_docked.sdf

>  <pdb_id>  (21) 
7UJF_R3V

>  <pose_rank>  (21) 
20

>  <num_atoms_heavy>  (21) 
32

>  <num_torsions>  (21) 
6

>  <pose>  (21) 
[5.098191542211786, -18.787198591830677, -71.27691189515036, -1.6375736698117591, 2.069294238382524, -0.8376531485007923, 3.4275530832602823, 2.45773809706687, -1.1449649003928093, 4.546186282484031, 2.8559660340967783, -2.710839931289165]

>  <energy>  (21) 
-151.0837632234731

>  <inter_energy>  (21) 
-157.985003015569

>  <intra_energy>  (21) 
36.2555052310821

>  <rmsd>  (21) 
11.5329

>  <sdf_rank>  (21) 
0

$$$$

     RDKit          3D

 66 70  0  0  0  0  0  0  0  0999 V2000
   -8.0539   -5.2433  -63.4584 C   0  0  0  0  0  0  0  0  0  0  0  0
   -8.3164   -6.1993  -64.5740 C   0  0  1  0  0  0  0  0  0  0  0  0
   -7.2901   -5.9572  -65.7176 C   0  0  0  0  0  0  0  0  0  0  0  0
   -8.1841   -7.5364  -64.0004 C   0  0  0  0  0  0  0  0  0  0  0  0
   -8.3366   -7.3238  -62.4805 C   0  0  0  0  0  0  0  0  0  0  0  0
   -8.7449   -5.9196  -62.3819 N   0  0  1  0  0  0  0  0  0  0  0  0
   -8.4332   -5.3402  -61.1468 C   0  0  0  0  0  0  0  0  0  0  0  0
   -8.7955   -6.3115  -60.0088 C   0  0  0  0  0  0  0  0  0  0  0  0
   -9.2339   -5.5192  -58.9053 O   0  0  0  0  0  0  0  0  0  0  0  0
   -8.6748   -5.8054  -57.6218 C   0  0  0  0  0  0  0  0  0  0  0  0
   -7.6431   -6.9156  -57.4559 C   0  0  0  0  0  0  0  0  0  0  0  0
   -7.1004   -7.1981  -56.2184 C   0  0  0  0  0  0  0  0  0  0  0  0
   -9.0974   -5.0795  -56.5465 C   0  0  0  0  0  0  0  0  0  0  0  0
   -8.4964   -5.4078  -55.1814 C   0  0  0  0  0  0  0  0  0  0  0  0
   -7.5699   -6.4089  -55.0128 C   0  0  0  0  0  0  0  0  0  0  0  0
   -7.0080   -6.6626  -53.6229 C   0  0  2  0  0  0  0  0  0  0  0  0
   -5.5826   -6.6427  -53.7649 C   0  0  0  0  0  0  0  0  0  0  0  0
   -4.9933   -5.2931  -54.1414 C   0  0  0  0  0  0  0  0  0  0  0  0
   -3.6209   -5.2382  -54.2931 C   0  0  0  0  0  0  0  0  0  0  0  0
   -2.7411   -6.4750  -54.0980 C   0  0  0  0  0  0  0  0  0  0  0  0
   -1.3641   -6.3762  -54.2975 O   0  0  0  0  0  0  0  0  0  0  0  0
   -3.2673   -7.6946  -53.7324 C   0  0  0  0  0  0  0  0  0  0  0  0
   -4.7761   -7.6964  -53.6093 C   0  0  0  0  0  0  0  0  0  0  0  0
   -5.1280   -9.1614  -53.2328 C   0  0  0  0  0  0  0  0  0  0  0  0
   -6.6301   -9.2270  -53.6168 C   0  0  0  0  0  0  0  0  0  0  0  0
   -7.3939   -7.9969  -53.0710 C   0  0  2  0  0  0  0  0  0  0  0  0
   -8.9126   -8.1986  -53.2240 C   0  0  0  0  0  0  0  0  0  0  0  0
   -9.4206   -9.1435  -54.0946 C   0  0  0  0  0  0  0  0  0  0  0  0
  -10.7962   -9.3125  -54.2185 C   0  0  0  0  0  0  0  0  0  0  0  0
  -11.6525   -8.5263  -53.4513 C   0  0  0  0  0  0  0  0  0  0  0  0
  -11.1463   -7.5862  -52.5714 C   0  0  0  0  0  0  0  0  0  0  0  0
   -9.7703   -7.4165  -52.4509 C   0  0  0  0  0  0  0  0  0  0  0  0
   -6.9781   -5.1411  -63.2527 H   0  0  0  0  0  0  0  0  0  0  0  0
   -8.3841   -4.2108  -63.6451 H   0  0  0  0  0  0  0  0  0  0  0  0
   -9.3173   -6.0707  -65.0117 H   0  0  0  0  0  0  0  0  0  0  0  0
   -6.3062   -5.7250  -65.2841 H   0  0  0  0  0  0  0  0  0  0  0  0
   -7.2130   -6.8618  -66.3386 H   0  0  0  0  0  0  0  0  0  0  0  0
   -7.6255   -5.1135  -66.3386 H   0  0  0  0  0  0  0  0  0  0  0  0
   -8.9731   -8.2020  -64.3805 H   0  0  0  0  0  0  0  0  0  0  0  0
   -7.2262   -8.0099  -64.2616 H   0  0  0  0  0  0  0  0  0  0  0  0
   -9.1068   -7.9894  -62.0637 H   0  0  0  0  0  0  0  0  0  0  0  0
   -7.4184   -7.5482  -61.9178 H   0  0  0  0  0  0  0  0  0  0  0  0
   -9.7690   -5.8393  -62.4564 H   0  0  0  0  0  0  0  0  0  0  0  0
   -7.3564   -5.1186  -61.1088 H   0  0  0  0  0  0  0  0  0  0  0  0
   -9.0077   -4.4099  -61.0269 H   0  0  0  0  0  0  0  0  0  0  0  0
   -9.6010   -6.9875  -60.3316 H   0  0  0  0  0  0  0  0  0  0  0  0
   -7.9285   -6.9278  -59.7287 H   0  0  0  0  0  0  0  0  0  0  0  0
   -7.3271   -7.4988  -58.3334 H   0  0  0  0  0  0  0  0  0  0  0  0
   -6.3387   -7.9842  -56.1090 H   0  0  0  0  0  0  0  0  0  0  0  0
   -9.8474   -4.2828  -56.6593 H   0  0  0  0  0  0  0  0  0  0  0  0
   -8.8152   -4.8244  -54.3051 H   0  0  0  0  0  0  0  0  0  0  0  0
   -7.4009   -5.9006  -52.9338 H   0  0  0  0  0  0  0  0  0  0  0  0
   -5.6268   -4.4055  -54.2856 H   0  0  0  0  0  0  0  0  0  0  0  0
   -3.1489   -4.2813  -54.5608 H   0  0  0  0  0  0  0  0  0  0  0  0
   -0.7876   -7.1714  -54.1735 H   0  0  0  0  0  0  0  0  0  0  0  0
   -2.6483   -8.5848  -53.5471 H   0  0  0  0  0  0  0  0  0  0  0  0
   -4.5326   -9.8800  -53.8151 H   0  0  0  0  0  0  0  0  0  0  0  0
   -4.9218   -9.4166  -52.1829 H   0  0  0  0  0  0  0  0  0  0  0  0
   -6.7210   -9.2500  -54.7128 H   0  0  0  0  0  0  0  0  0  0  0  0
   -7.0662  -10.1355  -53.1759 H   0  0  0  0  0  0  0  0  0  0  0  0
   -7.0920   -7.9543  -52.0141 H   0  0  0  0  0  0  0  0  0  0  0  0
   -8.7358   -9.7639  -54.6913 H   0  0  0  0  0  0  0  0  0  0  0  0
  -11.2034  -10.0596  -54.9156 H   0  0  0  0  0  0  0  0  0  0  0  0
  -12.7410   -8.6540  -53.5457 H   0  0  0  0  0  0  0  0  0  0  0  0
  -11.8312   -6.9731  -51.9672 H   0  0  0  0  0  0  0  0  0  0  0  0
   -9.3626   -6.6716  -51.7517 H   0  0  0  0  0  0  0  0  0  0  0  0
  1  2  1  0
  1  6  1  0
  2  3  1  0
  2  4  1  0
  4  5  1  0
  5  6  1  0
  6  7  1  0
  7  8  1  0
  8  9  1  0
  9 10  1  0
 10 11  2  0
 10 13  1  0
 11 12  1  0
 12 15  2  0
 13 14  2  0
 14 15  1  0
 16 15  1  0
 16 17  1  0
 16 26  1  0
 17 18  2  0
 17 23  1  0
 18 19  1  0
 19 20  2  0
 20 21  1  0
 20 22  1  0
 22 23  2  0
 23 24  1  0
 24 25  1  0
 25 26  1  0
 26 27  1  0
 27 28  2  0
 27 32  1  0
 28 29  1  0
 29 30  2  0
 30 31  1  0
 31 32  2  0
  1 33  1  0
  1 34  1  0
  2 35  1  6
  3 36  1  0
  3 37  1  0
  3 38  1  0
  4 39  1  0
  4 40  1  0
  5 41  1  0
  5 42  1  0
  6 43  1  6
  7 44  1  0
  7 45  1  0
  8 46  1  0
  8 47  1  0
 11 48  1  0
 12 49  1  0
 13 50  1  0
 14 51  1  0
 16 52  1  1
 18 53  1  0
 19 54  1  0
 21 55  1  0
 22 56  1  0
 24 57  1  0
 24 58  1  0
 25 59  1  0
 25 60  1  0
 26 61  1  1
 28 62  1  0
 29 63  1  0
 30 64  1  0
 31 65  1  0
 32 66  1  0
M  CHG  1   6   1
M  END
>  <filename_input>  (22) 
7UJF_R3V_docked.sdf

>  <pdb_id>  (22) 
7UJF_R3V

>  <pose_rank>  (22) 
21

>  <num_atoms_heavy>  (22) 
32

>  <num_torsions>  (22) 
6

>  <pose>  (22) 
[-7.007962037328802, -6.662591281345047, -53.62292360252641, 5.142955149065531, 3.391413422324583, -0.7262039001863356, 0.08403750592283357, 2.339267484936968, -11.595985572887031, -13.44451013879597, -4.091894249441184, 0.325181416062471]

>  <energy>  (22) 
-148.90264911168032

>  <inter_energy>  (22) 
-152.83495997153224

>  <intra_energy>  (22) 
24.239525358132045

>  <rmsd>  (22) 
11.5427

>  <sdf_rank>  (22) 
0

$$$$

     RDKit          3D

 66 70  0  0  0  0  0  0  0  0999 V2000
   -7.2693   -6.3500  -55.5456 C   0  0  0  0  0  0  0  0  0  0  0  0
   -7.1624   -7.3699  -54.4613 C   0  0  1  0  0  0  0  0  0  0  0  0
   -6.7102   -6.6802  -53.1424 C   0  0  0  0  0  0  0  0  0  0  0  0
   -8.4902   -7.9660  -54.3343 C   0  0  0  0  0  0  0  0  0  0  0  0
   -9.1947   -7.6319  -55.6648 C   0  0  0  0  0  0  0  0  0  0  0  0
   -8.1153   -7.0637  -56.4776 N   0  0  1  0  0  0  0  0  0  0  0  0
   -8.5757   -6.2115  -57.4874 C   0  0  0  0  0  0  0  0  0  0  0  0
   -7.9243   -6.5930  -58.8291 C   0  0  0  0  0  0  0  0  0  0  0  0
   -8.7520   -7.5895  -59.4284 O   0  0  0  0  0  0  0  0  0  0  0  0
   -8.6084   -7.8121  -60.8326 C   0  0  0  0  0  0  0  0  0  0  0  0
   -7.2370   -7.7310  -61.4939 C   0  0  0  0  0  0  0  0  0  0  0  0
   -7.0917   -7.9433  -62.8502 C   0  0  0  0  0  0  0  0  0  0  0  0
   -9.7243   -8.0781  -61.5713 C   0  0  0  0  0  0  0  0  0  0  0  0
   -9.5517   -8.3020  -63.0722 C   0  0  0  0  0  0  0  0  0  0  0  0
   -8.3240   -8.2268  -63.6855 C   0  0  0  0  0  0  0  0  0  0  0  0
   -8.2346   -8.4783  -65.1824 C   0  0  2  0  0  0  0  0  0  0  0  0
   -9.2223   -7.6323  -65.7834 C   0  0  0  0  0  0  0  0  0  0  0  0
   -8.9520   -6.1416  -65.6606 C   0  0  0  0  0  0  0  0  0  0  0  0
   -9.8877   -5.2950  -66.2238 C   0  0  0  0  0  0  0  0  0  0  0  0
  -11.1351   -5.8319  -66.9291 C   0  0  0  0  0  0  0  0  0  0  0  0
  -12.0681   -4.9356  -67.4503 O   0  0  0  0  0  0  0  0  0  0  0  0
  -11.3723   -7.1821  -67.0651 C   0  0  0  0  0  0  0  0  0  0  0  0
  -10.3271   -8.0553  -66.4041 C   0  0  0  0  0  0  0  0  0  0  0  0
  -10.8240   -9.5049  -66.6561 C   0  0  0  0  0  0  0  0  0  0  0  0
  -10.0460  -10.2918  -65.5681 C   0  0  0  0  0  0  0  0  0  0  0  0
   -8.5519   -9.8898  -65.5580 C   0  0  2  0  0  0  0  0  0  0  0  0
   -7.7441  -10.8537  -64.6698 C   0  0  0  0  0  0  0  0  0  0  0  0
   -8.2236  -11.2573  -63.4386 C   0  0  0  0  0  0  0  0  0  0  0  0
   -7.4801  -12.1301  -62.6502 C   0  0  0  0  0  0  0  0  0  0  0  0
   -6.2545  -12.5974  -63.1185 C   0  0  0  0  0  0  0  0  0  0  0  0
   -5.7764  -12.2027  -64.3555 C   0  0  0  0  0  0  0  0  0  0  0  0
   -6.5200  -11.3274  -65.1412 C   0  0  0  0  0  0  0  0  0  0  0  0
   -7.7441   -5.4238  -55.1897 H   0  0  0  0  0  0  0  0  0  0  0  0
   -6.3083   -6.0097  -55.9586 H   0  0  0  0  0  0  0  0  0  0  0  0
   -6.4168   -8.1468  -54.6864 H   0  0  0  0  0  0  0  0  0  0  0  0
   -7.0857   -7.2529  -52.2817 H   0  0  0  0  0  0  0  0  0  0  0  0
   -5.6114   -6.6423  -53.1065 H   0  0  0  0  0  0  0  0  0  0  0  0
   -7.1137   -5.6575  -53.1065 H   0  0  0  0  0  0  0  0  0  0  0  0
   -8.4157   -9.0548  -54.1968 H   0  0  0  0  0  0  0  0  0  0  0  0
   -9.0393   -7.5800  -53.4628 H   0  0  0  0  0  0  0  0  0  0  0  0
   -9.6061   -8.5386  -56.1325 H   0  0  0  0  0  0  0  0  0  0  0  0
  -10.0495   -6.9504  -55.5429 H   0  0  0  0  0  0  0  0  0  0  0  0
   -7.6124   -7.8114  -56.9765 H   0  0  0  0  0  0  0  0  0  0  0  0
   -9.6685   -6.3035  -57.5729 H   0  0  0  0  0  0  0  0  0  0  0  0
   -8.3095   -5.1741  -57.2365 H   0  0  0  0  0  0  0  0  0  0  0  0
   -7.8623   -5.7106  -59.4830 H   0  0  0  0  0  0  0  0  0  0  0  0
   -6.9033   -6.9724  -58.6751 H   0  0  0  0  0  0  0  0  0  0  0  0
   -6.3521   -7.5005  -60.8825 H   0  0  0  0  0  0  0  0  0  0  0  0
   -6.0966   -7.9073  -63.3175 H   0  0  0  0  0  0  0  0  0  0  0  0
  -10.7171   -8.1298  -61.1006 H   0  0  0  0  0  0  0  0  0  0  0  0
  -10.4383   -8.5307  -63.6818 H   0  0  0  0  0  0  0  0  0  0  0  0
   -7.2067   -8.2765  -65.5181 H   0  0  0  0  0  0  0  0  0  0  0  0
   -8.0572   -5.7564  -65.1496 H   0  0  0  0  0  0  0  0  0  0  0  0
   -9.7320   -4.2077  -66.1635 H   0  0  0  0  0  0  0  0  0  0  0  0
  -12.8779   -5.2744  -67.9081 H   0  0  0  0  0  0  0  0  0  0  0  0
  -12.2410   -7.5883  -67.6041 H   0  0  0  0  0  0  0  0  0  0  0  0
  -11.9113   -9.5878  -66.5118 H   0  0  0  0  0  0  0  0  0  0  0  0
  -10.6517   -9.8665  -67.6806 H   0  0  0  0  0  0  0  0  0  0  0  0
  -10.4844  -10.0735  -64.5831 H   0  0  0  0  0  0  0  0  0  0  0  0
  -10.1193  -11.3664  -65.7917 H   0  0  0  0  0  0  0  0  0  0  0  0
   -8.2576   -9.9650  -66.6152 H   0  0  0  0  0  0  0  0  0  0  0  0
   -9.1958  -10.8877  -63.0805 H   0  0  0  0  0  0  0  0  0  0  0  0
   -7.8566  -12.4480  -61.6667 H   0  0  0  0  0  0  0  0  0  0  0  0
   -5.6612  -13.2864  -62.4994 H   0  0  0  0  0  0  0  0  0  0  0  0
   -4.8090  -12.5806  -64.7176 H   0  0  0  0  0  0  0  0  0  0  0  0
   -6.1453  -11.0117  -66.1261 H   0  0  0  0  0  0  0  0  0  0  0  0
  1  2  1  0
  1  6  1  0
  2  3  1  0
  2  4  1  0
  4  5  1  0
  5  6  1  0
  6  7  1  0
  7  8  1  0
  8  9  1  0
  9 10  1  0
 10 11  2  0
 10 13  1  0
 11 12  1  0
 12 15  2  0
 13 14  2  0
 14 15  1  0
 16 15  1  0
 16 17  1  0
 16 26  1  0
 17 18  2  0
 17 23  1  0
 18 19  1  0
 19 20  2  0
 20 21  1  0
 20 22  1  0
 22 23  2  0
 23 24  1  0
 24 25  1  0
 25 26  1  0
 26 27  1  0
 27 28  2  0
 27 32  1  0
 28 29  1  0
 29 30  2  0
 30 31  1  0
 31 32  2  0
  1 33  1  0
  1 34  1  0
  2 35  1  6
  3 36  1  0
  3 37  1  0
  3 38  1  0
  4 39  1  0
  4 40  1  0
  5 41  1  0
  5 42  1  0
  6 43  1  6
  7 44  1  0
  7 45  1  0
  8 46  1  0
  8 47  1  0
 11 48  1  0
 12 49  1  0
 13 50  1  0
 14 51  1  0
 16 52  1  6
 18 53  1  0
 19 54  1  0
 21 55  1  0
 22 56  1  0
 24 57  1  0
 24 58  1  0
 25 59  1  0
 25 60  1  0
 26 61  1  6
 28 62  1  0
 29 63  1  0
 30 64  1  0
 31 65  1  0
 32 66  1  0
M  CHG  1   6   1
M  END
>  <filename_input>  (23) 
7UJF_R3V_docked.sdf

>  <pdb_id>  (23) 
7UJF_R3V

>  <pose_rank>  (23) 
22

>  <num_atoms_heavy>  (23) 
32

>  <num_torsions>  (23) 
6

>  <pose>  (23) 
[-8.234640794115359, -8.478273368940657, -65.18241037145383, 0.8400950181167272, 2.405865258312002, -0.07313374575516646, 3.2055332157829186, 2.974412786123965, -0.20446895424155961, 3.203736319210686, 0.6749569354960533, -0.11388437834481278]

>  <energy>  (23) 
-69.17381680920826

>  <inter_energy>  (23) 
-129.3478327513021

>  <intra_energy>  (23) 
51.20917414282603

>  <rmsd>  (23) 
12.7927

>  <sdf_rank>  (23) 
0

$$$$

     RDKit          3D

 66 70  0  0  0  0  0  0  0  0999 V2000
    0.0210  -15.0234  -66.0212 C   0  0  0  0  0  0  0  0  0  0  0  0
   -1.4063  -14.7710  -65.6655 C   0  0  1  0  0  0  0  0  0  0  0  0
   -1.5110  -14.4251  -64.1526 C   0  0  0  0  0  0  0  0  0  0  0  0
   -1.8425  -13.6597  -66.5077 C   0  0  0  0  0  0  0  0  0  0  0  0
   -0.8219  -13.6243  -67.6633 C   0  0  0  0  0  0  0  0  0  0  0  0
   -0.0443  -14.8494  -67.4562 N   0  0  1  0  0  0  0  0  0  0  0  0
    1.2389  -14.7883  -68.0107 C   0  0  0  0  0  0  0  0  0  0  0  0
    1.9956  -16.0971  -67.7202 C   0  0  0  0  0  0  0  0  0  0  0  0
    2.6733  -16.4648  -68.9214 O   0  0  0  0  0  0  0  0  0  0  0  0
    3.1613  -17.8040  -69.0224 C   0  0  0  0  0  0  0  0  0  0  0  0
    3.2988  -18.4783  -70.3829 C   0  0  0  0  0  0  0  0  0  0  0  0
    3.7680  -19.7724  -70.4871 C   0  0  0  0  0  0  0  0  0  0  0  0
    3.4820  -18.4726  -67.8770 C   0  0  0  0  0  0  0  0  0  0  0  0
    3.9912  -19.9068  -68.0048 C   0  0  0  0  0  0  0  0  0  0  0  0
    4.1157  -20.5318  -69.2225 C   0  0  0  0  0  0  0  0  0  0  0  0
    4.6455  -21.9564  -69.2656 C   0  0  2  0  0  0  0  0  0  0  0  0
    4.0295  -22.6389  -68.1669 C   0  0  0  0  0  0  0  0  0  0  0  0
    2.5249  -22.8198  -68.2851 C   0  0  0  0  0  0  0  0  0  0  0  0
    1.8961  -23.4689  -67.2398 C   0  0  0  0  0  0  0  0  0  0  0  0
    2.6748  -23.9737  -66.0230 C   0  0  0  0  0  0  0  0  0  0  0  0
    1.9890  -24.5913  -64.9772 O   0  0  0  0  0  0  0  0  0  0  0  0
    4.0418  -23.8347  -65.9224 C   0  0  0  0  0  0  0  0  0  0  0  0
    4.6671  -23.0922  -67.0840 C   0  0  0  0  0  0  0  0  0  0  0  0
    6.1781  -23.0305  -66.7302 C   0  0  0  0  0  0  0  0  0  0  0  0
    6.6607  -21.8679  -67.6378 C   0  0  0  0  0  0  0  0  0  0  0  0
    6.1265  -22.0351  -69.0803 C   0  0  2  0  0  0  0  0  0  0  0  0
    6.8183  -21.0368  -70.0265 C   0  0  0  0  0  0  0  0  0  0  0  0
    6.9127  -21.2893  -71.3815 C   0  0  0  0  0  0  0  0  0  0  0  0
    7.5404  -20.3746  -72.2215 C   0  0  0  0  0  0  0  0  0  0  0  0
    8.0636  -19.2012  -71.6836 C   0  0  0  0  0  0  0  0  0  0  0  0
    7.9617  -18.9411  -70.3285 C   0  0  0  0  0  0  0  0  0  0  0  0
    7.3362  -19.8584  -69.4895 C   0  0  0  0  0  0  0  0  0  0  0  0
    0.6946  -14.2916  -65.5513 H   0  0  0  0  0  0  0  0  0  0  0  0
    0.4169  -15.9946  -65.6893 H   0  0  0  0  0  0  0  0  0  0  0  0
   -2.0443  -15.6506  -65.8361 H   0  0  0  0  0  0  0  0  0  0  0  0
   -1.2434  -15.3090  -63.5550 H   0  0  0  0  0  0  0  0  0  0  0  0
   -0.8222  -13.6006  -63.9165 H   0  0  0  0  0  0  0  0  0  0  0  0
   -2.5414  -14.1211  -63.9165 H   0  0  0  0  0  0  0  0  0  0  0  0
   -2.8578  -13.8385  -66.8915 H   0  0  0  0  0  0  0  0  0  0  0  0
   -1.8821  -12.7087  -65.9564 H   0  0  0  0  0  0  0  0  0  0  0  0
   -1.3293  -13.6387  -68.6392 H   0  0  0  0  0  0  0  0  0  0  0  0
   -0.2036  -12.7146  -67.6669 H   0  0  0  0  0  0  0  0  0  0  0  0
   -0.4961  -15.6438  -67.9313 H   0  0  0  0  0  0  0  0  0  0  0  0
    1.1602  -14.6458  -69.0986 H   0  0  0  0  0  0  0  0  0  0  0  0
    1.7873  -13.9453  -67.5651 H   0  0  0  0  0  0  0  0  0  0  0  0
    2.7224  -15.9409  -66.9094 H   0  0  0  0  0  0  0  0  0  0  0  0
    1.3010  -16.8893  -67.4039 H   0  0  0  0  0  0  0  0  0  0  0  0
    3.0205  -17.9267  -71.2930 H   0  0  0  0  0  0  0  0  0  0  0  0
    3.8878  -20.2452  -71.4730 H   0  0  0  0  0  0  0  0  0  0  0  0
    3.3771  -17.9936  -66.8923 H   0  0  0  0  0  0  0  0  0  0  0  0
    4.2672  -20.4570  -67.0932 H   0  0  0  0  0  0  0  0  0  0  0  0
    4.4180  -22.3929  -70.2493 H   0  0  0  0  0  0  0  0  0  0  0  0
    1.9653  -22.4527  -69.1581 H   0  0  0  0  0  0  0  0  0  0  0  0
    0.8083  -23.6266  -67.2834 H   0  0  0  0  0  0  0  0  0  0  0  0
    2.4850  -24.9209  -64.1863 H   0  0  0  0  0  0  0  0  0  0  0  0
    4.6249  -24.2270  -65.0761 H   0  0  0  0  0  0  0  0  0  0  0  0
    6.3325  -22.8000  -65.6658 H   0  0  0  0  0  0  0  0  0  0  0  0
    6.7152  -23.9770  -66.8899 H   0  0  0  0  0  0  0  0  0  0  0  0
    6.2960  -20.9150  -67.2269 H   0  0  0  0  0  0  0  0  0  0  0  0
    7.7603  -21.8781  -67.6669 H   0  0  0  0  0  0  0  0  0  0  0  0
    6.3792  -23.0763  -69.3297 H   0  0  0  0  0  0  0  0  0  0  0  0
    6.4905  -22.2159  -71.7975 H   0  0  0  0  0  0  0  0  0  0  0  0
    7.6226  -20.5762  -73.2997 H   0  0  0  0  0  0  0  0  0  0  0  0
    8.5623  -18.4747  -72.3421 H   0  0  0  0  0  0  0  0  0  0  0  0
    8.3749  -18.0095  -69.9144 H   0  0  0  0  0  0  0  0  0  0  0  0
    7.2511  -19.6558  -68.4117 H   0  0  0  0  0  0  0  0  0  0  0  0
  1  2  1  0
  1  6  1  0
  2  3  1  0
  2  4  1  0
  4  5  1  0
  5  6  1  0
  6  7  1  0
  7  8  1  0
  8  9  1  0
  9 10  1  0
 10 11  2  0
 10 13  1  0
 11 12  1  0
 12 15  2  0
 13 14  2  0
 14 15  1  0
 16 15  1  0
 16 17  1  0
 16 26  1  0
 17 18  2  0
 17 23  1  0
 18 19  1  0
 19 20  2  0
 20 21  1  0
 20 22  1  0
 22 23  2  0
 23 24  1  0
 24 25  1  0
 25 26  1  0
 26 27  1  0
 27 28  2  0
 27 32  1  0
 28 29  1  0
 29 30  2  0
 30 31  1  0
 31 32  2  0
  1 33  1  0
  1 34  1  0
  2 35  1  1
  3 36  1  0
  3 37  1  0
  3 38  1  0
  4 39  1  0
  4 40  1  0
  5 41  1  0
  5 42  1  0
  6 43  1  6
  7 44  1  0
  7 45  1  0
  8 46  1  0
  8 47  1  0
 11 48  1  0
 12 49  1  0
 13 50  1  0
 14 51  1  0
 16 52  1  6
 18 53  1  0
 19 54  1  0
 21 55  1  0
 22 56  1  0
 24 57  1  0
 24 58  1  0
 25 59  1  0
 25 60  1  0
 26 61  1  6
 28 62  1  0
 29 63  1  0
 30 64  1  0
 31 65  1  0
 32 66  1  0
M  CHG  1   6   1
M  END
>  <filename_input>  (24) 
7UJF_R3V_docked.sdf

>  <pdb_id>  (24) 
7UJF_R3V

>  <pose_rank>  (24) 
23

>  <num_atoms_heavy>  (24) 
32

>  <num_torsions>  (24) 
6

>  <pose>  (24) 
[4.645477115122588, -21.956438214776817, -69.26557269255801, -1.870238605811743, 2.317573694874639, -1.675143885481518, 3.0316120662262716, -1.3008607764429039, 0.40056247916626614, 4.05904927713881, -0.20637567030881826, -2.925884015529659]

>  <energy>  (24) 
22.333883606607852

>  <inter_energy>  (24) 
-17.709360441939857

>  <intra_energy>  (24) 
37.728656601213224

>  <rmsd>  (24) 
11.3113

>  <sdf_rank>  (24) 
0

$$$$

     RDKit          3D

 66 70  0  0  0  0  0  0  0  0999 V2000
    4.0456  -23.8465  -70.2768 C   0  0  0  0  0  0  0  0  0  0  0  0
    2.5830  -24.0343  -70.0468 C   0  0  1  0  0  0  0  0  0  0  0  0
    2.0572  -25.1807  -70.9572 C   0  0  0  0  0  0  0  0  0  0  0  0
    2.4345  -24.3556  -68.6293 C   0  0  0  0  0  0  0  0  0  0  0  0
    3.7443  -23.8641  -67.9804 C   0  0  0  0  0  0  0  0  0  0  0  0
    4.3991  -23.1327  -69.0688 N   0  0  1  0  0  0  0  0  0  0  0  0
    5.7887  -23.0551  -68.9232 C   0  0  0  0  0  0  0  0  0  0  0  0
    6.1375  -22.5303  -67.5186 C   0  0  0  0  0  0  0  0  0  0  0  0
    7.1698  -21.5577  -67.6791 O   0  0  0  0  0  0  0  0  0  0  0  0
    6.8094  -20.1817  -67.5423 C   0  0  0  0  0  0  0  0  0  0  0  0
    5.4343  -19.7895  -67.0135 C   0  0  0  0  0  0  0  0  0  0  0  0
    5.0794  -18.4621  -66.8806 C   0  0  0  0  0  0  0  0  0  0  0  0
    7.7122  -19.2280  -67.9129 C   0  0  0  0  0  0  0  0  0  0  0  0
    7.3043  -17.7632  -67.7698 C   0  0  0  0  0  0  0  0  0  0  0  0
    6.0670  -17.3920  -67.3006 C   0  0  0  0  0  0  0  0  0  0  0  0
    5.7441  -15.9117  -67.1730 C   0  0  2  0  0  0  0  0  0  0  0  0
    5.9969  -15.3410  -68.4625 C   0  0  0  0  0  0  0  0  0  0  0  0
    5.0638  -15.8104  -69.5669 C   0  0  0  0  0  0  0  0  0  0  0  0
    5.2824  -15.2850  -70.8261 C   0  0  0  0  0  0  0  0  0  0  0  0
    6.4106  -14.2866  -71.0950 C   0  0  0  0  0  0  0  0  0  0  0  0
    6.6128  -13.8124  -72.3911 O   0  0  0  0  0  0  0  0  0  0  0  0
    7.2432  -13.8389  -70.0929 C   0  0  0  0  0  0  0  0  0  0  0  0
    6.9709  -14.4714  -68.7448 C   0  0  0  0  0  0  0  0  0  0  0  0
    8.0399  -13.8481  -67.8064 C   0  0  0  0  0  0  0  0  0  0  0  0
    8.0538  -14.8656  -66.6348 C   0  0  0  0  0  0  0  0  0  0  0  0
    6.6139  -15.2069  -66.1827 C   0  0  2  0  0  0  0  0  0  0  0  0
    6.6409  -16.0004  -64.8635 C   0  0  0  0  0  0  0  0  0  0  0  0
    7.8045  -16.5947  -64.4145 C   0  0  0  0  0  0  0  0  0  0  0  0
    7.8100  -17.3068  -63.2190 C   0  0  0  0  0  0  0  0  0  0  0  0
    6.6348  -17.4064  -62.4783 C   0  0  0  0  0  0  0  0  0  0  0  0
    5.4704  -16.8037  -62.9206 C   0  0  0  0  0  0  0  0  0  0  0  0
    5.4660  -16.0945  -64.1179 C   0  0  0  0  0  0  0  0  0  0  0  0
    4.5740  -24.8084  -70.3523 H   0  0  0  0  0  0  0  0  0  0  0  0
    4.3054  -23.3309  -71.2131 H   0  0  0  0  0  0  0  0  0  0  0  0
    1.9991  -23.1360  -70.2962 H   0  0  0  0  0  0  0  0  0  0  0  0
    1.6802  -26.0026  -70.3309 H   0  0  0  0  0  0  0  0  0  0  0  0
    1.2434  -24.8006  -71.5922 H   0  0  0  0  0  0  0  0  0  0  0  0
    2.8761  -25.5495  -71.5922 H   0  0  0  0  0  0  0  0  0  0  0  0
    1.5679  -23.8308  -68.2008 H   0  0  0  0  0  0  0  0  0  0  0  0
    2.2620  -25.4288  -68.4604 H   0  0  0  0  0  0  0  0  0  0  0  0
    3.5381  -23.2013  -67.1271 H   0  0  0  0  0  0  0  0  0  0  0  0
    4.3601  -24.6810  -67.5759 H   0  0  0  0  0  0  0  0  0  0  0  0
    4.0831  -22.1525  -69.0812 H   0  0  0  0  0  0  0  0  0  0  0  0
    6.2264  -24.0551  -69.0585 H   0  0  0  0  0  0  0  0  0  0  0  0
    6.1951  -22.3671  -69.6792 H   0  0  0  0  0  0  0  0  0  0  0  0
    5.2520  -22.0684  -67.0576 H   0  0  0  0  0  0  0  0  0  0  0  0
    6.4700  -23.3505  -66.8654 H   0  0  0  0  0  0  0  0  0  0  0  0
    4.7157  -20.5743  -66.7344 H   0  0  0  0  0  0  0  0  0  0  0  0
    4.0948  -18.1852  -66.4759 H   0  0  0  0  0  0  0  0  0  0  0  0
    8.7027  -19.5056  -68.3026 H   0  0  0  0  0  0  0  0  0  0  0  0
    8.0239  -16.9803  -68.0512 H   0  0  0  0  0  0  0  0  0  0  0  0
    4.7052  -15.8007  -66.8290 H   0  0  0  0  0  0  0  0  0  0  0  0
    4.2558  -16.5314  -69.3735 H   0  0  0  0  0  0  0  0  0  0  0  0
    4.6291  -15.5922  -71.6560 H   0  0  0  0  0  0  0  0  0  0  0  0
    7.3403  -13.1663  -72.5739 H   0  0  0  0  0  0  0  0  0  0  0  0
    8.0329  -13.0909  -70.2572 H   0  0  0  0  0  0  0  0  0  0  0  0
    9.0217  -13.7890  -68.2990 H   0  0  0  0  0  0  0  0  0  0  0  0
    7.8204  -12.8145  -67.5004 H   0  0  0  0  0  0  0  0  0  0  0  0
    8.5558  -15.7872  -66.9642 H   0  0  0  0  0  0  0  0  0  0  0  0
    8.5915  -14.4172  -65.7863 H   0  0  0  0  0  0  0  0  0  0  0  0
    6.1428  -14.2209  -66.0567 H   0  0  0  0  0  0  0  0  0  0  0  0
    8.7290  -16.5048  -65.0037 H   0  0  0  0  0  0  0  0  0  0  0  0
    8.7335  -17.7864  -62.8626 H   0  0  0  0  0  0  0  0  0  0  0  0
    6.6322  -17.9691  -61.5331 H   0  0  0  0  0  0  0  0  0  0  0  0
    4.5486  -16.8852  -62.3260 H   0  0  0  0  0  0  0  0  0  0  0  0
    4.5435  -15.6121  -64.4732 H   0  0  0  0  0  0  0  0  0  0  0  0
  1  2  1  0
  1  6  1  0
  2  3  1  0
  2  4  1  0
  4  5  1  0
  5  6  1  0
  6  7  1  0
  7  8  1  0
  8  9  1  0
  9 10  1  0
 10 11  2  0
 10 13  1  0
 11 12  1  0
 12 15  2  0
 13 14  2  0
 14 15  1  0
 16 15  1  0
 16 17  1  0
 16 26  1  0
 17 18  2  0
 17 23  1  0
 18 19  1  0
 19 20  2  0
 20 21  1  0
 20 22  1  0
 22 23  2  0
 23 24  1  0
 24 25  1  0
 25 26  1  0
 26 27  1  0
 27 28  2  0
 27 32  1  0
 28 29  1  0
 29 30  2  0
 30 31  1  0
 31 32  2  0
  1 33  1  0
  1 34  1  0
  2 35  1  6
  3 36  1  0
  3 37  1  0
  3 38  1  0
  4 39  1  0
  4 40  1  0
  5 41  1  0
  5 42  1  0
  6 43  1  6
  7 44  1  0
  7 45  1  0
  8 46  1  0
  8 47  1  0
 11 48  1  0
 12 49  1  0
 13 50  1  0
 14 51  1  0
 16 52  1  1
 18 53  1  0
 19 54  1  0
 21 55  1  0
 22 56  1  0
 24 57  1  0
 24 58  1  0
 25 59  1  0
 25 60  1  0
 26 61  1  1
 28 62  1  0
 29 63  1  0
 30 64  1  0
 31 65  1  0
 32 66  1  0
M  CHG  1   6   1
M  END
>  <filename_input>  (25) 
7UJF_R3V_docked.sdf

>  <pdb_id>  (25) 
7UJF_R3V

>  <pose_rank>  (25) 
24

>  <num_atoms_heavy>  (25) 
32

>  <num_torsions>  (25) 
6

>  <pose>  (25) 
[5.744097672063278, -15.911669572789298, -67.17304005922314, -1.2600320465757286, 0.3771678846890127, 1.5432063907315705, -3.0212107306053477, 2.510529213622693, -1.179674704450269, -0.7029017044711869, 2.0614776611963626, 0.3652046116429474]

>  <energy>  (25) 
24.257065312709457

>  <inter_energy>  (25) 
4.270150878443662

>  <intra_energy>  (25) 
31.305153879359224

>  <rmsd>  (25) 
12.1325

>  <sdf_rank>  (25) 
0

$$$$

     RDKit          3D

 66 70  0  0  0  0  0  0  0  0999 V2000
   -2.8480  -13.4890  -67.6150 C   0  0  0  0  0  0  0  0  0  0  0  0
   -1.9830  -13.0600  -68.7530 C   0  0  1  0  0  0  0  0  0  0  0  0
   -1.3630  -14.3130  -69.4350 C   0  0  0  0  0  0  0  0  0  0  0  0
   -2.8520  -12.3200  -69.6650 C   0  0  0  0  0  0  0  0  0  0  0  0
   -4.0670  -11.9190  -68.8040 C   0  0  0  0  0  0  0  0  0  0  0  0
   -3.6530  -12.2980  -67.4500 N   0  0  1  0  0  0  0  0  0  0  0  0
   -4.7310  -12.5390  -66.5910 C   0  0  0  0  0  0  0  0  0  0  0  0
   -4.2250  -12.6700  -65.1430 C   0  0  0  0  0  0  0  0  0  0  0  0
   -4.0520  -14.0630  -64.8840 O   0  0  0  0  0  0  0  0  0  0  0  0
   -3.4370  -14.4350  -63.6490 C   0  0  0  0  0  0  0  0  0  0  0  0
   -2.3310  -15.4840  -63.6190 C   0  0  0  0  0  0  0  0  0  0  0  0
   -1.7340  -15.8490  -62.4290 C   0  0  0  0  0  0  0  0  0  0  0  0
   -3.8730  -13.8480  -62.4970 C   0  0  0  0  0  0  0  0  0  0  0  0
   -3.2110  -14.2670  -61.1860 C   0  0  0  0  0  0  0  0  0  0  0  0
   -2.2170  -15.2150  -61.1400 C   0  0  0  0  0  0  0  0  0  0  0  0
   -1.5980  -15.5650  -59.7960 C   0  0  2  0  0  0  0  0  0  0  0  0
   -0.1800  -15.5470  -59.9990 C   0  0  0  0  0  0  0  0  0  0  0  0
    0.4070  -14.1800  -60.3110 C   0  0  0  0  0  0  0  0  0  0  0  0
    1.7720  -14.1260  -60.5190 C   0  0  0  0  0  0  0  0  0  0  0  0
    2.6460  -15.3800  -60.4450 C   0  0  0  0  0  0  0  0  0  0  0  0
    4.0140  -15.2790  -60.6980 O   0  0  0  0  0  0  0  0  0  0  0  0
    2.1230  -16.6170  -60.1380 C   0  0  0  0  0  0  0  0  0  0  0  0
    0.6210  -16.6150  -59.9490 C   0  0  0  0  0  0  0  0  0  0  0  0
    0.2700  -18.0990  -59.6550 C   0  0  0  0  0  0  0  0  0  0  0  0
   -1.2480  -18.1270  -59.9760 C   0  0  0  0  0  0  0  0  0  0  0  0
   -1.9740  -16.9300  -59.3170 C   0  0  2  0  0  0  0  0  0  0  0  0
   -3.5000  -17.1090  -59.4160 C   0  0  0  0  0  0  0  0  0  0  0  0
   -4.0790  -17.6720  -60.5370 C   0  0  0  0  0  0  0  0  0  0  0  0
   -5.4600  -17.8270  -60.6080 C   0  0  0  0  0  0  0  0  0  0  0  0
   -6.2490  -17.4170  -59.5360 C   0  0  0  0  0  0  0  0  0  0  0  0
   -5.6710  -16.8620  -58.4080 C   0  0  0  0  0  0  0  0  0  0  0  0
   -4.2900  -16.7050  -58.3400 C   0  0  0  0  0  0  0  0  0  0  0  0
   -3.4617  -14.3639  -67.8756 H   0  0  0  0  0  0  0  0  0  0  0  0
   -2.3041  -13.8096  -66.7142 H   0  0  0  0  0  0  0  0  0  0  0  0
   -1.1446  -12.4261  -68.4286 H   0  0  0  0  0  0  0  0  0  0  0  0
   -1.0152  -15.0159  -68.6637 H   0  0  0  0  0  0  0  0  0  0  0  0
   -2.1227  -14.8029  -70.0618 H   0  0  0  0  0  0  0  0  0  0  0  0
   -0.5127  -14.0063  -70.0618 H   0  0  0  0  0  0  0  0  0  0  0  0
   -2.3387  -11.4274  -70.0521 H   0  0  0  0  0  0  0  0  0  0  0  0
   -3.1411  -12.9169  -70.5426 H   0  0  0  0  0  0  0  0  0  0  0  0
   -4.2588  -10.8379  -68.8704 H   0  0  0  0  0  0  0  0  0  0  0  0
   -5.0019  -12.4034  -69.1223 H   0  0  0  0  0  0  0  0  0  0  0  0
   -3.1335  -11.5271  -67.0064 H   0  0  0  0  0  0  0  0  0  0  0  0
   -5.4428  -11.7028  -66.6548 H   0  0  0  0  0  0  0  0  0  0  0  0
   -5.2296  -13.4737  -66.8874 H   0  0  0  0  0  0  0  0  0  0  0  0
   -3.2662  -12.1430  -65.0291 H   0  0  0  0  0  0  0  0  0  0  0  0
   -4.9412  -12.2260  -64.4360 H   0  0  0  0  0  0  0  0  0  0  0  0
   -2.0046  -15.9560  -64.5575 H   0  0  0  0  0  0  0  0  0  0  0  0
   -0.9200  -16.5888  -62.4166 H   0  0  0  0  0  0  0  0  0  0  0  0
   -4.6762  -13.0965  -62.5120 H   0  0  0  0  0  0  0  0  0  0  0  0
   -3.5403  -13.7949  -60.2486 H   0  0  0  0  0  0  0  0  0  0  0  0
   -1.9524  -14.8474  -59.0414 H   0  0  0  0  0  0  0  0  0  0  0  0
   -0.2226  -13.2798  -60.3683 H   0  0  0  0  0  0  0  0  0  0  0  0
    2.2422  -13.1572  -60.7434 H   0  0  0  0  0  0  0  0  0  0  0  0
    4.5867  -16.0852  -60.6523 H   0  0  0  0  0  0  0  0  0  0  0  0
    2.7398  -17.5224  -60.0393 H   0  0  0  0  0  0  0  0  0  0  0  0
    0.8318  -18.7820  -60.3092 H   0  0  0  0  0  0  0  0  0  0  0  0
    0.5188  -18.4251  -58.6343 H   0  0  0  0  0  0  0  0  0  0  0  0
   -1.3866  -18.0764  -61.0661 H   0  0  0  0  0  0  0  0  0  0  0  0
   -1.6743  -19.0593  -59.5773 H   0  0  0  0  0  0  0  0  0  0  0  0
   -1.6261  -16.9601  -58.2739 H   0  0  0  0  0  0  0  0  0  0  0  0
   -3.4466  -17.9986  -61.3757 H   0  0  0  0  0  0  0  0  0  0  0  0
   -5.9240  -18.2690  -61.5020 H   0  0  0  0  0  0  0  0  0  0  0  0
   -7.3414  -17.5355  -59.5865 H   0  0  0  0  0  0  0  0  0  0  0  0
   -6.3029  -16.5450  -57.5653 H   0  0  0  0  0  0  0  0  0  0  0  0
   -3.8252  -16.2659  -57.4449 H   0  0  0  0  0  0  0  0  0  0  0  0
  1  2  1  0
  1  6  1  0
  2  3  1  0
  2  4  1  0
  4  5  1  0
  5  6  1  0
  6  7  1  0
  7  8  1  0
  8  9  1  0
  9 10  1  0
 10 11  2  0
 10 13  1  0
 11 12  1  0
 12 15  2  0
 13 14  2  0
 14 15  1  0
 16 15  1  0
 16 17  1  0
 16 26  1  0
 17 18  2  0
 17 23  1  0
 18 19  1  0
 19 20  2  0
 20 21  1  0
 20 22  1  0
 22 23  2  0
 23 24  1  0
 24 25  1  0
 25 26  1  0
 26 27  1  0
 27 28  2  0
 27 32  1  0
 28 29  1  0
 29 30  2  0
 30 31  1  0
 31 32  2  0
  1 33  1  0
  1 34  1  0
  2 35  1  1
  3 36  1  0
  3 37  1  0
  3 38  1  0
  4 39  1  0
  4 40  1  0
  5 41  1  0
  5 42  1  0
  6 43  1  1
  7 44  1  0
  7 45  1  0
  8 46  1  0
  8 47  1  0
 11 48  1  0
 12 49  1  0
 13 50  1  0
 14 51  1  0
 16 52  1  1
 18 53  1  0
 19 54  1  0
 21 55  1  0
 22 56  1  0
 24 57  1  0
 24 58  1  0
 25 59  1  0
 25 60  1  0
 26 61  1  1
 28 62  1  0
 29 63  1  0
 30 64  1  0
 31 65  1  0
 32 66  1  0
M  CHG  1   6   1
M  END
>  <filename_input>  (26) 
7UJF_R3V_docked.sdf

>  <pdb_id>  (26) 
7UJF_R3V

>  <pose_rank>  (26) 
25

>  <num_atoms_heavy>  (26) 
32

>  <num_torsions>  (26) 
6

>  <pose>  (26) 
[-1.598, -15.565, -59.796, 1e-06, 1e-06, 1e-06, 0.0, 0.0, 0.0, 0.0, 0.0, 0.0]

>  <energy>  (26) 
-2230.766919220235

>  <inter_energy>  (26) 
-2300.689689898001

>  <intra_energy>  (26) 
44.175902570845395

>  <rmsd>  (26) 
0.0

>  <sdf_rank>  (26) 
0

$$$$
