
     RDKit          3D

 56 59  0  0  0  0  0  0  0  0999 V2000
   71.8297   14.8249   67.6544 N   0  0  0  0  0  0  0  0  0  0  0  0
   72.6460   13.1966   65.7900 C   0  0  1  0  0  0  0  0  0  0  0  0
   71.5506   12.9086   64.9158 O   0  0  0  0  0  0  0  0  0  0  0  0
   77.2001   12.5867   68.9889 P   0  0  1  0  0  0  0  0  0  0  0  0
   72.1780   13.4705   67.1985 C   0  0  1  0  0  0  0  0  0  0  0  0
   72.2876   18.9861   69.7020 N   0  0  0  0  0  0  0  0  0  0  0  0
   72.5779   22.1117   71.5834 O   0  0  0  0  0  0  0  0  0  0  0  0
   72.5311   15.9673   67.5524 C   0  0  0  0  0  0  0  0  0  0  0  0
   69.7819   14.1075   68.7804 N   0  0  0  0  0  0  0  0  0  0  0  0
   69.9204   22.5162   71.7189 O   0  0  0  0  0  0  0  0  0  0  0  0
   71.8678   16.9874   68.2328 C   0  0  0  0  0  0  0  0  0  0  0  0
   67.8000   13.6232   69.8881 N   0  0  0  0  0  0  0  0  0  0  0  0
   69.1424   18.1425   69.4572 O   0  0  0  0  0  0  0  0  0  0  0  0
   72.3215   18.4278   68.3370 C   0  0  0  0  0  0  0  0  0  0  0  0
   68.6115   15.8258   69.9339 N   0  0  0  0  0  0  0  0  0  0  0  0
   73.3634   13.1990   68.0103 O   0  0  0  0  0  0  0  0  0  0  0  0
   72.3366   20.4706   69.8298 C   0  0  2  0  0  0  0  0  0  0  0  0
   76.2394   13.5643   68.1472 O   0  0  0  0  0  0  0  0  0  0  0  0
   71.8117   20.9736   71.1814 C   0  0  2  0  0  0  0  0  0  0  0  0
   78.4081   13.3144   69.5178 O   0  0  0  0  0  0  0  0  0  0  0  0
   70.3463   21.3762   70.9619 C   0  0  2  0  0  0  0  0  0  0  0  0
   70.3239   21.6436   69.4782 C   0  0  0  0  0  0  0  0  0  0  0  0
   76.4308   11.9814   70.1438 O   0  0  0  0  0  0  0  0  0  0  0  0
   71.3945   21.1474   68.8710 C   0  0  0  0  0  0  0  0  0  0  0  0
   72.8051   10.8072   66.3667 O   0  0  0  0  0  0  0  0  0  0  0  0
   70.6635   16.3213   68.7667 C   0  0  0  0  0  0  0  0  0  0  0  0
   70.7433   14.9889   68.4061 C   0  0  0  0  0  0  0  0  0  0  0  0
   68.7482   14.5273   69.5461 C   0  0  0  0  0  0  0  0  0  0  0  0
   69.6427   16.8357   69.6873 C   0  0  0  0  0  0  0  0  0  0  0  0
   74.3100   12.3942   67.2986 C   0  0  2  0  0  0  0  0  0  0  0  0
   75.5900   13.1575   66.9528 C   0  0  0  0  0  0  0  0  0  0  0  0
   73.5569   11.9981   66.0507 C   0  0  2  0  0  0  0  0  0  0  0  0
   77.6379   11.5327   68.0044 O   0  0  0  0  0  0  0  0  0  0  0  0
   73.1445   14.0327   65.2776 H   0  0  0  0  0  0  0  0  0  0  0  0
   70.7464   12.6971   65.4531 H   0  0  0  0  0  0  0  0  0  0  0  0
   71.2477   12.8879   67.2702 H   0  0  0  0  0  0  0  0  0  0  0  0
   71.4160   18.6650   70.1470 H   0  0  0  0  0  0  0  0  0  0  0  0
   73.1534   18.6514   70.1484 H   0  0  0  0  0  0  0  0  0  0  0  0
   72.6082   22.1566   72.5719 H   0  0  0  0  0  0  0  0  0  0  0  0
   73.4836   16.0800   67.0139 H   0  0  0  0  0  0  0  0  0  0  0  0
   69.9949   22.3168   72.6858 H   0  0  0  0  0  0  0  0  0  0  0  0
   67.0003   13.9108   70.4701 H   0  0  0  0  0  0  0  0  0  0  0  0
   67.8784   12.6479   69.5664 H   0  0  0  0  0  0  0  0  0  0  0  0
   71.6669   19.0405   67.6996 H   0  0  0  0  0  0  0  0  0  0  0  0
   73.3744   18.4463   68.0192 H   0  0  0  0  0  0  0  0  0  0  0  0
   67.7486   16.1086   70.4199 H   0  0  0  0  0  0  0  0  0  0  0  0
   73.3988   20.7022   69.6622 H   0  0  0  0  0  0  0  0  0  0  0  0
   71.8921   20.2041   71.9634 H   0  0  0  0  0  0  0  0  0  0  0  0
   69.6450   20.6006   71.3034 H   0  0  0  0  0  0  0  0  0  0  0  0
   69.5175   22.1847   68.9615 H   0  0  0  0  0  0  0  0  0  0  0  0
   71.5733   21.2225   67.7882 H   0  0  0  0  0  0  0  0  0  0  0  0
   72.7423   10.7078   67.3497 H   0  0  0  0  0  0  0  0  0  0  0  0
   74.6567   11.5369   67.8944 H   0  0  0  0  0  0  0  0  0  0  0  0
   75.3367   14.0445   66.3536 H   0  0  0  0  0  0  0  0  0  0  0  0
   76.2611   12.5032   66.3770 H   0  0  0  0  0  0  0  0  0  0  0  0
   74.1789   11.7751   65.1713 H   0  0  0  0  0  0  0  0  0  0  0  0
  5  1  1  0
  1  8  1  0
  1 27  1  0
  2  3  1  0
  2  5  1  0
  2 32  1  0
  4 18  1  0
  4 20  1  1
  4 23  2  0
  4 33  1  0
  5 16  1  0
  6 14  1  0
 17  6  1  0
 19  7  1  0
  8 11  2  0
  9 27  1  0
  9 28  2  0
 21 10  1  0
 11 14  1  0
 11 26  1  0
 12 28  1  0
 13 29  2  0
 15 28  1  0
 15 29  1  0
 16 30  1  0
 17 19  1  0
 17 24  1  0
 18 31  1  0
 19 21  1  0
 21 22  1  0
 22 24  2  0
 32 25  1  0
 26 27  2  0
 26 29  1  0
 30 31  1  0
 30 32  1  0
  2 34  1  6
  3 35  1  0
  5 36  1  1
  6 37  1  0
  6 38  1  0
  7 39  1  0
  8 40  1  0
 10 41  1  0
 12 42  1  0
 12 43  1  0
 14 44  1  0
 14 45  1  0
 15 46  1  0
 17 47  1  6
 19 48  1  1
 21 49  1  6
 22 50  1  0
 24 51  1  0
 25 52  1  0
 30 53  1  1
 31 54  1  0
 31 55  1  0
 32 56  1  6
M  CHG  3   6   1  20  -1  33  -1
M  END
>  <filename_input>  (1) 
7ULC_56B_docked.sdf

>  <pdb_id>  (1) 
7ULC_56B

>  <pose_rank>  (1) 
0

>  <num_atoms_heavy>  (1) 
33

>  <num_torsions>  (1) 
7

>  <pose>  (1) 
[71.8296656013874, 14.824868443778637, 67.65442597424244, 0.31144444921835573, 5.561609067003086, -2.4931167828681713, -0.429655850663195, -12.543804660258106, -1.5438590823184075, 3.661543047842961, 1.4400509719800265, 0.6406164618408787, -2.094957224960911]

>  <energy>  (1) 
-1119.6321448313377

>  <inter_energy>  (1) 
-1109.0414282941213

>  <intra_energy>  (1) 
4.4612563152879074

>  <rmsd>  (1) 
0.893621

>  <sdf_rank>  (1) 
0

$$$$

     RDKit          3D

 56 59  0  0  0  0  0  0  0  0999 V2000
   71.3444   16.8473   68.0737 N   0  0  0  0  0  0  0  0  0  0  0  0
   70.4425   18.5618   69.8175 C   0  0  1  0  0  0  0  0  0  0  0  0
   69.1473   18.1389   70.2542 O   0  0  0  0  0  0  0  0  0  0  0  0
   72.7386   22.0094   71.6462 P   0  0  1  0  0  0  0  0  0  0  0  0
   70.7169   18.1382   68.3951 C   0  0  1  0  0  0  0  0  0  0  0  0
   74.4012   13.4316   67.3495 N   0  0  0  0  0  0  0  0  0  0  0  0
   77.6391   11.7743   66.9457 O   0  0  0  0  0  0  0  0  0  0  0  0
   72.4929   16.5943   67.4221 C   0  0  0  0  0  0  0  0  0  0  0  0
   69.4646   15.5278   68.9111 N   0  0  0  0  0  0  0  0  0  0  0  0
   77.8388   11.0814   69.5388 O   0  0  0  0  0  0  0  0  0  0  0  0
   72.6351   15.2198   67.2383 C   0  0  0  0  0  0  0  0  0  0  0  0
   67.7914   14.1080   69.6688 N   0  0  0  0  0  0  0  0  0  0  0  0
   71.8610   12.2421   68.1299 O   0  0  0  0  0  0  0  0  0  0  0  0
   73.8024   14.5288   66.5664 C   0  0  0  0  0  0  0  0  0  0  0  0
   69.6818   13.1763   68.6341 N   0  0  0  0  0  0  0  0  0  0  0  0
   71.7548   19.0699   67.9563 O   0  0  0  0  0  0  0  0  0  0  0  0
   75.8897   13.3723   67.4070 C   0  0  2  0  0  0  0  0  0  0  0  0
   73.2147   21.6204   70.1599 O   0  0  0  0  0  0  0  0  0  0  0  0
   76.4234   11.9585   67.6753 C   0  0  2  0  0  0  0  0  0  0  0  0
   72.7326   20.8116   72.5595 O   0  0  0  0  0  0  0  0  0  0  0  0
   76.6961   11.8701   69.1838 C   0  0  2  0  0  0  0  0  0  0  0  0
   76.8785   13.3225   69.5449 C   0  0  0  0  0  0  0  0  0  0  0  0
   73.6534   23.0726   72.2159 O   0  0  0  0  0  0  0  0  0  0  0  0
   76.4359   14.1285   68.5881 C   0  0  0  0  0  0  0  0  0  0  0  0
   69.4611   20.6471   68.9485 O   0  0  0  0  0  0  0  0  0  0  0  0
   71.4214   14.6594   67.8644 C   0  0  0  0  0  0  0  0  0  0  0  0
   70.6640   15.7274   68.3085 C   0  0  0  0  0  0  0  0  0  0  0  0
   68.9845   14.2702   69.0495 C   0  0  0  0  0  0  0  0  0  0  0  0
   70.9272   13.2774   67.8709 C   0  0  0  0  0  0  0  0  0  0  0  0
   71.7967   20.2341   68.7889 C   0  0  2  0  0  0  0  0  0  0  0  0
   73.0733   20.3122   69.6285 C   0  0  0  0  0  0  0  0  0  0  0  0
   70.5764   20.0760   69.6647 C   0  0  2  0  0  0  0  0  0  0  0  0
   71.3314   22.5231   71.4797 O   0  0  0  0  0  0  0  0  0  0  0  0
   71.1034   18.1305   70.5838 H   0  0  0  0  0  0  0  0  0  0  0  0
   69.1194   18.1298   71.2438 H   0  0  0  0  0  0  0  0  0  0  0  0
   69.7123   18.0959   67.9490 H   0  0  0  0  0  0  0  0  0  0  0  0
   74.0565   13.5163   68.3164 H   0  0  0  0  0  0  0  0  0  0  0  0
   74.1189   12.5701   66.8605 H   0  0  0  0  0  0  0  0  0  0  0  0
   78.3906   11.6604   67.5800 H   0  0  0  0  0  0  0  0  0  0  0  0
   73.2112   17.3563   67.0853 H   0  0  0  0  0  0  0  0  0  0  0  0
   77.9116   11.0312   70.5249 H   0  0  0  0  0  0  0  0  0  0  0  0
   67.3982   13.1637   69.7901 H   0  0  0  0  0  0  0  0  0  0  0  0
   67.2768   14.9288   70.0186 H   0  0  0  0  0  0  0  0  0  0  0  0
   74.5828   15.2804   66.3767 H   0  0  0  0  0  0  0  0  0  0  0  0
   73.4072   14.0745   65.6458 H   0  0  0  0  0  0  0  0  0  0  0  0
   69.3185   12.2409   68.8662 H   0  0  0  0  0  0  0  0  0  0  0  0
   76.1951   13.7744   66.4298 H   0  0  0  0  0  0  0  0  0  0  0  0
   75.7071   11.1847   67.3621 H   0  0  0  0  0  0  0  0  0  0  0  0
   75.8874   11.3564   69.7243 H   0  0  0  0  0  0  0  0  0  0  0  0
   77.3247   13.6719   70.4877 H   0  0  0  0  0  0  0  0  0  0  0  0
   76.4649   15.2263   68.6511 H   0  0  0  0  0  0  0  0  0  0  0  0
   68.7938   20.9888   69.5951 H   0  0  0  0  0  0  0  0  0  0  0  0
   71.7997   21.1643   68.2017 H   0  0  0  0  0  0  0  0  0  0  0  0
   73.9423   20.0783   68.9959 H   0  0  0  0  0  0  0  0  0  0  0  0
   73.0125   19.5874   70.4537 H   0  0  0  0  0  0  0  0  0  0  0  0
   70.6292   20.5696   70.6464 H   0  0  0  0  0  0  0  0  0  0  0  0
  5  1  1  0
  1  8  1  0
  1 27  1  0
  2  3  1  0
  2  5  1  0
  2 32  1  0
  4 18  1  0
  4 20  1  1
  4 23  2  0
  4 33  1  0
  5 16  1  0
  6 14  1  0
 17  6  1  0
 19  7  1  0
  8 11  2  0
  9 27  1  0
  9 28  2  0
 21 10  1  0
 11 14  1  0
 11 26  1  0
 12 28  1  0
 13 29  2  0
 15 28  1  0
 15 29  1  0
 16 30  1  0
 17 19  1  0
 17 24  1  0
 18 31  1  0
 19 21  1  0
 21 22  1  0
 22 24  2  0
 32 25  1  0
 26 27  2  0
 26 29  1  0
 30 31  1  0
 30 32  1  0
  2 34  1  1
  3 35  1  0
  5 36  1  6
  6 37  1  0
  6 38  1  0
  7 39  1  0
  8 40  1  0
 10 41  1  0
 12 42  1  0
 12 43  1  0
 14 44  1  0
 14 45  1  0
 15 46  1  0
 17 47  1  6
 19 48  1  6
 21 49  1  1
 22 50  1  0
 24 51  1  0
 25 52  1  0
 30 53  1  6
 31 54  1  0
 31 55  1  0
 32 56  1  1
M  CHG  3   6   1  20  -1  33  -1
M  END
>  <filename_input>  (2) 
7ULC_56B_docked.sdf

>  <pdb_id>  (2) 
7ULC_56B

>  <pose_rank>  (2) 
1

>  <num_atoms_heavy>  (2) 
33

>  <num_torsions>  (2) 
7

>  <pose>  (2) 
[71.34436421397267, 16.847267674463335, 68.07370135044752, 2.300382237968326, 1.10030101895257, -1.317828565176096, 4.642335912756675, 1.82311809796837, -1.298299904363552, 1.6602503900892505, -0.28885017894603493, 1.1118549066560937, -1.3009999361164637]

>  <energy>  (2) 
-886.4692414510544

>  <inter_energy>  (2) 
-926.1025603448321

>  <intra_energy>  (2) 
39.052753308022176

>  <rmsd>  (2) 
7.86988

>  <sdf_rank>  (2) 
0

$$$$

     RDKit          3D

 56 59  0  0  0  0  0  0  0  0999 V2000
   72.1492   15.4485   67.3296 N   0  0  0  0  0  0  0  0  0  0  0  0
   73.2630   13.1000   67.5233 C   0  0  1  0  0  0  0  0  0  0  0  0
   74.5270   13.2406   68.1789 O   0  0  0  0  0  0  0  0  0  0  0  0
   70.6851    9.2555   65.0580 P   0  0  1  0  0  0  0  0  0  0  0  0
   72.9040   14.3354   66.7340 C   0  0  1  0  0  0  0  0  0  0  0  0
   72.9008   19.3731   68.9820 N   0  0  0  0  0  0  0  0  0  0  0  0
   72.2528   20.7578   72.3071 O   0  0  0  0  0  0  0  0  0  0  0  0
   72.5232   16.7245   67.5286 C   0  0  0  0  0  0  0  0  0  0  0  0
   70.2477   14.0490   67.9632 N   0  0  0  0  0  0  0  0  0  0  0  0
   70.0674   22.1267   71.5360 O   0  0  0  0  0  0  0  0  0  0  0  0
   71.5300   17.3995   68.2365 C   0  0  0  0  0  0  0  0  0  0  0  0
   68.3483   12.8906   68.6268 N   0  0  0  0  0  0  0  0  0  0  0  0
   68.4637   17.5951   69.1426 O   0  0  0  0  0  0  0  0  0  0  0  0
   71.5613   18.8581   68.6404 C   0  0  0  0  0  0  0  0  0  0  0  0
   68.5230   15.1718   69.1539 N   0  0  0  0  0  0  0  0  0  0  0  0
   71.9433   13.8426   65.7481 O   0  0  0  0  0  0  0  0  0  0  0  0
   72.9741   20.4344   70.0263 C   0  0  2  0  0  0  0  0  0  0  0  0
   71.0765   10.3006   66.2162 O   0  0  0  0  0  0  0  0  0  0  0  0
   71.7908   20.3971   71.0030 C   0  0  2  0  0  0  0  0  0  0  0  0
   69.1942    9.1813   64.8567 O   0  0  0  0  0  0  0  0  0  0  0  0
   70.7728   21.4310   70.5004 C   0  0  2  0  0  0  0  0  0  0  0  0
   71.6511   22.3558   69.6963 C   0  0  0  0  0  0  0  0  0  0  0  0
   71.3495    9.6576   63.7584 O   0  0  0  0  0  0  0  0  0  0  0  0
   72.8335   21.8120   69.4367 C   0  0  0  0  0  0  0  0  0  0  0  0
   74.4050   12.2227   65.5250 O   0  0  0  0  0  0  0  0  0  0  0  0
   70.4935   16.3695   68.4463 C   0  0  0  0  0  0  0  0  0  0  0  0
   70.9742   15.1934   67.9009 C   0  0  0  0  0  0  0  0  0  0  0  0
   69.0522   14.0470   68.5971 C   0  0  0  0  0  0  0  0  0  0  0  0
   69.2656   16.4302   69.2479 C   0  0  0  0  0  0  0  0  0  0  0  0
   72.0371   12.4222   65.5930 C   0  0  2  0  0  0  0  0  0  0  0  0
   70.8014   11.6894   66.1192 C   0  0  0  0  0  0  0  0  0  0  0  0
   73.2655   12.0676   66.3971 C   0  0  2  0  0  0  0  0  0  0  0  0
   71.1939    7.9246   65.5496 O   0  0  0  0  0  0  0  0  0  0  0  0
   72.5904   12.8493   68.3569 H   0  0  0  0  0  0  0  0  0  0  0  0
   74.3934   13.2258   69.1598 H   0  0  0  0  0  0  0  0  0  0  0  0
   73.8852   14.7551   66.4672 H   0  0  0  0  0  0  0  0  0  0  0  0
   73.4654   18.5762   69.3093 H   0  0  0  0  0  0  0  0  0  0  0  0
   73.2411   19.8231   68.1203 H   0  0  0  0  0  0  0  0  0  0  0  0
   71.6883   20.3172   72.9907 H   0  0  0  0  0  0  0  0  0  0  0  0
   73.4692   17.1684   67.1850 H   0  0  0  0  0  0  0  0  0  0  0  0
   70.3851   21.8133   72.4197 H   0  0  0  0  0  0  0  0  0  0  0  0
   67.4348   12.8558   69.1013 H   0  0  0  0  0  0  0  0  0  0  0  0
   68.7265   12.0458   68.1748 H   0  0  0  0  0  0  0  0  0  0  0  0
   70.9110   18.9848   69.5185 H   0  0  0  0  0  0  0  0  0  0  0  0
   71.2216   19.4309   67.7649 H   0  0  0  0  0  0  0  0  0  0  0  0
   67.5622   15.1358   69.5235 H   0  0  0  0  0  0  0  0  0  0  0  0
   73.9435   20.2444   70.5100 H   0  0  0  0  0  0  0  0  0  0  0  0
   71.3367   19.3967   71.0574 H   0  0  0  0  0  0  0  0  0  0  0  0
   69.9505   20.9665   69.9365 H   0  0  0  0  0  0  0  0  0  0  0  0
   71.3484   23.3601   69.3649 H   0  0  0  0  0  0  0  0  0  0  0  0
   73.6224   22.3120   68.8557 H   0  0  0  0  0  0  0  0  0  0  0  0
   75.2243   12.3342   66.0693 H   0  0  0  0  0  0  0  0  0  0  0  0
   72.1012   12.1236   64.5363 H   0  0  0  0  0  0  0  0  0  0  0  0
   69.9599   11.8485   65.4289 H   0  0  0  0  0  0  0  0  0  0  0  0
   70.5410   12.0804   67.1139 H   0  0  0  0  0  0  0  0  0  0  0  0
   73.2910   11.0439   66.7988 H   0  0  0  0  0  0  0  0  0  0  0  0
  5  1  1  0
  1  8  1  0
  1 27  1  0
  2  3  1  0
  2  5  1  0
  2 32  1  0
  4 18  1  0
  4 20  1  6
  4 23  2  0
  4 33  1  0
  5 16  1  0
  6 14  1  0
 17  6  1  0
 19  7  1  0
  8 11  2  0
  9 27  1  0
  9 28  2  0
 21 10  1  0
 11 14  1  0
 11 26  1  0
 12 28  1  0
 13 29  2  0
 15 28  1  0
 15 29  1  0
 16 30  1  0
 17 19  1  0
 17 24  1  0
 18 31  1  0
 19 21  1  0
 21 22  1  0
 22 24  2  0
 32 25  1  0
 26 27  2  0
 26 29  1  0
 30 31  1  0
 30 32  1  0
  2 34  1  1
  3 35  1  0
  5 36  1  6
  6 37  1  0
  6 38  1  0
  7 39  1  0
  8 40  1  0
 10 41  1  0
 12 42  1  0
 12 43  1  0
 14 44  1  0
 14 45  1  0
 15 46  1  0
 17 47  1  1
 19 48  1  1
 21 49  1  6
 22 50  1  0
 24 51  1  0
 25 52  1  0
 30 53  1  6
 31 54  1  0
 31 55  1  0
 32 56  1  1
M  CHG  3   6   1  20  -1  33  -1
M  END
>  <filename_input>  (3) 
7ULC_56B_docked.sdf

>  <pdb_id>  (3) 
7ULC_56B

>  <pose_rank>  (3) 
2

>  <num_atoms_heavy>  (3) 
33

>  <num_torsions>  (3) 
7

>  <pose>  (3) 
[72.14919537789044, 15.448515487704672, 67.32960103695584, 0.18642245591454606, -0.3218522125009906, 0.31985093521896024, 2.495757381082398, -3.975464099683535, -4.6550963300032695, 0.10882447304203581, 21.992940770190295, 26.038488587029047, 20.696519808327764]

>  <energy>  (3) 
-792.7032539725308

>  <inter_energy>  (3) 
-837.850456377058

>  <intra_energy>  (3) 
48.787991122154416

>  <rmsd>  (3) 
3.69357

>  <sdf_rank>  (3) 
0

$$$$

     RDKit          3D

 56 59  0  0  0  0  0  0  0  0999 V2000
   72.0853   15.8909   67.7083 N   0  0  0  0  0  0  0  0  0  0  0  0
   72.0399   13.2860   67.6271 C   0  0  1  0  0  0  0  0  0  0  0  0
   72.8066   12.7762   68.7223 O   0  0  0  0  0  0  0  0  0  0  0  0
   68.3442   14.7571   63.8415 P   0  0  1  0  0  0  0  0  0  0  0  0
   72.5665   14.6178   67.1504 C   0  0  1  0  0  0  0  0  0  0  0  0
   71.1260   20.3705   68.5405 N   0  0  0  0  0  0  0  0  0  0  0  0
   73.0126   23.1837   69.9260 O   0  0  0  0  0  0  0  0  0  0  0  0
   72.6971   17.0870   67.7586 C   0  0  0  0  0  0  0  0  0  0  0  0
   70.0421   14.9152   68.6296 N   0  0  0  0  0  0  0  0  0  0  0  0
   72.5991   22.4657   72.4868 O   0  0  0  0  0  0  0  0  0  0  0  0
   71.9169   17.9827   68.4882 C   0  0  0  0  0  0  0  0  0  0  0  0
   68.0466   14.1775   69.5588 N   0  0  0  0  0  0  0  0  0  0  0  0
   69.0430   18.8048   69.6399 O   0  0  0  0  0  0  0  0  0  0  0  0
   72.2466   19.4357   68.7557 C   0  0  0  0  0  0  0  0  0  0  0  0
   68.6744   16.4194   69.8625 N   0  0  0  0  0  0  0  0  0  0  0  0
   72.0699   14.7090   65.7781 O   0  0  0  0  0  0  0  0  0  0  0  0
   71.2543   21.7322   69.1334 C   0  0  2  0  0  0  0  0  0  0  0  0
   69.6304   14.5583   64.7866 O   0  0  0  0  0  0  0  0  0  0  0  0
   72.4674   21.8692   70.0635 C   0  0  2  0  0  0  0  0  0  0  0  0
   68.3177   16.1288   63.2198 O   0  0  0  0  0  0  0  0  0  0  0  0
   71.9506   21.6606   71.4943 C   0  0  2  0  0  0  0  0  0  0  0  0
   70.4925   22.0144   71.3450 C   0  0  0  0  0  0  0  0  0  0  0  0
   68.3435   13.7088   62.7492 O   0  0  0  0  0  0  0  0  0  0  0  0
   70.1198   22.0446   70.0717 C   0  0  0  0  0  0  0  0  0  0  0  0
   73.5713   12.1779   66.0480 O   0  0  0  0  0  0  0  0  0  0  0  0
   70.7421   17.1792   68.8797 C   0  0  0  0  0  0  0  0  0  0  0  0
   70.9489   15.8986   68.4014 C   0  0  0  0  0  0  0  0  0  0  0  0
   68.9366   15.1792   69.3640 C   0  0  0  0  0  0  0  0  0  0  0  0
   69.6332   17.5227   69.7778 C   0  0  0  0  0  0  0  0  0  0  0  0
   71.7009   13.4221   65.2702 C   0  0  2  0  0  0  0  0  0  0  0  0
   70.1923   13.2835   65.0567 C   0  0  0  0  0  0  0  0  0  0  0  0
   72.1897   12.4755   66.3408 C   0  0  2  0  0  0  0  0  0  0  0  0
   67.1603   14.5976   64.7606 O   0  0  0  0  0  0  0  0  0  0  0  0
   71.0183   13.2908   68.0350 H   0  0  0  0  0  0  0  0  0  0  0  0
   72.3885   13.0542   69.5755 H   0  0  0  0  0  0  0  0  0  0  0  0
   73.6352   14.5699   67.4064 H   0  0  0  0  0  0  0  0  0  0  0  0
   71.0079   20.4846   67.5237 H   0  0  0  0  0  0  0  0  0  0  0  0
   70.3249   19.9426   69.0265 H   0  0  0  0  0  0  0  0  0  0  0  0
   73.1729   23.5700   70.8233 H   0  0  0  0  0  0  0  0  0  0  0  0
   73.6662   17.3230   67.2947 H   0  0  0  0  0  0  0  0  0  0  0  0
   72.3429   22.1476   73.3887 H   0  0  0  0  0  0  0  0  0  0  0  0
   67.1950   14.3459   70.1132 H   0  0  0  0  0  0  0  0  0  0  0  0
   68.2211   13.2472   69.1526 H   0  0  0  0  0  0  0  0  0  0  0  0
   73.0706   19.7289   68.0885 H   0  0  0  0  0  0  0  0  0  0  0  0
   72.5088   19.5042   69.8218 H   0  0  0  0  0  0  0  0  0  0  0  0
   67.7656   16.5877   70.3170 H   0  0  0  0  0  0  0  0  0  0  0  0
   71.3068   22.3866   68.2508 H   0  0  0  0  0  0  0  0  0  0  0  0
   73.2528   21.1380   69.8217 H   0  0  0  0  0  0  0  0  0  0  0  0
   72.1448   20.6427   71.8635 H   0  0  0  0  0  0  0  0  0  0  0  0
   69.8191   22.2225   72.1895 H   0  0  0  0  0  0  0  0  0  0  0  0
   69.0962   22.2724   69.7393 H   0  0  0  0  0  0  0  0  0  0  0  0
   74.0724   12.0700   66.8950 H   0  0  0  0  0  0  0  0  0  0  0  0
   72.1353   13.2273   64.2785 H   0  0  0  0  0  0  0  0  0  0  0  0
   69.7312   12.8650   65.9634 H   0  0  0  0  0  0  0  0  0  0  0  0
   70.0041   12.6136   64.2048 H   0  0  0  0  0  0  0  0  0  0  0  0
   71.6511   11.5189   66.4110 H   0  0  0  0  0  0  0  0  0  0  0  0
  5  1  1  0
  1  8  1  0
  1 27  1  0
  2  3  1  0
  2  5  1  0
  2 32  1  0
  4 18  1  0
  4 20  1  6
  4 23  2  0
  4 33  1  0
  5 16  1  0
  6 14  1  0
 17  6  1  0
 19  7  1  0
  8 11  2  0
  9 27  1  0
  9 28  2  0
 21 10  1  0
 11 14  1  0
 11 26  1  0
 12 28  1  0
 13 29  2  0
 15 28  1  0
 15 29  1  0
 16 30  1  0
 17 19  1  0
 17 24  1  0
 18 31  1  0
 19 21  1  0
 21 22  1  0
 22 24  2  0
 32 25  1  0
 26 27  2  0
 26 29  1  0
 30 31  1  0
 30 32  1  0
  2 34  1  1
  3 35  1  0
  5 36  1  6
  6 37  1  0
  6 38  1  0
  7 39  1  0
  8 40  1  0
 10 41  1  0
 12 42  1  0
 12 43  1  0
 14 44  1  0
 14 45  1  0
 15 46  1  0
 17 47  1  6
 19 48  1  6
 21 49  1  1
 22 50  1  0
 24 51  1  0
 25 52  1  0
 30 53  1  6
 31 54  1  0
 31 55  1  0
 32 56  1  1
M  CHG  3   6   1  20  -1  33  -1
M  END
>  <filename_input>  (4) 
7ULC_56B_docked.sdf

>  <pdb_id>  (4) 
7ULC_56B

>  <pose_rank>  (4) 
3

>  <num_atoms_heavy>  (4) 
33

>  <num_torsions>  (4) 
7

>  <pose>  (4) 
[72.0853289878207, 15.890897222519008, 67.70825310221001, -1.9259079131453203, 4.812322446806766, -3.019615578060375, 3.1664243552343105, 5.711176637285737, -0.38790236040271514, -1.478045647669169, -6.479204242001309, -12.511985375734373, 1.2490203698169104]

>  <energy>  (4) 
-801.1756933479114

>  <inter_energy>  (4) 
-839.2138355322488

>  <intra_energy>  (4) 
44.43957142667012

>  <rmsd>  (4) 
4.3852

>  <sdf_rank>  (4) 
0

$$$$

     RDKit          3D

 56 59  0  0  0  0  0  0  0  0999 V2000
   71.7987   15.8744   67.5773 N   0  0  0  0  0  0  0  0  0  0  0  0
   70.7932   17.4681   69.3782 C   0  0  1  0  0  0  0  0  0  0  0  0
   69.5555   16.9197   69.8412 O   0  0  0  0  0  0  0  0  0  0  0  0
   72.2341   21.6844   70.1928 P   0  0  1  0  0  0  0  0  0  0  0  0
   71.0646   17.0961   67.9408 C   0  0  1  0  0  0  0  0  0  0  0  0
   75.5748   14.0618   68.4508 N   0  0  0  0  0  0  0  0  0  0  0  0
   77.9346   13.0454   71.0568 O   0  0  0  0  0  0  0  0  0  0  0  0
   73.0205   15.4656   67.9619 C   0  0  0  0  0  0  0  0  0  0  0  0
   70.1252   15.1435   65.9524 N   0  0  0  0  0  0  0  0  0  0  0  0
   79.6224   11.8365   69.3439 O   0  0  0  0  0  0  0  0  0  0  0  0
   73.3647   14.3035   67.2732 C   0  0  0  0  0  0  0  0  0  0  0  0
   68.6456   14.2787   64.3862 N   0  0  0  0  0  0  0  0  0  0  0  0
   72.4358   11.7234   65.6175 O   0  0  0  0  0  0  0  0  0  0  0  0
   74.6498   13.5204   67.4373 C   0  0  0  0  0  0  0  0  0  0  0  0
   70.6684   13.1515   64.7733 N   0  0  0  0  0  0  0  0  0  0  0  0
   71.9994   18.1272   67.4927 O   0  0  0  0  0  0  0  0  0  0  0  0
   76.1578   13.0943   69.4236 C   0  0  2  0  0  0  0  0  0  0  0  0
   73.4025   20.8248   69.4978 O   0  0  0  0  0  0  0  0  0  0  0  0
   77.6510   13.3339   69.6856 C   0  0  2  0  0  0  0  0  0  0  0  0
   72.7921   22.7855   71.0559 O   0  0  0  0  0  0  0  0  0  0  0  0
   78.4185   12.3654   68.7741 C   0  0  2  0  0  0  0  0  0  0  0  0
   77.3875   11.2914   68.5358 C   0  0  0  0  0  0  0  0  0  0  0  0
   71.3366   22.2827   69.1305 O   0  0  0  0  0  0  0  0  0  0  0  0
   76.1697   11.6909   68.8801 C   0  0  0  0  0  0  0  0  0  0  0  0
   69.5996   19.4682   68.5771 O   0  0  0  0  0  0  0  0  0  0  0  0
   72.1916   14.0501   66.4137 C   0  0  0  0  0  0  0  0  0  0  0  0
   71.3004   15.0852   66.6281 C   0  0  0  0  0  0  0  0  0  0  0  0
   69.8337   14.1967   65.0305 C   0  0  0  0  0  0  0  0  0  0  0  0
   72.0080   13.0498   65.3555 C   0  0  0  0  0  0  0  0  0  0  0  0
   71.9578   19.2759   68.3466 C   0  0  2  0  0  0  0  0  0  0  0  0
   73.2453   19.4574   69.1529 C   0  0  0  0  0  0  0  0  0  0  0  0
   70.7828   18.9906   69.2516 C   0  0  2  0  0  0  0  0  0  0  0  0
   71.4881   20.6979   71.0543 O   0  0  0  0  0  0  0  0  0  0  0  0
   71.5126   17.0868   70.1178 H   0  0  0  0  0  0  0  0  0  0  0  0
   69.5461   16.9156   70.8311 H   0  0  0  0  0  0  0  0  0  0  0  0
   70.0558   16.9686   67.5211 H   0  0  0  0  0  0  0  0  0  0  0  0
   76.3567   14.5081   67.9504 H   0  0  0  0  0  0  0  0  0  0  0  0
   75.0017   14.7002   69.0208 H   0  0  0  0  0  0  0  0  0  0  0  0
   77.3724   13.6173   71.6374 H   0  0  0  0  0  0  0  0  0  0  0  0
   73.6525   15.9714   68.7067 H   0  0  0  0  0  0  0  0  0  0  0  0
   79.5598   11.8640   70.3316 H   0  0  0  0  0  0  0  0  0  0  0  0
   68.3936   13.5737   63.6789 H   0  0  0  0  0  0  0  0  0  0  0  0
   67.9938   15.0461   64.6035 H   0  0  0  0  0  0  0  0  0  0  0  0
   75.1707   13.5095   66.4685 H   0  0  0  0  0  0  0  0  0  0  0  0
   74.3608   12.5172   67.7838 H   0  0  0  0  0  0  0  0  0  0  0  0
   70.3444   12.4030   64.1444 H   0  0  0  0  0  0  0  0  0  0  0  0
   75.5321   13.2295   70.3181 H   0  0  0  0  0  0  0  0  0  0  0  0
   77.9403   14.3751   69.4803 H   0  0  0  0  0  0  0  0  0  0  0  0
   78.7935   12.8575   67.8646 H   0  0  0  0  0  0  0  0  0  0  0  0
   77.6170   10.2967   68.1261 H   0  0  0  0  0  0  0  0  0  0  0  0
   75.2699   11.0663   68.7796 H   0  0  0  0  0  0  0  0  0  0  0  0
   68.9245   19.7407   69.2480 H   0  0  0  0  0  0  0  0  0  0  0  0
   71.8584   20.2122   67.7779 H   0  0  0  0  0  0  0  0  0  0  0  0
   74.1046   19.1312   68.5486 H   0  0  0  0  0  0  0  0  0  0  0  0
   73.1897   18.8533   70.0705 H   0  0  0  0  0  0  0  0  0  0  0  0
   70.8180   19.4700   70.2410 H   0  0  0  0  0  0  0  0  0  0  0  0
  5  1  1  0
  1  8  1  0
  1 27  1  0
  2  3  1  0
  2  5  1  0
  2 32  1  0
  4 18  1  0
  4 20  1  1
  4 23  2  0
  4 33  1  0
  5 16  1  0
  6 14  1  0
 17  6  1  0
 19  7  1  0
  8 11  2  0
  9 27  1  0
  9 28  2  0
 21 10  1  0
 11 14  1  0
 11 26  1  0
 12 28  1  0
 13 29  2  0
 15 28  1  0
 15 29  1  0
 16 30  1  0
 17 19  1  0
 17 24  1  0
 18 31  1  0
 19 21  1  0
 21 22  1  0
 22 24  2  0
 32 25  1  0
 26 27  2  0
 26 29  1  0
 30 31  1  0
 30 32  1  0
  2 34  1  1
  3 35  1  0
  5 36  1  6
  6 37  1  0
  6 38  1  0
  7 39  1  0
  8 40  1  0
 10 41  1  0
 12 42  1  0
 12 43  1  0
 14 44  1  0
 14 45  1  0
 15 46  1  0
 17 47  1  1
 19 48  1  6
 21 49  1  6
 22 50  1  0
 24 51  1  0
 25 52  1  0
 30 53  1  6
 31 54  1  0
 31 55  1  0
 32 56  1  1
M  CHG  3   6   1  20  -1  33  -1
M  END
>  <filename_input>  (5) 
7ULC_56B_docked.sdf

>  <pdb_id>  (5) 
7ULC_56B

>  <pose_rank>  (5) 
4

>  <num_atoms_heavy>  (5) 
33

>  <num_torsions>  (5) 
7

>  <pose>  (5) 
[71.79873369120422, 15.874386322475269, 67.57733388391452, -3.060905996370193, -1.0113741898721227, -0.16145527350231328, -0.514371068423734, -4.646378157894494, -2.0980141864167705, 3.8518622803771887, -8.794032738261846, -19.333278458485765, -8.761998251110771]

>  <energy>  (5) 
-680.9335292199502

>  <inter_energy>  (5) 
-737.6769996480122

>  <intra_energy>  (5) 
66.00402145994087

>  <rmsd>  (5) 
8.01925

>  <sdf_rank>  (5) 
0

$$$$

     RDKit          3D

 56 59  0  0  0  0  0  0  0  0999 V2000
   71.2984   18.3064   68.0372 N   0  0  0  0  0  0  0  0  0  0  0  0
   72.5626   20.5826   68.1585 C   0  0  1  0  0  0  0  0  0  0  0  0
   73.2725   20.6514   69.3988 O   0  0  0  0  0  0  0  0  0  0  0  0
   71.7124   22.9262   63.0986 P   0  0  1  0  0  0  0  0  0  0  0  0
   71.3051   19.7569   68.2811 C   0  0  1  0  0  0  0  0  0  0  0  0
   73.4750   14.7504   66.5625 N   0  0  0  0  0  0  0  0  0  0  0  0
   75.4385   13.4497   69.3635 O   0  0  0  0  0  0  0  0  0  0  0  0
   71.9545   17.5939   67.1047 C   0  0  0  0  0  0  0  0  0  0  0  0
   69.5672   17.8585   69.7039 N   0  0  0  0  0  0  0  0  0  0  0  0
   76.5083   11.4296   67.9424 O   0  0  0  0  0  0  0  0  0  0  0  0
   71.5549   16.2598   67.1666 C   0  0  0  0  0  0  0  0  0  0  0  0
   67.9503   17.2343   71.2486 N   0  0  0  0  0  0  0  0  0  0  0  0
   70.2536   13.8650   68.8497 O   0  0  0  0  0  0  0  0  0  0  0  0
   72.0755   15.1346   66.2980 C   0  0  0  0  0  0  0  0  0  0  0  0
   68.8756   15.5885   69.8530 N   0  0  0  0  0  0  0  0  0  0  0  0
   70.4774   20.2302   67.1725 O   0  0  0  0  0  0  0  0  0  0  0  0
   73.7215   13.8320   67.7106 C   0  0  2  0  0  0  0  0  0  0  0  0
   71.3374   22.6935   64.6453 O   0  0  0  0  0  0  0  0  0  0  0  0
   75.2130   13.5668   67.9566 C   0  0  2  0  0  0  0  0  0  0  0  0
   71.9952   24.3767   62.8073 O   0  0  0  0  0  0  0  0  0  0  0  0
   75.5450   12.2404   67.2578 C   0  0  2  0  0  0  0  0  0  0  0  0
   74.1907   11.5803   67.2002 C   0  0  0  0  0  0  0  0  0  0  0  0
   72.9231   22.0938   62.7336 O   0  0  0  0  0  0  0  0  0  0  0  0
   73.2105   12.4430   67.4374 C   0  0  0  0  0  0  0  0  0  0  0  0
   71.2557   22.5680   68.8042 O   0  0  0  0  0  0  0  0  0  0  0  0
   70.5658   16.2451   68.2623 C   0  0  0  0  0  0  0  0  0  0  0  0
   70.4346   17.5474   68.7078 C   0  0  0  0  0  0  0  0  0  0  0  0
   68.7937   16.8899   70.2467 C   0  0  0  0  0  0  0  0  0  0  0  0
   69.6884   15.1585   68.7136 C   0  0  0  0  0  0  0  0  0  0  0  0
   70.9164   21.5096   66.7027 C   0  0  2  0  0  0  0  0  0  0  0  0
   71.5184   21.4463   65.2977 C   0  0  0  0  0  0  0  0  0  0  0  0
   71.9538   21.9145   67.7231 C   0  0  2  0  0  0  0  0  0  0  0  0
   70.4899   22.4878   62.3338 O   0  0  0  0  0  0  0  0  0  0  0  0
   73.3272   20.1950   67.4691 H   0  0  0  0  0  0  0  0  0  0  0  0
   72.6309   20.5892   70.1501 H   0  0  0  0  0  0  0  0  0  0  0  0
   71.0288   19.8785   69.3388 H   0  0  0  0  0  0  0  0  0  0  0  0
   73.8362   14.2909   65.7144 H   0  0  0  0  0  0  0  0  0  0  0  0
   73.9489   15.6287   66.8172 H   0  0  0  0  0  0  0  0  0  0  0  0
   74.6754   13.8459   69.8541 H   0  0  0  0  0  0  0  0  0  0  0  0
   72.6942   18.0017   66.4001 H   0  0  0  0  0  0  0  0  0  0  0  0
   76.3890   11.5300   68.9201 H   0  0  0  0  0  0  0  0  0  0  0  0
   67.3481   16.5206   71.6830 H   0  0  0  0  0  0  0  0  0  0  0  0
   67.9110   18.2100   71.5761 H   0  0  0  0  0  0  0  0  0  0  0  0
   71.9992   15.4495   65.2468 H   0  0  0  0  0  0  0  0  0  0  0  0
   71.4612   14.2522   66.5303 H   0  0  0  0  0  0  0  0  0  0  0  0
   68.3447   14.8787   70.3777 H   0  0  0  0  0  0  0  0  0  0  0  0
   73.2259   14.3410   68.5504 H   0  0  0  0  0  0  0  0  0  0  0  0
   75.8426   14.3808   67.5682 H   0  0  0  0  0  0  0  0  0  0  0  0
   76.0279   12.3930   66.2814 H   0  0  0  0  0  0  0  0  0  0  0  0
   74.0339   10.5125   66.9873 H   0  0  0  0  0  0  0  0  0  0  0  0
   72.1442   12.1731   67.4345 H   0  0  0  0  0  0  0  0  0  0  0  0
   71.6064   22.2396   69.6698 H   0  0  0  0  0  0  0  0  0  0  0  0
   70.0861   22.2252   66.6112 H   0  0  0  0  0  0  0  0  0  0  0  0
   71.0177   20.6552   64.7203 H   0  0  0  0  0  0  0  0  0  0  0  0
   72.5934   21.2250   65.3706 H   0  0  0  0  0  0  0  0  0  0  0  0
   72.7301   22.6054   67.3627 H   0  0  0  0  0  0  0  0  0  0  0  0
  5  1  1  0
  1  8  1  0
  1 27  1  0
  2  3  1  0
  2  5  1  0
  2 32  1  0
  4 18  1  0
  4 20  1  1
  4 23  2  0
  4 33  1  0
  5 16  1  0
  6 14  1  0
 17  6  1  0
 19  7  1  0
  8 11  2  0
  9 27  1  0
  9 28  2  0
 21 10  1  0
 11 14  1  0
 11 26  1  0
 12 28  1  0
 13 29  2  0
 15 28  1  0
 15 29  1  0
 16 30  1  0
 17 19  1  0
 17 24  1  0
 18 31  1  0
 19 21  1  0
 21 22  1  0
 22 24  2  0
 32 25  1  0
 26 27  2  0
 26 29  1  0
 30 31  1  0
 30 32  1  0
  2 34  1  6
  3 35  1  0
  5 36  1  1
  6 37  1  0
  6 38  1  0
  7 39  1  0
  8 40  1  0
 10 41  1  0
 12 42  1  0
 12 43  1  0
 14 44  1  0
 14 45  1  0
 15 46  1  0
 17 47  1  1
 19 48  1  6
 21 49  1  6
 22 50  1  0
 24 51  1  0
 25 52  1  0
 30 53  1  6
 31 54  1  0
 31 55  1  0
 32 56  1  6
M  CHG  3   6   1  20  -1  33  -1
M  END
>  <filename_input>  (6) 
7ULC_56B_docked.sdf

>  <pdb_id>  (6) 
7ULC_56B

>  <pose_rank>  (6) 
5

>  <num_atoms_heavy>  (6) 
33

>  <num_torsions>  (6) 
7

>  <pose>  (6) 
[71.29839520069574, 18.30642578921918, 68.03718502534191, 2.2796323388489994, 0.6565215743352347, -1.9650279474860282, 6.058963370174584, 1.5911665680129983, 0.2729480768150866, -1.5011895485720284, 4.958345197232836, -1.3738626993853655, -1.6766325074512975]

>  <energy>  (6) 
-666.9964021987696

>  <inter_energy>  (6) 
-653.6837717398137

>  <intra_energy>  (6) 
0.023173431400508614

>  <rmsd>  (6) 
8.46229

>  <sdf_rank>  (6) 
0

$$$$

     RDKit          3D

 56 59  0  0  0  0  0  0  0  0999 V2000
   70.5510   18.5078   69.0885 N   0  0  0  0  0  0  0  0  0  0  0  0
   71.2298   17.3879   66.8348 C   0  0  1  0  0  0  0  0  0  0  0  0
   70.9267   18.2857   65.7629 O   0  0  0  0  0  0  0  0  0  0  0  0
   73.6570   12.6102   67.6627 P   0  0  1  0  0  0  0  0  0  0  0  0
   70.2795   17.5631   67.9943 C   0  0  1  0  0  0  0  0  0  0  0  0
   71.7949   20.6451   73.0512 N   0  0  0  0  0  0  0  0  0  0  0  0
   75.3493   20.2523   73.8293 O   0  0  0  0  0  0  0  0  0  0  0  0
   70.4903   18.3157   70.4178 C   0  0  0  0  0  0  0  0  0  0  0  0
   70.8595   20.4185   67.5952 N   0  0  0  0  0  0  0  0  0  0  0  0
   76.0496   22.6363   72.7947 O   0  0  0  0  0  0  0  0  0  0  0  0
   70.7107   19.5241   71.0769 C   0  0  0  0  0  0  0  0  0  0  0  0
   71.2033   22.3423   66.3419 N   0  0  0  0  0  0  0  0  0  0  0  0
   71.9010   22.4975   71.0217 O   0  0  0  0  0  0  0  0  0  0  0  0
   70.7436   19.7255   72.5769 C   0  0  0  0  0  0  0  0  0  0  0  0
   71.2594   22.4939   68.6842 N   0  0  0  0  0  0  0  0  0  0  0  0
   70.3647   16.2858   68.7007 O   0  0  0  0  0  0  0  0  0  0  0  0
   73.2052   20.2921   72.7212 C   0  0  2  0  0  0  0  0  0  0  0  0
   72.3652   13.3799   68.2335 O   0  0  0  0  0  0  0  0  0  0  0  0
   74.2300   21.0923   73.5366 C   0  0  2  0  0  0  0  0  0  0  0  0
   74.8133   13.5505   67.4447 O   0  0  0  0  0  0  0  0  0  0  0  0
   74.6713   22.2693   72.6548 C   0  0  2  0  0  0  0  0  0  0  0  0
   74.3637   21.7466   71.2745 C   0  0  0  0  0  0  0  0  0  0  0  0
   74.0706   11.5181   68.6262 O   0  0  0  0  0  0  0  0  0  0  0  0
   73.5674   20.6857   71.3145 C   0  0  0  0  0  0  0  0  0  0  0  0
   69.6733   15.7343   65.8809 O   0  0  0  0  0  0  0  0  0  0  0  0
   70.9163   20.4863   69.9765 C   0  0  0  0  0  0  0  0  0  0  0  0
   70.7549   19.7898   68.7931 C   0  0  0  0  0  0  0  0  0  0  0  0
   71.0903   21.7512   67.5549 C   0  0  0  0  0  0  0  0  0  0  0  0
   71.0541   21.9467   70.0266 C   0  0  0  0  0  0  0  0  0  0  0  0
   70.9023   15.2592   67.8596 C   0  0  2  0  0  0  0  0  0  0  0  0
   72.2887   14.7948   68.3098 C   0  0  0  0  0  0  0  0  0  0  0  0
   70.9621   15.9207   66.5031 C   0  0  2  0  0  0  0  0  0  0  0  0
   73.2146   12.0405   66.3392 O   0  0  0  0  0  0  0  0  0  0  0  0
   72.2866   17.6131   67.0408 H   0  0  0  0  0  0  0  0  0  0  0  0
   70.6331   19.1553   66.1338 H   0  0  0  0  0  0  0  0  0  0  0  0
   69.3612   17.9287   67.5114 H   0  0  0  0  0  0  0  0  0  0  0  0
   71.6035   21.5716   72.6439 H   0  0  0  0  0  0  0  0  0  0  0  0
   71.7429   20.6021   74.0789 H   0  0  0  0  0  0  0  0  0  0  0  0
   75.4548   20.1731   74.8105 H   0  0  0  0  0  0  0  0  0  0  0  0
   70.2963   17.3515   70.9103 H   0  0  0  0  0  0  0  0  0  0  0  0
   76.2790   22.6973   73.7558 H   0  0  0  0  0  0  0  0  0  0  0  0
   71.3790   23.3551   66.2769 H   0  0  0  0  0  0  0  0  0  0  0  0
   71.1136   21.7790   65.4842 H   0  0  0  0  0  0  0  0  0  0  0  0
   70.9053   18.7461   73.0509 H   0  0  0  0  0  0  0  0  0  0  0  0
   69.7820   20.1843   72.8506 H   0  0  0  0  0  0  0  0  0  0  0  0
   71.5431   23.4796   68.5900 H   0  0  0  0  0  0  0  0  0  0  0  0
   73.2450   19.2099   72.9143 H   0  0  0  0  0  0  0  0  0  0  0  0
   73.8060   21.4528   74.4854 H   0  0  0  0  0  0  0  0  0  0  0  0
   74.1579   23.2051   72.9209 H   0  0  0  0  0  0  0  0  0  0  0  0
   74.7524   22.1909   70.3463 H   0  0  0  0  0  0  0  0  0  0  0  0
   73.2119   20.1537   70.4197 H   0  0  0  0  0  0  0  0  0  0  0  0
   68.9803   15.6341   66.5809 H   0  0  0  0  0  0  0  0  0  0  0  0
   70.2901   14.3455   67.8772 H   0  0  0  0  0  0  0  0  0  0  0  0
   72.4630   15.1154   69.3475 H   0  0  0  0  0  0  0  0  0  0  0  0
   73.0529   15.2377   67.6541 H   0  0  0  0  0  0  0  0  0  0  0  0
   71.7239   15.5253   65.8151 H   0  0  0  0  0  0  0  0  0  0  0  0
  5  1  1  0
  1  8  1  0
  1 27  1  0
  2  3  1  0
  2  5  1  0
  2 32  1  0
  4 18  1  0
  4 20  1  6
  4 23  2  0
  4 33  1  0
  5 16  1  0
  6 14  1  0
 17  6  1  0
 19  7  1  0
  8 11  2  0
  9 27  1  0
  9 28  2  0
 21 10  1  0
 11 14  1  0
 11 26  1  0
 12 28  1  0
 13 29  2  0
 15 28  1  0
 15 29  1  0
 16 30  1  0
 17 19  1  0
 17 24  1  0
 18 31  1  0
 19 21  1  0
 21 22  1  0
 22 24  2  0
 32 25  1  0
 26 27  2  0
 26 29  1  0
 30 31  1  0
 30 32  1  0
  2 34  1  1
  3 35  1  0
  5 36  1  6
  6 37  1  0
  6 38  1  0
  7 39  1  0
  8 40  1  0
 10 41  1  0
 12 42  1  0
 12 43  1  0
 14 44  1  0
 14 45  1  0
 15 46  1  0
 17 47  1  6
 19 48  1  1
 21 49  1  1
 22 50  1  0
 24 51  1  0
 25 52  1  0
 30 53  1  6
 31 54  1  0
 31 55  1  0
 32 56  1  6
M  CHG  3   6   1  20  -1  33  -1
M  END
>  <filename_input>  (7) 
7ULC_56B_docked.sdf

>  <pdb_id>  (7) 
7ULC_56B

>  <pose_rank>  (7) 
6

>  <num_atoms_heavy>  (7) 
33

>  <num_torsions>  (7) 
7

>  <pose>  (7) 
[70.55102380658998, 18.507821277061506, 69.08846514878718, -0.2473717235881067, 3.046591691834213, 2.4028790090496956, -14.408133278540797, 7.614925630660079, -0.5794315827814437, 1.3731790550539262, 6.184606854773599, 2.4588651503439634, 4.792514415973241]

>  <energy>  (7) 
-512.9328341705652

>  <inter_energy>  (7) 
-697.0682098368372

>  <intra_energy>  (7) 
179.6003895274681

>  <rmsd>  (7) 
5.01688

>  <sdf_rank>  (7) 
0

$$$$

     RDKit          3D

 56 59  0  0  0  0  0  0  0  0999 V2000
   70.9093   16.0992   68.6004 N   0  0  0  0  0  0  0  0  0  0  0  0
   68.3111   15.8930   68.6254 C   0  0  1  0  0  0  0  0  0  0  0  0
   67.7806   16.8477   69.5497 O   0  0  0  0  0  0  0  0  0  0  0  0
   70.8680   12.9920   65.8195 P   0  0  1  0  0  0  0  0  0  0  0  0
   69.6823   15.4178   69.0404 C   0  0  1  0  0  0  0  0  0  0  0  0
   74.6437   15.0796   66.7180 N   0  0  0  0  0  0  0  0  0  0  0  0
   76.7078   13.6268   69.3679 O   0  0  0  0  0  0  0  0  0  0  0  0
   71.9068   15.6444   67.8221 C   0  0  0  0  0  0  0  0  0  0  0  0
   70.5047   18.0848   69.9677 N   0  0  0  0  0  0  0  0  0  0  0  0
   77.2227   11.3622   68.0074 O   0  0  0  0  0  0  0  0  0  0  0  0
   72.9283   16.5914   67.7676 C   0  0  0  0  0  0  0  0  0  0  0  0
   70.2861   20.0528   71.1797 N   0  0  0  0  0  0  0  0  0  0  0  0
   73.8611   19.6374   68.1043 O   0  0  0  0  0  0  0  0  0  0  0  0
   74.2153   16.4665   66.9803 C   0  0  0  0  0  0  0  0  0  0  0  0
   72.2168   19.7324   69.8827 N   0  0  0  0  0  0  0  0  0  0  0  0
   69.8177   14.1313   68.3589 O   0  0  0  0  0  0  0  0  0  0  0  0
   74.8789   14.2060   67.9028 C   0  0  2  0  0  0  0  0  0  0  0  0
   69.5773   13.9517   65.8134 O   0  0  0  0  0  0  0  0  0  0  0  0
   76.3228   13.6936   67.9926 C   0  0  2  0  0  0  0  0  0  0  0  0
   71.5274   12.9385   64.4663 O   0  0  0  0  0  0  0  0  0  0  0  0
   76.3299   12.2879   67.3749 C   0  0  2  0  0  0  0  0  0  0  0  0
   74.8874   11.8791   67.5339 C   0  0  0  0  0  0  0  0  0  0  0  0
   71.8661   13.4814   66.8472 O   0  0  0  0  0  0  0  0  0  0  0  0
   74.1079   12.9168   67.8109 C   0  0  0  0  0  0  0  0  0  0  0  0
   67.3353   14.0680   69.9611 O   0  0  0  0  0  0  0  0  0  0  0  0
   72.4268   17.6909   68.6153 C   0  0  0  0  0  0  0  0  0  0  0  0
   71.2059   17.2871   69.1231 C   0  0  0  0  0  0  0  0  0  0  0  0
   71.0203   19.2769   70.3476 C   0  0  0  0  0  0  0  0  0  0  0  0
   73.1091   18.9111   69.0623 C   0  0  0  0  0  0  0  0  0  0  0  0
   68.5425   13.6131   67.9644 C   0  0  2  0  0  0  0  0  0  0  0  0
   68.3572   13.5978   66.4458 C   0  0  0  0  0  0  0  0  0  0  0  0
   67.5668   14.5588   68.6237 C   0  0  2  0  0  0  0  0  0  0  0  0
   70.3342   11.6278   66.1741 O   0  0  0  0  0  0  0  0  0  0  0  0
   68.2585   16.4344   67.6693 H   0  0  0  0  0  0  0  0  0  0  0  0
   67.9511   16.5408   70.4754 H   0  0  0  0  0  0  0  0  0  0  0  0
   69.6629   15.5250   70.1350 H   0  0  0  0  0  0  0  0  0  0  0  0
   73.9149   14.6332   66.1431 H   0  0  0  0  0  0  0  0  0  0  0  0
   75.5641   15.1664   66.2639 H   0  0  0  0  0  0  0  0  0  0  0  0
   75.9120   13.7649   69.9404 H   0  0  0  0  0  0  0  0  0  0  0  0
   71.9155   14.6727   67.3066 H   0  0  0  0  0  0  0  0  0  0  0  0
   77.1423   11.4456   68.9906 H   0  0  0  0  0  0  0  0  0  0  0  0
   70.6501   20.9659   71.4875 H   0  0  0  0  0  0  0  0  0  0  0  0
   69.3636   19.7300   71.5048 H   0  0  0  0  0  0  0  0  0  0  0  0
   75.0131   16.9708   67.5452 H   0  0  0  0  0  0  0  0  0  0  0  0
   74.0253   16.9247   65.9985 H   0  0  0  0  0  0  0  0  0  0  0  0
   72.5054   20.6928   70.1177 H   0  0  0  0  0  0  0  0  0  0  0  0
   74.5916   14.8475   68.7489 H   0  0  0  0  0  0  0  0  0  0  0  0
   77.0253   14.3554   67.4648 H   0  0  0  0  0  0  0  0  0  0  0  0
   76.6994   12.2895   66.3388 H   0  0  0  0  0  0  0  0  0  0  0  0
   74.5248   10.8455   67.4326 H   0  0  0  0  0  0  0  0  0  0  0  0
   73.0202   12.8429   67.9570 H   0  0  0  0  0  0  0  0  0  0  0  0
   67.6513   14.7380   70.6179 H   0  0  0  0  0  0  0  0  0  0  0  0
   68.4101   12.5634   68.2654 H   0  0  0  0  0  0  0  0  0  0  0  0
   67.5765   14.3201   66.1651 H   0  0  0  0  0  0  0  0  0  0  0  0
   68.0585   12.5891   66.1245 H   0  0  0  0  0  0  0  0  0  0  0  0
   66.5884   14.6522   68.1298 H   0  0  0  0  0  0  0  0  0  0  0  0
  5  1  1  0
  1  8  1  0
  1 27  1  0
  2  3  1  0
  2  5  1  0
  2 32  1  0
  4 18  1  0
  4 20  1  6
  4 23  2  0
  4 33  1  0
  5 16  1  0
  6 14  1  0
 17  6  1  0
 19  7  1  0
  8 11  2  0
  9 27  1  0
  9 28  2  0
 21 10  1  0
 11 14  1  0
 11 26  1  0
 12 28  1  0
 13 29  2  0
 15 28  1  0
 15 29  1  0
 16 30  1  0
 17 19  1  0
 17 24  1  0
 18 31  1  0
 19 21  1  0
 21 22  1  0
 22 24  2  0
 32 25  1  0
 26 27  2  0
 26 29  1  0
 30 31  1  0
 30 32  1  0
  2 34  1  6
  3 35  1  0
  5 36  1  1
  6 37  1  0
  6 38  1  0
  7 39  1  0
  8 40  1  0
 10 41  1  0
 12 42  1  0
 12 43  1  0
 14 44  1  0
 14 45  1  0
 15 46  1  0
 17 47  1  1
 19 48  1  6
 21 49  1  6
 22 50  1  0
 24 51  1  0
 25 52  1  0
 30 53  1  1
 31 54  1  0
 31 55  1  0
 32 56  1  6
M  CHG  3   6   1  20  -1  33  -1
M  END
>  <filename_input>  (8) 
7ULC_56B_docked.sdf

>  <pdb_id>  (8) 
7ULC_56B

>  <pose_rank>  (8) 
7

>  <num_atoms_heavy>  (8) 
33

>  <num_torsions>  (8) 
7

>  <pose>  (8) 
[70.90928723560464, 16.099234057867825, 68.60039417570961, 2.2890122534181407, -1.1919978645286684, 4.219515598022465, -1.5656883478367487, -0.9352281299964766, -1.769298593168243, -2.6856188554332974, 3.3024395956160713, 2.459716609051907, -0.6791251264393185]

>  <energy>  (8) 
-500.1383089573843

>  <inter_energy>  (8) 
-657.8378143702784

>  <intra_energy>  (8) 
162.6032411150585

>  <rmsd>  (8) 
6.60852

>  <sdf_rank>  (8) 
0

$$$$

     RDKit          3D

 56 59  0  0  0  0  0  0  0  0999 V2000
   70.6725   19.7375   68.8316 N   0  0  0  0  0  0  0  0  0  0  0  0
   69.0907   17.6724   68.6681 C   0  0  1  0  0  0  0  0  0  0  0  0
   67.8751   17.9651   69.3637 O   0  0  0  0  0  0  0  0  0  0  0  0
   72.0016   13.5475   66.6195 P   0  0  1  0  0  0  0  0  0  0  0  0
   70.2684   18.3948   69.2757 C   0  0  1  0  0  0  0  0  0  0  0  0
   71.6396   21.8470   65.1623 N   0  0  0  0  0  0  0  0  0  0  0  0
   70.5863   21.7973   61.6578 O   0  0  0  0  0  0  0  0  0  0  0  0
   70.5984   20.2912   67.6086 C   0  0  0  0  0  0  0  0  0  0  0  0
   71.6647   20.3403   70.9828 N   0  0  0  0  0  0  0  0  0  0  0  0
   72.8471   22.9405   60.7487 O   0  0  0  0  0  0  0  0  0  0  0  0
   71.2105   21.5435   67.6226 C   0  0  0  0  0  0  0  0  0  0  0  0
   72.6389   21.0991   72.9488 N   0  0  0  0  0  0  0  0  0  0  0  0
   72.2172   24.0821   69.2970 O   0  0  0  0  0  0  0  0  0  0  0  0
   71.3189   22.4933   66.4489 C   0  0  0  0  0  0  0  0  0  0  0  0
   72.6996   22.4798   71.0508 N   0  0  0  0  0  0  0  0  0  0  0  0
   71.4164   17.6000   68.8417 O   0  0  0  0  0  0  0  0  0  0  0  0
   71.0540   22.4540   63.9330 C   0  0  2  0  0  0  0  0  0  0  0  0
   70.8876   14.7076   66.6174 O   0  0  0  0  0  0  0  0  0  0  0  0
   71.6241   21.8565   62.6394 C   0  0  2  0  0  0  0  0  0  0  0  0
   71.7940   12.5793   67.7545 O   0  0  0  0  0  0  0  0  0  0  0  0
   72.7384   22.8035   62.1712 C   0  0  2  0  0  0  0  0  0  0  0  0
   72.3360   24.0967   62.8337 C   0  0  0  0  0  0  0  0  0  0  0  0
   71.9639   12.7979   65.3047 O   0  0  0  0  0  0  0  0  0  0  0  0
   71.4339   23.9030   63.7874 C   0  0  0  0  0  0  0  0  0  0  0  0
   69.5145   15.7996   70.2108 O   0  0  0  0  0  0  0  0  0  0  0  0
   71.6709   21.6882   69.0177 C   0  0  0  0  0  0  0  0  0  0  0  0
   71.3424   20.5180   69.6767 C   0  0  0  0  0  0  0  0  0  0  0  0
   72.3473   21.3047   71.6425 C   0  0  0  0  0  0  0  0  0  0  0  0
   72.5071   22.7324   69.6215 C   0  0  0  0  0  0  0  0  0  0  0  0
   71.0176   16.2864   68.4346 C   0  0  2  0  0  0  0  0  0  0  0  0
   71.1883   16.0584   66.9315 C   0  0  0  0  0  0  0  0  0  0  0  0
   69.5621   16.2286   68.8336 C   0  0  2  0  0  0  0  0  0  0  0  0
   73.3116   14.2692   66.8063 O   0  0  0  0  0  0  0  0  0  0  0  0
   68.8420   17.9445   67.6317 H   0  0  0  0  0  0  0  0  0  0  0  0
   68.0360   17.9264   70.3398 H   0  0  0  0  0  0  0  0  0  0  0  0
   69.9742   18.5098   70.3293 H   0  0  0  0  0  0  0  0  0  0  0  0
   72.6641   21.8583   65.0561 H   0  0  0  0  0  0  0  0  0  0  0  0
   71.2185   20.9090   65.2229 H   0  0  0  0  0  0  0  0  0  0  0  0
   69.7070   21.7472   62.1098 H   0  0  0  0  0  0  0  0  0  0  0  0
   70.1264   19.8265   66.7304 H   0  0  0  0  0  0  0  0  0  0  0  0
   73.4477   23.6980   60.5351 H   0  0  0  0  0  0  0  0  0  0  0  0
   73.1573   21.8137   73.4793 H   0  0  0  0  0  0  0  0  0  0  0  0
   72.3423   20.2282   73.4118 H   0  0  0  0  0  0  0  0  0  0  0  0
   72.1096   23.2249   66.6716 H   0  0  0  0  0  0  0  0  0  0  0  0
   70.3269   22.9528   66.3277 H   0  0  0  0  0  0  0  0  0  0  0  0
   73.1179   23.2202   71.6319 H   0  0  0  0  0  0  0  0  0  0  0  0
   69.9751   22.2775   64.0552 H   0  0  0  0  0  0  0  0  0  0  0  0
   72.0155   20.8405   62.7959 H   0  0  0  0  0  0  0  0  0  0  0  0
   73.7392   22.4360   62.4421 H   0  0  0  0  0  0  0  0  0  0  0  0
   72.7414   25.0819   62.5595 H   0  0  0  0  0  0  0  0  0  0  0  0
   71.0110   24.7109   64.4026 H   0  0  0  0  0  0  0  0  0  0  0  0
   69.6018   16.5867   70.8048 H   0  0  0  0  0  0  0  0  0  0  0  0
   71.6333   15.5029   68.9005 H   0  0  0  0  0  0  0  0  0  0  0  0
   72.2268   16.2787   66.6434 H   0  0  0  0  0  0  0  0  0  0  0  0
   70.5048   16.7220   66.3816 H   0  0  0  0  0  0  0  0  0  0  0  0
   68.9363   15.5386   68.2485 H   0  0  0  0  0  0  0  0  0  0  0  0
  5  1  1  0
  1  8  1  0
  1 27  1  0
  2  3  1  0
  2  5  1  0
  2 32  1  0
  4 18  1  0
  4 20  1  1
  4 23  2  0
  4 33  1  0
  5 16  1  0
  6 14  1  0
 17  6  1  0
 19  7  1  0
  8 11  2  0
  9 27  1  0
  9 28  2  0
 21 10  1  0
 11 14  1  0
 11 26  1  0
 12 28  1  0
 13 29  2  0
 15 28  1  0
 15 29  1  0
 16 30  1  0
 17 19  1  0
 17 24  1  0
 18 31  1  0
 19 21  1  0
 21 22  1  0
 22 24  2  0
 32 25  1  0
 26 27  2  0
 26 29  1  0
 30 31  1  0
 30 32  1  0
  2 34  1  6
  3 35  1  0
  5 36  1  1
  6 37  1  0
  6 38  1  0
  7 39  1  0
  8 40  1  0
 10 41  1  0
 12 42  1  0
 12 43  1  0
 14 44  1  0
 14 45  1  0
 15 46  1  0
 17 47  1  1
 19 48  1  1
 21 49  1  1
 22 50  1  0
 24 51  1  0
 25 52  1  0
 30 53  1  1
 31 54  1  0
 31 55  1  0
 32 56  1  6
M  CHG  3   6   1  20  -1  33  -1
M  END
>  <filename_input>  (9) 
7ULC_56B_docked.sdf

>  <pdb_id>  (9) 
7ULC_56B

>  <pose_rank>  (9) 
8

>  <num_atoms_heavy>  (9) 
33

>  <num_torsions>  (9) 
7

>  <pose>  (9) 
[70.67253618581684, 19.73754981074351, 68.83155582018452, -0.46542284301245007, 1.3156542649405867, -0.3149508869501974, -0.1226085401138803, -4.292129970671504, 1.7249119835966344, 3.1431365688000117, -3.257634269450765, 6.04512326319907, 16.944452087780064]

>  <energy>  (9) 
-637.1000841665048

>  <inter_energy>  (9) 
-635.8173467281323

>  <intra_energy>  (9) 
0.5801310433457276

>  <rmsd>  (9) 
6.61704

>  <sdf_rank>  (9) 
0

$$$$

     RDKit          3D

 56 59  0  0  0  0  0  0  0  0999 V2000
   74.3674   14.1990   67.9509 N   0  0  0  0  0  0  0  0  0  0  0  0
   75.6150   12.4290   69.4015 C   0  0  1  0  0  0  0  0  0  0  0  0
   75.3801   12.7155   70.7835 O   0  0  0  0  0  0  0  0  0  0  0  0
   78.9832    9.6886   67.4085 P   0  0  1  0  0  0  0  0  0  0  0  0
   75.6019   13.6834   68.5622 C   0  0  1  0  0  0  0  0  0  0  0  0
   71.3389   17.4805   68.0017 N   0  0  0  0  0  0  0  0  0  0  0  0
   73.2136   20.1887   69.5970 O   0  0  0  0  0  0  0  0  0  0  0  0
   73.9843   15.4706   67.7416 C   0  0  0  0  0  0  0  0  0  0  0  0
   73.3348   11.9917   67.7573 N   0  0  0  0  0  0  0  0  0  0  0  0
   71.1501   20.9917   71.1273 O   0  0  0  0  0  0  0  0  0  0  0  0
   72.6821   15.4925   67.2445 C   0  0  0  0  0  0  0  0  0  0  0  0
   72.1997    9.9862   67.4756 N   0  0  0  0  0  0  0  0  0  0  0  0
   70.2906   13.9639   65.7595 O   0  0  0  0  0  0  0  0  0  0  0  0
   71.8973   16.7291   66.8618 C   0  0  0  0  0  0  0  0  0  0  0  0
   71.1202   11.9879   66.8921 N   0  0  0  0  0  0  0  0  0  0  0  0
   76.3654   13.3060   67.3737 O   0  0  0  0  0  0  0  0  0  0  0  0
   71.7690   18.8996   68.1554 C   0  0  2  0  0  0  0  0  0  0  0  0
   77.8227   10.1707   66.4046 O   0  0  0  0  0  0  0  0  0  0  0  0
   72.1219   19.2656   69.6036 C   0  0  2  0  0  0  0  0  0  0  0  0
   79.9330    8.7292   66.7406 O   0  0  0  0  0  0  0  0  0  0  0  0
   70.8750   19.9290   70.2060 C   0  0  2  0  0  0  0  0  0  0  0  0
   70.1667   20.4228   68.9700 C   0  0  0  0  0  0  0  0  0  0  0  0
   79.7536   10.8889   67.9161 O   0  0  0  0  0  0  0  0  0  0  0  0
   70.6464   19.8600   67.8680 C   0  0  0  0  0  0  0  0  0  0  0  0
   78.0312   12.7552   69.7517 O   0  0  0  0  0  0  0  0  0  0  0  0
   72.3142   14.0646   67.1744 C   0  0  0  0  0  0  0  0  0  0  0  0
   73.3858   13.3449   67.6698 C   0  0  0  0  0  0  0  0  0  0  0  0
   72.2092   11.3374   67.3885 C   0  0  0  0  0  0  0  0  0  0  0  0
   71.0196   13.4482   66.8612 C   0  0  0  0  0  0  0  0  0  0  0  0
   77.1743   12.1501   67.6184 C   0  0  2  0  0  0  0  0  0  0  0  0
   76.7000   10.9232   66.8371 C   0  0  0  0  0  0  0  0  0  0  0  0
   77.0315   11.9380   69.1070 C   0  0  2  0  0  0  0  0  0  0  0  0
   78.2591    8.9839   68.5270 O   0  0  0  0  0  0  0  0  0  0  0  0
   74.8311   11.6910   69.1760 H   0  0  0  0  0  0  0  0  0  0  0  0
   75.8975   12.0844   71.3440 H   0  0  0  0  0  0  0  0  0  0  0  0
   75.9264   14.4606   69.2697 H   0  0  0  0  0  0  0  0  0  0  0  0
   70.3136   17.4758   67.9042 H   0  0  0  0  0  0  0  0  0  0  0  0
   71.6989   17.0008   68.8391 H   0  0  0  0  0  0  0  0  0  0  0  0
   73.4688   20.4046   70.5288 H   0  0  0  0  0  0  0  0  0  0  0  0
   74.6042   16.3588   67.9335 H   0  0  0  0  0  0  0  0  0  0  0  0
   71.0631   20.6555   72.0544 H   0  0  0  0  0  0  0  0  0  0  0  0
   71.3584    9.4584   67.2025 H   0  0  0  0  0  0  0  0  0  0  0  0
   73.0338    9.4862   67.8149 H   0  0  0  0  0  0  0  0  0  0  0  0
   71.0639   16.4194   66.2140 H   0  0  0  0  0  0  0  0  0  0  0  0
   72.6059   17.4048   66.3606 H   0  0  0  0  0  0  0  0  0  0  0  0
   70.3364   11.4302   66.5240 H   0  0  0  0  0  0  0  0  0  0  0  0
   72.6225   18.9795   67.4662 H   0  0  0  0  0  0  0  0  0  0  0  0
   72.4151   18.3817   70.1890 H   0  0  0  0  0  0  0  0  0  0  0  0
   70.2917   19.2335   70.8274 H   0  0  0  0  0  0  0  0  0  0  0  0
   69.3508   21.1605   68.9803 H   0  0  0  0  0  0  0  0  0  0  0  0
   70.2663   20.0718   66.8578 H   0  0  0  0  0  0  0  0  0  0  0  0
   77.9370   12.6782   70.7342 H   0  0  0  0  0  0  0  0  0  0  0  0
   78.2147   12.2952   67.2922 H   0  0  0  0  0  0  0  0  0  0  0  0
   76.1185   11.2488   65.9621 H   0  0  0  0  0  0  0  0  0  0  0  0
   76.0696   10.2980   67.4865 H   0  0  0  0  0  0  0  0  0  0  0  0
   77.1721   10.9040   69.4549 H   0  0  0  0  0  0  0  0  0  0  0  0
  5  1  1  0
  1  8  1  0
  1 27  1  0
  2  3  1  0
  2  5  1  0
  2 32  1  0
  4 18  1  0
  4 20  1  6
  4 23  2  0
  4 33  1  0
  5 16  1  0
  6 14  1  0
 17  6  1  0
 19  7  1  0
  8 11  2  0
  9 27  1  0
  9 28  2  0
 21 10  1  0
 11 14  1  0
 11 26  1  0
 12 28  1  0
 13 29  2  0
 15 28  1  0
 15 29  1  0
 16 30  1  0
 17 19  1  0
 17 24  1  0
 18 31  1  0
 19 21  1  0
 21 22  1  0
 22 24  2  0
 32 25  1  0
 26 27  2  0
 26 29  1  0
 30 31  1  0
 30 32  1  0
  2 34  1  6
  3 35  1  0
  5 36  1  1
  6 37  1  0
  6 38  1  0
  7 39  1  0
  8 40  1  0
 10 41  1  0
 12 42  1  0
 12 43  1  0
 14 44  1  0
 14 45  1  0
 15 46  1  0
 17 47  1  6
 19 48  1  1
 21 49  1  1
 22 50  1  0
 24 51  1  0
 25 52  1  0
 30 53  1  1
 31 54  1  0
 31 55  1  0
 32 56  1  6
M  CHG  3   6   1  20  -1  33  -1
M  END
>  <filename_input>  (10) 
7ULC_56B_docked.sdf

>  <pdb_id>  (10) 
7ULC_56B

>  <pose_rank>  (10) 
9

>  <num_atoms_heavy>  (10) 
33

>  <num_torsions>  (10) 
7

>  <pose>  (10) 
[74.36736500840381, 14.198975237125238, 67.95092065138148, -0.16901207036038612, -1.0763567920254684, 0.9790673591424854, 9.27415487887882, -4.85067156443785, -2.0686501927701526, 4.195875205081835, 2.3951070475081386, -0.6943897757372729, -0.9670224723180866]

>  <energy>  (10) 
-603.981540466678

>  <inter_energy>  (10) 
-656.8453073942111

>  <intra_energy>  (10) 
60.34700037820513

>  <rmsd>  (10) 
4.13347

>  <sdf_rank>  (10) 
0

$$$$

     RDKit          3D

 56 59  0  0  0  0  0  0  0  0999 V2000
   73.4952   21.4911   72.2648 N   0  0  0  0  0  0  0  0  0  0  0  0
   74.6743   20.6322   74.4249 C   0  0  1  0  0  0  0  0  0  0  0  0
   73.6793   20.3513   75.4139 O   0  0  0  0  0  0  0  0  0  0  0  0
   80.0216   21.3160   73.9082 P   0  0  1  0  0  0  0  0  0  0  0  0
   74.2451   21.7482   73.5038 C   0  0  1  0  0  0  0  0  0  0  0  0
   72.6822   18.8171   68.8228 N   0  0  0  0  0  0  0  0  0  0  0  0
   69.0679   18.4040   69.2221 O   0  0  0  0  0  0  0  0  0  0  0  0
   73.8631   20.8011   71.1711 C   0  0  0  0  0  0  0  0  0  0  0  0
   71.6207   22.9280   72.8954 N   0  0  0  0  0  0  0  0  0  0  0  0
   69.2585   15.9262   70.2557 O   0  0  0  0  0  0  0  0  0  0  0  0
   72.8811   20.9204   70.1889 C   0  0  0  0  0  0  0  0  0  0  0  0
   69.7472   24.2303   73.3238 N   0  0  0  0  0  0  0  0  0  0  0  0
   69.8354   21.5506   69.4221 O   0  0  0  0  0  0  0  0  0  0  0  0
   72.9098   20.2745   68.8201 C   0  0  0  0  0  0  0  0  0  0  0  0
   69.9151   23.1380   71.2523 N   0  0  0  0  0  0  0  0  0  0  0  0
   75.5084   22.2511   72.9662 O   0  0  0  0  0  0  0  0  0  0  0  0
   71.3357   18.3394   68.3975 C   0  0  2  0  0  0  0  0  0  0  0  0
   78.6197   20.5285   73.9455 O   0  0  0  0  0  0  0  0  0  0  0  0
   70.4039   18.0421   69.5802 C   0  0  2  0  0  0  0  0  0  0  0  0
   81.1068   20.4894   73.2695 O   0  0  0  0  0  0  0  0  0  0  0  0
   70.4889   16.5308   69.8381 C   0  0  2  0  0  0  0  0  0  0  0  0
   70.9418   16.0185   68.4943 C   0  0  0  0  0  0  0  0  0  0  0  0
   79.8610   22.6132   73.1444 O   0  0  0  0  0  0  0  0  0  0  0  0
   71.4043   16.9952   67.7240 C   0  0  0  0  0  0  0  0  0  0  0  0
   75.6701   22.3208   75.9161 O   0  0  0  0  0  0  0  0  0  0  0  0
   71.8585   21.7751   70.8236 C   0  0  0  0  0  0  0  0  0  0  0  0
   72.3360   22.1177   72.0750 C   0  0  0  0  0  0  0  0  0  0  0  0
   70.4405   23.4374   72.4728 C   0  0  0  0  0  0  0  0  0  0  0  0
   70.6492   22.3714   70.2438 C   0  0  0  0  0  0  0  0  0  0  0  0
   76.6163   21.8598   73.7845 C   0  0  2  0  0  0  0  0  0  0  0  0
   77.5358   20.8539   73.0894 C   0  0  0  0  0  0  0  0  0  0  0  0
   75.9519   21.2465   74.9944 C   0  0  2  0  0  0  0  0  0  0  0  0
   80.3639   21.5656   75.3547 O   0  0  0  0  0  0  0  0  0  0  0  0
   74.8234   19.6497   73.9532 H   0  0  0  0  0  0  0  0  0  0  0  0
   74.0708   20.4618   76.3165 H   0  0  0  0  0  0  0  0  0  0  0  0
   73.5731   22.3483   74.1349 H   0  0  0  0  0  0  0  0  0  0  0  0
   73.3759   18.3935   68.1900 H   0  0  0  0  0  0  0  0  0  0  0  0
   72.7650   18.5362   69.8103 H   0  0  0  0  0  0  0  0  0  0  0  0
   68.5339   18.5487   70.0431 H   0  0  0  0  0  0  0  0  0  0  0  0
   74.7970   20.2293   71.0672 H   0  0  0  0  0  0  0  0  0  0  0  0
   69.2193   15.9069   71.2448 H   0  0  0  0  0  0  0  0  0  0  0  0
   68.8453   24.6338   73.0326 H   0  0  0  0  0  0  0  0  0  0  0  0
   70.1216   24.4300   74.2623 H   0  0  0  0  0  0  0  0  0  0  0  0
   73.8953   20.4668   68.3707 H   0  0  0  0  0  0  0  0  0  0  0  0
   72.0807   20.7180   68.2492 H   0  0  0  0  0  0  0  0  0  0  0  0
   68.9637   23.4639   71.0300 H   0  0  0  0  0  0  0  0  0  0  0  0
   70.9729   19.1527   67.7518 H   0  0  0  0  0  0  0  0  0  0  0  0
   70.6904   18.6081   70.4789 H   0  0  0  0  0  0  0  0  0  0  0  0
   71.1586   16.2878   70.6762 H   0  0  0  0  0  0  0  0  0  0  0  0
   70.8946   14.9627   68.1893 H   0  0  0  0  0  0  0  0  0  0  0  0
   71.7941   16.8397   66.7072 H   0  0  0  0  0  0  0  0  0  0  0  0
   75.7570   21.9898   76.8451 H   0  0  0  0  0  0  0  0  0  0  0  0
   77.2738   22.7081   74.0259 H   0  0  0  0  0  0  0  0  0  0  0  0
   77.9236   21.2946   72.1591 H   0  0  0  0  0  0  0  0  0  0  0  0
   76.9681   19.9410   72.8559 H   0  0  0  0  0  0  0  0  0  0  0  0
   76.5470   20.4940   75.5325 H   0  0  0  0  0  0  0  0  0  0  0  0
  5  1  1  0
  1  8  1  0
  1 27  1  0
  2  3  1  0
  2  5  1  0
  2 32  1  0
  4 18  1  0
  4 20  1  6
  4 23  2  0
  4 33  1  0
  5 16  1  0
  6 14  1  0
 17  6  1  0
 19  7  1  0
  8 11  2  0
  9 27  1  0
  9 28  2  0
 21 10  1  0
 11 14  1  0
 11 26  1  0
 12 28  1  0
 13 29  2  0
 15 28  1  0
 15 29  1  0
 16 30  1  0
 17 19  1  0
 17 24  1  0
 18 31  1  0
 19 21  1  0
 21 22  1  0
 22 24  2  0
 32 25  1  0
 26 27  2  0
 26 29  1  0
 30 31  1  0
 30 32  1  0
  2 34  1  6
  3 35  1  0
  5 36  1  1
  6 37  1  0
  6 38  1  0
  7 39  1  0
  8 40  1  0
 10 41  1  0
 12 42  1  0
 12 43  1  0
 14 44  1  0
 14 45  1  0
 15 46  1  0
 17 47  1  6
 19 48  1  1
 21 49  1  1
 22 50  1  0
 24 51  1  0
 25 52  1  0
 30 53  1  1
 31 54  1  0
 31 55  1  0
 32 56  1  1
M  CHG  3   6   1  20  -1  33  -1
M  END
>  <filename_input>  (11) 
7ULC_56B_docked.sdf

>  <pdb_id>  (11) 
7ULC_56B

>  <pose_rank>  (11) 
10

>  <num_atoms_heavy>  (11) 
33

>  <num_torsions>  (11) 
7

>  <pose>  (11) 
[73.49515105203236, 21.491114524984734, 72.26481493069895, -2.047117214827143, 0.20648228248236822, 0.48884891953401916, -0.6444083034294352, -4.220561479202946, 1.688328553868228, -0.6442305513991993, -1.2708134493444134, -0.9946887216518477, -0.30370405143102575]

>  <energy>  (11) 
-515.3867763294832

>  <inter_energy>  (11) 
-513.410613770889

>  <intra_energy>  (11) 
2.0724910428099417

>  <rmsd>  (11) 
8.88546

>  <sdf_rank>  (11) 
0

$$$$

     RDKit          3D

 56 59  0  0  0  0  0  0  0  0999 V2000
   71.4192   19.8353   70.0745 N   0  0  0  0  0  0  0  0  0  0  0  0
   71.6677   20.2914   72.6287 C   0  0  1  0  0  0  0  0  0  0  0  0
   70.6242   19.6031   73.3247 O   0  0  0  0  0  0  0  0  0  0  0  0
   76.1901   21.9449   73.9832 P   0  0  1  0  0  0  0  0  0  0  0  0
   71.2340   20.7076   71.2442 C   0  0  1  0  0  0  0  0  0  0  0  0
   72.7866   16.0798   67.9561 N   0  0  0  0  0  0  0  0  0  0  0  0
   70.5066   14.2191   65.7807 O   0  0  0  0  0  0  0  0  0  0  0  0
   72.4440   19.0197   69.7708 C   0  0  0  0  0  0  0  0  0  0  0  0
   69.4076   20.6368   68.9402 N   0  0  0  0  0  0  0  0  0  0  0  0
   71.3826   11.8043   66.5842 O   0  0  0  0  0  0  0  0  0  0  0  0
   72.2513   18.4769   68.5014 C   0  0  0  0  0  0  0  0  0  0  0  0
   67.5332   21.2576   67.7192 N   0  0  0  0  0  0  0  0  0  0  0  0
   70.2461   17.7230   66.1198 O   0  0  0  0  0  0  0  0  0  0  0  0
   73.1704   17.4960   67.8050 C   0  0  0  0  0  0  0  0  0  0  0  0
   69.0344   19.7158   66.7802 N   0  0  0  0  0  0  0  0  0  0  0  0
   72.1413   21.8070   70.9190 O   0  0  0  0  0  0  0  0  0  0  0  0
   72.4324   15.3360   66.7137 C   0  0  2  0  0  0  0  0  0  0  0  0
   74.7109   22.3399   73.4903 O   0  0  0  0  0  0  0  0  0  0  0  0
   71.3436   14.2779   66.9383 C   0  0  2  0  0  0  0  0  0  0  0  0
   76.3566   22.1538   75.4656 O   0  0  0  0  0  0  0  0  0  0  0  0
   72.0665   12.9375   67.1339 C   0  0  2  0  0  0  0  0  0  0  0  0
   73.3792   13.1962   66.4388 C   0  0  0  0  0  0  0  0  0  0  0  0
   76.4742   20.4971   73.6435 O   0  0  0  0  0  0  0  0  0  0  0  0
   73.5758   14.4904   66.2210 C   0  0  0  0  0  0  0  0  0  0  0  0
   70.8116   22.4377   73.4817 O   0  0  0  0  0  0  0  0  0  0  0  0
   70.9705   19.0659   68.0637 C   0  0  0  0  0  0  0  0  0  0  0  0
   70.5537   19.9214   69.0667 C   0  0  0  0  0  0  0  0  0  0  0  0
   68.6786   20.5405   67.8042 C   0  0  0  0  0  0  0  0  0  0  0  0
   70.3046   18.9880   66.7581 C   0  0  0  0  0  0  0  0  0  0  0  0
   72.7428   22.3532   72.0981 C   0  0  2  0  0  0  0  0  0  0  0  0
   74.2449   22.0733   72.1768 C   0  0  0  0  0  0  0  0  0  0  0  0
   71.9995   21.6620   73.2165 C   0  0  2  0  0  0  0  0  0  0  0  0
   77.1088   22.8778   73.2366 O   0  0  0  0  0  0  0  0  0  0  0  0
   72.4988   19.5724   72.6766 H   0  0  0  0  0  0  0  0  0  0  0  0
   70.7626   19.6943   74.3008 H   0  0  0  0  0  0  0  0  0  0  0  0
   70.1460   20.8305   71.3499 H   0  0  0  0  0  0  0  0  0  0  0  0
   73.5779   15.5892   68.3966 H   0  0  0  0  0  0  0  0  0  0  0  0
   71.9203   16.0964   68.5130 H   0  0  0  0  0  0  0  0  0  0  0  0
   69.5595   14.1526   66.0613 H   0  0  0  0  0  0  0  0  0  0  0  0
   73.3039   18.8122   70.4247 H   0  0  0  0  0  0  0  0  0  0  0  0
   71.0401   11.2369   67.3196 H   0  0  0  0  0  0  0  0  0  0  0  0
   66.9555   21.2064   66.8679 H   0  0  0  0  0  0  0  0  0  0  0  0
   67.2396   21.8544   68.5056 H   0  0  0  0  0  0  0  0  0  0  0  0
   74.1825   17.6229   68.2167 H   0  0  0  0  0  0  0  0  0  0  0  0
   73.1097   17.7220   66.7301 H   0  0  0  0  0  0  0  0  0  0  0  0
   68.3840   19.5996   65.9901 H   0  0  0  0  0  0  0  0  0  0  0  0
   72.1269   16.1344   66.0214 H   0  0  0  0  0  0  0  0  0  0  0  0
   70.7171   14.5145   67.8109 H   0  0  0  0  0  0  0  0  0  0  0  0
   72.1510   12.6603   68.1951 H   0  0  0  0  0  0  0  0  0  0  0  0
   74.0883   12.4074   66.1474 H   0  0  0  0  0  0  0  0  0  0  0  0
   74.4738   14.8993   65.7348 H   0  0  0  0  0  0  0  0  0  0  0  0
   70.6836   22.5212   74.4599 H   0  0  0  0  0  0  0  0  0  0  0  0
   72.6682   23.4502   72.1318 H   0  0  0  0  0  0  0  0  0  0  0  0
   74.7756   22.7193   71.4619 H   0  0  0  0  0  0  0  0  0  0  0  0
   74.4330   21.0180   71.9298 H   0  0  0  0  0  0  0  0  0  0  0  0
   72.5507   21.5636   74.1633 H   0  0  0  0  0  0  0  0  0  0  0  0
  5  1  1  0
  1  8  1  0
  1 27  1  0
  2  3  1  0
  2  5  1  0
  2 32  1  0
  4 18  1  0
  4 20  1  1
  4 23  2  0
  4 33  1  0
  5 16  1  0
  6 14  1  0
 17  6  1  0
 19  7  1  0
  8 11  2  0
  9 27  1  0
  9 28  2  0
 21 10  1  0
 11 14  1  0
 11 26  1  0
 12 28  1  0
 13 29  2  0
 15 28  1  0
 15 29  1  0
 16 30  1  0
 17 19  1  0
 17 24  1  0
 18 31  1  0
 19 21  1  0
 21 22  1  0
 22 24  2  0
 32 25  1  0
 26 27  2  0
 26 29  1  0
 30 31  1  0
 30 32  1  0
  2 34  1  6
  3 35  1  0
  5 36  1  1
  6 37  1  0
  6 38  1  0
  7 39  1  0
  8 40  1  0
 10 41  1  0
 12 42  1  0
 12 43  1  0
 14 44  1  0
 14 45  1  0
 15 46  1  0
 17 47  1  6
 19 48  1  1
 21 49  1  1
 22 50  1  0
 24 51  1  0
 25 52  1  0
 30 53  1  1
 31 54  1  0
 31 55  1  0
 32 56  1  1
M  CHG  3   6   1  20  -1  33  -1
M  END
>  <filename_input>  (12) 
7ULC_56B_docked.sdf

>  <pdb_id>  (12) 
7ULC_56B

>  <pose_rank>  (12) 
11

>  <num_atoms_heavy>  (12) 
33

>  <num_torsions>  (12) 
7

>  <pose>  (12) 
[71.41924873710909, 19.835250946814, 70.07448780779788, 3.671997099546584, 0.509676552578345, 0.09214990216703857, -0.2092899306629511, 2.3282507804291495, -0.006736613580582323, -1.7824978125682738, 5.416457882556349, -0.7503150004888356, -1.157329403208409]

>  <energy>  (12) 
-590.7552035185244

>  <inter_energy>  (12) 
-593.3040326489383

>  <intra_energy>  (12) 
2.865138530731943

>  <rmsd>  (12) 
8.47745

>  <sdf_rank>  (12) 
0

$$$$

     RDKit          3D

 56 59  0  0  0  0  0  0  0  0999 V2000
   73.6899   13.2458   67.2372 N   0  0  0  0  0  0  0  0  0  0  0  0
   72.1922   11.1267   67.4830 C   0  0  1  0  0  0  0  0  0  0  0  0
   72.9958   10.0466   67.9674 O   0  0  0  0  0  0  0  0  0  0  0  0
   69.1957   14.4113   68.4857 P   0  0  1  0  0  0  0  0  0  0  0  0
   72.9988   12.0897   66.6461 C   0  0  1  0  0  0  0  0  0  0  0  0
   72.9915   17.4352   67.7549 N   0  0  0  0  0  0  0  0  0  0  0  0
   70.1254   18.0704   69.9402 O   0  0  0  0  0  0  0  0  0  0  0  0
   73.2986   14.5301   67.3087 C   0  0  0  0  0  0  0  0  0  0  0  0
   75.7318   11.9946   67.7280 N   0  0  0  0  0  0  0  0  0  0  0  0
   69.1352   20.0496   68.4084 O   0  0  0  0  0  0  0  0  0  0  0  0
   74.3253   15.3040   67.8473 C   0  0  0  0  0  0  0  0  0  0  0  0
   77.7412   10.9745   68.2863 N   0  0  0  0  0  0  0  0  0  0  0  0
   77.0086   15.4664   69.5894 O   0  0  0  0  0  0  0  0  0  0  0  0
   74.2716   16.7939   68.1099 C   0  0  0  0  0  0  0  0  0  0  0  0
   77.4984   13.2783   68.6684 N   0  0  0  0  0  0  0  0  0  0  0  0
   71.9887   12.7575   65.8266 O   0  0  0  0  0  0  0  0  0  0  0  0
   72.2720   18.1614   68.8401 C   0  0  2  0  0  0  0  0  0  0  0  0
   70.1300   13.4710   67.5746 O   0  0  0  0  0  0  0  0  0  0  0  0
   70.7483   18.1571   68.6562 C   0  0  2  0  0  0  0  0  0  0  0  0
   67.8302   14.5953   67.8772 O   0  0  0  0  0  0  0  0  0  0  0  0
   70.3828   19.4875   67.9824 C   0  0  2  0  0  0  0  0  0  0  0  0
   71.5539   20.3551   68.3683 C   0  0  0  0  0  0  0  0  0  0  0  0
   69.0544   13.8091   69.8675 O   0  0  0  0  0  0  0  0  0  0  0  0
   72.5724   19.6360   68.8229 C   0  0  0  0  0  0  0  0  0  0  0  0
   71.7091    9.8413   65.4382 O   0  0  0  0  0  0  0  0  0  0  0  0
   75.4012   14.3251   68.0992 C   0  0  0  0  0  0  0  0  0  0  0  0
   74.9458   13.0982   67.6532 C   0  0  0  0  0  0  0  0  0  0  0  0
   76.9909   12.0993   68.2127 C   0  0  0  0  0  0  0  0  0  0  0  0
   76.7860   14.5500   68.5303 C   0  0  0  0  0  0  0  0  0  0  0  0
   70.7742   12.0007   65.7760 C   0  0  2  0  0  0  0  0  0  0  0  0
   69.6195   12.6906   66.5050 C   0  0  0  0  0  0  0  0  0  0  0  0
   71.1481   10.7026   66.4514 C   0  0  2  0  0  0  0  0  0  0  0  0
   69.9096   15.7379   68.5318 O   0  0  0  0  0  0  0  0  0  0  0  0
   71.7634   11.5369   68.4092 H   0  0  0  0  0  0  0  0  0  0  0  0
   72.9925   10.0510   68.9574 H   0  0  0  0  0  0  0  0  0  0  0  0
   73.7936   11.4535   66.2297 H   0  0  0  0  0  0  0  0  0  0  0  0
   73.1817   18.1118   67.0020 H   0  0  0  0  0  0  0  0  0  0  0  0
   72.3673   16.6583   67.4948 H   0  0  0  0  0  0  0  0  0  0  0  0
   70.8118   18.1659   70.6471 H   0  0  0  0  0  0  0  0  0  0  0  0
   72.3173   14.9121   66.9906 H   0  0  0  0  0  0  0  0  0  0  0  0
   69.1009   20.0651   69.3977 H   0  0  0  0  0  0  0  0  0  0  0  0
   78.7035   11.0203   68.6505 H   0  0  0  0  0  0  0  0  0  0  0  0
   77.3496   10.0731   67.9779 H   0  0  0  0  0  0  0  0  0  0  0  0
   75.0696   17.2742   67.5247 H   0  0  0  0  0  0  0  0  0  0  0  0
   74.3942   16.9233   69.1954 H   0  0  0  0  0  0  0  0  0  0  0  0
   78.4200   13.2751   69.1284 H   0  0  0  0  0  0  0  0  0  0  0  0
   72.6017   17.6415   69.7517 H   0  0  0  0  0  0  0  0  0  0  0  0
   70.4123   17.3054   68.0465 H   0  0  0  0  0  0  0  0  0  0  0  0
   70.2252   19.3769   66.8993 H   0  0  0  0  0  0  0  0  0  0  0  0
   71.5630   21.4518   68.2833 H   0  0  0  0  0  0  0  0  0  0  0  0
   73.5290   20.0692   69.1505 H   0  0  0  0  0  0  0  0  0  0  0  0
   72.1949    9.0953   65.8713 H   0  0  0  0  0  0  0  0  0  0  0  0
   70.4081   11.8720   64.7467 H   0  0  0  0  0  0  0  0  0  0  0  0
   68.9313   11.9302   66.9027 H   0  0  0  0  0  0  0  0  0  0  0  0
   69.0812   13.3428   65.8016 H   0  0  0  0  0  0  0  0  0  0  0  0
   70.3190   10.1592   66.9281 H   0  0  0  0  0  0  0  0  0  0  0  0
  5  1  1  0
  1  8  1  0
  1 27  1  0
  2  3  1  0
  2  5  1  0
  2 32  1  0
  4 18  1  0
  4 20  1  6
  4 23  2  0
  4 33  1  0
  5 16  1  0
  6 14  1  0
 17  6  1  0
 19  7  1  0
  8 11  2  0
  9 27  1  0
  9 28  2  0
 21 10  1  0
 11 14  1  0
 11 26  1  0
 12 28  1  0
 13 29  2  0
 15 28  1  0
 15 29  1  0
 16 30  1  0
 17 19  1  0
 17 24  1  0
 18 31  1  0
 19 21  1  0
 21 22  1  0
 22 24  2  0
 32 25  1  0
 26 27  2  0
 26 29  1  0
 30 31  1  0
 30 32  1  0
  2 34  1  1
  3 35  1  0
  5 36  1  6
  6 37  1  0
  6 38  1  0
  7 39  1  0
  8 40  1  0
 10 41  1  0
 12 42  1  0
 12 43  1  0
 14 44  1  0
 14 45  1  0
 15 46  1  0
 17 47  1  1
 19 48  1  6
 21 49  1  6
 22 50  1  0
 24 51  1  0
 25 52  1  0
 30 53  1  6
 31 54  1  0
 31 55  1  0
 32 56  1  1
M  CHG  3   6   1  20  -1  33  -1
M  END
>  <filename_input>  (13) 
7ULC_56B_docked.sdf

>  <pdb_id>  (13) 
7ULC_56B

>  <pose_rank>  (13) 
12

>  <num_atoms_heavy>  (13) 
33

>  <num_torsions>  (13) 
7

>  <pose>  (13) 
[73.68991806737911, 13.245793558377049, 67.23720047088692, -0.8998134109367801, -3.9771850091462757, -0.9222357072040482, -1.2504113291912888, -1.588517742447362, 0.08066176970989652, 0.987011624915644, 3.7559671195102644, 5.61892735892486, 5.061462535183528]

>  <energy>  (13) 
-515.9824499678782

>  <inter_energy>  (13) 
-564.0367979058949

>  <intra_energy>  (13) 
58.460321201962245

>  <rmsd>  (13) 
5.53367

>  <sdf_rank>  (13) 
0

$$$$

     RDKit          3D

 56 59  0  0  0  0  0  0  0  0999 V2000
   70.5655   18.1894   67.8840 N   0  0  0  0  0  0  0  0  0  0  0  0
   69.1140   16.1242   68.5333 C   0  0  1  0  0  0  0  0  0  0  0  0
   68.1888   16.5120   69.5534 O   0  0  0  0  0  0  0  0  0  0  0  0
   72.4239   12.3786   66.2141 P   0  0  1  0  0  0  0  0  0  0  0  0
   70.3935   16.9213   68.6090 C   0  0  1  0  0  0  0  0  0  0  0  0
   71.4862   19.8074   63.8966 N   0  0  0  0  0  0  0  0  0  0  0  0
   71.9122   19.7171   60.2630 O   0  0  0  0  0  0  0  0  0  0  0  0
   70.3778   18.4605   66.5806 C   0  0  0  0  0  0  0  0  0  0  0  0
   71.4905   19.3690   69.8150 N   0  0  0  0  0  0  0  0  0  0  0  0
   74.1380   21.2303   60.2805 O   0  0  0  0  0  0  0  0  0  0  0  0
   70.7791   19.7680   66.3108 C   0  0  0  0  0  0  0  0  0  0  0  0
   72.3687   20.6583   71.5344 N   0  0  0  0  0  0  0  0  0  0  0  0
   71.3949   22.7218   67.3865 O   0  0  0  0  0  0  0  0  0  0  0  0
   70.7082   20.4602   64.9664 C   0  0  0  0  0  0  0  0  0  0  0  0
   72.1661   21.6101   69.3977 N   0  0  0  0  0  0  0  0  0  0  0  0
   71.3650   16.0723   67.9210 O   0  0  0  0  0  0  0  0  0  0  0  0
   71.3415   20.3584   62.5190 C   0  0  2  0  0  0  0  0  0  0  0  0
   70.9070   12.9123   66.2471 O   0  0  0  0  0  0  0  0  0  0  0  0
   72.4591   19.9029   61.5708 C   0  0  2  0  0  0  0  0  0  0  0  0
   72.6954   11.5504   64.9855 O   0  0  0  0  0  0  0  0  0  0  0  0
   73.5038   21.0281   61.5497 C   0  0  2  0  0  0  0  0  0  0  0  0
   72.6761   22.2186   61.9630 C   0  0  0  0  0  0  0  0  0  0  0  0
   73.3810   13.5509   66.2529 O   0  0  0  0  0  0  0  0  0  0  0  0
   71.5151   21.8531   62.4916 C   0  0  0  0  0  0  0  0  0  0  0  0
   70.1120   14.4808   70.0728 O   0  0  0  0  0  0  0  0  0  0  0  0
   71.2382   20.2668   67.6221 C   0  0  0  0  0  0  0  0  0  0  0  0
   71.1171   19.2214   68.5188 C   0  0  0  0  0  0  0  0  0  0  0  0
   72.0211   20.5423   70.2308 C   0  0  0  0  0  0  0  0  0  0  0  0
   71.9062   21.5294   67.9590 C   0  0  0  0  0  0  0  0  0  0  0  0
   70.9123   14.7159   67.8467 C   0  0  2  0  0  0  0  0  0  0  0  0
   70.5812   14.2829   66.4172 C   0  0  0  0  0  0  0  0  0  0  0  0
   69.6777   14.7161   68.7167 C   0  0  2  0  0  0  0  0  0  0  0  0
   72.5574   11.5158   67.4428 O   0  0  0  0  0  0  0  0  0  0  0  0
   68.5215   16.2515   67.6153 H   0  0  0  0  0  0  0  0  0  0  0  0
   68.5891   16.3442   70.4432 H   0  0  0  0  0  0  0  0  0  0  0  0
   70.4632   17.1807   69.6757 H   0  0  0  0  0  0  0  0  0  0  0  0
   72.4816   19.8716   64.1535 H   0  0  0  0  0  0  0  0  0  0  0  0
   71.1117   18.8495   63.8413 H   0  0  0  0  0  0  0  0  0  0  0  0
   70.9776   19.3994   60.3382 H   0  0  0  0  0  0  0  0  0  0  0  0
   69.9695   17.7574   65.8396 H   0  0  0  0  0  0  0  0  0  0  0  0
   75.0716   21.5279   60.4219 H   0  0  0  0  0  0  0  0  0  0  0  0
   72.7752   21.5383   71.8826 H   0  0  0  0  0  0  0  0  0  0  0  0
   72.2266   19.8665   72.1777 H   0  0  0  0  0  0  0  0  0  0  0  0
   71.0865   21.4859   65.0885 H   0  0  0  0  0  0  0  0  0  0  0  0
   69.6547   20.4229   64.6522 H   0  0  0  0  0  0  0  0  0  0  0  0
   72.4707   22.5100   69.7955 H   0  0  0  0  0  0  0  0  0  0  0  0
   70.3434   20.0115   62.2133 H   0  0  0  0  0  0  0  0  0  0  0  0
   72.9124   18.9556   61.8980 H   0  0  0  0  0  0  0  0  0  0  0  0
   74.3626   20.8120   62.2021 H   0  0  0  0  0  0  0  0  0  0  0  0
   72.9960   23.2640   61.8411 H   0  0  0  0  0  0  0  0  0  0  0  0
   70.7637   22.5630   62.8677 H   0  0  0  0  0  0  0  0  0  0  0  0
   69.4402   14.8447   70.7024 H   0  0  0  0  0  0  0  0  0  0  0  0
   71.6827   14.0029   68.1756 H   0  0  0  0  0  0  0  0  0  0  0  0
   71.1636   14.8884   65.7072 H   0  0  0  0  0  0  0  0  0  0  0  0
   69.5069   14.4287   66.2311 H   0  0  0  0  0  0  0  0  0  0  0  0
   68.9240   13.9532   68.4718 H   0  0  0  0  0  0  0  0  0  0  0  0
  5  1  1  0
  1  8  1  0
  1 27  1  0
  2  3  1  0
  2  5  1  0
  2 32  1  0
  4 18  1  0
  4 20  1  6
  4 23  2  0
  4 33  1  0
  5 16  1  0
  6 14  1  0
 17  6  1  0
 19  7  1  0
  8 11  2  0
  9 27  1  0
  9 28  2  0
 21 10  1  0
 11 14  1  0
 11 26  1  0
 12 28  1  0
 13 29  2  0
 15 28  1  0
 15 29  1  0
 16 30  1  0
 17 19  1  0
 17 24  1  0
 18 31  1  0
 19 21  1  0
 21 22  1  0
 22 24  2  0
 32 25  1  0
 26 27  2  0
 26 29  1  0
 30 31  1  0
 30 32  1  0
  2 34  1  6
  3 35  1  0
  5 36  1  1
  6 37  1  0
  6 38  1  0
  7 39  1  0
  8 40  1  0
 10 41  1  0
 12 42  1  0
 12 43  1  0
 14 44  1  0
 14 45  1  0
 15 46  1  0
 17 47  1  6
 19 48  1  1
 21 49  1  1
 22 50  1  0
 24 51  1  0
 25 52  1  0
 30 53  1  1
 31 54  1  0
 31 55  1  0
 32 56  1  6
M  CHG  3   6   1  20  -1  33  -1
M  END
>  <filename_input>  (14) 
7ULC_56B_docked.sdf

>  <pdb_id>  (14) 
7ULC_56B

>  <pose_rank>  (14) 
13

>  <num_atoms_heavy>  (14) 
33

>  <num_torsions>  (14) 
7

>  <pose>  (14) 
[70.56552593597713, 18.18941903254578, 67.88395762726296, -0.7490853368337494, 1.2788667517057928, -0.3104322489861806, -0.464460509898306, -4.799910139941603, 14.644512609840001, 5.279512139415689, 2.700884741450199, 0.23258163172021032, -2.0305997645172114]

>  <energy>  (14) 
-600.6366786133576

>  <inter_energy>  (14) 
-603.5354771965744

>  <intra_energy>  (14) 
5.781440147101622

>  <rmsd>  (14) 
6.25106

>  <sdf_rank>  (14) 
0

$$$$

     RDKit          3D

 56 59  0  0  0  0  0  0  0  0999 V2000
   71.4957   14.7789   67.1899 N   0  0  0  0  0  0  0  0  0  0  0  0
   72.9227   13.0129   65.9096 C   0  0  1  0  0  0  0  0  0  0  0  0
   72.7238   13.1894   64.5037 O   0  0  0  0  0  0  0  0  0  0  0  0
   76.6889   12.0584   68.1922 P   0  0  1  0  0  0  0  0  0  0  0  0
   71.6984   13.4070   66.6995 C   0  0  1  0  0  0  0  0  0  0  0  0
   71.3116   19.3650   68.2574 N   0  0  0  0  0  0  0  0  0  0  0  0
   73.2733   21.2010   70.7422 O   0  0  0  0  0  0  0  0  0  0  0  0
   72.2040   15.8920   66.9309 C   0  0  0  0  0  0  0  0  0  0  0  0
   69.6856   14.1542   68.7093 N   0  0  0  0  0  0  0  0  0  0  0  0
   71.1267   21.9573   72.1790 O   0  0  0  0  0  0  0  0  0  0  0  0
   71.7250   16.9445   67.7095 C   0  0  0  0  0  0  0  0  0  0  0  0
   67.9447   13.7596   70.1937 N   0  0  0  0  0  0  0  0  0  0  0  0
   69.3377   18.2182   69.4241 O   0  0  0  0  0  0  0  0  0  0  0  0
   72.2419   18.3672   67.6959 C   0  0  0  0  0  0  0  0  0  0  0  0
   68.8282   15.9294   70.0384 N   0  0  0  0  0  0  0  0  0  0  0  0
   71.8571   12.6811   67.9587 O   0  0  0  0  0  0  0  0  0  0  0  0
   71.9109   20.5980   68.8430 C   0  0  2  0  0  0  0  0  0  0  0  0
   75.1600   11.9599   67.7027 O   0  0  0  0  0  0  0  0  0  0  0  0
   72.0735   20.5199   70.3671 C   0  0  2  0  0  0  0  0  0  0  0  0
   76.9635   11.1320   69.3478 O   0  0  0  0  0  0  0  0  0  0  0  0
   70.8543   21.2269   70.9764 C   0  0  2  0  0  0  0  0  0  0  0  0
   70.4342   22.1343   69.8479 C   0  0  0  0  0  0  0  0  0  0  0  0
   77.6175   11.7215   67.0449 O   0  0  0  0  0  0  0  0  0  0  0  0
   71.0000   21.7873   68.6987 C   0  0  0  0  0  0  0  0  0  0  0  0
   72.0131   10.7298   65.7447 O   0  0  0  0  0  0  0  0  0  0  0  0
   70.6263   16.3317   68.4819 C   0  0  0  0  0  0  0  0  0  0  0  0
   70.5854   14.9934   68.1372 C   0  0  0  0  0  0  0  0  0  0  0  0
   68.8388   14.6223   69.6553 C   0  0  0  0  0  0  0  0  0  0  0  0
   69.8262   16.8955   69.5755 C   0  0  0  0  0  0  0  0  0  0  0  0
   72.7800   11.5948   67.8220 C   0  0  2  0  0  0  0  0  0  0  0  0
   74.0745   11.8196   68.6058 C   0  0  0  0  0  0  0  0  0  0  0  0
   73.0430   11.5506   66.3353 C   0  0  2  0  0  0  0  0  0  0  0  0
   76.8606   13.4872   68.6402 O   0  0  0  0  0  0  0  0  0  0  0  0
   73.8284   13.6082   66.0972 H   0  0  0  0  0  0  0  0  0  0  0  0
   71.9919   13.8387   64.3529 H   0  0  0  0  0  0  0  0  0  0  0  0
   70.8755   13.2228   65.9931 H   0  0  0  0  0  0  0  0  0  0  0  0
   70.6768   19.6576   67.5009 H   0  0  0  0  0  0  0  0  0  0  0  0
   70.8556   18.8886   69.0486 H   0  0  0  0  0  0  0  0  0  0  0  0
   73.3373   21.2373   71.7295 H   0  0  0  0  0  0  0  0  0  0  0  0
   73.0351   15.9616   66.2138 H   0  0  0  0  0  0  0  0  0  0  0  0
   70.9157   21.3916   72.9636 H   0  0  0  0  0  0  0  0  0  0  0  0
   67.2863   14.0845   70.9161 H   0  0  0  0  0  0  0  0  0  0  0  0
   67.9230   12.7785   69.8809 H   0  0  0  0  0  0  0  0  0  0  0  0
   72.4541   18.6451   66.6530 H   0  0  0  0  0  0  0  0  0  0  0  0
   73.1358   18.3798   68.3369 H   0  0  0  0  0  0  0  0  0  0  0  0
   68.0886   16.2509   70.6793 H   0  0  0  0  0  0  0  0  0  0  0  0
   72.8674   20.6911   68.3077 H   0  0  0  0  0  0  0  0  0  0  0  0
   72.1376   19.4796   70.7188 H   0  0  0  0  0  0  0  0  0  0  0  0
   70.0840   20.5162   71.3106 H   0  0  0  0  0  0  0  0  0  0  0  0
   69.7423   22.9816   69.9632 H   0  0  0  0  0  0  0  0  0  0  0  0
   70.8231   22.3103   67.7474 H   0  0  0  0  0  0  0  0  0  0  0  0
   71.4789   10.3041   66.4613 H   0  0  0  0  0  0  0  0  0  0  0  0
   72.3768   10.6545   68.2260 H   0  0  0  0  0  0  0  0  0  0  0  0
   74.2567   10.9588   69.2661 H   0  0  0  0  0  0  0  0  0  0  0  0
   73.9815   12.7341   69.2099 H   0  0  0  0  0  0  0  0  0  0  0  0
   74.0149   11.1304   66.0372 H   0  0  0  0  0  0  0  0  0  0  0  0
  5  1  1  0
  1  8  1  0
  1 27  1  0
  2  3  1  0
  2  5  1  0
  2 32  1  0
  4 18  1  0
  4 20  1  1
  4 23  2  0
  4 33  1  0
  5 16  1  0
  6 14  1  0
 17  6  1  0
 19  7  1  0
  8 11  2  0
  9 27  1  0
  9 28  2  0
 21 10  1  0
 11 14  1  0
 11 26  1  0
 12 28  1  0
 13 29  2  0
 15 28  1  0
 15 29  1  0
 16 30  1  0
 17 19  1  0
 17 24  1  0
 18 31  1  0
 19 21  1  0
 21 22  1  0
 22 24  2  0
 32 25  1  0
 26 27  2  0
 26 29  1  0
 30 31  1  0
 30 32  1  0
  2 34  1  1
  3 35  1  0
  5 36  1  6
  6 37  1  0
  6 38  1  0
  7 39  1  0
  8 40  1  0
 10 41  1  0
 12 42  1  0
 12 43  1  0
 14 44  1  0
 14 45  1  0
 15 46  1  0
 17 47  1  6
 19 48  1  1
 21 49  1  1
 22 50  1  0
 24 51  1  0
 25 52  1  0
 30 53  1  1
 31 54  1  0
 31 55  1  0
 32 56  1  1
M  CHG  3   6   1  20  -1  33  -1
M  END
>  <filename_input>  (15) 
7ULC_56B_docked.sdf

>  <pdb_id>  (15) 
7ULC_56B

>  <pose_rank>  (15) 
14

>  <num_atoms_heavy>  (15) 
33

>  <num_torsions>  (15) 
7

>  <pose>  (15) 
[71.4957458898686, 14.778885260818734, 67.18985924547684, -4.534256380003442, 7.924698336921102, 8.713976871348189, 6.878545638939484, 3.236530942572047, 0.2693165975964963, 1.892395643849014, 0.272672653320271, -0.12854517962290019, -0.29175598390836843]

>  <energy>  (15) 
-981.5749141749149

>  <inter_energy>  (15) 
-1054.0307543853

>  <intra_energy>  (15) 
61.57429039831452

>  <rmsd>  (15) 
0.797253

>  <sdf_rank>  (15) 
0

$$$$

     RDKit          3D

 56 59  0  0  0  0  0  0  0  0999 V2000
   70.7985   19.2037   71.1534 N   0  0  0  0  0  0  0  0  0  0  0  0
   70.9442   17.3693   69.3074 C   0  0  1  0  0  0  0  0  0  0  0  0
   70.4700   17.9168   68.0735 O   0  0  0  0  0  0  0  0  0  0  0  0
   74.1749   14.8997   69.6408 P   0  0  1  0  0  0  0  0  0  0  0  0
   70.2625   18.0019   70.4962 C   0  0  1  0  0  0  0  0  0  0  0  0
   73.4845   20.6083   74.2905 N   0  0  0  0  0  0  0  0  0  0  0  0
   77.1209   20.9238   74.0254 O   0  0  0  0  0  0  0  0  0  0  0  0
   71.3349   19.3401   72.3787 C   0  0  0  0  0  0  0  0  0  0  0  0
   70.1149   20.7064   69.3505 N   0  0  0  0  0  0  0  0  0  0  0  0
   77.2379   23.1775   75.4922 O   0  0  0  0  0  0  0  0  0  0  0  0
   71.5969   20.6862   72.6289 C   0  0  0  0  0  0  0  0  0  0  0  0
   69.5610   22.2833   67.7392 N   0  0  0  0  0  0  0  0  0  0  0  0
   72.1167   23.6341   71.4882 O   0  0  0  0  0  0  0  0  0  0  0  0
   72.2197   21.2516   73.8874 C   0  0  0  0  0  0  0  0  0  0  0  0
   70.5661   23.0093   69.7329 N   0  0  0  0  0  0  0  0  0  0  0  0
   70.4304   17.0069   71.5544 O   0  0  0  0  0  0  0  0  0  0  0  0
   74.7403   21.1472   73.6946 C   0  0  2  0  0  0  0  0  0  0  0  0
   72.7062   14.5835   70.2151 O   0  0  0  0  0  0  0  0  0  0  0  0
   75.8968   21.2229   74.7008 C   0  0  2  0  0  0  0  0  0  0  0  0
   74.9749   13.6400   69.4360 O   0  0  0  0  0  0  0  0  0  0  0  0
   75.9259   22.6640   75.2299 C   0  0  2  0  0  0  0  0  0  0  0  0
   75.2401   23.4110   74.1141 C   0  0  0  0  0  0  0  0  0  0  0  0
   74.0627   15.6442   68.3274 O   0  0  0  0  0  0  0  0  0  0  0  0
   74.5963   22.5906   73.2934 C   0  0  0  0  0  0  0  0  0  0  0  0
   69.1474   15.6858   69.2431 O   0  0  0  0  0  0  0  0  0  0  0  0
   71.1515   21.3610   71.3939 C   0  0  0  0  0  0  0  0  0  0  0  0
   70.6331   20.3852   70.5628 C   0  0  0  0  0  0  0  0  0  0  0  0
   70.0715   22.0017   68.9613 C   0  0  0  0  0  0  0  0  0  0  0  0
   71.0409   22.7950   71.1013 C   0  0  0  0  0  0  0  0  0  0  0  0
   70.7335   15.7161   71.0136 C   0  0  2  0  0  0  0  0  0  0  0  0
   72.1591   15.2631   71.3343 C   0  0  0  0  0  0  0  0  0  0  0  0
   70.5442   15.9114   69.5279 C   0  0  2  0  0  0  0  0  0  0  0  0
   74.8311   15.7464   70.7012 O   0  0  0  0  0  0  0  0  0  0  0  0
   72.0303   17.5279   69.2351 H   0  0  0  0  0  0  0  0  0  0  0  0
   69.8336   18.6515   68.2613 H   0  0  0  0  0  0  0  0  0  0  0  0
   69.2831   18.2991   70.0934 H   0  0  0  0  0  0  0  0  0  0  0  0
   73.5644   20.6950   75.3137 H   0  0  0  0  0  0  0  0  0  0  0  0
   73.4160   19.6425   73.9393 H   0  0  0  0  0  0  0  0  0  0  0  0
   77.8318   20.7501   74.6922 H   0  0  0  0  0  0  0  0  0  0  0  0
   71.5363   18.5148   73.0775 H   0  0  0  0  0  0  0  0  0  0  0  0
   77.3809   23.2335   76.4702 H   0  0  0  0  0  0  0  0  0  0  0  0
   69.5139   23.2592   67.4131 H   0  0  0  0  0  0  0  0  0  0  0  0
   69.2198   21.5216   67.1356 H   0  0  0  0  0  0  0  0  0  0  0  0
   71.4983   21.1345   74.7095 H   0  0  0  0  0  0  0  0  0  0  0  0
   72.4605   22.3028   73.6704 H   0  0  0  0  0  0  0  0  0  0  0  0
   70.6077   23.9597   69.3382 H   0  0  0  0  0  0  0  0  0  0  0  0
   74.9360   20.4607   72.8577 H   0  0  0  0  0  0  0  0  0  0  0  0
   75.7687   20.5067   75.5258 H   0  0  0  0  0  0  0  0  0  0  0  0
   75.4436   22.7567   76.2142 H   0  0  0  0  0  0  0  0  0  0  0  0
   75.2699   24.5041   73.9946 H   0  0  0  0  0  0  0  0  0  0  0  0
   74.0218   22.9277   72.4180 H   0  0  0  0  0  0  0  0  0  0  0  0
   68.6462   15.6049   70.0930 H   0  0  0  0  0  0  0  0  0  0  0  0
   70.0951   14.9277   71.4389 H   0  0  0  0  0  0  0  0  0  0  0  0
   72.1418   14.5860   72.2010 H   0  0  0  0  0  0  0  0  0  0  0  0
   72.7782   16.1423   71.5661 H   0  0  0  0  0  0  0  0  0  0  0  0
   71.1281   15.2390   68.8823 H   0  0  0  0  0  0  0  0  0  0  0  0
  5  1  1  0
  1  8  1  0
  1 27  1  0
  2  3  1  0
  2  5  1  0
  2 32  1  0
  4 18  1  0
  4 20  1  6
  4 23  2  0
  4 33  1  0
  5 16  1  0
  6 14  1  0
 17  6  1  0
 19  7  1  0
  8 11  2  0
  9 27  1  0
  9 28  2  0
 21 10  1  0
 11 14  1  0
 11 26  1  0
 12 28  1  0
 13 29  2  0
 15 28  1  0
 15 29  1  0
 16 30  1  0
 17 19  1  0
 17 24  1  0
 18 31  1  0
 19 21  1  0
 21 22  1  0
 22 24  2  0
 32 25  1  0
 26 27  2  0
 26 29  1  0
 30 31  1  0
 30 32  1  0
  2 34  1  1
  3 35  1  0
  5 36  1  6
  6 37  1  0
  6 38  1  0
  7 39  1  0
  8 40  1  0
 10 41  1  0
 12 42  1  0
 12 43  1  0
 14 44  1  0
 14 45  1  0
 15 46  1  0
 17 47  1  6
 19 48  1  1
 21 49  1  1
 22 50  1  0
 24 51  1  0
 25 52  1  0
 30 53  1  1
 31 54  1  0
 31 55  1  0
 32 56  1  6
M  CHG  3   6   1  20  -1  33  -1
M  END
>  <filename_input>  (16) 
7ULC_56B_docked.sdf

>  <pdb_id>  (16) 
7ULC_56B

>  <pose_rank>  (16) 
15

>  <num_atoms_heavy>  (16) 
33

>  <num_torsions>  (16) 
7

>  <pose>  (16) 
[70.79848202327359, 19.20370886657514, 71.15337663817255, -0.15574811872988242, -1.6120787900957116, -1.093630736554702, -7.780144153718863, -3.5346267873404615, -0.6703591061525003, -2.7838223791458656, -1.6323573140181606, 11.287434306535875, -2.4435725089653486]

>  <energy>  (16) 
55.456493617844565

>  <inter_energy>  (16) 
37.90803350760796

>  <intra_energy>  (16) 
15.04784141393175

>  <rmsd>  (16) 
6.01824

>  <sdf_rank>  (16) 
0

$$$$

     RDKit          3D

 56 59  0  0  0  0  0  0  0  0999 V2000
   70.8199   20.5594   68.5205 N   0  0  0  0  0  0  0  0  0  0  0  0
   70.8527   21.4099   70.9841 C   0  0  1  0  0  0  0  0  0  0  0  0
   69.5955   21.1048   71.5951 O   0  0  0  0  0  0  0  0  0  0  0  0
   74.2899   21.7964   73.2253 P   0  0  1  0  0  0  0  0  0  0  0  0
   70.7080   21.6501   69.5010 C   0  0  1  0  0  0  0  0  0  0  0  0
   71.6910   20.1217   64.3537 N   0  0  0  0  0  0  0  0  0  0  0  0
   72.8103   18.4843   61.2781 O   0  0  0  0  0  0  0  0  0  0  0  0
   71.1389   20.6133   67.2155 C   0  0  0  0  0  0  0  0  0  0  0  0
   70.0039   18.8514   70.0672 N   0  0  0  0  0  0  0  0  0  0  0  0
   74.5833   20.4109   60.6545 O   0  0  0  0  0  0  0  0  0  0  0  0
   71.0036   19.3478   66.6468 C   0  0  0  0  0  0  0  0  0  0  0  0
   69.2679   17.0915   71.3904 N   0  0  0  0  0  0  0  0  0  0  0  0
   70.8731   16.1705   67.0331 O   0  0  0  0  0  0  0  0  0  0  0  0
   71.2881   18.9861   65.2047 C   0  0  0  0  0  0  0  0  0  0  0  0
   69.7810   16.6744   69.1377 N   0  0  0  0  0  0  0  0  0  0  0  0
   71.8879   22.4468   69.1682 O   0  0  0  0  0  0  0  0  0  0  0  0
   71.6885   19.8998   62.8796 C   0  0  2  0  0  0  0  0  0  0  0  0
   73.6756   21.5437   71.7605 O   0  0  0  0  0  0  0  0  0  0  0  0
   73.0404   19.4075   62.3452 C   0  0  2  0  0  0  0  0  0  0  0  0
   75.6842   21.2400   73.3471 O   0  0  0  0  0  0  0  0  0  0  0  0
   73.7828   20.6448   61.8200 C   0  0  2  0  0  0  0  0  0  0  0  0
   72.6404   21.5881   61.5401 C   0  0  0  0  0  0  0  0  0  0  0  0
   74.3120   23.2806   73.5231 O   0  0  0  0  0  0  0  0  0  0  0  0
   71.5157   21.1869   62.1190 C   0  0  0  0  0  0  0  0  0  0  0  0
   70.4434   23.8101   71.3564 O   0  0  0  0  0  0  0  0  0  0  0  0
   70.5596   18.5066   67.7757 C   0  0  0  0  0  0  0  0  0  0  0  0
   70.4275   19.3372   68.8731 C   0  0  0  0  0  0  0  0  0  0  0  0
   69.6724   17.5443   70.1801 C   0  0  0  0  0  0  0  0  0  0  0  0
   70.1148   17.1079   67.7796 C   0  0  0  0  0  0  0  0  0  0  0  0
   72.4528   23.0551   70.3349 C   0  0  2  0  0  0  0  0  0  0  0  0
   73.8205   22.4738   70.6986 C   0  0  0  0  0  0  0  0  0  0  0  0
   71.4313   22.7591   71.4073 C   0  0  2  0  0  0  0  0  0  0  0  0
   73.3693   21.0586   74.1635 O   0  0  0  0  0  0  0  0  0  0  0  0
   71.4722   20.5482   71.2737 H   0  0  0  0  0  0  0  0  0  0  0  0
   69.6929   21.1284   72.5800 H   0  0  0  0  0  0  0  0  0  0  0  0
   69.6778   22.0243   69.4081 H   0  0  0  0  0  0  0  0  0  0  0  0
   71.0474   20.9011   64.5513 H   0  0  0  0  0  0  0  0  0  0  0  0
   72.6765   20.2990   64.5949 H   0  0  0  0  0  0  0  0  0  0  0  0
   72.5886   17.5952   61.6530 H   0  0  0  0  0  0  0  0  0  0  0  0
   71.4582   21.5185   66.6782 H   0  0  0  0  0  0  0  0  0  0  0  0
   75.4962   20.1441   60.9293 H   0  0  0  0  0  0  0  0  0  0  0  0
   69.0085   16.1019   71.5097 H   0  0  0  0  0  0  0  0  0  0  0  0
   69.2196   17.7368   72.1918 H   0  0  0  0  0  0  0  0  0  0  0  0
   70.3772   18.5427   64.7762 H   0  0  0  0  0  0  0  0  0  0  0  0
   72.1406   18.2911   65.2205 H   0  0  0  0  0  0  0  0  0  0  0  0
   69.6219   15.6717   69.3116 H   0  0  0  0  0  0  0  0  0  0  0  0
   70.8739   19.1747   62.7360 H   0  0  0  0  0  0  0  0  0  0  0  0
   73.6285   18.9012   63.1247 H   0  0  0  0  0  0  0  0  0  0  0  0
   74.5279   21.0196   62.5372 H   0  0  0  0  0  0  0  0  0  0  0  0
   72.7286   22.4989   60.9296 H   0  0  0  0  0  0  0  0  0  0  0  0
   70.5638   21.7338   62.0506 H   0  0  0  0  0  0  0  0  0  0  0  0
   70.1950   24.0743   72.2776 H   0  0  0  0  0  0  0  0  0  0  0  0
   72.6428   24.1292   70.1921 H   0  0  0  0  0  0  0  0  0  0  0  0
   74.4918   23.2865   71.0130 H   0  0  0  0  0  0  0  0  0  0  0  0
   74.2453   21.9635   69.8216 H   0  0  0  0  0  0  0  0  0  0  0  0
   71.8204   22.7178   72.4353 H   0  0  0  0  0  0  0  0  0  0  0  0
  5  1  1  0
  1  8  1  0
  1 27  1  0
  2  3  1  0
  2  5  1  0
  2 32  1  0
  4 18  1  0
  4 20  1  6
  4 23  2  0
  4 33  1  0
  5 16  1  0
  6 14  1  0
 17  6  1  0
 19  7  1  0
  8 11  2  0
  9 27  1  0
  9 28  2  0
 21 10  1  0
 11 14  1  0
 11 26  1  0
 12 28  1  0
 13 29  2  0
 15 28  1  0
 15 29  1  0
 16 30  1  0
 17 19  1  0
 17 24  1  0
 18 31  1  0
 19 21  1  0
 21 22  1  0
 22 24  2  0
 32 25  1  0
 26 27  2  0
 26 29  1  0
 30 31  1  0
 30 32  1  0
  2 34  1  6
  3 35  1  0
  5 36  1  1
  6 37  1  0
  6 38  1  0
  7 39  1  0
  8 40  1  0
 10 41  1  0
 12 42  1  0
 12 43  1  0
 14 44  1  0
 14 45  1  0
 15 46  1  0
 17 47  1  1
 19 48  1  1
 21 49  1  1
 22 50  1  0
 24 51  1  0
 25 52  1  0
 30 53  1  6
 31 54  1  0
 31 55  1  0
 32 56  1  1
M  CHG  3   6   1  20  -1  33  -1
M  END
>  <filename_input>  (17) 
7ULC_56B_docked.sdf

>  <pdb_id>  (17) 
7ULC_56B

>  <pose_rank>  (17) 
16

>  <num_atoms_heavy>  (17) 
33

>  <num_torsions>  (17) 
7

>  <pose>  (17) 
[70.81990102048876, 20.55943327610887, 68.52045913709276, 1.9101806418053366, 1.6057344733722139, -2.2894417251009336, -2.2770397237327544, -9.103217801696594, 1.3165123507160272, -0.3691491024848223, 3.703982872355431, 0.5746352909375634, -0.1911029905483566]

>  <energy>  (17) 
-415.73218531349227

>  <inter_energy>  (17) 
-465.8074791974214

>  <intra_energy>  (17) 
60.716067533203734

>  <rmsd>  (17) 
8.26612

>  <sdf_rank>  (17) 
0

$$$$

     RDKit          3D

 56 59  0  0  0  0  0  0  0  0999 V2000
   70.5591   14.4346   68.5420 N   0  0  0  0  0  0  0  0  0  0  0  0
   72.5611   14.4289   66.8729 C   0  0  1  0  0  0  0  0  0  0  0  0
   72.5551   15.6576   66.1398 O   0  0  0  0  0  0  0  0  0  0  0  0
   75.9889   12.2195   68.5867 P   0  0  1  0  0  0  0  0  0  0  0  0
   71.1666   14.0107   67.2713 C   0  0  1  0  0  0  0  0  0  0  0  0
   69.6859   14.1743   72.9849 N   0  0  0  0  0  0  0  0  0  0  0  0
   69.3475   12.0232   75.9262 O   0  0  0  0  0  0  0  0  0  0  0  0
   70.0665   13.6868   69.5448 C   0  0  0  0  0  0  0  0  0  0  0  0
   70.5944   16.8103   67.9670 N   0  0  0  0  0  0  0  0  0  0  0  0
   71.6998   12.7721   76.9988 O   0  0  0  0  0  0  0  0  0  0  0  0
   69.4775   14.5130   70.5006 C   0  0  0  0  0  0  0  0  0  0  0  0
   70.5586   19.1039   67.6092 N   0  0  0  0  0  0  0  0  0  0  0  0
   69.2186   17.4182   71.8252 O   0  0  0  0  0  0  0  0  0  0  0  0
   68.8283   14.0582   71.7903 C   0  0  0  0  0  0  0  0  0  0  0  0
   69.6174   18.2530   69.5847 N   0  0  0  0  0  0  0  0  0  0  0  0
   71.2919   12.5703   67.4886 O   0  0  0  0  0  0  0  0  0  0  0  0
   69.9330   12.9294   73.7669 C   0  0  2  0  0  0  0  0  0  0  0  0
   74.7677   12.1703   67.5410 O   0  0  0  0  0  0  0  0  0  0  0  0
   69.9245   13.1627   75.2838 C   0  0  2  0  0  0  0  0  0  0  0  0
   76.4663   10.8378   68.9494 O   0  0  0  0  0  0  0  0  0  0  0  0
   71.3902   13.3229   75.7125 C   0  0  2  0  0  0  0  0  0  0  0  0
   72.1118   12.6027   74.6017 C   0  0  0  0  0  0  0  0  0  0  0  0
   77.1372   13.0107   67.9972 O   0  0  0  0  0  0  0  0  0  0  0  0
   71.3251   12.3993   73.5524 C   0  0  0  0  0  0  0  0  0  0  0  0
   72.2747   13.1803   64.7691 O   0  0  0  0  0  0  0  0  0  0  0  0
   69.6738   15.8700   69.9535 C   0  0  0  0  0  0  0  0  0  0  0  0
   70.3018   15.7271   68.7301 C   0  0  0  0  0  0  0  0  0  0  0  0
   70.2372   18.0451   68.3897 C   0  0  0  0  0  0  0  0  0  0  0  0
   69.1511   17.1548   70.4334 C   0  0  0  0  0  0  0  0  0  0  0  0
   72.4614   12.0460   66.8500 C   0  0  2  0  0  0  0  0  0  0  0  0
   73.5178   11.5743   67.8511 C   0  0  0  0  0  0  0  0  0  0  0  0
   72.9639   13.2154   66.0368 C   0  0  2  0  0  0  0  0  0  0  0  0
   75.4237   12.8946   69.8101 O   0  0  0  0  0  0  0  0  0  0  0  0
   73.2518   14.6499   67.7001 H   0  0  0  0  0  0  0  0  0  0  0  0
   72.5514   16.4192   66.7723 H   0  0  0  0  0  0  0  0  0  0  0  0
   70.5389   14.4526   66.4834 H   0  0  0  0  0  0  0  0  0  0  0  0
   70.6006   14.5337   72.6765 H   0  0  0  0  0  0  0  0  0  0  0  0
   69.1685   14.7931   73.6254 H   0  0  0  0  0  0  0  0  0  0  0  0
   69.4038   12.1343   76.9084 H   0  0  0  0  0  0  0  0  0  0  0  0
   70.1202   12.5896   69.6023 H   0  0  0  0  0  0  0  0  0  0  0  0
   71.3605   13.3756   77.7065 H   0  0  0  0  0  0  0  0  0  0  0  0
   70.3009   20.0570   67.9026 H   0  0  0  0  0  0  0  0  0  0  0  0
   71.0607   18.9562   66.7221 H   0  0  0  0  0  0  0  0  0  0  0  0
   68.5408   13.0026   71.6759 H   0  0  0  0  0  0  0  0  0  0  0  0
   67.9691   14.7243   71.9581 H   0  0  0  0  0  0  0  0  0  0  0  0
   69.4708   19.2213   69.9039 H   0  0  0  0  0  0  0  0  0  0  0  0
   69.1331   12.2556   73.4259 H   0  0  0  0  0  0  0  0  0  0  0  0
   69.3383   14.0523   75.5575 H   0  0  0  0  0  0  0  0  0  0  0  0
   71.6739   14.3778   75.8416 H   0  0  0  0  0  0  0  0  0  0  0  0
   73.1634   12.2843   74.6546 H   0  0  0  0  0  0  0  0  0  0  0  0
   71.6538   11.8994   72.6294 H   0  0  0  0  0  0  0  0  0  0  0  0
   71.2984   13.1306   64.9256 H   0  0  0  0  0  0  0  0  0  0  0  0
   72.2399   11.1531   66.2470 H   0  0  0  0  0  0  0  0  0  0  0  0
   73.6107   10.4796   67.7966 H   0  0  0  0  0  0  0  0  0  0  0  0
   73.2151   11.8683   68.8670 H   0  0  0  0  0  0  0  0  0  0  0  0
   74.0440   13.2196   65.8281 H   0  0  0  0  0  0  0  0  0  0  0  0
  5  1  1  0
  1  8  1  0
  1 27  1  0
  2  3  1  0
  2  5  1  0
  2 32  1  0
  4 18  1  0
  4 20  1  1
  4 23  2  0
  4 33  1  0
  5 16  1  0
  6 14  1  0
 17  6  1  0
 19  7  1  0
  8 11  2  0
  9 27  1  0
  9 28  2  0
 21 10  1  0
 11 14  1  0
 11 26  1  0
 12 28  1  0
 13 29  2  0
 15 28  1  0
 15 29  1  0
 16 30  1  0
 17 19  1  0
 17 24  1  0
 18 31  1  0
 19 21  1  0
 21 22  1  0
 22 24  2  0
 32 25  1  0
 26 27  2  0
 26 29  1  0
 30 31  1  0
 30 32  1  0
  2 34  1  1
  3 35  1  0
  5 36  1  6
  6 37  1  0
  6 38  1  0
  7 39  1  0
  8 40  1  0
 10 41  1  0
 12 42  1  0
 12 43  1  0
 14 44  1  0
 14 45  1  0
 15 46  1  0
 17 47  1  1
 19 48  1  6
 21 49  1  1
 22 50  1  0
 24 51  1  0
 25 52  1  0
 30 53  1  6
 31 54  1  0
 31 55  1  0
 32 56  1  6
M  CHG  3   6   1  20  -1  33  -1
M  END
>  <filename_input>  (18) 
7ULC_56B_docked.sdf

>  <pdb_id>  (18) 
7ULC_56B

>  <pose_rank>  (18) 
17

>  <num_atoms_heavy>  (18) 
33

>  <num_torsions>  (18) 
7

>  <pose>  (18) 
[70.55907657696875, 14.434648684618855, 68.54196724359534, -1.481829926959915, 2.4849906315039703, 2.2340533346370437, 4.598333037941383, 2.9890576433594442, -0.13692259017452835, 2.3088946803360906, -0.8122637032319734, 1.342631010796062, -1.0500167995505376]

>  <energy>  (18) 
-515.6299657084464

>  <inter_energy>  (18) 
-540.1842298151547

>  <intra_energy>  (18) 
20.568833349418973

>  <rmsd>  (18) 
5.45951

>  <sdf_rank>  (18) 
0

$$$$

     RDKit          3D

 56 59  0  0  0  0  0  0  0  0999 V2000
   74.6493   20.9696   73.9803 N   0  0  0  0  0  0  0  0  0  0  0  0
   77.2179   20.9183   74.4206 C   0  0  1  0  0  0  0  0  0  0  0  0
   77.8112   19.9246   73.5794 O   0  0  0  0  0  0  0  0  0  0  0  0
   79.0361   24.9676   76.4390 P   0  0  1  0  0  0  0  0  0  0  0  0
   75.8014   20.5570   74.7964 C   0  0  1  0  0  0  0  0  0  0  0  0
   71.5221   20.8610   70.5365 N   0  0  0  0  0  0  0  0  0  0  0  0
   69.5010   17.8998   69.8020 O   0  0  0  0  0  0  0  0  0  0  0  0
   73.6240   20.2341   73.5163 C   0  0  0  0  0  0  0  0  0  0  0  0
   75.4724   23.2487   73.6582 N   0  0  0  0  0  0  0  0  0  0  0  0
   71.3640   16.7672   68.2238 O   0  0  0  0  0  0  0  0  0  0  0  0
   72.8253   21.0158   72.6830 C   0  0  0  0  0  0  0  0  0  0  0  0
   76.0787   25.4534   73.2560 N   0  0  0  0  0  0  0  0  0  0  0  0
   71.8552   23.9256   71.7594 O   0  0  0  0  0  0  0  0  0  0  0  0
   71.5631   20.5628   71.9806 C   0  0  0  0  0  0  0  0  0  0  0  0
   74.1235   24.6187   72.2594 N   0  0  0  0  0  0  0  0  0  0  0  0
   75.5669   21.3245   76.0186 O   0  0  0  0  0  0  0  0  0  0  0  0
   70.5866   20.0534   69.7028 C   0  0  2  0  0  0  0  0  0  0  0  0
   78.3671   23.5206   76.2256 O   0  0  0  0  0  0  0  0  0  0  0  0
   70.7762   18.5411   69.8830 C   0  0  2  0  0  0  0  0  0  0  0  0
   78.4681   25.9885   75.4882 O   0  0  0  0  0  0  0  0  0  0  0  0
   71.6764   18.0704   68.7316 C   0  0  2  0  0  0  0  0  0  0  0  0
   71.4423   19.1479   67.7032 C   0  0  0  0  0  0  0  0  0  0  0  0
   78.8163   25.4292   77.8640 O   0  0  0  0  0  0  0  0  0  0  0  0
   70.8617   20.2175   68.2323 C   0  0  0  0  0  0  0  0  0  0  0  0
   77.9992   19.6920   76.4087 O   0  0  0  0  0  0  0  0  0  0  0  0
   73.4946   22.3314   72.6964 C   0  0  0  0  0  0  0  0  0  0  0  0
   74.6284   22.2018   73.4769 C   0  0  0  0  0  0  0  0  0  0  0  0
   75.2229   24.4264   73.0403 C   0  0  0  0  0  0  0  0  0  0  0  0
   73.2101   23.5319   71.9014 C   0  0  0  0  0  0  0  0  0  0  0  0
   76.7992   21.7330   76.6228 C   0  0  2  0  0  0  0  0  0  0  0  0
   77.0147   23.2462   76.5562 C   0  0  0  0  0  0  0  0  0  0  0  0
   77.8407   20.9973   75.8134 C   0  0  2  0  0  0  0  0  0  0  0  0
   80.5002   24.7643   76.1441 O   0  0  0  0  0  0  0  0  0  0  0  0
   77.3386   21.8354   73.8253 H   0  0  0  0  0  0  0  0  0  0  0  0
   78.2293   19.2242   74.1404 H   0  0  0  0  0  0  0  0  0  0  0  0
   75.8069   19.4575   74.7626 H   0  0  0  0  0  0  0  0  0  0  0  0
   71.2562   21.8505   70.4314 H   0  0  0  0  0  0  0  0  0  0  0  0
   72.4620   20.6234   70.1885 H   0  0  0  0  0  0  0  0  0  0  0  0
   69.1594   17.7280   70.7152 H   0  0  0  0  0  0  0  0  0  0  0  0
   73.4428   19.1763   73.7575 H   0  0  0  0  0  0  0  0  0  0  0  0
   71.2149   16.1455   68.9796 H   0  0  0  0  0  0  0  0  0  0  0  0
   75.9168   26.3629   72.8005 H   0  0  0  0  0  0  0  0  0  0  0  0
   76.8914   25.3250   73.8755 H   0  0  0  0  0  0  0  0  0  0  0  0
   70.7070   21.0617   72.4582 H   0  0  0  0  0  0  0  0  0  0  0  0
   71.5314   19.4672   72.0732 H   0  0  0  0  0  0  0  0  0  0  0  0
   73.9270   25.5663   71.9068 H   0  0  0  0  0  0  0  0  0  0  0  0
   69.5955   20.4086   70.0217 H   0  0  0  0  0  0  0  0  0  0  0  0
   71.2282   18.2986   70.8560 H   0  0  0  0  0  0  0  0  0  0  0  0
   72.7239   17.9483   69.0444 H   0  0  0  0  0  0  0  0  0  0  0  0
   71.7193   19.0582   66.6424 H   0  0  0  0  0  0  0  0  0  0  0  0
   70.6098   21.1226   67.6602 H   0  0  0  0  0  0  0  0  0  0  0  0
   77.9891   19.7758   77.3951 H   0  0  0  0  0  0  0  0  0  0  0  0
   76.8315   21.5004   77.6974 H   0  0  0  0  0  0  0  0  0  0  0  0
   76.7788   23.6928   77.5333 H   0  0  0  0  0  0  0  0  0  0  0  0
   76.3563   23.6752   75.7864 H   0  0  0  0  0  0  0  0  0  0  0  0
   78.8338   21.4688   75.7765 H   0  0  0  0  0  0  0  0  0  0  0  0
  5  1  1  0
  1  8  1  0
  1 27  1  0
  2  3  1  0
  2  5  1  0
  2 32  1  0
  4 18  1  0
  4 20  1  6
  4 23  2  0
  4 33  1  0
  5 16  1  0
  6 14  1  0
 17  6  1  0
 19  7  1  0
  8 11  2  0
  9 27  1  0
  9 28  2  0
 21 10  1  0
 11 14  1  0
 11 26  1  0
 12 28  1  0
 13 29  2  0
 15 28  1  0
 15 29  1  0
 16 30  1  0
 17 19  1  0
 17 24  1  0
 18 31  1  0
 19 21  1  0
 21 22  1  0
 22 24  2  0
 32 25  1  0
 26 27  2  0
 26 29  1  0
 30 31  1  0
 30 32  1  0
  2 34  1  6
  3 35  1  0
  5 36  1  1
  6 37  1  0
  6 38  1  0
  7 39  1  0
  8 40  1  0
 10 41  1  0
 12 42  1  0
 12 43  1  0
 14 44  1  0
 14 45  1  0
 15 46  1  0
 17 47  1  6
 19 48  1  1
 21 49  1  1
 22 50  1  0
 24 51  1  0
 25 52  1  0
 30 53  1  1
 31 54  1  0
 31 55  1  0
 32 56  1  6
M  CHG  3   6   1  20  -1  33  -1
M  END
>  <filename_input>  (19) 
7ULC_56B_docked.sdf

>  <pdb_id>  (19) 
7ULC_56B

>  <pose_rank>  (19) 
18

>  <num_atoms_heavy>  (19) 
33

>  <num_torsions>  (19) 
7

>  <pose>  (19) 
[74.64933499414455, 20.969600576984565, 73.98031277098374, 2.6307463452975677, -2.5549350162315183, -0.10948699421344785, 2.7300782683853333, -3.473717574477241, 0.4402289441356692, 0.008865910795544834, 1.485125254140417, -0.026239555085409493, 0.47828605053278894]

>  <energy>  (19) 
-474.62828439990824

>  <inter_energy>  (19) 
-504.60649713477494

>  <intra_energy>  (19) 
31.737021851678005

>  <rmsd>  (19) 
10.5502

>  <sdf_rank>  (19) 
0

$$$$

     RDKit          3D

 56 59  0  0  0  0  0  0  0  0999 V2000
   69.8578   19.5217   67.9106 N   0  0  0  0  0  0  0  0  0  0  0  0
   70.5046   19.3950   65.3888 C   0  0  1  0  0  0  0  0  0  0  0  0
   70.9638   20.6819   64.9643 O   0  0  0  0  0  0  0  0  0  0  0  0
   68.1128   14.4055   64.4266 P   0  0  1  0  0  0  0  0  0  0  0  0
   69.4779   19.5048   66.4898 C   0  0  1  0  0  0  0  0  0  0  0  0
   72.5872   21.6483   70.4338 N   0  0  0  0  0  0  0  0  0  0  0  0
   72.7068   25.2348   69.7156 O   0  0  0  0  0  0  0  0  0  0  0  0
   70.7102   20.3358   68.5574 C   0  0  0  0  0  0  0  0  0  0  0  0
   68.6091   17.4901   68.4481 N   0  0  0  0  0  0  0  0  0  0  0  0
   73.1002   25.9441   72.2820 O   0  0  0  0  0  0  0  0  0  0  0  0
   70.8564   19.9095   69.8766 C   0  0  0  0  0  0  0  0  0  0  0  0
   67.4743   15.5916   69.1537 N   0  0  0  0  0  0  0  0  0  0  0  0
   69.6970   18.2634   72.3681 O   0  0  0  0  0  0  0  0  0  0  0  0
   71.7127   20.5713   70.9350 C   0  0  0  0  0  0  0  0  0  0  0  0
   68.8171   16.7447   70.6962 N   0  0  0  0  0  0  0  0  0  0  0  0
   68.7550   18.2365   66.4092 O   0  0  0  0  0  0  0  0  0  0  0  0
   71.9959   23.0133   70.3371 C   0  0  2  0  0  0  0  0  0  0  0  0
   69.3530   15.4105   64.2294 O   0  0  0  0  0  0  0  0  0  0  0  0
   73.0242   24.1296   70.5653 C   0  0  2  0  0  0  0  0  0  0  0  0
   68.5147   12.9732   64.1904 O   0  0  0  0  0  0  0  0  0  0  0  0
   72.9022   24.5458   72.0382 C   0  0  2  0  0  0  0  0  0  0  0  0
   71.4953   24.1103   72.3612 C   0  0  0  0  0  0  0  0  0  0  0  0
   67.5550   14.5479   65.8268 O   0  0  0  0  0  0  0  0  0  0  0  0
   71.0135   23.2788   71.4460 C   0  0  0  0  0  0  0  0  0  0  0  0
   68.6737   19.5137   63.7455 O   0  0  0  0  0  0  0  0  0  0  0  0
   69.9794   18.7247   69.9567 C   0  0  0  0  0  0  0  0  0  0  0  0
   69.4438   18.5306   68.6970 C   0  0  0  0  0  0  0  0  0  0  0  0
   68.3225   16.6090   69.4344 C   0  0  0  0  0  0  0  0  0  0  0  0
   69.8139   17.7577   71.0484 C   0  0  0  0  0  0  0  0  0  0  0  0
   68.9470   17.6063   65.1378 C   0  0  2  0  0  0  0  0  0  0  0  0
   69.7691   16.3199   65.2362 C   0  0  0  0  0  0  0  0  0  0  0  0
   69.6755   18.6597   64.3372 C   0  0  2  0  0  0  0  0  0  0  0  0
   67.1061   14.8244   63.3859 O   0  0  0  0  0  0  0  0  0  0  0  0
   71.4422   18.8848   65.6546 H   0  0  0  0  0  0  0  0  0  0  0  0
   71.1627   21.2395   65.7577 H   0  0  0  0  0  0  0  0  0  0  0  0
   69.0107   20.4822   66.2988 H   0  0  0  0  0  0  0  0  0  0  0  0
   73.4002   21.7062   71.0636 H   0  0  0  0  0  0  0  0  0  0  0  0
   72.8065   21.3834   69.4629 H   0  0  0  0  0  0  0  0  0  0  0  0
   72.4805   26.0231   70.2702 H   0  0  0  0  0  0  0  0  0  0  0  0
   71.2155   21.2060   68.1131 H   0  0  0  0  0  0  0  0  0  0  0  0
   73.1235   26.1089   73.2579 H   0  0  0  0  0  0  0  0  0  0  0  0
   67.2358   14.9040   69.8825 H   0  0  0  0  0  0  0  0  0  0  0  0
   67.0676   15.5053   68.2113 H   0  0  0  0  0  0  0  0  0  0  0  0
   72.3479   19.7995   71.3941 H   0  0  0  0  0  0  0  0  0  0  0  0
   71.0189   21.0402   71.6483 H   0  0  0  0  0  0  0  0  0  0  0  0
   68.4764   16.1094   71.4319 H   0  0  0  0  0  0  0  0  0  0  0  0
   71.5566   23.0260   69.3287 H   0  0  0  0  0  0  0  0  0  0  0  0
   74.0473   23.7961   70.3374 H   0  0  0  0  0  0  0  0  0  0  0  0
   73.6832   24.0919   72.6658 H   0  0  0  0  0  0  0  0  0  0  0  0
   70.9357   24.4418   73.2483 H   0  0  0  0  0  0  0  0  0  0  0  0
   70.0087   22.8335   71.4926 H   0  0  0  0  0  0  0  0  0  0  0  0
   68.1534   19.9573   64.4615 H   0  0  0  0  0  0  0  0  0  0  0  0
   67.9965   17.2880   64.6848 H   0  0  0  0  0  0  0  0  0  0  0  0
   69.6186   15.8641   66.2259 H   0  0  0  0  0  0  0  0  0  0  0  0
   70.8345   16.5559   65.0974 H   0  0  0  0  0  0  0  0  0  0  0  0
   70.3128   18.2819   63.5241 H   0  0  0  0  0  0  0  0  0  0  0  0
  5  1  1  0
  1  8  1  0
  1 27  1  0
  2  3  1  0
  2  5  1  0
  2 32  1  0
  4 18  1  0
  4 20  1  6
  4 23  2  0
  4 33  1  0
  5 16  1  0
  6 14  1  0
 17  6  1  0
 19  7  1  0
  8 11  2  0
  9 27  1  0
  9 28  2  0
 21 10  1  0
 11 14  1  0
 11 26  1  0
 12 28  1  0
 13 29  2  0
 15 28  1  0
 15 29  1  0
 16 30  1  0
 17 19  1  0
 17 24  1  0
 18 31  1  0
 19 21  1  0
 21 22  1  0
 22 24  2  0
 32 25  1  0
 26 27  2  0
 26 29  1  0
 30 31  1  0
 30 32  1  0
  2 34  1  1
  3 35  1  0
  5 36  1  6
  6 37  1  0
  6 38  1  0
  7 39  1  0
  8 40  1  0
 10 41  1  0
 12 42  1  0
 12 43  1  0
 14 44  1  0
 14 45  1  0
 15 46  1  0
 17 47  1  6
 19 48  1  1
 21 49  1  1
 22 50  1  0
 24 51  1  0
 25 52  1  0
 30 53  1  6
 31 54  1  0
 31 55  1  0
 32 56  1  6
M  CHG  3   6   1  20  -1  33  -1
M  END
>  <filename_input>  (20) 
7ULC_56B_docked.sdf

>  <pdb_id>  (20) 
7ULC_56B

>  <pose_rank>  (20) 
19

>  <num_atoms_heavy>  (20) 
33

>  <num_torsions>  (20) 
7

>  <pose>  (20) 
[69.8578247833611, 19.521700788566385, 67.91064683932481, -10.372386493127411, -4.383541113479278, -0.2682574332039587, -29.996045532390003, -29.881467583871405, 8.089580546124331, 5.323333362763754, -34.09976168323447, -7.5852877777253775, -8.572060106129369]

>  <energy>  (20) 
-84.24366272891217

>  <inter_energy>  (20) 
-138.24740195260713

>  <intra_energy>  (20) 
62.22749953024799

>  <rmsd>  (20) 
6.02149

>  <sdf_rank>  (20) 
0

$$$$

     RDKit          3D

 56 59  0  0  0  0  0  0  0  0999 V2000
   78.1999   11.1785   67.1118 N   0  0  0  0  0  0  0  0  0  0  0  0
   79.8321    9.3880   66.1508 C   0  0  1  0  0  0  0  0  0  0  0  0
   79.9541    8.3197   67.0948 O   0  0  0  0  0  0  0  0  0  0  0  0
   80.9605   12.0247   61.1178 P   0  0  1  0  0  0  0  0  0  0  0  0
   79.5652   10.7074   66.8335 C   0  0  1  0  0  0  0  0  0  0  0  0
   74.1770   13.4670   66.5573 N   0  0  0  0  0  0  0  0  0  0  0  0
   70.6656   12.5648   67.0565 O   0  0  0  0  0  0  0  0  0  0  0  0
   77.1304   11.2265   66.2985 C   0  0  0  0  0  0  0  0  0  0  0  0
   78.7487   11.9860   69.3529 N   0  0  0  0  0  0  0  0  0  0  0  0
   69.7280   14.4699   65.4024 O   0  0  0  0  0  0  0  0  0  0  0  0
   76.0740   11.8617   66.9497 C   0  0  0  0  0  0  0  0  0  0  0  0
   79.0716   12.7957   71.5046 N   0  0  0  0  0  0  0  0  0  0  0  0
   74.6967   12.7681   69.6960 O   0  0  0  0  0  0  0  0  0  0  0  0
   74.6908   12.0956   66.3809 C   0  0  0  0  0  0  0  0  0  0  0  0
   76.9642   13.0563   70.5031 N   0  0  0  0  0  0  0  0  0  0  0  0
   80.0064   11.6952   65.8500 O   0  0  0  0  0  0  0  0  0  0  0  0
   72.8357   13.6132   67.1912 C   0  0  2  0  0  0  0  0  0  0  0  0
   81.2619   11.2704   62.5060 O   0  0  0  0  0  0  0  0  0  0  0  0
   71.6867   13.1825   66.2693 C   0  0  2  0  0  0  0  0  0  0  0  0
   79.8302   11.3733   60.3650 O   0  0  0  0  0  0  0  0  0  0  0  0
   71.1454   14.4614   65.6143 C   0  0  2  0  0  0  0  0  0  0  0  0
   71.5743   15.5146   66.6043 C   0  0  0  0  0  0  0  0  0  0  0  0
   80.6174   13.4747   61.3861 O   0  0  0  0  0  0  0  0  0  0  0  0
   72.4906   15.0555   67.4474 C   0  0  0  0  0  0  0  0  0  0  0  0
   82.2459    9.8343   66.3544 O   0  0  0  0  0  0  0  0  0  0  0  0
   76.6350   12.1978   68.2731 C   0  0  0  0  0  0  0  0  0  0  0  0
   77.9550   11.7863   68.2706 C   0  0  0  0  0  0  0  0  0  0  0  0
   78.2552   12.6272   70.4376 C   0  0  0  0  0  0  0  0  0  0  0  0
   76.0543   12.9986   69.3574 C   0  0  0  0  0  0  0  0  0  0  0  0
   80.8850   11.1113   64.8818 C   0  0  2  0  0  0  0  0  0  0  0  0
   80.2616   11.0425   63.4864 C   0  0  0  0  0  0  0  0  0  0  0  0
   81.1382    9.7289   65.4352 C   0  0  2  0  0  0  0  0  0  0  0  0
   82.2349   11.8967   60.3232 O   0  0  0  0  0  0  0  0  0  0  0  0
   79.0388    9.0234   65.4817 H   0  0  0  0  0  0  0  0  0  0  0  0
   79.9124    8.6852   68.0139 H   0  0  0  0  0  0  0  0  0  0  0  0
   80.0384   10.5791   67.8182 H   0  0  0  0  0  0  0  0  0  0  0  0
   74.8536   13.9792   67.1410 H   0  0  0  0  0  0  0  0  0  0  0  0
   74.0614   13.8333   65.6016 H   0  0  0  0  0  0  0  0  0  0  0  0
   70.8696   12.6882   68.0173 H   0  0  0  0  0  0  0  0  0  0  0  0
   77.0943   10.8255   65.2749 H   0  0  0  0  0  0  0  0  0  0  0  0
   69.2636   14.4727   66.2768 H   0  0  0  0  0  0  0  0  0  0  0  0
   78.7264   13.2795   72.3458 H   0  0  0  0  0  0  0  0  0  0  0  0
   80.0377   12.4399   71.4751 H   0  0  0  0  0  0  0  0  0  0  0  0
   73.9948   11.4023   66.8758 H   0  0  0  0  0  0  0  0  0  0  0  0
   74.7680   11.9292   65.2963 H   0  0  0  0  0  0  0  0  0  0  0  0
   76.6140   13.4366   71.3940 H   0  0  0  0  0  0  0  0  0  0  0  0
   72.9186   12.9980   68.0993 H   0  0  0  0  0  0  0  0  0  0  0  0
   72.0218   12.4649   65.5060 H   0  0  0  0  0  0  0  0  0  0  0  0
   71.5295   14.6017   64.5931 H   0  0  0  0  0  0  0  0  0  0  0  0
   71.1758   16.5397   66.6253 H   0  0  0  0  0  0  0  0  0  0  0  0
   72.9468   15.6613   68.2442 H   0  0  0  0  0  0  0  0  0  0  0  0
   81.9074    9.8021   67.2842 H   0  0  0  0  0  0  0  0  0  0  0  0
   81.8010   11.7041   64.7419 H   0  0  0  0  0  0  0  0  0  0  0  0
   79.4794   11.8106   63.3967 H   0  0  0  0  0  0  0  0  0  0  0  0
   79.8197   10.0469   63.3326 H   0  0  0  0  0  0  0  0  0  0  0  0
   81.3947    8.9595   64.6921 H   0  0  0  0  0  0  0  0  0  0  0  0
  5  1  1  0
  1  8  1  0
  1 27  1  0
  2  3  1  0
  2  5  1  0
  2 32  1  0
  4 18  1  0
  4 20  1  6
  4 23  2  0
  4 33  1  0
  5 16  1  0
  6 14  1  0
 17  6  1  0
 19  7  1  0
  8 11  2  0
  9 27  1  0
  9 28  2  0
 21 10  1  0
 11 14  1  0
 11 26  1  0
 12 28  1  0
 13 29  2  0
 15 28  1  0
 15 29  1  0
 16 30  1  0
 17 19  1  0
 17 24  1  0
 18 31  1  0
 19 21  1  0
 21 22  1  0
 22 24  2  0
 32 25  1  0
 26 27  2  0
 26 29  1  0
 30 31  1  0
 30 32  1  0
  2 34  1  6
  3 35  1  0
  5 36  1  1
  6 37  1  0
  6 38  1  0
  7 39  1  0
  8 40  1  0
 10 41  1  0
 12 42  1  0
 12 43  1  0
 14 44  1  0
 14 45  1  0
 15 46  1  0
 17 47  1  1
 19 48  1  6
 21 49  1  6
 22 50  1  0
 24 51  1  0
 25 52  1  0
 30 53  1  6
 31 54  1  0
 31 55  1  0
 32 56  1  6
M  CHG  3   6   1  20  -1  33  -1
M  END
>  <filename_input>  (21) 
7ULC_56B_docked.sdf

>  <pdb_id>  (21) 
7ULC_56B

>  <pose_rank>  (21) 
20

>  <num_atoms_heavy>  (21) 
33

>  <num_torsions>  (21) 
7

>  <pose>  (21) 
[78.19990222241623, 11.178521402384556, 67.11179324960672, -0.9843846875002408, 0.975325505162456, 1.3017800009005205, -0.3827451158690111, 1.4542920105280173, 0.7417717887647831, 0.25854062885756046, 1.4327189858118925, 1.2661327431534082, -6.144237277351908]

>  <energy>  (21) 
-352.57076142259206

>  <inter_energy>  (21) 
-344.47627110615207

>  <intra_energy>  (21) 
8.445895147917966

>  <rmsd>  (21) 
8.55919

>  <sdf_rank>  (21) 
0

$$$$

     RDKit          3D

 56 59  0  0  0  0  0  0  0  0999 V2000
   71.2376   20.0115   63.7432 N   0  0  0  0  0  0  0  0  0  0  0  0
   70.5032   18.8976   65.9823 C   0  0  1  0  0  0  0  0  0  0  0  0
   69.5565   17.8639   65.6955 O   0  0  0  0  0  0  0  0  0  0  0  0
   71.9623   21.1294   70.2698 P   0  0  1  0  0  0  0  0  0  0  0  0
   70.4296   20.0167   64.9722 C   0  0  1  0  0  0  0  0  0  0  0  0
   75.1367   20.0795   61.2590 N   0  0  0  0  0  0  0  0  0  0  0  0
   76.5304   17.9173   58.6560 O   0  0  0  0  0  0  0  0  0  0  0  0
   72.3296   19.2874   63.4418 C   0  0  0  0  0  0  0  0  0  0  0  0
   70.0195   21.8714   62.7270 N   0  0  0  0  0  0  0  0  0  0  0  0
   78.4600   16.9097   60.2389 O   0  0  0  0  0  0  0  0  0  0  0  0
   72.8394   19.6974   62.2108 C   0  0  0  0  0  0  0  0  0  0  0  0
   68.9757   23.6085   61.5944 N   0  0  0  0  0  0  0  0  0  0  0  0
   72.3613   21.1400   59.3910 O   0  0  0  0  0  0  0  0  0  0  0  0
   74.0491   19.1154   61.5112 C   0  0  0  0  0  0  0  0  0  0  0  0
   70.8477   22.5841   60.6153 N   0  0  0  0  0  0  0  0  0  0  0  0
   71.0094   21.1556   65.6826 O   0  0  0  0  0  0  0  0  0  0  0  0
   76.1035   19.7441   60.1749 C   0  0  2  0  0  0  0  0  0  0  0  0
   72.5496   21.5719   68.8394 O   0  0  0  0  0  0  0  0  0  0  0  0
   76.3513   18.2357   60.0382 C   0  0  2  0  0  0  0  0  0  0  0  0
   70.6522   21.8105   70.5678 O   0  0  0  0  0  0  0  0  0  0  0  0
   77.6364   17.9284   60.8202 C   0  0  2  0  0  0  0  0  0  0  0  0
   78.3191   19.2728   60.8228 C   0  0  0  0  0  0  0  0  0  0  0  0
   71.7685   19.6283   70.3027 O   0  0  0  0  0  0  0  0  0  0  0  0
   77.4876   20.2492   60.4818 C   0  0  0  0  0  0  0  0  0  0  0  0
   68.8041   20.0718   67.3244 O   0  0  0  0  0  0  0  0  0  0  0  0
   71.9152   20.7701   61.7933 C   0  0  0  0  0  0  0  0  0  0  0  0
   70.9927   20.9295   62.8108 C   0  0  0  0  0  0  0  0  0  0  0  0
   69.9693   22.6904   61.6509 C   0  0  0  0  0  0  0  0  0  0  0  0
   72.0035   21.6860   60.6499 C   0  0  0  0  0  0  0  0  0  0  0  0
   71.0037   20.9449   67.0989 C   0  0  2  0  0  0  0  0  0  0  0  0
   72.4108   20.7733   67.6746 C   0  0  0  0  0  0  0  0  0  0  0  0
   70.1918   19.6811   67.2564 C   0  0  2  0  0  0  0  0  0  0  0  0
   72.9999   21.5742   71.2685 O   0  0  0  0  0  0  0  0  0  0  0  0
   71.4535   18.3449   66.0194 H   0  0  0  0  0  0  0  0  0  0  0  0
   69.2118   17.4874   66.5437 H   0  0  0  0  0  0  0  0  0  0  0  0
   69.3828   19.9811   64.6360 H   0  0  0  0  0  0  0  0  0  0  0  0
   74.7020   20.9819   61.0188 H   0  0  0  0  0  0  0  0  0  0  0  0
   75.6963   20.0823   62.1237 H   0  0  0  0  0  0  0  0  0  0  0  0
   77.0143   17.0574   58.5755 H   0  0  0  0  0  0  0  0  0  0  0  0
   72.7560   18.4922   64.0710 H   0  0  0  0  0  0  0  0  0  0  0  0
   78.8877   16.3807   60.9582 H   0  0  0  0  0  0  0  0  0  0  0  0
   68.9096   24.2469   60.7888 H   0  0  0  0  0  0  0  0  0  0  0  0
   68.2860   23.6686   62.3571 H   0  0  0  0  0  0  0  0  0  0  0  0
   73.7220   18.7067   60.5438 H   0  0  0  0  0  0  0  0  0  0  0  0
   74.4612   18.3509   62.1862 H   0  0  0  0  0  0  0  0  0  0  0  0
   70.6926   23.1585   59.7745 H   0  0  0  0  0  0  0  0  0  0  0  0
   75.6444   20.1922   59.2814 H   0  0  0  0  0  0  0  0  0  0  0  0
   75.5078   17.6458   60.4263 H   0  0  0  0  0  0  0  0  0  0  0  0
   77.4286   17.5125   61.8172 H   0  0  0  0  0  0  0  0  0  0  0  0
   79.3784   19.4257   61.0767 H   0  0  0  0  0  0  0  0  0  0  0  0
   77.7775   21.3090   60.4292 H   0  0  0  0  0  0  0  0  0  0  0  0
   68.5291   20.1492   68.2723 H   0  0  0  0  0  0  0  0  0  0  0  0
   70.5893   21.8053   67.6447 H   0  0  0  0  0  0  0  0  0  0  0  0
   73.1533   21.0862   66.9257 H   0  0  0  0  0  0  0  0  0  0  0  0
   72.5725   19.7168   67.9347 H   0  0  0  0  0  0  0  0  0  0  0  0
   70.4132   19.0829   68.1527 H   0  0  0  0  0  0  0  0  0  0  0  0
  5  1  1  0
  1  8  1  0
  1 27  1  0
  2  3  1  0
  2  5  1  0
  2 32  1  0
  4 18  1  0
  4 20  1  1
  4 23  2  0
  4 33  1  0
  5 16  1  0
  6 14  1  0
 17  6  1  0
 19  7  1  0
  8 11  2  0
  9 27  1  0
  9 28  2  0
 21 10  1  0
 11 14  1  0
 11 26  1  0
 12 28  1  0
 13 29  2  0
 15 28  1  0
 15 29  1  0
 16 30  1  0
 17 19  1  0
 17 24  1  0
 18 31  1  0
 19 21  1  0
 21 22  1  0
 22 24  2  0
 32 25  1  0
 26 27  2  0
 26 29  1  0
 30 31  1  0
 30 32  1  0
  2 34  1  1
  3 35  1  0
  5 36  1  6
  6 37  1  0
  6 38  1  0
  7 39  1  0
  8 40  1  0
 10 41  1  0
 12 42  1  0
 12 43  1  0
 14 44  1  0
 14 45  1  0
 15 46  1  0
 17 47  1  6
 19 48  1  1
 21 49  1  1
 22 50  1  0
 24 51  1  0
 25 52  1  0
 30 53  1  1
 31 54  1  0
 31 55  1  0
 32 56  1  1
M  CHG  3   6   1  20  -1  33  -1
M  END
>  <filename_input>  (22) 
7ULC_56B_docked.sdf

>  <pdb_id>  (22) 
7ULC_56B

>  <pose_rank>  (22) 
21

>  <num_atoms_heavy>  (22) 
33

>  <num_torsions>  (22) 
7

>  <pose>  (22) 
[71.23762444516365, 20.0115150607643, 63.743161155384605, 3.90748914676044, 0.6360905247260528, 1.6894908386183691, 0.15434642579552757, 1.2695180343558603, -1.6058594374806294, -0.5279950696945024, 1.653565317528569, 0.7238462107073994, 0.8210365995679092]

>  <energy>  (22) 
-310.9521411762236

>  <inter_energy>  (22) 
-317.27842607160005

>  <intra_energy>  (22) 
5.571799170573433

>  <rmsd>  (22) 
9.85479

>  <sdf_rank>  (22) 
0

$$$$

     RDKit          3D

 56 59  0  0  0  0  0  0  0  0999 V2000
   79.3734   18.3796   73.5899 N   0  0  0  0  0  0  0  0  0  0  0  0
   80.4375   16.0174   73.8748 C   0  0  1  0  0  0  0  0  0  0  0  0
   81.3630   16.0559   74.9653 O   0  0  0  0  0  0  0  0  0  0  0  0
   77.7599   13.4333   69.4463 P   0  0  1  0  0  0  0  0  0  0  0  0
   80.3420   17.3525   73.1773 C   0  0  1  0  0  0  0  0  0  0  0  0
   75.2201   20.0937   73.8960 N   0  0  0  0  0  0  0  0  0  0  0  0
   71.6679   20.6286   73.1963 O   0  0  0  0  0  0  0  0  0  0  0  0
   78.2634   18.8077   72.9636 C   0  0  0  0  0  0  0  0  0  0  0  0
   80.6693   19.0642   75.5463 N   0  0  0  0  0  0  0  0  0  0  0  0
   72.0829   21.4912   70.6807 O   0  0  0  0  0  0  0  0  0  0  0  0
   77.7161   19.8832   73.6615 C   0  0  0  0  0  0  0  0  0  0  0  0
   81.7455   19.8389   77.4519 N   0  0  0  0  0  0  0  0  0  0  0  0
   77.4444   21.5162   76.4039 O   0  0  0  0  0  0  0  0  0  0  0  0
   76.4536   20.6325   73.2926 C   0  0  0  0  0  0  0  0  0  0  0  0
   79.7546   20.8829   76.7746 N   0  0  0  0  0  0  0  0  0  0  0  0
   79.8351   17.0079   71.8499 O   0  0  0  0  0  0  0  0  0  0  0  0
   73.9896   20.9280   73.7853 C   0  0  2  0  0  0  0  0  0  0  0  0
   78.2744   14.7888   70.1428 O   0  0  0  0  0  0  0  0  0  0  0  0
   73.0020   20.4032   72.7342 C   0  0  2  0  0  0  0  0  0  0  0  0
   78.9041   12.6192   68.9015 O   0  0  0  0  0  0  0  0  0  0  0  0
   73.2575   21.2066   71.4508 C   0  0  2  0  0  0  0  0  0  0  0  0
   73.8908   22.4605   71.9986 C   0  0  0  0  0  0  0  0  0  0  0  0
   76.9840   12.6046   70.4479 O   0  0  0  0  0  0  0  0  0  0  0  0
   74.2906   22.3036   73.2542 C   0  0  0  0  0  0  0  0  0  0  0  0
   82.2729   15.4132   72.3473 O   0  0  0  0  0  0  0  0  0  0  0  0
   78.6364   20.0601   74.8020 C   0  0  0  0  0  0  0  0  0  0  0  0
   79.6481   19.1293   74.6551 C   0  0  0  0  0  0  0  0  0  0  0  0
   80.7199   19.9431   76.5740 C   0  0  0  0  0  0  0  0  0  0  0  0
   78.6729   21.1199   75.8168 C   0  0  0  0  0  0  0  0  0  0  0  0
   80.0407   15.6215   71.5565 C   0  0  2  0  0  0  0  0  0  0  0  0
   78.7310   14.8339   71.4856 C   0  0  0  0  0  0  0  0  0  0  0  0
   80.8999   15.1495   72.7056 C   0  0  2  0  0  0  0  0  0  0  0  0
   76.8816   13.8913   68.3102 O   0  0  0  0  0  0  0  0  0  0  0  0
   79.5163   15.6603   74.3585 H   0  0  0  0  0  0  0  0  0  0  0  0
   80.8657   16.0352   75.8210 H   0  0  0  0  0  0  0  0  0  0  0  0
   81.3333   17.7965   73.3513 H   0  0  0  0  0  0  0  0  0  0  0  0
   75.0233   19.1891   73.4445 H   0  0  0  0  0  0  0  0  0  0  0  0
   75.4175   20.0426   74.9056 H   0  0  0  0  0  0  0  0  0  0  0  0
   71.6575   20.6304   74.1862 H   0  0  0  0  0  0  0  0  0  0  0  0
   77.8498   18.3750   72.0407 H   0  0  0  0  0  0  0  0  0  0  0  0
   71.3250   21.6749   71.2905 H   0  0  0  0  0  0  0  0  0  0  0  0
   81.8129   20.4926   78.2451 H   0  0  0  0  0  0  0  0  0  0  0  0
   82.4584   19.1061   77.3265 H   0  0  0  0  0  0  0  0  0  0  0  0
   76.3427   20.6000   72.1987 H   0  0  0  0  0  0  0  0  0  0  0  0
   76.5717   21.6535   73.6847 H   0  0  0  0  0  0  0  0  0  0  0  0
   79.7870   21.4494   77.6342 H   0  0  0  0  0  0  0  0  0  0  0  0
   73.5843   20.9147   74.8079 H   0  0  0  0  0  0  0  0  0  0  0  0
   73.1318   19.3261   72.5528 H   0  0  0  0  0  0  0  0  0  0  0  0
   73.8754   20.6530   70.7285 H   0  0  0  0  0  0  0  0  0  0  0  0
   74.0074   23.3927   71.4264 H   0  0  0  0  0  0  0  0  0  0  0  0
   74.7864   23.0909   73.8411 H   0  0  0  0  0  0  0  0  0  0  0  0
   82.8143   15.5172   73.1696 H   0  0  0  0  0  0  0  0  0  0  0  0
   80.5031   15.4703   70.5699 H   0  0  0  0  0  0  0  0  0  0  0  0
   77.9736   15.3260   72.1134 H   0  0  0  0  0  0  0  0  0  0  0  0
   78.9010   13.8094   71.8482 H   0  0  0  0  0  0  0  0  0  0  0  0
   80.8196   14.0801   72.9506 H   0  0  0  0  0  0  0  0  0  0  0  0
  5  1  1  0
  1  8  1  0
  1 27  1  0
  2  3  1  0
  2  5  1  0
  2 32  1  0
  4 18  1  0
  4 20  1  6
  4 23  2  0
  4 33  1  0
  5 16  1  0
  6 14  1  0
 17  6  1  0
 19  7  1  0
  8 11  2  0
  9 27  1  0
  9 28  2  0
 21 10  1  0
 11 14  1  0
 11 26  1  0
 12 28  1  0
 13 29  2  0
 15 28  1  0
 15 29  1  0
 16 30  1  0
 17 19  1  0
 17 24  1  0
 18 31  1  0
 19 21  1  0
 21 22  1  0
 22 24  2  0
 32 25  1  0
 26 27  2  0
 26 29  1  0
 30 31  1  0
 30 32  1  0
  2 34  1  1
  3 35  1  0
  5 36  1  6
  6 37  1  0
  6 38  1  0
  7 39  1  0
  8 40  1  0
 10 41  1  0
 12 42  1  0
 12 43  1  0
 14 44  1  0
 14 45  1  0
 15 46  1  0
 17 47  1  1
 19 48  1  6
 21 49  1  6
 22 50  1  0
 24 51  1  0
 25 52  1  0
 30 53  1  6
 31 54  1  0
 31 55  1  0
 32 56  1  1
M  CHG  3   6   1  20  -1  33  -1
M  END
>  <filename_input>  (23) 
7ULC_56B_docked.sdf

>  <pdb_id>  (23) 
7ULC_56B

>  <pose_rank>  (23) 
22

>  <num_atoms_heavy>  (23) 
33

>  <num_torsions>  (23) 
7

>  <pose>  (23) 
[79.3733550204771, 18.379621734904397, 73.58987659515083, -0.6999965793241961, 1.3530378626387987, 0.9944313751881675, -1.4464325561530915, 0.5653330301268972, -0.6533405407060257, -0.2500206208236898, -0.9556050806977379, -6.137622090203362, -3.059693170605481]

>  <energy>  (23) 
-327.92579839154644

>  <inter_energy>  (23) 
-328.5724882685803

>  <intra_energy>  (23) 
10.256723321831899

>  <rmsd>  (23) 
9.32964

>  <sdf_rank>  (23) 
0

$$$$

     RDKit          3D

 56 59  0  0  0  0  0  0  0  0999 V2000
   75.3104   20.3011   61.1802 N   0  0  0  0  0  0  0  0  0  0  0  0
   75.0005   17.9698   60.0564 C   0  0  1  0  0  0  0  0  0  0  0  0
   73.6514   17.8553   59.5940 O   0  0  0  0  0  0  0  0  0  0  0  0
   79.8604   15.4052   59.8676 P   0  0  1  0  0  0  0  0  0  0  0  0
   75.0979   18.8490   61.2793 C   0  0  1  0  0  0  0  0  0  0  0  0
   78.5669   23.0840   61.5410 N   0  0  0  0  0  0  0  0  0  0  0  0
   77.8618   23.9798   65.0186 O   0  0  0  0  0  0  0  0  0  0  0  0
   76.4611   20.9952   61.1391 C   0  0  0  0  0  0  0  0  0  0  0  0
   72.9333   20.8377   61.3729 N   0  0  0  0  0  0  0  0  0  0  0  0
   79.5386   26.0851   65.0312 O   0  0  0  0  0  0  0  0  0  0  0  0
   76.1860   22.3615   61.1677 C   0  0  0  0  0  0  0  0  0  0  0  0
   70.7264   21.5424   61.5238 N   0  0  0  0  0  0  0  0  0  0  0  0
   74.1059   24.7481   60.6788 O   0  0  0  0  0  0  0  0  0  0  0  0
   77.2095   23.4757   61.1166 C   0  0  0  0  0  0  0  0  0  0  0  0
   72.4239   23.1599   61.4028 N   0  0  0  0  0  0  0  0  0  0  0  0
   76.3500   18.4257   61.9044 O   0  0  0  0  0  0  0  0  0  0  0  0
   78.8468   23.0838   63.0052 C   0  0  2  0  0  0  0  0  0  0  0  0
   78.8750   16.1058   60.9283 O   0  0  0  0  0  0  0  0  0  0  0  0
   78.3259   24.3407   63.7153 C   0  0  2  0  0  0  0  0  0  0  0  0
   79.0969   14.7641   58.7385 O   0  0  0  0  0  0  0  0  0  0  0  0
   79.5142   25.3065   63.8283 C   0  0  2  0  0  0  0  0  0  0  0  0
   80.6843   24.3592   63.7452 C   0  0  0  0  0  0  0  0  0  0  0  0
   80.8227   16.4306   59.3066 O   0  0  0  0  0  0  0  0  0  0  0  0
   80.3216   23.1650   63.2942 C   0  0  0  0  0  0  0  0  0  0  0  0
   74.6480   16.0371   61.5422 O   0  0  0  0  0  0  0  0  0  0  0  0
   74.7122   22.4168   61.2307 C   0  0  0  0  0  0  0  0  0  0  0  0
   74.2592   21.1115   61.2822 C   0  0  0  0  0  0  0  0  0  0  0  0
   72.0422   21.8532   61.4492 C   0  0  0  0  0  0  0  0  0  0  0  0
   73.8285   23.5728   61.4223 C   0  0  0  0  0  0  0  0  0  0  0  0
   76.7549   17.1335   61.4390 C   0  0  2  0  0  0  0  0  0  0  0  0
   78.0219   17.1861   60.5832 C   0  0  0  0  0  0  0  0  0  0  0  0
   75.5674   16.6713   60.6280 C   0  0  2  0  0  0  0  0  0  0  0  0
   80.5833   14.3422   60.6545 O   0  0  0  0  0  0  0  0  0  0  0  0
   75.5280   18.3309   59.1611 H   0  0  0  0  0  0  0  0  0  0  0  0
   73.0396   17.8034   60.3706 H   0  0  0  0  0  0  0  0  0  0  0  0
   74.1125   18.7278   61.7530 H   0  0  0  0  0  0  0  0  0  0  0  0
   78.7378   22.1300   61.1922 H   0  0  0  0  0  0  0  0  0  0  0  0
   79.1873   23.8078   61.1511 H   0  0  0  0  0  0  0  0  0  0  0  0
   78.4263   24.4188   65.7032 H   0  0  0  0  0  0  0  0  0  0  0  0
   77.4668   20.5523   61.0904 H   0  0  0  0  0  0  0  0  0  0  0  0
   79.5197   25.4813   65.8155 H   0  0  0  0  0  0  0  0  0  0  0  0
   70.0227   22.2922   61.5830 H   0  0  0  0  0  0  0  0  0  0  0  0
   70.4292   20.5563   61.5215 H   0  0  0  0  0  0  0  0  0  0  0  0
   76.8656   24.2877   61.7741 H   0  0  0  0  0  0  0  0  0  0  0  0
   77.2882   23.7780   60.0618 H   0  0  0  0  0  0  0  0  0  0  0  0
   71.6955   23.8864   61.3521 H   0  0  0  0  0  0  0  0  0  0  0  0
   78.3664   22.1572   63.3527 H   0  0  0  0  0  0  0  0  0  0  0  0
   77.4951   24.8066   63.1651 H   0  0  0  0  0  0  0  0  0  0  0  0
   79.4932   26.0860   63.0523 H   0  0  0  0  0  0  0  0  0  0  0  0
   81.7142   24.6258   64.0248 H   0  0  0  0  0  0  0  0  0  0  0  0
   81.0205   22.3283   63.1480 H   0  0  0  0  0  0  0  0  0  0  0  0
   74.9244   16.2278   62.4735 H   0  0  0  0  0  0  0  0  0  0  0  0
   77.0132   16.4566   62.2666 H   0  0  0  0  0  0  0  0  0  0  0  0
   78.5451   18.1370   60.7618 H   0  0  0  0  0  0  0  0  0  0  0  0
   77.7483   17.1101   59.5205 H   0  0  0  0  0  0  0  0  0  0  0  0
   75.7906   15.9508   59.8274 H   0  0  0  0  0  0  0  0  0  0  0  0
  5  1  1  0
  1  8  1  0
  1 27  1  0
  2  3  1  0
  2  5  1  0
  2 32  1  0
  4 18  1  0
  4 20  1  6
  4 23  2  0
  4 33  1  0
  5 16  1  0
  6 14  1  0
 17  6  1  0
 19  7  1  0
  8 11  2  0
  9 27  1  0
  9 28  2  0
 21 10  1  0
 11 14  1  0
 11 26  1  0
 12 28  1  0
 13 29  2  0
 15 28  1  0
 15 29  1  0
 16 30  1  0
 17 19  1  0
 17 24  1  0
 18 31  1  0
 19 21  1  0
 21 22  1  0
 22 24  2  0
 32 25  1  0
 26 27  2  0
 26 29  1  0
 30 31  1  0
 30 32  1  0
  2 34  1  6
  3 35  1  0
  5 36  1  1
  6 37  1  0
  6 38  1  0
  7 39  1  0
  8 40  1  0
 10 41  1  0
 12 42  1  0
 12 43  1  0
 14 44  1  0
 14 45  1  0
 15 46  1  0
 17 47  1  1
 19 48  1  6
 21 49  1  6
 22 50  1  0
 24 51  1  0
 25 52  1  0
 30 53  1  1
 31 54  1  0
 31 55  1  0
 32 56  1  6
M  CHG  3   6   1  20  -1  33  -1
M  END
>  <filename_input>  (24) 
7ULC_56B_docked.sdf

>  <pdb_id>  (24) 
7ULC_56B

>  <pose_rank>  (24) 
23

>  <num_atoms_heavy>  (24) 
33

>  <num_torsions>  (24) 
7

>  <pose>  (24) 
[75.31037185023351, 20.30109579804492, 61.18015306913154, 2.9655038151324544, 3.9741572298017616, 2.3903650763660953, 5.1754822120914, 1.3509138281139006, -0.38293703688490244, 0.12337031515427699, -2.923523910421121, 2.0320459885030075, 0.6061109888253917]

>  <energy>  (24) 
-315.78009902841353

>  <inter_energy>  (24) 
-314.42783752495274

>  <intra_energy>  (24) 
0.43836465743890923

>  <rmsd>  (24) 
10.1542

>  <sdf_rank>  (24) 
0

$$$$

     RDKit          3D

 56 59  0  0  0  0  0  0  0  0999 V2000
   77.9735   19.5656   61.2750 N   0  0  0  0  0  0  0  0  0  0  0  0
   80.3262   20.5268   60.6962 C   0  0  1  0  0  0  0  0  0  0  0  0
   80.6387   20.1979   59.3393 O   0  0  0  0  0  0  0  0  0  0  0  0
   80.7805   23.0714   65.9031 P   0  0  1  0  0  0  0  0  0  0  0  0
   79.4409   19.4832   61.3330 C   0  0  1  0  0  0  0  0  0  0  0  0
   74.2684   22.0226   61.4064 N   0  0  0  0  0  0  0  0  0  0  0  0
   72.1217   23.4017   58.7828 O   0  0  0  0  0  0  0  0  0  0  0  0
   77.1414   20.4266   61.8864 C   0  0  0  0  0  0  0  0  0  0  0  0
   77.7375   17.5241   59.9512 N   0  0  0  0  0  0  0  0  0  0  0  0
   70.2207   24.2400   60.4939 O   0  0  0  0  0  0  0  0  0  0  0  0
   75.8200   20.0561   61.6413 C   0  0  0  0  0  0  0  0  0  0  0  0
   77.3134   15.6252   58.6847 N   0  0  0  0  0  0  0  0  0  0  0  0
   73.7101   18.4784   59.8192 O   0  0  0  0  0  0  0  0  0  0  0  0
   74.5869   20.7812   62.1367 C   0  0  0  0  0  0  0  0  0  0  0  0
   75.4969   16.8728   59.4947 N   0  0  0  0  0  0  0  0  0  0  0  0
   79.6744   19.6660   62.7647 O   0  0  0  0  0  0  0  0  0  0  0  0
   73.1275   21.9728   60.4481 C   0  0  2  0  0  0  0  0  0  0  0  0
   80.9673   21.7733   64.9720 O   0  0  0  0  0  0  0  0  0  0  0  0
   72.5331   23.3563   60.1513 C   0  0  2  0  0  0  0  0  0  0  0  0
   80.8712   22.7240   67.3659 O   0  0  0  0  0  0  0  0  0  0  0  0
   71.3157   23.5190   61.0728 C   0  0  2  0  0  0  0  0  0  0  0  0
   70.9574   22.0826   61.3588 C   0  0  0  0  0  0  0  0  0  0  0  0
   81.8362   24.1021   65.5637 O   0  0  0  0  0  0  0  0  0  0  0  0
   71.9393   21.2535   61.0277 C   0  0  0  0  0  0  0  0  0  0  0  0
   82.2881   19.2437   61.4520 O   0  0  0  0  0  0  0  0  0  0  0  0
   75.9489   18.8525   60.7964 C   0  0  0  0  0  0  0  0  0  0  0  0
   77.3005   18.5953   60.6604 C   0  0  0  0  0  0  0  0  0  0  0  0
   76.8411   16.6749   59.3977 C   0  0  0  0  0  0  0  0  0  0  0  0
   74.9123   17.9248   60.3285 C   0  0  0  0  0  0  0  0  0  0  0  0
   80.8933   20.3770   63.0081 C   0  0  2  0  0  0  0  0  0  0  0  0
   80.6554   21.7728   63.5876 C   0  0  0  0  0  0  0  0  0  0  0  0
   81.5263   20.4552   61.6390 C   0  0  2  0  0  0  0  0  0  0  0  0
   79.3952   23.5760   65.5901 O   0  0  0  0  0  0  0  0  0  0  0  0
   79.8922   21.5332   60.6021 H   0  0  0  0  0  0  0  0  0  0  0  0
   81.3206   19.4804   59.3224 H   0  0  0  0  0  0  0  0  0  0  0  0
   79.7056   18.5651   60.7879 H   0  0  0  0  0  0  0  0  0  0  0  0
   74.0548   22.7479   62.1057 H   0  0  0  0  0  0  0  0  0  0  0  0
   75.0973   22.2096   60.8243 H   0  0  0  0  0  0  0  0  0  0  0  0
   71.1388   23.5103   58.7372 H   0  0  0  0  0  0  0  0  0  0  0  0
   77.4555   21.2919   62.4885 H   0  0  0  0  0  0  0  0  0  0  0  0
   69.6537   24.6133   61.2145 H   0  0  0  0  0  0  0  0  0  0  0  0
   76.6572   14.9604   58.2507 H   0  0  0  0  0  0  0  0  0  0  0  0
   78.3289   15.4914   58.5764 H   0  0  0  0  0  0  0  0  0  0  0  0
   74.7413   21.0363   63.1955 H   0  0  0  0  0  0  0  0  0  0  0  0
   73.7391   20.0991   61.9759 H   0  0  0  0  0  0  0  0  0  0  0  0
   74.8667   16.2579   58.9603 H   0  0  0  0  0  0  0  0  0  0  0  0
   73.5642   21.4879   59.5626 H   0  0  0  0  0  0  0  0  0  0  0  0
   73.2633   24.1607   60.3237 H   0  0  0  0  0  0  0  0  0  0  0  0
   71.5437   24.1254   61.9618 H   0  0  0  0  0  0  0  0  0  0  0  0
   69.9979   21.7607   61.7899 H   0  0  0  0  0  0  0  0  0  0  0  0
   71.8902   20.1628   61.1618 H   0  0  0  0  0  0  0  0  0  0  0  0
   82.5267   18.8643   62.3348 H   0  0  0  0  0  0  0  0  0  0  0  0
   81.5239   19.8752   63.7567 H   0  0  0  0  0  0  0  0  0  0  0  0
   79.6001   22.0512   63.4501 H   0  0  0  0  0  0  0  0  0  0  0  0
   81.2986   22.4983   63.0681 H   0  0  0  0  0  0  0  0  0  0  0  0
   82.2069   21.3042   61.4782 H   0  0  0  0  0  0  0  0  0  0  0  0
  5  1  1  0
  1  8  1  0
  1 27  1  0
  2  3  1  0
  2  5  1  0
  2 32  1  0
  4 18  1  0
  4 20  1  1
  4 23  2  0
  4 33  1  0
  5 16  1  0
  6 14  1  0
 17  6  1  0
 19  7  1  0
  8 11  2  0
  9 27  1  0
  9 28  2  0
 21 10  1  0
 11 14  1  0
 11 26  1  0
 12 28  1  0
 13 29  2  0
 15 28  1  0
 15 29  1  0
 16 30  1  0
 17 19  1  0
 17 24  1  0
 18 31  1  0
 19 21  1  0
 21 22  1  0
 22 24  2  0
 32 25  1  0
 26 27  2  0
 26 29  1  0
 30 31  1  0
 30 32  1  0
  2 34  1  6
  3 35  1  0
  5 36  1  6
  6 37  1  0
  6 38  1  0
  7 39  1  0
  8 40  1  0
 10 41  1  0
 12 42  1  0
 12 43  1  0
 14 44  1  0
 14 45  1  0
 15 46  1  0
 17 47  1  6
 19 48  1  6
 21 49  1  1
 22 50  1  0
 24 51  1  0
 25 52  1  0
 30 53  1  1
 31 54  1  0
 31 55  1  0
 32 56  1  1
M  CHG  3   6   1  20  -1  33  -1
M  END
>  <filename_input>  (25) 
7ULC_56B_docked.sdf

>  <pdb_id>  (25) 
7ULC_56B

>  <pose_rank>  (25) 
24

>  <num_atoms_heavy>  (25) 
33

>  <num_torsions>  (25) 
7

>  <pose>  (25) 
[77.97349821440294, 19.565589188961564, 61.27495618773306, -1.900226825056157, 3.1540519528258, -2.792392631815607, -0.7659609600825564, 0.7690917533904265, 0.19471310040908676, -2.161157191521373, -1.206933191317143, -0.9698535721531489, -2.124765514929817]

>  <energy>  (25) 
-306.9614693533766

>  <inter_energy>  (25) 
-302.84370290303946

>  <intra_energy>  (25) 
0.26038474928509375

>  <rmsd>  (25) 
11.2299

>  <sdf_rank>  (25) 
0

$$$$

     RDKit          3D

 56 59  0  0  0  0  0  0  0  0999 V2000
   71.4090   14.7190   67.5070 N   0  0  0  0  0  0  0  0  0  0  0  0
   72.3040   13.0620   65.7050 C   0  0  1  0  0  0  0  0  0  0  0  0
   71.4150   13.0740   64.5840 O   0  0  0  0  0  0  0  0  0  0  0  0
   76.7420   12.8230   69.2350 P   0  0  1  0  0  0  0  0  0  0  0  0
   71.5770   13.3500   66.9960 C   0  0  1  0  0  0  0  0  0  0  0  0
   71.2710   19.3320   68.3100 N   0  0  0  0  0  0  0  0  0  0  0  0
   73.1570   21.4940   70.5820 O   0  0  0  0  0  0  0  0  0  0  0  0
   72.1670   15.8090   67.2950 C   0  0  0  0  0  0  0  0  0  0  0  0
   69.5250   14.1350   68.9510 N   0  0  0  0  0  0  0  0  0  0  0  0
   71.0180   22.1200   72.0910 O   0  0  0  0  0  0  0  0  0  0  0  0
   71.7010   16.8640   68.0780 C   0  0  0  0  0  0  0  0  0  0  0  0
   67.7200   13.7790   70.3670 N   0  0  0  0  0  0  0  0  0  0  0  0
   69.3050   18.1950   69.7360 O   0  0  0  0  0  0  0  0  0  0  0  0
   72.2710   18.2660   68.1110 C   0  0  0  0  0  0  0  0  0  0  0  0
   68.6890   15.9160   70.2860 N   0  0  0  0  0  0  0  0  0  0  0  0
   72.4540   12.7770   68.0160 O   0  0  0  0  0  0  0  0  0  0  0  0
   71.7710   20.6500   68.7950 C   0  0  2  0  0  0  0  0  0  0  0  0
   75.2170   12.5190   68.8240 O   0  0  0  0  0  0  0  0  0  0  0  0
   72.0150   20.6780   70.3100 C   0  0  2  0  0  0  0  0  0  0  0  0
   77.6210   11.6150   69.0430 O   0  0  0  0  0  0  0  0  0  0  0  0
   70.7620   21.2970   70.9460 C   0  0  2  0  0  0  0  0  0  0  0  0
   70.1980   22.0910   69.7950 C   0  0  0  0  0  0  0  0  0  0  0  0
   77.2770   13.9720   68.4070 O   0  0  0  0  0  0  0  0  0  0  0  0
   70.7390   21.7340   68.6370 C   0  0  0  0  0  0  0  0  0  0  0  0
   71.8370   10.6670   66.0410 O   0  0  0  0  0  0  0  0  0  0  0  0
   70.5540   16.2790   68.8000 C   0  0  0  0  0  0  0  0  0  0  0  0
   70.4750   14.9500   68.4270 C   0  0  0  0  0  0  0  0  0  0  0  0
   68.6640   14.6170   69.8770 C   0  0  0  0  0  0  0  0  0  0  0  0
   69.7380   16.8520   69.8770 C   0  0  0  0  0  0  0  0  0  0  0  0
   73.3620   11.8260   67.4490 C   0  0  2  0  0  0  0  0  0  0  0  0
   74.8140   12.3070   67.4800 C   0  0  0  0  0  0  0  0  0  0  0  0
   72.8660   11.6790   66.0300 C   0  0  2  0  0  0  0  0  0  0  0  0
   76.6850   13.1770   70.6990 O   0  0  0  0  0  0  0  0  0  0  0  0
   73.0682   13.7959   65.4092 H   0  0  0  0  0  0  0  0  0  0  0  0
   70.4787   13.0866   64.9055 H   0  0  0  0  0  0  0  0  0  0  0  0
   70.5591   12.9838   66.7964 H   0  0  0  0  0  0  0  0  0  0  0  0
   70.8030   19.4911   67.4064 H   0  0  0  0  0  0  0  0  0  0  0  0
   70.6587   18.9859   69.0625 H   0  0  0  0  0  0  0  0  0  0  0  0
   73.2761   21.5791   71.5611 H   0  0  0  0  0  0  0  0  0  0  0  0
   73.0246   15.8605   66.6081 H   0  0  0  0  0  0  0  0  0  0  0  0
   70.8554   21.5974   72.9160 H   0  0  0  0  0  0  0  0  0  0  0  0
   67.0495   14.1150   71.0730 H   0  0  0  0  0  0  0  0  0  0  0  0
   67.6724   12.8056   70.0337 H   0  0  0  0  0  0  0  0  0  0  0  0
   72.7833   18.4505   67.1552 H   0  0  0  0  0  0  0  0  0  0  0  0
   72.9465   18.3071   68.9782 H   0  0  0  0  0  0  0  0  0  0  0  0
   67.9402   16.2532   70.9077 H   0  0  0  0  0  0  0  0  0  0  0  0
   72.6859   20.8045   68.2041 H   0  0  0  0  0  0  0  0  0  0  0  0
   72.2006   19.6715   70.7130 H   0  0  0  0  0  0  0  0  0  0  0  0
   70.0845   20.5353   71.3594 H   0  0  0  0  0  0  0  0  0  0  0  0
   69.4307   22.8719   69.9022 H   0  0  0  0  0  0  0  0  0  0  0  0
   70.4640   22.1804   67.6700 H   0  0  0  0  0  0  0  0  0  0  0  0
   71.6068   10.4406   66.9769 H   0  0  0  0  0  0  0  0  0  0  0  0
   73.3764   10.8803   68.0106 H   0  0  0  0  0  0  0  0  0  0  0  0
   74.8994   13.2495   66.9193 H   0  0  0  0  0  0  0  0  0  0  0  0
   75.4609   11.5451   67.0206 H   0  0  0  0  0  0  0  0  0  0  0  0
   73.6227   11.3759   65.2914 H   0  0  0  0  0  0  0  0  0  0  0  0
  5  1  1  0
  1  8  1  0
  1 27  1  0
  2  3  1  0
  2  5  1  0
  2 32  1  0
  4 18  1  0
  4 20  1  1
  4 23  2  0
  4 33  1  0
  5 16  1  0
  6 14  1  0
 17  6  1  0
 19  7  1  0
  8 11  2  0
  9 27  1  0
  9 28  2  0
 21 10  1  0
 11 14  1  0
 11 26  1  0
 12 28  1  0
 13 29  2  0
 15 28  1  0
 15 29  1  0
 16 30  1  0
 17 19  1  0
 17 24  1  0
 18 31  1  0
 19 21  1  0
 21 22  1  0
 22 24  2  0
 32 25  1  0
 26 27  2  0
 26 29  1  0
 30 31  1  0
 30 32  1  0
  2 34  1  6
  3 35  1  0
  5 36  1  6
  6 37  1  0
  6 38  1  0
  7 39  1  0
  8 40  1  0
 10 41  1  0
 12 42  1  0
 12 43  1  0
 14 44  1  0
 14 45  1  0
 15 46  1  0
 17 47  1  6
 19 48  1  1
 21 49  1  1
 22 50  1  0
 24 51  1  0
 25 52  1  0
 30 53  1  1
 31 54  1  0
 31 55  1  0
 32 56  1  6
M  CHG  3   6   1  20  -1  33  -1
M  END
>  <filename_input>  (26) 
7ULC_56B_docked.sdf

>  <pdb_id>  (26) 
7ULC_56B

>  <pose_rank>  (26) 
25

>  <num_atoms_heavy>  (26) 
33

>  <num_torsions>  (26) 
7

>  <pose>  (26) 
[71.409, 14.719, 67.507, 1e-06, 1e-06, 1e-06, 0.0, 0.0, 0.0, 0.0, 0.0, 0.0, 0.0]

>  <energy>  (26) 
-1046.9785583205617

>  <inter_energy>  (26) 
-1069.9294575544986

>  <intra_energy>  (26) 
25.231175680346414

>  <rmsd>  (26) 
0.0

>  <sdf_rank>  (26) 
0

$$$$
