
     RDKit          3D

 70 74  0  0  0  0  0  0  0  0999 V2000
  -44.7929   52.3588  -26.6237 P   0  0  1  0  0  0  0  0  0  0  0  0
  -45.6096   53.0612  -27.6913 O   0  0  0  0  0  0  0  0  0  0  0  0
  -43.3329   52.6636  -26.7267 O   0  0  0  0  0  0  0  0  0  0  0  0
  -45.5235   52.7890  -25.2055 O   0  0  0  0  0  0  0  0  0  0  0  0
  -44.9678   52.2453  -24.0630 C   0  0  0  0  0  0  0  0  0  0  0  0
  -45.7433   52.8968  -22.8747 C   0  0  1  0  0  0  0  0  0  0  0  0
  -45.0135   52.3668  -21.6027 O   0  0  0  0  0  0  0  0  0  0  0  0
  -45.6235   54.1684  -22.8475 C   0  0  1  0  0  0  0  0  0  0  0  0
  -46.9188   54.8169  -22.8572 O   0  0  0  0  0  0  0  0  0  0  0  0
  -45.0413   54.5355  -21.3410 C   0  0  1  0  0  0  0  0  0  0  0  0
  -45.6388   55.7792  -20.8712 O   0  0  0  0  0  0  0  0  0  0  0  0
  -45.3704   53.4885  -20.6565 C   0  0  2  0  0  0  0  0  0  0  0  0
  -44.5214   53.4082  -19.4461 N   0  0  0  0  0  0  0  0  0  0  0  0
  -44.8916   53.5859  -18.2041 C   0  0  0  0  0  0  0  0  0  0  0  0
  -43.8304   53.3480  -17.4199 N   0  0  0  0  0  0  0  0  0  0  0  0
  -42.7680   53.0409  -18.2046 C   0  0  0  0  0  0  0  0  0  0  0  0
  -41.4262   52.7235  -17.9655 C   0  0  0  0  0  0  0  0  0  0  0  0
  -40.9460   52.6870  -16.6255 N   0  0  0  0  0  0  0  0  0  0  0  0
  -40.6446   52.4764  -19.0040 N   0  0  0  0  0  0  0  0  0  0  0  0
  -41.0859   52.4993  -20.2356 C   0  0  0  0  0  0  0  0  0  0  0  0
  -42.3444   52.8152  -20.5056 N   0  0  0  0  0  0  0  0  0  0  0  0
  -43.1946   53.0846  -19.4930 C   0  0  0  0  0  0  0  0  0  0  0  0
  -44.9681   50.7498  -26.7542 O   0  0  0  0  0  0  0  0  0  0  0  0
  -46.3500   49.9430  -27.1789 P   0  0  2  0  0  0  0  0  0  0  0  0
  -46.4536   50.0447  -28.6598 O   0  0  0  0  0  0  0  0  0  0  0  0
  -47.5158   50.4927  -26.3884 O   0  0  0  0  0  0  0  0  0  0  0  0
  -46.0527   48.3541  -26.7444 O   0  0  0  0  0  0  0  0  0  0  0  0
  -46.4534   47.9118  -25.4034 C   0  0  0  0  0  0  0  0  0  0  0  0
  -45.8567   46.5074  -25.1802 C   0  0  1  0  0  0  0  0  0  0  0  0
  -45.9934   45.8012  -26.3074 O   0  0  0  0  0  0  0  0  0  0  0  0
  -44.3159   46.5619  -24.8791 C   0  0  1  0  0  0  0  0  0  0  0  0
  -43.9797   45.6889  -23.8720 O   0  0  0  0  0  0  0  0  0  0  0  0
  -43.6870   46.1083  -26.1910 C   0  0  1  0  0  0  0  0  0  0  0  0
  -42.3015   45.5968  -25.9525 O   0  0  0  0  0  0  0  0  0  0  0  0
  -44.5610   45.1433  -26.5786 C   0  0  2  0  0  0  0  0  0  0  0  0
  -44.6484   44.7570  -27.9517 N   0  0  0  0  0  0  0  0  0  0  0  0
  -44.7189   45.6677  -28.9346 C   0  0  0  0  0  0  0  0  0  0  0  0
  -44.8730   45.2350  -30.2736 C   0  0  0  0  0  0  0  0  0  0  0  0
  -44.9060   46.2507  -31.4052 C   0  0  0  0  0  0  0  0  0  0  0  0
  -45.7365   47.1414  -31.4177 O   0  0  0  0  0  0  0  0  0  0  0  0
  -43.8794   46.0781  -32.4840 N   0  0  0  0  0  0  0  0  0  0  0  0
  -44.9809   43.8869  -30.6238 C   0  0  0  0  0  0  0  0  0  0  0  0
  -44.9130   42.9797  -29.5318 C   0  0  0  0  0  0  0  0  0  0  0  0
  -44.7652   43.4611  -28.2175 C   0  0  0  0  0  0  0  0  0  0  0  0
  -45.0972   51.1530  -24.0543 H   0  0  0  0  0  0  0  0  0  0  0  0
  -43.8868   52.4392  -24.0015 H   0  0  0  0  0  0  0  0  0  0  0  0
  -46.8138   52.6559  -22.9516 H   0  0  0  0  0  0  0  0  0  0  0  0
  -45.0068   54.4844  -23.7018 H   0  0  0  0  0  0  0  0  0  0  0  0
  -47.2194   54.9674  -21.9261 H   0  0  0  0  0  0  0  0  0  0  0  0
  -43.9595   54.7248  -21.2792 H   0  0  0  0  0  0  0  0  0  0  0  0
  -45.6438   55.7896  -19.8813 H   0  0  0  0  0  0  0  0  0  0  0  0
  -46.4187   53.4761  -20.3233 H   0  0  0  0  0  0  0  0  0  0  0  0
  -45.8957   53.8785  -17.8635 H   0  0  0  0  0  0  0  0  0  0  0  0
  -39.9603   52.4545  -16.4378 H   0  0  0  0  0  0  0  0  0  0  0  0
  -41.5844   52.8929  -15.8438 H   0  0  0  0  0  0  0  0  0  0  0  0
  -40.4012   52.2524  -21.0604 H   0  0  0  0  0  0  0  0  0  0  0  0
  -46.0653   48.6092  -24.6465 H   0  0  0  0  0  0  0  0  0  0  0  0
  -47.5496   47.8850  -25.3160 H   0  0  0  0  0  0  0  0  0  0  0  0
  -46.3846   46.0594  -24.3255 H   0  0  0  0  0  0  0  0  0  0  0  0
  -43.9830   47.5574  -24.5500 H   0  0  0  0  0  0  0  0  0  0  0  0
  -44.1447   46.1175  -22.9949 H   0  0  0  0  0  0  0  0  0  0  0  0
  -43.5523   46.8904  -26.9527 H   0  0  0  0  0  0  0  0  0  0  0  0
  -42.1354   45.5355  -24.9784 H   0  0  0  0  0  0  0  0  0  0  0  0
  -44.2291   44.2417  -26.0428 H   0  0  0  0  0  0  0  0  0  0  0  0
  -44.6575   46.7411  -28.7020 H   0  0  0  0  0  0  0  0  0  0  0  0
  -43.8508   46.7344  -33.2773 H   0  0  0  0  0  0  0  0  0  0  0  0
  -43.2028   45.3033  -32.4318 H   0  0  0  0  0  0  0  0  0  0  0  0
  -45.1084   43.5533  -31.6642 H   0  0  0  0  0  0  0  0  0  0  0  0
  -44.9762   41.8969  -29.7146 H   0  0  0  0  0  0  0  0  0  0  0  0
  -44.7458   42.7421  -27.3853 H   0  0  0  0  0  0  0  0  0  0  0  0
  1  2  2  0
  1  3  1  1
  1  4  1  0
  1 23  1  0
  4  5  1  0
  6  5  1  0
  6  7  1  0
  6  8  1  0
  7 12  1  0
  8  9  1  0
  8 10  1  0
 10 11  1  0
 10 12  1  0
 12 13  1  0
 13 14  1  0
 13 22  1  0
 14 15  2  0
 15 16  1  0
 16 17  2  0
 16 22  1  0
 17 18  1  0
 17 19  1  0
 19 20  2  0
 20 21  1  0
 21 22  2  0
 23 24  1  0
 24 25  2  0
 24 26  1  1
 24 27  1  0
 27 28  1  0
 29 28  1  0
 29 30  1  0
 29 31  1  0
 30 35  1  0
 31 32  1  0
 31 33  1  0
 33 34  1  0
 33 35  1  0
 35 36  1  0
 36 37  2  0
 36 44  1  0
 37 38  1  0
 38 39  1  0
 38 42  2  0
 39 40  2  0
 39 41  1  0
 42 43  1  0
 43 44  2  0
  5 45  1  0
  5 46  1  0
  6 47  1  1
  8 48  1  6
  9 49  1  0
 10 50  1  6
 11 51  1  0
 12 52  1  1
 14 53  1  0
 18 54  1  0
 18 55  1  0
 20 56  1  0
 28 57  1  0
 28 58  1  0
 29 59  1  1
 31 60  1  1
 32 61  1  0
 33 62  1  6
 34 63  1  0
 35 64  1  1
 37 65  1  0
 41 66  1  0
 41 67  1  0
 42 68  1  0
 43 69  1  0
 44 70  1  0
M  CHG  3   3  -1  26  -1  36   1
M  END
>  <filename_input>  (1) 
7UMW_NAD_docked.sdf

>  <pdb_id>  (1) 
7UMW_NAD

>  <pose_rank>  (1) 
0

>  <num_atoms_heavy>  (1) 
44

>  <num_torsions>  (1) 
11

>  <pose>  (1) 
[-44.79294169526242, 52.35877235273001, -26.623713277427992, 4.758495683441004, 1.4125370662262207, 2.6396264391612805, -0.5127878678126176, 0.7890904963370535, 0.2161414560239855, -3.2633037565714034, 0.6863405138269181, 4.783138976119075, -0.7208671809715236, 0.8925626869626172, -5.795465627612112, -0.11248638095500248, -3.6302921901136984]

>  <energy>  (1) 
-1185.9604945325068

>  <inter_energy>  (1) 
-1196.6063868114568

>  <intra_energy>  (1) 
18.520803056229337

>  <rmsd>  (1) 
1.58393

>  <sdf_rank>  (1) 
0

$$$$

     RDKit          3D

 70 74  0  0  0  0  0  0  0  0999 V2000
  -44.9348   51.9101  -26.9700 P   0  0  1  0  0  0  0  0  0  0  0  0
  -45.7516   52.5721  -28.0630 O   0  0  0  0  0  0  0  0  0  0  0  0
  -43.4630   52.0225  -27.2075 O   0  0  0  0  0  0  0  0  0  0  0  0
  -45.4964   52.5925  -25.5740 O   0  0  0  0  0  0  0  0  0  0  0  0
  -45.3059   51.8431  -24.4287 C   0  0  0  0  0  0  0  0  0  0  0  0
  -44.7432   52.8420  -23.3688 C   0  0  1  0  0  0  0  0  0  0  0  0
  -43.6697   53.6633  -24.1465 O   0  0  0  0  0  0  0  0  0  0  0  0
  -45.6178   53.6859  -22.9753 C   0  0  1  0  0  0  0  0  0  0  0  0
  -45.7634   53.6561  -21.5344 O   0  0  0  0  0  0  0  0  0  0  0  0
  -44.9577   55.1806  -23.2459 C   0  0  1  0  0  0  0  0  0  0  0  0
  -45.3385   56.0895  -22.1719 O   0  0  0  0  0  0  0  0  0  0  0  0
  -43.6928   54.9162  -23.3036 C   0  0  2  0  0  0  0  0  0  0  0  0
  -42.9961   56.0100  -24.0180 N   0  0  0  0  0  0  0  0  0  0  0  0
  -43.5087   57.1397  -24.4326 C   0  0  0  0  0  0  0  0  0  0  0  0
  -42.5179   57.8725  -24.9608 N   0  0  0  0  0  0  0  0  0  0  0  0
  -41.3654   57.1611  -24.8935 C   0  0  0  0  0  0  0  0  0  0  0  0
  -40.0428   57.3894  -25.2893 C   0  0  0  0  0  0  0  0  0  0  0  0
  -39.7071   58.6183  -25.9255 N   0  0  0  0  0  0  0  0  0  0  0  0
  -39.1474   56.4419  -25.0639 N   0  0  0  0  0  0  0  0  0  0  0  0
  -39.4511   55.3161  -24.4703 C   0  0  0  0  0  0  0  0  0  0  0  0
  -40.6958   55.0530  -24.0985 N   0  0  0  0  0  0  0  0  0  0  0  0
  -41.6602   55.9740  -24.3040 C   0  0  0  0  0  0  0  0  0  0  0  0
  -45.2975   50.3300  -26.8803 O   0  0  0  0  0  0  0  0  0  0  0  0
  -46.6960   49.6118  -27.3990 P   0  0  2  0  0  0  0  0  0  0  0  0
  -46.6109   49.5572  -28.8836 O   0  0  0  0  0  0  0  0  0  0  0  0
  -47.8834   50.3511  -26.8248 O   0  0  0  0  0  0  0  0  0  0  0  0
  -46.6219   48.0604  -26.7748 O   0  0  0  0  0  0  0  0  0  0  0  0
  -46.3040   47.8967  -25.3512 C   0  0  0  0  0  0  0  0  0  0  0  0
  -45.8314   46.4433  -25.1453 C   0  0  1  0  0  0  0  0  0  0  0  0
  -45.9812   45.7785  -26.2957 O   0  0  0  0  0  0  0  0  0  0  0  0
  -44.3039   46.3646  -24.7872 C   0  0  1  0  0  0  0  0  0  0  0  0
  -44.0780   45.4427  -23.7929 O   0  0  0  0  0  0  0  0  0  0  0  0
  -43.6637   45.8935  -26.0874 C   0  0  1  0  0  0  0  0  0  0  0  0
  -42.3341   45.2651  -25.8130 O   0  0  0  0  0  0  0  0  0  0  0  0
  -44.5971   45.0128  -26.5328 C   0  0  2  0  0  0  0  0  0  0  0  0
  -44.6627   44.6687  -27.9183 N   0  0  0  0  0  0  0  0  0  0  0  0
  -44.6507   45.6077  -28.8768 C   0  0  0  0  0  0  0  0  0  0  0  0
  -44.7865   45.2202  -30.2315 C   0  0  0  0  0  0  0  0  0  0  0  0
  -44.7264   46.2658  -31.3344 C   0  0  0  0  0  0  0  0  0  0  0  0
  -44.4799   45.9449  -32.4832 O   0  0  0  0  0  0  0  0  0  0  0  0
  -44.9735   47.6850  -30.9197 N   0  0  0  0  0  0  0  0  0  0  0  0
  -44.9589   43.8902  -30.6228 C   0  0  0  0  0  0  0  0  0  0  0  0
  -44.9767   42.9520  -29.5554 C   0  0  0  0  0  0  0  0  0  0  0  0
  -44.8438   43.3891  -28.2241 C   0  0  0  0  0  0  0  0  0  0  0  0
  -46.2594   51.4148  -24.0859 H   0  0  0  0  0  0  0  0  0  0  0  0
  -44.6207   50.9999  -24.6006 H   0  0  0  0  0  0  0  0  0  0  0  0
  -44.3826   52.2883  -22.4894 H   0  0  0  0  0  0  0  0  0  0  0  0
  -46.5701   53.4715  -23.4824 H   0  0  0  0  0  0  0  0  0  0  0  0
  -44.8871   53.8356  -21.1104 H   0  0  0  0  0  0  0  0  0  0  0  0
  -45.2963   55.6954  -24.1572 H   0  0  0  0  0  0  0  0  0  0  0  0
  -45.1589   55.6609  -21.2978 H   0  0  0  0  0  0  0  0  0  0  0  0
  -43.2082   54.8043  -22.3225 H   0  0  0  0  0  0  0  0  0  0  0  0
  -44.5656   57.4361  -24.3606 H   0  0  0  0  0  0  0  0  0  0  0  0
  -38.7367   58.7970  -26.2210 H   0  0  0  0  0  0  0  0  0  0  0  0
  -40.4347   59.3285  -26.0902 H   0  0  0  0  0  0  0  0  0  0  0  0
  -38.6607   54.5760  -24.2766 H   0  0  0  0  0  0  0  0  0  0  0  0
  -45.5055   48.5957  -25.0619 H   0  0  0  0  0  0  0  0  0  0  0  0
  -47.1872   48.1082  -24.7304 H   0  0  0  0  0  0  0  0  0  0  0  0
  -46.4261   46.0190  -24.3229 H   0  0  0  0  0  0  0  0  0  0  0  0
  -43.9048   47.3212  -24.4189 H   0  0  0  0  0  0  0  0  0  0  0  0
  -44.1844   45.8770  -22.9097 H   0  0  0  0  0  0  0  0  0  0  0  0
  -43.4373   46.6804  -26.8219 H   0  0  0  0  0  0  0  0  0  0  0  0
  -42.1956   45.1996  -24.8350 H   0  0  0  0  0  0  0  0  0  0  0  0
  -44.3597   44.0743  -26.0104 H   0  0  0  0  0  0  0  0  0  0  0  0
  -44.5363   46.6693  -28.6121 H   0  0  0  0  0  0  0  0  0  0  0  0
  -44.9463   48.4387  -31.6211 H   0  0  0  0  0  0  0  0  0  0  0  0
  -45.1705   47.9064  -29.9332 H   0  0  0  0  0  0  0  0  0  0  0  0
  -45.0720   43.5922  -31.6756 H   0  0  0  0  0  0  0  0  0  0  0  0
  -45.0950   41.8798  -29.7705 H   0  0  0  0  0  0  0  0  0  0  0  0
  -44.8912   42.6483  -27.4123 H   0  0  0  0  0  0  0  0  0  0  0  0
  1  2  2  0
  1  3  1  6
  1  4  1  0
  1 23  1  0
  4  5  1  0
  6  5  1  0
  6  7  1  0
  6  8  1  0
  7 12  1  0
  8  9  1  0
  8 10  1  0
 10 11  1  0
 10 12  1  0
 12 13  1  0
 13 14  1  0
 13 22  1  0
 14 15  2  0
 15 16  1  0
 16 17  2  0
 16 22  1  0
 17 18  1  0
 17 19  1  0
 19 20  2  0
 20 21  1  0
 21 22  2  0
 23 24  1  0
 24 25  2  0
 24 26  1  6
 24 27  1  0
 27 28  1  0
 29 28  1  0
 29 30  1  0
 29 31  1  0
 30 35  1  0
 31 32  1  0
 31 33  1  0
 33 34  1  0
 33 35  1  0
 35 36  1  0
 36 37  2  0
 36 44  1  0
 37 38  1  0
 38 39  1  0
 38 42  2  0
 39 40  2  0
 39 41  1  0
 42 43  1  0
 43 44  2  0
  5 45  1  0
  5 46  1  0
  6 47  1  1
  8 48  1  6
  9 49  1  0
 10 50  1  6
 11 51  1  0
 12 52  1  1
 14 53  1  0
 18 54  1  0
 18 55  1  0
 20 56  1  0
 28 57  1  0
 28 58  1  0
 29 59  1  1
 31 60  1  1
 32 61  1  0
 33 62  1  6
 34 63  1  0
 35 64  1  1
 37 65  1  0
 41 66  1  0
 41 67  1  0
 42 68  1  0
 43 69  1  0
 44 70  1  0
M  CHG  3   3  -1  26  -1  36   1
M  END
>  <filename_input>  (2) 
7UMW_NAD_docked.sdf

>  <pdb_id>  (2) 
7UMW_NAD

>  <pose_rank>  (2) 
1

>  <num_atoms_heavy>  (2) 
44

>  <num_torsions>  (2) 
11

>  <pose>  (2) 
[-44.93477744707338, 51.91013552011101, -26.970047134077802, -0.7054000205328869, -0.08222519788567771, -0.39371111508030404, 11.663124528582921, -6.216776370836215, 8.782477587724552, -5.089087009771846, -5.363140954540618, 10.997224335911971, 4.825361352948234, 1.0573665907227034, -17.73914847261373, 6.14542809412384, 0.1722141870737113]

>  <energy>  (2) 
-1089.1449564474199

>  <inter_energy>  (2) 
-1107.8245776684473

>  <intra_energy>  (2) 
14.558955336340208

>  <rmsd>  (2) 
3.96304

>  <sdf_rank>  (2) 
0

$$$$

     RDKit          3D

 70 74  0  0  0  0  0  0  0  0999 V2000
  -45.6001   52.1584  -27.3888 P   0  0  1  0  0  0  0  0  0  0  0  0
  -46.6146   53.0357  -28.0967 O   0  0  0  0  0  0  0  0  0  0  0  0
  -44.3195   52.0352  -28.1503 O   0  0  0  0  0  0  0  0  0  0  0  0
  -45.4823   52.8135  -25.8765 O   0  0  0  0  0  0  0  0  0  0  0  0
  -46.0870   52.0889  -24.8671 C   0  0  0  0  0  0  0  0  0  0  0  0
  -45.1408   52.2285  -23.6330 C   0  0  1  0  0  0  0  0  0  0  0  0
  -43.7809   52.6893  -24.2414 O   0  0  0  0  0  0  0  0  0  0  0  0
  -45.5053   53.1583  -22.8364 C   0  0  1  0  0  0  0  0  0  0  0  0
  -45.6894   52.6535  -21.4913 O   0  0  0  0  0  0  0  0  0  0  0  0
  -44.1936   54.1568  -22.6766 C   0  0  1  0  0  0  0  0  0  0  0  0
  -44.1155   54.6529  -21.3083 O   0  0  0  0  0  0  0  0  0  0  0  0
  -43.2162   53.3847  -23.0255 C   0  0  2  0  0  0  0  0  0  0  0  0
  -42.0545   54.2135  -23.4203 N   0  0  0  0  0  0  0  0  0  0  0  0
  -40.7995   54.0218  -23.1055 C   0  0  0  0  0  0  0  0  0  0  0  0
  -40.0704   54.9575  -23.7305 N   0  0  0  0  0  0  0  0  0  0  0  0
  -40.9049   55.7660  -24.4297 C   0  0  0  0  0  0  0  0  0  0  0  0
  -40.7333   56.8939  -25.2399 C   0  0  0  0  0  0  0  0  0  0  0  0
  -39.4225   57.4085  -25.4510 N   0  0  0  0  0  0  0  0  0  0  0  0
  -41.8068   57.4507  -25.7767 N   0  0  0  0  0  0  0  0  0  0  0  0
  -43.0112   56.9736  -25.5927 C   0  0  0  0  0  0  0  0  0  0  0  0
  -43.2182   55.9197  -24.8161 N   0  0  0  0  0  0  0  0  0  0  0  0
  -42.1674   55.3068  -24.2325 C   0  0  0  0  0  0  0  0  0  0  0  0
  -46.1978   50.6619  -27.1894 O   0  0  0  0  0  0  0  0  0  0  0  0
  -45.4376   49.2414  -27.5699 P   0  0  2  0  0  0  0  0  0  0  0  0
  -44.1583   49.2365  -26.8099 O   0  0  0  0  0  0  0  0  0  0  0  0
  -45.3223   49.1201  -29.0727 O   0  0  0  0  0  0  0  0  0  0  0  0
  -46.4525   48.0538  -26.9687 O   0  0  0  0  0  0  0  0  0  0  0  0
  -46.4654   47.8160  -25.5203 C   0  0  0  0  0  0  0  0  0  0  0  0
  -45.8770   46.4119  -25.2752 C   0  0  1  0  0  0  0  0  0  0  0  0
  -46.0006   45.6951  -26.3972 O   0  0  0  0  0  0  0  0  0  0  0  0
  -44.3403   46.4639  -24.9532 C   0  0  1  0  0  0  0  0  0  0  0  0
  -44.0213   45.5997  -23.9330 O   0  0  0  0  0  0  0  0  0  0  0  0
  -43.6949   45.9952  -26.2517 C   0  0  1  0  0  0  0  0  0  0  0  0
  -42.3148   45.4813  -25.9890 O   0  0  0  0  0  0  0  0  0  0  0  0
  -44.5670   45.0296  -26.6420 C   0  0  2  0  0  0  0  0  0  0  0  0
  -44.6368   44.6301  -28.0123 N   0  0  0  0  0  0  0  0  0  0  0  0
  -44.7522   45.5296  -29.0013 C   0  0  0  0  0  0  0  0  0  0  0  0
  -44.8863   45.0808  -30.3371 C   0  0  0  0  0  0  0  0  0  0  0  0
  -44.9695   46.0860  -31.4756 C   0  0  0  0  0  0  0  0  0  0  0  0
  -46.0220   46.6376  -31.7428 O   0  0  0  0  0  0  0  0  0  0  0  0
  -43.7018   46.3367  -32.2355 N   0  0  0  0  0  0  0  0  0  0  0  0
  -44.9289   43.7267  -30.6781 C   0  0  0  0  0  0  0  0  0  0  0  0
  -44.8161   42.8314  -29.5801 C   0  0  0  0  0  0  0  0  0  0  0  0
  -44.6907   43.3283  -28.2693 C   0  0  0  0  0  0  0  0  0  0  0  0
  -47.0807   52.5018  -24.6389 H   0  0  0  0  0  0  0  0  0  0  0  0
  -46.2361   51.0368  -25.1515 H   0  0  0  0  0  0  0  0  0  0  0  0
  -45.1212   51.2839  -23.0696 H   0  0  0  0  0  0  0  0  0  0  0  0
  -46.4262   53.6172  -23.2256 H   0  0  0  0  0  0  0  0  0  0  0  0
  -45.4344   53.3528  -20.8386 H   0  0  0  0  0  0  0  0  0  0  0  0
  -44.2119   55.0721  -23.2865 H   0  0  0  0  0  0  0  0  0  0  0  0
  -44.2341   53.8996  -20.6770 H   0  0  0  0  0  0  0  0  0  0  0  0
  -42.8764   52.6989  -22.2354 H   0  0  0  0  0  0  0  0  0  0  0  0
  -40.4111   53.2326  -22.4450 H   0  0  0  0  0  0  0  0  0  0  0  0
  -39.2846   58.2382  -26.0456 H   0  0  0  0  0  0  0  0  0  0  0  0
  -38.6123   56.9511  -25.0092 H   0  0  0  0  0  0  0  0  0  0  0  0
  -43.8658   57.4551  -26.0905 H   0  0  0  0  0  0  0  0  0  0  0  0
  -45.8531   48.5740  -25.0099 H   0  0  0  0  0  0  0  0  0  0  0  0
  -47.4905   47.8804  -25.1265 H   0  0  0  0  0  0  0  0  0  0  0  0
  -46.4183   45.9741  -24.4235 H   0  0  0  0  0  0  0  0  0  0  0  0
  -44.0085   47.4614  -24.6292 H   0  0  0  0  0  0  0  0  0  0  0  0
  -44.1846   46.0421  -23.0625 H   0  0  0  0  0  0  0  0  0  0  0  0
  -43.5468   46.7693  -27.0190 H   0  0  0  0  0  0  0  0  0  0  0  0
  -42.1639   45.4251  -25.0121 H   0  0  0  0  0  0  0  0  0  0  0  0
  -44.2458   44.1321  -26.0929 H   0  0  0  0  0  0  0  0  0  0  0  0
  -44.7427   46.6063  -28.7760 H   0  0  0  0  0  0  0  0  0  0  0  0
  -43.6942   47.0067  -33.0177 H   0  0  0  0  0  0  0  0  0  0  0  0
  -42.8384   45.8389  -31.9754 H   0  0  0  0  0  0  0  0  0  0  0  0
  -45.0410   43.3802  -31.7160 H   0  0  0  0  0  0  0  0  0  0  0  0
  -44.8269   41.7455  -29.7555 H   0  0  0  0  0  0  0  0  0  0  0  0
  -44.6358   42.6167  -27.4322 H   0  0  0  0  0  0  0  0  0  0  0  0
  1  2  2  0
  1  3  1  6
  1  4  1  0
  1 23  1  0
  4  5  1  0
  6  5  1  0
  6  7  1  0
  6  8  1  0
  7 12  1  0
  8  9  1  0
  8 10  1  0
 10 11  1  0
 10 12  1  0
 12 13  1  0
 13 14  1  0
 13 22  1  0
 14 15  2  0
 15 16  1  0
 16 17  2  0
 16 22  1  0
 17 18  1  0
 17 19  1  0
 19 20  2  0
 20 21  1  0
 21 22  2  0
 23 24  1  0
 24 25  2  0
 24 26  1  6
 24 27  1  0
 27 28  1  0
 29 28  1  0
 29 30  1  0
 29 31  1  0
 30 35  1  0
 31 32  1  0
 31 33  1  0
 33 34  1  0
 33 35  1  0
 35 36  1  0
 36 37  2  0
 36 44  1  0
 37 38  1  0
 38 39  1  0
 38 42  2  0
 39 40  2  0
 39 41  1  0
 42 43  1  0
 43 44  2  0
  5 45  1  0
  5 46  1  0
  6 47  1  1
  8 48  1  6
  9 49  1  0
 10 50  1  6
 11 51  1  0
 12 52  1  1
 14 53  1  0
 18 54  1  0
 18 55  1  0
 20 56  1  0
 28 57  1  0
 28 58  1  0
 29 59  1  1
 31 60  1  1
 32 61  1  0
 33 62  1  6
 34 63  1  0
 35 64  1  1
 37 65  1  0
 41 66  1  0
 41 67  1  0
 42 68  1  0
 43 69  1  0
 44 70  1  0
M  CHG  3   3  -1  26  -1  36   1
M  END
>  <filename_input>  (3) 
7UMW_NAD_docked.sdf

>  <pdb_id>  (3) 
7UMW_NAD

>  <pose_rank>  (3) 
2

>  <num_atoms_heavy>  (3) 
44

>  <num_torsions>  (3) 
11

>  <pose>  (3) 
[-45.60012622950555, 52.1584083248946, -27.388781469221875, 4.27363192992223, -2.0301522366987004, 2.5268401807158414, -1.7787438061703644, -6.067733018025885, 2.9512034670729395, 3.4772694104411537, 3.600259904472429, 4.40367410618759, 2.6423443662611463, 1.8952297882894744, 0.8199978704818326, 6.116424111431305, 2.2411365437637385]

>  <energy>  (3) 
-1080.3911299390563

>  <inter_energy>  (3) 
-1104.050001124279

>  <intra_energy>  (3) 
27.161262228698504

>  <rmsd>  (3) 
3.69498

>  <sdf_rank>  (3) 
0

$$$$

     RDKit          3D

 70 74  0  0  0  0  0  0  0  0999 V2000
  -44.7363   52.5860  -26.1065 P   0  0  1  0  0  0  0  0  0  0  0  0
  -44.5671   52.7801  -24.6120 O   0  0  0  0  0  0  0  0  0  0  0  0
  -45.7450   53.5196  -26.6946 O   0  0  0  0  0  0  0  0  0  0  0  0
  -43.2019   52.7069  -26.7076 O   0  0  0  0  0  0  0  0  0  0  0  0
  -42.1994   52.8000  -25.7609 C   0  0  0  0  0  0  0  0  0  0  0  0
  -41.5955   54.2292  -25.9363 C   0  0  1  0  0  0  0  0  0  0  0  0
  -41.5013   54.7876  -24.4834 O   0  0  0  0  0  0  0  0  0  0  0  0
  -40.3996   54.2061  -26.3849 C   0  0  1  0  0  0  0  0  0  0  0  0
  -40.2778   54.9969  -27.5924 O   0  0  0  0  0  0  0  0  0  0  0  0
  -39.4913   55.0601  -25.2945 C   0  0  1  0  0  0  0  0  0  0  0  0
  -38.4667   55.8228  -25.9967 O   0  0  0  0  0  0  0  0  0  0  0  0
  -40.3841   55.7810  -24.6977 C   0  0  2  0  0  0  0  0  0  0  0  0
  -39.8570   56.2281  -23.3883 N   0  0  0  0  0  0  0  0  0  0  0  0
  -39.2841   55.4927  -22.4707 C   0  0  0  0  0  0  0  0  0  0  0  0
  -38.8905   56.3043  -21.4787 N   0  0  0  0  0  0  0  0  0  0  0  0
  -39.2562   57.5742  -21.7828 C   0  0  0  0  0  0  0  0  0  0  0  0
  -39.1362   58.8133  -21.1438 C   0  0  0  0  0  0  0  0  0  0  0  0
  -38.5042   58.8829  -19.8696 N   0  0  0  0  0  0  0  0  0  0  0  0
  -39.6277   59.8823  -21.7489 N   0  0  0  0  0  0  0  0  0  0  0  0
  -40.1996   59.8225  -22.9243 C   0  0  0  0  0  0  0  0  0  0  0  0
  -40.3510   58.6658  -23.5533 N   0  0  0  0  0  0  0  0  0  0  0  0
  -39.8778   57.5350  -22.9894 C   0  0  0  0  0  0  0  0  0  0  0  0
  -45.2285   51.0710  -26.4213 O   0  0  0  0  0  0  0  0  0  0  0  0
  -44.6652   49.6868  -25.7090 P   0  0  2  0  0  0  0  0  0  0  0  0
  -44.9658   49.8129  -24.2572 O   0  0  0  0  0  0  0  0  0  0  0  0
  -43.2116   49.4889  -26.0755 O   0  0  0  0  0  0  0  0  0  0  0  0
  -45.6015   48.4682  -26.3726 O   0  0  0  0  0  0  0  0  0  0  0  0
  -46.5436   47.7591  -25.4986 C   0  0  0  0  0  0  0  0  0  0  0  0
  -45.9821   46.3422  -25.2634 C   0  0  1  0  0  0  0  0  0  0  0  0
  -46.0866   45.6471  -26.4009 O   0  0  0  0  0  0  0  0  0  0  0  0
  -44.4539   46.3658  -24.9007 C   0  0  1  0  0  0  0  0  0  0  0  0
  -44.1742   45.4792  -23.8882 O   0  0  0  0  0  0  0  0  0  0  0  0
  -43.7814   45.9103  -26.1902 C   0  0  1  0  0  0  0  0  0  0  0  0
  -42.4162   45.3714  -25.9009 O   0  0  0  0  0  0  0  0  0  0  0  0
  -44.6568   44.9647  -26.6202 C   0  0  2  0  0  0  0  0  0  0  0  0
  -44.6964   44.5903  -27.9988 N   0  0  0  0  0  0  0  0  0  0  0  0
  -44.7174   45.5096  -28.9760 C   0  0  0  0  0  0  0  0  0  0  0  0
  -44.8254   45.0894  -30.3235 C   0  0  0  0  0  0  0  0  0  0  0  0
  -44.8019   46.1143  -31.4471 C   0  0  0  0  0  0  0  0  0  0  0  0
  -44.1481   45.9171  -32.4556 O   0  0  0  0  0  0  0  0  0  0  0  0
  -45.6090   47.3587  -31.2293 N   0  0  0  0  0  0  0  0  0  0  0  0
  -44.9370   43.7457  -30.6888 C   0  0  0  0  0  0  0  0  0  0  0  0
  -44.9227   42.8292  -29.6027 C   0  0  0  0  0  0  0  0  0  0  0  0
  -44.8194   43.2982  -28.2797 C   0  0  0  0  0  0  0  0  0  0  0  0
  -42.6131   52.6785  -24.7490 H   0  0  0  0  0  0  0  0  0  0  0  0
  -41.4393   52.0157  -25.8914 H   0  0  0  0  0  0  0  0  0  0  0  0
  -42.2123   54.8110  -26.6371 H   0  0  0  0  0  0  0  0  0  0  0  0
  -40.1054   53.1600  -26.5554 H   0  0  0  0  0  0  0  0  0  0  0  0
  -40.1316   55.9460  -27.3519 H   0  0  0  0  0  0  0  0  0  0  0  0
  -38.9207   54.4583  -24.5718 H   0  0  0  0  0  0  0  0  0  0  0  0
  -37.8741   56.2640  -25.3377 H   0  0  0  0  0  0  0  0  0  0  0  0
  -40.6861   56.6806  -25.2542 H   0  0  0  0  0  0  0  0  0  0  0  0
  -39.1492   54.4016  -22.5065 H   0  0  0  0  0  0  0  0  0  0  0  0
  -38.4105   59.7897  -19.3901 H   0  0  0  0  0  0  0  0  0  0  0  0
  -38.1409   58.0266  -19.4275 H   0  0  0  0  0  0  0  0  0  0  0  0
  -40.5607   60.7473  -23.3980 H   0  0  0  0  0  0  0  0  0  0  0  0
  -46.6381   48.2895  -24.5396 H   0  0  0  0  0  0  0  0  0  0  0  0
  -47.5396   47.7087  -25.9628 H   0  0  0  0  0  0  0  0  0  0  0  0
  -46.5519   45.8977  -24.4340 H   0  0  0  0  0  0  0  0  0  0  0  0
  -44.1163   47.3524  -24.5505 H   0  0  0  0  0  0  0  0  0  0  0  0
  -44.3139   45.9220  -23.0138 H   0  0  0  0  0  0  0  0  0  0  0  0
  -43.6021   46.6954  -26.9395 H   0  0  0  0  0  0  0  0  0  0  0  0
  -42.2829   45.3188  -24.9214 H   0  0  0  0  0  0  0  0  0  0  0  0
  -44.3631   44.0531  -26.0790 H   0  0  0  0  0  0  0  0  0  0  0  0
  -44.6512   46.5802  -28.7323 H   0  0  0  0  0  0  0  0  0  0  0  0
  -45.6331   48.0903  -31.9539 H   0  0  0  0  0  0  0  0  0  0  0  0
  -46.1394   47.4821  -30.3550 H   0  0  0  0  0  0  0  0  0  0  0  0
  -45.0288   43.4220  -31.7361 H   0  0  0  0  0  0  0  0  0  0  0  0
  -44.9927   41.7487  -29.7968 H   0  0  0  0  0  0  0  0  0  0  0  0
  -44.8412   42.5725  -27.4534 H   0  0  0  0  0  0  0  0  0  0  0  0
  1  2  2  0
  1  3  1  6
  1  4  1  0
  1 23  1  0
  4  5  1  0
  6  5  1  0
  6  7  1  0
  6  8  1  0
  7 12  1  0
  8  9  1  0
  8 10  1  0
 10 11  1  0
 10 12  1  0
 12 13  1  0
 13 14  1  0
 13 22  1  0
 14 15  2  0
 15 16  1  0
 16 17  2  0
 16 22  1  0
 17 18  1  0
 17 19  1  0
 19 20  2  0
 20 21  1  0
 21 22  2  0
 23 24  1  0
 24 25  2  0
 24 26  1  1
 24 27  1  0
 27 28  1  0
 29 28  1  0
 29 30  1  0
 29 31  1  0
 30 35  1  0
 31 32  1  0
 31 33  1  0
 33 34  1  0
 33 35  1  0
 35 36  1  0
 36 37  2  0
 36 44  1  0
 37 38  1  0
 38 39  1  0
 38 42  2  0
 39 40  2  0
 39 41  1  0
 42 43  1  0
 43 44  2  0
  5 45  1  0
  5 46  1  0
  6 47  1  6
  8 48  1  6
  9 49  1  0
 10 50  1  1
 11 51  1  0
 12 52  1  6
 14 53  1  0
 18 54  1  0
 18 55  1  0
 20 56  1  0
 28 57  1  0
 28 58  1  0
 29 59  1  1
 31 60  1  1
 32 61  1  0
 33 62  1  6
 34 63  1  0
 35 64  1  1
 37 65  1  0
 41 66  1  0
 41 67  1  0
 42 68  1  0
 43 69  1  0
 44 70  1  0
M  CHG  3   3  -1  26  -1  36   1
M  END
>  <filename_input>  (4) 
7UMW_NAD_docked.sdf

>  <pdb_id>  (4) 
7UMW_NAD

>  <pose_rank>  (4) 
3

>  <num_atoms_heavy>  (4) 
44

>  <num_torsions>  (4) 
11

>  <pose>  (4) 
[-44.736252673709956, 52.585973928267734, -26.10654028355887, -0.03366517553722163, 2.114289135357954, 0.7033523311308433, 2.7602906848826105, 2.02813413884875, -0.6852863024755099, 0.2347899349567539, -5.700155613576994, -1.8135615843095907, -4.279003432005202, -4.302586216141701, -0.02280390077372217, -0.11818813576067513, -0.23993229194478877]

>  <energy>  (4) 
-925.999801820823

>  <inter_energy>  (4) 
-948.0292439290987

>  <intra_energy>  (4) 
21.964380435438102

>  <rmsd>  (4) 
4.35736

>  <sdf_rank>  (4) 
0

$$$$

     RDKit          3D

 70 74  0  0  0  0  0  0  0  0999 V2000
  -45.1147   52.7125  -27.1860 P   0  0  1  0  0  0  0  0  0  0  0  0
  -46.4833   53.2990  -26.8978 O   0  0  0  0  0  0  0  0  0  0  0  0
  -44.4099   53.4226  -28.2968 O   0  0  0  0  0  0  0  0  0  0  0  0
  -44.3515   52.7243  -25.7206 O   0  0  0  0  0  0  0  0  0  0  0  0
  -44.5749   51.6158  -24.9262 C   0  0  0  0  0  0  0  0  0  0  0  0
  -45.0742   52.1801  -23.5586 C   0  0  1  0  0  0  0  0  0  0  0  0
  -44.0336   51.6544  -22.5229 O   0  0  0  0  0  0  0  0  0  0  0  0
  -45.0167   53.4550  -23.5021 C   0  0  1  0  0  0  0  0  0  0  0  0
  -46.3078   54.0235  -23.1730 O   0  0  0  0  0  0  0  0  0  0  0  0
  -44.1089   53.8077  -22.1625 C   0  0  1  0  0  0  0  0  0  0  0  0
  -44.6388   54.9969  -21.5071 O   0  0  0  0  0  0  0  0  0  0  0  0
  -44.2095   52.7210  -21.4682 C   0  0  2  0  0  0  0  0  0  0  0  0
  -43.0914   52.6533  -20.5000 N   0  0  0  0  0  0  0  0  0  0  0  0
  -41.8407   52.3641  -20.7513 C   0  0  0  0  0  0  0  0  0  0  0  0
  -41.1512   52.4891  -19.6082 N   0  0  0  0  0  0  0  0  0  0  0  0
  -42.0085   52.8398  -18.6177 C   0  0  0  0  0  0  0  0  0  0  0  0
  -41.8800   53.0897  -17.2469 C   0  0  0  0  0  0  0  0  0  0  0  0
  -40.5996   52.9772  -16.6341 N   0  0  0  0  0  0  0  0  0  0  0  0
  -42.9651   53.4149  -16.5634 N   0  0  0  0  0  0  0  0  0  0  0  0
  -44.1410   53.5290  -17.1260 C   0  0  0  0  0  0  0  0  0  0  0  0
  -44.3084   53.2811  -18.4171 N   0  0  0  0  0  0  0  0  0  0  0  0
  -43.2440   52.9385  -19.1723 C   0  0  0  0  0  0  0  0  0  0  0  0
  -45.2538   51.1519  -27.6122 O   0  0  0  0  0  0  0  0  0  0  0  0
  -46.6611   50.2887  -27.7361 P   0  0  2  0  0  0  0  0  0  0  0  0
  -47.3351   50.7657  -28.9740 O   0  0  0  0  0  0  0  0  0  0  0  0
  -47.4483   50.4241  -26.4523 O   0  0  0  0  0  0  0  0  0  0  0  0
  -46.1595   48.7053  -27.9443 O   0  0  0  0  0  0  0  0  0  0  0  0
  -46.4030   48.0621  -29.2410 C   0  0  0  0  0  0  0  0  0  0  0  0
  -45.3652   46.9327  -29.4011 C   0  0  1  0  0  0  0  0  0  0  0  0
  -44.3251   47.1921  -28.6018 O   0  0  0  0  0  0  0  0  0  0  0  0
  -45.9333   45.5406  -28.9464 C   0  0  1  0  0  0  0  0  0  0  0  0
  -45.5581   44.5468  -29.8188 O   0  0  0  0  0  0  0  0  0  0  0  0
  -45.2722   45.3188  -27.5914 C   0  0  1  0  0  0  0  0  0  0  0  0
  -45.2646   43.8623  -27.2500 O   0  0  0  0  0  0  0  0  0  0  0  0
  -44.0336   45.8277  -27.8197 C   0  0  2  0  0  0  0  0  0  0  0  0
  -43.2178   46.2600  -26.7289 N   0  0  0  0  0  0  0  0  0  0  0  0
  -42.9875   45.4711  -25.6681 C   0  0  0  0  0  0  0  0  0  0  0  0
  -42.2288   45.9702  -24.5823 C   0  0  0  0  0  0  0  0  0  0  0  0
  -41.9167   45.0745  -23.3932 C   0  0  0  0  0  0  0  0  0  0  0  0
  -40.7654   44.7986  -23.1074 O   0  0  0  0  0  0  0  0  0  0  0  0
  -43.0943   44.5575  -22.6229 N   0  0  0  0  0  0  0  0  0  0  0  0
  -41.7210   47.2713  -24.5507 C   0  0  0  0  0  0  0  0  0  0  0  0
  -42.0155   48.0545  -25.6995 C   0  0  0  0  0  0  0  0  0  0  0  0
  -42.7795   47.5134  -26.7504 C   0  0  0  0  0  0  0  0  0  0  0  0
  -45.3400   50.9668  -25.3772 H   0  0  0  0  0  0  0  0  0  0  0  0
  -43.6669   51.0058  -24.8102 H   0  0  0  0  0  0  0  0  0  0  0  0
  -46.1180   51.8771  -23.3892 H   0  0  0  0  0  0  0  0  0  0  0  0
  -44.6406   53.8355  -24.4633 H   0  0  0  0  0  0  0  0  0  0  0  0
  -46.4078   54.0675  -22.1891 H   0  0  0  0  0  0  0  0  0  0  0  0
  -43.0551   54.0604  -22.3516 H   0  0  0  0  0  0  0  0  0  0  0  0
  -44.5880   54.8828  -20.5250 H   0  0  0  0  0  0  0  0  0  0  0  0
  -45.1448   52.6341  -20.8958 H   0  0  0  0  0  0  0  0  0  0  0  0
  -41.4278   52.0703  -21.7276 H   0  0  0  0  0  0  0  0  0  0  0  0
  -40.4934   53.1588  -15.6258 H   0  0  0  0  0  0  0  0  0  0  0  0
  -39.7796   52.7141  -17.1992 H   0  0  0  0  0  0  0  0  0  0  0  0
  -45.0045   53.8357  -16.5175 H   0  0  0  0  0  0  0  0  0  0  0  0
  -47.4201   47.6440  -29.2677 H   0  0  0  0  0  0  0  0  0  0  0  0
  -46.3101   48.7920  -30.0588 H   0  0  0  0  0  0  0  0  0  0  0  0
  -45.0896   46.8897  -30.4651 H   0  0  0  0  0  0  0  0  0  0  0  0
  -47.0326   45.5223  -28.9105 H   0  0  0  0  0  0  0  0  0  0  0  0
  -45.2588   43.7540  -29.3070 H   0  0  0  0  0  0  0  0  0  0  0  0
  -45.7729   45.7888  -26.7321 H   0  0  0  0  0  0  0  0  0  0  0  0
  -45.2641   43.7540  -26.2660 H   0  0  0  0  0  0  0  0  0  0  0  0
  -43.4796   45.0008  -28.2881 H   0  0  0  0  0  0  0  0  0  0  0  0
  -43.3848   44.4457  -25.6425 H   0  0  0  0  0  0  0  0  0  0  0  0
  -42.9477   43.9460  -21.8071 H   0  0  0  0  0  0  0  0  0  0  0  0
  -44.0498   44.8137  -22.9094 H   0  0  0  0  0  0  0  0  0  0  0  0
  -41.1383   47.6596  -23.7023 H   0  0  0  0  0  0  0  0  0  0  0  0
  -41.6448   49.0879  -25.7676 H   0  0  0  0  0  0  0  0  0  0  0  0
  -43.0209   48.1480  -27.6159 H   0  0  0  0  0  0  0  0  0  0  0  0
  1  2  2  0
  1  3  1  6
  1  4  1  0
  1 23  1  0
  4  5  1  0
  6  5  1  0
  6  7  1  0
  6  8  1  0
  7 12  1  0
  8  9  1  0
  8 10  1  0
 10 11  1  0
 10 12  1  0
 12 13  1  0
 13 14  1  0
 13 22  1  0
 14 15  2  0
 15 16  1  0
 16 17  2  0
 16 22  1  0
 17 18  1  0
 17 19  1  0
 19 20  2  0
 20 21  1  0
 21 22  2  0
 23 24  1  0
 24 25  2  0
 24 26  1  1
 24 27  1  0
 27 28  1  0
 29 28  1  0
 29 30  1  0
 29 31  1  0
 30 35  1  0
 31 32  1  0
 31 33  1  0
 33 34  1  0
 33 35  1  0
 35 36  1  0
 36 37  2  0
 36 44  1  0
 37 38  1  0
 38 39  1  0
 38 42  2  0
 39 40  2  0
 39 41  1  0
 42 43  1  0
 43 44  2  0
  5 45  1  0
  5 46  1  0
  6 47  1  1
  8 48  1  6
  9 49  1  0
 10 50  1  6
 11 51  1  0
 12 52  1  1
 14 53  1  0
 18 54  1  0
 18 55  1  0
 20 56  1  0
 28 57  1  0
 28 58  1  0
 29 59  1  6
 31 60  1  1
 32 61  1  0
 33 62  1  1
 34 63  1  0
 35 64  1  6
 37 65  1  0
 41 66  1  0
 41 67  1  0
 42 68  1  0
 43 69  1  0
 44 70  1  0
M  CHG  3   3  -1  26  -1  36   1
M  END
>  <filename_input>  (5) 
7UMW_NAD_docked.sdf

>  <pdb_id>  (5) 
7UMW_NAD

>  <pose_rank>  (5) 
4

>  <num_atoms_heavy>  (5) 
44

>  <num_torsions>  (5) 
11

>  <pose>  (5) 
[-45.11473518666553, 52.712450329486984, -27.185964874243965, -0.37581669163102344, 0.7489683513517014, 0.14713804383394555, -2.1212535451576664, 1.808892076308253, 1.1624659451183599, -0.22218240945934759, 1.3262563547350827, -1.5943405610847956, -4.271221509916498, 0.3013566588045989, 0.8249532491795779, 1.595113500907527, -0.5597970276403881]

>  <energy>  (5) 
-933.4694087383108

>  <inter_energy>  (5) 
-935.7781214808157

>  <intra_energy>  (5) 
13.674642783049986

>  <rmsd>  (5) 
3.64209

>  <sdf_rank>  (5) 
0

$$$$

     RDKit          3D

 70 74  0  0  0  0  0  0  0  0999 V2000
  -45.2143   51.6316  -24.9380 P   0  0  1  0  0  0  0  0  0  0  0  0
  -46.4421   52.3379  -25.4797 O   0  0  0  0  0  0  0  0  0  0  0  0
  -45.4523   51.0183  -23.5955 O   0  0  0  0  0  0  0  0  0  0  0  0
  -44.7815   50.5880  -26.1436 O   0  0  0  0  0  0  0  0  0  0  0  0
  -45.8192   49.8719  -26.7095 C   0  0  0  0  0  0  0  0  0  0  0  0
  -45.7725   48.4672  -26.0293 C   0  0  1  0  0  0  0  0  0  0  0  0
  -46.0008   47.4647  -27.2017 O   0  0  0  0  0  0  0  0  0  0  0  0
  -44.6218   48.1922  -25.5474 C   0  0  1  0  0  0  0  0  0  0  0  0
  -44.7085   47.8634  -24.1394 O   0  0  0  0  0  0  0  0  0  0  0  0
  -44.1770   46.7517  -26.2333 C   0  0  1  0  0  0  0  0  0  0  0  0
  -43.4552   45.9436  -25.2583 O   0  0  0  0  0  0  0  0  0  0  0  0
  -45.3150   46.2599  -26.6024 C   0  0  2  0  0  0  0  0  0  0  0  0
  -45.0904   45.2408  -27.6527 N   0  0  0  0  0  0  0  0  0  0  0  0
  -45.0551   43.9419  -27.5033 C   0  0  0  0  0  0  0  0  0  0  0  0
  -44.9029   43.3915  -28.7164 N   0  0  0  0  0  0  0  0  0  0  0  0
  -44.8148   44.3830  -29.6374 C   0  0  0  0  0  0  0  0  0  0  0  0
  -44.6379   44.4253  -31.0248 C   0  0  0  0  0  0  0  0  0  0  0  0
  -44.5027   43.2063  -31.7484 N   0  0  0  0  0  0  0  0  0  0  0  0
  -44.5929   45.6078  -31.6165 N   0  0  0  0  0  0  0  0  0  0  0  0
  -44.7271   46.7289  -30.9552 C   0  0  0  0  0  0  0  0  0  0  0  0
  -44.8761   46.7326  -29.6383 N   0  0  0  0  0  0  0  0  0  0  0  0
  -44.9245   45.5609  -28.9709 C   0  0  0  0  0  0  0  0  0  0  0  0
  -43.9863   52.6829  -24.7858 O   0  0  0  0  0  0  0  0  0  0  0  0
  -43.2736   53.5449  -26.0064 P   0  0  2  0  0  0  0  0  0  0  0  0
  -44.3751   54.2462  -26.7197 O   0  0  0  0  0  0  0  0  0  0  0  0
  -42.4191   52.6192  -26.8426 O   0  0  0  0  0  0  0  0  0  0  0  0
  -42.3128   54.6654  -25.2168 O   0  0  0  0  0  0  0  0  0  0  0  0
  -42.8272   55.2811  -23.9876 C   0  0  0  0  0  0  0  0  0  0  0  0
  -41.8645   56.4224  -23.6022 C   0  0  1  0  0  0  0  0  0  0  0  0
  -40.6470   56.1311  -24.0720 O   0  0  0  0  0  0  0  0  0  0  0  0
  -42.2751   57.7884  -24.2603 C   0  0  1  0  0  0  0  0  0  0  0  0
  -42.1460   58.8244  -23.3661 O   0  0  0  0  0  0  0  0  0  0  0  0
  -41.2657   57.9493  -25.3906 C   0  0  1  0  0  0  0  0  0  0  0  0
  -41.1534   59.3880  -25.7849 O   0  0  0  0  0  0  0  0  0  0  0  0
  -40.1414   57.4584  -24.8074 C   0  0  2  0  0  0  0  0  0  0  0  0
  -39.0609   56.9794  -25.6106 N   0  0  0  0  0  0  0  0  0  0  0  0
  -39.2191   56.7176  -26.9172 C   0  0  0  0  0  0  0  0  0  0  0  0
  -38.1368   56.1802  -27.6545 C   0  0  0  0  0  0  0  0  0  0  0  0
  -38.2825   55.9227  -29.1465 C   0  0  0  0  0  0  0  0  0  0  0  0
  -38.8442   56.7297  -29.8652 O   0  0  0  0  0  0  0  0  0  0  0  0
  -37.7121   54.6340  -29.6578 N   0  0  0  0  0  0  0  0  0  0  0  0
  -36.9015   55.8825  -27.0740 C   0  0  0  0  0  0  0  0  0  0  0  0
  -36.8100   56.1711  -25.6854 C   0  0  0  0  0  0  0  0  0  0  0  0
  -37.9174   56.6995  -24.9960 C   0  0  0  0  0  0  0  0  0  0  0  0
  -46.7817   50.3650  -26.5085 H   0  0  0  0  0  0  0  0  0  0  0  0
  -45.7191   49.8008  -27.8026 H   0  0  0  0  0  0  0  0  0  0  0  0
  -46.5051   48.4254  -25.2099 H   0  0  0  0  0  0  0  0  0  0  0  0
  -43.9511   49.0463  -25.7226 H   0  0  0  0  0  0  0  0  0  0  0  0
  -44.4968   48.6658  -23.5995 H   0  0  0  0  0  0  0  0  0  0  0  0
  -43.4815   46.8207  -27.0827 H   0  0  0  0  0  0  0  0  0  0  0  0
  -43.7077   46.2263  -24.3438 H   0  0  0  0  0  0  0  0  0  0  0  0
  -45.8838   45.7777  -25.7938 H   0  0  0  0  0  0  0  0  0  0  0  0
  -45.1360   43.3974  -26.5510 H   0  0  0  0  0  0  0  0  0  0  0  0
  -44.3720   43.2256  -32.7699 H   0  0  0  0  0  0  0  0  0  0  0  0
  -44.5356   42.3054  -31.2504 H   0  0  0  0  0  0  0  0  0  0  0  0
  -44.7162   47.6838  -31.5012 H   0  0  0  0  0  0  0  0  0  0  0  0
  -43.8358   55.6838  -24.1630 H   0  0  0  0  0  0  0  0  0  0  0  0
  -42.8900   54.5378  -23.1792 H   0  0  0  0  0  0  0  0  0  0  0  0
  -41.8912   56.5173  -22.5066 H   0  0  0  0  0  0  0  0  0  0  0  0
  -43.3221   57.7990  -24.5975 H   0  0  0  0  0  0  0  0  0  0  0  0
  -42.1900   58.4707  -22.4426 H   0  0  0  0  0  0  0  0  0  0  0  0
  -41.5150   57.4364  -26.3313 H   0  0  0  0  0  0  0  0  0  0  0  0
  -41.1094   59.9506  -24.9715 H   0  0  0  0  0  0  0  0  0  0  0  0
  -39.7308   58.3096  -24.2443 H   0  0  0  0  0  0  0  0  0  0  0  0
  -40.1812   56.9189  -27.4109 H   0  0  0  0  0  0  0  0  0  0  0  0
  -37.7796   54.4024  -30.6592 H   0  0  0  0  0  0  0  0  0  0  0  0
  -37.2528   53.9803  -29.0078 H   0  0  0  0  0  0  0  0  0  0  0  0
  -36.0643   55.4576  -27.6474 H   0  0  0  0  0  0  0  0  0  0  0  0
  -35.8697   55.9807  -25.1473 H   0  0  0  0  0  0  0  0  0  0  0  0
  -37.8332   56.8863  -23.9153 H   0  0  0  0  0  0  0  0  0  0  0  0
  1  2  2  0
  1  3  1  1
  1  4  1  0
  1 23  1  0
  4  5  1  0
  6  5  1  0
  6  7  1  0
  6  8  1  0
  7 12  1  0
  8  9  1  0
  8 10  1  0
 10 11  1  0
 10 12  1  0
 12 13  1  0
 13 14  1  0
 13 22  1  0
 14 15  2  0
 15 16  1  0
 16 17  2  0
 16 22  1  0
 17 18  1  0
 17 19  1  0
 19 20  2  0
 20 21  1  0
 21 22  2  0
 23 24  1  0
 24 25  2  0
 24 26  1  6
 24 27  1  0
 27 28  1  0
 29 28  1  0
 29 30  1  0
 29 31  1  0
 30 35  1  0
 31 32  1  0
 31 33  1  0
 33 34  1  0
 33 35  1  0
 35 36  1  0
 36 37  2  0
 36 44  1  0
 37 38  1  0
 38 39  1  0
 38 42  2  0
 39 40  2  0
 39 41  1  0
 42 43  1  0
 43 44  2  0
  5 45  1  0
  5 46  1  0
  6 47  1  1
  8 48  1  1
  9 49  1  0
 10 50  1  6
 11 51  1  0
 12 52  1  1
 14 53  1  0
 18 54  1  0
 18 55  1  0
 20 56  1  0
 28 57  1  0
 28 58  1  0
 29 59  1  1
 31 60  1  6
 32 61  1  0
 33 62  1  6
 34 63  1  0
 35 64  1  1
 37 65  1  0
 41 66  1  0
 41 67  1  0
 42 68  1  0
 43 69  1  0
 44 70  1  0
M  CHG  3   3  -1  26  -1  36   1
M  END
>  <filename_input>  (6) 
7UMW_NAD_docked.sdf

>  <pdb_id>  (6) 
7UMW_NAD

>  <pose_rank>  (6) 
5

>  <num_atoms_heavy>  (6) 
44

>  <num_torsions>  (6) 
11

>  <pose>  (6) 
[-45.21426564454023, 51.63162256770695, -24.938002770663697, 1.7566631851153698, -1.1478518185957578, 0.7721953911980255, 1.8620792206820098, 8.562364867780024, 7.160166602585118, -3.461323558859812, 12.815189385709104, -1.956687254134677, 3.293218606162791, -11.680411038708083, -11.840108005656672, 6.72332193251717, -1.889577681872307]

>  <energy>  (6) 
-843.5260516131235

>  <inter_energy>  (6) 
-868.106531987833

>  <intra_energy>  (6) 
30.568212571880732

>  <rmsd>  (6) 
11.1502

>  <sdf_rank>  (6) 
0

$$$$

     RDKit          3D

 70 74  0  0  0  0  0  0  0  0999 V2000
  -42.7953   51.3976  -24.1763 P   0  0  1  0  0  0  0  0  0  0  0  0
  -42.0987   51.2540  -22.8369 O   0  0  0  0  0  0  0  0  0  0  0  0
  -42.0887   50.6637  -25.2706 O   0  0  0  0  0  0  0  0  0  0  0  0
  -44.3507   50.9275  -23.8771 O   0  0  0  0  0  0  0  0  0  0  0  0
  -44.7506   49.7640  -24.5065 C   0  0  0  0  0  0  0  0  0  0  0  0
  -44.8560   50.1277  -26.0213 C   0  0  1  0  0  0  0  0  0  0  0  0
  -44.2099   48.9124  -26.7543 O   0  0  0  0  0  0  0  0  0  0  0  0
  -46.0649   50.1858  -26.4302 C   0  0  1  0  0  0  0  0  0  0  0  0
  -46.3516   51.4697  -27.0364 O   0  0  0  0  0  0  0  0  0  0  0  0
  -46.1579   49.1450  -27.7152 C   0  0  1  0  0  0  0  0  0  0  0  0
  -47.0476   49.6941  -28.7309 O   0  0  0  0  0  0  0  0  0  0  0  0
  -44.9208   49.0471  -28.0799 C   0  0  2  0  0  0  0  0  0  0  0  0
  -44.7400   47.8082  -28.8703 N   0  0  0  0  0  0  0  0  0  0  0  0
  -44.3664   47.7119  -30.1201 C   0  0  0  0  0  0  0  0  0  0  0  0
  -44.2571   46.4092  -30.4183 N   0  0  0  0  0  0  0  0  0  0  0  0
  -44.5998   45.6815  -29.3265 C   0  0  0  0  0  0  0  0  0  0  0  0
  -44.6927   44.3141  -29.0441 C   0  0  0  0  0  0  0  0  0  0  0  0
  -44.3840   43.3686  -30.0631 N   0  0  0  0  0  0  0  0  0  0  0  0
  -45.0768   43.9479  -27.8322 N   0  0  0  0  0  0  0  0  0  0  0  0
  -45.3511   44.8146  -26.8910 C   0  0  0  0  0  0  0  0  0  0  0  0
  -45.2949   46.1181  -27.1241 N   0  0  0  0  0  0  0  0  0  0  0  0
  -44.9159   46.5606  -28.3411 C   0  0  0  0  0  0  0  0  0  0  0  0
  -42.8686   52.9624  -24.6034 O   0  0  0  0  0  0  0  0  0  0  0  0
  -42.0497   54.2141  -23.8939 P   0  0  2  0  0  0  0  0  0  0  0  0
  -42.0452   55.3241  -24.8848 O   0  0  0  0  0  0  0  0  0  0  0  0
  -40.6955   53.7288  -23.4283 O   0  0  0  0  0  0  0  0  0  0  0  0
  -42.9968   54.6377  -22.5803 O   0  0  0  0  0  0  0  0  0  0  0  0
  -44.1853   55.4662  -22.8165 C   0  0  0  0  0  0  0  0  0  0  0  0
  -45.4062   54.6886  -22.2848 C   0  0  1  0  0  0  0  0  0  0  0  0
  -45.0117   53.9198  -21.2644 O   0  0  0  0  0  0  0  0  0  0  0  0
  -46.5122   55.6461  -21.7125 C   0  0  1  0  0  0  0  0  0  0  0  0
  -47.7667   55.2324  -22.0925 O   0  0  0  0  0  0  0  0  0  0  0  0
  -46.3528   55.5021  -20.2038 C   0  0  1  0  0  0  0  0  0  0  0  0
  -47.6148   55.9039  -19.5081 O   0  0  0  0  0  0  0  0  0  0  0  0
  -46.0742   54.1768  -20.0969 C   0  0  2  0  0  0  0  0  0  0  0  0
  -45.4001   53.6711  -18.9427 N   0  0  0  0  0  0  0  0  0  0  0  0
  -44.0624   53.5765  -18.8956 C   0  0  0  0  0  0  0  0  0  0  0  0
  -43.4456   53.0055  -17.7566 C   0  0  0  0  0  0  0  0  0  0  0  0
  -41.9290   52.9345  -17.6646 C   0  0  0  0  0  0  0  0  0  0  0  0
  -41.3701   52.9467  -16.5825 O   0  0  0  0  0  0  0  0  0  0  0  0
  -41.1865   52.8620  -18.9649 N   0  0  0  0  0  0  0  0  0  0  0  0
  -44.1738   52.5066  -16.6738 C   0  0  0  0  0  0  0  0  0  0  0  0
  -45.5845   52.6260  -16.7982 C   0  0  0  0  0  0  0  0  0  0  0  0
  -46.1493   53.1963  -17.9543 C   0  0  0  0  0  0  0  0  0  0  0  0
  -44.0071   48.9681  -24.3526 H   0  0  0  0  0  0  0  0  0  0  0  0
  -45.7054   49.3905  -24.1080 H   0  0  0  0  0  0  0  0  0  0  0  0
  -44.3862   51.1056  -26.2034 H   0  0  0  0  0  0  0  0  0  0  0  0
  -46.7356   49.9799  -25.5830 H   0  0  0  0  0  0  0  0  0  0  0  0
  -46.5021   52.1435  -26.3268 H   0  0  0  0  0  0  0  0  0  0  0  0
  -46.5863   48.1551  -27.4992 H   0  0  0  0  0  0  0  0  0  0  0  0
  -47.8024   50.1600  -28.2913 H   0  0  0  0  0  0  0  0  0  0  0  0
  -44.5626   49.8847  -28.6965 H   0  0  0  0  0  0  0  0  0  0  0  0
  -44.1757   48.5510  -30.8053 H   0  0  0  0  0  0  0  0  0  0  0  0
  -44.4490   42.3597  -29.8663 H   0  0  0  0  0  0  0  0  0  0  0  0
  -44.0957   43.6936  -30.9970 H   0  0  0  0  0  0  0  0  0  0  0  0
  -45.6329   44.4556  -25.8902 H   0  0  0  0  0  0  0  0  0  0  0  0
  -44.0880   56.4231  -22.2827 H   0  0  0  0  0  0  0  0  0  0  0  0
  -44.3004   55.6813  -23.8891 H   0  0  0  0  0  0  0  0  0  0  0  0
  -45.8172   54.1100  -23.1252 H   0  0  0  0  0  0  0  0  0  0  0  0
  -46.4051   56.6803  -22.0718 H   0  0  0  0  0  0  0  0  0  0  0  0
  -48.3130   55.0522  -21.2868 H   0  0  0  0  0  0  0  0  0  0  0  0
  -45.5827   56.1368  -19.7412 H   0  0  0  0  0  0  0  0  0  0  0  0
  -47.4796   55.8609  -18.5283 H   0  0  0  0  0  0  0  0  0  0  0  0
  -47.0600   53.6888  -20.0958 H   0  0  0  0  0  0  0  0  0  0  0  0
  -43.4506   53.9395  -19.7346 H   0  0  0  0  0  0  0  0  0  0  0  0
  -40.1577   52.8120  -18.9684 H   0  0  0  0  0  0  0  0  0  0  0  0
  -41.7051   52.8623  -19.8548 H   0  0  0  0  0  0  0  0  0  0  0  0
  -43.6926   52.0562  -15.7932 H   0  0  0  0  0  0  0  0  0  0  0  0
  -46.2378   52.2713  -15.9873 H   0  0  0  0  0  0  0  0  0  0  0  0
  -47.2445   53.2504  -18.0419 H   0  0  0  0  0  0  0  0  0  0  0  0
  1  2  2  0
  1  3  1  6
  1  4  1  0
  1 23  1  0
  4  5  1  0
  6  5  1  0
  6  7  1  0
  6  8  1  0
  7 12  1  0
  8  9  1  0
  8 10  1  0
 10 11  1  0
 10 12  1  0
 12 13  1  0
 13 14  1  0
 13 22  1  0
 14 15  2  0
 15 16  1  0
 16 17  2  0
 16 22  1  0
 17 18  1  0
 17 19  1  0
 19 20  2  0
 20 21  1  0
 21 22  2  0
 23 24  1  0
 24 25  2  0
 24 26  1  1
 24 27  1  0
 27 28  1  0
 29 28  1  0
 29 30  1  0
 29 31  1  0
 30 35  1  0
 31 32  1  0
 31 33  1  0
 33 34  1  0
 33 35  1  0
 35 36  1  0
 36 37  2  0
 36 44  1  0
 37 38  1  0
 38 39  1  0
 38 42  2  0
 39 40  2  0
 39 41  1  0
 42 43  1  0
 43 44  2  0
  5 45  1  0
  5 46  1  0
  6 47  1  1
  8 48  1  1
  9 49  1  0
 10 50  1  1
 11 51  1  0
 12 52  1  6
 14 53  1  0
 18 54  1  0
 18 55  1  0
 20 56  1  0
 28 57  1  0
 28 58  1  0
 29 59  1  6
 31 60  1  1
 32 61  1  0
 33 62  1  1
 34 63  1  0
 35 64  1  6
 37 65  1  0
 41 66  1  0
 41 67  1  0
 42 68  1  0
 43 69  1  0
 44 70  1  0
M  CHG  3   3  -1  26  -1  36   1
M  END
>  <filename_input>  (7) 
7UMW_NAD_docked.sdf

>  <pdb_id>  (7) 
7UMW_NAD

>  <pose_rank>  (7) 
6

>  <num_atoms_heavy>  (7) 
44

>  <num_torsions>  (7) 
11

>  <pose>  (7) 
[-42.79525559783397, 51.39756597607093, -24.17629979737748, -2.738428078827003, -0.7362690503290545, 2.492446999057807, -18.183106194797343, -9.778322326837356, 5.665034381187079, -3.1412238028202446, -4.749802100190019, 6.2022313485110585, -3.6999186715232586, -0.2806533500284232, 1.7321144485521789, -0.8833200433609184, 0.025467475264107812]

>  <energy>  (7) 
-871.9566284642644

>  <inter_energy>  (7) 
-896.1714086588952

>  <intra_energy>  (7) 
38.6074641961837

>  <rmsd>  (7) 
10.9596

>  <sdf_rank>  (7) 
0

$$$$

     RDKit          3D

 70 74  0  0  0  0  0  0  0  0999 V2000
  -43.5965   51.9997  -23.0386 P   0  0  1  0  0  0  0  0  0  0  0  0
  -44.5475   52.7018  -22.0885 O   0  0  0  0  0  0  0  0  0  0  0  0
  -42.9448   50.8059  -22.4179 O   0  0  0  0  0  0  0  0  0  0  0  0
  -44.5096   51.7075  -24.3842 O   0  0  0  0  0  0  0  0  0  0  0  0
  -44.7915   50.3776  -24.6328 C   0  0  0  0  0  0  0  0  0  0  0  0
  -44.7296   50.2242  -26.1854 C   0  0  1  0  0  0  0  0  0  0  0  0
  -44.2937   48.7436  -26.4083 O   0  0  0  0  0  0  0  0  0  0  0  0
  -45.8755   50.3427  -26.7374 C   0  0  1  0  0  0  0  0  0  0  0  0
  -45.8643   51.3776  -27.7508 O   0  0  0  0  0  0  0  0  0  0  0  0
  -46.0942   48.9621  -27.6259 C   0  0  1  0  0  0  0  0  0  0  0  0
  -46.7933   49.2790  -28.8650 O   0  0  0  0  0  0  0  0  0  0  0  0
  -44.8811   48.5425  -27.7850 C   0  0  2  0  0  0  0  0  0  0  0  0
  -44.9014   47.0985  -28.1118 N   0  0  0  0  0  0  0  0  0  0  0  0
  -45.0013   46.0973  -27.2761 C   0  0  0  0  0  0  0  0  0  0  0  0
  -45.0572   44.9659  -27.9934 N   0  0  0  0  0  0  0  0  0  0  0  0
  -44.9617   45.2785  -29.3094 C   0  0  0  0  0  0  0  0  0  0  0  0
  -44.9442   44.5403  -30.4981 C   0  0  0  0  0  0  0  0  0  0  0  0
  -45.0380   43.1206  -30.4392 N   0  0  0  0  0  0  0  0  0  0  0  0
  -44.8304   45.1948  -31.6422 N   0  0  0  0  0  0  0  0  0  0  0  0
  -44.7543   46.4998  -31.6996 C   0  0  0  0  0  0  0  0  0  0  0  0
  -44.7471   47.2337  -30.5960 N   0  0  0  0  0  0  0  0  0  0  0  0
  -44.8542   46.6294  -29.3944 C   0  0  0  0  0  0  0  0  0  0  0  0
  -42.4180   53.0158  -23.5021 O   0  0  0  0  0  0  0  0  0  0  0  0
  -41.5566   52.9429  -24.9140 P   0  0  2  0  0  0  0  0  0  0  0  0
  -41.8949   51.6369  -25.5418 O   0  0  0  0  0  0  0  0  0  0  0  0
  -40.0927   53.1847  -24.6225 O   0  0  0  0  0  0  0  0  0  0  0  0
  -42.1763   54.1899  -25.8429 O   0  0  0  0  0  0  0  0  0  0  0  0
  -42.1889   55.5429  -25.2738 C   0  0  0  0  0  0  0  0  0  0  0  0
  -41.4042   56.4582  -26.2353 C   0  0  1  0  0  0  0  0  0  0  0  0
  -40.6196   57.2643  -25.5125 O   0  0  0  0  0  0  0  0  0  0  0  0
  -40.4481   55.6426  -27.1778 C   0  0  1  0  0  0  0  0  0  0  0  0
  -40.4874   56.1318  -28.4619 O   0  0  0  0  0  0  0  0  0  0  0  0
  -39.0707   55.8841  -26.5723 C   0  0  1  0  0  0  0  0  0  0  0  0
  -38.0051   55.6431  -27.5943 O   0  0  0  0  0  0  0  0  0  0  0  0
  -39.1760   57.1852  -26.1966 C   0  0  2  0  0  0  0  0  0  0  0  0
  -38.3195   57.7163  -25.1833 N   0  0  0  0  0  0  0  0  0  0  0  0
  -38.6572   57.6748  -23.8853 C   0  0  0  0  0  0  0  0  0  0  0  0
  -37.8067   58.2751  -22.9261 C   0  0  0  0  0  0  0  0  0  0  0  0
  -38.1487   58.1956  -21.4462 C   0  0  0  0  0  0  0  0  0  0  0  0
  -39.3000   58.3132  -21.0666 O   0  0  0  0  0  0  0  0  0  0  0  0
  -36.9992   57.9796  -20.5085 N   0  0  0  0  0  0  0  0  0  0  0  0
  -36.6275   58.9391  -23.2729 C   0  0  0  0  0  0  0  0  0  0  0  0
  -36.3403   58.9569  -24.6647 C   0  0  0  0  0  0  0  0  0  0  0  0
  -37.2218   58.3504  -25.5790 C   0  0  0  0  0  0  0  0  0  0  0  0
  -44.0442   49.7293  -24.1518 H   0  0  0  0  0  0  0  0  0  0  0  0
  -45.7731   50.0854  -24.2315 H   0  0  0  0  0  0  0  0  0  0  0  0
  -44.0649   50.9913  -26.6095 H   0  0  0  0  0  0  0  0  0  0  0  0
  -46.6244   50.5480  -25.9583 H   0  0  0  0  0  0  0  0  0  0  0  0
  -45.8546   52.2663  -27.3148 H   0  0  0  0  0  0  0  0  0  0  0  0
  -46.7228   48.1884  -27.1609 H   0  0  0  0  0  0  0  0  0  0  0  0
  -47.6743   49.6783  -28.6540 H   0  0  0  0  0  0  0  0  0  0  0  0
  -44.3268   49.0524  -28.5867 H   0  0  0  0  0  0  0  0  0  0  0  0
  -45.0337   46.1705  -26.1790 H   0  0  0  0  0  0  0  0  0  0  0  0
  -45.0261   42.5673  -31.3079 H   0  0  0  0  0  0  0  0  0  0  0  0
  -45.1178   42.6471  -29.5280 H   0  0  0  0  0  0  0  0  0  0  0  0
  -44.6955   46.9958  -32.6797 H   0  0  0  0  0  0  0  0  0  0  0  0
  -43.2249   55.8999  -25.1773 H   0  0  0  0  0  0  0  0  0  0  0  0
  -41.7297   55.5468  -24.2743 H   0  0  0  0  0  0  0  0  0  0  0  0
  -42.1414   57.0057  -26.8410 H   0  0  0  0  0  0  0  0  0  0  0  0
  -40.7224   54.5794  -27.2430 H   0  0  0  0  0  0  0  0  0  0  0  0
  -40.5668   57.1183  -28.4369 H   0  0  0  0  0  0  0  0  0  0  0  0
  -38.7917   55.2224  -25.7389 H   0  0  0  0  0  0  0  0  0  0  0  0
  -37.1481   55.4492  -27.1382 H   0  0  0  0  0  0  0  0  0  0  0  0
  -38.9369   57.7537  -27.1075 H   0  0  0  0  0  0  0  0  0  0  0  0
  -39.5868   57.1786  -23.5694 H   0  0  0  0  0  0  0  0  0  0  0  0
  -37.1668   57.9170  -19.4941 H   0  0  0  0  0  0  0  0  0  0  0  0
  -36.0418   57.8939  -20.8786 H   0  0  0  0  0  0  0  0  0  0  0  0
  -35.9721   59.4117  -22.5265 H   0  0  0  0  0  0  0  0  0  0  0  0
  -35.4252   59.4467  -25.0288 H   0  0  0  0  0  0  0  0  0  0  0  0
  -36.9946   58.4032  -26.6540 H   0  0  0  0  0  0  0  0  0  0  0  0
  1  2  2  0
  1  3  1  1
  1  4  1  0
  1 23  1  0
  4  5  1  0
  6  5  1  0
  6  7  1  0
  6  8  1  0
  7 12  1  0
  8  9  1  0
  8 10  1  0
 10 11  1  0
 10 12  1  0
 12 13  1  0
 13 14  1  0
 13 22  1  0
 14 15  2  0
 15 16  1  0
 16 17  2  0
 16 22  1  0
 17 18  1  0
 17 19  1  0
 19 20  2  0
 20 21  1  0
 21 22  2  0
 23 24  1  0
 24 25  2  0
 24 26  1  1
 24 27  1  0
 27 28  1  0
 29 28  1  0
 29 30  1  0
 29 31  1  0
 30 35  1  0
 31 32  1  0
 31 33  1  0
 33 34  1  0
 33 35  1  0
 35 36  1  0
 36 37  2  0
 36 44  1  0
 37 38  1  0
 38 39  1  0
 38 42  2  0
 39 40  2  0
 39 41  1  0
 42 43  1  0
 43 44  2  0
  5 45  1  0
  5 46  1  0
  6 47  1  6
  8 48  1  1
  9 49  1  0
 10 50  1  1
 11 51  1  0
 12 52  1  6
 14 53  1  0
 18 54  1  0
 18 55  1  0
 20 56  1  0
 28 57  1  0
 28 58  1  0
 29 59  1  6
 31 60  1  6
 32 61  1  0
 33 62  1  1
 34 63  1  0
 35 64  1  6
 37 65  1  0
 41 66  1  0
 41 67  1  0
 42 68  1  0
 43 69  1  0
 44 70  1  0
M  CHG  3   3  -1  26  -1  36   1
M  END
>  <filename_input>  (8) 
7UMW_NAD_docked.sdf

>  <pdb_id>  (8) 
7UMW_NAD

>  <pose_rank>  (8) 
7

>  <num_atoms_heavy>  (8) 
44

>  <num_torsions>  (8) 
11

>  <pose>  (8) 
[-43.596508250539856, 51.99970531008371, -23.03856400448103, 2.0905660335732446, -0.7978778267108072, -0.42793352146358143, 0.6976444035635111, -4.754920799198631, -0.3769698947597675, -0.3443472183191892, 4.923431315571768, 3.2237630375280295, -1.3644905945085581, -0.2681238468326117, 5.094846998653264, -0.8580774606105309, 2.9693247931638176]

>  <energy>  (8) 
-797.3907517347029

>  <inter_energy>  (8) 
-816.0065346721196

>  <intra_energy>  (8) 
22.313498554256505

>  <rmsd>  (8) 
11.8803

>  <sdf_rank>  (8) 
0

$$$$

     RDKit          3D

 70 74  0  0  0  0  0  0  0  0999 V2000
  -45.1525   51.6226  -25.9666 P   0  0  1  0  0  0  0  0  0  0  0  0
  -46.4292   52.0553  -25.2717 O   0  0  0  0  0  0  0  0  0  0  0  0
  -44.6125   52.6759  -26.8798 O   0  0  0  0  0  0  0  0  0  0  0  0
  -44.1575   51.1552  -24.7331 O   0  0  0  0  0  0  0  0  0  0  0  0
  -43.5264   52.1826  -24.0580 C   0  0  0  0  0  0  0  0  0  0  0  0
  -44.6140   52.7887  -23.1158 C   0  0  1  0  0  0  0  0  0  0  0  0
  -44.2194   52.2793  -21.6957 O   0  0  0  0  0  0  0  0  0  0  0  0
  -44.5622   54.0640  -23.0613 C   0  0  1  0  0  0  0  0  0  0  0  0
  -45.8374   54.6553  -23.4113 O   0  0  0  0  0  0  0  0  0  0  0  0
  -44.4113   54.4421  -21.4559 C   0  0  1  0  0  0  0  0  0  0  0  0
  -45.1656   55.6542  -21.1620 O   0  0  0  0  0  0  0  0  0  0  0  0
  -44.8610   53.3755  -20.8787 C   0  0  2  0  0  0  0  0  0  0  0  0
  -44.3554   53.3212  -19.4881 N   0  0  0  0  0  0  0  0  0  0  0  0
  -45.0590   53.3588  -18.3861 C   0  0  0  0  0  0  0  0  0  0  0  0
  -44.2166   53.2074  -17.3540 N   0  0  0  0  0  0  0  0  0  0  0  0
  -42.9530   53.1002  -17.8343 C   0  0  0  0  0  0  0  0  0  0  0  0
  -41.6889   52.9462  -17.2543 C   0  0  0  0  0  0  0  0  0  0  0  0
  -41.5755   52.8771  -15.8365 N   0  0  0  0  0  0  0  0  0  0  0  0
  -40.6357   52.8795  -18.0522 N   0  0  0  0  0  0  0  0  0  0  0  0
  -40.7383   52.9324  -19.3556 C   0  0  0  0  0  0  0  0  0  0  0  0
  -41.9147   53.0981  -19.9430 N   0  0  0  0  0  0  0  0  0  0  0  0
  -43.0298   53.1796  -19.1876 C   0  0  0  0  0  0  0  0  0  0  0  0
  -45.4244   50.2932  -26.8584 O   0  0  0  0  0  0  0  0  0  0  0  0
  -46.8804   49.8065  -27.4781 P   0  0  2  0  0  0  0  0  0  0  0  0
  -47.4648   50.9967  -28.1535 O   0  0  0  0  0  0  0  0  0  0  0  0
  -47.7126   49.1867  -26.3783 O   0  0  0  0  0  0  0  0  0  0  0  0
  -46.4793   48.6522  -28.6221 O   0  0  0  0  0  0  0  0  0  0  0  0
  -45.8027   49.0920  -29.8482 C   0  0  0  0  0  0  0  0  0  0  0  0
  -44.5540   48.2061  -30.0326 C   0  0  1  0  0  0  0  0  0  0  0  0
  -44.5577   47.2606  -29.0871 O   0  0  0  0  0  0  0  0  0  0  0  0
  -44.5644   47.4511  -31.4101 C   0  0  1  0  0  0  0  0  0  0  0  0
  -43.3175   47.4648  -31.9887 O   0  0  0  0  0  0  0  0  0  0  0  0
  -44.9423   46.0259  -31.0249 C   0  0  1  0  0  0  0  0  0  0  0  0
  -44.4990   45.0673  -32.0844 O   0  0  0  0  0  0  0  0  0  0  0  0
  -44.2700   45.8861  -29.8529 C   0  0  2  0  0  0  0  0  0  0  0  0
  -44.6785   44.9042  -28.8983 N   0  0  0  0  0  0  0  0  0  0  0  0
  -45.9092   44.3701  -28.9226 C   0  0  0  0  0  0  0  0  0  0  0  0
  -46.2885   43.4517  -27.9144 C   0  0  0  0  0  0  0  0  0  0  0  0
  -47.6621   42.7995  -27.9532 C   0  0  0  0  0  0  0  0  0  0  0  0
  -48.5887   43.3347  -28.5348 O   0  0  0  0  0  0  0  0  0  0  0  0
  -47.7976   41.4910  -27.2344 N   0  0  0  0  0  0  0  0  0  0  0  0
  -45.4393   43.0873  -26.8666 C   0  0  0  0  0  0  0  0  0  0  0  0
  -44.1583   43.7020  -26.8959 C   0  0  0  0  0  0  0  0  0  0  0  0
  -43.8318   44.6137  -27.9172 C   0  0  0  0  0  0  0  0  0  0  0  0
  -42.6809   51.7950  -23.4707 H   0  0  0  0  0  0  0  0  0  0  0  0
  -43.1174   52.9352  -24.7481 H   0  0  0  0  0  0  0  0  0  0  0  0
  -45.6153   52.5020  -23.4695 H   0  0  0  0  0  0  0  0  0  0  0  0
  -43.7582   54.4144  -23.7252 H   0  0  0  0  0  0  0  0  0  0  0  0
  -46.3324   54.8849  -22.5853 H   0  0  0  0  0  0  0  0  0  0  0  0
  -43.3928   54.6779  -21.1136 H   0  0  0  0  0  0  0  0  0  0  0  0
  -45.2369   55.7688  -20.1812 H   0  0  0  0  0  0  0  0  0  0  0  0
  -45.9582   53.3143  -20.8314 H   0  0  0  0  0  0  0  0  0  0  0  0
  -46.1489   53.4913  -18.3181 H   0  0  0  0  0  0  0  0  0  0  0  0
  -40.6500   52.7638  -15.3988 H   0  0  0  0  0  0  0  0  0  0  0  0
  -42.4189   52.9404  -15.2487 H   0  0  0  0  0  0  0  0  0  0  0  0
  -39.8334   52.8377  -19.9739 H   0  0  0  0  0  0  0  0  0  0  0  0
  -46.4757   48.9765  -30.7105 H   0  0  0  0  0  0  0  0  0  0  0  0
  -45.5179   50.1519  -29.7743 H   0  0  0  0  0  0  0  0  0  0  0  0
  -43.6745   48.8645  -29.9787 H   0  0  0  0  0  0  0  0  0  0  0  0
  -45.2492   47.9085  -32.1394 H   0  0  0  0  0  0  0  0  0  0  0  0
  -42.6254   47.4725  -31.2809 H   0  0  0  0  0  0  0  0  0  0  0  0
  -46.0195   45.8275  -30.9232 H   0  0  0  0  0  0  0  0  0  0  0  0
  -44.1238   44.2558  -31.6592 H   0  0  0  0  0  0  0  0  0  0  0  0
  -43.2528   45.5948  -30.1535 H   0  0  0  0  0  0  0  0  0  0  0  0
  -46.6172   44.6437  -29.7188 H   0  0  0  0  0  0  0  0  0  0  0  0
  -48.7031   41.0001  -27.2246 H   0  0  0  0  0  0  0  0  0  0  0  0
  -46.9852   41.0827  -26.7503 H   0  0  0  0  0  0  0  0  0  0  0  0
  -45.7390   42.3793  -26.0799 H   0  0  0  0  0  0  0  0  0  0  0  0
  -43.4188   43.4643  -26.1171 H   0  0  0  0  0  0  0  0  0  0  0  0
  -42.8455   45.1005  -27.9024 H   0  0  0  0  0  0  0  0  0  0  0  0
  1  2  2  0
  1  3  1  6
  1  4  1  0
  1 23  1  0
  4  5  1  0
  6  5  1  0
  6  7  1  0
  6  8  1  0
  7 12  1  0
  8  9  1  0
  8 10  1  0
 10 11  1  0
 10 12  1  0
 12 13  1  0
 13 14  1  0
 13 22  1  0
 14 15  2  0
 15 16  1  0
 16 17  2  0
 16 22  1  0
 17 18  1  0
 17 19  1  0
 19 20  2  0
 20 21  1  0
 21 22  2  0
 23 24  1  0
 24 25  2  0
 24 26  1  1
 24 27  1  0
 27 28  1  0
 29 28  1  0
 29 30  1  0
 29 31  1  0
 30 35  1  0
 31 32  1  0
 31 33  1  0
 33 34  1  0
 33 35  1  0
 35 36  1  0
 36 37  2  0
 36 44  1  0
 37 38  1  0
 38 39  1  0
 38 42  2  0
 39 40  2  0
 39 41  1  0
 42 43  1  0
 43 44  2  0
  5 45  1  0
  5 46  1  0
  6 47  1  6
  8 48  1  6
  9 49  1  0
 10 50  1  1
 11 51  1  0
 12 52  1  1
 14 53  1  0
 18 54  1  0
 18 55  1  0
 20 56  1  0
 28 57  1  0
 28 58  1  0
 29 59  1  6
 31 60  1  6
 32 61  1  0
 33 62  1  1
 34 63  1  0
 35 64  1  6
 37 65  1  0
 41 66  1  0
 41 67  1  0
 42 68  1  0
 43 69  1  0
 44 70  1  0
M  CHG  3   3  -1  26  -1  36   1
M  END
>  <filename_input>  (9) 
7UMW_NAD_docked.sdf

>  <pdb_id>  (9) 
7UMW_NAD

>  <pose_rank>  (9) 
8

>  <num_atoms_heavy>  (9) 
44

>  <num_torsions>  (9) 
11

>  <pose>  (9) 
[-45.15250532200343, 51.62256178596774, -25.96663694987876, -0.032121763379102324, 0.8777288168310532, 0.2940639874689817, 1.2581028907284972, -0.9190294656296056, -1.1676834186436817, 3.1286763184872797, -4.540663271026849, -14.589944452964398, -3.5315344546589778, -19.01129248854124, -4.984492584906359, 0.3638976525607256, -3.044812303386718]

>  <energy>  (9) 
-823.3466345294238

>  <inter_energy>  (9) 
-846.7916952917559

>  <intra_energy>  (9) 
31.173688492984052

>  <rmsd>  (9) 
3.47518

>  <sdf_rank>  (9) 
0

$$$$

     RDKit          3D

 70 74  0  0  0  0  0  0  0  0999 V2000
  -47.0408   51.5032  -25.4194 P   0  0  1  0  0  0  0  0  0  0  0  0
  -48.5496   51.3538  -25.3866 O   0  0  0  0  0  0  0  0  0  0  0  0
  -46.5850   52.8274  -24.8959 O   0  0  0  0  0  0  0  0  0  0  0  0
  -46.4839   50.1749  -24.6099 O   0  0  0  0  0  0  0  0  0  0  0  0
  -45.2875   49.6581  -25.0697 C   0  0  0  0  0  0  0  0  0  0  0  0
  -45.5715   48.1503  -25.3592 C   0  0  1  0  0  0  0  0  0  0  0  0
  -45.6288   48.0617  -26.9151 O   0  0  0  0  0  0  0  0  0  0  0  0
  -44.6107   47.3904  -24.9966 C   0  0  1  0  0  0  0  0  0  0  0  0
  -45.0708   46.3633  -24.0848 O   0  0  0  0  0  0  0  0  0  0  0  0
  -44.1879   46.5228  -26.3426 C   0  0  1  0  0  0  0  0  0  0  0  0
  -43.8216   45.1652  -25.9590 O   0  0  0  0  0  0  0  0  0  0  0  0
  -45.2541   46.6070  -27.0701 C   0  0  2  0  0  0  0  0  0  0  0  0
  -44.9062   46.3300  -28.4824 N   0  0  0  0  0  0  0  0  0  0  0  0
  -44.4099   47.1674  -29.3561 C   0  0  0  0  0  0  0  0  0  0  0  0
  -44.1748   46.4897  -30.4889 N   0  0  0  0  0  0  0  0  0  0  0  0
  -44.5633   45.2020  -30.3156 C   0  0  0  0  0  0  0  0  0  0  0  0
  -44.5790   44.0608  -31.1252 C   0  0  0  0  0  0  0  0  0  0  0  0
  -44.1047   44.1492  -32.4649 N   0  0  0  0  0  0  0  0  0  0  0  0
  -45.0472   42.9342  -30.6135 N   0  0  0  0  0  0  0  0  0  0  0  0
  -45.4741   42.8479  -29.3796 C   0  0  0  0  0  0  0  0  0  0  0  0
  -45.4947   43.9100  -28.5871 N   0  0  0  0  0  0  0  0  0  0  0  0
  -45.0367   45.0927  -29.0477 C   0  0  0  0  0  0  0  0  0  0  0  0
  -46.4984   51.3658  -26.9437 O   0  0  0  0  0  0  0  0  0  0  0  0
  -45.3032   52.2702  -27.6468 P   0  0  2  0  0  0  0  0  0  0  0  0
  -45.9886   53.3667  -28.3830 O   0  0  0  0  0  0  0  0  0  0  0  0
  -44.4099   51.3695  -28.4697 O   0  0  0  0  0  0  0  0  0  0  0  0
  -44.4512   52.9080  -26.3548 O   0  0  0  0  0  0  0  0  0  0  0  0
  -43.3885   53.8815  -26.6335 C   0  0  0  0  0  0  0  0  0  0  0  0
  -42.0423   53.2070  -26.3006 C   0  0  1  0  0  0  0  0  0  0  0  0
  -41.1743   53.4793  -27.2806 O   0  0  0  0  0  0  0  0  0  0  0  0
  -41.4082   53.7752  -24.9805 C   0  0  1  0  0  0  0  0  0  0  0  0
  -40.8771   52.7648  -24.2146 O   0  0  0  0  0  0  0  0  0  0  0  0
  -40.2937   54.6813  -25.4898 C   0  0  1  0  0  0  0  0  0  0  0  0
  -39.2661   54.8896  -24.4227 O   0  0  0  0  0  0  0  0  0  0  0  0
  -39.8371   53.9625  -26.5481 C   0  0  2  0  0  0  0  0  0  0  0  0
  -39.1176   54.6059  -27.6020 N   0  0  0  0  0  0  0  0  0  0  0  0
  -39.5555   55.7461  -28.1576 C   0  0  0  0  0  0  0  0  0  0  0  0
  -38.8435   56.3081  -29.2444 C   0  0  0  0  0  0  0  0  0  0  0  0
  -39.2973   57.6252  -29.8550 C   0  0  0  0  0  0  0  0  0  0  0  0
  -40.2088   58.2608  -29.3565 O   0  0  0  0  0  0  0  0  0  0  0  0
  -38.5720   58.0711  -31.0888 N   0  0  0  0  0  0  0  0  0  0  0  0
  -37.7040   55.7118  -29.7899 C   0  0  0  0  0  0  0  0  0  0  0  0
  -37.3064   54.5003  -29.1621 C   0  0  0  0  0  0  0  0  0  0  0  0
  -38.0522   53.9795  -28.0881 C   0  0  0  0  0  0  0  0  0  0  0  0
  -44.9733   50.1740  -25.9891 H   0  0  0  0  0  0  0  0  0  0  0  0
  -44.4770   49.7886  -24.3376 H   0  0  0  0  0  0  0  0  0  0  0  0
  -46.4789   47.8327  -24.8247 H   0  0  0  0  0  0  0  0  0  0  0  0
  -43.8215   48.0088  -24.5441 H   0  0  0  0  0  0  0  0  0  0  0  0
  -44.9354   46.6655  -23.1518 H   0  0  0  0  0  0  0  0  0  0  0  0
  -43.3059   46.8875  -26.8894 H   0  0  0  0  0  0  0  0  0  0  0  0
  -43.8027   45.0950  -24.9716 H   0  0  0  0  0  0  0  0  0  0  0  0
  -46.0531   45.9065  -26.7857 H   0  0  0  0  0  0  0  0  0  0  0  0
  -44.2192   48.2380  -29.1908 H   0  0  0  0  0  0  0  0  0  0  0  0
  -44.1116   43.3155  -33.0698 H   0  0  0  0  0  0  0  0  0  0  0  0
  -43.7546   45.0468  -32.8292 H   0  0  0  0  0  0  0  0  0  0  0  0
  -45.8214   41.8781  -28.9938 H   0  0  0  0  0  0  0  0  0  0  0  0
  -43.4119   54.1693  -27.6949 H   0  0  0  0  0  0  0  0  0  0  0  0
  -43.5268   54.7895  -26.0282 H   0  0  0  0  0  0  0  0  0  0  0  0
  -42.2354   52.1304  -26.1841 H   0  0  0  0  0  0  0  0  0  0  0  0
  -42.1427   54.2919  -24.3453 H   0  0  0  0  0  0  0  0  0  0  0  0
  -40.9915   52.9826  -23.2557 H   0  0  0  0  0  0  0  0  0  0  0  0
  -40.5961   55.7017  -25.7679 H   0  0  0  0  0  0  0  0  0  0  0  0
  -39.6918   54.8033  -23.5332 H   0  0  0  0  0  0  0  0  0  0  0  0
  -39.1290   53.2454  -26.1074 H   0  0  0  0  0  0  0  0  0  0  0  0
  -40.4597   56.2397  -27.7719 H   0  0  0  0  0  0  0  0  0  0  0  0
  -38.8334   58.9549  -31.5489 H   0  0  0  0  0  0  0  0  0  0  0  0
  -37.8122   57.4938  -31.4766 H   0  0  0  0  0  0  0  0  0  0  0  0
  -37.1569   56.1463  -30.6395 H   0  0  0  0  0  0  0  0  0  0  0  0
  -36.4120   53.9674  -29.5172 H   0  0  0  0  0  0  0  0  0  0  0  0
  -37.7433   53.0247  -27.6378 H   0  0  0  0  0  0  0  0  0  0  0  0
  1  2  2  0
  1  3  1  1
  1  4  1  0
  1 23  1  0
  4  5  1  0
  6  5  1  0
  6  7  1  0
  6  8  1  0
  7 12  1  0
  8  9  1  0
  8 10  1  0
 10 11  1  0
 10 12  1  0
 12 13  1  0
 13 14  1  0
 13 22  1  0
 14 15  2  0
 15 16  1  0
 16 17  2  0
 16 22  1  0
 17 18  1  0
 17 19  1  0
 19 20  2  0
 20 21  1  0
 21 22  2  0
 23 24  1  0
 24 25  2  0
 24 26  1  6
 24 27  1  0
 27 28  1  0
 29 28  1  0
 29 30  1  0
 29 31  1  0
 30 35  1  0
 31 32  1  0
 31 33  1  0
 33 34  1  0
 33 35  1  0
 35 36  1  0
 36 37  2  0
 36 44  1  0
 37 38  1  0
 38 39  1  0
 38 42  2  0
 39 40  2  0
 39 41  1  0
 42 43  1  0
 43 44  2  0
  5 45  1  0
  5 46  1  0
  6 47  1  1
  8 48  1  1
  9 49  1  0
 10 50  1  6
 11 51  1  0
 12 52  1  1
 14 53  1  0
 18 54  1  0
 18 55  1  0
 20 56  1  0
 28 57  1  0
 28 58  1  0
 29 59  1  1
 31 60  1  1
 32 61  1  0
 33 62  1  6
 34 63  1  0
 35 64  1  1
 37 65  1  0
 41 66  1  0
 41 67  1  0
 42 68  1  0
 43 69  1  0
 44 70  1  0
M  CHG  3   3  -1  26  -1  36   1
M  END
>  <filename_input>  (10) 
7UMW_NAD_docked.sdf

>  <pdb_id>  (10) 
7UMW_NAD

>  <pose_rank>  (10) 
9

>  <num_atoms_heavy>  (10) 
44

>  <num_torsions>  (10) 
11

>  <pose>  (10) 
[-47.04075141565276, 51.50322968986734, -25.419423747845418, -3.3069035941091007, -0.9349582035477704, -4.023979527070563, 11.480875302219484, 1.8194616235909418, -7.446682598538302, -6.636197509714083, -2.5231175842233076, 8.00922885994164, 7.212150939658191, -4.352680315303335, -2.7048541754517688, -0.11728040050883469, -2.5224155269648505]

>  <energy>  (10) 
-780.8984270784831

>  <inter_energy>  (10) 
-795.0950193437967

>  <intra_energy>  (10) 
26.111065140311215

>  <rmsd>  (10) 
10.3904

>  <sdf_rank>  (10) 
0

$$$$

     RDKit          3D

 70 74  0  0  0  0  0  0  0  0999 V2000
  -44.7865   52.5499  -24.2529 P   0  0  1  0  0  0  0  0  0  0  0  0
  -44.6374   54.0212  -24.5889 O   0  0  0  0  0  0  0  0  0  0  0  0
  -46.2154   52.1422  -24.0879 O   0  0  0  0  0  0  0  0  0  0  0  0
  -43.9461   51.7742  -25.4454 O   0  0  0  0  0  0  0  0  0  0  0  0
  -44.7007   51.3463  -26.5211 C   0  0  0  0  0  0  0  0  0  0  0  0
  -45.0764   49.8651  -26.2005 C   0  0  1  0  0  0  0  0  0  0  0  0
  -45.3023   49.2144  -27.5995 O   0  0  0  0  0  0  0  0  0  0  0  0
  -44.1151   49.2196  -25.6609 C   0  0  1  0  0  0  0  0  0  0  0  0
  -44.5182   48.6400  -24.3961 O   0  0  0  0  0  0  0  0  0  0  0  0
  -43.8742   47.8869  -26.6144 C   0  0  1  0  0  0  0  0  0  0  0  0
  -43.5261   46.7419  -25.7822 O   0  0  0  0  0  0  0  0  0  0  0  0
  -45.0072   47.7803  -27.2293 C   0  0  2  0  0  0  0  0  0  0  0  0
  -44.8231   46.9762  -28.4588 N   0  0  0  0  0  0  0  0  0  0  0  0
  -44.3724   47.3876  -29.6158 C   0  0  0  0  0  0  0  0  0  0  0  0
  -44.2943   46.3246  -30.4292 N   0  0  0  0  0  0  0  0  0  0  0  0
  -44.7359   45.2304  -29.7608 C   0  0  0  0  0  0  0  0  0  0  0  0
  -44.9001   43.8788  -30.0841 C   0  0  0  0  0  0  0  0  0  0  0  0
  -44.5621   43.4282  -31.3919 N   0  0  0  0  0  0  0  0  0  0  0  0
  -45.3768   43.0647  -29.1566 N   0  0  0  0  0  0  0  0  0  0  0  0
  -45.6784   43.4743  -27.9510 C   0  0  0  0  0  0  0  0  0  0  0  0
  -45.5565   44.7496  -27.6114 N   0  0  0  0  0  0  0  0  0  0  0  0
  -45.0816   45.6353  -28.5117 C   0  0  0  0  0  0  0  0  0  0  0  0
  -44.0172   52.2131  -22.8633 O   0  0  0  0  0  0  0  0  0  0  0  0
  -43.8155   53.2374  -21.5784 P   0  0  2  0  0  0  0  0  0  0  0  0
  -43.2831   52.4080  -20.4636 O   0  0  0  0  0  0  0  0  0  0  0  0
  -45.1126   53.9661  -21.3084 O   0  0  0  0  0  0  0  0  0  0  0  0
  -42.6403   54.3151  -22.0875 O   0  0  0  0  0  0  0  0  0  0  0  0
  -41.5344   53.8044  -22.9066 C   0  0  0  0  0  0  0  0  0  0  0  0
  -40.5728   54.9802  -23.1732 C   0  0  1  0  0  0  0  0  0  0  0  0
  -39.5721   54.5465  -23.9468 O   0  0  0  0  0  0  0  0  0  0  0  0
  -41.2692   56.1440  -23.9657 C   0  0  1  0  0  0  0  0  0  0  0  0
  -40.9097   57.3697  -23.4579 O   0  0  0  0  0  0  0  0  0  0  0  0
  -40.7176   55.9848  -25.3773 C   0  0  1  0  0  0  0  0  0  0  0  0
  -40.8382   57.2722  -26.1298 O   0  0  0  0  0  0  0  0  0  0  0  0
  -39.4329   55.6288  -25.1161 C   0  0  2  0  0  0  0  0  0  0  0  0
  -38.6623   54.9324  -26.0976 N   0  0  0  0  0  0  0  0  0  0  0  0
  -37.3214   54.9849  -26.1050 C   0  0  0  0  0  0  0  0  0  0  0  0
  -36.6059   54.3336  -27.1383 C   0  0  0  0  0  0  0  0  0  0  0  0
  -35.0849   54.3415  -27.1360 C   0  0  0  0  0  0  0  0  0  0  0  0
  -34.4622   53.9427  -26.1683 O   0  0  0  0  0  0  0  0  0  0  0  0
  -34.4207   54.8715  -28.3710 N   0  0  0  0  0  0  0  0  0  0  0  0
  -37.2381   53.6491  -28.1792 C   0  0  0  0  0  0  0  0  0  0  0  0
  -38.6580   53.6469  -28.1158 C   0  0  0  0  0  0  0  0  0  0  0  0
  -39.3226   54.3149  -27.0703 C   0  0  0  0  0  0  0  0  0  0  0  0
  -45.6078   51.9600  -26.6234 H   0  0  0  0  0  0  0  0  0  0  0  0
  -44.1484   51.4325  -27.4685 H   0  0  0  0  0  0  0  0  0  0  0  0
  -45.9344   49.8388  -25.5126 H   0  0  0  0  0  0  0  0  0  0  0  0
  -43.2572   49.8974  -25.5400 H   0  0  0  0  0  0  0  0  0  0  0  0
  -44.1447   49.1771  -23.6530 H   0  0  0  0  0  0  0  0  0  0  0  0
  -43.0408   47.9542  -27.3291 H   0  0  0  0  0  0  0  0  0  0  0  0
  -43.6023   46.9925  -24.8275 H   0  0  0  0  0  0  0  0  0  0  0  0
  -45.8000   47.2987  -26.6380 H   0  0  0  0  0  0  0  0  0  0  0  0
  -44.1047   48.4224  -29.8754 H   0  0  0  0  0  0  0  0  0  0  0  0
  -44.6790   42.4355  -31.6408 H   0  0  0  0  0  0  0  0  0  0  0  0
  -44.2008   44.0948  -32.0890 H   0  0  0  0  0  0  0  0  0  0  0  0
  -46.0390   42.7484  -27.2073 H   0  0  0  0  0  0  0  0  0  0  0  0
  -41.0073   53.0030  -22.3681 H   0  0  0  0  0  0  0  0  0  0  0  0
  -41.9125   53.3912  -23.8533 H   0  0  0  0  0  0  0  0  0  0  0  0
  -40.2308   55.3516  -22.1959 H   0  0  0  0  0  0  0  0  0  0  0  0
  -42.3669   56.0963  -23.9119 H   0  0  0  0  0  0  0  0  0  0  0  0
  -40.9205   57.3331  -22.4687 H   0  0  0  0  0  0  0  0  0  0  0  0
  -41.2390   55.2561  -26.0155 H   0  0  0  0  0  0  0  0  0  0  0  0
  -40.9086   58.0235  -25.4890 H   0  0  0  0  0  0  0  0  0  0  0  0
  -38.9103   56.5840  -24.9593 H   0  0  0  0  0  0  0  0  0  0  0  0
  -36.7831   55.5292  -25.3151 H   0  0  0  0  0  0  0  0  0  0  0  0
  -33.3928   54.9026  -28.4300 H   0  0  0  0  0  0  0  0  0  0  0  0
  -34.9921   55.2045  -29.1606 H   0  0  0  0  0  0  0  0  0  0  0  0
  -36.6802   53.1504  -28.9854 H   0  0  0  0  0  0  0  0  0  0  0  0
  -39.2398   53.1210  -28.8870 H   0  0  0  0  0  0  0  0  0  0  0  0
  -40.4225   54.3257  -27.0586 H   0  0  0  0  0  0  0  0  0  0  0  0
  1  2  2  0
  1  3  1  1
  1  4  1  0
  1 23  1  0
  4  5  1  0
  6  5  1  0
  6  7  1  0
  6  8  1  0
  7 12  1  0
  8  9  1  0
  8 10  1  0
 10 11  1  0
 10 12  1  0
 12 13  1  0
 13 14  1  0
 13 22  1  0
 14 15  2  0
 15 16  1  0
 16 17  2  0
 16 22  1  0
 17 18  1  0
 17 19  1  0
 19 20  2  0
 20 21  1  0
 21 22  2  0
 23 24  1  0
 24 25  2  0
 24 26  1  1
 24 27  1  0
 27 28  1  0
 29 28  1  0
 29 30  1  0
 29 31  1  0
 30 35  1  0
 31 32  1  0
 31 33  1  0
 33 34  1  0
 33 35  1  0
 35 36  1  0
 36 37  2  0
 36 44  1  0
 37 38  1  0
 38 39  1  0
 38 42  2  0
 39 40  2  0
 39 41  1  0
 42 43  1  0
 43 44  2  0
  5 45  1  0
  5 46  1  0
  6 47  1  1
  8 48  1  1
  9 49  1  0
 10 50  1  6
 11 51  1  0
 12 52  1  1
 14 53  1  0
 18 54  1  0
 18 55  1  0
 20 56  1  0
 28 57  1  0
 28 58  1  0
 29 59  1  1
 31 60  1  6
 32 61  1  0
 33 62  1  6
 34 63  1  0
 35 64  1  1
 37 65  1  0
 41 66  1  0
 41 67  1  0
 42 68  1  0
 43 69  1  0
 44 70  1  0
M  CHG  3   3  -1  26  -1  36   1
M  END
>  <filename_input>  (11) 
7UMW_NAD_docked.sdf

>  <pdb_id>  (11) 
7UMW_NAD

>  <pose_rank>  (11) 
10

>  <num_atoms_heavy>  (11) 
44

>  <num_torsions>  (11) 
11

>  <pose>  (11) 
[-44.786515561204205, 52.54987928183431, -24.2529079711434, 1.2046611469896038, -2.617184428201483, 0.7580529262488005, 0.9906880308071341, -3.907378895198603, 0.5801004473859649, -0.3371063632345728, 1.8691845672237584, 0.08142310399090744, -2.9771989050122674, 0.7746113855573487, 4.375893517389274, 3.4169556572774913, -1.6627932731472217]

>  <energy>  (11) 
-757.4265848268401

>  <inter_energy>  (11) 
-765.5041295429041

>  <intra_energy>  (11) 
12.421660148078368

>  <rmsd>  (11) 
10.6863

>  <sdf_rank>  (11) 
0

$$$$

     RDKit          3D

 70 74  0  0  0  0  0  0  0  0999 V2000
  -46.0472   51.0673  -26.3110 P   0  0  1  0  0  0  0  0  0  0  0  0
  -46.2695   51.6706  -27.6845 O   0  0  0  0  0  0  0  0  0  0  0  0
  -44.7220   50.3854  -26.1929 O   0  0  0  0  0  0  0  0  0  0  0  0
  -46.3102   52.3224  -25.2692 O   0  0  0  0  0  0  0  0  0  0  0  0
  -45.2326   52.6730  -24.4783 C   0  0  0  0  0  0  0  0  0  0  0  0
  -45.8356   53.5009  -23.2998 C   0  0  1  0  0  0  0  0  0  0  0  0
  -45.3133   52.7820  -22.0183 O   0  0  0  0  0  0  0  0  0  0  0  0
  -45.3761   54.6918  -23.2497 C   0  0  1  0  0  0  0  0  0  0  0  0
  -46.4459   55.6678  -23.2817 O   0  0  0  0  0  0  0  0  0  0  0  0
  -44.7591   54.8745  -21.7235 C   0  0  1  0  0  0  0  0  0  0  0  0
  -45.0097   56.2298  -21.2494 O   0  0  0  0  0  0  0  0  0  0  0  0
  -45.3792   53.9506  -21.0639 C   0  0  2  0  0  0  0  0  0  0  0  0
  -44.6185   53.6328  -19.8340 N   0  0  0  0  0  0  0  0  0  0  0  0
  -45.0689   53.6099  -18.6062 C   0  0  0  0  0  0  0  0  0  0  0  0
  -44.0713   53.2015  -17.8088 N   0  0  0  0  0  0  0  0  0  0  0  0
  -42.9657   52.9924  -18.5656 C   0  0  0  0  0  0  0  0  0  0  0  0
  -41.6527   52.5879  -18.3000 C   0  0  0  0  0  0  0  0  0  0  0  0
  -41.2676   52.3050  -16.9586 N   0  0  0  0  0  0  0  0  0  0  0  0
  -40.8079   52.4919  -19.3137 N   0  0  0  0  0  0  0  0  0  0  0  0
  -41.1620   52.7413  -20.5484 C   0  0  0  0  0  0  0  0  0  0  0  0
  -42.3899   53.1465  -20.8392 N   0  0  0  0  0  0  0  0  0  0  0  0
  -43.3007   53.2714  -19.8516 C   0  0  0  0  0  0  0  0  0  0  0  0
  -47.1958   49.9649  -25.9921 O   0  0  0  0  0  0  0  0  0  0  0  0
  -47.0494   48.3224  -26.1390 P   0  0  2  0  0  0  0  0  0  0  0  0
  -46.2530   48.0836  -27.3730 O   0  0  0  0  0  0  0  0  0  0  0  0
  -48.4221   47.6899  -26.0970 O   0  0  0  0  0  0  0  0  0  0  0  0
  -46.1585   47.8638  -24.7981 O   0  0  0  0  0  0  0  0  0  0  0  0
  -46.1109   46.4393  -24.4471 C   0  0  0  0  0  0  0  0  0  0  0  0
  -44.7974   45.8649  -25.0153 C   0  0  1  0  0  0  0  0  0  0  0  0
  -44.9637   45.6298  -26.3211 O   0  0  0  0  0  0  0  0  0  0  0  0
  -43.6085   46.8850  -24.8997 C   0  0  1  0  0  0  0  0  0  0  0  0
  -42.4547   46.2535  -24.5004 O   0  0  0  0  0  0  0  0  0  0  0  0
  -43.4511   47.4016  -26.3247 C   0  0  1  0  0  0  0  0  0  0  0  0
  -42.0775   47.9591  -26.5257 O   0  0  0  0  0  0  0  0  0  0  0  0
  -43.6860   46.2704  -27.0390 C   0  0  2  0  0  0  0  0  0  0  0  0
  -44.1013   46.3510  -28.4041 N   0  0  0  0  0  0  0  0  0  0  0  0
  -44.5410   45.2719  -29.0696 C   0  0  0  0  0  0  0  0  0  0  0  0
  -44.8762   45.3892  -30.4399 C   0  0  0  0  0  0  0  0  0  0  0  0
  -45.4222   44.1887  -31.1977 C   0  0  0  0  0  0  0  0  0  0  0  0
  -46.5244   44.2279  -31.7145 O   0  0  0  0  0  0  0  0  0  0  0  0
  -44.5380   42.9794  -31.2540 N   0  0  0  0  0  0  0  0  0  0  0  0
  -44.7469   46.5857  -31.1492 C   0  0  0  0  0  0  0  0  0  0  0  0
  -44.2622   47.6821  -30.3859 C   0  0  0  0  0  0  0  0  0  0  0  0
  -43.9370   47.5122  -29.0271 C   0  0  0  0  0  0  0  0  0  0  0  0
  -44.7260   51.7739  -24.0974 H   0  0  0  0  0  0  0  0  0  0  0  0
  -44.4822   53.2482  -25.0406 H   0  0  0  0  0  0  0  0  0  0  0  0
  -46.9287   53.5605  -23.4072 H   0  0  0  0  0  0  0  0  0  0  0  0
  -44.6727   54.8354  -24.0832 H   0  0  0  0  0  0  0  0  0  0  0  0
  -46.7048   55.9041  -22.3558 H   0  0  0  0  0  0  0  0  0  0  0  0
  -43.6687   54.7622  -21.6316 H   0  0  0  0  0  0  0  0  0  0  0  0
  -45.0113   56.2381  -20.2594 H   0  0  0  0  0  0  0  0  0  0  0  0
  -46.4005   54.2208  -20.7573 H   0  0  0  0  0  0  0  0  0  0  0  0
  -46.0861   53.8783  -18.2847 H   0  0  0  0  0  0  0  0  0  0  0  0
  -40.3038   52.0065  -16.7516 H   0  0  0  0  0  0  0  0  0  0  0  0
  -41.9528   52.3989  -16.1954 H   0  0  0  0  0  0  0  0  0  0  0  0
  -40.4286   52.6127  -21.3581 H   0  0  0  0  0  0  0  0  0  0  0  0
  -46.1303   46.3212  -23.3536 H   0  0  0  0  0  0  0  0  0  0  0  0
  -46.9787   45.9083  -24.8655 H   0  0  0  0  0  0  0  0  0  0  0  0
  -44.5620   44.9565  -24.4415 H   0  0  0  0  0  0  0  0  0  0  0  0
  -43.7996   47.6771  -24.1607 H   0  0  0  0  0  0  0  0  0  0  0  0
  -42.4155   46.2320  -23.5114 H   0  0  0  0  0  0  0  0  0  0  0  0
  -44.1165   48.2299  -26.6096 H   0  0  0  0  0  0  0  0  0  0  0  0
  -41.6583   48.1293  -25.6451 H   0  0  0  0  0  0  0  0  0  0  0  0
  -42.7156   45.7528  -27.0598 H   0  0  0  0  0  0  0  0  0  0  0  0
  -44.6400   44.3048  -28.5549 H   0  0  0  0  0  0  0  0  0  0  0  0
  -44.8519   42.1346  -31.7527 H   0  0  0  0  0  0  0  0  0  0  0  0
  -43.6165   42.9933  -30.7940 H   0  0  0  0  0  0  0  0  0  0  0  0
  -45.0006   46.6725  -32.2161 H   0  0  0  0  0  0  0  0  0  0  0  0
  -44.1406   48.6677  -30.8591 H   0  0  0  0  0  0  0  0  0  0  0  0
  -43.5346   48.3673  -28.4641 H   0  0  0  0  0  0  0  0  0  0  0  0
  1  2  2  0
  1  3  1  6
  1  4  1  0
  1 23  1  0
  4  5  1  0
  6  5  1  0
  6  7  1  0
  6  8  1  0
  7 12  1  0
  8  9  1  0
  8 10  1  0
 10 11  1  0
 10 12  1  0
 12 13  1  0
 13 14  1  0
 13 22  1  0
 14 15  2  0
 15 16  1  0
 16 17  2  0
 16 22  1  0
 17 18  1  0
 17 19  1  0
 19 20  2  0
 20 21  1  0
 21 22  2  0
 23 24  1  0
 24 25  2  0
 24 26  1  6
 24 27  1  0
 27 28  1  0
 29 28  1  0
 29 30  1  0
 29 31  1  0
 30 35  1  0
 31 32  1  0
 31 33  1  0
 33 34  1  0
 33 35  1  0
 35 36  1  0
 36 37  2  0
 36 44  1  0
 37 38  1  0
 38 39  1  0
 38 42  2  0
 39 40  2  0
 39 41  1  0
 42 43  1  0
 43 44  2  0
  5 45  1  0
  5 46  1  0
  6 47  1  6
  8 48  1  6
  9 49  1  0
 10 50  1  6
 11 51  1  0
 12 52  1  1
 14 53  1  0
 18 54  1  0
 18 55  1  0
 20 56  1  0
 28 57  1  0
 28 58  1  0
 29 59  1  1
 31 60  1  1
 32 61  1  0
 33 62  1  6
 34 63  1  0
 35 64  1  6
 37 65  1  0
 41 66  1  0
 41 67  1  0
 42 68  1  0
 43 69  1  0
 44 70  1  0
M  CHG  3   3  -1  26  -1  36   1
M  END
>  <filename_input>  (12) 
7UMW_NAD_docked.sdf

>  <pdb_id>  (12) 
7UMW_NAD

>  <pose_rank>  (12) 
11

>  <num_atoms_heavy>  (12) 
44

>  <num_torsions>  (12) 
11

>  <pose>  (12) 
[-46.0471722065994, 51.06728938147149, -26.31098502428912, 3.418156555621575, 0.45630274299754386, 3.493151117248495, 0.569245546708555, -5.087356048029267, 5.470405893160176, -2.9701986429133664, 3.054701638648504, 2.71929336079333, 0.5763020864056358, -0.703481261522585, -0.18146509507772698, -2.2533120180566297, -0.5276505697974995]

>  <energy>  (12) 
-877.3528017814781

>  <inter_energy>  (12) 
-952.7359994059005

>  <intra_energy>  (12) 
87.97740592679519

>  <rmsd>  (12) 
2.41239

>  <sdf_rank>  (12) 
0

$$$$

     RDKit          3D

 70 74  0  0  0  0  0  0  0  0999 V2000
  -43.3939   52.8402  -24.5211 P   0  0  1  0  0  0  0  0  0  0  0  0
  -42.1111   53.5954  -24.8106 O   0  0  0  0  0  0  0  0  0  0  0  0
  -44.5648   53.7508  -24.3347 O   0  0  0  0  0  0  0  0  0  0  0  0
  -43.5130   51.7530  -25.7595 O   0  0  0  0  0  0  0  0  0  0  0  0
  -43.8314   50.4610  -25.3864 C   0  0  0  0  0  0  0  0  0  0  0  0
  -44.9732   50.0194  -26.3555 C   0  0  1  0  0  0  0  0  0  0  0  0
  -44.3175   48.9203  -27.2465 O   0  0  0  0  0  0  0  0  0  0  0  0
  -45.9420   49.4506  -25.7473 C   0  0  1  0  0  0  0  0  0  0  0  0
  -47.1987   50.1134  -26.0292 O   0  0  0  0  0  0  0  0  0  0  0  0
  -46.1326   47.9772  -26.4794 C   0  0  1  0  0  0  0  0  0  0  0  0
  -47.5490   47.6401  -26.5473 O   0  0  0  0  0  0  0  0  0  0  0  0
  -45.5690   48.1660  -27.6283 C   0  0  2  0  0  0  0  0  0  0  0  0
  -45.2022   46.8569  -28.2147 N   0  0  0  0  0  0  0  0  0  0  0  0
  -45.0186   45.7273  -27.5813 C   0  0  0  0  0  0  0  0  0  0  0  0
  -44.7748   44.7772  -28.4954 N   0  0  0  0  0  0  0  0  0  0  0  0
  -44.7821   45.3446  -29.7270 C   0  0  0  0  0  0  0  0  0  0  0  0
  -44.5791   44.8741  -31.0292 C   0  0  0  0  0  0  0  0  0  0  0  0
  -44.2853   43.4962  -31.2353 N   0  0  0  0  0  0  0  0  0  0  0  0
  -44.6591   45.7375  -32.0285 N   0  0  0  0  0  0  0  0  0  0  0  0
  -44.9391   47.0021  -31.8427 C   0  0  0  0  0  0  0  0  0  0  0  0
  -45.1180   47.4911  -30.6239 N   0  0  0  0  0  0  0  0  0  0  0  0
  -45.0444   46.6662  -29.5587 C   0  0  0  0  0  0  0  0  0  0  0  0
  -43.2328   51.9648  -23.1631 O   0  0  0  0  0  0  0  0  0  0  0  0
  -42.5568   52.4738  -21.7401 P   0  0  2  0  0  0  0  0  0  0  0  0
  -42.9527   51.4756  -20.7100 O   0  0  0  0  0  0  0  0  0  0  0  0
  -42.9641   53.9054  -21.4743 O   0  0  0  0  0  0  0  0  0  0  0  0
  -40.9071   52.3805  -22.0078 O   0  0  0  0  0  0  0  0  0  0  0  0
  -40.0129   52.3536  -20.8441 C   0  0  0  0  0  0  0  0  0  0  0  0
  -39.9204   53.7922  -20.2964 C   0  0  1  0  0  0  0  0  0  0  0  0
  -39.3789   53.7500  -19.0746 O   0  0  0  0  0  0  0  0  0  0  0  0
  -38.9740   54.6951  -21.1663 C   0  0  1  0  0  0  0  0  0  0  0  0
  -39.5148   55.9461  -21.3456 O   0  0  0  0  0  0  0  0  0  0  0  0
  -37.7096   54.7923  -20.3213 C   0  0  1  0  0  0  0  0  0  0  0  0
  -36.9174   56.0003  -20.7101 O   0  0  0  0  0  0  0  0  0  0  0  0
  -38.2369   54.8699  -19.0718 C   0  0  2  0  0  0  0  0  0  0  0  0
  -37.4512   54.5134  -17.9326 N   0  0  0  0  0  0  0  0  0  0  0  0
  -36.5703   53.5021  -17.9753 C   0  0  0  0  0  0  0  0  0  0  0  0
  -35.8654   53.1442  -16.8010 C   0  0  0  0  0  0  0  0  0  0  0  0
  -34.8279   52.0327  -16.8422 C   0  0  0  0  0  0  0  0  0  0  0  0
  -34.4119   51.6090  -17.9057 O   0  0  0  0  0  0  0  0  0  0  0  0
  -34.3720   51.4990  -15.5176 N   0  0  0  0  0  0  0  0  0  0  0  0
  -36.0629   53.7865  -15.5763 C   0  0  0  0  0  0  0  0  0  0  0  0
  -37.0200   54.8369  -15.6013 C   0  0  0  0  0  0  0  0  0  0  0  0
  -37.6988   55.1502  -16.7938 C   0  0  0  0  0  0  0  0  0  0  0  0
  -42.9573   49.8022  -25.4960 H   0  0  0  0  0  0  0  0  0  0  0  0
  -44.1438   50.4044  -24.3332 H   0  0  0  0  0  0  0  0  0  0  0  0
  -45.3710   50.8965  -26.8869 H   0  0  0  0  0  0  0  0  0  0  0  0
  -45.7245   49.4378  -24.6691 H   0  0  0  0  0  0  0  0  0  0  0  0
  -47.6457   50.3491  -25.1778 H   0  0  0  0  0  0  0  0  0  0  0  0
  -45.6843   47.1206  -25.9547 H   0  0  0  0  0  0  0  0  0  0  0  0
  -47.9120   47.5537  -25.6303 H   0  0  0  0  0  0  0  0  0  0  0  0
  -46.2001   48.6888  -28.3620 H   0  0  0  0  0  0  0  0  0  0  0  0
  -45.0573   45.5825  -26.4915 H   0  0  0  0  0  0  0  0  0  0  0  0
  -44.1340   43.1389  -32.1894 H   0  0  0  0  0  0  0  0  0  0  0  0
  -44.2240   42.8566  -30.4302 H   0  0  0  0  0  0  0  0  0  0  0  0
  -45.0274   47.6702  -32.7121 H   0  0  0  0  0  0  0  0  0  0  0  0
  -40.4205   51.6837  -20.0728 H   0  0  0  0  0  0  0  0  0  0  0  0
  -39.0172   51.9832  -21.1295 H   0  0  0  0  0  0  0  0  0  0  0  0
  -40.9377   54.2105  -20.3016 H   0  0  0  0  0  0  0  0  0  0  0  0
  -38.8031   54.2845  -22.1724 H   0  0  0  0  0  0  0  0  0  0  0  0
  -39.6930   56.3581  -20.4633 H   0  0  0  0  0  0  0  0  0  0  0  0
  -36.9961   53.9623  -20.4306 H   0  0  0  0  0  0  0  0  0  0  0  0
  -36.6097   56.4696  -19.8945 H   0  0  0  0  0  0  0  0  0  0  0  0
  -38.4742   55.9359  -18.9402 H   0  0  0  0  0  0  0  0  0  0  0  0
  -36.3974   52.9561  -18.9144 H   0  0  0  0  0  0  0  0  0  0  0  0
  -33.6707   50.7455  -15.4798 H   0  0  0  0  0  0  0  0  0  0  0  0
  -34.7599   51.8857  -14.6454 H   0  0  0  0  0  0  0  0  0  0  0  0
  -35.5197   53.5015  -14.6633 H   0  0  0  0  0  0  0  0  0  0  0  0
  -37.2311   55.4074  -14.6848 H   0  0  0  0  0  0  0  0  0  0  0  0
  -38.4574   55.9466  -16.7821 H   0  0  0  0  0  0  0  0  0  0  0  0
  1  2  2  0
  1  3  1  1
  1  4  1  0
  1 23  1  0
  4  5  1  0
  6  5  1  0
  6  7  1  0
  6  8  1  0
  7 12  1  0
  8  9  1  0
  8 10  1  0
 10 11  1  0
 10 12  1  0
 12 13  1  0
 13 14  1  0
 13 22  1  0
 14 15  2  0
 15 16  1  0
 16 17  2  0
 16 22  1  0
 17 18  1  0
 17 19  1  0
 19 20  2  0
 20 21  1  0
 21 22  2  0
 23 24  1  0
 24 25  2  0
 24 26  1  1
 24 27  1  0
 27 28  1  0
 29 28  1  0
 29 30  1  0
 29 31  1  0
 30 35  1  0
 31 32  1  0
 31 33  1  0
 33 34  1  0
 33 35  1  0
 35 36  1  0
 36 37  2  0
 36 44  1  0
 37 38  1  0
 38 39  1  0
 38 42  2  0
 39 40  2  0
 39 41  1  0
 42 43  1  0
 43 44  2  0
  5 45  1  0
  5 46  1  0
  6 47  1  6
  8 48  1  1
  9 49  1  0
 10 50  1  1
 11 51  1  0
 12 52  1  6
 14 53  1  0
 18 54  1  0
 18 55  1  0
 20 56  1  0
 28 57  1  0
 28 58  1  0
 29 59  1  1
 31 60  1  6
 32 61  1  0
 33 62  1  1
 34 63  1  0
 35 64  1  1
 37 65  1  0
 41 66  1  0
 41 67  1  0
 42 68  1  0
 43 69  1  0
 44 70  1  0
M  CHG  3   3  -1  26  -1  36   1
M  END
>  <filename_input>  (13) 
7UMW_NAD_docked.sdf

>  <pdb_id>  (13) 
7UMW_NAD

>  <pose_rank>  (13) 
12

>  <num_atoms_heavy>  (13) 
44

>  <num_torsions>  (13) 
11

>  <pose>  (13) 
[-43.39388734103896, 52.84016394630033, -24.521055242405076, -0.10280941899173372, -2.7319665121385137, 0.47853091965753275, -1.2983005392797329, 0.04870501906048595, -1.0657433785373116, 0.7049865606245389, 2.097522394231061, 0.008567980316347534, 1.1526735921426166, -3.753920123701992, -2.183587626816516, 0.06790215792778057, -2.3837476970469496]

>  <energy>  (13) 
-812.6500561535807

>  <inter_energy>  (13) 
-816.9892192558044

>  <intra_energy>  (13) 
6.267235581741186

>  <rmsd>  (13) 
12.4345

>  <sdf_rank>  (13) 
0

$$$$

     RDKit          3D

 70 74  0  0  0  0  0  0  0  0999 V2000
  -44.1610   51.8740  -23.6585 P   0  0  1  0  0  0  0  0  0  0  0  0
  -45.3165   52.8457  -23.8016 O   0  0  0  0  0  0  0  0  0  0  0  0
  -44.1626   51.1730  -22.3380 O   0  0  0  0  0  0  0  0  0  0  0  0
  -44.2782   50.9052  -24.9918 O   0  0  0  0  0  0  0  0  0  0  0  0
  -45.5574   50.4962  -25.3176 C   0  0  0  0  0  0  0  0  0  0  0  0
  -45.5013   48.9359  -25.3360 C   0  0  1  0  0  0  0  0  0  0  0  0
  -45.8530   48.5559  -26.8069 O   0  0  0  0  0  0  0  0  0  0  0  0
  -44.3254   48.4835  -25.1250 C   0  0  1  0  0  0  0  0  0  0  0  0
  -44.3109   47.5637  -24.0062 O   0  0  0  0  0  0  0  0  0  0  0  0
  -43.9818   47.4998  -26.4125 C   0  0  1  0  0  0  0  0  0  0  0  0
  -43.2110   46.3481  -25.9609 O   0  0  0  0  0  0  0  0  0  0  0  0
  -45.1603   47.2151  -26.8631 C   0  0  2  0  0  0  0  0  0  0  0  0
  -45.0516   46.7692  -28.2709 N   0  0  0  0  0  0  0  0  0  0  0  0
  -44.9422   47.5217  -29.3352 C   0  0  0  0  0  0  0  0  0  0  0  0
  -44.7949   46.7155  -30.3964 N   0  0  0  0  0  0  0  0  0  0  0  0
  -44.8420   45.4272  -29.9755 C   0  0  0  0  0  0  0  0  0  0  0  0
  -44.7648   44.1813  -30.6078 C   0  0  0  0  0  0  0  0  0  0  0  0
  -44.6027   44.1251  -32.0214 N   0  0  0  0  0  0  0  0  0  0  0  0
  -44.8558   43.0920  -29.8624 N   0  0  0  0  0  0  0  0  0  0  0  0
  -44.9944   43.1409  -28.5622 C   0  0  0  0  0  0  0  0  0  0  0  0
  -45.0920   44.3005  -27.9279 N   0  0  0  0  0  0  0  0  0  0  0  0
  -45.0131   45.4509  -28.6287 C   0  0  0  0  0  0  0  0  0  0  0  0
  -42.7478   52.6621  -23.7934 O   0  0  0  0  0  0  0  0  0  0  0  0
  -42.1152   53.7384  -22.7062 P   0  0  2  0  0  0  0  0  0  0  0  0
  -40.6793   53.8963  -23.0633 O   0  0  0  0  0  0  0  0  0  0  0  0
  -42.4055   53.2621  -21.3008 O   0  0  0  0  0  0  0  0  0  0  0  0
  -42.9309   55.1672  -23.0142 O   0  0  0  0  0  0  0  0  0  0  0  0
  -42.1469   56.3505  -23.3877 C   0  0  0  0  0  0  0  0  0  0  0  0
  -42.4935   56.6942  -24.8505 C   0  0  1  0  0  0  0  0  0  0  0  0
  -41.3870   56.5728  -25.5914 O   0  0  0  0  0  0  0  0  0  0  0  0
  -43.5423   55.6955  -25.4588 C   0  0  1  0  0  0  0  0  0  0  0  0
  -44.4813   56.3633  -26.2083 O   0  0  0  0  0  0  0  0  0  0  0  0
  -42.6955   54.8054  -26.3605 C   0  0  1  0  0  0  0  0  0  0  0  0
  -43.5518   54.1579  -27.4023 O   0  0  0  0  0  0  0  0  0  0  0  0
  -41.8168   55.7091  -26.8671 C   0  0  2  0  0  0  0  0  0  0  0  0
  -40.5594   55.2783  -27.3920 N   0  0  0  0  0  0  0  0  0  0  0  0
  -40.1367   54.0123  -27.2531 C   0  0  0  0  0  0  0  0  0  0  0  0
  -38.8539   53.6514  -27.7307 C   0  0  0  0  0  0  0  0  0  0  0  0
  -38.3777   52.2107  -27.6257 C   0  0  0  0  0  0  0  0  0  0  0  0
  -38.3849   51.6295  -26.5553 O   0  0  0  0  0  0  0  0  0  0  0  0
  -37.8994   51.5740  -28.8958 N   0  0  0  0  0  0  0  0  0  0  0  0
  -37.9845   54.5682  -28.3267 C   0  0  0  0  0  0  0  0  0  0  0  0
  -38.4914   55.8921  -28.4274 C   0  0  0  0  0  0  0  0  0  0  0  0
  -39.7717   56.2015  -27.9315 C   0  0  0  0  0  0  0  0  0  0  0  0
  -46.2773   50.8466  -24.5634 H   0  0  0  0  0  0  0  0  0  0  0  0
  -45.8840   50.9053  -26.2850 H   0  0  0  0  0  0  0  0  0  0  0  0
  -46.1679   48.5299  -24.5608 H   0  0  0  0  0  0  0  0  0  0  0  0
  -43.6440   49.3312  -24.9603 H   0  0  0  0  0  0  0  0  0  0  0  0
  -44.3189   48.0750  -23.1585 H   0  0  0  0  0  0  0  0  0  0  0  0
  -43.3538   47.9432  -27.1992 H   0  0  0  0  0  0  0  0  0  0  0  0
  -43.1973   46.3276  -24.9713 H   0  0  0  0  0  0  0  0  0  0  0  0
  -45.6784   46.4203  -26.3064 H   0  0  0  0  0  0  0  0  0  0  0  0
  -44.9667   48.6212  -29.3560 H   0  0  0  0  0  0  0  0  0  0  0  0
  -44.5448   43.2135  -32.4973 H   0  0  0  0  0  0  0  0  0  0  0  0
  -44.5435   44.9961  -32.5680 H   0  0  0  0  0  0  0  0  0  0  0  0
  -45.0306   42.2044  -27.9863 H   0  0  0  0  0  0  0  0  0  0  0  0
  -42.4061   57.1949  -22.7321 H   0  0  0  0  0  0  0  0  0  0  0  0
  -41.0704   56.1511  -23.2815 H   0  0  0  0  0  0  0  0  0  0  0  0
  -42.9064   57.7138  -24.8583 H   0  0  0  0  0  0  0  0  0  0  0  0
  -44.0981   55.1423  -24.6874 H   0  0  0  0  0  0  0  0  0  0  0  0
  -45.1215   56.8186  -25.6058 H   0  0  0  0  0  0  0  0  0  0  0  0
  -42.1966   53.9592  -25.8654 H   0  0  0  0  0  0  0  0  0  0  0  0
  -44.2592   53.6230  -26.9623 H   0  0  0  0  0  0  0  0  0  0  0  0
  -42.3482   56.1609  -27.7177 H   0  0  0  0  0  0  0  0  0  0  0  0
  -40.7813   53.2617  -26.7725 H   0  0  0  0  0  0  0  0  0  0  0  0
  -37.5644   50.6000  -28.8892 H   0  0  0  0  0  0  0  0  0  0  0  0
  -37.9059   52.1105  -29.7750 H   0  0  0  0  0  0  0  0  0  0  0  0
  -36.9850   54.2871  -28.6900 H   0  0  0  0  0  0  0  0  0  0  0  0
  -37.8805   56.6784  -28.8948 H   0  0  0  0  0  0  0  0  0  0  0  0
  -40.1309   57.2394  -27.9926 H   0  0  0  0  0  0  0  0  0  0  0  0
  1  2  2  0
  1  3  1  1
  1  4  1  0
  1 23  1  0
  4  5  1  0
  6  5  1  0
  6  7  1  0
  6  8  1  0
  7 12  1  0
  8  9  1  0
  8 10  1  0
 10 11  1  0
 10 12  1  0
 12 13  1  0
 13 14  1  0
 13 22  1  0
 14 15  2  0
 15 16  1  0
 16 17  2  0
 16 22  1  0
 17 18  1  0
 17 19  1  0
 19 20  2  0
 20 21  1  0
 21 22  2  0
 23 24  1  0
 24 25  2  0
 24 26  1  1
 24 27  1  0
 27 28  1  0
 29 28  1  0
 29 30  1  0
 29 31  1  0
 30 35  1  0
 31 32  1  0
 31 33  1  0
 33 34  1  0
 33 35  1  0
 35 36  1  0
 36 37  2  0
 36 44  1  0
 37 38  1  0
 38 39  1  0
 38 42  2  0
 39 40  2  0
 39 41  1  0
 42 43  1  0
 43 44  2  0
  5 45  1  0
  5 46  1  0
  6 47  1  1
  8 48  1  1
  9 49  1  0
 10 50  1  6
 11 51  1  0
 12 52  1  1
 14 53  1  0
 18 54  1  0
 18 55  1  0
 20 56  1  0
 28 57  1  0
 28 58  1  0
 29 59  1  1
 31 60  1  1
 32 61  1  0
 33 62  1  1
 34 63  1  0
 35 64  1  6
 37 65  1  0
 41 66  1  0
 41 67  1  0
 42 68  1  0
 43 69  1  0
 44 70  1  0
M  CHG  3   3  -1  26  -1  36   1
M  END
>  <filename_input>  (14) 
7UMW_NAD_docked.sdf

>  <pdb_id>  (14) 
7UMW_NAD

>  <pose_rank>  (14) 
13

>  <num_atoms_heavy>  (14) 
44

>  <num_torsions>  (14) 
11

>  <pose>  (14) 
[-44.16098301433725, 51.87396546407412, -23.6585111349972, -3.4171690520892084, 2.294175903105716, -0.7120869307761077, 8.18636314526592, 1.8632677368098545, 7.496137558946708, -6.60392327480785, -10.03742848170106, -0.006270977474770288, -4.436075298074936, 5.8454453765286125, -0.8383134218740118, -5.727376353510646, 2.7185875627442018]

>  <energy>  (14) 
-743.2304343758565

>  <inter_energy>  (14) 
-765.045175225091

>  <intra_energy>  (14) 
20.430142713661137

>  <rmsd>  (14) 
10.3826

>  <sdf_rank>  (14) 
0

$$$$

     RDKit          3D

 70 74  0  0  0  0  0  0  0  0999 V2000
  -42.5825   52.8601  -25.4448 P   0  0  1  0  0  0  0  0  0  0  0  0
  -42.7634   54.1748  -26.1787 O   0  0  0  0  0  0  0  0  0  0  0  0
  -42.7450   51.6760  -26.3429 O   0  0  0  0  0  0  0  0  0  0  0  0
  -41.1140   53.0087  -24.7023 O   0  0  0  0  0  0  0  0  0  0  0  0
  -40.9505   54.1447  -23.9325 C   0  0  0  0  0  0  0  0  0  0  0  0
  -39.6565   54.8298  -24.4749 C   0  0  1  0  0  0  0  0  0  0  0  0
  -39.1024   53.8241  -25.5300 O   0  0  0  0  0  0  0  0  0  0  0  0
  -39.9016   55.9105  -25.1105 C   0  0  1  0  0  0  0  0  0  0  0  0
  -39.1641   57.0252  -24.5524 O   0  0  0  0  0  0  0  0  0  0  0  0
  -39.2092   55.7237  -26.6035 C   0  0  1  0  0  0  0  0  0  0  0  0
  -38.6544   56.9948  -27.0520 O   0  0  0  0  0  0  0  0  0  0  0  0
  -38.3301   54.8003  -26.3853 C   0  0  2  0  0  0  0  0  0  0  0  0
  -37.9658   54.1582  -27.6687 N   0  0  0  0  0  0  0  0  0  0  0  0
  -38.7073   53.3645  -28.3974 C   0  0  0  0  0  0  0  0  0  0  0  0
  -38.0234   53.0701  -29.5124 N   0  0  0  0  0  0  0  0  0  0  0  0
  -36.8133   53.6796  -29.4557 C   0  0  0  0  0  0  0  0  0  0  0  0
  -35.6944   53.7270  -30.2947 C   0  0  0  0  0  0  0  0  0  0  0  0
  -35.7105   53.0031  -31.5208 N   0  0  0  0  0  0  0  0  0  0  0  0
  -34.6500   54.4417  -29.9089 N   0  0  0  0  0  0  0  0  0  0  0  0
  -34.6366   55.1160  -28.7876 C   0  0  0  0  0  0  0  0  0  0  0  0
  -35.6680   55.0809  -27.9560 N   0  0  0  0  0  0  0  0  0  0  0  0
  -36.7640   54.3660  -28.2852 C   0  0  0  0  0  0  0  0  0  0  0  0
  -43.6805   52.7279  -24.2559 O   0  0  0  0  0  0  0  0  0  0  0  0
  -45.2244   52.1489  -24.4039 P   0  0  2  0  0  0  0  0  0  0  0  0
  -45.7989   52.7981  -25.6133 O   0  0  0  0  0  0  0  0  0  0  0  0
  -45.9708   52.3715  -23.1080 O   0  0  0  0  0  0  0  0  0  0  0  0
  -45.0278   50.5107  -24.6857 O   0  0  0  0  0  0  0  0  0  0  0  0
  -45.8907   49.8668  -25.6834 C   0  0  0  0  0  0  0  0  0  0  0  0
  -45.7949   48.3431  -25.4658 C   0  0  1  0  0  0  0  0  0  0  0  0
  -45.9722   47.7318  -26.6417 O   0  0  0  0  0  0  0  0  0  0  0  0
  -44.3750   47.9083  -24.9534 C   0  0  1  0  0  0  0  0  0  0  0  0
  -44.4777   46.9593  -23.9643 O   0  0  0  0  0  0  0  0  0  0  0  0
  -43.7276   47.3000  -26.1915 C   0  0  1  0  0  0  0  0  0  0  0  0
  -42.6183   46.3772  -25.7966 O   0  0  0  0  0  0  0  0  0  0  0  0
  -44.7878   46.6627  -26.7531 C   0  0  2  0  0  0  0  0  0  0  0  0
  -44.7838   46.3434  -28.1460 N   0  0  0  0  0  0  0  0  0  0  0  0
  -44.9012   45.0781  -28.5770 C   0  0  0  0  0  0  0  0  0  0  0  0
  -44.8232   44.8061  -29.9640 C   0  0  0  0  0  0  0  0  0  0  0  0
  -45.0025   43.3846  -30.4746 C   0  0  0  0  0  0  0  0  0  0  0  0
  -44.6749   43.0849  -31.6087 O   0  0  0  0  0  0  0  0  0  0  0  0
  -45.6061   42.4042  -29.5145 N   0  0  0  0  0  0  0  0  0  0  0  0
  -44.6027   45.8028  -30.9178 C   0  0  0  0  0  0  0  0  0  0  0  0
  -44.4733   47.1157  -30.3893 C   0  0  0  0  0  0  0  0  0  0  0  0
  -44.5525   47.3329  -29.0010 C   0  0  0  0  0  0  0  0  0  0  0  0
  -41.8163   54.8138  -24.0449 H   0  0  0  0  0  0  0  0  0  0  0  0
  -40.8688   53.9054  -22.8620 H   0  0  0  0  0  0  0  0  0  0  0  0
  -38.9836   55.0703  -23.6386 H   0  0  0  0  0  0  0  0  0  0  0  0
  -40.9861   56.0937  -25.0926 H   0  0  0  0  0  0  0  0  0  0  0  0
  -39.1945   56.9793  -23.5640 H   0  0  0  0  0  0  0  0  0  0  0  0
  -39.8930   55.4353  -27.4154 H   0  0  0  0  0  0  0  0  0  0  0  0
  -38.4139   57.5458  -26.2654 H   0  0  0  0  0  0  0  0  0  0  0  0
  -37.3993   55.1609  -25.9231 H   0  0  0  0  0  0  0  0  0  0  0  0
  -39.7139   53.0026  -28.1409 H   0  0  0  0  0  0  0  0  0  0  0  0
  -34.8924   53.0309  -32.1461 H   0  0  0  0  0  0  0  0  0  0  0  0
  -36.5402   52.4518  -31.7825 H   0  0  0  0  0  0  0  0  0  0  0  0
  -33.7551   55.7219  -28.5311 H   0  0  0  0  0  0  0  0  0  0  0  0
  -46.9306   50.2002  -25.5514 H   0  0  0  0  0  0  0  0  0  0  0  0
  -45.5710   50.1334  -26.7016 H   0  0  0  0  0  0  0  0  0  0  0  0
  -46.5563   48.0703  -24.7203 H   0  0  0  0  0  0  0  0  0  0  0  0
  -43.8053   48.7447  -24.5221 H   0  0  0  0  0  0  0  0  0  0  0  0
  -44.4301   47.3991  -23.0787 H   0  0  0  0  0  0  0  0  0  0  0  0
  -43.2469   48.0117  -26.8788 H   0  0  0  0  0  0  0  0  0  0  0  0
  -42.5631   46.3312  -24.8092 H   0  0  0  0  0  0  0  0  0  0  0  0
  -44.8330   45.6948  -26.2324 H   0  0  0  0  0  0  0  0  0  0  0  0
  -45.0567   44.2595  -27.8589 H   0  0  0  0  0  0  0  0  0  0  0  0
  -45.7530   41.4260  -29.8016 H   0  0  0  0  0  0  0  0  0  0  0  0
  -45.8739   42.7088  -28.5677 H   0  0  0  0  0  0  0  0  0  0  0  0
  -44.5346   45.5880  -31.9945 H   0  0  0  0  0  0  0  0  0  0  0  0
  -44.3104   47.9658  -31.0682 H   0  0  0  0  0  0  0  0  0  0  0  0
  -44.4188   48.3532  -28.6124 H   0  0  0  0  0  0  0  0  0  0  0  0
  1  2  2  0
  1  3  1  6
  1  4  1  0
  1 23  1  0
  4  5  1  0
  6  5  1  0
  6  7  1  0
  6  8  1  0
  7 12  1  0
  8  9  1  0
  8 10  1  0
 10 11  1  0
 10 12  1  0
 12 13  1  0
 13 14  1  0
 13 22  1  0
 14 15  2  0
 15 16  1  0
 16 17  2  0
 16 22  1  0
 17 18  1  0
 17 19  1  0
 19 20  2  0
 20 21  1  0
 21 22  2  0
 23 24  1  0
 24 25  2  0
 24 26  1  1
 24 27  1  0
 27 28  1  0
 29 28  1  0
 29 30  1  0
 29 31  1  0
 30 35  1  0
 31 32  1  0
 31 33  1  0
 33 34  1  0
 33 35  1  0
 35 36  1  0
 36 37  2  0
 36 44  1  0
 37 38  1  0
 38 39  1  0
 38 42  2  0
 39 40  2  0
 39 41  1  0
 42 43  1  0
 43 44  2  0
  5 45  1  0
  5 46  1  0
  6 47  1  1
  8 48  1  6
  9 49  1  0
 10 50  1  6
 11 51  1  0
 12 52  1  1
 14 53  1  0
 18 54  1  0
 18 55  1  0
 20 56  1  0
 28 57  1  0
 28 58  1  0
 29 59  1  1
 31 60  1  1
 32 61  1  0
 33 62  1  6
 34 63  1  0
 35 64  1  1
 37 65  1  0
 41 66  1  0
 41 67  1  0
 42 68  1  0
 43 69  1  0
 44 70  1  0
M  CHG  3   3  -1  26  -1  36   1
M  END
>  <filename_input>  (15) 
7UMW_NAD_docked.sdf

>  <pdb_id>  (15) 
7UMW_NAD

>  <pose_rank>  (15) 
14

>  <num_atoms_heavy>  (15) 
44

>  <num_torsions>  (15) 
11

>  <pose>  (15) 
[-42.58253385723114, 52.8600896135083, -25.444769751292167, 1.9968160730333429, -2.610464659067823, 2.587184963330387, 3.5628294576561217, -4.457663855973968, 3.1785150194013654, -0.1463577006047446, 2.817544348189747, 2.5988151701064743, 1.5366046816669052, 1.002588034228883, -1.404499992158284, 2.814811580189935, 0.7827413165050199]

>  <energy>  (15) 
-738.4318233431605

>  <inter_energy>  (15) 
-737.1395200516006

>  <intra_energy>  (15) 
5.605162833931976

>  <rmsd>  (15) 
7.20083

>  <sdf_rank>  (15) 
0

$$$$

     RDKit          3D

 70 74  0  0  0  0  0  0  0  0999 V2000
  -44.7520   52.6078  -24.2725 P   0  0  1  0  0  0  0  0  0  0  0  0
  -44.9208   54.0920  -24.5346 O   0  0  0  0  0  0  0  0  0  0  0  0
  -46.0234   51.9558  -23.8326 O   0  0  0  0  0  0  0  0  0  0  0  0
  -44.0838   52.0232  -25.6660 O   0  0  0  0  0  0  0  0  0  0  0  0
  -44.9846   51.6601  -26.6492 C   0  0  0  0  0  0  0  0  0  0  0  0
  -45.3706   50.1809  -26.3315 C   0  0  1  0  0  0  0  0  0  0  0  0
  -45.5615   49.5240  -27.7329 O   0  0  0  0  0  0  0  0  0  0  0  0
  -44.4243   49.5366  -25.7645 C   0  0  1  0  0  0  0  0  0  0  0  0
  -44.8605   48.9634  -24.5078 O   0  0  0  0  0  0  0  0  0  0  0  0
  -44.1610   48.1991  -26.7054 C   0  0  1  0  0  0  0  0  0  0  0  0
  -43.8361   47.0576  -25.8594 O   0  0  0  0  0  0  0  0  0  0  0  0
  -45.2780   48.0912  -27.3486 C   0  0  2  0  0  0  0  0  0  0  0  0
  -45.0637   47.2812  -28.5693 N   0  0  0  0  0  0  0  0  0  0  0  0
  -44.6646   47.7029  -29.7414 C   0  0  0  0  0  0  0  0  0  0  0  0
  -44.5304   46.6344  -30.5400 N   0  0  0  0  0  0  0  0  0  0  0  0
  -44.8834   45.5240  -29.8462 C   0  0  0  0  0  0  0  0  0  0  0  0
  -44.9618   44.1593  -30.1455 C   0  0  0  0  0  0  0  0  0  0  0  0
  -44.6195   43.7110  -31.4530 N   0  0  0  0  0  0  0  0  0  0  0  0
  -45.3639   43.3302  -29.1962 N   0  0  0  0  0  0  0  0  0  0  0  0
  -45.6691   43.7384  -27.9910 C   0  0  0  0  0  0  0  0  0  0  0  0
  -45.6276   45.0244  -27.6734 N   0  0  0  0  0  0  0  0  0  0  0  0
  -45.2315   45.9252  -28.5966 C   0  0  0  0  0  0  0  0  0  0  0  0
  -43.6489   52.3682  -23.1054 O   0  0  0  0  0  0  0  0  0  0  0  0
  -43.4491   53.2821  -21.7395 P   0  0  2  0  0  0  0  0  0  0  0  0
  -42.9859   52.3485  -20.6774 O   0  0  0  0  0  0  0  0  0  0  0  0
  -44.7248   54.0411  -21.4518 O   0  0  0  0  0  0  0  0  0  0  0  0
  -42.2167   54.3459  -22.1287 O   0  0  0  0  0  0  0  0  0  0  0  0
  -41.5353   54.1810  -23.4183 C   0  0  0  0  0  0  0  0  0  0  0  0
  -40.2367   55.0111  -23.3666 C   0  0  1  0  0  0  0  0  0  0  0  0
  -39.6808   55.0106  -24.5826 O   0  0  0  0  0  0  0  0  0  0  0  0
  -40.5120   56.5158  -23.0091 C   0  0  1  0  0  0  0  0  0  0  0  0
  -39.5784   56.9891  -22.1181 O   0  0  0  0  0  0  0  0  0  0  0  0
  -40.3591   57.2269  -24.3482 C   0  0  1  0  0  0  0  0  0  0  0  0
  -40.0644   58.6779  -24.1343 O   0  0  0  0  0  0  0  0  0  0  0  0
  -39.3219   56.5383  -24.8916 C   0  0  2  0  0  0  0  0  0  0  0  0
  -39.1205   56.5330  -26.3064 N   0  0  0  0  0  0  0  0  0  0  0  0
  -37.8896   56.5326  -26.8408 C   0  0  0  0  0  0  0  0  0  0  0  0
  -37.7424   56.5963  -28.2473 C   0  0  0  0  0  0  0  0  0  0  0  0
  -36.3568   56.5480  -28.8728 C   0  0  0  0  0  0  0  0  0  0  0  0
  -35.5567   55.6894  -28.5471 O   0  0  0  0  0  0  0  0  0  0  0  0
  -36.0462   57.6101  -29.8841 N   0  0  0  0  0  0  0  0  0  0  0  0
  -38.8317   56.6848  -29.1173 C   0  0  0  0  0  0  0  0  0  0  0  0
  -40.1030   56.6951  -28.4821 C   0  0  0  0  0  0  0  0  0  0  0  0
  -40.1957   56.6360  -27.0790 C   0  0  0  0  0  0  0  0  0  0  0  0
  -45.8741   52.3061  -26.6139 H   0  0  0  0  0  0  0  0  0  0  0  0
  -44.5547   51.7635  -27.6564 H   0  0  0  0  0  0  0  0  0  0  0  0
  -46.2459   50.1589  -25.6657 H   0  0  0  0  0  0  0  0  0  0  0  0
  -43.5688   50.2138  -25.6248 H   0  0  0  0  0  0  0  0  0  0  0  0
  -44.4694   49.4773  -23.7574 H   0  0  0  0  0  0  0  0  0  0  0  0
  -43.3095   48.2621  -27.3989 H   0  0  0  0  0  0  0  0  0  0  0  0
  -43.9108   47.3202  -24.9078 H   0  0  0  0  0  0  0  0  0  0  0  0
  -46.0864   47.6134  -26.7757 H   0  0  0  0  0  0  0  0  0  0  0  0
  -44.4730   48.7491  -30.0222 H   0  0  0  0  0  0  0  0  0  0  0  0
  -44.6735   42.7087  -31.6843 H   0  0  0  0  0  0  0  0  0  0  0  0
  -44.3178   44.3889  -32.1674 H   0  0  0  0  0  0  0  0  0  0  0  0
  -45.9650   43.0022  -27.2291 H   0  0  0  0  0  0  0  0  0  0  0  0
  -41.2964   53.1201  -23.5838 H   0  0  0  0  0  0  0  0  0  0  0  0
  -42.1794   54.5207  -24.2428 H   0  0  0  0  0  0  0  0  0  0  0  0
  -39.5908   54.5610  -22.5984 H   0  0  0  0  0  0  0  0  0  0  0  0
  -41.4944   56.6668  -22.5377 H   0  0  0  0  0  0  0  0  0  0  0  0
  -39.8939   56.8291  -21.1934 H   0  0  0  0  0  0  0  0  0  0  0  0
  -41.2506   57.2308  -24.9925 H   0  0  0  0  0  0  0  0  0  0  0  0
  -40.0259   58.8672  -23.1633 H   0  0  0  0  0  0  0  0  0  0  0  0
  -38.4250   57.0169  -24.4714 H   0  0  0  0  0  0  0  0  0  0  0  0
  -37.0029   56.4834  -26.1917 H   0  0  0  0  0  0  0  0  0  0  0  0
  -35.1243   57.6305  -30.3430 H   0  0  0  0  0  0  0  0  0  0  0  0
  -36.7548   58.3194  -30.1201 H   0  0  0  0  0  0  0  0  0  0  0  0
  -38.7146   56.7420  -30.2096 H   0  0  0  0  0  0  0  0  0  0  0  0
  -41.0184   56.7496  -29.0896 H   0  0  0  0  0  0  0  0  0  0  0  0
  -41.1890   56.6762  -26.6079 H   0  0  0  0  0  0  0  0  0  0  0  0
  1  2  2  0
  1  3  1  1
  1  4  1  0
  1 23  1  0
  4  5  1  0
  6  5  1  0
  6  7  1  0
  6  8  1  0
  7 12  1  0
  8  9  1  0
  8 10  1  0
 10 11  1  0
 10 12  1  0
 12 13  1  0
 13 14  1  0
 13 22  1  0
 14 15  2  0
 15 16  1  0
 16 17  2  0
 16 22  1  0
 17 18  1  0
 17 19  1  0
 19 20  2  0
 20 21  1  0
 21 22  2  0
 23 24  1  0
 24 25  2  0
 24 26  1  1
 24 27  1  0
 27 28  1  0
 29 28  1  0
 29 30  1  0
 29 31  1  0
 30 35  1  0
 31 32  1  0
 31 33  1  0
 33 34  1  0
 33 35  1  0
 35 36  1  0
 36 37  2  0
 36 44  1  0
 37 38  1  0
 38 39  1  0
 38 42  2  0
 39 40  2  0
 39 41  1  0
 42 43  1  0
 43 44  2  0
  5 45  1  0
  5 46  1  0
  6 47  1  1
  8 48  1  1
  9 49  1  0
 10 50  1  6
 11 51  1  0
 12 52  1  1
 14 53  1  0
 18 54  1  0
 18 55  1  0
 20 56  1  0
 28 57  1  0
 28 58  1  0
 29 59  1  1
 31 60  1  1
 32 61  1  0
 33 62  1  6
 34 63  1  0
 35 64  1  1
 37 65  1  0
 41 66  1  0
 41 67  1  0
 42 68  1  0
 43 69  1  0
 44 70  1  0
M  CHG  3   3  -1  26  -1  36   1
M  END
>  <filename_input>  (16) 
7UMW_NAD_docked.sdf

>  <pdb_id>  (16) 
7UMW_NAD

>  <pose_rank>  (16) 
15

>  <num_atoms_heavy>  (16) 
44

>  <num_torsions>  (16) 
11

>  <pose>  (16) 
[-44.75197761863972, 52.60780246467039, -24.272538592339487, 1.4474520807667177, -2.390425894890295, 0.5541890096988562, 1.127888351380481, -3.779713914105232, 0.7425564860534117, -0.42077005131753464, 1.9983209813424714, -0.3074432449605818, -2.4178474657989364, 0.9858463915147656, 4.480433857738116, 3.2170186408669332, -1.7618969136913785]

>  <energy>  (16) 
-730.3822313131625

>  <inter_energy>  (16) 
-753.6143370650879

>  <intra_energy>  (16) 
28.800501423906496

>  <rmsd>  (16) 
11.0151

>  <sdf_rank>  (16) 
0

$$$$

     RDKit          3D

 70 74  0  0  0  0  0  0  0  0999 V2000
  -44.4723   52.7443  -25.0319 P   0  0  1  0  0  0  0  0  0  0  0  0
  -44.9103   53.8143  -24.0505 O   0  0  0  0  0  0  0  0  0  0  0  0
  -43.0233   52.4019  -24.8966 O   0  0  0  0  0  0  0  0  0  0  0  0
  -45.5351   51.5043  -24.7813 O   0  0  0  0  0  0  0  0  0  0  0  0
  -45.0325   50.2371  -25.0079 C   0  0  0  0  0  0  0  0  0  0  0  0
  -45.0757   50.0452  -26.5569 C   0  0  1  0  0  0  0  0  0  0  0  0
  -44.4420   48.6392  -26.7878 O   0  0  0  0  0  0  0  0  0  0  0  0
  -46.2678   49.9750  -27.0107 C   0  0  1  0  0  0  0  0  0  0  0  0
  -46.4952   50.9673  -28.0411 O   0  0  0  0  0  0  0  0  0  0  0  0
  -46.3485   48.5496  -27.8505 C   0  0  1  0  0  0  0  0  0  0  0  0
  -47.1864   48.7199  -29.0309 O   0  0  0  0  0  0  0  0  0  0  0  0
  -45.1033   48.3095  -28.1050 C   0  0  2  0  0  0  0  0  0  0  0  0
  -44.9331   46.8688  -28.4009 N   0  0  0  0  0  0  0  0  0  0  0  0
  -45.0122   45.8711  -27.5588 C   0  0  0  0  0  0  0  0  0  0  0  0
  -44.8695   44.7332  -28.2535 N   0  0  0  0  0  0  0  0  0  0  0  0
  -44.6697   45.0411  -29.5590 C   0  0  0  0  0  0  0  0  0  0  0  0
  -44.4470   44.2974  -30.7232 C   0  0  0  0  0  0  0  0  0  0  0  0
  -44.3929   42.8767  -30.6439 N   0  0  0  0  0  0  0  0  0  0  0  0
  -44.2841   44.9489  -31.8631 N   0  0  0  0  0  0  0  0  0  0  0  0
  -44.3436   46.2538  -31.9403 C   0  0  0  0  0  0  0  0  0  0  0  0
  -44.5324   46.9951  -30.8580 N   0  0  0  0  0  0  0  0  0  0  0  0
  -44.7001   46.3948  -29.6613 C   0  0  0  0  0  0  0  0  0  0  0  0
  -44.7163   53.2497  -26.5556 O   0  0  0  0  0  0  0  0  0  0  0  0
  -45.8681   54.3259  -27.0614 P   0  0  2  0  0  0  0  0  0  0  0  0
  -45.2952   55.6821  -26.8448 O   0  0  0  0  0  0  0  0  0  0  0  0
  -47.1737   54.0321  -26.3577 O   0  0  0  0  0  0  0  0  0  0  0  0
  -46.0158   54.0343  -28.7031 O   0  0  0  0  0  0  0  0  0  0  0  0
  -47.1292   54.6620  -29.4248 C   0  0  0  0  0  0  0  0  0  0  0  0
  -46.8920   54.4356  -30.9316 C   0  0  1  0  0  0  0  0  0  0  0  0
  -48.0583   54.1216  -31.5051 O   0  0  0  0  0  0  0  0  0  0  0  0
  -46.3839   55.7364  -31.6509 C   0  0  1  0  0  0  0  0  0  0  0  0
  -45.3815   55.4451  -32.5453 O   0  0  0  0  0  0  0  0  0  0  0  0
  -47.6183   56.2284  -32.3968 C   0  0  1  0  0  0  0  0  0  0  0  0
  -47.2190   57.1214  -33.5287 O   0  0  0  0  0  0  0  0  0  0  0  0
  -48.1638   55.0521  -32.8018 C   0  0  2  0  0  0  0  0  0  0  0  0
  -49.5523   54.9749  -33.1308 N   0  0  0  0  0  0  0  0  0  0  0  0
  -49.9895   54.2394  -34.1646 C   0  0  0  0  0  0  0  0  0  0  0  0
  -51.3667   54.2496  -34.4918 C   0  0  0  0  0  0  0  0  0  0  0  0
  -51.8876   53.3847  -35.6294 C   0  0  0  0  0  0  0  0  0  0  0  0
  -52.9967   53.5726  -36.0962 O   0  0  0  0  0  0  0  0  0  0  0  0
  -50.9701   52.3041  -36.1172 N   0  0  0  0  0  0  0  0  0  0  0  0
  -52.3027   55.0180  -33.7953 C   0  0  0  0  0  0  0  0  0  0  0  0
  -51.7675   55.7825  -32.7234 C   0  0  0  0  0  0  0  0  0  0  0  0
  -50.3890   55.7426  -32.4423 C   0  0  0  0  0  0  0  0  0  0  0  0
  -43.9989   50.1613  -24.6393 H   0  0  0  0  0  0  0  0  0  0  0  0
  -45.6158   49.4657  -24.4836 H   0  0  0  0  0  0  0  0  0  0  0  0
  -44.5709   50.8883  -27.0511 H   0  0  0  0  0  0  0  0  0  0  0  0
  -46.9726   50.0918  -26.1743 H   0  0  0  0  0  0  0  0  0  0  0  0
  -46.6954   51.8405  -27.6199 H   0  0  0  0  0  0  0  0  0  0  0  0
  -46.8135   47.7066  -27.3185 H   0  0  0  0  0  0  0  0  0  0  0  0
  -48.1169   48.9089  -28.7506 H   0  0  0  0  0  0  0  0  0  0  0  0
  -44.6995   48.8701  -28.9609 H   0  0  0  0  0  0  0  0  0  0  0  0
  -45.1682   45.9513  -26.4729 H   0  0  0  0  0  0  0  0  0  0  0  0
  -44.2295   42.3193  -31.4944 H   0  0  0  0  0  0  0  0  0  0  0  0
  -44.5171   42.4065  -29.7359 H   0  0  0  0  0  0  0  0  0  0  0  0
  -44.2353   46.7434  -32.9194 H   0  0  0  0  0  0  0  0  0  0  0  0
  -48.0808   54.2012  -29.1211 H   0  0  0  0  0  0  0  0  0  0  0  0
  -47.1805   55.7371  -29.1981 H   0  0  0  0  0  0  0  0  0  0  0  0
  -46.1375   53.6410  -31.0285 H   0  0  0  0  0  0  0  0  0  0  0  0
  -45.9679   56.4742  -30.9491 H   0  0  0  0  0  0  0  0  0  0  0  0
  -44.5577   55.2057  -32.0512 H   0  0  0  0  0  0  0  0  0  0  0  0
  -48.3185   56.8420  -31.8108 H   0  0  0  0  0  0  0  0  0  0  0  0
  -46.8425   57.9630  -33.1680 H   0  0  0  0  0  0  0  0  0  0  0  0
  -47.6299   54.8084  -33.7321 H   0  0  0  0  0  0  0  0  0  0  0  0
  -49.2839   53.6341  -34.7526 H   0  0  0  0  0  0  0  0  0  0  0  0
  -51.2661   51.6852  -36.8855 H   0  0  0  0  0  0  0  0  0  0  0  0
  -50.0438   52.1805  -35.6840 H   0  0  0  0  0  0  0  0  0  0  0  0
  -53.3712   55.0303  -34.0563 H   0  0  0  0  0  0  0  0  0  0  0  0
  -52.4335   56.4081  -32.1109 H   0  0  0  0  0  0  0  0  0  0  0  0
  -49.9926   56.3663  -31.6274 H   0  0  0  0  0  0  0  0  0  0  0  0
  1  2  2  0
  1  3  1  6
  1  4  1  0
  1 23  1  0
  4  5  1  0
  6  5  1  0
  6  7  1  0
  6  8  1  0
  7 12  1  0
  8  9  1  0
  8 10  1  0
 10 11  1  0
 10 12  1  0
 12 13  1  0
 13 14  1  0
 13 22  1  0
 14 15  2  0
 15 16  1  0
 16 17  2  0
 16 22  1  0
 17 18  1  0
 17 19  1  0
 19 20  2  0
 20 21  1  0
 21 22  2  0
 23 24  1  0
 24 25  2  0
 24 26  1  1
 24 27  1  0
 27 28  1  0
 29 28  1  0
 29 30  1  0
 29 31  1  0
 30 35  1  0
 31 32  1  0
 31 33  1  0
 33 34  1  0
 33 35  1  0
 35 36  1  0
 36 37  2  0
 36 44  1  0
 37 38  1  0
 38 39  1  0
 38 42  2  0
 39 40  2  0
 39 41  1  0
 42 43  1  0
 43 44  2  0
  5 45  1  0
  5 46  1  0
  6 47  1  6
  8 48  1  1
  9 49  1  0
 10 50  1  1
 11 51  1  0
 12 52  1  6
 14 53  1  0
 18 54  1  0
 18 55  1  0
 20 56  1  0
 28 57  1  0
 28 58  1  0
 29 59  1  1
 31 60  1  1
 32 61  1  0
 33 62  1  1
 34 63  1  0
 35 64  1  6
 37 65  1  0
 41 66  1  0
 41 67  1  0
 42 68  1  0
 43 69  1  0
 44 70  1  0
M  CHG  3   3  -1  26  -1  36   1
M  END
>  <filename_input>  (17) 
7UMW_NAD_docked.sdf

>  <pdb_id>  (17) 
7UMW_NAD

>  <pose_rank>  (17) 
16

>  <num_atoms_heavy>  (17) 
44

>  <num_torsions>  (17) 
11

>  <pose>  (17) 
[-44.47227963680992, 52.74430273675573, -25.031939704965588, 1.1936235346347142, 0.09489773223517611, -0.6451980371288286, 44.025371285586104, 15.190275957573466, -18.7652421065831, 6.132888885280898, 32.24515148959969, 11.15721084595778, -30.77651066714863, -49.707095652324675, -27.7920616814398, -3.1213306596269916, 0.7765689262110188]

>  <energy>  (17) 
-720.2999662166967

>  <inter_energy>  (17) 
-715.2111562364134

>  <intra_energy>  (17) 
10.374948042463055

>  <rmsd>  (17) 
10.7519

>  <sdf_rank>  (17) 
0

$$$$

     RDKit          3D

 70 74  0  0  0  0  0  0  0  0999 V2000
  -45.1020   51.4187  -27.3135 P   0  0  1  0  0  0  0  0  0  0  0  0
  -46.0325   52.2967  -26.4991 O   0  0  0  0  0  0  0  0  0  0  0  0
  -45.3150   51.5696  -28.7856 O   0  0  0  0  0  0  0  0  0  0  0  0
  -43.5937   51.8009  -26.7579 O   0  0  0  0  0  0  0  0  0  0  0  0
  -42.6484   50.7991  -26.8701 C   0  0  0  0  0  0  0  0  0  0  0  0
  -41.4752   51.2299  -25.9342 C   0  0  1  0  0  0  0  0  0  0  0  0
  -40.4395   51.8901  -26.8951 O   0  0  0  0  0  0  0  0  0  0  0  0
  -41.8167   52.1385  -25.1037 C   0  0  1  0  0  0  0  0  0  0  0  0
  -41.5478   51.7298  -23.7403 O   0  0  0  0  0  0  0  0  0  0  0  0
  -40.7479   53.3832  -25.3306 C   0  0  1  0  0  0  0  0  0  0  0  0
  -40.4367   54.0053  -24.0497 O   0  0  0  0  0  0  0  0  0  0  0  0
  -39.7487   52.7879  -25.8964 C   0  0  2  0  0  0  0  0  0  0  0  0
  -38.9246   53.7881  -26.6124 N   0  0  0  0  0  0  0  0  0  0  0  0
  -37.6381   53.7375  -26.8431 C   0  0  0  0  0  0  0  0  0  0  0  0
  -37.3102   54.8048  -27.5855 N   0  0  0  0  0  0  0  0  0  0  0  0
  -38.4242   55.5491  -27.7953 C   0  0  0  0  0  0  0  0  0  0  0  0
  -38.6958   56.7482  -28.4635 C   0  0  0  0  0  0  0  0  0  0  0  0
  -37.6338   57.4432  -29.1092 N   0  0  0  0  0  0  0  0  0  0  0  0
  -39.9392   57.2003  -28.4621 N   0  0  0  0  0  0  0  0  0  0  0  0
  -40.9186   56.5584  -27.8783 C   0  0  0  0  0  0  0  0  0  0  0  0
  -40.6995   55.4304  -27.2179 N   0  0  0  0  0  0  0  0  0  0  0  0
  -39.4527   54.9163  -27.1746 C   0  0  0  0  0  0  0  0  0  0  0  0
  -45.3398   49.8561  -26.9415 O   0  0  0  0  0  0  0  0  0  0  0  0
  -45.7409   49.2501  -25.4541 P   0  0  2  0  0  0  0  0  0  0  0  0
  -44.4934   48.6653  -24.8920 O   0  0  0  0  0  0  0  0  0  0  0  0
  -46.9154   48.3084  -25.5953 O   0  0  0  0  0  0  0  0  0  0  0  0
  -46.1813   50.5966  -24.5625 O   0  0  0  0  0  0  0  0  0  0  0  0
  -45.3318   50.9926  -23.4328 C   0  0  0  0  0  0  0  0  0  0  0  0
  -45.8058   52.3818  -22.9603 C   0  0  1  0  0  0  0  0  0  0  0  0
  -45.8307   52.3927  -21.6234 O   0  0  0  0  0  0  0  0  0  0  0  0
  -44.8146   53.5217  -23.3913 C   0  0  1  0  0  0  0  0  0  0  0  0
  -45.4991   54.6279  -23.8355 O   0  0  0  0  0  0  0  0  0  0  0  0
  -44.0777   53.8515  -22.0989 C   0  0  1  0  0  0  0  0  0  0  0  0
  -43.4924   55.2263  -22.1717 O   0  0  0  0  0  0  0  0  0  0  0  0
  -45.0815   53.7379  -21.1907 C   0  0  2  0  0  0  0  0  0  0  0  0
  -44.7857   53.5025  -19.8125 N   0  0  0  0  0  0  0  0  0  0  0  0
  -43.5227   53.3834  -19.3754 C   0  0  0  0  0  0  0  0  0  0  0  0
  -43.2840   53.0826  -18.0129 C   0  0  0  0  0  0  0  0  0  0  0  0
  -41.8588   52.9919  -17.4894 C   0  0  0  0  0  0  0  0  0  0  0  0
  -41.6404   52.8713  -16.2972 O   0  0  0  0  0  0  0  0  0  0  0  0
  -40.7675   53.0708  -18.5141 N   0  0  0  0  0  0  0  0  0  0  0  0
  -44.3151   52.8772  -17.0931 C   0  0  0  0  0  0  0  0  0  0  0  0
  -45.6257   53.0042  -17.6281 C   0  0  0  0  0  0  0  0  0  0  0  0
  -45.8099   53.2987  -18.9920 C   0  0  0  0  0  0  0  0  0  0  0  0
  -43.0676   49.8360  -26.5435 H   0  0  0  0  0  0  0  0  0  0  0  0
  -42.3148   50.6659  -27.9098 H   0  0  0  0  0  0  0  0  0  0  0  0
  -41.1165   50.3614  -25.3624 H   0  0  0  0  0  0  0  0  0  0  0  0
  -42.8811   52.3728  -25.2530 H   0  0  0  0  0  0  0  0  0  0  0  0
  -41.9695   52.3706  -23.1145 H   0  0  0  0  0  0  0  0  0  0  0  0
  -41.1109   54.2192  -25.9465 H   0  0  0  0  0  0  0  0  0  0  0  0
  -40.7332   53.4126  -23.3143 H   0  0  0  0  0  0  0  0  0  0  0  0
  -39.0853   52.2548  -25.1995 H   0  0  0  0  0  0  0  0  0  0  0  0
  -36.9474   52.9573  -26.4906 H   0  0  0  0  0  0  0  0  0  0  0  0
  -37.8223   58.3267  -29.6040 H   0  0  0  0  0  0  0  0  0  0  0  0
  -36.6772   57.0624  -29.0814 H   0  0  0  0  0  0  0  0  0  0  0  0
  -41.9404   56.9614  -27.9367 H   0  0  0  0  0  0  0  0  0  0  0  0
  -45.4311   50.2638  -22.6149 H   0  0  0  0  0  0  0  0  0  0  0  0
  -44.2751   51.0266  -23.7363 H   0  0  0  0  0  0  0  0  0  0  0  0
  -46.7934   52.5613  -23.4102 H   0  0  0  0  0  0  0  0  0  0  0  0
  -44.1505   53.2176  -24.2138 H   0  0  0  0  0  0  0  0  0  0  0  0
  -45.8222   55.1499  -23.0588 H   0  0  0  0  0  0  0  0  0  0  0  0
  -43.2160   53.2099  -21.8623 H   0  0  0  0  0  0  0  0  0  0  0  0
  -43.3455   55.5714  -21.2555 H   0  0  0  0  0  0  0  0  0  0  0  0
  -45.5871   54.7145  -21.2175 H   0  0  0  0  0  0  0  0  0  0  0  0
  -42.6802   53.5183  -20.0697 H   0  0  0  0  0  0  0  0  0  0  0  0
  -39.7814   53.0152  -18.2217 H   0  0  0  0  0  0  0  0  0  0  0  0
  -41.0037   53.1805  -19.5106 H   0  0  0  0  0  0  0  0  0  0  0  0
  -44.1273   52.6359  -16.0365 H   0  0  0  0  0  0  0  0  0  0  0  0
  -46.4997   52.8718  -16.9735 H   0  0  0  0  0  0  0  0  0  0  0  0
  -46.8332   53.3619  -19.3905 H   0  0  0  0  0  0  0  0  0  0  0  0
  1  2  2  0
  1  3  1  6
  1  4  1  0
  1 23  1  0
  4  5  1  0
  6  5  1  0
  6  7  1  0
  6  8  1  0
  7 12  1  0
  8  9  1  0
  8 10  1  0
 10 11  1  0
 10 12  1  0
 12 13  1  0
 13 14  1  0
 13 22  1  0
 14 15  2  0
 15 16  1  0
 16 17  2  0
 16 22  1  0
 17 18  1  0
 17 19  1  0
 19 20  2  0
 20 21  1  0
 21 22  2  0
 23 24  1  0
 24 25  2  0
 24 26  1  6
 24 27  1  0
 27 28  1  0
 29 28  1  0
 29 30  1  0
 29 31  1  0
 30 35  1  0
 31 32  1  0
 31 33  1  0
 33 34  1  0
 33 35  1  0
 35 36  1  0
 36 37  2  0
 36 44  1  0
 37 38  1  0
 38 39  1  0
 38 42  2  0
 39 40  2  0
 39 41  1  0
 42 43  1  0
 43 44  2  0
  5 45  1  0
  5 46  1  0
  6 47  1  1
  8 48  1  1
  9 49  1  0
 10 50  1  6
 11 51  1  0
 12 52  1  1
 14 53  1  0
 18 54  1  0
 18 55  1  0
 20 56  1  0
 28 57  1  0
 28 58  1  0
 29 59  1  6
 31 60  1  6
 32 61  1  0
 33 62  1  1
 34 63  1  0
 35 64  1  1
 37 65  1  0
 41 66  1  0
 41 67  1  0
 42 68  1  0
 43 69  1  0
 44 70  1  0
M  CHG  3   3  -1  26  -1  36   1
M  END
>  <filename_input>  (18) 
7UMW_NAD_docked.sdf

>  <pdb_id>  (18) 
7UMW_NAD

>  <pose_rank>  (18) 
17

>  <num_atoms_heavy>  (18) 
44

>  <num_torsions>  (18) 
11

>  <pose>  (18) 
[-45.10204270956541, 51.41865016208891, -27.31349583648736, -0.7022521904490626, 1.475622061170191, 0.07798638909531752, -0.9704507077698848, 1.1523634918303665, 1.5588629132706968, 3.7196164144381285, 0.7204326178959429, 1.6029405297190527, 1.9904708626137129, 0.5478621164706605, -2.677898881266406, 0.6994969929383529, 0.3872108836814289]

>  <energy>  (18) 
-635.2916526802679

>  <inter_energy>  (18) 
-693.8046243590063

>  <intra_energy>  (18) 
52.90095579838324

>  <rmsd>  (18) 
9.40454

>  <sdf_rank>  (18) 
0

$$$$

     RDKit          3D

 70 74  0  0  0  0  0  0  0  0999 V2000
  -44.4185   48.0586  -27.5110 P   0  0  1  0  0  0  0  0  0  0  0  0
  -44.7142   47.2847  -28.7812 O   0  0  0  0  0  0  0  0  0  0  0  0
  -42.9560   48.1243  -27.2079 O   0  0  0  0  0  0  0  0  0  0  0  0
  -45.1769   49.5095  -27.7340 O   0  0  0  0  0  0  0  0  0  0  0  0
  -46.4835   49.5709  -27.2882 C   0  0  0  0  0  0  0  0  0  0  0  0
  -46.8867   51.0757  -27.3931 C   0  0  1  0  0  0  0  0  0  0  0  0
  -46.2304   51.7376  -26.1429 O   0  0  0  0  0  0  0  0  0  0  0  0
  -46.3725   51.6529  -28.4101 C   0  0  1  0  0  0  0  0  0  0  0  0
  -47.3929   52.2624  -29.2381 O   0  0  0  0  0  0  0  0  0  0  0  0
  -45.5499   52.9631  -27.8185 C   0  0  1  0  0  0  0  0  0  0  0  0
  -45.6750   54.0825  -28.7435 O   0  0  0  0  0  0  0  0  0  0  0  0
  -46.1166   53.1481  -26.6706 C   0  0  2  0  0  0  0  0  0  0  0  0
  -45.2135   53.9343  -25.7997 N   0  0  0  0  0  0  0  0  0  0  0  0
  -45.5104   54.5122  -24.6645 C   0  0  0  0  0  0  0  0  0  0  0  0
  -44.3868   55.0515  -24.1703 N   0  0  0  0  0  0  0  0  0  0  0  0
  -43.3729   54.8216  -25.0410 C   0  0  0  0  0  0  0  0  0  0  0  0
  -42.0126   55.1479  -25.0768 C   0  0  0  0  0  0  0  0  0  0  0  0
  -41.4466   55.8977  -24.0067 N   0  0  0  0  0  0  0  0  0  0  0  0
  -41.2990   54.7520  -26.1181 N   0  0  0  0  0  0  0  0  0  0  0  0
  -41.8144   54.0541  -27.0977 C   0  0  0  0  0  0  0  0  0  0  0  0
  -43.1024   53.7422  -27.1114 N   0  0  0  0  0  0  0  0  0  0  0  0
  -43.8894   54.1202  -26.0826 C   0  0  0  0  0  0  0  0  0  0  0  0
  -45.1504   47.3544  -26.2442 O   0  0  0  0  0  0  0  0  0  0  0  0
  -44.4667   47.0242  -24.7731 P   0  0  2  0  0  0  0  0  0  0  0  0
  -43.2351   46.2374  -25.0529 O   0  0  0  0  0  0  0  0  0  0  0  0
  -45.4922   46.3644  -23.8791 O   0  0  0  0  0  0  0  0  0  0  0  0
  -44.0473   48.5260  -24.1641 O   0  0  0  0  0  0  0  0  0  0  0  0
  -45.0500   49.5974  -24.2007 C   0  0  0  0  0  0  0  0  0  0  0  0
  -44.2949   50.9353  -24.3344 C   0  0  1  0  0  0  0  0  0  0  0  0
  -44.7369   51.7715  -23.3892 O   0  0  0  0  0  0  0  0  0  0  0  0
  -42.7523   50.7694  -24.0888 C   0  0  1  0  0  0  0  0  0  0  0  0
  -42.0272   51.5038  -24.9968 O   0  0  0  0  0  0  0  0  0  0  0  0
  -42.5580   51.3376  -22.6882 C   0  0  1  0  0  0  0  0  0  0  0  0
  -41.1335   51.7482  -22.4878 O   0  0  0  0  0  0  0  0  0  0  0  0
  -43.4250   52.3832  -22.7090 C   0  0  2  0  0  0  0  0  0  0  0  0
  -43.9298   52.9276  -21.4879 N   0  0  0  0  0  0  0  0  0  0  0  0
  -43.3254   52.6959  -20.3125 C   0  0  0  0  0  0  0  0  0  0  0  0
  -43.9026   53.2007  -19.1226 C   0  0  0  0  0  0  0  0  0  0  0  0
  -43.2062   52.9896  -17.7869 C   0  0  0  0  0  0  0  0  0  0  0  0
  -43.8394   53.0000  -16.7466 O   0  0  0  0  0  0  0  0  0  0  0  0
  -41.7219   52.7846  -17.8358 N   0  0  0  0  0  0  0  0  0  0  0  0
  -45.1010   53.9184  -19.1100 C   0  0  0  0  0  0  0  0  0  0  0  0
  -45.6929   54.1132  -20.3874 C   0  0  0  0  0  0  0  0  0  0  0  0
  -45.0822   53.5857  -21.5404 C   0  0  0  0  0  0  0  0  0  0  0  0
  -47.1360   48.9525  -27.9221 H   0  0  0  0  0  0  0  0  0  0  0  0
  -46.5835   49.1911  -26.2607 H   0  0  0  0  0  0  0  0  0  0  0  0
  -47.9807   51.1641  -27.4667 H   0  0  0  0  0  0  0  0  0  0  0  0
  -45.7810   50.9164  -28.9739 H   0  0  0  0  0  0  0  0  0  0  0  0
  -48.0833   52.6748  -28.6608 H   0  0  0  0  0  0  0  0  0  0  0  0
  -44.4630   52.8353  -27.7072 H   0  0  0  0  0  0  0  0  0  0  0  0
  -45.7691   54.9246  -28.2317 H   0  0  0  0  0  0  0  0  0  0  0  0
  -47.0749   53.6858  -26.7199 H   0  0  0  0  0  0  0  0  0  0  0  0
  -46.5058   54.5492  -24.1978 H   0  0  0  0  0  0  0  0  0  0  0  0
  -40.4464   56.1435  -24.0226 H   0  0  0  0  0  0  0  0  0  0  0  0
  -42.0372   56.1942  -23.2167 H   0  0  0  0  0  0  0  0  0  0  0  0
  -41.1682   53.7210  -27.9232 H   0  0  0  0  0  0  0  0  0  0  0  0
  -45.7191   49.4562  -25.0623 H   0  0  0  0  0  0  0  0  0  0  0  0
  -45.6609   49.5873  -23.2860 H   0  0  0  0  0  0  0  0  0  0  0  0
  -44.4686   51.3089  -25.3543 H   0  0  0  0  0  0  0  0  0  0  0  0
  -42.4157   49.7275  -24.1940 H   0  0  0  0  0  0  0  0  0  0  0  0
  -41.4199   52.1188  -24.5140 H   0  0  0  0  0  0  0  0  0  0  0  0
  -42.7515   50.6418  -21.8585 H   0  0  0  0  0  0  0  0  0  0  0  0
  -40.9394   51.8042  -21.5187 H   0  0  0  0  0  0  0  0  0  0  0  0
  -42.8580   53.2000  -23.1797 H   0  0  0  0  0  0  0  0  0  0  0  0
  -42.3897   52.1189  -20.2740 H   0  0  0  0  0  0  0  0  0  0  0  0
  -41.1936   52.6364  -16.9641 H   0  0  0  0  0  0  0  0  0  0  0  0
  -41.2305   52.7920  -18.7410 H   0  0  0  0  0  0  0  0  0  0  0  0
  -45.5517   54.3030  -18.1832 H   0  0  0  0  0  0  0  0  0  0  0  0
  -46.6323   54.6788  -20.4752 H   0  0  0  0  0  0  0  0  0  0  0  0
  -45.5742   53.7225  -22.5146 H   0  0  0  0  0  0  0  0  0  0  0  0
  1  2  2  0
  1  3  1  1
  1  4  1  0
  1 23  1  0
  4  5  1  0
  6  5  1  0
  6  7  1  0
  6  8  1  0
  7 12  1  0
  8  9  1  0
  8 10  1  0
 10 11  1  0
 10 12  1  0
 12 13  1  0
 13 14  1  0
 13 22  1  0
 14 15  2  0
 15 16  1  0
 16 17  2  0
 16 22  1  0
 17 18  1  0
 17 19  1  0
 19 20  2  0
 20 21  1  0
 21 22  2  0
 23 24  1  0
 24 25  2  0
 24 26  1  1
 24 27  1  0
 27 28  1  0
 29 28  1  0
 29 30  1  0
 29 31  1  0
 30 35  1  0
 31 32  1  0
 31 33  1  0
 33 34  1  0
 33 35  1  0
 35 36  1  0
 36 37  2  0
 36 44  1  0
 37 38  1  0
 38 39  1  0
 38 42  2  0
 39 40  2  0
 39 41  1  0
 42 43  1  0
 43 44  2  0
  5 45  1  0
  5 46  1  0
  6 47  1  1
  8 48  1  6
  9 49  1  0
 10 50  1  1
 11 51  1  0
 12 52  1  6
 14 53  1  0
 18 54  1  0
 18 55  1  0
 20 56  1  0
 28 57  1  0
 28 58  1  0
 29 59  1  6
 31 60  1  1
 32 61  1  0
 33 62  1  1
 34 63  1  0
 35 64  1  6
 37 65  1  0
 41 66  1  0
 41 67  1  0
 42 68  1  0
 43 69  1  0
 44 70  1  0
M  CHG  3   3  -1  26  -1  36   1
M  END
>  <filename_input>  (19) 
7UMW_NAD_docked.sdf

>  <pdb_id>  (19) 
7UMW_NAD

>  <pose_rank>  (19) 
18

>  <num_atoms_heavy>  (19) 
44

>  <num_torsions>  (19) 
11

>  <pose>  (19) 
[-44.41850212207159, 48.05861839888972, -27.510962872427925, 3.894705649103084, 1.5737408970073807, 1.2054696792854462, -20.909754398847113, -24.41542101627322, -10.665532202351603, 4.011764536938331, -2.6352137705815735, 8.748128076236982, 29.94026558638998, 7.534435068803098, -13.609620441676132, 1.0196964247155462, 0.9478268785412682]

>  <energy>  (19) 
-633.1129583867491

>  <inter_energy>  (19) 
-769.3283272717591

>  <intra_energy>  (19) 
144.9729705002664

>  <rmsd>  (19) 
8.45317

>  <sdf_rank>  (19) 
0

$$$$

     RDKit          3D

 70 74  0  0  0  0  0  0  0  0999 V2000
  -47.4291   51.8008  -24.9709 P   0  0  1  0  0  0  0  0  0  0  0  0
  -48.8651   51.3134  -24.9527 O   0  0  0  0  0  0  0  0  0  0  0  0
  -47.1599   52.8284  -23.9188 O   0  0  0  0  0  0  0  0  0  0  0  0
  -46.5300   50.4178  -24.8781 O   0  0  0  0  0  0  0  0  0  0  0  0
  -46.1286   49.8884  -26.0899 C   0  0  0  0  0  0  0  0  0  0  0  0
  -45.8471   48.3785  -25.8094 C   0  0  1  0  0  0  0  0  0  0  0  0
  -45.9429   47.7027  -27.2116 O   0  0  0  0  0  0  0  0  0  0  0  0
  -44.6568   48.1686  -25.3960 C   0  0  1  0  0  0  0  0  0  0  0  0
  -44.6584   47.4661  -24.1292 O   0  0  0  0  0  0  0  0  0  0  0  0
  -44.0082   47.0520  -26.4332 C   0  0  1  0  0  0  0  0  0  0  0  0
  -43.1466   46.1363  -25.6958 O   0  0  0  0  0  0  0  0  0  0  0  0
  -45.0636   46.5046  -26.9429 C   0  0  2  0  0  0  0  0  0  0  0  0
  -44.7067   45.8516  -28.2229 N   0  0  0  0  0  0  0  0  0  0  0  0
  -43.9078   46.3098  -29.1517 C   0  0  0  0  0  0  0  0  0  0  0  0
  -43.8040   45.3727  -30.1050 N   0  0  0  0  0  0  0  0  0  0  0  0
  -44.5839   44.3166  -29.7655 C   0  0  0  0  0  0  0  0  0  0  0  0
  -44.8868   43.0856  -30.3578 C   0  0  0  0  0  0  0  0  0  0  0  0
  -44.3030   42.7529  -31.6132 N   0  0  0  0  0  0  0  0  0  0  0  0
  -45.7196   42.2734  -29.7275 N   0  0  0  0  0  0  0  0  0  0  0  0
  -46.2493   42.5724  -28.5689 C   0  0  0  0  0  0  0  0  0  0  0  0
  -46.0039   43.7364  -27.9846 N   0  0  0  0  0  0  0  0  0  0  0  0
  -45.1676   44.6145  -28.5762 C   0  0  0  0  0  0  0  0  0  0  0  0
  -47.0843   52.4702  -26.4094 O   0  0  0  0  0  0  0  0  0  0  0  0
  -45.7982   53.4547  -26.7522 P   0  0  2  0  0  0  0  0  0  0  0  0
  -46.3642   54.8077  -27.0032 O   0  0  0  0  0  0  0  0  0  0  0  0
  -44.9886   52.8502  -27.8771 O   0  0  0  0  0  0  0  0  0  0  0  0
  -44.9022   53.4741  -25.3385 O   0  0  0  0  0  0  0  0  0  0  0  0
  -43.7526   54.3829  -25.2545 C   0  0  0  0  0  0  0  0  0  0  0  0
  -42.4822   53.5501  -25.5202 C   0  0  1  0  0  0  0  0  0  0  0  0
  -41.6384   54.2812  -26.2560 O   0  0  0  0  0  0  0  0  0  0  0  0
  -41.7184   53.1992  -24.1931 C   0  0  1  0  0  0  0  0  0  0  0  0
  -41.2747   51.8983  -24.2094 O   0  0  0  0  0  0  0  0  0  0  0  0
  -40.5303   54.1533  -24.2108 C   0  0  1  0  0  0  0  0  0  0  0  0
  -39.4324   53.6309  -23.3391 O   0  0  0  0  0  0  0  0  0  0  0  0
  -40.2175   54.1550  -25.5327 C   0  0  2  0  0  0  0  0  0  0  0  0
  -39.4799   55.2400  -26.0993 N   0  0  0  0  0  0  0  0  0  0  0  0
  -39.5636   56.4828  -25.6002 C   0  0  0  0  0  0  0  0  0  0  0  0
  -38.8666   57.5367  -26.2385 C   0  0  0  0  0  0  0  0  0  0  0  0
  -38.9106   58.9423  -25.6591 C   0  0  0  0  0  0  0  0  0  0  0  0
  -39.5489   59.1792  -24.6492 O   0  0  0  0  0  0  0  0  0  0  0  0
  -38.1432   59.9930  -26.4037 N   0  0  0  0  0  0  0  0  0  0  0  0
  -38.1041   57.3470  -27.3936 C   0  0  0  0  0  0  0  0  0  0  0  0
  -38.0723   56.0100  -27.8744 C   0  0  0  0  0  0  0  0  0  0  0  0
  -38.7878   54.9985  -27.2067 C   0  0  0  0  0  0  0  0  0  0  0  0
  -46.9250   49.9985  -26.8407 H   0  0  0  0  0  0  0  0  0  0  0  0
  -45.2415   50.4031  -26.4875 H   0  0  0  0  0  0  0  0  0  0  0  0
  -46.5451   48.0048  -25.0457 H   0  0  0  0  0  0  0  0  0  0  0  0
  -44.1321   49.1326  -25.3230 H   0  0  0  0  0  0  0  0  0  0  0  0
  -44.6569   48.1224  -23.3880 H   0  0  0  0  0  0  0  0  0  0  0  0
  -43.3519   47.4536  -27.2193 H   0  0  0  0  0  0  0  0  0  0  0  0
  -43.2751   46.2729  -24.7238 H   0  0  0  0  0  0  0  0  0  0  0  0
  -45.5311   45.7408  -26.3041 H   0  0  0  0  0  0  0  0  0  0  0  0
  -43.4094   47.2904  -29.1508 H   0  0  0  0  0  0  0  0  0  0  0  0
  -44.5190   41.8494  -32.0583 H   0  0  0  0  0  0  0  0  0  0  0  0
  -43.6648   43.4156  -32.0762 H   0  0  0  0  0  0  0  0  0  0  0  0
  -46.9090   41.8458  -28.0719 H   0  0  0  0  0  0  0  0  0  0  0  0
  -43.8458   55.1770  -26.0100 H   0  0  0  0  0  0  0  0  0  0  0  0
  -43.7049   54.8563  -24.2627 H   0  0  0  0  0  0  0  0  0  0  0  0
  -42.7973   52.6230  -26.0214 H   0  0  0  0  0  0  0  0  0  0  0  0
  -42.3525   53.2990  -23.2998 H   0  0  0  0  0  0  0  0  0  0  0  0
  -41.1646   51.5755  -23.2800 H   0  0  0  0  0  0  0  0  0  0  0  0
  -40.7214   55.1629  -23.8181 H   0  0  0  0  0  0  0  0  0  0  0  0
  -39.6813   53.7493  -22.3883 H   0  0  0  0  0  0  0  0  0  0  0  0
  -39.5794   53.2687  -25.6645 H   0  0  0  0  0  0  0  0  0  0  0  0
  -40.1684   56.6809  -24.7030 H   0  0  0  0  0  0  0  0  0  0  0  0
  -38.1344   60.9642  -26.0610 H   0  0  0  0  0  0  0  0  0  0  0  0
  -37.6248   59.7436  -27.2581 H   0  0  0  0  0  0  0  0  0  0  0  0
  -37.5697   58.1690  -27.8924 H   0  0  0  0  0  0  0  0  0  0  0  0
  -37.4859   55.7646  -28.7721 H   0  0  0  0  0  0  0  0  0  0  0  0
  -38.7734   53.9770  -27.6145 H   0  0  0  0  0  0  0  0  0  0  0  0
  1  2  2  0
  1  3  1  1
  1  4  1  0
  1 23  1  0
  4  5  1  0
  6  5  1  0
  6  7  1  0
  6  8  1  0
  7 12  1  0
  8  9  1  0
  8 10  1  0
 10 11  1  0
 10 12  1  0
 12 13  1  0
 13 14  1  0
 13 22  1  0
 14 15  2  0
 15 16  1  0
 16 17  2  0
 16 22  1  0
 17 18  1  0
 17 19  1  0
 19 20  2  0
 20 21  1  0
 21 22  2  0
 23 24  1  0
 24 25  2  0
 24 26  1  6
 24 27  1  0
 27 28  1  0
 29 28  1  0
 29 30  1  0
 29 31  1  0
 30 35  1  0
 31 32  1  0
 31 33  1  0
 33 34  1  0
 33 35  1  0
 35 36  1  0
 36 37  2  0
 36 44  1  0
 37 38  1  0
 38 39  1  0
 38 42  2  0
 39 40  2  0
 39 41  1  0
 42 43  1  0
 43 44  2  0
  5 45  1  0
  5 46  1  0
  6 47  1  1
  8 48  1  1
  9 49  1  0
 10 50  1  6
 11 51  1  0
 12 52  1  1
 14 53  1  0
 18 54  1  0
 18 55  1  0
 20 56  1  0
 28 57  1  0
 28 58  1  0
 29 59  1  6
 31 60  1  1
 32 61  1  0
 33 62  1  1
 34 63  1  0
 35 64  1  6
 37 65  1  0
 41 66  1  0
 41 67  1  0
 42 68  1  0
 43 69  1  0
 44 70  1  0
M  CHG  3   3  -1  26  -1  36   1
M  END
>  <filename_input>  (20) 
7UMW_NAD_docked.sdf

>  <pdb_id>  (20) 
7UMW_NAD

>  <pose_rank>  (20) 
19

>  <num_atoms_heavy>  (20) 
44

>  <num_torsions>  (20) 
11

>  <pose>  (20) 
[-47.42914754640967, 51.80084314300485, -24.97090282049084, -3.5464352700992974, -0.4926238803856203, -3.202107294878662, 10.567768216195208, 1.2695279794696543, -6.5233342561655405, -5.907065169669012, -2.1072729151484464, 7.748516846419187, 7.220884949974424, -4.160587954572391, -2.609278483002685, 0.18813246632073558, -2.6292299021377126]

>  <energy>  (20) 
-620.9923833571235

>  <inter_energy>  (20) 
-638.7925559706889

>  <intra_energy>  (20) 
17.08479354144168

>  <rmsd>  (20) 
10.7765

>  <sdf_rank>  (20) 
0

$$$$

     RDKit          3D

 70 74  0  0  0  0  0  0  0  0999 V2000
  -45.1550   50.2810  -26.6599 P   0  0  1  0  0  0  0  0  0  0  0  0
  -45.3706   51.7450  -26.3277 O   0  0  0  0  0  0  0  0  0  0  0  0
  -43.7155   49.8838  -26.5889 O   0  0  0  0  0  0  0  0  0  0  0  0
  -46.1779   49.4787  -25.6402 O   0  0  0  0  0  0  0  0  0  0  0  0
  -45.5819   48.9009  -24.5354 C   0  0  0  0  0  0  0  0  0  0  0  0
  -45.4057   47.3932  -24.9008 C   0  0  1  0  0  0  0  0  0  0  0  0
  -45.7006   47.3315  -26.4308 O   0  0  0  0  0  0  0  0  0  0  0  0
  -44.2025   46.9893  -24.7556 C   0  0  1  0  0  0  0  0  0  0  0  0
  -44.1375   45.8438  -23.8714 O   0  0  0  0  0  0  0  0  0  0  0  0
  -43.7611   46.3488  -26.2179 C   0  0  1  0  0  0  0  0  0  0  0  0
  -42.9123   45.1824  -26.0092 O   0  0  0  0  0  0  0  0  0  0  0  0
  -44.9060   46.0905  -26.7617 C   0  0  2  0  0  0  0  0  0  0  0  0
  -44.7380   45.9832  -28.2289 N   0  0  0  0  0  0  0  0  0  0  0  0
  -44.5276   46.9567  -29.0767 C   0  0  0  0  0  0  0  0  0  0  0  0
  -44.3600   46.4157  -30.2920 N   0  0  0  0  0  0  0  0  0  0  0  0
  -44.4981   45.0703  -30.1935 C   0  0  0  0  0  0  0  0  0  0  0  0
  -44.4483   44.0063  -31.1010 C   0  0  0  0  0  0  0  0  0  0  0  0
  -44.2067   44.2747  -32.4784 N   0  0  0  0  0  0  0  0  0  0  0  0
  -44.6390   42.7801  -30.6422 N   0  0  0  0  0  0  0  0  0  0  0  0
  -44.8510   42.5298  -29.3754 C   0  0  0  0  0  0  0  0  0  0  0  0
  -44.9257   43.5110  -28.4876 N   0  0  0  0  0  0  0  0  0  0  0  0
  -44.7465   44.7867  -28.8891 C   0  0  0  0  0  0  0  0  0  0  0  0
  -45.6765   49.9668  -28.1651 O   0  0  0  0  0  0  0  0  0  0  0  0
  -47.2537   49.8872  -28.6622 P   0  0  2  0  0  0  0  0  0  0  0  0
  -47.8117   51.2570  -28.4992 O   0  0  0  0  0  0  0  0  0  0  0  0
  -47.9624   48.7834  -27.9102 O   0  0  0  0  0  0  0  0  0  0  0  0
  -47.1570   49.5102  -30.2902 O   0  0  0  0  0  0  0  0  0  0  0  0
  -48.1213   48.5507  -30.8416 C   0  0  0  0  0  0  0  0  0  0  0  0
  -49.4579   49.2951  -31.0351 C   0  0  1  0  0  0  0  0  0  0  0  0
  -49.2919   50.2343  -31.9723 O   0  0  0  0  0  0  0  0  0  0  0  0
  -50.5923   48.3442  -31.5609 C   0  0  1  0  0  0  0  0  0  0  0  0
  -51.7816   48.5941  -30.9186 O   0  0  0  0  0  0  0  0  0  0  0  0
  -50.7085   48.7195  -33.0333 C   0  0  1  0  0  0  0  0  0  0  0  0
  -52.0488   48.3217  -33.5658 O   0  0  0  0  0  0  0  0  0  0  0  0
  -50.5270   50.0644  -32.9742 C   0  0  2  0  0  0  0  0  0  0  0  0
  -50.0952   50.7867  -34.1292 N   0  0  0  0  0  0  0  0  0  0  0  0
  -49.4531   51.9603  -34.0245 C   0  0  0  0  0  0  0  0  0  0  0  0
  -49.1063   52.6702  -35.1991 C   0  0  0  0  0  0  0  0  0  0  0  0
  -48.3357   53.9779  -35.1014 C   0  0  0  0  0  0  0  0  0  0  0  0
  -48.2271   54.5579  -34.0360 O   0  0  0  0  0  0  0  0  0  0  0  0
  -47.7433   54.4977  -36.3766 N   0  0  0  0  0  0  0  0  0  0  0  0
  -49.4259   52.2130  -36.4799 C   0  0  0  0  0  0  0  0  0  0  0  0
  -50.1181   50.9722  -36.5147 C   0  0  0  0  0  0  0  0  0  0  0  0
  -50.4453   50.3083  -35.3176 C   0  0  0  0  0  0  0  0  0  0  0  0
  -44.6048   49.3659  -24.3379 H   0  0  0  0  0  0  0  0  0  0  0  0
  -46.1880   49.0337  -23.6271 H   0  0  0  0  0  0  0  0  0  0  0  0
  -46.0529   46.7763  -24.2600 H   0  0  0  0  0  0  0  0  0  0  0  0
  -43.5914   47.8240  -24.3816 H   0  0  0  0  0  0  0  0  0  0  0  0
  -44.1549   46.1517  -22.9307 H   0  0  0  0  0  0  0  0  0  0  0  0
  -43.1550   47.0019  -26.8630 H   0  0  0  0  0  0  0  0  0  0  0  0
  -42.7988   45.0264  -25.0382 H   0  0  0  0  0  0  0  0  0  0  0  0
  -45.3713   45.1558  -26.4156 H   0  0  0  0  0  0  0  0  0  0  0  0
  -44.4941   48.0294  -28.8354 H   0  0  0  0  0  0  0  0  0  0  0  0
  -44.1679   43.4992  -33.1551 H   0  0  0  0  0  0  0  0  0  0  0  0
  -44.0706   45.2444  -32.7979 H   0  0  0  0  0  0  0  0  0  0  0  0
  -44.9691   41.4883  -29.0421 H   0  0  0  0  0  0  0  0  0  0  0  0
  -47.7606   48.1694  -31.8083 H   0  0  0  0  0  0  0  0  0  0  0  0
  -48.2492   47.6959  -30.1612 H   0  0  0  0  0  0  0  0  0  0  0  0
  -49.7465   49.7093  -30.0577 H   0  0  0  0  0  0  0  0  0  0  0  0
  -50.3666   47.2809  -31.3920 H   0  0  0  0  0  0  0  0  0  0  0  0
  -51.6403   48.5644  -29.9392 H   0  0  0  0  0  0  0  0  0  0  0  0
  -49.9976   48.2242  -33.7109 H   0  0  0  0  0  0  0  0  0  0  0  0
  -52.6629   48.1394  -32.8110 H   0  0  0  0  0  0  0  0  0  0  0  0
  -51.5232   50.4652  -32.7356 H   0  0  0  0  0  0  0  0  0  0  0  0
  -49.1986   52.3671  -33.0348 H   0  0  0  0  0  0  0  0  0  0  0  0
  -47.2100   55.3789  -36.3751 H   0  0  0  0  0  0  0  0  0  0  0  0
  -47.8696   53.9737  -37.2543 H   0  0  0  0  0  0  0  0  0  0  0  0
  -49.1623   52.7702  -37.3909 H   0  0  0  0  0  0  0  0  0  0  0  0
  -50.3993   50.5288  -37.4813 H   0  0  0  0  0  0  0  0  0  0  0  0
  -51.0082   49.3645  -35.3678 H   0  0  0  0  0  0  0  0  0  0  0  0
  1  2  2  0
  1  3  1  6
  1  4  1  0
  1 23  1  0
  4  5  1  0
  6  5  1  0
  6  7  1  0
  6  8  1  0
  7 12  1  0
  8  9  1  0
  8 10  1  0
 10 11  1  0
 10 12  1  0
 12 13  1  0
 13 14  1  0
 13 22  1  0
 14 15  2  0
 15 16  1  0
 16 17  2  0
 16 22  1  0
 17 18  1  0
 17 19  1  0
 19 20  2  0
 20 21  1  0
 21 22  2  0
 23 24  1  0
 24 25  2  0
 24 26  1  1
 24 27  1  0
 27 28  1  0
 29 28  1  0
 29 30  1  0
 29 31  1  0
 30 35  1  0
 31 32  1  0
 31 33  1  0
 33 34  1  0
 33 35  1  0
 35 36  1  0
 36 37  2  0
 36 44  1  0
 37 38  1  0
 38 39  1  0
 38 42  2  0
 39 40  2  0
 39 41  1  0
 42 43  1  0
 43 44  2  0
  5 45  1  0
  5 46  1  0
  6 47  1  1
  8 48  1  1
  9 49  1  0
 10 50  1  6
 11 51  1  0
 12 52  1  1
 14 53  1  0
 18 54  1  0
 18 55  1  0
 20 56  1  0
 28 57  1  0
 28 58  1  0
 29 59  1  1
 31 60  1  6
 32 61  1  0
 33 62  1  6
 34 63  1  0
 35 64  1  1
 37 65  1  0
 41 66  1  0
 41 67  1  0
 42 68  1  0
 43 69  1  0
 44 70  1  0
M  CHG  3   3  -1  26  -1  36   1
M  END
>  <filename_input>  (21) 
7UMW_NAD_docked.sdf

>  <pdb_id>  (21) 
7UMW_NAD

>  <pose_rank>  (21) 
20

>  <num_atoms_heavy>  (21) 
44

>  <num_torsions>  (21) 
11

>  <pose>  (21) 
[-45.15502237540335, 50.28104205819133, -26.6599229128558, -3.2566261782846326, -0.12539729287191578, 4.161894681739619, 19.715260852354646, -16.566185063191618, -2.806669829035752, -0.18500698586060102, 6.3388865700486186, -8.027470337414135, 0.1237206845579356, -1.059411835035411, -3.930527534934734, -2.0101410292222828, -2.8647403265046694]

>  <energy>  (21) 
-593.6171266651592

>  <inter_energy>  (21) 
-629.8441497436942

>  <intra_energy>  (21) 
42.77268377175721

>  <rmsd>  (21) 
9.99038

>  <sdf_rank>  (21) 
0

$$$$

     RDKit          3D

 70 74  0  0  0  0  0  0  0  0999 V2000
  -43.0079   55.6624  -25.7292 P   0  0  1  0  0  0  0  0  0  0  0  0
  -44.2759   56.4879  -25.8324 O   0  0  0  0  0  0  0  0  0  0  0  0
  -42.2605   55.9172  -24.4597 O   0  0  0  0  0  0  0  0  0  0  0  0
  -43.5146   54.1084  -25.9708 O   0  0  0  0  0  0  0  0  0  0  0  0
  -42.7532   53.1334  -25.3548 C   0  0  0  0  0  0  0  0  0  0  0  0
  -43.5643   52.7128  -24.0887 C   0  0  1  0  0  0  0  0  0  0  0  0
  -42.4728   52.3400  -23.0393 O   0  0  0  0  0  0  0  0  0  0  0  0
  -44.2248   53.6825  -23.5832 C   0  0  1  0  0  0  0  0  0  0  0  0
  -45.6322   53.3574  -23.4748 O   0  0  0  0  0  0  0  0  0  0  0  0
  -43.7478   53.7775  -21.9999 C   0  0  1  0  0  0  0  0  0  0  0  0
  -44.8859   54.1364  -21.1629 O   0  0  0  0  0  0  0  0  0  0  0  0
  -43.2735   52.5937  -21.7841 C   0  0  2  0  0  0  0  0  0  0  0  0
  -42.3665   52.6354  -20.6146 N   0  0  0  0  0  0  0  0  0  0  0  0
  -41.0624   52.5343  -20.6179 C   0  0  0  0  0  0  0  0  0  0  0  0
  -40.6331   52.6990  -19.3584 N   0  0  0  0  0  0  0  0  0  0  0  0
  -41.7077   52.8802  -18.5514 C   0  0  0  0  0  0  0  0  0  0  0  0
  -41.8850   53.0800  -17.1778 C   0  0  0  0  0  0  0  0  0  0  0  0
  -40.7451   53.1167  -16.3252 N   0  0  0  0  0  0  0  0  0  0  0  0
  -43.1174   53.2190  -16.7173 N   0  0  0  0  0  0  0  0  0  0  0  0
  -44.1658   53.1959  -17.5000 C   0  0  0  0  0  0  0  0  0  0  0  0
  -44.0420   52.9889  -18.8032 N   0  0  0  0  0  0  0  0  0  0  0  0
  -42.8132   52.8332  -19.3383 C   0  0  0  0  0  0  0  0  0  0  0  0
  -42.0117   56.0115  -26.9630 O   0  0  0  0  0  0  0  0  0  0  0  0
  -40.3659   55.8332  -26.9779 P   0  0  2  0  0  0  0  0  0  0  0  0
  -39.9837   55.3769  -25.6142 O   0  0  0  0  0  0  0  0  0  0  0  0
  -39.7258   57.1167  -27.4567 O   0  0  0  0  0  0  0  0  0  0  0  0
  -40.0920   54.6028  -28.0792 O   0  0  0  0  0  0  0  0  0  0  0  0
  -38.8602   54.6428  -28.8766 C   0  0  0  0  0  0  0  0  0  0  0  0
  -37.8846   53.6107  -28.2757 C   0  0  1  0  0  0  0  0  0  0  0  0
  -37.7576   52.5931  -29.1337 O   0  0  0  0  0  0  0  0  0  0  0  0
  -36.4435   54.2047  -28.0808 C   0  0  1  0  0  0  0  0  0  0  0  0
  -35.9074   53.8119  -26.8775 O   0  0  0  0  0  0  0  0  0  0  0  0
  -35.6527   53.5871  -29.2278 C   0  0  1  0  0  0  0  0  0  0  0  0
  -34.1895   53.6028  -28.9168 O   0  0  0  0  0  0  0  0  0  0  0  0
  -36.1843   52.3377  -29.2674 C   0  0  2  0  0  0  0  0  0  0  0  0
  -36.0945   51.5516  -30.4574 N   0  0  0  0  0  0  0  0  0  0  0  0
  -35.7309   50.2604  -30.4207 C   0  0  0  0  0  0  0  0  0  0  0  0
  -35.5905   49.5430  -31.6330 C   0  0  0  0  0  0  0  0  0  0  0  0
  -35.2266   48.0664  -31.6085 C   0  0  0  0  0  0  0  0  0  0  0  0
  -35.1660   47.4234  -32.6411 O   0  0  0  0  0  0  0  0  0  0  0  0
  -34.9655   47.4680  -30.2590 N   0  0  0  0  0  0  0  0  0  0  0  0
  -35.7918   50.1291  -32.8850 C   0  0  0  0  0  0  0  0  0  0  0  0
  -36.1600   51.5014  -32.8488 C   0  0  0  0  0  0  0  0  0  0  0  0
  -36.2805   52.1715  -31.6170 C   0  0  0  0  0  0  0  0  0  0  0  0
  -42.6135   52.2730  -26.0258 H   0  0  0  0  0  0  0  0  0  0  0  0
  -41.7499   53.5014  -25.0945 H   0  0  0  0  0  0  0  0  0  0  0  0
  -44.2748   51.9145  -24.3494 H   0  0  0  0  0  0  0  0  0  0  0  0
  -44.0633   54.5799  -24.1985 H   0  0  0  0  0  0  0  0  0  0  0  0
  -45.8848   53.2991  -22.5194 H   0  0  0  0  0  0  0  0  0  0  0  0
  -43.0001   54.5512  -21.7711 H   0  0  0  0  0  0  0  0  0  0  0  0
  -44.6324   54.0564  -20.2093 H   0  0  0  0  0  0  0  0  0  0  0  0
  -44.0380   51.8298  -21.5792 H   0  0  0  0  0  0  0  0  0  0  0  0
  -40.4298   52.3472  -21.4982 H   0  0  0  0  0  0  0  0  0  0  0  0
  -40.8638   53.2631  -15.3126 H   0  0  0  0  0  0  0  0  0  0  0  0
  -39.8018   52.9968  -16.7211 H   0  0  0  0  0  0  0  0  0  0  0  0
  -45.1661   53.3509  -17.0693 H   0  0  0  0  0  0  0  0  0  0  0  0
  -39.0817   54.3853  -29.9228 H   0  0  0  0  0  0  0  0  0  0  0  0
  -38.4187   55.6501  -28.8568 H   0  0  0  0  0  0  0  0  0  0  0  0
  -38.2924   53.3032  -27.3014 H   0  0  0  0  0  0  0  0  0  0  0  0
  -36.4347   55.3046  -28.0794 H   0  0  0  0  0  0  0  0  0  0  0  0
  -36.4378   54.2005  -26.1374 H   0  0  0  0  0  0  0  0  0  0  0  0
  -35.7231   54.1095  -30.1933 H   0  0  0  0  0  0  0  0  0  0  0  0
  -34.0608   53.6042  -27.9352 H   0  0  0  0  0  0  0  0  0  0  0  0
  -35.6237   51.7770  -28.5048 H   0  0  0  0  0  0  0  0  0  0  0  0
  -35.5436   49.7639  -29.4572 H   0  0  0  0  0  0  0  0  0  0  0  0
  -34.7145   46.4724  -30.1770 H   0  0  0  0  0  0  0  0  0  0  0  0
  -35.0370   48.0524  -29.4139 H   0  0  0  0  0  0  0  0  0  0  0  0
  -35.6745   49.5717  -33.8260 H   0  0  0  0  0  0  0  0  0  0  0  0
  -36.3515   52.0420  -33.7874 H   0  0  0  0  0  0  0  0  0  0  0  0
  -36.5365   53.2413  -31.6147 H   0  0  0  0  0  0  0  0  0  0  0  0
  1  2  2  0
  1  3  1  1
  1  4  1  0
  1 23  1  0
  4  5  1  0
  6  5  1  0
  6  7  1  0
  6  8  1  0
  7 12  1  0
  8  9  1  0
  8 10  1  0
 10 11  1  0
 10 12  1  0
 12 13  1  0
 13 14  1  0
 13 22  1  0
 14 15  2  0
 15 16  1  0
 16 17  2  0
 16 22  1  0
 17 18  1  0
 17 19  1  0
 19 20  2  0
 20 21  1  0
 21 22  2  0
 23 24  1  0
 24 25  2  0
 24 26  1  6
 24 27  1  0
 27 28  1  0
 29 28  1  0
 29 30  1  0
 29 31  1  0
 30 35  1  0
 31 32  1  0
 31 33  1  0
 33 34  1  0
 33 35  1  0
 35 36  1  0
 36 37  2  0
 36 44  1  0
 37 38  1  0
 38 39  1  0
 38 42  2  0
 39 40  2  0
 39 41  1  0
 42 43  1  0
 43 44  2  0
  5 45  1  0
  5 46  1  0
  6 47  1  6
  8 48  1  6
  9 49  1  0
 10 50  1  6
 11 51  1  0
 12 52  1  1
 14 53  1  0
 18 54  1  0
 18 55  1  0
 20 56  1  0
 28 57  1  0
 28 58  1  0
 29 59  1  1
 31 60  1  6
 32 61  1  0
 33 62  1  6
 34 63  1  0
 35 64  1  1
 37 65  1  0
 41 66  1  0
 41 67  1  0
 42 68  1  0
 43 69  1  0
 44 70  1  0
M  CHG  3   3  -1  26  -1  36   1
M  END
>  <filename_input>  (22) 
7UMW_NAD_docked.sdf

>  <pdb_id>  (22) 
7UMW_NAD

>  <pose_rank>  (22) 
21

>  <num_atoms_heavy>  (22) 
44

>  <num_torsions>  (22) 
11

>  <pose>  (22) 
[-43.00788007022139, 55.66240715583495, -25.729233868720677, -4.4691283173632, 2.0298219894841285, -0.9930490704735161, 6.287193090331682, 5.795669890140258, 6.978642502723293, -0.8003518663241441, -2.257064198885584, 3.340871464225873, 0.25478509469845834, -0.6077089271855476, -3.1526203686545453, -3.2361954745888424, 0.4583171233095557]

>  <energy>  (22) 
-607.0490467241113

>  <inter_energy>  (22) 
-682.8152003200668

>  <intra_energy>  (22) 
78.0108342471801

>  <rmsd>  (22) 
7.56347

>  <sdf_rank>  (22) 
0

$$$$

     RDKit          3D

 70 74  0  0  0  0  0  0  0  0999 V2000
  -42.4785   53.3465  -23.1058 P   0  0  1  0  0  0  0  0  0  0  0  0
  -41.7201   52.5276  -22.0791 O   0  0  0  0  0  0  0  0  0  0  0  0
  -42.0225   54.7695  -23.1534 O   0  0  0  0  0  0  0  0  0  0  0  0
  -42.3179   52.4881  -24.5085 O   0  0  0  0  0  0  0  0  0  0  0  0
  -41.9291   53.2228  -25.6125 C   0  0  0  0  0  0  0  0  0  0  0  0
  -43.1671   53.2271  -26.5640 C   0  0  1  0  0  0  0  0  0  0  0  0
  -43.3639   51.7279  -26.9456 O   0  0  0  0  0  0  0  0  0  0  0  0
  -44.2410   53.5856  -25.9722 C   0  0  1  0  0  0  0  0  0  0  0  0
  -44.8617   54.7069  -26.6471 O   0  0  0  0  0  0  0  0  0  0  0  0
  -45.3264   52.3601  -26.2238 C   0  0  1  0  0  0  0  0  0  0  0  0
  -46.6616   52.9146  -26.4094 O   0  0  0  0  0  0  0  0  0  0  0  0
  -44.8389   51.7708  -27.2669 C   0  0  2  0  0  0  0  0  0  0  0  0
  -45.3722   50.3917  -27.3441 N   0  0  0  0  0  0  0  0  0  0  0  0
  -46.0711   49.8645  -28.3159 C   0  0  0  0  0  0  0  0  0  0  0  0
  -46.2841   48.5748  -28.0177 N   0  0  0  0  0  0  0  0  0  0  0  0
  -45.7221   48.3070  -26.8130 C   0  0  0  0  0  0  0  0  0  0  0  0
  -45.6344   47.1731  -25.9976 C   0  0  0  0  0  0  0  0  0  0  0  0
  -46.2419   45.9581  -26.4245 N   0  0  0  0  0  0  0  0  0  0  0  0
  -44.9925   47.2763  -24.8454 N   0  0  0  0  0  0  0  0  0  0  0  0
  -44.4246   48.3889  -24.4556 C   0  0  0  0  0  0  0  0  0  0  0  0
  -44.5023   49.4900  -25.1891 N   0  0  0  0  0  0  0  0  0  0  0  0
  -45.1479   49.4562  -26.3735 C   0  0  0  0  0  0  0  0  0  0  0  0
  -44.0642   53.3514  -22.7563 O   0  0  0  0  0  0  0  0  0  0  0  0
  -44.7380   53.4867  -21.2502 P   0  0  2  0  0  0  0  0  0  0  0  0
  -44.0095   54.5884  -20.5650 O   0  0  0  0  0  0  0  0  0  0  0  0
  -44.7100   52.1394  -20.5643 O   0  0  0  0  0  0  0  0  0  0  0  0
  -46.3181   53.9552  -21.5433 O   0  0  0  0  0  0  0  0  0  0  0  0
  -46.6190   55.3905  -21.6055 C   0  0  0  0  0  0  0  0  0  0  0  0
  -46.9922   55.8487  -20.1812 C   0  0  1  0  0  0  0  0  0  0  0  0
  -47.7868   56.9203  -20.2717 O   0  0  0  0  0  0  0  0  0  0  0  0
  -47.8128   54.7564  -19.4059 C   0  0  1  0  0  0  0  0  0  0  0  0
  -47.3884   54.6543  -18.1024 O   0  0  0  0  0  0  0  0  0  0  0  0
  -49.2378   55.2949  -19.4472 C   0  0  1  0  0  0  0  0  0  0  0  0
  -50.0516   54.6940  -18.3450 O   0  0  0  0  0  0  0  0  0  0  0  0
  -49.0175   56.6264  -19.2933 C   0  0  2  0  0  0  0  0  0  0  0  0
  -49.9949   57.5752  -19.7254 N   0  0  0  0  0  0  0  0  0  0  0  0
  -51.1855   57.1872  -20.2076 C   0  0  0  0  0  0  0  0  0  0  0  0
  -52.0930   58.1626  -20.6863 C   0  0  0  0  0  0  0  0  0  0  0  0
  -53.4658   57.7456  -21.1913 C   0  0  0  0  0  0  0  0  0  0  0  0
  -54.3115   57.3277  -20.4209 O   0  0  0  0  0  0  0  0  0  0  0  0
  -53.6975   57.8697  -22.6671 N   0  0  0  0  0  0  0  0  0  0  0  0
  -51.7951   59.5273  -20.7033 C   0  0  0  0  0  0  0  0  0  0  0  0
  -50.5125   59.8642  -20.1921 C   0  0  0  0  0  0  0  0  0  0  0  0
  -49.6442   58.8561  -19.7334 C   0  0  0  0  0  0  0  0  0  0  0  0
  -41.6660   54.2496  -25.3185 H   0  0  0  0  0  0  0  0  0  0  0  0
  -41.0411   52.7924  -26.0984 H   0  0  0  0  0  0  0  0  0  0  0  0
  -42.9912   53.9184  -27.4014 H   0  0  0  0  0  0  0  0  0  0  0  0
  -44.0053   53.8243  -24.9246 H   0  0  0  0  0  0  0  0  0  0  0  0
  -45.2137   55.3429  -25.9750 H   0  0  0  0  0  0  0  0  0  0  0  0
  -45.4502   51.6521  -25.3910 H   0  0  0  0  0  0  0  0  0  0  0  0
  -47.0736   53.0857  -25.5257 H   0  0  0  0  0  0  0  0  0  0  0  0
  -45.0750   52.2675  -28.2196 H   0  0  0  0  0  0  0  0  0  0  0  0
  -46.4220   50.3869  -29.2182 H   0  0  0  0  0  0  0  0  0  0  0  0
  -46.1836   45.1173  -25.8323 H   0  0  0  0  0  0  0  0  0  0  0  0
  -46.7396   45.9199  -27.3254 H   0  0  0  0  0  0  0  0  0  0  0  0
  -43.8738   48.4106  -23.5036 H   0  0  0  0  0  0  0  0  0  0  0  0
  -45.7367   55.9442  -21.9590 H   0  0  0  0  0  0  0  0  0  0  0  0
  -47.4473   55.5825  -22.3034 H   0  0  0  0  0  0  0  0  0  0  0  0
  -46.0530   56.0539  -19.6466 H   0  0  0  0  0  0  0  0  0  0  0  0
  -47.7059   53.7539  -19.8458 H   0  0  0  0  0  0  0  0  0  0  0  0
  -48.1470   54.8368  -17.4931 H   0  0  0  0  0  0  0  0  0  0  0  0
  -49.8114   55.0614  -20.3563 H   0  0  0  0  0  0  0  0  0  0  0  0
  -49.6779   54.9699  -17.4708 H   0  0  0  0  0  0  0  0  0  0  0  0
  -48.9363   56.7668  -18.2053 H   0  0  0  0  0  0  0  0  0  0  0  0
  -51.4540   56.1207  -20.2307 H   0  0  0  0  0  0  0  0  0  0  0  0
  -54.6072   57.6029  -23.0698 H   0  0  0  0  0  0  0  0  0  0  0  0
  -52.9470   58.2218  -23.2784 H   0  0  0  0  0  0  0  0  0  0  0  0
  -52.4988   60.2827  -21.0831 H   0  0  0  0  0  0  0  0  0  0  0  0
  -50.1972   60.9174  -20.1548 H   0  0  0  0  0  0  0  0  0  0  0  0
  -48.6446   59.1376  -19.3706 H   0  0  0  0  0  0  0  0  0  0  0  0
  1  2  2  0
  1  3  1  6
  1  4  1  0
  1 23  1  0
  4  5  1  0
  6  5  1  0
  6  7  1  0
  6  8  1  0
  7 12  1  0
  8  9  1  0
  8 10  1  0
 10 11  1  0
 10 12  1  0
 12 13  1  0
 13 14  1  0
 13 22  1  0
 14 15  2  0
 15 16  1  0
 16 17  2  0
 16 22  1  0
 17 18  1  0
 17 19  1  0
 19 20  2  0
 20 21  1  0
 21 22  2  0
 23 24  1  0
 24 25  2  0
 24 26  1  1
 24 27  1  0
 27 28  1  0
 29 28  1  0
 29 30  1  0
 29 31  1  0
 30 35  1  0
 31 32  1  0
 31 33  1  0
 33 34  1  0
 33 35  1  0
 35 36  1  0
 36 37  2  0
 36 44  1  0
 37 38  1  0
 38 39  1  0
 38 42  2  0
 39 40  2  0
 39 41  1  0
 42 43  1  0
 43 44  2  0
  5 45  1  0
  5 46  1  0
  6 47  1  6
  8 48  1  1
  9 49  1  0
 10 50  1  1
 11 51  1  0
 12 52  1  6
 14 53  1  0
 18 54  1  0
 18 55  1  0
 20 56  1  0
 28 57  1  0
 28 58  1  0
 29 59  1  1
 31 60  1  6
 32 61  1  0
 33 62  1  6
 34 63  1  0
 35 64  1  1
 37 65  1  0
 41 66  1  0
 41 67  1  0
 42 68  1  0
 43 69  1  0
 44 70  1  0
M  CHG  3   3  -1  26  -1  36   1
M  END
>  <filename_input>  (23) 
7UMW_NAD_docked.sdf

>  <pdb_id>  (23) 
7UMW_NAD

>  <pose_rank>  (23) 
22

>  <num_atoms_heavy>  (23) 
44

>  <num_torsions>  (23) 
11

>  <pose>  (23) 
[-42.47854221927994, 53.34648629661469, -23.105828251924553, -2.2103544950502023, -2.829004256766395, -0.2184705559124085, -5.932257516664245, 8.346546921943153, -4.120652150914762, -3.0904626276277494, -4.2517491744038, -2.0888205717996686, -3.8974892087097532, 8.572712848952623, -7.763072227278279, 0.7823140574417404, -1.4099308016140115]

>  <energy>  (23) 
-579.9965638228828

>  <inter_energy>  (23) 
-617.8070377270726

>  <intra_energy>  (23) 
38.516079653673856

>  <rmsd>  (23) 
11.3443

>  <sdf_rank>  (23) 
0

$$$$

     RDKit          3D

 70 74  0  0  0  0  0  0  0  0999 V2000
  -45.6774   49.2976  -27.4501 P   0  0  1  0  0  0  0  0  0  0  0  0
  -46.1170   50.3825  -28.4144 O   0  0  0  0  0  0  0  0  0  0  0  0
  -46.5558   49.2143  -26.2431 O   0  0  0  0  0  0  0  0  0  0  0  0
  -45.5967   47.9353  -28.3814 O   0  0  0  0  0  0  0  0  0  0  0  0
  -44.5116   47.1145  -28.1395 C   0  0  0  0  0  0  0  0  0  0  0  0
  -45.1184   45.7282  -27.7549 C   0  0  1  0  0  0  0  0  0  0  0  0
  -46.5261   45.7254  -28.4259 O   0  0  0  0  0  0  0  0  0  0  0  0
  -44.4782   44.7507  -28.2714 C   0  0  1  0  0  0  0  0  0  0  0  0
  -44.0365   43.8183  -27.2548 O   0  0  0  0  0  0  0  0  0  0  0  0
  -45.6001   43.8701  -29.1135 C   0  0  1  0  0  0  0  0  0  0  0  0
  -45.2987   42.4487  -28.9981 O   0  0  0  0  0  0  0  0  0  0  0  0
  -46.7093   44.2318  -28.5549 C   0  0  2  0  0  0  0  0  0  0  0  0
  -47.8356   43.9456  -29.4724 N   0  0  0  0  0  0  0  0  0  0  0  0
  -47.7771   43.7548  -30.7651 C   0  0  0  0  0  0  0  0  0  0  0  0
  -49.0110   43.4513  -31.1931 N   0  0  0  0  0  0  0  0  0  0  0  0
  -49.8595   43.4826  -30.1357 C   0  0  0  0  0  0  0  0  0  0  0  0
  -51.2333   43.2752  -29.9693 C   0  0  0  0  0  0  0  0  0  0  0  0
  -52.0329   42.9542  -31.1029 N   0  0  0  0  0  0  0  0  0  0  0  0
  -51.7440   43.3958  -28.7548 N   0  0  0  0  0  0  0  0  0  0  0  0
  -51.0098   43.6806  -27.7098 C   0  0  0  0  0  0  0  0  0  0  0  0
  -49.7089   43.9043  -27.8284 N   0  0  0  0  0  0  0  0  0  0  0  0
  -49.1243   43.8036  -29.0402 C   0  0  0  0  0  0  0  0  0  0  0  0
  -44.1644   49.5860  -26.9362 O   0  0  0  0  0  0  0  0  0  0  0  0
  -43.5006   49.0853  -25.5046 P   0  0  2  0  0  0  0  0  0  0  0  0
  -42.2360   48.3835  -25.8544 O   0  0  0  0  0  0  0  0  0  0  0  0
  -44.5205   48.2789  -24.7327 O   0  0  0  0  0  0  0  0  0  0  0  0
  -43.1485   50.5054  -24.6915 O   0  0  0  0  0  0  0  0  0  0  0  0
  -44.1669   51.0661  -23.7954 C   0  0  0  0  0  0  0  0  0  0  0  0
  -43.4845   52.1517  -22.9388 C   0  0  1  0  0  0  0  0  0  0  0  0
  -42.8138   52.9766  -23.7497 O   0  0  0  0  0  0  0  0  0  0  0  0
  -44.5280   53.0407  -22.1718 C   0  0  1  0  0  0  0  0  0  0  0  0
  -44.1143   53.2857  -20.8840 O   0  0  0  0  0  0  0  0  0  0  0  0
  -44.5357   54.3386  -22.9704 C   0  0  1  0  0  0  0  0  0  0  0  0
  -45.0440   55.4642  -22.1262 O   0  0  0  0  0  0  0  0  0  0  0  0
  -43.2209   54.4541  -23.2920 C   0  0  2  0  0  0  0  0  0  0  0  0
  -42.8173   55.2503  -24.4079 N   0  0  0  0  0  0  0  0  0  0  0  0
  -43.1715   56.5401  -24.5155 C   0  0  0  0  0  0  0  0  0  0  0  0
  -42.8043   57.2677  -25.6729 C   0  0  0  0  0  0  0  0  0  0  0  0
  -43.1550   58.7430  -25.7905 C   0  0  0  0  0  0  0  0  0  0  0  0
  -42.2796   59.5878  -25.8490 O   0  0  0  0  0  0  0  0  0  0  0  0
  -44.6156   59.0795  -25.8169 N   0  0  0  0  0  0  0  0  0  0  0  0
  -42.1015   56.6930  -26.7347 C   0  0  0  0  0  0  0  0  0  0  0  0
  -41.7727   55.3215  -26.5595 C   0  0  0  0  0  0  0  0  0  0  0  0
  -42.1663   54.6410  -25.3921 C   0  0  0  0  0  0  0  0  0  0  0  0
  -43.8880   47.0249  -29.0412 H   0  0  0  0  0  0  0  0  0  0  0  0
  -43.8660   47.5136  -27.3433 H   0  0  0  0  0  0  0  0  0  0  0  0
  -45.1053   45.6059  -26.6618 H   0  0  0  0  0  0  0  0  0  0  0  0
  -43.6318   45.1483  -28.8506 H   0  0  0  0  0  0  0  0  0  0  0  0
  -44.2163   44.1979  -26.3583 H   0  0  0  0  0  0  0  0  0  0  0  0
  -45.6285   44.0446  -30.1992 H   0  0  0  0  0  0  0  0  0  0  0  0
  -45.2458   42.1992  -28.0416 H   0  0  0  0  0  0  0  0  0  0  0  0
  -46.9241   43.7236  -27.6033 H   0  0  0  0  0  0  0  0  0  0  0  0
  -46.8752   43.8301  -31.3904 H   0  0  0  0  0  0  0  0  0  0  0  0
  -53.0452   42.7995  -30.9920 H   0  0  0  0  0  0  0  0  0  0  0  0
  -51.5991   42.8767  -32.0339 H   0  0  0  0  0  0  0  0  0  0  0  0
  -51.4799   43.7353  -26.7168 H   0  0  0  0  0  0  0  0  0  0  0  0
  -44.9822   51.5106  -24.3851 H   0  0  0  0  0  0  0  0  0  0  0  0
  -44.5947   50.2802  -23.1556 H   0  0  0  0  0  0  0  0  0  0  0  0
  -42.8346   51.6375  -22.2154 H   0  0  0  0  0  0  0  0  0  0  0  0
  -45.5160   52.5634  -22.0941 H   0  0  0  0  0  0  0  0  0  0  0  0
  -44.7674   52.8990  -20.2484 H   0  0  0  0  0  0  0  0  0  0  0  0
  -45.1919   54.3534  -23.8531 H   0  0  0  0  0  0  0  0  0  0  0  0
  -44.9394   55.2325  -21.1694 H   0  0  0  0  0  0  0  0  0  0  0  0
  -42.7647   54.9323  -22.4127 H   0  0  0  0  0  0  0  0  0  0  0  0
  -43.7422   57.0277  -23.7113 H   0  0  0  0  0  0  0  0  0  0  0  0
  -44.9166   60.0614  -25.8951 H   0  0  0  0  0  0  0  0  0  0  0  0
  -45.3182   58.3287  -25.7568 H   0  0  0  0  0  0  0  0  0  0  0  0
  -41.8241   57.2584  -27.6366 H   0  0  0  0  0  0  0  0  0  0  0  0
  -41.2082   54.7897  -27.3395 H   0  0  0  0  0  0  0  0  0  0  0  0
  -41.9274   53.5719  -25.2918 H   0  0  0  0  0  0  0  0  0  0  0  0
  1  2  2  0
  1  3  1  1
  1  4  1  0
  1 23  1  0
  4  5  1  0
  6  5  1  0
  6  7  1  0
  6  8  1  0
  7 12  1  0
  8  9  1  0
  8 10  1  0
 10 11  1  0
 10 12  1  0
 12 13  1  0
 13 14  1  0
 13 22  1  0
 14 15  2  0
 15 16  1  0
 16 17  2  0
 16 22  1  0
 17 18  1  0
 17 19  1  0
 19 20  2  0
 20 21  1  0
 21 22  2  0
 23 24  1  0
 24 25  2  0
 24 26  1  1
 24 27  1  0
 27 28  1  0
 29 28  1  0
 29 30  1  0
 29 31  1  0
 30 35  1  0
 31 32  1  0
 31 33  1  0
 33 34  1  0
 33 35  1  0
 35 36  1  0
 36 37  2  0
 36 44  1  0
 37 38  1  0
 38 39  1  0
 38 42  2  0
 39 40  2  0
 39 41  1  0
 42 43  1  0
 43 44  2  0
  5 45  1  0
  5 46  1  0
  6 47  1  1
  8 48  1  6
  9 49  1  0
 10 50  1  6
 11 51  1  0
 12 52  1  1
 14 53  1  0
 18 54  1  0
 18 55  1  0
 20 56  1  0
 28 57  1  0
 28 58  1  0
 29 59  1  1
 31 60  1  1
 32 61  1  0
 33 62  1  6
 34 63  1  0
 35 64  1  1
 37 65  1  0
 41 66  1  0
 41 67  1  0
 42 68  1  0
 43 69  1  0
 44 70  1  0
M  CHG  3   3  -1  26  -1  36   1
M  END
>  <filename_input>  (24) 
7UMW_NAD_docked.sdf

>  <pdb_id>  (24) 
7UMW_NAD

>  <pose_rank>  (24) 
23

>  <num_atoms_heavy>  (24) 
44

>  <num_torsions>  (24) 
11

>  <pose>  (24) 
[-45.677432151768436, 49.2976491510323, -27.450055268399787, -2.143920673773498, 3.2074800525260363, -1.4950374953007626, -1.2126728002452998, -0.1389230926090597, -2.5795012564408064, 0.746014106987484, -2.2780642133894613, -0.6593091447399113, -0.728121290277275, 0.49747122274527394, 2.083670182181702, 1.6662309106909794, -0.5968912457962956]

>  <energy>  (24) 
-559.6015912970088

>  <inter_energy>  (24) 
-580.1442248361042

>  <intra_energy>  (24) 
31.440394938122587

>  <rmsd>  (24) 
11.6195

>  <sdf_rank>  (24) 
0

$$$$

     RDKit          3D

 70 74  0  0  0  0  0  0  0  0999 V2000
  -46.7611   50.9199  -25.5709 P   0  0  1  0  0  0  0  0  0  0  0  0
  -48.0872   50.2690  -25.2278 O   0  0  0  0  0  0  0  0  0  0  0  0
  -46.4411   52.0738  -24.6758 O   0  0  0  0  0  0  0  0  0  0  0  0
  -45.6799   49.6706  -25.5551 O   0  0  0  0  0  0  0  0  0  0  0  0
  -45.7838   48.7825  -26.6088 C   0  0  0  0  0  0  0  0  0  0  0  0
  -44.6956   47.6949  -26.3427 C   0  0  1  0  0  0  0  0  0  0  0  0
  -44.7825   47.4315  -24.8082 O   0  0  0  0  0  0  0  0  0  0  0  0
  -44.9642   46.5816  -26.9087 C   0  0  1  0  0  0  0  0  0  0  0  0
  -43.8789   46.1557  -27.7683 O   0  0  0  0  0  0  0  0  0  0  0  0
  -44.9444   45.4455  -25.7036 C   0  0  1  0  0  0  0  0  0  0  0  0
  -44.3824   44.1996  -26.2100 O   0  0  0  0  0  0  0  0  0  0  0  0
  -44.2335   46.0247  -24.7914 C   0  0  2  0  0  0  0  0  0  0  0  0
  -44.5134   45.3964  -23.4802 N   0  0  0  0  0  0  0  0  0  0  0  0
  -45.6839   45.1796  -22.9380 C   0  0  0  0  0  0  0  0  0  0  0  0
  -45.4888   44.5236  -21.7851 N   0  0  0  0  0  0  0  0  0  0  0  0
  -44.1562   44.3551  -21.5990 C   0  0  0  0  0  0  0  0  0  0  0  0
  -43.3671   43.7748  -20.5997 C   0  0  0  0  0  0  0  0  0  0  0  0
  -43.9970   43.1970  -19.4608 N   0  0  0  0  0  0  0  0  0  0  0  0
  -42.0525   43.7935  -20.7475 N   0  0  0  0  0  0  0  0  0  0  0  0
  -41.4717   44.3146  -21.7979 C   0  0  0  0  0  0  0  0  0  0  0  0
  -42.1821   44.8918  -22.7564 N   0  0  0  0  0  0  0  0  0  0  0  0
  -43.5282   44.9131  -22.6658 C   0  0  0  0  0  0  0  0  0  0  0  0
  -46.7894   51.4759  -27.0962 O   0  0  0  0  0  0  0  0  0  0  0  0
  -45.7775   52.6134  -27.7464 P   0  0  2  0  0  0  0  0  0  0  0  0
  -46.5212   53.2368  -28.8744 O   0  0  0  0  0  0  0  0  0  0  0  0
  -44.4544   51.9692  -28.0936 O   0  0  0  0  0  0  0  0  0  0  0  0
  -45.5723   53.7351  -26.5210 O   0  0  0  0  0  0  0  0  0  0  0  0
  -44.2526   54.3571  -26.3596 C   0  0  0  0  0  0  0  0  0  0  0  0
  -43.3950   53.4091  -25.4971 C   0  0  1  0  0  0  0  0  0  0  0  0
  -42.2442   53.1740  -26.1362 O   0  0  0  0  0  0  0  0  0  0  0  0
  -43.0087   54.0536  -24.1176 C   0  0  1  0  0  0  0  0  0  0  0  0
  -43.1201   53.1385  -23.0980 O   0  0  0  0  0  0  0  0  0  0  0  0
  -41.5476   54.4415  -24.3098 C   0  0  1  0  0  0  0  0  0  0  0  0
  -40.8680   54.5766  -22.9840 O   0  0  0  0  0  0  0  0  0  0  0  0
  -41.0948   53.3934  -25.0459 C   0  0  2  0  0  0  0  0  0  0  0  0
  -39.9215   53.5289  -25.8504 N   0  0  0  0  0  0  0  0  0  0  0  0
  -39.7964   54.5171  -26.7495 C   0  0  0  0  0  0  0  0  0  0  0  0
  -38.6442   54.5686  -27.5702 C   0  0  0  0  0  0  0  0  0  0  0  0
  -38.4627   55.7085  -28.5608 C   0  0  0  0  0  0  0  0  0  0  0  0
  -39.3216   56.5621  -28.6912 O   0  0  0  0  0  0  0  0  0  0  0  0
  -37.1911   55.7035  -29.3548 N   0  0  0  0  0  0  0  0  0  0  0  0
  -37.6273   53.6129  -27.5050 C   0  0  0  0  0  0  0  0  0  0  0  0
  -37.8328   52.5882  -26.5418 C   0  0  0  0  0  0  0  0  0  0  0  0
  -38.9991   52.5784  -25.7540 C   0  0  0  0  0  0  0  0  0  0  0  0
  -46.7851   48.3276  -26.6315 H   0  0  0  0  0  0  0  0  0  0  0  0
  -45.6369   49.2796  -27.5790 H   0  0  0  0  0  0  0  0  0  0  0  0
  -43.7216   48.0427  -26.7175 H   0  0  0  0  0  0  0  0  0  0  0  0
  -45.9055   46.6866  -27.4680 H   0  0  0  0  0  0  0  0  0  0  0  0
  -43.1160   45.8563  -27.2129 H   0  0  0  0  0  0  0  0  0  0  0  0
  -45.9277   45.1484  -25.3099 H   0  0  0  0  0  0  0  0  0  0  0  0
  -44.1218   43.6219  -25.4493 H   0  0  0  0  0  0  0  0  0  0  0  0
  -43.1478   45.9662  -24.9580 H   0  0  0  0  0  0  0  0  0  0  0  0
  -46.6561   45.4821  -23.3542 H   0  0  0  0  0  0  0  0  0  0  0  0
  -43.4260   42.7672  -18.7191 H   0  0  0  0  0  0  0  0  0  0  0  0
  -45.0236   43.2090  -19.3787 H   0  0  0  0  0  0  0  0  0  0  0  0
  -40.3761   44.2730  -21.8868 H   0  0  0  0  0  0  0  0  0  0  0  0
  -43.7816   54.4990  -27.3434 H   0  0  0  0  0  0  0  0  0  0  0  0
  -44.3450   55.3417  -25.8778 H   0  0  0  0  0  0  0  0  0  0  0  0
  -43.9860   52.4972  -25.3264 H   0  0  0  0  0  0  0  0  0  0  0  0
  -43.6588   54.8988  -23.8475 H   0  0  0  0  0  0  0  0  0  0  0  0
  -43.0632   53.6060  -22.2272 H   0  0  0  0  0  0  0  0  0  0  0  0
  -41.3702   55.4114  -24.7975 H   0  0  0  0  0  0  0  0  0  0  0  0
  -41.5294   54.4451  -22.2592 H   0  0  0  0  0  0  0  0  0  0  0  0
  -40.8501   52.6212  -24.3016 H   0  0  0  0  0  0  0  0  0  0  0  0
  -40.5823   55.2804  -26.8479 H   0  0  0  0  0  0  0  0  0  0  0  0
  -37.0101   56.4492  -30.0419 H   0  0  0  0  0  0  0  0  0  0  0  0
  -36.4985   54.9544  -29.2132 H   0  0  0  0  0  0  0  0  0  0  0  0
  -36.7365   53.6506  -28.1492 H   0  0  0  0  0  0  0  0  0  0  0  0
  -37.0772   51.7995  -26.4116 H   0  0  0  0  0  0  0  0  0  0  0  0
  -39.1511   51.7585  -25.0366 H   0  0  0  0  0  0  0  0  0  0  0  0
  1  2  2  0
  1  3  1  1
  1  4  1  0
  1 23  1  0
  4  5  1  0
  6  5  1  0
  6  7  1  0
  6  8  1  0
  7 12  1  0
  8  9  1  0
  8 10  1  0
 10 11  1  0
 10 12  1  0
 12 13  1  0
 13 14  1  0
 13 22  1  0
 14 15  2  0
 15 16  1  0
 16 17  2  0
 16 22  1  0
 17 18  1  0
 17 19  1  0
 19 20  2  0
 20 21  1  0
 21 22  2  0
 23 24  1  0
 24 25  2  0
 24 26  1  6
 24 27  1  0
 27 28  1  0
 29 28  1  0
 29 30  1  0
 29 31  1  0
 30 35  1  0
 31 32  1  0
 31 33  1  0
 33 34  1  0
 33 35  1  0
 35 36  1  0
 36 37  2  0
 36 44  1  0
 37 38  1  0
 38 39  1  0
 38 42  2  0
 39 40  2  0
 39 41  1  0
 42 43  1  0
 43 44  2  0
  5 45  1  0
  5 46  1  0
  6 47  1  1
  8 48  1  6
  9 49  1  0
 10 50  1  1
 11 51  1  0
 12 52  1  6
 14 53  1  0
 18 54  1  0
 18 55  1  0
 20 56  1  0
 28 57  1  0
 28 58  1  0
 29 59  1  1
 31 60  1  1
 32 61  1  0
 33 62  1  6
 34 63  1  0
 35 64  1  1
 37 65  1  0
 41 66  1  0
 41 67  1  0
 42 68  1  0
 43 69  1  0
 44 70  1  0
M  CHG  3   3  -1  26  -1  36   1
M  END
>  <filename_input>  (25) 
7UMW_NAD_docked.sdf

>  <pdb_id>  (25) 
7UMW_NAD

>  <pose_rank>  (25) 
24

>  <num_atoms_heavy>  (25) 
44

>  <num_torsions>  (25) 
11

>  <pose>  (25) 
[-46.761108765899586, 50.919855210988985, -25.570912733164032, -3.418441422219126, -1.3214452522368043, -3.016825321650382, 10.18367419321518, 0.9005065258306452, -8.575694250010994, -6.080313736745469, -2.154840662822112, 6.987568587677279, 6.458560276710199, -3.8932248776507867, -2.8493162901286304, -0.22834929244751953, -2.6636484608952635]

>  <energy>  (25) 
-552.9841728022786

>  <inter_energy>  (25) 
-580.1685758293867

>  <intra_energy>  (25) 
26.033934222008106

>  <rmsd>  (25) 
8.63723

>  <sdf_rank>  (25) 
0

$$$$

     RDKit          3D

 70 74  0  0  0  0  0  0  0  0999 V2000
  -45.2960   52.3380  -26.9160 P   0  0  1  0  0  0  0  0  0  0  0  0
  -46.4890   53.1580  -27.3680 O   0  0  0  0  0  0  0  0  0  0  0  0
  -44.0220   53.1200  -26.9390 O   0  0  0  0  0  0  0  0  0  0  0  0
  -45.7500   51.7380  -25.4450 O   0  0  0  0  0  0  0  0  0  0  0  0
  -44.7170   51.4870  -24.5620 C   0  0  0  0  0  0  0  0  0  0  0  0
  -45.1340   52.1830  -23.2280 C   0  0  1  0  0  0  0  0  0  0  0  0
  -44.0540   51.7240  -22.2010 O   0  0  0  0  0  0  0  0  0  0  0  0
  -45.0460   53.4560  -23.2890 C   0  0  1  0  0  0  0  0  0  0  0  0
  -46.3060   54.0850  -22.9500 O   0  0  0  0  0  0  0  0  0  0  0  0
  -44.0640   53.9020  -22.0320 C   0  0  1  0  0  0  0  0  0  0  0  0
  -44.5340   55.1580  -21.4610 O   0  0  0  0  0  0  0  0  0  0  0  0
  -44.1530   52.8840  -21.2390 C   0  0  2  0  0  0  0  0  0  0  0  0
  -42.9890   52.8730  -20.3240 N   0  0  0  0  0  0  0  0  0  0  0  0
  -41.7270   52.7550  -20.6470 C   0  0  0  0  0  0  0  0  0  0  0  0
  -41.0020   52.8700  -19.5250 N   0  0  0  0  0  0  0  0  0  0  0  0
  -41.8450   53.0370  -18.4760 C   0  0  0  0  0  0  0  0  0  0  0  0
  -41.6800   53.1910  -17.0950 C   0  0  0  0  0  0  0  0  0  0  0  0
  -40.3670   53.1830  -16.5440 N   0  0  0  0  0  0  0  0  0  0  0  0
  -42.7610   53.3300  -16.3450 N   0  0  0  0  0  0  0  0  0  0  0  0
  -43.9680   53.3480  -16.8500 C   0  0  0  0  0  0  0  0  0  0  0  0
  -44.1680   53.1850  -18.1500 N   0  0  0  0  0  0  0  0  0  0  0  0
  -43.1090   53.0320  -18.9720 C   0  0  0  0  0  0  0  0  0  0  0  0
  -45.1000   51.0530  -27.8890 O   0  0  0  0  0  0  0  0  0  0  0  0
  -46.0130   49.6720  -27.8890 P   0  0  2  0  0  0  0  0  0  0  0  0
  -45.7040   48.9680  -29.1630 O   0  0  0  0  0  0  0  0  0  0  0  0
  -47.4640   50.0290  -27.6580 O   0  0  0  0  0  0  0  0  0  0  0  0
  -45.4220   48.7840  -26.5990 O   0  0  0  0  0  0  0  0  0  0  0  0
  -46.3840   48.1930  -25.6610 C   0  0  0  0  0  0  0  0  0  0  0  0
  -45.8910   46.7710  -25.3250 C   0  0  1  0  0  0  0  0  0  0  0  0
  -46.0230   46.0050  -26.4130 O   0  0  0  0  0  0  0  0  0  0  0  0
  -44.3650   46.7480  -24.9530 C   0  0  1  0  0  0  0  0  0  0  0  0
  -44.1320   45.9210  -23.8800 O   0  0  0  0  0  0  0  0  0  0  0  0
  -43.7090   46.1740  -26.2030 C   0  0  1  0  0  0  0  0  0  0  0  0
  -42.3720   45.5930  -25.8670 O   0  0  0  0  0  0  0  0  0  0  0  0
  -44.6260   45.2430  -26.5740 C   0  0  2  0  0  0  0  0  0  0  0  0
  -44.6770   44.7770  -27.9240 N   0  0  0  0  0  0  0  0  0  0  0  0
  -44.5160   45.6120  -28.9620 C   0  0  0  0  0  0  0  0  0  0  0  0
  -44.6430   45.1140  -30.2810 C   0  0  0  0  0  0  0  0  0  0  0  0
  -44.4160   46.0350  -31.4700 C   0  0  0  0  0  0  0  0  0  0  0  0
  -43.9910   45.5970  -32.5240 O   0  0  0  0  0  0  0  0  0  0  0  0
  -44.7320   47.4850  -31.2580 N   0  0  0  0  0  0  0  0  0  0  0  0
  -44.9560   43.7810  -30.5580 C   0  0  0  0  0  0  0  0  0  0  0  0
  -45.1270   42.9580  -29.4120 C   0  0  0  0  0  0  0  0  0  0  0  0
  -44.9960   43.5030  -28.1210 C   0  0  0  0  0  0  0  0  0  0  0  0
  -44.5953   50.4044  -24.4097 H   0  0  0  0  0  0  0  0  0  0  0  0
  -43.7556   51.8665  -24.9384 H   0  0  0  0  0  0  0  0  0  0  0  0
  -46.1742   51.9237  -22.9817 H   0  0  0  0  0  0  0  0  0  0  0  0
  -44.7108   53.7399  -24.2975 H   0  0  0  0  0  0  0  0  0  0  0  0
  -46.3976   54.1307  -21.9653 H   0  0  0  0  0  0  0  0  0  0  0  0
  -43.0159   54.1092  -22.2939 H   0  0  0  0  0  0  0  0  0  0  0  0
  -44.5123   55.0999  -20.4729 H   0  0  0  0  0  0  0  0  0  0  0  0
  -45.0598   52.8727  -20.6164 H   0  0  0  0  0  0  0  0  0  0  0  0
  -41.3306   52.5905  -21.6598 H   0  0  0  0  0  0  0  0  0  0  0  0
  -40.2338   53.2955  -15.5289 H   0  0  0  0  0  0  0  0  0  0  0  0
  -39.5504   53.0647  -17.1606 H   0  0  0  0  0  0  0  0  0  0  0  0
  -44.8306   53.5009  -16.1848 H   0  0  0  0  0  0  0  0  0  0  0  0
  -46.4354   48.7989  -24.7444 H   0  0  0  0  0  0  0  0  0  0  0  0
  -47.3889   48.1591  -26.1071 H   0  0  0  0  0  0  0  0  0  0  0  0
  -46.4848   46.4117  -24.4716 H   0  0  0  0  0  0  0  0  0  0  0  0
  -43.9828   47.7395  -24.6685 H   0  0  0  0  0  0  0  0  0  0  0  0
  -44.2736   46.4237  -23.0390 H   0  0  0  0  0  0  0  0  0  0  0  0
  -43.4895   46.8965  -27.0029 H   0  0  0  0  0  0  0  0  0  0  0  0
  -42.2693   45.5484  -24.8834 H   0  0  0  0  0  0  0  0  0  0  0  0
  -44.3781   44.3581  -25.9695 H   0  0  0  0  0  0  0  0  0  0  0  0
  -44.2874   46.6741  -28.7895 H   0  0  0  0  0  0  0  0  0  0  0  0
  -44.5989   48.1587  -32.0257 H   0  0  0  0  0  0  0  0  0  0  0  0
  -45.0822   47.8076  -30.3447 H   0  0  0  0  0  0  0  0  0  0  0  0
  -45.0619   43.3980  -31.5837 H   0  0  0  0  0  0  0  0  0  0  0  0
  -45.3627   41.8906  -29.5345 H   0  0  0  0  0  0  0  0  0  0  0  0
  -45.1629   42.8540  -27.2487 H   0  0  0  0  0  0  0  0  0  0  0  0
  1  2  2  0
  1  3  1  1
  1  4  1  0
  1 23  1  0
  4  5  1  0
  6  5  1  0
  6  7  1  0
  6  8  1  0
  7 12  1  0
  8  9  1  0
  8 10  1  0
 10 11  1  0
 10 12  1  0
 12 13  1  0
 13 14  1  0
 13 22  1  0
 14 15  2  0
 15 16  1  0
 16 17  2  0
 16 22  1  0
 17 18  1  0
 17 19  1  0
 19 20  2  0
 20 21  1  0
 21 22  2  0
 23 24  1  0
 24 25  2  0
 24 26  1  1
 24 27  1  0
 27 28  1  0
 29 28  1  0
 29 30  1  0
 29 31  1  0
 30 35  1  0
 31 32  1  0
 31 33  1  0
 33 34  1  0
 33 35  1  0
 35 36  1  0
 36 37  2  0
 36 44  1  0
 37 38  1  0
 38 39  1  0
 38 42  2  0
 39 40  2  0
 39 41  1  0
 42 43  1  0
 43 44  2  0
  5 45  1  0
  5 46  1  0
  6 47  1  1
  8 48  1  6
  9 49  1  0
 10 50  1  6
 11 51  1  0
 12 52  1  1
 14 53  1  0
 18 54  1  0
 18 55  1  0
 20 56  1  0
 28 57  1  0
 28 58  1  0
 29 59  1  1
 31 60  1  1
 32 61  1  0
 33 62  1  6
 34 63  1  0
 35 64  1  1
 37 65  1  0
 41 66  1  0
 41 67  1  0
 42 68  1  0
 43 69  1  0
 44 70  1  0
M  CHG  3   3  -1  26  -1  36   1
M  END
>  <filename_input>  (26) 
7UMW_NAD_docked.sdf

>  <pdb_id>  (26) 
7UMW_NAD

>  <pose_rank>  (26) 
25

>  <num_atoms_heavy>  (26) 
44

>  <num_torsions>  (26) 
11

>  <pose>  (26) 
[-45.296, 52.338, -26.916, 1e-06, 1e-06, 1e-06, 0.0, 0.0, 0.0, 0.0, 0.0, 0.0, 0.0, 0.0, 0.0, 0.0, 0.0]

>  <energy>  (26) 
-1282.305020342706

>  <inter_energy>  (26) 
-1310.883558779361

>  <intra_energy>  (26) 
27.245296252616043

>  <rmsd>  (26) 
0.0

>  <sdf_rank>  (26) 
0

$$$$
