
     RDKit          3D

 18 18  0  0  0  0  0  0  0  0999 V2000
    9.1759  141.5678  101.5083 C   0  0  0  0  0  0  0  0  0  0  0  0
    8.5364  142.2982  100.4381 C   0  0  2  0  0  0  0  0  0  0  0  0
    7.0658  142.3724  100.5755 C   0  0  0  0  0  0  0  0  0  0  0  0
    6.3478  143.2892   99.5965 C   0  0  0  0  0  0  0  0  0  0  0  0
    9.2637  141.8262   99.1759 C   0  0  0  0  0  0  0  0  0  0  0  0
   10.4360  141.2604   99.7703 C   0  0  0  0  0  0  0  0  0  0  0  0
   10.3133  141.0767  101.0834 N   0  0  0  0  0  0  0  0  0  0  0  0
   11.2128  140.4910  101.9667 O   0  0  0  0  0  0  0  0  0  0  0  0
    5.1215  143.3550   99.8330 O   0  0  0  0  0  0  0  0  0  0  0  0
    6.9559  143.8246   98.6651 O   0  0  0  0  0  0  0  0  0  0  0  0
   11.4342  140.8706   99.1582 O   0  0  0  0  0  0  0  0  0  0  0  0
    8.8386  141.5267  102.6907 O   0  0  0  0  0  0  0  0  0  0  0  0
    8.6465  143.3926  100.4247 H   0  0  0  0  0  0  0  0  0  0  0  0
    6.6641  141.3572  100.4417 H   0  0  0  0  0  0  0  0  0  0  0  0
    6.8834  142.8025  101.5713 H   0  0  0  0  0  0  0  0  0  0  0  0
    8.6805  141.0740   98.6243 H   0  0  0  0  0  0  0  0  0  0  0  0
    9.4525  142.6089   98.4264 H   0  0  0  0  0  0  0  0  0  0  0  0
   10.9293  140.6756  102.8971 H   0  0  0  0  0  0  0  0  0  0  0  0
  1  2  1  0
  1  7  1  0
  1 12  2  0
  2  3  1  0
  2  5  1  0
  3  4  1  0
  4  9  1  0
  4 10  2  0
  5  6  1  0
  6  7  1  0
  6 11  2  0
  7  8  1  0
  2 13  1  1
  3 14  1  0
  3 15  1  0
  5 16  1  0
  5 17  1  0
  8 18  1  0
M  CHG  1   9  -1
M  END
>  <filename_input>  (1) 
7UQ3_O2U_docked.sdf

>  <pdb_id>  (1) 
7UQ3_O2U

>  <pose_rank>  (1) 
0

>  <num_atoms_heavy>  (1) 
12

>  <num_torsions>  (1) 
2

>  <pose>  (1) 
[9.17593721945534, 141.56783295515245, 101.50832797416068, 0.07820639031957655, 1.8342589820335526, -5.980842199402828, -0.24144973844927425, 0.14431556717792515]

>  <energy>  (1) 
-538.0164259013841

>  <inter_energy>  (1) 
-547.6342473633474

>  <intra_energy>  (1) 
7.643291236478587

>  <rmsd>  (1) 
0.205487

>  <sdf_rank>  (1) 
0

$$$$

     RDKit          3D

 18 18  0  0  0  0  0  0  0  0999 V2000
    7.2643  142.1575  100.7233 C   0  0  0  0  0  0  0  0  0  0  0  0
    8.6453  142.0947  100.3031 C   0  0  2  0  0  0  0  0  0  0  0  0
    9.5955  141.9615  101.4284 C   0  0  0  0  0  0  0  0  0  0  0  0
   10.8733  141.1889  101.1374 C   0  0  0  0  0  0  0  0  0  0  0  0
    8.7508  143.1555   99.2037 C   0  0  0  0  0  0  0  0  0  0  0  0
    7.3631  143.3259   98.8989 C   0  0  0  0  0  0  0  0  0  0  0  0
    6.5618  142.7967   99.8215 N   0  0  0  0  0  0  0  0  0  0  0  0
    5.1740  142.8336   99.8914 O   0  0  0  0  0  0  0  0  0  0  0  0
   11.2555  140.5295  102.1288 O   0  0  0  0  0  0  0  0  0  0  0  0
   11.4455  141.2951  100.0487 O   0  0  0  0  0  0  0  0  0  0  0  0
    6.9108  143.9765   97.9529 O   0  0  0  0  0  0  0  0  0  0  0  0
    6.7455  141.5755  101.6750 O   0  0  0  0  0  0  0  0  0  0  0  0
    8.9956  141.1683   99.8244 H   0  0  0  0  0  0  0  0  0  0  0  0
    9.8808  142.9744  101.7490 H   0  0  0  0  0  0  0  0  0  0  0  0
    9.0654  141.3778  102.1953 H   0  0  0  0  0  0  0  0  0  0  0  0
    9.2058  144.0857   99.5747 H   0  0  0  0  0  0  0  0  0  0  0  0
    9.3854  142.8792   98.3487 H   0  0  0  0  0  0  0  0  0  0  0  0
    4.8916  142.8411  100.8402 H   0  0  0  0  0  0  0  0  0  0  0  0
  1  2  1  0
  1  7  1  0
  1 12  2  0
  2  3  1  0
  2  5  1  0
  3  4  1  0
  4  9  1  0
  4 10  2  0
  5  6  1  0
  6  7  1  0
  6 11  2  0
  7  8  1  0
  2 13  1  6
  3 14  1  0
  3 15  1  0
  5 16  1  0
  5 17  1  0
  8 18  1  0
M  CHG  1   9  -1
M  END
>  <filename_input>  (2) 
7UQ3_O2U_docked.sdf

>  <pdb_id>  (2) 
7UQ3_O2U

>  <pose_rank>  (2) 
1

>  <num_atoms_heavy>  (2) 
12

>  <num_torsions>  (2) 
2

>  <pose>  (2) 
[7.264278146350807, 142.1575332540367, 100.72331802041276, 1.1144414042899347, 0.7115074054395188, -2.5805941171984608, 5.645116362328551, 0.6842112738013727]

>  <energy>  (2) 
-489.0817518007124

>  <inter_energy>  (2) 
-486.28102397608416

>  <intra_energy>  (2) 
1.4288992732333223

>  <rmsd>  (2) 
4.42716

>  <sdf_rank>  (2) 
0

$$$$

     RDKit          3D

 18 18  0  0  0  0  0  0  0  0999 V2000
    7.5496  142.7184   99.4601 C   0  0  0  0  0  0  0  0  0  0  0  0
    8.8571  142.5299  100.0455 C   0  0  2  0  0  0  0  0  0  0  0  0
    9.6837  141.5361   99.3272 C   0  0  0  0  0  0  0  0  0  0  0  0
   10.9015  141.0133  100.0743 C   0  0  0  0  0  0  0  0  0  0  0  0
    8.5922  142.5056  101.5535 C   0  0  0  0  0  0  0  0  0  0  0  0
    7.2902  143.0987  101.5794 C   0  0  0  0  0  0  0  0  0  0  0  0
    6.7164  143.1400  100.3785 N   0  0  0  0  0  0  0  0  0  0  0  0
    5.4411  143.5770  100.0394 O   0  0  0  0  0  0  0  0  0  0  0  0
   11.3294  141.8427  100.9067 O   0  0  0  0  0  0  0  0  0  0  0  0
   11.3932  139.9154   99.7973 O   0  0  0  0  0  0  0  0  0  0  0  0
    6.6817  143.4502  102.5939 O   0  0  0  0  0  0  0  0  0  0  0  0
    7.2511  142.6725   98.2675 O   0  0  0  0  0  0  0  0  0  0  0  0
    9.6010  143.3289   99.9108 H   0  0  0  0  0  0  0  0  0  0  0  0
    9.0418  140.6757   99.0870 H   0  0  0  0  0  0  0  0  0  0  0  0
   10.0807  142.0628   98.4469 H   0  0  0  0  0  0  0  0  0  0  0  0
    8.5830  141.4800  101.9512 H   0  0  0  0  0  0  0  0  0  0  0  0
    9.3489  143.0153  102.1680 H   0  0  0  0  0  0  0  0  0  0  0  0
    4.9230  143.7545  100.8641 H   0  0  0  0  0  0  0  0  0  0  0  0
  1  2  1  0
  1  7  1  0
  1 12  2  0
  2  3  1  0
  2  5  1  0
  3  4  1  0
  4  9  1  0
  4 10  2  0
  5  6  1  0
  6  7  1  0
  6 11  2  0
  7  8  1  0
  2 13  1  1
  3 14  1  0
  3 15  1  0
  5 16  1  0
  5 17  1  0
  8 18  1  0
M  CHG  1   9  -1
M  END
>  <filename_input>  (3) 
7UQ3_O2U_docked.sdf

>  <pdb_id>  (3) 
7UQ3_O2U

>  <pose_rank>  (3) 
2

>  <num_atoms_heavy>  (3) 
12

>  <num_torsions>  (3) 
2

>  <pose>  (3) 
[7.549551837202739, 142.71836911214353, 99.4601419360414, 1.5559037175620394, 3.2252673317878693, 0.0025051468154373233, 0.17839529730440215, 2.7427824943103367]

>  <energy>  (3) 
-476.78488436841815

>  <inter_energy>  (3) 
-504.5109889447828

>  <intra_energy>  (3) 
15.13837941591562

>  <rmsd>  (3) 
4.7517

>  <sdf_rank>  (3) 
0

$$$$

     RDKit          3D

 18 18  0  0  0  0  0  0  0  0999 V2000
    9.2920  141.9698   99.0544 C   0  0  0  0  0  0  0  0  0  0  0  0
    8.2405  142.1387  100.0310 C   0  0  2  0  0  0  0  0  0  0  0  0
    7.2556  143.1772   99.6589 C   0  0  0  0  0  0  0  0  0  0  0  0
    5.7908  142.7946   99.8091 C   0  0  0  0  0  0  0  0  0  0  0  0
    8.9672  142.0797  101.3776 C   0  0  0  0  0  0  0  0  0  0  0  0
   10.1954  141.4741  100.9626 C   0  0  0  0  0  0  0  0  0  0  0  0
   10.3608  141.4918   99.6414 N   0  0  0  0  0  0  0  0  0  0  0  0
   11.4528  141.0619   98.8965 O   0  0  0  0  0  0  0  0  0  0  0  0
    5.0355  143.7836   99.6849 O   0  0  0  0  0  0  0  0  0  0  0  0
    5.4618  141.6365  100.0819 O   0  0  0  0  0  0  0  0  0  0  0  0
   11.0831  141.0632  101.7150 O   0  0  0  0  0  0  0  0  0  0  0  0
    9.2009  142.0767   97.8322 O   0  0  0  0  0  0  0  0  0  0  0  0
    7.4718  141.3549  100.0999 H   0  0  0  0  0  0  0  0  0  0  0  0
    7.4397  144.0574  100.2923 H   0  0  0  0  0  0  0  0  0  0  0  0
    7.4057  143.3552   98.5838 H   0  0  0  0  0  0  0  0  0  0  0  0
    9.1275  143.0824  101.8006 H   0  0  0  0  0  0  0  0  0  0  0  0
    8.4296  141.5449  102.1744 H   0  0  0  0  0  0  0  0  0  0  0  0
   12.1774  140.7766   99.5077 H   0  0  0  0  0  0  0  0  0  0  0  0
  1  2  1  0
  1  7  1  0
  1 12  2  0
  2  3  1  0
  2  5  1  0
  3  4  1  0
  4  9  1  0
  4 10  2  0
  5  6  1  0
  6  7  1  0
  6 11  2  0
  7  8  1  0
  2 13  1  1
  3 14  1  0
  3 15  1  0
  5 16  1  0
  5 17  1  0
  8 18  1  0
M  CHG  1   9  -1
M  END
>  <filename_input>  (4) 
7UQ3_O2U_docked.sdf

>  <pdb_id>  (4) 
7UQ3_O2U

>  <pose_rank>  (4) 
3

>  <num_atoms_heavy>  (4) 
12

>  <num_torsions>  (4) 
2

>  <pose>  (4) 
[9.29197323286122, 141.96977391233625, 99.05440612722761, 2.7399849268060867, -1.3165387347031465, 0.19428635733964222, 5.369393423943868, -0.11406791800748499]

>  <energy>  (4) 
-527.4310931900865

>  <inter_energy>  (4) 
-511.6513111386921

>  <intra_energy>  (4) 
0.0

>  <rmsd>  (4) 
2.36706

>  <sdf_rank>  (4) 
0

$$$$

     RDKit          3D

 18 18  0  0  0  0  0  0  0  0999 V2000
    8.2670  141.4738  100.7268 C   0  0  0  0  0  0  0  0  0  0  0  0
    8.6969  141.9803   99.4436 C   0  0  2  0  0  0  0  0  0  0  0  0
   10.1642  142.1272   99.3326 C   0  0  0  0  0  0  0  0  0  0  0  0
   10.8715  142.7147  100.5446 C   0  0  0  0  0  0  0  0  0  0  0  0
    7.6906  143.0889   99.1225 C   0  0  0  0  0  0  0  0  0  0  0  0
    6.6469  142.7398  100.0371 C   0  0  0  0  0  0  0  0  0  0  0  0
    7.0408  141.8686  100.9638 N   0  0  0  0  0  0  0  0  0  0  0  0
    6.3246  141.3651  102.0435 O   0  0  0  0  0  0  0  0  0  0  0  0
   10.7036  143.9511  100.6285 O   0  0  0  0  0  0  0  0  0  0  0  0
   11.5630  142.0058  101.2816 O   0  0  0  0  0  0  0  0  0  0  0  0
    5.5212  143.2447  100.0681 O   0  0  0  0  0  0  0  0  0  0  0  0
    8.8494  140.6597  101.4421 O   0  0  0  0  0  0  0  0  0  0  0  0
    8.6431  141.3025   98.5789 H   0  0  0  0  0  0  0  0  0  0  0  0
   10.5887  141.1296   99.1465 H   0  0  0  0  0  0  0  0  0  0  0  0
   10.3282  142.8468   98.5170 H   0  0  0  0  0  0  0  0  0  0  0  0
    8.1011  144.0878   99.3316 H   0  0  0  0  0  0  0  0  0  0  0  0
    7.3849  143.1498   98.0676 H   0  0  0  0  0  0  0  0  0  0  0  0
    6.7477  141.6625  102.8877 H   0  0  0  0  0  0  0  0  0  0  0  0
  1  2  1  0
  1  7  1  0
  1 12  2  0
  2  3  1  0
  2  5  1  0
  3  4  1  0
  4  9  1  0
  4 10  2  0
  5  6  1  0
  6  7  1  0
  6 11  2  0
  7  8  1  0
  2 13  1  6
  3 14  1  0
  3 15  1  0
  5 16  1  0
  5 17  1  0
  8 18  1  0
M  CHG  1   9  -1
M  END
>  <filename_input>  (5) 
7UQ3_O2U_docked.sdf

>  <pdb_id>  (5) 
7UQ3_O2U

>  <pose_rank>  (5) 
4

>  <num_atoms_heavy>  (5) 
12

>  <num_torsions>  (5) 
2

>  <pose>  (5) 
[8.266964591397363, 141.47382242501598, 100.72680517453851, -0.2511743482317451, 1.3058765341325143, -2.658812434112639, 2.305119056600021, 1.892548136040842]

>  <energy>  (5) 
-483.82475892729514

>  <inter_energy>  (5) 
-484.7320759111666

>  <intra_energy>  (5) 
16.448144412430818

>  <rmsd>  (5) 
4.07616

>  <sdf_rank>  (5) 
0

$$$$

     RDKit          3D

 18 18  0  0  0  0  0  0  0  0999 V2000
    8.5180  141.0109  101.8592 C   0  0  0  0  0  0  0  0  0  0  0  0
    9.2372  141.5271  100.7172 C   0  0  2  0  0  0  0  0  0  0  0  0
   10.7009  141.5806  100.9209 C   0  0  0  0  0  0  0  0  0  0  0  0
   11.5073  142.2387   99.8114 C   0  0  0  0  0  0  0  0  0  0  0  0
    8.3870  142.7087  100.2421 C   0  0  0  0  0  0  0  0  0  0  0  0
    7.1556  142.4011  100.9029 C   0  0  0  0  0  0  0  0  0  0  0  0
    7.2943  141.4779  101.8524 N   0  0  0  0  0  0  0  0  0  0  0  0
    6.3388  140.9897  102.7360 O   0  0  0  0  0  0  0  0  0  0  0  0
   11.7814  143.4295  100.0775 O   0  0  0  0  0  0  0  0  0  0  0  0
   11.7720  141.6286   98.7714 O   0  0  0  0  0  0  0  0  0  0  0  0
    6.0798  142.9776  100.7206 O   0  0  0  0  0  0  0  0  0  0  0  0
    8.8885  140.1388  102.6438 O   0  0  0  0  0  0  0  0  0  0  0  0
    9.3278  140.8811   99.8315 H   0  0  0  0  0  0  0  0  0  0  0  0
   10.8908  142.1378  101.8502 H   0  0  0  0  0  0  0  0  0  0  0  0
   11.0342  140.5327  100.9468 H   0  0  0  0  0  0  0  0  0  0  0  0
    8.8012  143.6716  100.5757 H   0  0  0  0  0  0  0  0  0  0  0  0
    8.3145  142.8218   99.1503 H   0  0  0  0  0  0  0  0  0  0  0  0
    6.6403  141.1438  103.6663 H   0  0  0  0  0  0  0  0  0  0  0  0
  1  2  1  0
  1  7  1  0
  1 12  2  0
  2  3  1  0
  2  5  1  0
  3  4  1  0
  4  9  1  0
  4 10  2  0
  5  6  1  0
  6  7  1  0
  6 11  2  0
  7  8  1  0
  2 13  1  6
  3 14  1  0
  3 15  1  0
  5 16  1  0
  5 17  1  0
  8 18  1  0
M  CHG  1   9  -1
M  END
>  <filename_input>  (6) 
7UQ3_O2U_docked.sdf

>  <pdb_id>  (6) 
7UQ3_O2U

>  <pose_rank>  (6) 
5

>  <num_atoms_heavy>  (6) 
12

>  <num_torsions>  (6) 
2

>  <pose>  (6) 
[8.517977854689507, 141.0109295487649, 101.85917884623828, 0.07517139109441344, 1.3135970885151107, -2.6219664292650533, 6.28728997984216, -1.3558377948569127]

>  <energy>  (6) 
-412.43920524766656

>  <inter_energy>  (6) 
-407.84947649038

>  <intra_energy>  (6) 
0.47597184671797793

>  <rmsd>  (6) 
4.09778

>  <sdf_rank>  (6) 
0

$$$$

     RDKit          3D

 18 18  0  0  0  0  0  0  0  0999 V2000
    7.6654  142.1618  100.4535 C   0  0  0  0  0  0  0  0  0  0  0  0
    8.0219  141.1557  101.4274 C   0  0  2  0  0  0  0  0  0  0  0  0
    7.2203  141.2298  102.6679 C   0  0  0  0  0  0  0  0  0  0  0  0
    6.6590  139.9124  103.1815 C   0  0  0  0  0  0  0  0  0  0  0  0
    9.5524  141.1223  101.3881 C   0  0  0  0  0  0  0  0  0  0  0  0
    9.7759  141.7774  100.1356 C   0  0  0  0  0  0  0  0  0  0  0  0
    8.6932  142.4033   99.6785 N   0  0  0  0  0  0  0  0  0  0  0  0
    8.5609  143.1931   98.5423 O   0  0  0  0  0  0  0  0  0  0  0  0
    7.5581  139.1617  103.6198 O   0  0  0  0  0  0  0  0  0  0  0  0
    5.4549  139.6563  103.0893 O   0  0  0  0  0  0  0  0  0  0  0  0
   10.8624  141.8695   99.5578 O   0  0  0  0  0  0  0  0  0  0  0  0
    6.5470  142.6239  100.2316 O   0  0  0  0  0  0  0  0  0  0  0  0
    7.7200  140.1169  101.2279 H   0  0  0  0  0  0  0  0  0  0  0  0
    7.8598  141.6529  103.4565 H   0  0  0  0  0  0  0  0  0  0  0  0
    6.3446  141.8465  102.4174 H   0  0  0  0  0  0  0  0  0  0  0  0
    9.9958  141.6795  102.2265 H   0  0  0  0  0  0  0  0  0  0  0  0
    9.9992  140.1211  101.4767 H   0  0  0  0  0  0  0  0  0  0  0  0
    8.4034  144.1330   98.8103 H   0  0  0  0  0  0  0  0  0  0  0  0
  1  2  1  0
  1  7  1  0
  1 12  2  0
  2  3  1  0
  2  5  1  0
  3  4  1  0
  4  9  1  0
  4 10  2  0
  5  6  1  0
  6  7  1  0
  6 11  2  0
  7  8  1  0
  2 13  1  6
  3 14  1  0
  3 15  1  0
  5 16  1  0
  5 17  1  0
  8 18  1  0
M  CHG  1   9  -1
M  END
>  <filename_input>  (7) 
7UQ3_O2U_docked.sdf

>  <pdb_id>  (7) 
7UQ3_O2U

>  <pose_rank>  (7) 
6

>  <num_atoms_heavy>  (7) 
12

>  <num_torsions>  (7) 
2

>  <pose>  (7) 
[7.665380864800125, 142.1618050331303, 100.45351358460618, -2.444156211758755, 0.37401680769457984, 1.5030381068991947, -7.194473348856547, -1.851593722863651]

>  <energy>  (7) 
-385.1845631684918

>  <inter_energy>  (7) 
-381.07005918030706

>  <intra_energy>  (7) 
0.014602116750972487

>  <rmsd>  (7) 
3.60235

>  <sdf_rank>  (7) 
0

$$$$

     RDKit          3D

 18 18  0  0  0  0  0  0  0  0999 V2000
    7.6316  139.1089  103.3611 C   0  0  0  0  0  0  0  0  0  0  0  0
    6.9104  140.0594  102.5461 C   0  0  2  0  0  0  0  0  0  0  0  0
    7.6224  141.3440  102.3741 C   0  0  0  0  0  0  0  0  0  0  0  0
    7.4258  142.0444  101.0379 C   0  0  0  0  0  0  0  0  0  0  0  0
    5.4592  139.9320  103.0179 C   0  0  0  0  0  0  0  0  0  0  0  0
    5.5332  138.6696  103.6877 C   0  0  0  0  0  0  0  0  0  0  0  0
    6.7851  138.2763  103.9139 N   0  0  0  0  0  0  0  0  0  0  0  0
    7.2326  137.1506  104.5957 O   0  0  0  0  0  0  0  0  0  0  0  0
    7.0901  143.2402  101.1832 O   0  0  0  0  0  0  0  0  0  0  0  0
    7.5409  141.4276   99.9748 O   0  0  0  0  0  0  0  0  0  0  0  0
    4.5712  138.0303  104.1223 O   0  0  0  0  0  0  0  0  0  0  0  0
    8.8502  138.9524  103.4250 O   0  0  0  0  0  0  0  0  0  0  0  0
    6.8633  139.8762  101.4624 H   0  0  0  0  0  0  0  0  0  0  0  0
    7.2793  142.0270  103.1652 H   0  0  0  0  0  0  0  0  0  0  0  0
    8.6932  141.0974  102.4237 H   0  0  0  0  0  0  0  0  0  0  0  0
    5.1792  140.7442  103.7049 H   0  0  0  0  0  0  0  0  0  0  0  0
    4.7029  139.9935  102.2215 H   0  0  0  0  0  0  0  0  0  0  0  0
    7.1697  137.3089  105.5709 H   0  0  0  0  0  0  0  0  0  0  0  0
  1  2  1  0
  1  7  1  0
  1 12  2  0
  2  3  1  0
  2  5  1  0
  3  4  1  0
  4  9  1  0
  4 10  2  0
  5  6  1  0
  6  7  1  0
  6 11  2  0
  7  8  1  0
  2 13  1  6
  3 14  1  0
  3 15  1  0
  5 16  1  0
  5 17  1  0
  8 18  1  0
M  CHG  1   9  -1
M  END
>  <filename_input>  (8) 
7UQ3_O2U_docked.sdf

>  <pdb_id>  (8) 
7UQ3_O2U

>  <pose_rank>  (8) 
7

>  <num_atoms_heavy>  (8) 
12

>  <num_torsions>  (8) 
2

>  <pose>  (8) 
[7.631637332824373, 139.108916475063, 103.36112649041769, -1.0091249316452062, 1.4500252332914072, -1.5527784895616077, 5.604657414407818, -0.8164062890141891]

>  <energy>  (8) 
-238.73117821490362

>  <inter_energy>  (8) 
-237.92509362823426

>  <intra_energy>  (8) 
0.0

>  <rmsd>  (8) 
4.68768

>  <sdf_rank>  (8) 
0

$$$$

     RDKit          3D

 18 18  0  0  0  0  0  0  0  0999 V2000
    9.0540  140.4658  102.0229 C   0  0  0  0  0  0  0  0  0  0  0  0
    8.5227  141.4263  101.0833 C   0  0  2  0  0  0  0  0  0  0  0  0
    9.5536  142.3178  100.5094 C   0  0  0  0  0  0  0  0  0  0  0  0
    9.1377  143.7637  100.2842 C   0  0  0  0  0  0  0  0  0  0  0  0
    7.2266  141.9128  101.7378 C   0  0  0  0  0  0  0  0  0  0  0  0
    7.0303  140.8651  102.6925 C   0  0  0  0  0  0  0  0  0  0  0  0
    8.1144  140.1110  102.8635 N   0  0  0  0  0  0  0  0  0  0  0  0
    8.3103  139.0597  103.7515 O   0  0  0  0  0  0  0  0  0  0  0  0
    9.6400  144.5311  101.1344 O   0  0  0  0  0  0  0  0  0  0  0  0
    8.3461  144.0642   99.3859 O   0  0  0  0  0  0  0  0  0  0  0  0
    6.0210  140.7041  103.3840 O   0  0  0  0  0  0  0  0  0  0  0  0
   10.1497  139.9077  101.9820 O   0  0  0  0  0  0  0  0  0  0  0  0
    8.2095  141.0596  100.0946 H   0  0  0  0  0  0  0  0  0  0  0  0
   10.4155  142.3185  101.1928 H   0  0  0  0  0  0  0  0  0  0  0  0
    9.7705  141.9135   99.5096 H   0  0  0  0  0  0  0  0  0  0  0  0
    7.3556  142.8910  102.2242 H   0  0  0  0  0  0  0  0  0  0  0  0
    6.3874  142.0760  101.0456 H   0  0  0  0  0  0  0  0  0  0  0  0
    8.2476  139.3963  104.6804 H   0  0  0  0  0  0  0  0  0  0  0  0
  1  2  1  0
  1  7  1  0
  1 12  2  0
  2  3  1  0
  2  5  1  0
  3  4  1  0
  4  9  1  0
  4 10  2  0
  5  6  1  0
  6  7  1  0
  6 11  2  0
  7  8  1  0
  2 13  1  6
  3 14  1  0
  3 15  1  0
  5 16  1  0
  5 17  1  0
  8 18  1  0
M  CHG  1   9  -1
M  END
>  <filename_input>  (9) 
7UQ3_O2U_docked.sdf

>  <pdb_id>  (9) 
7UQ3_O2U

>  <pose_rank>  (9) 
8

>  <num_atoms_heavy>  (9) 
12

>  <num_torsions>  (9) 
2

>  <pose>  (9) 
[9.054042108749394, 140.4658049583019, 102.02294183126581, -1.081477659749123, 1.6462969793883853, -1.9618502591825975, 6.841981483693364, -1.226615250206272]

>  <energy>  (9) 
-364.0945846362652

>  <inter_energy>  (9) 
-358.4574071954547

>  <intra_energy>  (9) 
1.4739694890112403

>  <rmsd>  (9) 
3.46743

>  <sdf_rank>  (9) 
0

$$$$

     RDKit          3D

 18 18  0  0  0  0  0  0  0  0999 V2000
    8.1224  143.0318  100.5095 C   0  0  0  0  0  0  0  0  0  0  0  0
    8.2718  141.7019  101.0543 C   0  0  2  0  0  0  0  0  0  0  0  0
    7.0311  141.1738  101.6615 C   0  0  0  0  0  0  0  0  0  0  0  0
    7.2018  140.3736  102.9440 C   0  0  0  0  0  0  0  0  0  0  0  0
    9.6316  141.7361  101.7577 C   0  0  0  0  0  0  0  0  0  0  0  0
   10.1925  142.8997  101.1420 C   0  0  0  0  0  0  0  0  0  0  0  0
    9.2859  143.6330  100.4991 N   0  0  0  0  0  0  0  0  0  0  0  0
    9.4541  144.8521   99.8529 O   0  0  0  0  0  0  0  0  0  0  0  0
    6.2851  140.6040  103.7629 O   0  0  0  0  0  0  0  0  0  0  0  0
    8.1859  139.6478  103.1133 O   0  0  0  0  0  0  0  0  0  0  0  0
   11.3611  143.2794  101.2565 O   0  0  0  0  0  0  0  0  0  0  0  0
    7.1260  143.5105   99.9695 O   0  0  0  0  0  0  0  0  0  0  0  0
    8.3498  140.8624  100.3478 H   0  0  0  0  0  0  0  0  0  0  0  0
    6.3753  142.0286  101.8834 H   0  0  0  0  0  0  0  0  0  0  0  0
    6.6190  140.4679  100.9253 H   0  0  0  0  0  0  0  0  0  0  0  0
    9.5267  141.8588  102.8458 H   0  0  0  0  0  0  0  0  0  0  0  0
   10.2319  140.8199  101.6566 H   0  0  0  0  0  0  0  0  0  0  0  0
    9.5533  145.5714  100.5258 H   0  0  0  0  0  0  0  0  0  0  0  0
  1  2  1  0
  1  7  1  0
  1 12  2  0
  2  3  1  0
  2  5  1  0
  3  4  1  0
  4  9  1  0
  4 10  2  0
  5  6  1  0
  6  7  1  0
  6 11  2  0
  7  8  1  0
  2 13  1  6
  3 14  1  0
  3 15  1  0
  5 16  1  0
  5 17  1  0
  8 18  1  0
M  CHG  1   9  -1
M  END
>  <filename_input>  (10) 
7UQ3_O2U_docked.sdf

>  <pdb_id>  (10) 
7UQ3_O2U

>  <pose_rank>  (10) 
9

>  <num_atoms_heavy>  (10) 
12

>  <num_torsions>  (10) 
2

>  <pose>  (10) 
[8.122350244539033, 143.03181362580446, 100.50949399174277, 3.5130493435404015, 0.34181211954507584, -1.2577240506199459, 6.871213407619013, -0.5939561528714141]

>  <energy>  (10) 
-334.40577478951263

>  <inter_energy>  (10) 
-352.34202212096676

>  <intra_energy>  (10) 
15.595389447413133

>  <rmsd>  (10) 
3.62156

>  <sdf_rank>  (10) 
0

$$$$

     RDKit          3D

 18 18  0  0  0  0  0  0  0  0999 V2000
    7.3974  137.3064  105.7605 C   0  0  0  0  0  0  0  0  0  0  0  0
    6.9492  138.5921  105.2768 C   0  0  2  0  0  0  0  0  0  0  0  0
    5.5179  138.8524  105.5423 C   0  0  0  0  0  0  0  0  0  0  0  0
    4.6714  139.2293  104.3357 C   0  0  0  0  0  0  0  0  0  0  0  0
    7.6119  138.7269  103.9029 C   0  0  0  0  0  0  0  0  0  0  0  0
    8.6302  137.7294  104.0273 C   0  0  0  0  0  0  0  0  0  0  0  0
    8.4302  136.9113  105.0587 N   0  0  0  0  0  0  0  0  0  0  0  0
    9.1676  135.7960  105.4389 O   0  0  0  0  0  0  0  0  0  0  0  0
    4.6362  140.4668  104.1591 O   0  0  0  0  0  0  0  0  0  0  0  0
    4.0686  138.3678  103.6889 O   0  0  0  0  0  0  0  0  0  0  0  0
    9.5528  137.5422  103.2292 O   0  0  0  0  0  0  0  0  0  0  0  0
    7.0191  136.7148  106.7707 O   0  0  0  0  0  0  0  0  0  0  0  0
    7.2718  139.4891  105.8258 H   0  0  0  0  0  0  0  0  0  0  0  0
    5.0870  137.9418  105.9839 H   0  0  0  0  0  0  0  0  0  0  0  0
    5.4951  139.7300  106.2051 H   0  0  0  0  0  0  0  0  0  0  0  0
    6.9116  138.4976  103.0862 H   0  0  0  0  0  0  0  0  0  0  0  0
    7.9751  139.7358  103.6575 H   0  0  0  0  0  0  0  0  0  0  0  0
    9.2018  135.7443  106.4270 H   0  0  0  0  0  0  0  0  0  0  0  0
  1  2  1  0
  1  7  1  0
  1 12  2  0
  2  3  1  0
  2  5  1  0
  3  4  1  0
  4  9  1  0
  4 10  2  0
  5  6  1  0
  6  7  1  0
  6 11  2  0
  7  8  1  0
  2 13  1  1
  3 14  1  0
  3 15  1  0
  5 16  1  0
  5 17  1  0
  8 18  1  0
M  CHG  1   9  -1
M  END
>  <filename_input>  (11) 
7UQ3_O2U_docked.sdf

>  <pdb_id>  (11) 
7UQ3_O2U

>  <pose_rank>  (11) 
10

>  <num_atoms_heavy>  (11) 
12

>  <num_torsions>  (11) 
2

>  <pose>  (11) 
[7.397368235711512, 137.30637171584175, 105.76051196958345, -5.4263008137129045, -0.07040440758144623, 1.7534516246407787, 7.130866763120809, 1.6306766919046543]

>  <energy>  (11) 
-254.96327112204753

>  <inter_energy>  (11) 
-236.92732368640742

>  <intra_energy>  (11) 
0.6481907452998613

>  <rmsd>  (11) 
6.11577

>  <sdf_rank>  (11) 
0

$$$$

     RDKit          3D

 18 18  0  0  0  0  0  0  0  0999 V2000
    5.8466  138.7404  105.6593 C   0  0  0  0  0  0  0  0  0  0  0  0
    5.3965  139.7829  104.7657 C   0  0  2  0  0  0  0  0  0  0  0  0
    3.9240  139.8949  104.6892 C   0  0  0  0  0  0  0  0  0  0  0  0
    3.2521  139.1269  103.5608 C   0  0  0  0  0  0  0  0  0  0  0  0
    6.3180  139.6568  103.5491 C   0  0  0  0  0  0  0  0  0  0  0  0
    7.3728  138.8799  104.1249 C   0  0  0  0  0  0  0  0  0  0  0  0
    7.0348  138.3315  105.2903 N   0  0  0  0  0  0  0  0  0  0  0  0
    7.7729  137.4671  106.0904 O   0  0  0  0  0  0  0  0  0  0  0  0
    2.8827  137.9895  103.9262 O   0  0  0  0  0  0  0  0  0  0  0  0
    3.1702  139.6074  102.4266 O   0  0  0  0  0  0  0  0  0  0  0  0
    8.4552  138.6296  103.5877 O   0  0  0  0  0  0  0  0  0  0  0  0
    5.3193  138.3778  106.7100 O   0  0  0  0  0  0  0  0  0  0  0  0
    5.5149  140.8267  105.0920 H   0  0  0  0  0  0  0  0  0  0  0  0
    3.5092  139.5273  105.6394 H   0  0  0  0  0  0  0  0  0  0  0  0
    3.7184  140.9565  104.4876 H   0  0  0  0  0  0  0  0  0  0  0  0
    5.8281  139.1294  102.7173 H   0  0  0  0  0  0  0  0  0  0  0  0
    6.6327  140.6111  103.1017 H   0  0  0  0  0  0  0  0  0  0  0  0
    7.5993  137.6704  107.0436 H   0  0  0  0  0  0  0  0  0  0  0  0
  1  2  1  0
  1  7  1  0
  1 12  2  0
  2  3  1  0
  2  5  1  0
  3  4  1  0
  4  9  1  0
  4 10  2  0
  5  6  1  0
  6  7  1  0
  6 11  2  0
  7  8  1  0
  2 13  1  1
  3 14  1  0
  3 15  1  0
  5 16  1  0
  5 17  1  0
  8 18  1  0
M  CHG  1   9  -1
M  END
>  <filename_input>  (12) 
7UQ3_O2U_docked.sdf

>  <pdb_id>  (12) 
7UQ3_O2U

>  <pose_rank>  (12) 
11

>  <num_atoms_heavy>  (12) 
12

>  <num_torsions>  (12) 
2

>  <pose>  (12) 
[5.8465558136645805, 138.7404359271284, 105.65927800215279, -5.112218209765372, 3.0233436578141237, 0.12578155338254016, -4.877889362784616, -1.4409370790020506]

>  <energy>  (12) 
-234.97988916500773

>  <inter_energy>  (12) 
-229.6222141195912

>  <intra_energy>  (12) 
2.2121459266447023

>  <rmsd>  (12) 
6.02039

>  <sdf_rank>  (12) 
0

$$$$

     RDKit          3D

 18 18  0  0  0  0  0  0  0  0999 V2000
    6.8311  138.2751  104.7545 C   0  0  0  0  0  0  0  0  0  0  0  0
    6.2319  139.0593  103.6991 C   0  0  2  0  0  0  0  0  0  0  0  0
    6.7551  140.4405  103.6251 C   0  0  0  0  0  0  0  0  0  0  0  0
    7.6948  140.7388  102.4665 C   0  0  0  0  0  0  0  0  0  0  0  0
    4.7445  138.7010  103.7648 C   0  0  0  0  0  0  0  0  0  0  0  0
    4.8207  137.4937  104.5291 C   0  0  0  0  0  0  0  0  0  0  0  0
    6.0025  137.3289  105.1201 N   0  0  0  0  0  0  0  0  0  0  0  0
    6.4075  136.3207  105.9870 O   0  0  0  0  0  0  0  0  0  0  0  0
    7.1892  141.5404  101.6506 O   0  0  0  0  0  0  0  0  0  0  0  0
    8.7884  140.1735  102.3742 O   0  0  0  0  0  0  0  0  0  0  0  0
    3.8863  136.7140  104.7342 O   0  0  0  0  0  0  0  0  0  0  0  0
    7.9906  138.3322  105.1617 O   0  0  0  0  0  0  0  0  0  0  0  0
    6.5225  138.8340  102.6625 H   0  0  0  0  0  0  0  0  0  0  0  0
    5.8953  141.1218  103.5445 H   0  0  0  0  0  0  0  0  0  0  0  0
    7.3562  140.5780  104.5361 H   0  0  0  0  0  0  0  0  0  0  0  0
    4.1590  139.4761  104.2809 H   0  0  0  0  0  0  0  0  0  0  0  0
    4.2447  138.6047  102.7896 H   0  0  0  0  0  0  0  0  0  0  0  0
    6.2867  136.6215  106.9224 H   0  0  0  0  0  0  0  0  0  0  0  0
  1  2  1  0
  1  7  1  0
  1 12  2  0
  2  3  1  0
  2  5  1  0
  3  4  1  0
  4  9  1  0
  4 10  2  0
  5  6  1  0
  6  7  1  0
  6 11  2  0
  7  8  1  0
  2 13  1  6
  3 14  1  0
  3 15  1  0
  5 16  1  0
  5 17  1  0
  8 18  1  0
M  CHG  1   9  -1
M  END
>  <filename_input>  (13) 
7UQ3_O2U_docked.sdf

>  <pdb_id>  (13) 
7UQ3_O2U

>  <pose_rank>  (13) 
12

>  <num_atoms_heavy>  (13) 
12

>  <num_torsions>  (13) 
2

>  <pose>  (13) 
[6.831060780167232, 138.27510314604731, 104.75450728581987, -0.8781352879653133, 1.1042633478246175, -1.5525776701026544, 4.902094245969947, -1.096717557624]

>  <energy>  (13) 
-240.63119649949

>  <inter_energy>  (13) 
-236.1949122204837

>  <intra_energy>  (13) 
0.0

>  <rmsd>  (13) 
6.16094

>  <sdf_rank>  (13) 
0

$$$$

     RDKit          3D

 18 18  0  0  0  0  0  0  0  0999 V2000
    7.6577  142.0341  101.0267 C   0  0  0  0  0  0  0  0  0  0  0  0
    8.4898  140.9951  101.5889 C   0  0  2  0  0  0  0  0  0  0  0  0
    8.3940  140.8994  103.0615 C   0  0  0  0  0  0  0  0  0  0  0  0
    8.0060  139.5384  103.6197 C   0  0  0  0  0  0  0  0  0  0  0  0
    9.8057  141.1090  100.8140 C   0  0  0  0  0  0  0  0  0  0  0  0
    9.3588  141.8751   99.6910 C   0  0  0  0  0  0  0  0  0  0  0  0
    8.1637  142.4292   99.8851 N   0  0  0  0  0  0  0  0  0  0  0  0
    7.4574  143.2867   99.0496 O   0  0  0  0  0  0  0  0  0  0  0  0
    8.9520  138.7227  103.5593 O   0  0  0  0  0  0  0  0  0  0  0  0
    6.8568  139.3176  104.0129 O   0  0  0  0  0  0  0  0  0  0  0  0
   10.0191  142.1125   98.6758 O   0  0  0  0  0  0  0  0  0  0  0  0
    6.5538  142.4043  101.4241 O   0  0  0  0  0  0  0  0  0  0  0  0
    8.1764  139.9507  101.4446 H   0  0  0  0  0  0  0  0  0  0  0  0
    9.3754  141.1670  103.4802 H   0  0  0  0  0  0  0  0  0  0  0  0
    7.5794  141.5801  103.3495 H   0  0  0  0  0  0  0  0  0  0  0  0
   10.5764  141.6404  101.3916 H   0  0  0  0  0  0  0  0  0  0  0  0
   10.2838  140.1505  100.5638 H   0  0  0  0  0  0  0  0  0  0  0  0
    6.9331  143.9234   99.5972 H   0  0  0  0  0  0  0  0  0  0  0  0
  1  2  1  0
  1  7  1  0
  1 12  2  0
  2  3  1  0
  2  5  1  0
  3  4  1  0
  4  9  1  0
  4 10  2  0
  5  6  1  0
  6  7  1  0
  6 11  2  0
  7  8  1  0
  2 13  1  6
  3 14  1  0
  3 15  1  0
  5 16  1  0
  5 17  1  0
  8 18  1  0
M  CHG  1   9  -1
M  END
>  <filename_input>  (14) 
7UQ3_O2U_docked.sdf

>  <pdb_id>  (14) 
7UQ3_O2U

>  <pose_rank>  (14) 
13

>  <num_atoms_heavy>  (14) 
12

>  <num_torsions>  (14) 
2

>  <pose>  (14) 
[7.657702975875406, 142.03405769044488, 101.02666677548784, -10.580173181157413, 1.5533142740326558, 11.204893014986137, -7.350850632455301, -1.762121331546049]

>  <energy>  (14) 
-366.15145184789935

>  <inter_energy>  (14) 
-367.3473843349724

>  <intra_energy>  (14) 
0.0

>  <rmsd>  (14) 
3.9752

>  <sdf_rank>  (14) 
0

$$$$

     RDKit          3D

 18 18  0  0  0  0  0  0  0  0999 V2000
   17.4829  149.1416  106.5578 C   0  0  0  0  0  0  0  0  0  0  0  0
   17.2306  150.3619  105.8265 C   0  0  2  0  0  0  0  0  0  0  0  0
   16.1211  151.1631  106.3870 C   0  0  0  0  0  0  0  0  0  0  0  0
   14.8634  150.3939  106.7624 C   0  0  0  0  0  0  0  0  0  0  0  0
   17.3403  149.9470  104.3565 C   0  0  0  0  0  0  0  0  0  0  0  0
   18.0396  148.7076  104.5073 C   0  0  0  0  0  0  0  0  0  0  0  0
   18.0392  148.2624  105.7622 N   0  0  0  0  0  0  0  0  0  0  0  0
   18.5540  147.0719  106.2620 O   0  0  0  0  0  0  0  0  0  0  0  0
   14.9350  149.9180  107.9166 O   0  0  0  0  0  0  0  0  0  0  0  0
   13.9446  150.2449  105.9516 O   0  0  0  0  0  0  0  0  0  0  0  0
   18.5146  148.0353  103.5879 O   0  0  0  0  0  0  0  0  0  0  0  0
   17.3736  148.9605  107.7698 O   0  0  0  0  0  0  0  0  0  0  0  0
   17.9530  151.1845  105.9337 H   0  0  0  0  0  0  0  0  0  0  0  0
   16.4924  151.6633  107.2936 H   0  0  0  0  0  0  0  0  0  0  0  0
   15.8182  151.8509  105.5838 H   0  0  0  0  0  0  0  0  0  0  0  0
   16.3514  149.8058  103.8960 H   0  0  0  0  0  0  0  0  0  0  0  0
   17.8297  150.6815  103.7001 H   0  0  0  0  0  0  0  0  0  0  0  0
   18.5430  147.0974  107.2516 H   0  0  0  0  0  0  0  0  0  0  0  0
  1  2  1  0
  1  7  1  0
  1 12  2  0
  2  3  1  0
  2  5  1  0
  3  4  1  0
  4  9  1  0
  4 10  2  0
  5  6  1  0
  6  7  1  0
  6 11  2  0
  7  8  1  0
  2 13  1  1
  3 14  1  0
  3 15  1  0
  5 16  1  0
  5 17  1  0
  8 18  1  0
M  CHG  1   9  -1
M  END
>  <filename_input>  (15) 
7UQ3_O2U_docked.sdf

>  <pdb_id>  (15) 
7UQ3_O2U

>  <pose_rank>  (15) 
14

>  <num_atoms_heavy>  (15) 
12

>  <num_torsions>  (15) 
2

>  <pose>  (15) 
[17.482891130184957, 149.14156327475757, 106.55784265997978, -1.9131791260387405, -1.943516290281271, 4.917526993940188, -10.307229961206938, -1.5723776524537232]

>  <energy>  (15) 
-5.8112424049104305

>  <inter_energy>  (15) 
-45.32222673394473

>  <intra_energy>  (15) 
37.93819095553669

>  <rmsd>  (15) 
12.4386

>  <sdf_rank>  (15) 
0

$$$$

     RDKit          3D

 18 18  0  0  0  0  0  0  0  0999 V2000
    2.5464  139.0537  104.4702 C   0  0  0  0  0  0  0  0  0  0  0  0
    1.8125  139.6355  103.3699 C   0  0  2  0  0  0  0  0  0  0  0  0
    0.3569  139.7221  103.6162 C   0  0  0  0  0  0  0  0  0  0  0  0
   -0.5409  139.4887  102.4104 C   0  0  0  0  0  0  0  0  0  0  0  0
    2.4423  139.0048  102.1247 C   0  0  0  0  0  0  0  0  0  0  0  0
    3.6665  138.5256  102.6898 C   0  0  0  0  0  0  0  0  0  0  0  0
    3.6526  138.5150  104.0213 N   0  0  0  0  0  0  0  0  0  0  0  0
    4.6285  138.0530  104.8968 O   0  0  0  0  0  0  0  0  0  0  0  0
   -0.7621  138.2723  102.2223 O   0  0  0  0  0  0  0  0  0  0  0  0
   -0.9196  140.4312  101.7089 O   0  0  0  0  0  0  0  0  0  0  0  0
    4.6175  138.0625  102.0542 O   0  0  0  0  0  0  0  0  0  0  0  0
    2.3060  139.1665  105.6715 O   0  0  0  0  0  0  0  0  0  0  0  0
    1.9058  140.7191  103.2052 H   0  0  0  0  0  0  0  0  0  0  0  0
    0.0995  138.9709  104.3773 H   0  0  0  0  0  0  0  0  0  0  0  0
    0.1710  140.7610  103.9263 H   0  0  0  0  0  0  0  0  0  0  0  0
    1.8272  138.1850  101.7252 H   0  0  0  0  0  0  0  0  0  0  0  0
    2.5590  139.6833  101.2668 H   0  0  0  0  0  0  0  0  0  0  0  0
    4.3288  138.1949  105.8296 H   0  0  0  0  0  0  0  0  0  0  0  0
  1  2  1  0
  1  7  1  0
  1 12  2  0
  2  3  1  0
  2  5  1  0
  3  4  1  0
  4  9  1  0
  4 10  2  0
  5  6  1  0
  6  7  1  0
  6 11  2  0
  7  8  1  0
  2 13  1  6
  3 14  1  0
  3 15  1  0
  5 16  1  0
  5 17  1  0
  8 18  1  0
M  CHG  1   9  -1
M  END
>  <filename_input>  (16) 
7UQ3_O2U_docked.sdf

>  <pdb_id>  (16) 
7UQ3_O2U

>  <pose_rank>  (16) 
15

>  <num_atoms_heavy>  (16) 
12

>  <num_torsions>  (16) 
2

>  <pose>  (16) 
[2.5464173052626617, 139.05367035410896, 104.47020473063421, 5.168680469626113, -2.987404740342266, -1.3860675254752475, -5.75062294213209, -1.58278455341789]

>  <energy>  (16) 
-187.22465757819754

>  <inter_energy>  (16) 
-185.94120854032772

>  <intra_energy>  (16) 
2.911467920790174

>  <rmsd>  (16) 
7.8464

>  <sdf_rank>  (16) 
0

$$$$

     RDKit          3D

 18 18  0  0  0  0  0  0  0  0999 V2000
    2.4394  150.2107  106.8881 C   0  0  0  0  0  0  0  0  0  0  0  0
    2.0733  151.1561  105.8585 C   0  0  2  0  0  0  0  0  0  0  0  0
    1.1495  150.5956  104.8490 C   0  0  0  0  0  0  0  0  0  0  0  0
   -0.3352  150.7747  105.1280 C   0  0  0  0  0  0  0  0  0  0  0  0
    3.3845  151.8739  105.5260 C   0  0  0  0  0  0  0  0  0  0  0  0
    4.1487  151.5300  106.6860 C   0  0  0  0  0  0  0  0  0  0  0  0
    3.6029  150.5409  107.3908 N   0  0  0  0  0  0  0  0  0  0  0  0
    4.0975  149.9057  108.5239 O   0  0  0  0  0  0  0  0  0  0  0  0
   -1.0403  150.0778  104.3658 O   0  0  0  0  0  0  0  0  0  0  0  0
   -0.7289  151.5765  105.9801 O   0  0  0  0  0  0  0  0  0  0  0  0
    5.2514  151.9974  106.9833 O   0  0  0  0  0  0  0  0  0  0  0  0
    1.7367  149.3252  107.3735 O   0  0  0  0  0  0  0  0  0  0  0  0
    1.3783  151.9654  106.1268 H   0  0  0  0  0  0  0  0  0  0  0  0
    1.3711  151.0784  103.8857 H   0  0  0  0  0  0  0  0  0  0  0  0
    1.3233  149.5094  104.8600 H   0  0  0  0  0  0  0  0  0  0  0  0
    3.8419  151.4850  104.6043 H   0  0  0  0  0  0  0  0  0  0  0  0
    3.2895  152.9527  105.3333 H   0  0  0  0  0  0  0  0  0  0  0  0
    3.7474  150.3552  109.3336 H   0  0  0  0  0  0  0  0  0  0  0  0
  1  2  1  0
  1  7  1  0
  1 12  2  0
  2  3  1  0
  2  5  1  0
  3  4  1  0
  4  9  1  0
  4 10  2  0
  5  6  1  0
  6  7  1  0
  6 11  2  0
  7  8  1  0
  2 13  1  1
  3 14  1  0
  3 15  1  0
  5 16  1  0
  5 17  1  0
  8 18  1  0
M  CHG  1   9  -1
M  END
>  <filename_input>  (17) 
7UQ3_O2U_docked.sdf

>  <pdb_id>  (17) 
7UQ3_O2U

>  <pose_rank>  (17) 
16

>  <num_atoms_heavy>  (17) 
12

>  <num_torsions>  (17) 
2

>  <pose>  (17) 
[2.4393862279742433, 150.21073480659763, 106.88813651454609, 0.4901877867134179, -0.7704807715639913, 0.6770881412523316, 4.639928149701761, 0.28102370684970596]

>  <energy>  (17) 
-171.30905808365856

>  <inter_energy>  (17) 
-159.86398738731586

>  <intra_energy>  (17) 
1.4599694067818265

>  <rmsd>  (17) 
12.5142

>  <sdf_rank>  (17) 
0

$$$$

     RDKit          3D

 18 18  0  0  0  0  0  0  0  0999 V2000
    3.3525  150.2237  108.1347 C   0  0  0  0  0  0  0  0  0  0  0  0
    1.9807  149.9879  107.7465 C   0  0  2  0  0  0  0  0  0  0  0  0
    1.3832  151.1107  106.9922 C   0  0  0  0  0  0  0  0  0  0  0  0
    0.8710  150.7827  105.5978 C   0  0  0  0  0  0  0  0  0  0  0  0
    1.3474  149.3431  108.9827 C   0  0  0  0  0  0  0  0  0  0  0  0
    2.5315  148.9404  109.6781 C   0  0  0  0  0  0  0  0  0  0  0  0
    3.6334  149.5143  109.1992 N   0  0  0  0  0  0  0  0  0  0  0  0
    4.9386  149.4143  109.6668 O   0  0  0  0  0  0  0  0  0  0  0  0
    1.2867  151.5973  104.7448 O   0  0  0  0  0  0  0  0  0  0  0  0
    0.0908  149.8442  105.4125 O   0  0  0  0  0  0  0  0  0  0  0  0
    2.5651  148.2259  110.6837 O   0  0  0  0  0  0  0  0  0  0  0  0
    4.2108  150.8427  107.5072 O   0  0  0  0  0  0  0  0  0  0  0  0
    1.7920  149.2692  106.9355 H   0  0  0  0  0  0  0  0  0  0  0  0
    0.5367  151.4970  107.5789 H   0  0  0  0  0  0  0  0  0  0  0  0
    2.1982  151.8347  106.8450 H   0  0  0  0  0  0  0  0  0  0  0  0
    0.7568  150.0660  109.5644 H   0  0  0  0  0  0  0  0  0  0  0  0
    0.6326  148.5340  108.7719 H   0  0  0  0  0  0  0  0  0  0  0  0
    4.9355  149.4146  110.6568 H   0  0  0  0  0  0  0  0  0  0  0  0
  1  2  1  0
  1  7  1  0
  1 12  2  0
  2  3  1  0
  2  5  1  0
  3  4  1  0
  4  9  1  0
  4 10  2  0
  5  6  1  0
  6  7  1  0
  6 11  2  0
  7  8  1  0
  2 13  1  6
  3 14  1  0
  3 15  1  0
  5 16  1  0
  5 17  1  0
  8 18  1  0
M  CHG  1   9  -1
M  END
>  <filename_input>  (18) 
7UQ3_O2U_docked.sdf

>  <pdb_id>  (18) 
7UQ3_O2U

>  <pose_rank>  (18) 
17

>  <num_atoms_heavy>  (18) 
12

>  <num_torsions>  (18) 
2

>  <pose>  (18) 
[3.352473756078391, 150.22365140818204, 108.13468542899736, 3.227404436640344, -1.3068225819973158, 1.6440466236161524, -1.1226344601942357, 0.933568180674056]

>  <energy>  (18) 
-160.77872275901854

>  <inter_energy>  (18) 
-150.0497803778935

>  <intra_energy>  (18) 
0.0

>  <rmsd>  (18) 
12.7996

>  <sdf_rank>  (18) 
0

$$$$

     RDKit          3D

 18 18  0  0  0  0  0  0  0  0999 V2000
    0.0922  143.0738   92.5205 C   0  0  0  0  0  0  0  0  0  0  0  0
    0.7162  141.7705   92.5173 C   0  0  2  0  0  0  0  0  0  0  0  0
   -0.0815  140.7398   91.8187 C   0  0  0  0  0  0  0  0  0  0  0  0
    0.4173  139.3081   91.9449 C   0  0  0  0  0  0  0  0  0  0  0  0
    1.2727  141.6184   93.9358 C   0  0  0  0  0  0  0  0  0  0  0  0
    1.2510  142.9874   94.3516 C   0  0  0  0  0  0  0  0  0  0  0  0
    0.5185  143.7597   93.5516 N   0  0  0  0  0  0  0  0  0  0  0  0
    0.2175  145.1102   93.6847 O   0  0  0  0  0  0  0  0  0  0  0  0
    0.1297  138.8104   93.0555 O   0  0  0  0  0  0  0  0  0  0  0  0
    1.0751  138.7830   91.0418 O   0  0  0  0  0  0  0  0  0  0  0  0
    1.7521  143.4305   95.3887 O   0  0  0  0  0  0  0  0  0  0  0  0
   -0.5988  143.5736   91.6338 O   0  0  0  0  0  0  0  0  0  0  0  0
    1.5877  141.6192   91.8634 H   0  0  0  0  0  0  0  0  0  0  0  0
   -1.1044  140.7761   92.2218 H   0  0  0  0  0  0  0  0  0  0  0  0
   -0.0090  140.9848   90.7488 H   0  0  0  0  0  0  0  0  0  0  0  0
    0.6253  140.9892   94.5643 H   0  0  0  0  0  0  0  0  0  0  0  0
    2.2546  141.1269   94.0011 H   0  0  0  0  0  0  0  0  0  0  0  0
    0.1654  145.3436   94.6454 H   0  0  0  0  0  0  0  0  0  0  0  0
  1  2  1  0
  1  7  1  0
  1 12  2  0
  2  3  1  0
  2  5  1  0
  3  4  1  0
  4  9  1  0
  4 10  2  0
  5  6  1  0
  6  7  1  0
  6 11  2  0
  7  8  1  0
  2 13  1  6
  3 14  1  0
  3 15  1  0
  5 16  1  0
  5 17  1  0
  8 18  1  0
M  CHG  1   9  -1
M  END
>  <filename_input>  (19) 
7UQ3_O2U_docked.sdf

>  <pdb_id>  (19) 
7UQ3_O2U

>  <pose_rank>  (19) 
18

>  <num_atoms_heavy>  (19) 
12

>  <num_torsions>  (19) 
2

>  <pose>  (19) 
[0.0922278641652933, 143.07376161438086, 92.52050319389238, -1.9726554300733168, -1.1849073338978593, 0.039949372727644344, 0.049574596555340036, -1.7166199806815408]

>  <energy>  (19) 
-150.41812082827423

>  <inter_energy>  (19) 
-143.57787017193033

>  <intra_energy>  (19) 
5.8892384854105355

>  <rmsd>  (19) 
11.7232

>  <sdf_rank>  (19) 
0

$$$$

     RDKit          3D

 18 18  0  0  0  0  0  0  0  0999 V2000
   -0.3435  145.3969   91.8794 C   0  0  0  0  0  0  0  0  0  0  0  0
   -0.6539  146.4667   92.7997 C   0  0  2  0  0  0  0  0  0  0  0  0
   -0.5348  147.8119   92.1973 C   0  0  0  0  0  0  0  0  0  0  0  0
    0.8625  148.4131   92.1734 C   0  0  0  0  0  0  0  0  0  0  0  0
    0.0202  146.0427   94.1077 C   0  0  0  0  0  0  0  0  0  0  0  0
    0.2192  144.6518   93.8368 C   0  0  0  0  0  0  0  0  0  0  0  0
    0.0620  144.3475   92.5500 N   0  0  0  0  0  0  0  0  0  0  0  0
    0.2448  143.1230   91.9181 O   0  0  0  0  0  0  0  0  0  0  0  0
    1.4476  148.1899   91.0909 O   0  0  0  0  0  0  0  0  0  0  0  0
    1.3234  148.9878   93.1639 O   0  0  0  0  0  0  0  0  0  0  0  0
    0.5997  143.8088   94.6538 O   0  0  0  0  0  0  0  0  0  0  0  0
   -0.5682  145.3625   90.6703 O   0  0  0  0  0  0  0  0  0  0  0  0
   -1.7084  146.6208   93.0724 H   0  0  0  0  0  0  0  0  0  0  0  0
   -0.8909  147.7477   91.1585 H   0  0  0  0  0  0  0  0  0  0  0  0
   -1.1317  148.4769   92.8388 H   0  0  0  0  0  0  0  0  0  0  0  0
    0.9728  146.5692   94.2668 H   0  0  0  0  0  0  0  0  0  0  0  0
   -0.5533  146.2625   95.0203 H   0  0  0  0  0  0  0  0  0  0  0  0
    0.3508  142.4126   92.5994 H   0  0  0  0  0  0  0  0  0  0  0  0
  1  2  1  0
  1  7  1  0
  1 12  2  0
  2  3  1  0
  2  5  1  0
  3  4  1  0
  4  9  1  0
  4 10  2  0
  5  6  1  0
  6  7  1  0
  6 11  2  0
  7  8  1  0
  2 13  1  1
  3 14  1  0
  3 15  1  0
  5 16  1  0
  5 17  1  0
  8 18  1  0
M  CHG  1   9  -1
M  END
>  <filename_input>  (20) 
7UQ3_O2U_docked.sdf

>  <pdb_id>  (20) 
7UQ3_O2U

>  <pose_rank>  (20) 
19

>  <num_atoms_heavy>  (20) 
12

>  <num_torsions>  (20) 
2

>  <pose>  (20) 
[-0.343482057517812, 145.3968591211178, 91.8793924947389, -2.196736190777425, 2.7659837225232615, -0.09724361495171563, 1.5836839514700287, -1.4195675226034983]

>  <energy>  (20) 
-104.22542487956787

>  <inter_energy>  (20) 
-100.14228722517298

>  <intra_energy>  (20) 
2.8644589820047717

>  <rmsd>  (20) 
12.6674

>  <sdf_rank>  (20) 
0

$$$$

     RDKit          3D

 18 18  0  0  0  0  0  0  0  0999 V2000
   16.0065  149.2323   97.0723 C   0  0  0  0  0  0  0  0  0  0  0  0
   15.5222  150.4576   96.4790 C   0  0  2  0  0  0  0  0  0  0  0  0
   14.0726  150.4353   96.1875 C   0  0  0  0  0  0  0  0  0  0  0  0
   13.2238  151.4521   96.9359 C   0  0  0  0  0  0  0  0  0  0  0  0
   16.6028  150.8333   95.4612 C   0  0  0  0  0  0  0  0  0  0  0  0
   17.6802  150.0242   95.9432 C   0  0  0  0  0  0  0  0  0  0  0  0
   17.2814  149.0923   96.8066 N   0  0  0  0  0  0  0  0  0  0  0  0
   18.0327  148.0946   97.4169 O   0  0  0  0  0  0  0  0  0  0  0  0
   12.3888  152.0043   96.1864 O   0  0  0  0  0  0  0  0  0  0  0  0
   13.4306  151.6971   98.1280 O   0  0  0  0  0  0  0  0  0  0  0  0
   18.8489  150.0774   95.5507 O   0  0  0  0  0  0  0  0  0  0  0  0
   15.4087  148.4927   97.8528 O   0  0  0  0  0  0  0  0  0  0  0  0
   15.4354  151.3430   97.1259 H   0  0  0  0  0  0  0  0  0  0  0  0
   13.9436  150.6175   95.1104 H   0  0  0  0  0  0  0  0  0  0  0  0
   13.7186  149.4498   96.5241 H   0  0  0  0  0  0  0  0  0  0  0  0
   16.3125  150.5600   94.4360 H   0  0  0  0  0  0  0  0  0  0  0  0
   16.8229  151.9088   95.3905 H   0  0  0  0  0  0  0  0  0  0  0  0
   17.9645  148.1852   98.4004 H   0  0  0  0  0  0  0  0  0  0  0  0
  1  2  1  0
  1  7  1  0
  1 12  2  0
  2  3  1  0
  2  5  1  0
  3  4  1  0
  4  9  1  0
  4 10  2  0
  5  6  1  0
  6  7  1  0
  6 11  2  0
  7  8  1  0
  2 13  1  1
  3 14  1  0
  3 15  1  0
  5 16  1  0
  5 17  1  0
  8 18  1  0
M  CHG  1   9  -1
M  END
>  <filename_input>  (21) 
7UQ3_O2U_docked.sdf

>  <pdb_id>  (21) 
7UQ3_O2U

>  <pose_rank>  (21) 
20

>  <num_atoms_heavy>  (21) 
12

>  <num_torsions>  (21) 
2

>  <pose>  (21) 
[16.006535003943135, 149.23227629373926, 97.07229594905542, -4.934857484432683, 2.409526919099574, -0.9293224594608808, -7.474249751114198, -0.6889769059306313]

>  <energy>  (21) 
-131.22577816302388

>  <inter_energy>  (21) 
-107.24296115644604

>  <intra_energy>  (21) 
0.0

>  <rmsd>  (21) 
11.5481

>  <sdf_rank>  (21) 
0

$$$$

     RDKit          3D

 18 18  0  0  0  0  0  0  0  0999 V2000
   17.4887  135.9512   92.6385 C   0  0  0  0  0  0  0  0  0  0  0  0
   16.1591  135.3957   92.7453 C   0  0  2  0  0  0  0  0  0  0  0  0
   16.1497  133.9301   92.9423 C   0  0  0  0  0  0  0  0  0  0  0  0
   15.0671  133.1619   92.1990 C   0  0  0  0  0  0  0  0  0  0  0  0
   15.3596  136.1274   91.6634 C   0  0  0  0  0  0  0  0  0  0  0  0
   16.2293  137.2399   91.4317 C   0  0  0  0  0  0  0  0  0  0  0  0
   17.4429  137.0650   91.9510 N   0  0  0  0  0  0  0  0  0  0  0  0
   18.5542  137.8952   91.8615 O   0  0  0  0  0  0  0  0  0  0  0  0
   14.0329  133.0281   92.8893 O   0  0  0  0  0  0  0  0  0  0  0  0
   15.2751  132.7008   91.0730 O   0  0  0  0  0  0  0  0  0  0  0  0
   15.9628  138.2275   90.7414 O   0  0  0  0  0  0  0  0  0  0  0  0
   18.5045  135.5759   93.2224 O   0  0  0  0  0  0  0  0  0  0  0  0
   15.5975  135.5802   93.6729 H   0  0  0  0  0  0  0  0  0  0  0  0
   17.1243  133.5405   92.6132 H   0  0  0  0  0  0  0  0  0  0  0  0
   15.9398  133.7769   94.0111 H   0  0  0  0  0  0  0  0  0  0  0  0
   15.2331  135.5116   90.7608 H   0  0  0  0  0  0  0  0  0  0  0  0
   14.3293  136.3917   91.9437 H   0  0  0  0  0  0  0  0  0  0  0  0
   18.8661  138.1283   92.7718 H   0  0  0  0  0  0  0  0  0  0  0  0
  1  2  1  0
  1  7  1  0
  1 12  2  0
  2  3  1  0
  2  5  1  0
  3  4  1  0
  4  9  1  0
  4 10  2  0
  5  6  1  0
  6  7  1  0
  6 11  2  0
  7  8  1  0
  2 13  1  1
  3 14  1  0
  3 15  1  0
  5 16  1  0
  5 17  1  0
  8 18  1  0
M  CHG  1   9  -1
M  END
>  <filename_input>  (22) 
7UQ3_O2U_docked.sdf

>  <pdb_id>  (22) 
7UQ3_O2U

>  <pose_rank>  (22) 
21

>  <num_atoms_heavy>  (22) 
12

>  <num_torsions>  (22) 
2

>  <pose>  (22) 
[17.48868986914375, 135.9512139458057, 92.63848769340316, -2.065498522910215, -2.014097362966008, -3.473820029733892, 0.5895558593499032, 1.6201863701021542]

>  <energy>  (22) 
-131.1657835724055

>  <inter_energy>  (22) 
-104.4531572232187

>  <intra_energy>  (22) 
0.45056098714098136

>  <rmsd>  (22) 
13.4858

>  <sdf_rank>  (22) 
0

$$$$

     RDKit          3D

 18 18  0  0  0  0  0  0  0  0999 V2000
    5.1602  134.1975   92.4013 C   0  0  0  0  0  0  0  0  0  0  0  0
    3.9901  134.4830   93.1996 C   0  0  2  0  0  0  0  0  0  0  0  0
    3.4241  133.2869   93.8598 C   0  0  0  0  0  0  0  0  0  0  0  0
    3.7089  133.1461   95.3476 C   0  0  0  0  0  0  0  0  0  0  0  0
    3.1816  135.4610   92.3424 C   0  0  0  0  0  0  0  0  0  0  0  0
    4.2015  135.8841   91.4322 C   0  0  0  0  0  0  0  0  0  0  0  0
    5.2772  135.0998   91.4592 N   0  0  0  0  0  0  0  0  0  0  0  0
    6.4197  135.1643   90.6701 O   0  0  0  0  0  0  0  0  0  0  0  0
    4.8388  133.5884   95.6500 O   0  0  0  0  0  0  0  0  0  0  0  0
    2.8999  132.5945   96.0994 O   0  0  0  0  0  0  0  0  0  0  0  0
    4.0985  136.8043   90.6163 O   0  0  0  0  0  0  0  0  0  0  0  0
    6.0336  133.3613   92.6280 O   0  0  0  0  0  0  0  0  0  0  0  0
    4.1349  135.0103   94.1541 H   0  0  0  0  0  0  0  0  0  0  0  0
    2.3325  133.3151   93.7277 H   0  0  0  0  0  0  0  0  0  0  0  0
    3.9146  132.4259   93.3822 H   0  0  0  0  0  0  0  0  0  0  0  0
    2.3512  134.9604   91.8230 H   0  0  0  0  0  0  0  0  0  0  0  0
    2.6884  136.2713   92.8993 H   0  0  0  0  0  0  0  0  0  0  0  0
    7.2199  135.2095   91.2511 H   0  0  0  0  0  0  0  0  0  0  0  0
  1  2  1  0
  1  7  1  0
  1 12  2  0
  2  3  1  0
  2  5  1  0
  3  4  1  0
  4  9  1  0
  4 10  2  0
  5  6  1  0
  6  7  1  0
  6 11  2  0
  7  8  1  0
  2 13  1  1
  3 14  1  0
  3 15  1  0
  5 16  1  0
  5 17  1  0
  8 18  1  0
M  CHG  1   9  -1
M  END
>  <filename_input>  (23) 
7UQ3_O2U_docked.sdf

>  <pdb_id>  (23) 
7UQ3_O2U

>  <pose_rank>  (23) 
22

>  <num_atoms_heavy>  (23) 
12

>  <num_torsions>  (23) 
2

>  <pose>  (23) 
[5.160178619877131, 134.19747108259335, 92.40127299981847, -3.282040773730965, -2.915162716354796, -1.674896824358028, -1.4263631973903204, 2.6164134815975104]

>  <energy>  (23) 
-130.79718477497136

>  <inter_energy>  (23) 
-124.40280222996978

>  <intra_energy>  (23) 
2.9528882747548852

>  <rmsd>  (23) 
12.024

>  <sdf_rank>  (23) 
0

$$$$

     RDKit          3D

 18 18  0  0  0  0  0  0  0  0999 V2000
   16.1601  150.4624   96.4388 C   0  0  0  0  0  0  0  0  0  0  0  0
   16.5024  150.8523   97.7874 C   0  0  2  0  0  0  0  0  0  0  0  0
   17.6425  150.0939   98.3459 C   0  0  0  0  0  0  0  0  0  0  0  0
   17.6239  149.8691   99.8504 C   0  0  0  0  0  0  0  0  0  0  0  0
   15.1489  151.0162   98.4847 C   0  0  0  0  0  0  0  0  0  0  0  0
   14.2973  151.1130   97.3387 C   0  0  0  0  0  0  0  0  0  0  0  0
   14.8978  150.7296   96.2138 N   0  0  0  0  0  0  0  0  0  0  0  0
   14.3625  150.6248   94.9353 O   0  0  0  0  0  0  0  0  0  0  0  0
   17.2091  148.7270  100.1461 O   0  0  0  0  0  0  0  0  0  0  0  0
   17.9367  150.7726  100.6312 O   0  0  0  0  0  0  0  0  0  0  0  0
   13.1001  151.4116   97.3576 O   0  0  0  0  0  0  0  0  0  0  0  0
   16.9271  150.0961   95.5494 O   0  0  0  0  0  0  0  0  0  0  0  0
   17.0038  151.8207   97.9312 H   0  0  0  0  0  0  0  0  0  0  0  0
   17.6610  149.1077   97.8589 H   0  0  0  0  0  0  0  0  0  0  0  0
   18.5320  150.7107   98.1502 H   0  0  0  0  0  0  0  0  0  0  0  0
   14.9005  150.1438   99.1069 H   0  0  0  0  0  0  0  0  0  0  0  0
   15.0850  151.8615   99.1857 H   0  0  0  0  0  0  0  0  0  0  0  0
   13.3929  150.4349   94.9980 H   0  0  0  0  0  0  0  0  0  0  0  0
  1  2  1  0
  1  7  1  0
  1 12  2  0
  2  3  1  0
  2  5  1  0
  3  4  1  0
  4  9  1  0
  4 10  2  0
  5  6  1  0
  6  7  1  0
  6 11  2  0
  7  8  1  0
  2 13  1  6
  3 14  1  0
  3 15  1  0
  5 16  1  0
  5 17  1  0
  8 18  1  0
M  CHG  1   9  -1
M  END
>  <filename_input>  (24) 
7UQ3_O2U_docked.sdf

>  <pdb_id>  (24) 
7UQ3_O2U

>  <pose_rank>  (24) 
23

>  <num_atoms_heavy>  (24) 
12

>  <num_torsions>  (24) 
2

>  <pose>  (24) 
[16.160062014310505, 150.46237916768655, 96.4388141065576, -1.149272577862641, -3.466231954268319, -0.05036814892097304, 0.4475142994289276, -1.3301327262053655]

>  <energy>  (24) 
-123.0903171120171

>  <inter_energy>  (24) 
-100.0954049869066

>  <intra_energy>  (24) 
0.4644307809666746

>  <rmsd>  (24) 
12.4541

>  <sdf_rank>  (24) 
0

$$$$

     RDKit          3D

 18 18  0  0  0  0  0  0  0  0999 V2000
   16.2356  149.1244   95.4765 C   0  0  0  0  0  0  0  0  0  0  0  0
   17.2637  148.8235   94.5068 C   0  0  2  0  0  0  0  0  0  0  0  0
   16.8288  147.8634   93.4695 C   0  0  0  0  0  0  0  0  0  0  0  0
   17.8728  147.4822   92.4306 C   0  0  0  0  0  0  0  0  0  0  0  0
   18.5363  148.6726   95.3450 C   0  0  0  0  0  0  0  0  0  0  0  0
   18.1107  149.3195   96.5483 C   0  0  0  0  0  0  0  0  0  0  0  0
   16.7922  149.4973   96.6019 N   0  0  0  0  0  0  0  0  0  0  0  0
   16.0274  150.0213   97.6376 O   0  0  0  0  0  0  0  0  0  0  0  0
   18.2018  146.2790   92.5199 O   0  0  0  0  0  0  0  0  0  0  0  0
   18.3410  148.3267   91.6614 O   0  0  0  0  0  0  0  0  0  0  0  0
   18.8360  149.6034   97.5055 O   0  0  0  0  0  0  0  0  0  0  0  0
   15.0235  149.2022   95.2807 O   0  0  0  0  0  0  0  0  0  0  0  0
   17.5139  149.5968   93.7656 H   0  0  0  0  0  0  0  0  0  0  0  0
   16.5082  146.9419   93.9776 H   0  0  0  0  0  0  0  0  0  0  0  0
   16.0293  148.3729   92.9117 H   0  0  0  0  0  0  0  0  0  0  0  0
   18.7911  147.6163   95.5160 H   0  0  0  0  0  0  0  0  0  0  0  0
   19.4469  149.0885   94.8891 H   0  0  0  0  0  0  0  0  0  0  0  0
   16.4196  149.7526   98.5060 H   0  0  0  0  0  0  0  0  0  0  0  0
  1  2  1  0
  1  7  1  0
  1 12  2  0
  2  3  1  0
  2  5  1  0
  3  4  1  0
  4  9  1  0
  4 10  2  0
  5  6  1  0
  6  7  1  0
  6 11  2  0
  7  8  1  0
  2 13  1  6
  3 14  1  0
  3 15  1  0
  5 16  1  0
  5 17  1  0
  8 18  1  0
M  CHG  1   9  -1
M  END
>  <filename_input>  (25) 
7UQ3_O2U_docked.sdf

>  <pdb_id>  (25) 
7UQ3_O2U

>  <pose_rank>  (25) 
24

>  <num_atoms_heavy>  (25) 
12

>  <num_torsions>  (25) 
2

>  <pose>  (25) 
[16.235616537081913, 149.1244387541629, 95.47645002673154, 2.431029823394611, 3.7298399819397168, -1.2556598359916977, -0.07623930995859171, -1.084974846650386]

>  <energy>  (25) 
-69.88705808942267

>  <inter_energy>  (25) 
-78.14405688956798

>  <intra_energy>  (25) 
0.0

>  <rmsd>  (25) 
12.8117

>  <sdf_rank>  (25) 
0

$$$$

     RDKit          3D

 18 18  0  0  0  0  0  0  0  0999 V2000
    9.1070  141.6290  101.6820 C   0  0  0  0  0  0  0  0  0  0  0  0
    8.4780  142.3760  100.6170 C   0  0  2  0  0  0  0  0  0  0  0  0
    7.0110  142.4880  100.7660 C   0  0  0  0  0  0  0  0  0  0  0  0
    6.2700  143.1500   99.6140 C   0  0  0  0  0  0  0  0  0  0  0  0
    9.1830  141.8860   99.3490 C   0  0  0  0  0  0  0  0  0  0  0  0
   10.3450  141.2900   99.9340 C   0  0  0  0  0  0  0  0  0  0  0  0
   10.2280  141.1090  101.2480 N   0  0  0  0  0  0  0  0  0  0  0  0
   11.1190  140.5000  102.1240 O   0  0  0  0  0  0  0  0  0  0  0  0
    5.0310  143.1270   99.7820 O   0  0  0  0  0  0  0  0  0  0  0  0
    6.8800  143.5830   98.6320 O   0  0  0  0  0  0  0  0  0  0  0  0
   11.3280  140.8750   99.3140 O   0  0  0  0  0  0  0  0  0  0  0  0
    8.7780  141.5960  102.8670 O   0  0  0  0  0  0  0  0  0  0  0  0
    8.6161  143.4672  100.6030 H   0  0  0  0  0  0  0  0  0  0  0  0
    6.6068  141.4720  100.8860 H   0  0  0  0  0  0  0  0  0  0  0  0
    6.8514  143.1429  101.6353 H   0  0  0  0  0  0  0  0  0  0  0  0
    8.5764  141.1494   98.8019 H   0  0  0  0  0  0  0  0  0  0  0  0
    9.3859  142.6639   98.5982 H   0  0  0  0  0  0  0  0  0  0  0  0
   10.8449  140.6873  103.0567 H   0  0  0  0  0  0  0  0  0  0  0  0
  1  2  1  0
  1  7  1  0
  1 12  2  0
  2  3  1  0
  2  5  1  0
  3  4  1  0
  4  9  1  0
  4 10  2  0
  5  6  1  0
  6  7  1  0
  6 11  2  0
  7  8  1  0
  2 13  1  1
  3 14  1  0
  3 15  1  0
  5 16  1  0
  5 17  1  0
  8 18  1  0
M  CHG  1   9  -1
M  END
>  <filename_input>  (26) 
7UQ3_O2U_docked.sdf

>  <pdb_id>  (26) 
7UQ3_O2U

>  <pose_rank>  (26) 
25

>  <num_atoms_heavy>  (26) 
12

>  <num_torsions>  (26) 
2

>  <pose>  (26) 
[9.107, 141.629, 101.682, 1e-06, 1e-06, 1e-06, 0.0, 0.0]

>  <energy>  (26) 
-495.4565701740037

>  <inter_energy>  (26) 
-503.55851943022225

>  <intra_energy>  (26) 
12.706706958536985

>  <rmsd>  (26) 
0.0

>  <sdf_rank>  (26) 
0

$$$$
