
     RDKit          3D

 43 47  0  0  0  0  0  0  0  0999 V2000
   17.2528   -9.5497    9.8064 C   0  0  0  0  0  0  0  0  0  0  0  0
   15.6913   -5.6093    6.7531 C   0  0  0  0  0  0  0  0  0  0  0  0
   16.5370   -3.3799    6.2267 C   0  0  0  0  0  0  0  0  0  0  0  0
   18.6663   -3.4671    7.5948 C   0  0  0  0  0  0  0  0  0  0  0  0
   21.1955   -2.5388    8.6213 C   0  0  0  0  0  0  0  0  0  0  0  0
   23.3521   -1.6441    8.1998 C   0  0  0  0  0  0  0  0  0  0  0  0
   19.5425   -2.6806    6.8342 C   0  0  0  0  0  0  0  0  0  0  0  0
   14.0056   -7.1870    6.3455 O   0  0  0  0  0  0  0  0  0  0  0  0
   15.0558   -6.8701    6.9361 C   0  0  0  0  0  0  0  0  0  0  0  0
   15.7250   -7.7889    7.8332 C   0  0  0  0  0  0  0  0  0  0  0  0
   16.9247   -7.4861    8.3360 C   0  0  0  0  0  0  0  0  0  0  0  0
   17.6234   -8.2034    9.3427 N   0  0  0  0  0  0  0  0  0  0  0  0
   18.7077   -7.6883   10.1795 C   0  0  0  0  0  0  0  0  0  0  0  0
   18.2508   -7.6256   11.6442 C   0  0  0  0  0  0  0  0  0  0  0  0
   17.7289   -8.8741   12.0948 O   0  0  0  0  0  0  0  0  0  0  0  0
   16.7543   -9.4575   11.2330 C   0  0  0  0  0  0  0  0  0  0  0  0
   17.4711   -6.2499    8.1770 O   0  0  0  0  0  0  0  0  0  0  0  0
   16.8703   -5.3292    7.3599 C   0  0  0  0  0  0  0  0  0  0  0  0
   15.1548   -4.3100    5.7907 S   0  0  0  0  0  0  0  0  0  0  0  0
   17.4073   -3.9953    7.0817 C   0  0  0  0  0  0  0  0  0  0  0  0
   19.1378   -3.7904    8.8936 C   0  0  0  0  0  0  0  0  0  0  0  0
   20.3589   -3.3311    9.4096 C   0  0  0  0  0  0  0  0  0  0  0  0
   22.3887   -2.1024    9.1416 O   0  0  0  0  0  0  0  0  0  0  0  0
   22.7197   -0.8061    7.0980 C   0  0  0  0  0  0  0  0  0  0  0  0
   21.5645   -1.4307    6.5277 O   0  0  0  0  0  0  0  0  0  0  0  0
   20.7821   -2.2093    7.3239 C   0  0  0  0  0  0  0  0  0  0  0  0
   16.4583   -9.9560    9.1632 H   0  0  0  0  0  0  0  0  0  0  0  0
   18.1284  -10.2139    9.7599 H   0  0  0  0  0  0  0  0  0  0  0  0
   16.7072   -2.3628    5.8441 H   0  0  0  0  0  0  0  0  0  0  0  0
   24.0999   -1.0326    8.7260 H   0  0  0  0  0  0  0  0  0  0  0  0
   23.8156   -2.5253    7.7323 H   0  0  0  0  0  0  0  0  0  0  0  0
   19.2515   -2.4175    5.8065 H   0  0  0  0  0  0  0  0  0  0  0  0
   15.2431   -8.7405    8.1018 H   0  0  0  0  0  0  0  0  0  0  0  0
   19.5798   -8.3537   10.0973 H   0  0  0  0  0  0  0  0  0  0  0  0
   18.9788   -6.6776    9.8404 H   0  0  0  0  0  0  0  0  0  0  0  0
   19.1110   -7.3524   12.2731 H   0  0  0  0  0  0  0  0  0  0  0  0
   17.4496   -6.8756   11.7185 H   0  0  0  0  0  0  0  0  0  0  0  0
   15.8445   -8.8396   11.2536 H   0  0  0  0  0  0  0  0  0  0  0  0
   16.5463  -10.4768   11.5904 H   0  0  0  0  0  0  0  0  0  0  0  0
   18.5129   -4.4350    9.5293 H   0  0  0  0  0  0  0  0  0  0  0  0
   20.6571   -3.5953   10.4350 H   0  0  0  0  0  0  0  0  0  0  0  0
   22.4231    0.1655    7.5201 H   0  0  0  0  0  0  0  0  0  0  0  0
   23.4654   -0.6891    6.2978 H   0  0  0  0  0  0  0  0  0  0  0  0
  1 12  1  0
  1 16  1  0
  2  9  1  0
  2 18  2  0
  2 19  1  0
  3 19  1  0
  3 20  2  0
  4  7  2  0
  4 20  1  0
  4 21  1  0
  5 22  1  0
  5 23  1  0
  5 26  2  0
  6 23  1  0
  6 24  1  0
  7 26  1  0
  8  9  2  0
  9 10  1  0
 10 11  2  0
 11 12  1  0
 11 17  1  0
 12 13  1  0
 13 14  1  0
 14 15  1  0
 15 16  1  0
 17 18  1  0
 18 20  1  0
 21 22  2  0
 24 25  1  0
 25 26  1  0
  1 27  1  0
  1 28  1  0
  3 29  1  0
  6 30  1  0
  6 31  1  0
  7 32  1  0
 10 33  1  0
 13 34  1  0
 13 35  1  0
 14 36  1  0
 14 37  1  0
 16 38  1  0
 16 39  1  0
 21 40  1  0
 22 41  1  0
 24 42  1  0
 24 43  1  0
M  END
>  <filename_input>  (1) 
7USH_82V_docked.sdf

>  <pdb_id>  (1) 
7USH_82V

>  <pose_rank>  (1) 
0

>  <num_atoms_heavy>  (1) 
26

>  <num_torsions>  (1) 
2

>  <pose>  (1) 
[15.691268135517953, -5.609254843702027, 6.75305569755584, 5.374398199828352, -2.973611290362564, -0.9911572299168893, -0.024068002830592287, 0.10407817110669977]

>  <energy>  (1) 
-1482.0070467594123

>  <inter_energy>  (1) 
-1452.0777985046866

>  <intra_energy>  (1) 
8.870001569084263

>  <rmsd>  (1) 
0.256164

>  <sdf_rank>  (1) 
0

$$$$

     RDKit          3D

 43 47  0  0  0  0  0  0  0  0999 V2000
   17.9552   -7.7861   10.7108 C   0  0  0  0  0  0  0  0  0  0  0  0
   15.7969   -5.6688    6.7707 C   0  0  0  0  0  0  0  0  0  0  0  0
   16.6272   -3.4221    6.2962 C   0  0  0  0  0  0  0  0  0  0  0  0
   18.7345   -3.5102    7.6981 C   0  0  0  0  0  0  0  0  0  0  0  0
   21.1333   -2.3556    8.8046 C   0  0  0  0  0  0  0  0  0  0  0  0
   22.6819   -2.2223   10.5971 C   0  0  0  0  0  0  0  0  0  0  0  0
   19.4191   -4.0896    8.7753 C   0  0  0  0  0  0  0  0  0  0  0  0
   14.1353   -7.2569    6.3085 O   0  0  0  0  0  0  0  0  0  0  0  0
   15.1721   -6.9392    6.9218 C   0  0  0  0  0  0  0  0  0  0  0  0
   15.8362   -7.8660    7.8144 C   0  0  0  0  0  0  0  0  0  0  0  0
   17.0241   -7.5592    8.3423 C   0  0  0  0  0  0  0  0  0  0  0  0
   17.7137   -8.2862    9.3483 N   0  0  0  0  0  0  0  0  0  0  0  0
   18.4180   -9.5565    9.1707 C   0  0  0  0  0  0  0  0  0  0  0  0
   19.9241   -9.3524    9.3895 C   0  0  0  0  0  0  0  0  0  0  0  0
   20.2015   -8.7181   10.6365 O   0  0  0  0  0  0  0  0  0  0  0  0
   19.4386   -7.5400   10.8875 C   0  0  0  0  0  0  0  0  0  0  0  0
   17.5598   -6.3149    8.2132 O   0  0  0  0  0  0  0  0  0  0  0  0
   16.9627   -5.3868    7.4018 C   0  0  0  0  0  0  0  0  0  0  0  0
   15.2625   -4.3590    5.8215 S   0  0  0  0  0  0  0  0  0  0  0  0
   17.4898   -4.0428    7.1551 C   0  0  0  0  0  0  0  0  0  0  0  0
   19.3006   -2.3002    7.2194 C   0  0  0  0  0  0  0  0  0  0  0  0
   20.4761   -1.7377    7.7390 C   0  0  0  0  0  0  0  0  0  0  0  0
   22.2799   -1.7882    9.3029 O   0  0  0  0  0  0  0  0  0  0  0  0
   22.5085   -3.7237   10.7752 C   0  0  0  0  0  0  0  0  0  0  0  0
   21.2178   -4.1808   10.3568 O   0  0  0  0  0  0  0  0  0  0  0  0
   20.6011   -3.5426    9.3249 C   0  0  0  0  0  0  0  0  0  0  0  0
   17.4044   -6.8460   10.8620 H   0  0  0  0  0  0  0  0  0  0  0  0
   17.6104   -8.5276   11.4464 H   0  0  0  0  0  0  0  0  0  0  0  0
   16.7928   -2.3968    5.9337 H   0  0  0  0  0  0  0  0  0  0  0  0
   23.7419   -1.9675   10.7436 H   0  0  0  0  0  0  0  0  0  0  0  0
   22.0447   -1.7168   11.3377 H   0  0  0  0  0  0  0  0  0  0  0  0
   19.0171   -5.0146    9.2142 H   0  0  0  0  0  0  0  0  0  0  0  0
   15.3602   -8.8270    8.0588 H   0  0  0  0  0  0  0  0  0  0  0  0
   18.0393  -10.2888    9.8989 H   0  0  0  0  0  0  0  0  0  0  0  0
   18.2467   -9.9266    8.1490 H   0  0  0  0  0  0  0  0  0  0  0  0
   20.4218  -10.3333    9.3715 H   0  0  0  0  0  0  0  0  0  0  0  0
   20.2991   -8.7013    8.5861 H   0  0  0  0  0  0  0  0  0  0  0  0
   19.7556   -6.7538   10.1865 H   0  0  0  0  0  0  0  0  0  0  0  0
   19.6138   -7.2330   11.9291 H   0  0  0  0  0  0  0  0  0  0  0  0
   18.7910   -1.7757    6.3977 H   0  0  0  0  0  0  0  0  0  0  0  0
   20.8799   -0.8101    7.3070 H   0  0  0  0  0  0  0  0  0  0  0  0
   23.2756   -4.2404   10.1797 H   0  0  0  0  0  0  0  0  0  0  0  0
   22.6102   -3.9467   11.8476 H   0  0  0  0  0  0  0  0  0  0  0  0
  1 12  1  0
  1 16  1  0
  2  9  1  0
  2 18  2  0
  2 19  1  0
  3 19  1  0
  3 20  2  0
  4  7  2  0
  4 20  1  0
  4 21  1  0
  5 22  1  0
  5 23  1  0
  5 26  2  0
  6 23  1  0
  6 24  1  0
  7 26  1  0
  8  9  2  0
  9 10  1  0
 10 11  2  0
 11 12  1  0
 11 17  1  0
 12 13  1  0
 13 14  1  0
 14 15  1  0
 15 16  1  0
 17 18  1  0
 18 20  1  0
 21 22  2  0
 24 25  1  0
 25 26  1  0
  1 27  1  0
  1 28  1  0
  3 29  1  0
  6 30  1  0
  6 31  1  0
  7 32  1  0
 10 33  1  0
 13 34  1  0
 13 35  1  0
 14 36  1  0
 14 37  1  0
 16 38  1  0
 16 39  1  0
 21 40  1  0
 22 41  1  0
 24 42  1  0
 24 43  1  0
M  END
>  <filename_input>  (2) 
7USH_82V_docked.sdf

>  <pdb_id>  (2) 
7USH_82V

>  <pose_rank>  (2) 
1

>  <num_atoms_heavy>  (2) 
26

>  <num_torsions>  (2) 
2

>  <pose>  (2) 
[15.796933335586136, -5.668776997980371, 6.770721475418136, 5.230327585396761, -1.780745366395518, -2.899350610072946, -2.755983886264268, -2.0842328153115735]

>  <energy>  (2) 
-1266.0886418062416

>  <inter_energy>  (2) 
-1281.0427798110682

>  <intra_energy>  (2) 
12.888318781053785

>  <rmsd>  (2) 
1.88192

>  <sdf_rank>  (2) 
0

$$$$

     RDKit          3D

 43 47  0  0  0  0  0  0  0  0999 V2000
   18.4337   -7.2793   10.5076 C   0  0  0  0  0  0  0  0  0  0  0  0
   15.7671   -5.6121    6.6699 C   0  0  0  0  0  0  0  0  0  0  0  0
   16.5343   -3.3810    6.0407 C   0  0  0  0  0  0  0  0  0  0  0  0
   18.6456   -3.3158    7.4378 C   0  0  0  0  0  0  0  0  0  0  0  0
   21.1394   -2.2241    8.3871 C   0  0  0  0  0  0  0  0  0  0  0  0
   22.9565   -0.7333    8.0638 C   0  0  0  0  0  0  0  0  0  0  0  0
   19.1778   -2.1175    6.9424 C   0  0  0  0  0  0  0  0  0  0  0  0
   14.1491   -7.2729    6.3226 O   0  0  0  0  0  0  0  0  0  0  0  0
   15.1777   -6.8859    6.9093 C   0  0  0  0  0  0  0  0  0  0  0  0
   15.8686   -7.7313    7.8604 C   0  0  0  0  0  0  0  0  0  0  0  0
   17.0486   -7.3569    8.3620 C   0  0  0  0  0  0  0  0  0  0  0  0
   17.7596   -7.9946    9.4126 N   0  0  0  0  0  0  0  0  0  0  0  0
   18.0696   -9.4215    9.5080 C   0  0  0  0  0  0  0  0  0  0  0  0
   19.5874   -9.6328    9.4094 C   0  0  0  0  0  0  0  0  0  0  0  0
   20.3003   -8.8320   10.3500 O   0  0  0  0  0  0  0  0  0  0  0  0
   19.9302   -7.4551   10.3606 C   0  0  0  0  0  0  0  0  0  0  0  0
   17.5495   -6.1100    8.1467 O   0  0  0  0  0  0  0  0  0  0  0  0
   16.9257   -5.2560    7.2762 C   0  0  0  0  0  0  0  0  0  0  0  0
   15.1951   -4.3851    5.6358 S   0  0  0  0  0  0  0  0  0  0  0  0
   17.4152   -3.9180    6.9368 C   0  0  0  0  0  0  0  0  0  0  0  0
   19.4456   -3.9575    8.4185 C   0  0  0  0  0  0  0  0  0  0  0  0
   20.6523   -3.4278    8.8998 C   0  0  0  0  0  0  0  0  0  0  0  0
   22.3242   -1.7233    8.8670 O   0  0  0  0  0  0  0  0  0  0  0  0
   21.9569    0.2606    7.4902 C   0  0  0  0  0  0  0  0  0  0  0  0
   20.8299   -0.3819    6.8843 O   0  0  0  0  0  0  0  0  0  0  0  0
   20.3942   -1.5628    7.4020 C   0  0  0  0  0  0  0  0  0  0  0  0
   18.1812   -6.2097   10.4604 H   0  0  0  0  0  0  0  0  0  0  0  0
   18.1043   -7.6846   11.4757 H   0  0  0  0  0  0  0  0  0  0  0  0
   16.6709   -2.3787    5.6087 H   0  0  0  0  0  0  0  0  0  0  0  0
   23.6853   -0.1876    8.6812 H   0  0  0  0  0  0  0  0  0  0  0  0
   23.4494   -1.2427    7.2226 H   0  0  0  0  0  0  0  0  0  0  0  0
   18.6222   -1.5828    6.1579 H   0  0  0  0  0  0  0  0  0  0  0  0
   15.4197   -8.6861    8.1713 H   0  0  0  0  0  0  0  0  0  0  0  0
   17.7089   -9.8098   10.4719 H   0  0  0  0  0  0  0  0  0  0  0  0
   17.5746   -9.9561    8.6839 H   0  0  0  0  0  0  0  0  0  0  0  0
   19.8118  -10.6921    9.6026 H   0  0  0  0  0  0  0  0  0  0  0  0
   19.9069   -9.3362    8.3994 H   0  0  0  0  0  0  0  0  0  0  0  0
   20.2526   -6.9919    9.4164 H   0  0  0  0  0  0  0  0  0  0  0  0
   20.4184   -6.9751   11.2216 H   0  0  0  0  0  0  0  0  0  0  0  0
   19.1015   -4.9210    8.8227 H   0  0  0  0  0  0  0  0  0  0  0  0
   21.2145   -3.9608    9.6807 H   0  0  0  0  0  0  0  0  0  0  0  0
   21.5981    0.9089    8.3032 H   0  0  0  0  0  0  0  0  0  0  0  0
   22.4717    0.8387    6.7087 H   0  0  0  0  0  0  0  0  0  0  0  0
  1 12  1  0
  1 16  1  0
  2  9  1  0
  2 18  2  0
  2 19  1  0
  3 19  1  0
  3 20  2  0
  4  7  2  0
  4 20  1  0
  4 21  1  0
  5 22  1  0
  5 23  1  0
  5 26  2  0
  6 23  1  0
  6 24  1  0
  7 26  1  0
  8  9  2  0
  9 10  1  0
 10 11  2  0
 11 12  1  0
 11 17  1  0
 12 13  1  0
 13 14  1  0
 14 15  1  0
 15 16  1  0
 17 18  1  0
 18 20  1  0
 21 22  2  0
 24 25  1  0
 25 26  1  0
  1 27  1  0
  1 28  1  0
  3 29  1  0
  6 30  1  0
  6 31  1  0
  7 32  1  0
 10 33  1  0
 13 34  1  0
 13 35  1  0
 14 36  1  0
 14 37  1  0
 16 38  1  0
 16 39  1  0
 21 40  1  0
 22 41  1  0
 24 42  1  0
 24 43  1  0
M  END
>  <filename_input>  (3) 
7USH_82V_docked.sdf

>  <pdb_id>  (3) 
7USH_82V

>  <pose_rank>  (3) 
2

>  <num_atoms_heavy>  (3) 
26

>  <num_torsions>  (3) 
2

>  <pose>  (3) 
[15.767084843022023, -5.612102891241372, 6.669895722387168, -0.10470748222915137, 0.015231128562940371, 0.047335886748286635, -5.783945500754936, -2.5092382549100143]

>  <energy>  (3) 
-1372.1273895927889

>  <inter_energy>  (3) 
-1419.8478843149715

>  <intra_energy>  (3) 
15.693181548489019

>  <rmsd>  (3) 
1.17178

>  <sdf_rank>  (3) 
0

$$$$

     RDKit          3D

 43 47  0  0  0  0  0  0  0  0999 V2000
   17.1478   -8.3188   10.7055 C   0  0  0  0  0  0  0  0  0  0  0  0
   15.7391   -5.6347    6.6637 C   0  0  0  0  0  0  0  0  0  0  0  0
   16.5556   -3.4007    6.1115 C   0  0  0  0  0  0  0  0  0  0  0  0
   18.6589   -3.4240    7.5220 C   0  0  0  0  0  0  0  0  0  0  0  0
   21.0494   -2.2094    8.5813 C   0  0  0  0  0  0  0  0  0  0  0  0
   22.5250   -1.8919   10.4118 C   0  0  0  0  0  0  0  0  0  0  0  0
   19.2761   -3.8793    8.6952 C   0  0  0  0  0  0  0  0  0  0  0  0
   14.0899   -7.2498    6.2537 O   0  0  0  0  0  0  0  0  0  0  0  0
   15.1225   -6.9031    6.8584 C   0  0  0  0  0  0  0  0  0  0  0  0
   15.7900   -7.7928    7.7856 C   0  0  0  0  0  0  0  0  0  0  0  0
   16.9741   -7.4591    8.3057 C   0  0  0  0  0  0  0  0  0  0  0  0
   17.6653   -8.1448    9.3392 N   0  0  0  0  0  0  0  0  0  0  0  0
   19.0368   -8.6512    9.2765 C   0  0  0  0  0  0  0  0  0  0  0  0
   19.9218   -7.8829   10.2687 C   0  0  0  0  0  0  0  0  0  0  0  0
   19.3743   -7.8857   11.5857 O   0  0  0  0  0  0  0  0  0  0  0  0
   18.0008   -7.5104   11.6599 C   0  0  0  0  0  0  0  0  0  0  0  0
   17.5016   -6.2165    8.1337 O   0  0  0  0  0  0  0  0  0  0  0  0
   16.9009   -5.3222    7.2879 C   0  0  0  0  0  0  0  0  0  0  0  0
   15.1989   -4.3635    5.6667 S   0  0  0  0  0  0  0  0  0  0  0  0
   17.4197   -3.9843    6.9948 C   0  0  0  0  0  0  0  0  0  0  0  0
   19.2881   -2.3042    6.9189 C   0  0  0  0  0  0  0  0  0  0  0  0
   20.4604   -1.7152    7.4160 C   0  0  0  0  0  0  0  0  0  0  0  0
   22.1938   -1.6173    9.0553 O   0  0  0  0  0  0  0  0  0  0  0  0
   22.2900   -3.3516   10.7728 C   0  0  0  0  0  0  0  0  0  0  0  0
   21.0023   -3.8194   10.3570 O   0  0  0  0  0  0  0  0  0  0  0  0
   20.4531   -3.3020    9.2243 C   0  0  0  0  0  0  0  0  0  0  0  0
   16.1064   -7.9678   10.7533 H   0  0  0  0  0  0  0  0  0  0  0  0
   17.1824   -9.3823   10.9843 H   0  0  0  0  0  0  0  0  0  0  0  0
   16.7154   -2.3880    5.7130 H   0  0  0  0  0  0  0  0  0  0  0  0
   23.5865   -1.6528   10.5734 H   0  0  0  0  0  0  0  0  0  0  0  0
   21.8760   -1.2755   11.0511 H   0  0  0  0  0  0  0  0  0  0  0  0
   18.8228   -4.7269    9.2300 H   0  0  0  0  0  0  0  0  0  0  0  0
   15.3197   -8.7477    8.0628 H   0  0  0  0  0  0  0  0  0  0  0  0
   19.0432   -9.7206    9.5340 H   0  0  0  0  0  0  0  0  0  0  0  0
   19.4286   -8.5123    8.2581 H   0  0  0  0  0  0  0  0  0  0  0  0
   20.9157   -8.3534   10.2962 H   0  0  0  0  0  0  0  0  0  0  0  0
   19.9854   -6.8385    9.9293 H   0  0  0  0  0  0  0  0  0  0  0  0
   17.9081   -6.4443   11.4054 H   0  0  0  0  0  0  0  0  0  0  0  0
   17.6471   -7.7032   12.6836 H   0  0  0  0  0  0  0  0  0  0  0  0
   18.8328   -1.8754    6.0139 H   0  0  0  0  0  0  0  0  0  0  0  0
   20.9153   -0.8642    6.8878 H   0  0  0  0  0  0  0  0  0  0  0  0
   23.0622   -3.9643   10.2847 H   0  0  0  0  0  0  0  0  0  0  0  0
   22.3384   -3.4366   11.8684 H   0  0  0  0  0  0  0  0  0  0  0  0
  1 12  1  0
  1 16  1  0
  2  9  1  0
  2 18  2  0
  2 19  1  0
  3 19  1  0
  3 20  2  0
  4  7  2  0
  4 20  1  0
  4 21  1  0
  5 22  1  0
  5 23  1  0
  5 26  2  0
  6 23  1  0
  6 24  1  0
  7 26  1  0
  8  9  2  0
  9 10  1  0
 10 11  2  0
 11 12  1  0
 11 17  1  0
 12 13  1  0
 13 14  1  0
 14 15  1  0
 15 16  1  0
 17 18  1  0
 18 20  1  0
 21 22  2  0
 24 25  1  0
 25 26  1  0
  1 27  1  0
  1 28  1  0
  3 29  1  0
  6 30  1  0
  6 31  1  0
  7 32  1  0
 10 33  1  0
 13 34  1  0
 13 35  1  0
 14 36  1  0
 14 37  1  0
 16 38  1  0
 16 39  1  0
 21 40  1  0
 22 41  1  0
 24 42  1  0
 24 43  1  0
M  END
>  <filename_input>  (4) 
7USH_82V_docked.sdf

>  <pdb_id>  (4) 
7USH_82V

>  <pose_rank>  (4) 
3

>  <num_atoms_heavy>  (4) 
26

>  <num_torsions>  (4) 
2

>  <pose>  (4) 
[15.739131208450285, -5.634659199859345, 6.663743795310413, 5.775156547289907, -0.7598888066611129, -2.139540521037354, -2.8659383891708554, -1.1981111755594895]

>  <energy>  (4) 
-1287.150969683671

>  <inter_energy>  (4) 
-1313.376739183318

>  <intra_energy>  (4) 
11.2467271573304

>  <rmsd>  (4) 
1.77718

>  <sdf_rank>  (4) 
0

$$$$

     RDKit          3D

 43 47  0  0  0  0  0  0  0  0999 V2000
   18.1663   -9.2956    9.0416 C   0  0  0  0  0  0  0  0  0  0  0  0
   15.3625   -5.5438    6.7103 C   0  0  0  0  0  0  0  0  0  0  0  0
   16.1666   -3.2873    6.2373 C   0  0  0  0  0  0  0  0  0  0  0  0
   18.2684   -3.3475    7.6490 C   0  0  0  0  0  0  0  0  0  0  0  0
   20.7485   -2.3781    8.7540 C   0  0  0  0  0  0  0  0  0  0  0  0
   22.9355   -1.5303    8.3976 C   0  0  0  0  0  0  0  0  0  0  0  0
   19.1943   -2.6182    6.8904 C   0  0  0  0  0  0  0  0  0  0  0  0
   13.7232   -7.1532    6.2421 O   0  0  0  0  0  0  0  0  0  0  0  0
   14.7530   -6.8218    6.8599 C   0  0  0  0  0  0  0  0  0  0  0  0
   15.4246   -7.7393    7.7564 C   0  0  0  0  0  0  0  0  0  0  0  0
   16.6062   -7.4172    8.2894 C   0  0  0  0  0  0  0  0  0  0  0  0
   17.3002   -8.1345    9.2994 N   0  0  0  0  0  0  0  0  0  0  0  0
   17.1619   -7.9493   10.7443 C   0  0  0  0  0  0  0  0  0  0  0  0
   16.5455   -9.2068   11.3742 C   0  0  0  0  0  0  0  0  0  0  0  0
   17.2613  -10.3880   11.0183 O   0  0  0  0  0  0  0  0  0  0  0  0
   17.5147  -10.5325    9.6226 C   0  0  0  0  0  0  0  0  0  0  0  0
   17.1267   -6.1663    8.1616 O   0  0  0  0  0  0  0  0  0  0  0  0
   16.5217   -5.2466    7.3465 C   0  0  0  0  0  0  0  0  0  0  0  0
   14.8160   -4.2419    5.7574 S   0  0  0  0  0  0  0  0  0  0  0  0
   17.0330   -3.8963    7.1009 C   0  0  0  0  0  0  0  0  0  0  0  0
   18.6640   -3.5923    8.9896 C   0  0  0  0  0  0  0  0  0  0  0  0
   19.8604   -3.1119    9.5428 C   0  0  0  0  0  0  0  0  0  0  0  0
   21.9165   -1.9199    9.3114 O   0  0  0  0  0  0  0  0  0  0  0  0
   22.3746   -0.7581    7.2122 C   0  0  0  0  0  0  0  0  0  0  0  0
   21.2449   -1.4075    6.6188 O   0  0  0  0  0  0  0  0  0  0  0  0
   20.4108   -2.1275    7.4176 C   0  0  0  0  0  0  0  0  0  0  0  0
   18.2995   -9.4233    7.9572 H   0  0  0  0  0  0  0  0  0  0  0  0
   19.1495   -9.1381    9.5090 H   0  0  0  0  0  0  0  0  0  0  0  0
   16.3209   -2.2604    5.8745 H   0  0  0  0  0  0  0  0  0  0  0  0
   23.6607   -0.8933    8.9251 H   0  0  0  0  0  0  0  0  0  0  0  0
   23.4133   -2.4432    8.0125 H   0  0  0  0  0  0  0  0  0  0  0  0
   18.9632   -2.4180    5.8337 H   0  0  0  0  0  0  0  0  0  0  0  0
   14.9596   -8.7061    7.9997 H   0  0  0  0  0  0  0  0  0  0  0  0
   18.1531   -7.7683   11.1857 H   0  0  0  0  0  0  0  0  0  0  0  0
   16.5062   -7.0877   10.9385 H   0  0  0  0  0  0  0  0  0  0  0  0
   16.5597   -9.0992   12.4688 H   0  0  0  0  0  0  0  0  0  0  0  0
   15.5168   -9.3063   10.9976 H   0  0  0  0  0  0  0  0  0  0  0  0
   16.5613  -10.7105    9.1037 H   0  0  0  0  0  0  0  0  0  0  0  0
   18.2024  -11.3798    9.4846 H   0  0  0  0  0  0  0  0  0  0  0  0
   17.9975   -4.1901    9.6286 H   0  0  0  0  0  0  0  0  0  0  0  0
   20.0988   -3.3133   10.5976 H   0  0  0  0  0  0  0  0  0  0  0  0
   22.0671    0.2407    7.5556 H   0  0  0  0  0  0  0  0  0  0  0  0
   23.1644   -0.6982    6.4488 H   0  0  0  0  0  0  0  0  0  0  0  0
  1 12  1  0
  1 16  1  0
  2  9  1  0
  2 18  2  0
  2 19  1  0
  3 19  1  0
  3 20  2  0
  4  7  2  0
  4 20  1  0
  4 21  1  0
  5 22  1  0
  5 23  1  0
  5 26  2  0
  6 23  1  0
  6 24  1  0
  7 26  1  0
  8  9  2  0
  9 10  1  0
 10 11  2  0
 11 12  1  0
 11 17  1  0
 12 13  1  0
 13 14  1  0
 14 15  1  0
 15 16  1  0
 17 18  1  0
 18 20  1  0
 21 22  2  0
 24 25  1  0
 25 26  1  0
  1 27  1  0
  1 28  1  0
  3 29  1  0
  6 30  1  0
  6 31  1  0
  7 32  1  0
 10 33  1  0
 13 34  1  0
 13 35  1  0
 14 36  1  0
 14 37  1  0
 16 38  1  0
 16 39  1  0
 21 40  1  0
 22 41  1  0
 24 42  1  0
 24 43  1  0
M  END
>  <filename_input>  (5) 
7USH_82V_docked.sdf

>  <pdb_id>  (5) 
7USH_82V

>  <pose_rank>  (5) 
4

>  <num_atoms_heavy>  (5) 
26

>  <num_torsions>  (5) 
2

>  <pose>  (5) 
[15.36253618048026, -5.543838341400792, 6.710335036154266, 4.647709957276863, -0.9392033672836073, -4.0452680521256, -0.11633031354575016, 1.3419024088223106]

>  <energy>  (5) 
-1181.617902213348

>  <inter_energy>  (5) 
-1233.9855737625842

>  <intra_energy>  (5) 
7.191521599622182

>  <rmsd>  (5) 
0.935109

>  <sdf_rank>  (5) 
0

$$$$

     RDKit          3D

 43 47  0  0  0  0  0  0  0  0999 V2000
   25.1348  -12.7455   15.5711 C   0  0  0  0  0  0  0  0  0  0  0  0
   21.3119  -11.8552   12.2062 C   0  0  0  0  0  0  0  0  0  0  0  0
   20.8791   -9.5338   11.5847 C   0  0  0  0  0  0  0  0  0  0  0  0
   22.3070   -8.4130   13.3506 C   0  0  0  0  0  0  0  0  0  0  0  0
   23.3779   -6.1446   14.7718 C   0  0  0  0  0  0  0  0  0  0  0  0
   24.8055   -5.3022   16.4691 C   0  0  0  0  0  0  0  0  0  0  0  0
   23.4672   -8.4962   14.1327 C   0  0  0  0  0  0  0  0  0  0  0  0
   20.9330  -14.1061   11.6707 O   0  0  0  0  0  0  0  0  0  0  0  0
   21.4581  -13.2560   12.4148 C   0  0  0  0  0  0  0  0  0  0  0  0
   22.2898  -13.6429   13.5352 C   0  0  0  0  0  0  0  0  0  0  0  0
   22.9628  -12.7187   14.2257 C   0  0  0  0  0  0  0  0  0  0  0  0
   23.6809  -12.9241   15.4333 N   0  0  0  0  0  0  0  0  0  0  0  0
   23.1449  -13.4800   16.6763 C   0  0  0  0  0  0  0  0  0  0  0  0
   23.8086  -14.8330   16.9710 C   0  0  0  0  0  0  0  0  0  0  0  0
   25.2321  -14.7443   16.9550 O   0  0  0  0  0  0  0  0  0  0  0  0
   25.7751  -14.0970   15.8065 C   0  0  0  0  0  0  0  0  0  0  0  0
   22.7535  -11.3890   14.0256 O   0  0  0  0  0  0  0  0  0  0  0  0
   21.9565  -10.9625   12.9964 C   0  0  0  0  0  0  0  0  0  0  0  0
   20.3913  -11.0789   11.0012 S   0  0  0  0  0  0  0  0  0  0  0  0
   21.7136   -9.5564   12.6665 C   0  0  0  0  0  0  0  0  0  0  0  0
   21.6912   -7.1345   13.3400 C   0  0  0  0  0  0  0  0  0  0  0  0
   22.2118   -6.0198   14.0142 C   0  0  0  0  0  0  0  0  0  0  0  0
   23.8700   -5.0439   15.4283 O   0  0  0  0  0  0  0  0  0  0  0  0
   25.7968   -6.3923   16.0884 C   0  0  0  0  0  0  0  0  0  0  0  0
   25.1557   -7.5531   15.5483 O   0  0  0  0  0  0  0  0  0  0  0  0
   24.0115   -7.3929   14.8290 C   0  0  0  0  0  0  0  0  0  0  0  0
   25.5408  -12.2999   14.6510 H   0  0  0  0  0  0  0  0  0  0  0  0
   25.3496  -12.0787   16.4192 H   0  0  0  0  0  0  0  0  0  0  0  0
   20.5427   -8.5954   11.1197 H   0  0  0  0  0  0  0  0  0  0  0  0
   25.3605   -4.3773   16.6851 H   0  0  0  0  0  0  0  0  0  0  0  0
   24.2454   -5.6458   17.3513 H   0  0  0  0  0  0  0  0  0  0  0  0
   23.9789   -9.4670   14.2082 H   0  0  0  0  0  0  0  0  0  0  0  0
   22.3676  -14.7028   13.8190 H   0  0  0  0  0  0  0  0  0  0  0  0
   23.3488  -12.7853   17.5045 H   0  0  0  0  0  0  0  0  0  0  0  0
   22.0594  -13.6236   16.5711 H   0  0  0  0  0  0  0  0  0  0  0  0
   23.4854  -15.1784   17.9640 H   0  0  0  0  0  0  0  0  0  0  0  0
   23.5033  -15.5396   16.1852 H   0  0  0  0  0  0  0  0  0  0  0  0
   25.6029  -14.7317   14.9247 H   0  0  0  0  0  0  0  0  0  0  0  0
   26.8509  -13.9423   15.9763 H   0  0  0  0  0  0  0  0  0  0  0  0
   20.7565   -7.0111   12.7734 H   0  0  0  0  0  0  0  0  0  0  0  0
   21.7015   -5.0477   13.9460 H   0  0  0  0  0  0  0  0  0  0  0  0
   26.4909   -5.9904   15.3355 H   0  0  0  0  0  0  0  0  0  0  0  0
   26.3249   -6.6979   17.0036 H   0  0  0  0  0  0  0  0  0  0  0  0
  1 12  1  0
  1 16  1  0
  2  9  1  0
  2 18  2  0
  2 19  1  0
  3 19  1  0
  3 20  2  0
  4  7  2  0
  4 20  1  0
  4 21  1  0
  5 22  1  0
  5 23  1  0
  5 26  2  0
  6 23  1  0
  6 24  1  0
  7 26  1  0
  8  9  2  0
  9 10  1  0
 10 11  2  0
 11 12  1  0
 11 17  1  0
 12 13  1  0
 13 14  1  0
 14 15  1  0
 15 16  1  0
 17 18  1  0
 18 20  1  0
 21 22  2  0
 24 25  1  0
 25 26  1  0
  1 27  1  0
  1 28  1  0
  3 29  1  0
  6 30  1  0
  6 31  1  0
  7 32  1  0
 10 33  1  0
 13 34  1  0
 13 35  1  0
 14 36  1  0
 14 37  1  0
 16 38  1  0
 16 39  1  0
 21 40  1  0
 22 41  1  0
 24 42  1  0
 24 43  1  0
M  END
>  <filename_input>  (6) 
7USH_82V_docked.sdf

>  <pdb_id>  (6) 
7USH_82V

>  <pose_rank>  (6) 
5

>  <num_atoms_heavy>  (6) 
26

>  <num_torsions>  (6) 
2

>  <pose>  (6) 
[21.311912409660017, -11.855163325037058, 12.206155338548076, 3.4154789036998836, 6.143924712865265, -16.782755577800334, -8.413131196641888, 1.9144039811131068]

>  <energy>  (6) 
-80.72677193248869

>  <inter_energy>  (6) 
-105.44300295470698

>  <intra_energy>  (6) 
11.477499725888563

>  <rmsd>  (6) 
9.4788

>  <sdf_rank>  (6) 
0

$$$$

     RDKit          3D

 43 47  0  0  0  0  0  0  0  0999 V2000
   17.2655   -9.7351    8.8637 C   0  0  0  0  0  0  0  0  0  0  0  0
   15.4468   -5.5222    6.3910 C   0  0  0  0  0  0  0  0  0  0  0  0
   16.2761   -3.2649    5.9678 C   0  0  0  0  0  0  0  0  0  0  0  0
   18.5869   -3.5335    6.9689 C   0  0  0  0  0  0  0  0  0  0  0  0
   21.2750   -2.7627    7.6701 C   0  0  0  0  0  0  0  0  0  0  0  0
   23.3530   -1.8225    7.0165 C   0  0  0  0  0  0  0  0  0  0  0  0
   19.3434   -2.6505    6.1860 C   0  0  0  0  0  0  0  0  0  0  0  0
   13.6661   -7.0182    6.0947 O   0  0  0  0  0  0  0  0  0  0  0  0
   14.8049   -6.7840    6.5423 C   0  0  0  0  0  0  0  0  0  0  0  0
   15.5730   -7.8040    7.2252 C   0  0  0  0  0  0  0  0  0  0  0  0
   16.8455   -7.5772    7.5617 C   0  0  0  0  0  0  0  0  0  0  0  0
   17.6664   -8.4090    8.3681 N   0  0  0  0  0  0  0  0  0  0  0  0
   18.9546   -8.0444    8.9587 C   0  0  0  0  0  0  0  0  0  0  0  0
   18.8358   -8.0126   10.4894 C   0  0  0  0  0  0  0  0  0  0  0  0
   18.2955   -9.2262   11.0084 O   0  0  0  0  0  0  0  0  0  0  0  0
   17.1011   -9.6680   10.3672 C   0  0  0  0  0  0  0  0  0  0  0  0
   17.4023   -6.3409    7.4454 O   0  0  0  0  0  0  0  0  0  0  0  0
   16.7142   -5.3286    6.8306 C   0  0  0  0  0  0  0  0  0  0  0  0
   14.8126   -4.1193    5.6619 S   0  0  0  0  0  0  0  0  0  0  0  0
   17.2466   -3.9824    6.6087 C   0  0  0  0  0  0  0  0  0  0  0  0
   19.2604   -4.0357    8.1124 C   0  0  0  0  0  0  0  0  0  0  0  0
   20.5620   -3.6555    8.4724 C   0  0  0  0  0  0  0  0  0  0  0  0
   22.5492   -2.4056    8.0359 O   0  0  0  0  0  0  0  0  0  0  0  0
   22.5670   -0.8377    6.1629 C   0  0  0  0  0  0  0  0  0  0  0  0
   21.3170   -1.3743    5.7161 O   0  0  0  0  0  0  0  0  0  0  0  0
   20.6590   -2.2547    6.5188 C   0  0  0  0  0  0  0  0  0  0  0  0
   16.3120  -10.0294    8.4008 H   0  0  0  0  0  0  0  0  0  0  0  0
   18.0351  -10.4775    8.6058 H   0  0  0  0  0  0  0  0  0  0  0  0
   16.4196   -2.2161    5.6687 H   0  0  0  0  0  0  0  0  0  0  0  0
   24.1937   -1.2920    7.4873 H   0  0  0  0  0  0  0  0  0  0  0  0
   23.7090   -2.6310    6.3610 H   0  0  0  0  0  0  0  0  0  0  0  0
   18.8914   -2.2461    5.2683 H   0  0  0  0  0  0  0  0  0  0  0  0
   15.1064   -8.7701    7.4680 H   0  0  0  0  0  0  0  0  0  0  0  0
   19.7129   -8.7858    8.6668 H   0  0  0  0  0  0  0  0  0  0  0  0
   19.2507   -7.0486    8.5971 H   0  0  0  0  0  0  0  0  0  0  0  0
   19.8358   -7.8562   10.9201 H   0  0  0  0  0  0  0  0  0  0  0  0
   18.1535   -7.1935   10.7604 H   0  0  0  0  0  0  0  0  0  0  0  0
   16.2878   -8.9670   10.6061 H   0  0  0  0  0  0  0  0  0  0  0  0
   16.8694  -10.6794   10.7326 H   0  0  0  0  0  0  0  0  0  0  0  0
   18.7343   -4.7613    8.7502 H   0  0  0  0  0  0  0  0  0  0  0  0
   21.0206   -4.0606    9.3865 H   0  0  0  0  0  0  0  0  0  0  0  0
   22.3701    0.0661    6.7582 H   0  0  0  0  0  0  0  0  0  0  0  0
   23.1711   -0.6119    5.2718 H   0  0  0  0  0  0  0  0  0  0  0  0
  1 12  1  0
  1 16  1  0
  2  9  1  0
  2 18  2  0
  2 19  1  0
  3 19  1  0
  3 20  2  0
  4  7  2  0
  4 20  1  0
  4 21  1  0
  5 22  1  0
  5 23  1  0
  5 26  2  0
  6 23  1  0
  6 24  1  0
  7 26  1  0
  8  9  2  0
  9 10  1  0
 10 11  2  0
 11 12  1  0
 11 17  1  0
 12 13  1  0
 13 14  1  0
 14 15  1  0
 15 16  1  0
 17 18  1  0
 18 20  1  0
 21 22  2  0
 24 25  1  0
 25 26  1  0
  1 27  1  0
  1 28  1  0
  3 29  1  0
  6 30  1  0
  6 31  1  0
  7 32  1  0
 10 33  1  0
 13 34  1  0
 13 35  1  0
 14 36  1  0
 14 37  1  0
 16 38  1  0
 16 39  1  0
 21 40  1  0
 22 41  1  0
 24 42  1  0
 24 43  1  0
M  END
>  <filename_input>  (7) 
7USH_82V_docked.sdf

>  <pdb_id>  (7) 
7USH_82V

>  <pose_rank>  (7) 
6

>  <num_atoms_heavy>  (7) 
26

>  <num_torsions>  (7) 
2

>  <pose>  (7) 
[15.446845916628057, -5.522204283547959, 6.391007348102454, -1.6496489214015937, -5.852961940629181, 0.3259110795250153, 0.01514993236784068, -0.014609284074716164]

>  <energy>  (7) 
-1179.752994736722

>  <inter_energy>  (7) 
-1184.253433709959

>  <intra_energy>  (7) 
9.576540674608596

>  <rmsd>  (7) 
0.959663

>  <sdf_rank>  (7) 
0

$$$$

     RDKit          3D

 43 47  0  0  0  0  0  0  0  0999 V2000
   23.3136   -4.8043   11.6644 C   0  0  0  0  0  0  0  0  0  0  0  0
   21.9399   -1.6150    7.8453 C   0  0  0  0  0  0  0  0  0  0  0  0
   20.1259   -1.6337    6.2110 C   0  0  0  0  0  0  0  0  0  0  0  0
   18.7197   -3.4657    7.2502 C   0  0  0  0  0  0  0  0  0  0  0  0
   16.3850   -5.1356    7.5191 C   0  0  0  0  0  0  0  0  0  0  0  0
   14.2312   -5.7544    6.7398 C   0  0  0  0  0  0  0  0  0  0  0  0
   17.7863   -3.6237    6.2166 C   0  0  0  0  0  0  0  0  0  0  0  0
   23.9369   -0.5821    8.5101 O   0  0  0  0  0  0  0  0  0  0  0  0
   23.0684   -1.4552    8.6986 C   0  0  0  0  0  0  0  0  0  0  0  0
   23.1340   -2.3541    9.8319 C   0  0  0  0  0  0  0  0  0  0  0  0
   22.1174   -3.1786   10.0977 C   0  0  0  0  0  0  0  0  0  0  0  0
   22.1046   -4.2180   11.0650 N   0  0  0  0  0  0  0  0  0  0  0  0
   20.9327   -4.9727   11.5106 C   0  0  0  0  0  0  0  0  0  0  0  0
   21.0649   -6.4413   11.0822 C   0  0  0  0  0  0  0  0  0  0  0  0
   22.3024   -7.0114   11.5040 O   0  0  0  0  0  0  0  0  0  0  0  0
   23.4546   -6.2339   11.1865 C   0  0  0  0  0  0  0  0  0  0  0  0
   21.0829   -3.3356    9.2277 O   0  0  0  0  0  0  0  0  0  0  0  0
   20.9805   -2.5309    8.1240 C   0  0  0  0  0  0  0  0  0  0  0  0
   21.5818   -0.7400    6.4283 S   0  0  0  0  0  0  0  0  0  0  0  0
   19.8790   -2.5850    7.1603 C   0  0  0  0  0  0  0  0  0  0  0  0
   18.4067   -4.1687    8.4425 C   0  0  0  0  0  0  0  0  0  0  0  0
   17.2826   -4.9969    8.5795 C   0  0  0  0  0  0  0  0  0  0  0  0
   15.2881   -5.9469    7.6731 O   0  0  0  0  0  0  0  0  0  0  0  0
   14.7505   -5.5391    5.3255 C   0  0  0  0  0  0  0  0  0  0  0  0
   15.7955   -4.5620    5.2672 O   0  0  0  0  0  0  0  0  0  0  0  0
   16.6410   -4.4449    6.3274 C   0  0  0  0  0  0  0  0  0  0  0  0
   24.1963   -4.2238   11.3580 H   0  0  0  0  0  0  0  0  0  0  0  0
   23.2328   -4.7844   12.7613 H   0  0  0  0  0  0  0  0  0  0  0  0
   19.4432   -1.4518    5.3678 H   0  0  0  0  0  0  0  0  0  0  0  0
   13.5836   -6.6436    6.7485 H   0  0  0  0  0  0  0  0  0  0  0  0
   13.6750   -4.8535    7.0379 H   0  0  0  0  0  0  0  0  0  0  0  0
   17.9530   -3.0825    5.2736 H   0  0  0  0  0  0  0  0  0  0  0  0
   24.0251   -2.3579   10.4768 H   0  0  0  0  0  0  0  0  0  0  0  0
   20.8582   -4.9175   12.6067 H   0  0  0  0  0  0  0  0  0  0  0  0
   20.0290   -4.5418   11.0550 H   0  0  0  0  0  0  0  0  0  0  0  0
   20.2391   -7.0165   11.5264 H   0  0  0  0  0  0  0  0  0  0  0  0
   21.0302   -6.4793    9.9834 H   0  0  0  0  0  0  0  0  0  0  0  0
   23.5946   -6.2329   10.0954 H   0  0  0  0  0  0  0  0  0  0  0  0
   24.3214   -6.6817   11.6944 H   0  0  0  0  0  0  0  0  0  0  0  0
   19.0809   -4.0586    9.3046 H   0  0  0  0  0  0  0  0  0  0  0  0
   17.1084   -5.5367    9.5220 H   0  0  0  0  0  0  0  0  0  0  0  0
   15.1393   -6.4944    4.9433 H   0  0  0  0  0  0  0  0  0  0  0  0
   13.9134   -5.1694    4.7151 H   0  0  0  0  0  0  0  0  0  0  0  0
  1 12  1  0
  1 16  1  0
  2  9  1  0
  2 18  2  0
  2 19  1  0
  3 19  1  0
  3 20  2  0
  4  7  2  0
  4 20  1  0
  4 21  1  0
  5 22  1  0
  5 23  1  0
  5 26  2  0
  6 23  1  0
  6 24  1  0
  7 26  1  0
  8  9  2  0
  9 10  1  0
 10 11  2  0
 11 12  1  0
 11 17  1  0
 12 13  1  0
 13 14  1  0
 14 15  1  0
 15 16  1  0
 17 18  1  0
 18 20  1  0
 21 22  2  0
 24 25  1  0
 25 26  1  0
  1 27  1  0
  1 28  1  0
  3 29  1  0
  6 30  1  0
  6 31  1  0
  7 32  1  0
 10 33  1  0
 13 34  1  0
 13 35  1  0
 14 36  1  0
 14 37  1  0
 16 38  1  0
 16 39  1  0
 21 40  1  0
 22 41  1  0
 24 42  1  0
 24 43  1  0
M  END
>  <filename_input>  (8) 
7USH_82V_docked.sdf

>  <pdb_id>  (8) 
7USH_82V

>  <pose_rank>  (8) 
7

>  <num_atoms_heavy>  (8) 
26

>  <num_torsions>  (8) 
2

>  <pose>  (8) 
[21.939869180839665, -1.615021539102534, 7.845346229358067, -0.7941030698558659, 2.2147742173388134, -2.2944171109312035, -5.451099530064522, -0.43474653470897096]

>  <energy>  (8) 
-651.7831761610281

>  <inter_energy>  (8) 
-670.4616709089888

>  <intra_energy>  (8) 
14.251735199030836

>  <rmsd>  (8) 
6.61131

>  <sdf_rank>  (8) 
0

$$$$

     RDKit          3D

 43 47  0  0  0  0  0  0  0  0999 V2000
   16.0963   -7.4876    8.6254 C   0  0  0  0  0  0  0  0  0  0  0  0
   19.7302   -5.9153   11.8995 C   0  0  0  0  0  0  0  0  0  0  0  0
   21.5716   -4.3295   11.6608 C   0  0  0  0  0  0  0  0  0  0  0  0
   20.8038   -3.1999    9.5281 C   0  0  0  0  0  0  0  0  0  0  0  0
   20.9192   -1.2090    7.4462 C   0  0  0  0  0  0  0  0  0  0  0  0
   22.0976    0.5604    6.3927 C   0  0  0  0  0  0  0  0  0  0  0  0
   22.0001   -2.5721    9.1549 C   0  0  0  0  0  0  0  0  0  0  0  0
   18.7771   -7.5890   13.2362 O   0  0  0  0  0  0  0  0  0  0  0  0
   18.7394   -6.8910   12.2050 C   0  0  0  0  0  0  0  0  0  0  0  0
   17.6530   -7.0050   11.2545 C   0  0  0  0  0  0  0  0  0  0  0  0
   17.5542   -6.1447   10.2376 C   0  0  0  0  0  0  0  0  0  0  0  0
   16.6489   -6.2277    9.1469 N   0  0  0  0  0  0  0  0  0  0  0  0
   16.2367   -5.1255    8.2771 C   0  0  0  0  0  0  0  0  0  0  0  0
   16.7511   -5.3671    6.8505 C   0  0  0  0  0  0  0  0  0  0  0  0
   16.3751   -6.6516    6.3576 O   0  0  0  0  0  0  0  0  0  0  0  0
   16.6579   -7.7342    7.2413 C   0  0  0  0  0  0  0  0  0  0  0  0
   18.5501   -5.2619    9.9536 O   0  0  0  0  0  0  0  0  0  0  0  0
   19.6163   -5.1270   10.8029 C   0  0  0  0  0  0  0  0  0  0  0  0
   21.1346   -5.5518   12.7925 S   0  0  0  0  0  0  0  0  0  0  0  0
   20.7081   -4.1692   10.6140 C   0  0  0  0  0  0  0  0  0  0  0  0
   19.6569   -2.7558    8.8203 C   0  0  0  0  0  0  0  0  0  0  0  0
   19.7033   -1.7998    7.7946 C   0  0  0  0  0  0  0  0  0  0  0  0
   20.9445   -0.2721    6.4429 O   0  0  0  0  0  0  0  0  0  0  0  0
   23.3774   -0.2203    6.6548 C   0  0  0  0  0  0  0  0  0  0  0  0
   23.2833   -1.0555    7.8139 O   0  0  0  0  0  0  0  0  0  0  0  0
   22.0772   -1.6006    8.1309 C   0  0  0  0  0  0  0  0  0  0  0  0
   16.3769   -8.3173    9.2909 H   0  0  0  0  0  0  0  0  0  0  0  0
   14.9994   -7.4211    8.5760 H   0  0  0  0  0  0  0  0  0  0  0  0
   22.4812   -3.7211   11.7726 H   0  0  0  0  0  0  0  0  0  0  0  0
   22.1603    1.0202    5.3954 H   0  0  0  0  0  0  0  0  0  0  0  0
   21.9992    1.3243    7.1781 H   0  0  0  0  0  0  0  0  0  0  0  0
   22.9237   -2.8487    9.6845 H   0  0  0  0  0  0  0  0  0  0  0  0
   16.9057   -7.8038   11.3705 H   0  0  0  0  0  0  0  0  0  0  0  0
   15.1386   -5.0625    8.2633 H   0  0  0  0  0  0  0  0  0  0  0  0
   16.6577   -4.1842    8.6600 H   0  0  0  0  0  0  0  0  0  0  0  0
   16.3332   -4.5957    6.1869 H   0  0  0  0  0  0  0  0  0  0  0  0
   17.8498   -5.3198    6.8729 H   0  0  0  0  0  0  0  0  0  0  0  0
   17.7484   -7.8582    7.3158 H   0  0  0  0  0  0  0  0  0  0  0  0
   16.1852   -8.6408    6.8356 H   0  0  0  0  0  0  0  0  0  0  0  0
   18.6800   -3.1836    9.0901 H   0  0  0  0  0  0  0  0  0  0  0  0
   18.7819   -1.5160    7.2649 H   0  0  0  0  0  0  0  0  0  0  0  0
   23.5898   -0.8531    5.7805 H   0  0  0  0  0  0  0  0  0  0  0  0
   24.1824    0.5080    6.8325 H   0  0  0  0  0  0  0  0  0  0  0  0
  1 12  1  0
  1 16  1  0
  2  9  1  0
  2 18  2  0
  2 19  1  0
  3 19  1  0
  3 20  2  0
  4  7  2  0
  4 20  1  0
  4 21  1  0
  5 22  1  0
  5 23  1  0
  5 26  2  0
  6 23  1  0
  6 24  1  0
  7 26  1  0
  8  9  2  0
  9 10  1  0
 10 11  2  0
 11 12  1  0
 11 17  1  0
 12 13  1  0
 13 14  1  0
 14 15  1  0
 15 16  1  0
 17 18  1  0
 18 20  1  0
 21 22  2  0
 24 25  1  0
 25 26  1  0
  1 27  1  0
  1 28  1  0
  3 29  1  0
  6 30  1  0
  6 31  1  0
  7 32  1  0
 10 33  1  0
 13 34  1  0
 13 35  1  0
 14 36  1  0
 14 37  1  0
 16 38  1  0
 16 39  1  0
 21 40  1  0
 22 41  1  0
 24 42  1  0
 24 43  1  0
M  END
>  <filename_input>  (9) 
7USH_82V_docked.sdf

>  <pdb_id>  (9) 
7USH_82V

>  <pose_rank>  (9) 
8

>  <num_atoms_heavy>  (9) 
26

>  <num_torsions>  (9) 
2

>  <pose>  (9) 
[19.7302387059674, -5.915257821895215, 11.899467862239177, 1.6413319662673602, 2.2879276373738127, -0.4738574053138405, 0.9941859314124075, -0.6055739750363326]

>  <energy>  (9) 
-550.5109103896675

>  <inter_energy>  (9) 
-540.4852504937404

>  <intra_energy>  (9) 
12.111455203605129

>  <rmsd>  (9) 
4.57844

>  <sdf_rank>  (9) 
0

$$$$

     RDKit          3D

 43 47  0  0  0  0  0  0  0  0999 V2000
   25.9743   -2.4928    8.3714 C   0  0  0  0  0  0  0  0  0  0  0  0
   22.2628   -0.7545    5.3213 C   0  0  0  0  0  0  0  0  0  0  0  0
   19.9778   -1.5590    5.0154 C   0  0  0  0  0  0  0  0  0  0  0  0
   19.8004   -2.9571    7.1196 C   0  0  0  0  0  0  0  0  0  0  0  0
   18.4174   -4.5804    9.0597 C   0  0  0  0  0  0  0  0  0  0  0  0
   16.4833   -5.8140    9.6652 C   0  0  0  0  0  0  0  0  0  0  0  0
   18.6945   -3.7501    6.7837 C   0  0  0  0  0  0  0  0  0  0  0  0
   23.9615    0.6207    4.4726 O   0  0  0  0  0  0  0  0  0  0  0  0
   23.5660   -0.1814    5.3400 C   0  0  0  0  0  0  0  0  0  0  0  0
   24.4057   -0.5617    6.4567 C   0  0  0  0  0  0  0  0  0  0  0  0
   23.9095   -1.3017    7.4517 C   0  0  0  0  0  0  0  0  0  0  0  0
   24.6440   -1.8820    8.5194 N   0  0  0  0  0  0  0  0  0  0  0  0
   24.1608   -2.1065    9.8822 C   0  0  0  0  0  0  0  0  0  0  0  0
   24.0742   -3.6138   10.1627 C   0  0  0  0  0  0  0  0  0  0  0  0
   25.3018   -4.2815    9.8774 O   0  0  0  0  0  0  0  0  0  0  0  0
   25.8570   -3.9851    8.5981 C   0  0  0  0  0  0  0  0  0  0  0  0
   22.6762   -1.8708    7.3679 O   0  0  0  0  0  0  0  0  0  0  0  0
   21.8457   -1.5686    6.3214 C   0  0  0  0  0  0  0  0  0  0  0  0
   21.0508   -0.5309    4.1452 S   0  0  0  0  0  0  0  0  0  0  0  0
   20.4836   -2.0852    6.1706 C   0  0  0  0  0  0  0  0  0  0  0  0
   20.1623   -2.9972    8.4911 C   0  0  0  0  0  0  0  0  0  0  0  0
   19.5072   -3.7955    9.4408 C   0  0  0  0  0  0  0  0  0  0  0  0
   17.7859   -5.3518   10.0037 O   0  0  0  0  0  0  0  0  0  0  0  0
   16.3983   -6.2709    8.2160 C   0  0  0  0  0  0  0  0  0  0  0  0
   16.9582   -5.3177    7.3061 O   0  0  0  0  0  0  0  0  0  0  0  0
   18.0098   -4.5589    7.7194 C   0  0  0  0  0  0  0  0  0  0  0  0
   26.3574   -2.3023    7.3580 H   0  0  0  0  0  0  0  0  0  0  0  0
   26.6678   -2.0578    9.1061 H   0  0  0  0  0  0  0  0  0  0  0  0
   18.9577   -1.7767    4.6661 H   0  0  0  0  0  0  0  0  0  0  0  0
   16.2255   -6.6597   10.3197 H   0  0  0  0  0  0  0  0  0  0  0  0
   15.7810   -4.9781    9.7993 H   0  0  0  0  0  0  0  0  0  0  0  0
   18.3424   -3.7428    5.7416 H   0  0  0  0  0  0  0  0  0  0  0  0
   25.4571   -0.2396    6.4857 H   0  0  0  0  0  0  0  0  0  0  0  0
   24.8556   -1.6416   10.5971 H   0  0  0  0  0  0  0  0  0  0  0  0
   23.1618   -1.6592    9.9912 H   0  0  0  0  0  0  0  0  0  0  0  0
   23.8264   -3.7639   11.2238 H   0  0  0  0  0  0  0  0  0  0  0  0
   23.2972   -4.0370    9.5090 H   0  0  0  0  0  0  0  0  0  0  0  0
   25.2087   -4.4141    7.8198 H   0  0  0  0  0  0  0  0  0  0  0  0
   26.8667   -4.4195    8.5531 H   0  0  0  0  0  0  0  0  0  0  0  0
   21.0006   -2.3693    8.8273 H   0  0  0  0  0  0  0  0  0  0  0  0
   19.8521   -3.8029   10.4853 H   0  0  0  0  0  0  0  0  0  0  0  0
   16.9447   -7.2200    8.1128 H   0  0  0  0  0  0  0  0  0  0  0  0
   15.3337   -6.3872    7.9645 H   0  0  0  0  0  0  0  0  0  0  0  0
  1 12  1  0
  1 16  1  0
  2  9  1  0
  2 18  2  0
  2 19  1  0
  3 19  1  0
  3 20  2  0
  4  7  2  0
  4 20  1  0
  4 21  1  0
  5 22  1  0
  5 23  1  0
  5 26  2  0
  6 23  1  0
  6 24  1  0
  7 26  1  0
  8  9  2  0
  9 10  1  0
 10 11  2  0
 11 12  1  0
 11 17  1  0
 12 13  1  0
 13 14  1  0
 14 15  1  0
 15 16  1  0
 17 18  1  0
 18 20  1  0
 21 22  2  0
 24 25  1  0
 25 26  1  0
  1 27  1  0
  1 28  1  0
  3 29  1  0
  6 30  1  0
  6 31  1  0
  7 32  1  0
 10 33  1  0
 13 34  1  0
 13 35  1  0
 14 36  1  0
 14 37  1  0
 16 38  1  0
 16 39  1  0
 21 40  1  0
 22 41  1  0
 24 42  1  0
 24 43  1  0
M  END
>  <filename_input>  (10) 
7USH_82V_docked.sdf

>  <pdb_id>  (10) 
7USH_82V

>  <pose_rank>  (10) 
9

>  <num_atoms_heavy>  (10) 
26

>  <num_torsions>  (10) 
2

>  <pose>  (10) 
[22.262801249728142, -0.7545347957905814, 5.321261846753172, 1.2856112049815014, -1.285328187328014, 1.9790291478959618, 1.0184395604826084, 5.478703914279937]

>  <energy>  (10) 
-617.2298404813351

>  <inter_energy>  (10) 
-597.0255514708988

>  <intra_energy>  (10) 
11.739589081693033

>  <rmsd>  (10) 
7.5917

>  <sdf_rank>  (10) 
0

$$$$

     RDKit          3D

 43 47  0  0  0  0  0  0  0  0999 V2000
   23.3300   -4.0405   10.1892 C   0  0  0  0  0  0  0  0  0  0  0  0
   22.2040   -0.7082    6.5912 C   0  0  0  0  0  0  0  0  0  0  0  0
   19.9129   -1.1087    5.8477 C   0  0  0  0  0  0  0  0  0  0  0  0
   19.3947   -3.0995    7.3248 C   0  0  0  0  0  0  0  0  0  0  0  0
   17.7885   -5.2729    8.3291 C   0  0  0  0  0  0  0  0  0  0  0  0
   17.2099   -6.7062   10.1290 C   0  0  0  0  0  0  0  0  0  0  0  0
   19.2417   -3.3493    8.6956 C   0  0  0  0  0  0  0  0  0  0  0  0
   24.0870    0.6758    6.4027 O   0  0  0  0  0  0  0  0  0  0  0  0
   23.5368   -0.3209    6.9086 C   0  0  0  0  0  0  0  0  0  0  0  0
   24.2146   -1.1413    7.8906 C   0  0  0  0  0  0  0  0  0  0  0  0
   23.5549   -2.1113    8.5293 C   0  0  0  0  0  0  0  0  0  0  0  0
   24.1187   -3.0910    9.3885 N   0  0  0  0  0  0  0  0  0  0  0  0
   25.5332   -3.2265    9.7379 C   0  0  0  0  0  0  0  0  0  0  0  0
   25.7311   -2.9351   11.2325 C   0  0  0  0  0  0  0  0  0  0  0  0
   24.8659   -3.7218   12.0492 O   0  0  0  0  0  0  0  0  0  0  0  0
   23.4956   -3.7021   11.6556 C   0  0  0  0  0  0  0  0  0  0  0  0
   22.2990   -2.4809    8.1579 O   0  0  0  0  0  0  0  0  0  0  0  0
   21.6166   -1.7579    7.2157 C   0  0  0  0  0  0  0  0  0  0  0  0
   21.1520    0.0261    5.4704 S   0  0  0  0  0  0  0  0  0  0  0  0
   20.2445   -2.0419    6.7893 C   0  0  0  0  0  0  0  0  0  0  0  0
   18.7210   -4.0171    6.4776 C   0  0  0  0  0  0  0  0  0  0  0  0
   17.9237   -5.0683    6.9547 C   0  0  0  0  0  0  0  0  0  0  0  0
   17.0078   -6.3094    8.7774 O   0  0  0  0  0  0  0  0  0  0  0  0
   17.3871   -5.5112   11.0546 C   0  0  0  0  0  0  0  0  0  0  0  0
   18.3366   -4.5642   10.5528 O   0  0  0  0  0  0  0  0  0  0  0  0
   18.4513   -4.4044    9.2061 C   0  0  0  0  0  0  0  0  0  0  0  0
   22.2685   -3.9657    9.9107 H   0  0  0  0  0  0  0  0  0  0  0  0
   23.6799   -5.0665   10.0019 H   0  0  0  0  0  0  0  0  0  0  0  0
   18.9248   -1.0842    5.3651 H   0  0  0  0  0  0  0  0  0  0  0  0
   16.3374   -7.2873   10.4626 H   0  0  0  0  0  0  0  0  0  0  0  0
   18.1295   -7.3082   10.1721 H   0  0  0  0  0  0  0  0  0  0  0  0
   19.7617   -2.6926    9.4085 H   0  0  0  0  0  0  0  0  0  0  0  0
   25.2776   -0.9648    8.1116 H   0  0  0  0  0  0  0  0  0  0  0  0
   25.8668   -4.2515    9.5186 H   0  0  0  0  0  0  0  0  0  0  0  0
   26.1230   -2.5100    9.1474 H   0  0  0  0  0  0  0  0  0  0  0  0
   26.7739   -3.1576   11.5028 H   0  0  0  0  0  0  0  0  0  0  0  0
   25.4924   -1.8755   11.4067 H   0  0  0  0  0  0  0  0  0  0  0  0
   23.0866   -2.6974   11.8380 H   0  0  0  0  0  0  0  0  0  0  0  0
   22.9582   -4.4592   12.2454 H   0  0  0  0  0  0  0  0  0  0  0  0
   18.8296   -3.8979    5.3894 H   0  0  0  0  0  0  0  0  0  0  0  0
   17.4053   -5.7310    6.2461 H   0  0  0  0  0  0  0  0  0  0  0  0
   16.4156   -5.0085   11.1713 H   0  0  0  0  0  0  0  0  0  0  0  0
   17.7665   -5.8870   12.0162 H   0  0  0  0  0  0  0  0  0  0  0  0
  1 12  1  0
  1 16  1  0
  2  9  1  0
  2 18  2  0
  2 19  1  0
  3 19  1  0
  3 20  2  0
  4  7  2  0
  4 20  1  0
  4 21  1  0
  5 22  1  0
  5 23  1  0
  5 26  2  0
  6 23  1  0
  6 24  1  0
  7 26  1  0
  8  9  2  0
  9 10  1  0
 10 11  2  0
 11 12  1  0
 11 17  1  0
 12 13  1  0
 13 14  1  0
 14 15  1  0
 15 16  1  0
 17 18  1  0
 18 20  1  0
 21 22  2  0
 24 25  1  0
 25 26  1  0
  1 27  1  0
  1 28  1  0
  3 29  1  0
  6 30  1  0
  6 31  1  0
  7 32  1  0
 10 33  1  0
 13 34  1  0
 13 35  1  0
 14 36  1  0
 14 37  1  0
 16 38  1  0
 16 39  1  0
 21 40  1  0
 22 41  1  0
 24 42  1  0
 24 43  1  0
M  END
>  <filename_input>  (11) 
7USH_82V_docked.sdf

>  <pdb_id>  (11) 
7USH_82V

>  <pose_rank>  (11) 
10

>  <num_atoms_heavy>  (11) 
26

>  <num_torsions>  (11) 
2

>  <pose>  (11) 
[22.20397235792676, -0.7082311131520089, 6.5912260919700305, 1.2616437869896684, -1.7625222464966, 1.827900629584554, -1.6621545388847112, -3.389052305406162]

>  <energy>  (11) 
-614.1566556701819

>  <inter_energy>  (11) 
-568.8307167390083

>  <intra_energy>  (11) 
4.254778950567976

>  <rmsd>  (11) 
7.31493

>  <sdf_rank>  (11) 
0

$$$$

     RDKit          3D

 43 47  0  0  0  0  0  0  0  0999 V2000
   23.0931   -1.5150    6.0929 C   0  0  0  0  0  0  0  0  0  0  0  0
   22.2656   -3.7278   10.7786 C   0  0  0  0  0  0  0  0  0  0  0  0
   20.6936   -5.3983   11.6155 C   0  0  0  0  0  0  0  0  0  0  0  0
   19.3434   -5.7196    9.4972 C   0  0  0  0  0  0  0  0  0  0  0  0
   17.1974   -6.9152    7.9881 C   0  0  0  0  0  0  0  0  0  0  0  0
   15.3504   -6.6461    6.5235 C   0  0  0  0  0  0  0  0  0  0  0  0
   18.6870   -5.0430    8.4599 C   0  0  0  0  0  0  0  0  0  0  0  0
   24.1503   -2.4236   11.2723 O   0  0  0  0  0  0  0  0  0  0  0  0
   23.2675   -2.7667   10.4630 C   0  0  0  0  0  0  0  0  0  0  0  0
   23.2230   -2.2278    9.1197 C   0  0  0  0  0  0  0  0  0  0  0  0
   22.3632   -2.7204    8.2242 C   0  0  0  0  0  0  0  0  0  0  0  0
   22.0939   -2.1927    6.9338 N   0  0  0  0  0  0  0  0  0  0  0  0
   20.7814   -2.0948    6.2942 C   0  0  0  0  0  0  0  0  0  0  0  0
   20.3965   -0.6187    6.1176 C   0  0  0  0  0  0  0  0  0  0  0  0
   21.4133    0.1216    5.4452 O   0  0  0  0  0  0  0  0  0  0  0  0
   22.7251   -0.0511    5.9766 C   0  0  0  0  0  0  0  0  0  0  0  0
   21.3895   -3.6009    8.5827 O   0  0  0  0  0  0  0  0  0  0  0  0
   21.3651   -4.1263    9.8474 C   0  0  0  0  0  0  0  0  0  0  0  0
   22.0300   -4.5273   12.2643 S   0  0  0  0  0  0  0  0  0  0  0  0
   20.3937   -5.1191   10.3120 C   0  0  0  0  0  0  0  0  0  0  0  0
   18.8475   -7.0229    9.7602 C   0  0  0  0  0  0  0  0  0  0  0  0
   17.8151   -7.6211    9.0222 C   0  0  0  0  0  0  0  0  0  0  0  0
   16.1859   -7.5151    7.2798 O   0  0  0  0  0  0  0  0  0  0  0  0
   16.1472   -5.5564    5.8209 C   0  0  0  0  0  0  0  0  0  0  0  0
   17.0696   -4.8993    6.6969 O   0  0  0  0  0  0  0  0  0  0  0  0
   17.6392   -5.6164    7.7037 C   0  0  0  0  0  0  0  0  0  0  0  0
   24.0880   -1.6102    6.5524 H   0  0  0  0  0  0  0  0  0  0  0  0
   23.1126   -1.9748    5.0937 H   0  0  0  0  0  0  0  0  0  0  0  0
   20.1220   -6.1276   12.2084 H   0  0  0  0  0  0  0  0  0  0  0  0
   14.8148   -7.2382    5.7668 H   0  0  0  0  0  0  0  0  0  0  0  0
   14.6496   -6.1597    7.2180 H   0  0  0  0  0  0  0  0  0  0  0  0
   19.0024   -4.0162    8.2228 H   0  0  0  0  0  0  0  0  0  0  0  0
   23.9004   -1.4091    8.8356 H   0  0  0  0  0  0  0  0  0  0  0  0
   20.8182   -2.5827    5.3090 H   0  0  0  0  0  0  0  0  0  0  0  0
   20.0315   -2.5921    6.9269 H   0  0  0  0  0  0  0  0  0  0  0  0
   19.4682   -0.5615    5.5303 H   0  0  0  0  0  0  0  0  0  0  0  0
   20.2621   -0.1806    7.1176 H   0  0  0  0  0  0  0  0  0  0  0  0
   22.7686    0.4080    6.9752 H   0  0  0  0  0  0  0  0  0  0  0  0
   23.4390    0.4288    5.2910 H   0  0  0  0  0  0  0  0  0  0  0  0
   19.2962   -7.5943   10.5862 H   0  0  0  0  0  0  0  0  0  0  0  0
   17.4925   -8.6459    9.2582 H   0  0  0  0  0  0  0  0  0  0  0  0
   16.7104   -6.0102    4.9920 H   0  0  0  0  0  0  0  0  0  0  0  0
   15.4337   -4.8011    5.4598 H   0  0  0  0  0  0  0  0  0  0  0  0
  1 12  1  0
  1 16  1  0
  2  9  1  0
  2 18  2  0
  2 19  1  0
  3 19  1  0
  3 20  2  0
  4  7  2  0
  4 20  1  0
  4 21  1  0
  5 22  1  0
  5 23  1  0
  5 26  2  0
  6 23  1  0
  6 24  1  0
  7 26  1  0
  8  9  2  0
  9 10  1  0
 10 11  2  0
 11 12  1  0
 11 17  1  0
 12 13  1  0
 13 14  1  0
 14 15  1  0
 15 16  1  0
 17 18  1  0
 18 20  1  0
 21 22  2  0
 24 25  1  0
 25 26  1  0
  1 27  1  0
  1 28  1  0
  3 29  1  0
  6 30  1  0
  6 31  1  0
  7 32  1  0
 10 33  1  0
 13 34  1  0
 13 35  1  0
 14 36  1  0
 14 37  1  0
 16 38  1  0
 16 39  1  0
 21 40  1  0
 22 41  1  0
 24 42  1  0
 24 43  1  0
M  END
>  <filename_input>  (12) 
7USH_82V_docked.sdf

>  <pdb_id>  (12) 
7USH_82V

>  <pose_rank>  (12) 
11

>  <num_atoms_heavy>  (12) 
26

>  <num_torsions>  (12) 
2

>  <pose>  (12) 
[22.26560866803763, -3.727819836789672, 10.778624823282842, -1.8707487795487077, 1.71623655578448, 1.7482382333235742, 3.2362605940366738, 0.45833096753088715]

>  <energy>  (12) 
-481.61197029662765

>  <inter_energy>  (12) 
-489.54580888196625

>  <intra_energy>  (12) 
8.564710630168417

>  <rmsd>  (12) 
7.88067

>  <sdf_rank>  (12) 
0

$$$$

     RDKit          3D

 43 47  0  0  0  0  0  0  0  0999 V2000
   21.6856   -0.9222    7.8525 C   0  0  0  0  0  0  0  0  0  0  0  0
   19.4021   -4.5925   10.4099 C   0  0  0  0  0  0  0  0  0  0  0  0
   17.0996   -5.2537    9.9376 C   0  0  0  0  0  0  0  0  0  0  0  0
   16.9138   -4.2823    7.6062 C   0  0  0  0  0  0  0  0  0  0  0  0
   15.6699   -3.7587    5.0586 C   0  0  0  0  0  0  0  0  0  0  0  0
   14.1703   -4.4445    3.3527 C   0  0  0  0  0  0  0  0  0  0  0  0
   15.7558   -4.9500    7.1845 C   0  0  0  0  0  0  0  0  0  0  0  0
   21.1722   -4.7009   11.9435 O   0  0  0  0  0  0  0  0  0  0  0  0
   20.7248   -4.3037   10.8508 C   0  0  0  0  0  0  0  0  0  0  0  0
   21.5431   -3.5410    9.9314 C   0  0  0  0  0  0  0  0  0  0  0  0
   21.0939   -3.2566    8.7061 C   0  0  0  0  0  0  0  0  0  0  0  0
   21.7068   -2.3906    7.7624 N   0  0  0  0  0  0  0  0  0  0  0  0
   22.3169   -2.7855    6.4924 C   0  0  0  0  0  0  0  0  0  0  0  0
   21.5083   -2.2052    5.3230 C   0  0  0  0  0  0  0  0  0  0  0  0
   21.3208   -0.7971    5.4502 O   0  0  0  0  0  0  0  0  0  0  0  0
   20.8391   -0.3735    6.7235 C   0  0  0  0  0  0  0  0  0  0  0  0
   19.8057   -3.5061    8.3452 O   0  0  0  0  0  0  0  0  0  0  0  0
   18.9761   -4.2021    9.1840 C   0  0  0  0  0  0  0  0  0  0  0  0
   18.1917   -5.4418   11.2557 S   0  0  0  0  0  0  0  0  0  0  0  0
   17.5941   -4.5670    8.8647 C   0  0  0  0  0  0  0  0  0  0  0  0
   17.4361   -3.3541    6.6684 C   0  0  0  0  0  0  0  0  0  0  0  0
   16.8305   -3.0792    5.4331 C   0  0  0  0  0  0  0  0  0  0  0  0
   15.0939   -3.4798    3.8440 O   0  0  0  0  0  0  0  0  0  0  0  0
   13.2634   -4.9784    4.4522 C   0  0  0  0  0  0  0  0  0  0  0  0
   13.9912   -5.3759    5.6194 O   0  0  0  0  0  0  0  0  0  0  0  0
   15.1273   -4.7000    5.9432 C   0  0  0  0  0  0  0  0  0  0  0  0
   21.2555   -0.6177    8.8180 H   0  0  0  0  0  0  0  0  0  0  0  0
   22.7101   -0.5293    7.7748 H   0  0  0  0  0  0  0  0  0  0  0  0
   16.0766   -5.6576    9.9579 H   0  0  0  0  0  0  0  0  0  0  0  0
   13.5482   -3.9768    2.5754 H   0  0  0  0  0  0  0  0  0  0  0  0
   14.7458   -5.2897    2.9473 H   0  0  0  0  0  0  0  0  0  0  0  0
   15.3146   -5.7051    7.8519 H   0  0  0  0  0  0  0  0  0  0  0  0
   22.5393   -3.1942   10.2435 H   0  0  0  0  0  0  0  0  0  0  0  0
   23.3477   -2.4039    6.4483 H   0  0  0  0  0  0  0  0  0  0  0  0
   22.3241   -3.8831    6.4191 H   0  0  0  0  0  0  0  0  0  0  0  0
   22.0447   -2.4089    4.3846 H   0  0  0  0  0  0  0  0  0  0  0  0
   20.5168   -2.6817    5.3259 H   0  0  0  0  0  0  0  0  0  0  0  0
   19.8050   -0.7266    6.8491 H   0  0  0  0  0  0  0  0  0  0  0  0
   20.8876    0.7248    6.7608 H   0  0  0  0  0  0  0  0  0  0  0  0
   18.3644   -2.8221    6.9235 H   0  0  0  0  0  0  0  0  0  0  0  0
   17.2701   -2.3286    4.7598 H   0  0  0  0  0  0  0  0  0  0  0  0
   12.5489   -4.1908    4.7334 H   0  0  0  0  0  0  0  0  0  0  0  0
   12.7507   -5.8687    4.0591 H   0  0  0  0  0  0  0  0  0  0  0  0
  1 12  1  0
  1 16  1  0
  2  9  1  0
  2 18  2  0
  2 19  1  0
  3 19  1  0
  3 20  2  0
  4  7  2  0
  4 20  1  0
  4 21  1  0
  5 22  1  0
  5 23  1  0
  5 26  2  0
  6 23  1  0
  6 24  1  0
  7 26  1  0
  8  9  2  0
  9 10  1  0
 10 11  2  0
 11 12  1  0
 11 17  1  0
 12 13  1  0
 13 14  1  0
 14 15  1  0
 15 16  1  0
 17 18  1  0
 18 20  1  0
 21 22  2  0
 24 25  1  0
 25 26  1  0
  1 27  1  0
  1 28  1  0
  3 29  1  0
  6 30  1  0
  6 31  1  0
  7 32  1  0
 10 33  1  0
 13 34  1  0
 13 35  1  0
 14 36  1  0
 14 37  1  0
 16 38  1  0
 16 39  1  0
 21 40  1  0
 22 41  1  0
 24 42  1  0
 24 43  1  0
M  END
>  <filename_input>  (13) 
7USH_82V_docked.sdf

>  <pdb_id>  (13) 
7USH_82V

>  <pose_rank>  (13) 
12

>  <num_atoms_heavy>  (13) 
26

>  <num_torsions>  (13) 
2

>  <pose>  (13) 
[19.40214856075366, -4.592469275458307, 10.409893743435804, 2.282344743535497, -2.43402328980496, -2.129316204333399, 0.3426782345398878, -1.4264949524828252]

>  <energy>  (13) 
-541.1087349784578

>  <inter_energy>  (13) 
-517.1551221174111

>  <intra_energy>  (13) 
14.410611115835014

>  <rmsd>  (13) 
7.38582

>  <sdf_rank>  (13) 
0

$$$$

     RDKit          3D

 43 47  0  0  0  0  0  0  0  0999 V2000
   17.5353   -9.8781    8.9558 C   0  0  0  0  0  0  0  0  0  0  0  0
   15.4906   -5.8143    6.3382 C   0  0  0  0  0  0  0  0  0  0  0  0
   16.2476   -3.5385    5.8803 C   0  0  0  0  0  0  0  0  0  0  0  0
   18.3832   -3.5856    7.2407 C   0  0  0  0  0  0  0  0  0  0  0  0
   20.8883   -2.5857    8.2588 C   0  0  0  0  0  0  0  0  0  0  0  0
   22.8528   -1.3014    7.9119 C   0  0  0  0  0  0  0  0  0  0  0  0
   19.0580   -2.5086    6.6494 C   0  0  0  0  0  0  0  0  0  0  0  0
   13.8660   -7.4427    5.8847 O   0  0  0  0  0  0  0  0  0  0  0  0
   14.9050   -7.1040    6.4828 C   0  0  0  0  0  0  0  0  0  0  0  0
   15.6122   -8.0237    7.3493 C   0  0  0  0  0  0  0  0  0  0  0  0
   16.8010   -7.6905    7.8589 C   0  0  0  0  0  0  0  0  0  0  0  0
   17.5302   -8.4113    8.8411 N   0  0  0  0  0  0  0  0  0  0  0  0
   18.2603   -7.8382    9.9724 C   0  0  0  0  0  0  0  0  0  0  0  0
   17.5929   -8.2583   11.2900 C   0  0  0  0  0  0  0  0  0  0  0  0
   17.4273   -9.6722   11.3777 O   0  0  0  0  0  0  0  0  0  0  0  0
   16.8253  -10.2729   10.2333 C   0  0  0  0  0  0  0  0  0  0  0  0
   17.2986   -6.4297    7.7376 O   0  0  0  0  0  0  0  0  0  0  0  0
   16.6599   -5.5078    6.9511 C   0  0  0  0  0  0  0  0  0  0  0  0
   14.9010   -4.5074    5.4182 S   0  0  0  0  0  0  0  0  0  0  0  0
   17.1439   -4.1461    6.7138 C   0  0  0  0  0  0  0  0  0  0  0  0
   19.0460   -4.1577    8.3574 C   0  0  0  0  0  0  0  0  0  0  0  0
   20.2566   -3.6695    8.8716 C   0  0  0  0  0  0  0  0  0  0  0  0
   22.0747   -2.1246    8.7733 O   0  0  0  0  0  0  0  0  0  0  0  0
   21.9935   -0.3125    7.1375 C   0  0  0  0  0  0  0  0  0  0  0  0
   20.8610   -0.9348    6.5207 O   0  0  0  0  0  0  0  0  0  0  0  0
   20.2821   -1.9994    7.1400 C   0  0  0  0  0  0  0  0  0  0  0  0
   17.0139  -10.3177    8.0927 H   0  0  0  0  0  0  0  0  0  0  0  0
   18.5715  -10.2467    8.9763 H   0  0  0  0  0  0  0  0  0  0  0  0
   16.3770   -2.5040    5.5295 H   0  0  0  0  0  0  0  0  0  0  0  0
   23.5801   -0.7412    8.5179 H   0  0  0  0  0  0  0  0  0  0  0  0
   23.3586   -1.9537    7.1848 H   0  0  0  0  0  0  0  0  0  0  0  0
   18.6134   -2.0369    5.7607 H   0  0  0  0  0  0  0  0  0  0  0  0
   15.1684   -9.0013    7.5888 H   0  0  0  0  0  0  0  0  0  0  0  0
   19.2989   -8.2002    9.9577 H   0  0  0  0  0  0  0  0  0  0  0  0
   18.2485   -6.7411    9.8935 H   0  0  0  0  0  0  0  0  0  0  0  0
   18.2196   -7.9214   12.1289 H   0  0  0  0  0  0  0  0  0  0  0  0
   16.5953   -7.7963   11.3282 H   0  0  0  0  0  0  0  0  0  0  0  0
   15.7754   -9.9505   10.1721 H   0  0  0  0  0  0  0  0  0  0  0  0
   16.8962  -11.3653   10.3419 H   0  0  0  0  0  0  0  0  0  0  0  0
   18.5864   -5.0296    8.8457 H   0  0  0  0  0  0  0  0  0  0  0  0
   20.7080   -4.1406    9.7572 H   0  0  0  0  0  0  0  0  0  0  0  0
   21.6356    0.4625    7.8312 H   0  0  0  0  0  0  0  0  0  0  0  0
   22.6157    0.1159    6.3379 H   0  0  0  0  0  0  0  0  0  0  0  0
  1 12  1  0
  1 16  1  0
  2  9  1  0
  2 18  2  0
  2 19  1  0
  3 19  1  0
  3 20  2  0
  4  7  2  0
  4 20  1  0
  4 21  1  0
  5 22  1  0
  5 23  1  0
  5 26  2  0
  6 23  1  0
  6 24  1  0
  7 26  1  0
  8  9  2  0
  9 10  1  0
 10 11  2  0
 11 12  1  0
 11 17  1  0
 12 13  1  0
 13 14  1  0
 14 15  1  0
 15 16  1  0
 17 18  1  0
 18 20  1  0
 21 22  2  0
 24 25  1  0
 25 26  1  0
  1 27  1  0
  1 28  1  0
  3 29  1  0
  6 30  1  0
  6 31  1  0
  7 32  1  0
 10 33  1  0
 13 34  1  0
 13 35  1  0
 14 36  1  0
 14 37  1  0
 16 38  1  0
 16 39  1  0
 21 40  1  0
 22 41  1  0
 24 42  1  0
 24 43  1  0
M  END
>  <filename_input>  (14) 
7USH_82V_docked.sdf

>  <pdb_id>  (14) 
7USH_82V

>  <pose_rank>  (14) 
13

>  <num_atoms_heavy>  (14) 
26

>  <num_torsions>  (14) 
2

>  <pose>  (14) 
[15.490605688188847, -5.814305105378523, 6.338189386451084, -31.646879303852117, 43.73744511378706, 69.52857328833404, -24.879824868462023, 6.762875523128644]

>  <energy>  (14) 
-1109.9562782278804

>  <inter_energy>  (14) 
-1104.0043200081159

>  <intra_energy>  (14) 
13.366767917304204

>  <rmsd>  (14) 
0.748443

>  <sdf_rank>  (14) 
0

$$$$

     RDKit          3D

 43 47  0  0  0  0  0  0  0  0999 V2000
   22.1982    2.7956    5.4861 C   0  0  0  0  0  0  0  0  0  0  0  0
   24.3372   -1.9197    5.9281 C   0  0  0  0  0  0  0  0  0  0  0  0
   22.9631   -3.9202    5.6594 C   0  0  0  0  0  0  0  0  0  0  0  0
   20.6875   -2.8128    5.7534 C   0  0  0  0  0  0  0  0  0  0  0  0
   17.8096   -2.8610    5.5875 C   0  0  0  0  0  0  0  0  0  0  0  0
   15.7355   -3.5691    6.4962 C   0  0  0  0  0  0  0  0  0  0  0  0
   19.8779   -3.1552    6.8452 C   0  0  0  0  0  0  0  0  0  0  0  0
   26.5187   -1.0629    5.9904 O   0  0  0  0  0  0  0  0  0  0  0  0
   25.2899   -0.8699    6.0599 C   0  0  0  0  0  0  0  0  0  0  0  0
   24.7429    0.4575    6.2484 C   0  0  0  0  0  0  0  0  0  0  0  0
   23.4252    0.6610    6.1687 C   0  0  0  0  0  0  0  0  0  0  0  0
   22.7357    1.8607    6.4870 N   0  0  0  0  0  0  0  0  0  0  0  0
   22.5760    2.4406    7.8210 C   0  0  0  0  0  0  0  0  0  0  0  0
   23.3282    3.7769    7.9018 C   0  0  0  0  0  0  0  0  0  0  0  0
   22.9566    4.6635    6.8482 O   0  0  0  0  0  0  0  0  0  0  0  0
   22.9884    4.0856    5.5452 C   0  0  0  0  0  0  0  0  0  0  0  0
   22.5486   -0.3772    6.0935 O   0  0  0  0  0  0  0  0  0  0  0  0
   23.0073   -1.6586    5.9395 C   0  0  0  0  0  0  0  0  0  0  0  0
   24.6504   -3.5812    5.7199 S   0  0  0  0  0  0  0  0  0  0  0  0
   22.1454   -2.8338    5.7945 C   0  0  0  0  0  0  0  0  0  0  0  0
   19.9782   -2.5219    4.5593 C   0  0  0  0  0  0  0  0  0  0  0  0
   18.5780   -2.5262    4.4709 C   0  0  0  0  0  0  0  0  0  0  0  0
   16.4408   -2.8643    5.4809 O   0  0  0  0  0  0  0  0  0  0  0  0
   16.3303   -3.3291    7.8763 C   0  0  0  0  0  0  0  0  0  0  0  0
   17.7521   -3.4972    7.8982 O   0  0  0  0  0  0  0  0  0  0  0  0
   18.4656   -3.1756    6.7848 C   0  0  0  0  0  0  0  0  0  0  0  0
   22.2875    2.3537    4.4827 H   0  0  0  0  0  0  0  0  0  0  0  0
   21.1378    2.9982    5.6971 H   0  0  0  0  0  0  0  0  0  0  0  0
   22.5714   -4.9388    5.5218 H   0  0  0  0  0  0  0  0  0  0  0  0
   14.6877   -3.2344    6.4982 H   0  0  0  0  0  0  0  0  0  0  0  0
   15.8098   -4.6445    6.2769 H   0  0  0  0  0  0  0  0  0  0  0  0
   20.3650   -3.4210    7.7950 H   0  0  0  0  0  0  0  0  0  0  0  0
   25.4156    1.3022    6.4582 H   0  0  0  0  0  0  0  0  0  0  0  0
   21.5075    2.6106    8.0195 H   0  0  0  0  0  0  0  0  0  0  0  0
   22.9868    1.7472    8.5696 H   0  0  0  0  0  0  0  0  0  0  0  0
   23.0998    4.2552    8.8657 H   0  0  0  0  0  0  0  0  0  0  0  0
   24.4039    3.5677    7.8065 H   0  0  0  0  0  0  0  0  0  0  0  0
   24.0335    3.8764    5.2733 H   0  0  0  0  0  0  0  0  0  0  0  0
   22.5338    4.7991    4.8421 H   0  0  0  0  0  0  0  0  0  0  0  0
   20.5566   -2.2802    3.6554 H   0  0  0  0  0  0  0  0  0  0  0  0
   18.0858   -2.2660    3.5222 H   0  0  0  0  0  0  0  0  0  0  0  0
   16.0919   -2.3019    8.1893 H   0  0  0  0  0  0  0  0  0  0  0  0
   15.8957   -4.0722    8.5611 H   0  0  0  0  0  0  0  0  0  0  0  0
  1 12  1  0
  1 16  1  0
  2  9  1  0
  2 18  2  0
  2 19  1  0
  3 19  1  0
  3 20  2  0
  4  7  2  0
  4 20  1  0
  4 21  1  0
  5 22  1  0
  5 23  1  0
  5 26  2  0
  6 23  1  0
  6 24  1  0
  7 26  1  0
  8  9  2  0
  9 10  1  0
 10 11  2  0
 11 12  1  0
 11 17  1  0
 12 13  1  0
 13 14  1  0
 14 15  1  0
 15 16  1  0
 17 18  1  0
 18 20  1  0
 21 22  2  0
 24 25  1  0
 25 26  1  0
  1 27  1  0
  1 28  1  0
  3 29  1  0
  6 30  1  0
  6 31  1  0
  7 32  1  0
 10 33  1  0
 13 34  1  0
 13 35  1  0
 14 36  1  0
 14 37  1  0
 16 38  1  0
 16 39  1  0
 21 40  1  0
 22 41  1  0
 24 42  1  0
 24 43  1  0
M  END
>  <filename_input>  (15) 
7USH_82V_docked.sdf

>  <pdb_id>  (15) 
7USH_82V

>  <pose_rank>  (15) 
14

>  <num_atoms_heavy>  (15) 
26

>  <num_torsions>  (15) 
2

>  <pose>  (15) 
[24.337193754286943, -1.9197300281226792, 5.928055581250734, 0.8433999597220478, -0.5357921150771223, -3.2884503186311553, -4.250845147510094, 7.984620069062883]

>  <energy>  (15) 
-550.0994681642862

>  <inter_energy>  (15) 
-509.9074537938607

>  <intra_energy>  (15) 
0.0

>  <rmsd>  (15) 
9.53211

>  <sdf_rank>  (15) 
0

$$$$

     RDKit          3D

 43 47  0  0  0  0  0  0  0  0999 V2000
   23.4194   -3.3773   12.0355 C   0  0  0  0  0  0  0  0  0  0  0  0
   18.8531   -5.3143   12.1125 C   0  0  0  0  0  0  0  0  0  0  0  0
   17.6695   -4.7589   10.0503 C   0  0  0  0  0  0  0  0  0  0  0  0
   19.6407   -3.8793    8.7259 C   0  0  0  0  0  0  0  0  0  0  0  0
   20.8782   -2.6749    6.4173 C   0  0  0  0  0  0  0  0  0  0  0  0
   22.8065   -1.7285    5.4097 C   0  0  0  0  0  0  0  0  0  0  0  0
   21.0320   -3.7901    8.5803 C   0  0  0  0  0  0  0  0  0  0  0  0
   18.6758   -6.2487   14.2555 O   0  0  0  0  0  0  0  0  0  0  0  0
   19.3749   -5.7083   13.3772 C   0  0  0  0  0  0  0  0  0  0  0  0
   20.7898   -5.4735   13.5761 C   0  0  0  0  0  0  0  0  0  0  0  0
   21.5481   -5.0334   12.5685 C   0  0  0  0  0  0  0  0  0  0  0  0
   22.9000   -4.6077   12.6530 N   0  0  0  0  0  0  0  0  0  0  0  0
   24.0142   -5.3684   13.2198 C   0  0  0  0  0  0  0  0  0  0  0  0
   25.0172   -5.7261   12.1135 C   0  0  0  0  0  0  0  0  0  0  0  0
   25.4301   -4.5776   11.3753 O   0  0  0  0  0  0  0  0  0  0  0  0
   24.3633   -3.7523   10.9129 C   0  0  0  0  0  0  0  0  0  0  0  0
   20.9996   -4.6205   11.3935 O   0  0  0  0  0  0  0  0  0  0  0  0
   19.6615   -4.7936   11.1574 C   0  0  0  0  0  0  0  0  0  0  0  0
   17.2404   -5.4318   11.5763 S   0  0  0  0  0  0  0  0  0  0  0  0
   18.9888   -4.4334    9.9073 C   0  0  0  0  0  0  0  0  0  0  0  0
   18.8967   -3.3051    7.6627 C   0  0  0  0  0  0  0  0  0  0  0  0
   19.4876   -2.7311    6.5270 C   0  0  0  0  0  0  0  0  0  0  0  0
   21.4386   -2.1054    5.3007 O   0  0  0  0  0  0  0  0  0  0  0  0
   23.6289   -2.7721    6.1518 C   0  0  0  0  0  0  0  0  0  0  0  0
   23.0149   -3.1850    7.3776 O   0  0  0  0  0  0  0  0  0  0  0  0
   21.6562   -3.2112    7.4517 C   0  0  0  0  0  0  0  0  0  0  0  0
   22.5841   -2.7852   11.6333 H   0  0  0  0  0  0  0  0  0  0  0  0
   23.9545   -2.7799   12.7884 H   0  0  0  0  0  0  0  0  0  0  0  0
   16.9337   -4.6022    9.2477 H   0  0  0  0  0  0  0  0  0  0  0  0
   23.2216   -1.6026    4.3989 H   0  0  0  0  0  0  0  0  0  0  0  0
   22.8554   -0.7893    5.9803 H   0  0  0  0  0  0  0  0  0  0  0  0
   21.6689   -4.1899    9.3831 H   0  0  0  0  0  0  0  0  0  0  0  0
   21.2423   -5.6585   14.5615 H   0  0  0  0  0  0  0  0  0  0  0  0
   24.5177   -4.7616   13.9868 H   0  0  0  0  0  0  0  0  0  0  0  0
   23.6285   -6.2937   13.6727 H   0  0  0  0  0  0  0  0  0  0  0  0
   25.9024   -6.1900   12.5730 H   0  0  0  0  0  0  0  0  0  0  0  0
   24.5221   -6.4181   11.4165 H   0  0  0  0  0  0  0  0  0  0  0  0
   23.8004   -4.2967   10.1404 H   0  0  0  0  0  0  0  0  0  0  0  0
   24.7970   -2.8271   10.5056 H   0  0  0  0  0  0  0  0  0  0  0  0
   17.7989   -3.3104    7.7325 H   0  0  0  0  0  0  0  0  0  0  0  0
   18.8554   -2.3255    5.7234 H   0  0  0  0  0  0  0  0  0  0  0  0
   23.7492   -3.6526    5.5036 H   0  0  0  0  0  0  0  0  0  0  0  0
   24.5991   -2.3173    6.4010 H   0  0  0  0  0  0  0  0  0  0  0  0
  1 12  1  0
  1 16  1  0
  2  9  1  0
  2 18  2  0
  2 19  1  0
  3 19  1  0
  3 20  2  0
  4  7  2  0
  4 20  1  0
  4 21  1  0
  5 22  1  0
  5 23  1  0
  5 26  2  0
  6 23  1  0
  6 24  1  0
  7 26  1  0
  8  9  2  0
  9 10  1  0
 10 11  2  0
 11 12  1  0
 11 17  1  0
 12 13  1  0
 13 14  1  0
 14 15  1  0
 15 16  1  0
 17 18  1  0
 18 20  1  0
 21 22  2  0
 24 25  1  0
 25 26  1  0
  1 27  1  0
  1 28  1  0
  3 29  1  0
  6 30  1  0
  6 31  1  0
  7 32  1  0
 10 33  1  0
 13 34  1  0
 13 35  1  0
 14 36  1  0
 14 37  1  0
 16 38  1  0
 16 39  1  0
 21 40  1  0
 22 41  1  0
 24 42  1  0
 24 43  1  0
M  END
>  <filename_input>  (16) 
7USH_82V_docked.sdf

>  <pdb_id>  (16) 
7USH_82V

>  <pose_rank>  (16) 
15

>  <num_atoms_heavy>  (16) 
26

>  <num_torsions>  (16) 
2

>  <pose>  (16) 
[18.853088876558083, -5.314298718222102, 12.112487529913388, -1.075254034556914, 0.9166721483762179, 0.3994877831190775, 3.965298502581414, 3.8334979161781413]

>  <energy>  (16) 
-371.81532069995177

>  <inter_energy>  (16) 
-357.7444327989822

>  <intra_energy>  (16) 
13.594080512479568

>  <rmsd>  (16) 
5.79447

>  <sdf_rank>  (16) 
0

$$$$

     RDKit          3D

 43 47  0  0  0  0  0  0  0  0999 V2000
   20.1864   -3.7378   11.5413 C   0  0  0  0  0  0  0  0  0  0  0  0
   17.1522   -5.6106    8.0293 C   0  0  0  0  0  0  0  0  0  0  0  0
   17.7455   -4.5827    5.8954 C   0  0  0  0  0  0  0  0  0  0  0  0
   19.6777   -3.1588    6.7031 C   0  0  0  0  0  0  0  0  0  0  0  0
   21.8041   -1.2605    6.2710 C   0  0  0  0  0  0  0  0  0  0  0  0
   22.7450    0.8707    6.7201 C   0  0  0  0  0  0  0  0  0  0  0  0
   19.8937   -2.0663    7.5544 C   0  0  0  0  0  0  0  0  0  0  0  0
   15.7621   -7.1557    9.1143 O   0  0  0  0  0  0  0  0  0  0  0  0
   16.6766   -6.3117    9.1736 C   0  0  0  0  0  0  0  0  0  0  0  0
   17.3466   -6.0097   10.4212 C   0  0  0  0  0  0  0  0  0  0  0  0
   18.4210   -5.2164   10.4343 C   0  0  0  0  0  0  0  0  0  0  0  0
   19.0787   -4.7052   11.5843 N   0  0  0  0  0  0  0  0  0  0  0  0
   18.8821   -5.1500   12.9644 C   0  0  0  0  0  0  0  0  0  0  0  0
   20.1670   -5.8082   13.4877 C   0  0  0  0  0  0  0  0  0  0  0  0
   21.3056   -4.9662   13.3184 O   0  0  0  0  0  0  0  0  0  0  0  0
   21.4535   -4.4216   12.0090 C   0  0  0  0  0  0  0  0  0  0  0  0
   18.8094   -4.5268    9.3273 O   0  0  0  0  0  0  0  0  0  0  0  0
   18.1962   -4.7516    8.1232 C   0  0  0  0  0  0  0  0  0  0  0  0
   16.5689   -5.7198    6.4324 S   0  0  0  0  0  0  0  0  0  0  0  0
   18.5770   -4.1018    6.8672 C   0  0  0  0  0  0  0  0  0  0  0  0
   20.5691   -3.2357    5.6017 C   0  0  0  0  0  0  0  0  0  0  0  0
   21.6173   -2.3275    5.3902 C   0  0  0  0  0  0  0  0  0  0  0  0
   22.8324   -0.3792    6.0455 O   0  0  0  0  0  0  0  0  0  0  0  0
   22.2589    0.7131    8.1536 C   0  0  0  0  0  0  0  0  0  0  0  0
   21.0915   -0.1103    8.2501 O   0  0  0  0  0  0  0  0  0  0  0  0
   20.9362   -1.1309    7.3632 C   0  0  0  0  0  0  0  0  0  0  0  0
   20.3208   -3.3760   10.5112 H   0  0  0  0  0  0  0  0  0  0  0  0
   19.9605   -2.8835   12.1963 H   0  0  0  0  0  0  0  0  0  0  0  0
   17.8222   -4.2661    4.8447 H   0  0  0  0  0  0  0  0  0  0  0  0
   23.7407    1.3379    6.7323 H   0  0  0  0  0  0  0  0  0  0  0  0
   22.0178    1.4966    6.1820 H   0  0  0  0  0  0  0  0  0  0  0  0
   19.2194   -1.9303    8.4127 H   0  0  0  0  0  0  0  0  0  0  0  0
   16.9690   -6.4357   11.3625 H   0  0  0  0  0  0  0  0  0  0  0  0
   18.6328   -4.2839   13.5950 H   0  0  0  0  0  0  0  0  0  0  0  0
   18.0609   -5.8812   12.9965 H   0  0  0  0  0  0  0  0  0  0  0  0
   20.0432   -6.0271   14.5586 H   0  0  0  0  0  0  0  0  0  0  0  0
   20.3365   -6.7292   12.9105 H   0  0  0  0  0  0  0  0  0  0  0  0
   21.6987   -5.2349   11.3101 H   0  0  0  0  0  0  0  0  0  0  0  0
   22.2576   -3.6715   12.0381 H   0  0  0  0  0  0  0  0  0  0  0  0
   20.4309   -4.0503    4.8755 H   0  0  0  0  0  0  0  0  0  0  0  0
   22.2916   -2.4560    4.5307 H   0  0  0  0  0  0  0  0  0  0  0  0
   23.0625    0.2568    8.7503 H   0  0  0  0  0  0  0  0  0  0  0  0
   21.9942    1.7129    8.5283 H   0  0  0  0  0  0  0  0  0  0  0  0
  1 12  1  0
  1 16  1  0
  2  9  1  0
  2 18  2  0
  2 19  1  0
  3 19  1  0
  3 20  2  0
  4  7  2  0
  4 20  1  0
  4 21  1  0
  5 22  1  0
  5 23  1  0
  5 26  2  0
  6 23  1  0
  6 24  1  0
  7 26  1  0
  8  9  2  0
  9 10  1  0
 10 11  2  0
 11 12  1  0
 11 17  1  0
 12 13  1  0
 13 14  1  0
 14 15  1  0
 15 16  1  0
 17 18  1  0
 18 20  1  0
 21 22  2  0
 24 25  1  0
 25 26  1  0
  1 27  1  0
  1 28  1  0
  3 29  1  0
  6 30  1  0
  6 31  1  0
  7 32  1  0
 10 33  1  0
 13 34  1  0
 13 35  1  0
 14 36  1  0
 14 37  1  0
 16 38  1  0
 16 39  1  0
 21 40  1  0
 22 41  1  0
 24 42  1  0
 24 43  1  0
M  END
>  <filename_input>  (17) 
7USH_82V_docked.sdf

>  <pdb_id>  (17) 
7USH_82V

>  <pose_rank>  (17) 
16

>  <num_atoms_heavy>  (17) 
26

>  <num_torsions>  (17) 
2

>  <pose>  (17) 
[17.152164432559974, -5.610642922597681, 8.029269047848334, -0.9903056160846692, -0.02618196827113215, 0.18081375101008537, 2.9714215998171154, 3.123097817153415]

>  <energy>  (17) 
-583.5927564435661

>  <inter_energy>  (17) 
-591.1587525977149

>  <intra_energy>  (17) 
4.315767838607641

>  <rmsd>  (17) 
3.4372

>  <sdf_rank>  (17) 
0

$$$$

     RDKit          3D

 43 47  0  0  0  0  0  0  0  0999 V2000
   16.6740  -11.7371   10.5026 C   0  0  0  0  0  0  0  0  0  0  0  0
   18.5397   -8.0947   13.4332 C   0  0  0  0  0  0  0  0  0  0  0  0
   18.6612   -6.0311   12.1335 C   0  0  0  0  0  0  0  0  0  0  0  0
   17.8105   -6.9404    9.9283 C   0  0  0  0  0  0  0  0  0  0  0  0
   16.9309   -6.8226    7.1853 C   0  0  0  0  0  0  0  0  0  0  0  0
   15.7919   -5.6474    5.4675 C   0  0  0  0  0  0  0  0  0  0  0  0
   17.4000   -5.7452    9.3219 C   0  0  0  0  0  0  0  0  0  0  0  0
   18.8249   -9.0729   15.5447 O   0  0  0  0  0  0  0  0  0  0  0  0
   18.5237   -9.1909   14.3417 C   0  0  0  0  0  0  0  0  0  0  0  0
   18.0997  -10.4606   13.7897 C   0  0  0  0  0  0  0  0  0  0  0  0
   17.6381  -10.5311   12.5383 C   0  0  0  0  0  0  0  0  0  0  0  0
   17.3417  -11.7155   11.8135 N   0  0  0  0  0  0  0  0  0  0  0  0
   17.5031  -13.0884   12.2935 C   0  0  0  0  0  0  0  0  0  0  0  0
   16.1284  -13.7605   12.4220 C   0  0  0  0  0  0  0  0  0  0  0  0
   15.3723  -13.6648   11.2163 O   0  0  0  0  0  0  0  0  0  0  0  0
   15.3003  -12.3533   10.6617 C   0  0  0  0  0  0  0  0  0  0  0  0
   17.7198   -9.4705   11.6895 O   0  0  0  0  0  0  0  0  0  0  0  0
   18.1376   -8.2494   12.1482 C   0  0  0  0  0  0  0  0  0  0  0  0
   19.0058   -6.4886   13.7576 S   0  0  0  0  0  0  0  0  0  0  0  0
   18.2074   -7.0377   11.3285 C   0  0  0  0  0  0  0  0  0  0  0  0
   17.7301   -8.0852    9.0936 C   0  0  0  0  0  0  0  0  0  0  0  0
   17.3192   -8.0375    7.7530 C   0  0  0  0  0  0  0  0  0  0  0  0
   16.5275   -6.7961    5.8732 O   0  0  0  0  0  0  0  0  0  0  0  0
   16.3691   -4.3650    6.0492 C   0  0  0  0  0  0  0  0  0  0  0  0
   16.6134   -4.4619    7.4567 O   0  0  0  0  0  0  0  0  0  0  0  0
   16.9742   -5.6670    7.9761 C   0  0  0  0  0  0  0  0  0  0  0  0
   16.5759  -10.7100   10.1213 H   0  0  0  0  0  0  0  0  0  0  0  0
   17.2681  -12.3299    9.7916 H   0  0  0  0  0  0  0  0  0  0  0  0
   18.7968   -5.0018   11.7700 H   0  0  0  0  0  0  0  0  0  0  0  0
   15.8146   -5.5809    4.3697 H   0  0  0  0  0  0  0  0  0  0  0  0
   14.7622   -5.7552    5.8389 H   0  0  0  0  0  0  0  0  0  0  0  0
   17.4097   -4.8235    9.9222 H   0  0  0  0  0  0  0  0  0  0  0  0
   18.1579  -11.3714   14.4038 H   0  0  0  0  0  0  0  0  0  0  0  0
   18.1207  -13.6541   11.5804 H   0  0  0  0  0  0  0  0  0  0  0  0
   17.9930  -13.0733   13.2782 H   0  0  0  0  0  0  0  0  0  0  0  0
   16.2740  -14.8231   12.6665 H   0  0  0  0  0  0  0  0  0  0  0  0
   15.5697  -13.2426   13.2155 H   0  0  0  0  0  0  0  0  0  0  0  0
   14.6990  -11.7170   11.3277 H   0  0  0  0  0  0  0  0  0  0  0  0
   14.8396  -12.4268    9.6655 H   0  0  0  0  0  0  0  0  0  0  0  0
   18.0043   -9.0613    9.5202 H   0  0  0  0  0  0  0  0  0  0  0  0
   17.3030   -8.9570    7.1495 H   0  0  0  0  0  0  0  0  0  0  0  0
   17.3191   -4.1435    5.5408 H   0  0  0  0  0  0  0  0  0  0  0  0
   15.6302   -3.5653    5.8928 H   0  0  0  0  0  0  0  0  0  0  0  0
  1 12  1  0
  1 16  1  0
  2  9  1  0
  2 18  2  0
  2 19  1  0
  3 19  1  0
  3 20  2  0
  4  7  2  0
  4 20  1  0
  4 21  1  0
  5 22  1  0
  5 23  1  0
  5 26  2  0
  6 23  1  0
  6 24  1  0
  7 26  1  0
  8  9  2  0
  9 10  1  0
 10 11  2  0
 11 12  1  0
 11 17  1  0
 12 13  1  0
 13 14  1  0
 14 15  1  0
 15 16  1  0
 17 18  1  0
 18 20  1  0
 21 22  2  0
 24 25  1  0
 25 26  1  0
  1 27  1  0
  1 28  1  0
  3 29  1  0
  6 30  1  0
  6 31  1  0
  7 32  1  0
 10 33  1  0
 13 34  1  0
 13 35  1  0
 14 36  1  0
 14 37  1  0
 16 38  1  0
 16 39  1  0
 21 40  1  0
 22 41  1  0
 24 42  1  0
 24 43  1  0
M  END
>  <filename_input>  (18) 
7USH_82V_docked.sdf

>  <pdb_id>  (18) 
7USH_82V

>  <pose_rank>  (18) 
17

>  <num_atoms_heavy>  (18) 
26

>  <num_torsions>  (18) 
2

>  <pose>  (18) 
[18.539723904513153, -8.094675443983883, 13.433204247880083, 0.34648499244913833, 2.3026743720411607, -0.7420845386123356, 0.22388108791777842, 2.879772453181199]

>  <energy>  (18) 
-407.1194159160276

>  <inter_energy>  (18) 
-438.51256237733475

>  <intra_energy>  (18) 
12.973361879205473

>  <rmsd>  (18) 
6.40291

>  <sdf_rank>  (18) 
0

$$$$

     RDKit          3D

 43 47  0  0  0  0  0  0  0  0999 V2000
   15.8077   -5.7439    7.7352 C   0  0  0  0  0  0  0  0  0  0  0  0
   20.0673   -3.3778    6.7740 C   0  0  0  0  0  0  0  0  0  0  0  0
   21.5610   -3.6334    8.6886 C   0  0  0  0  0  0  0  0  0  0  0  0
   20.2021   -5.3325    9.9849 C   0  0  0  0  0  0  0  0  0  0  0  0
   19.5983   -7.0345   12.2322 C   0  0  0  0  0  0  0  0  0  0  0  0
   18.4508   -8.9217   13.0987 C   0  0  0  0  0  0  0  0  0  0  0  0
   19.6515   -6.6123    9.8311 C   0  0  0  0  0  0  0  0  0  0  0  0
   19.7535   -2.3607    4.6850 O   0  0  0  0  0  0  0  0  0  0  0  0
   19.3316   -3.1127    5.5842 C   0  0  0  0  0  0  0  0  0  0  0  0
   18.0639   -3.8014    5.4604 C   0  0  0  0  0  0  0  0  0  0  0  0
   17.7030   -4.7164    6.3640 C   0  0  0  0  0  0  0  0  0  0  0  0
   16.4360   -5.3493    6.4646 N   0  0  0  0  0  0  0  0  0  0  0  0
   15.6241   -5.8448    5.3526 C   0  0  0  0  0  0  0  0  0  0  0  0
   15.5179   -7.3749    5.4262 C   0  0  0  0  0  0  0  0  0  0  0  0
   15.0635   -7.8179    6.7035 O   0  0  0  0  0  0  0  0  0  0  0  0
   15.7623   -7.2552    7.8117 C   0  0  0  0  0  0  0  0  0  0  0  0
   18.4110   -4.9004    7.5116 O   0  0  0  0  0  0  0  0  0  0  0  0
   19.6059   -4.2568    7.6966 C   0  0  0  0  0  0  0  0  0  0  0  0
   21.5692   -2.7164    7.2310 S   0  0  0  0  0  0  0  0  0  0  0  0
   20.4658   -4.4303    8.8694 C   0  0  0  0  0  0  0  0  0  0  0  0
   20.4092   -4.9355   11.3314 C   0  0  0  0  0  0  0  0  0  0  0  0
   20.1346   -5.7611   12.4320 C   0  0  0  0  0  0  0  0  0  0  0  0
   19.3318   -7.8265   13.3215 O   0  0  0  0  0  0  0  0  0  0  0  0
   18.7314   -9.6204   11.7762 C   0  0  0  0  0  0  0  0  0  0  0  0
   18.8449   -8.7022   10.6834 O   0  0  0  0  0  0  0  0  0  0  0  0
   19.3573   -7.4639   10.9205 C   0  0  0  0  0  0  0  0  0  0  0  0
   16.3964   -5.3492    8.5764 H   0  0  0  0  0  0  0  0  0  0  0  0
   14.7869   -5.3373    7.7881 H   0  0  0  0  0  0  0  0  0  0  0  0
   22.3792   -3.5814    9.4220 H   0  0  0  0  0  0  0  0  0  0  0  0
   18.5726   -9.6473   13.9164 H   0  0  0  0  0  0  0  0  0  0  0  0
   17.4237   -8.5293   13.0640 H   0  0  0  0  0  0  0  0  0  0  0  0
   19.4380   -6.9715    8.8135 H   0  0  0  0  0  0  0  0  0  0  0  0
   17.3951   -3.5700    4.6183 H   0  0  0  0  0  0  0  0  0  0  0  0
   14.6172   -5.4057    5.4118 H   0  0  0  0  0  0  0  0  0  0  0  0
   16.0981   -5.5593    4.4019 H   0  0  0  0  0  0  0  0  0  0  0  0
   14.8095   -7.7191    4.6583 H   0  0  0  0  0  0  0  0  0  0  0  0
   16.5211   -7.7937    5.2583 H   0  0  0  0  0  0  0  0  0  0  0  0
   16.7916   -7.6430    7.8183 H   0  0  0  0  0  0  0  0  0  0  0  0
   15.2295   -7.5364    8.7320 H   0  0  0  0  0  0  0  0  0  0  0  0
   20.8061   -3.9275   11.5223 H   0  0  0  0  0  0  0  0  0  0  0  0
   20.3416   -5.4051   13.4520 H   0  0  0  0  0  0  0  0  0  0  0  0
   19.6743  -10.1798   11.8660 H   0  0  0  0  0  0  0  0  0  0  0  0
   17.8832  -10.2880   11.5646 H   0  0  0  0  0  0  0  0  0  0  0  0
  1 12  1  0
  1 16  1  0
  2  9  1  0
  2 18  2  0
  2 19  1  0
  3 19  1  0
  3 20  2  0
  4  7  2  0
  4 20  1  0
  4 21  1  0
  5 22  1  0
  5 23  1  0
  5 26  2  0
  6 23  1  0
  6 24  1  0
  7 26  1  0
  8  9  2  0
  9 10  1  0
 10 11  2  0
 11 12  1  0
 11 17  1  0
 12 13  1  0
 13 14  1  0
 14 15  1  0
 15 16  1  0
 17 18  1  0
 18 20  1  0
 21 22  2  0
 24 25  1  0
 25 26  1  0
  1 27  1  0
  1 28  1  0
  3 29  1  0
  6 30  1  0
  6 31  1  0
  7 32  1  0
 10 33  1  0
 13 34  1  0
 13 35  1  0
 14 36  1  0
 14 37  1  0
 16 38  1  0
 16 39  1  0
 21 40  1  0
 22 41  1  0
 24 42  1  0
 24 43  1  0
M  END
>  <filename_input>  (19) 
7USH_82V_docked.sdf

>  <pdb_id>  (19) 
7USH_82V

>  <pose_rank>  (19) 
18

>  <num_atoms_heavy>  (19) 
26

>  <num_torsions>  (19) 
2

>  <pose>  (19) 
[20.06730235255093, -3.3777990504339708, 6.773986300114343, -1.3492383634031704, 2.781561531179488, 3.3885840586822273, -1.7978139865049165, -2.6607475435573473]

>  <energy>  (19) 
-468.20380736162593

>  <inter_energy>  (19) 
-464.06226107558774

>  <intra_energy>  (19) 
6.447791220339578

>  <rmsd>  (19) 
5.82234

>  <sdf_rank>  (19) 
0

$$$$

     RDKit          3D

 43 47  0  0  0  0  0  0  0  0999 V2000
   17.4134   -4.8478    6.5191 C   0  0  0  0  0  0  0  0  0  0  0  0
   18.8577   -5.7677   11.3074 C   0  0  0  0  0  0  0  0  0  0  0  0
   20.8556   -4.4874   11.8832 C   0  0  0  0  0  0  0  0  0  0  0  0
   21.3423   -3.5241    9.5922 C   0  0  0  0  0  0  0  0  0  0  0  0
   22.7232   -1.8335    7.7089 C   0  0  0  0  0  0  0  0  0  0  0  0
   24.4566   -0.2732    7.2732 C   0  0  0  0  0  0  0  0  0  0  0  0
   22.6195   -3.0050    9.8451 C   0  0  0  0  0  0  0  0  0  0  0  0
   17.1274   -7.1256   12.1190 O   0  0  0  0  0  0  0  0  0  0  0  0
   17.6814   -6.5560   11.1595 C   0  0  0  0  0  0  0  0  0  0  0  0
   17.1384   -6.6325    9.8193 C   0  0  0  0  0  0  0  0  0  0  0  0
   17.6609   -5.8932    8.8373 C   0  0  0  0  0  0  0  0  0  0  0  0
   17.3451   -5.9805    7.4557 N   0  0  0  0  0  0  0  0  0  0  0  0
   16.7670   -7.1368    6.7703 C   0  0  0  0  0  0  0  0  0  0  0  0
   15.3574   -6.7934    6.2671 C   0  0  0  0  0  0  0  0  0  0  0  0
   15.3460   -5.6027    5.4819 O   0  0  0  0  0  0  0  0  0  0  0  0
   16.0099   -4.4905    6.0778 C   0  0  0  0  0  0  0  0  0  0  0  0
   18.8157   -5.1944    9.0106 O   0  0  0  0  0  0  0  0  0  0  0  0
   19.3903   -5.1066   10.2509 C   0  0  0  0  0  0  0  0  0  0  0  0
   19.7488   -5.4960   12.7337 S   0  0  0  0  0  0  0  0  0  0  0  0
   20.5993   -4.3359   10.5496 C   0  0  0  0  0  0  0  0  0  0  0  0
   20.7773   -3.1272    8.3525 C   0  0  0  0  0  0  0  0  0  0  0  0
   21.4460   -2.3185    7.4214 C   0  0  0  0  0  0  0  0  0  0  0  0
   23.3604   -1.0398    6.7876 O   0  0  0  0  0  0  0  0  0  0  0  0
   25.3278   -1.0683    8.2349 C   0  0  0  0  0  0  0  0  0  0  0  0
   24.5629   -1.7377    9.2432 O   0  0  0  0  0  0  0  0  0  0  0  0
   23.3151   -2.1820    8.9300 C   0  0  0  0  0  0  0  0  0  0  0  0
   17.8748   -3.9831    7.0185 H   0  0  0  0  0  0  0  0  0  0  0  0
   18.0201   -5.1240    5.6441 H   0  0  0  0  0  0  0  0  0  0  0  0
   21.7083   -3.9999   12.3784 H   0  0  0  0  0  0  0  0  0  0  0  0
   25.0716    0.0473    6.4193 H   0  0  0  0  0  0  0  0  0  0  0  0
   24.0509    0.5915    7.8187 H   0  0  0  0  0  0  0  0  0  0  0  0
   23.1040   -3.2497   10.8018 H   0  0  0  0  0  0  0  0  0  0  0  0
   16.2917   -7.3024    9.6091 H   0  0  0  0  0  0  0  0  0  0  0  0
   17.4032   -7.4101    5.9155 H   0  0  0  0  0  0  0  0  0  0  0  0
   16.7058   -7.9814    7.4723 H   0  0  0  0  0  0  0  0  0  0  0  0
   14.9865   -7.6273    5.6531 H   0  0  0  0  0  0  0  0  0  0  0  0
   14.7143   -6.6282    7.1441 H   0  0  0  0  0  0  0  0  0  0  0  0
   15.4340   -4.1593    6.9545 H   0  0  0  0  0  0  0  0  0  0  0  0
   16.0797   -3.6898    5.3269 H   0  0  0  0  0  0  0  0  0  0  0  0
   19.7614   -3.4718    8.1088 H   0  0  0  0  0  0  0  0  0  0  0  0
   20.9643   -2.0667    6.4651 H   0  0  0  0  0  0  0  0  0  0  0  0
   25.8903   -1.8202    7.6618 H   0  0  0  0  0  0  0  0  0  0  0  0
   25.9995   -0.3593    8.7410 H   0  0  0  0  0  0  0  0  0  0  0  0
  1 12  1  0
  1 16  1  0
  2  9  1  0
  2 18  2  0
  2 19  1  0
  3 19  1  0
  3 20  2  0
  4  7  2  0
  4 20  1  0
  4 21  1  0
  5 22  1  0
  5 23  1  0
  5 26  2  0
  6 23  1  0
  6 24  1  0
  7 26  1  0
  8  9  2  0
  9 10  1  0
 10 11  2  0
 11 12  1  0
 11 17  1  0
 12 13  1  0
 13 14  1  0
 14 15  1  0
 15 16  1  0
 17 18  1  0
 18 20  1  0
 21 22  2  0
 24 25  1  0
 25 26  1  0
  1 27  1  0
  1 28  1  0
  3 29  1  0
  6 30  1  0
  6 31  1  0
  7 32  1  0
 10 33  1  0
 13 34  1  0
 13 35  1  0
 14 36  1  0
 14 37  1  0
 16 38  1  0
 16 39  1  0
 21 40  1  0
 22 41  1  0
 24 42  1  0
 24 43  1  0
M  END
>  <filename_input>  (20) 
7USH_82V_docked.sdf

>  <pdb_id>  (20) 
7USH_82V

>  <pose_rank>  (20) 
19

>  <num_atoms_heavy>  (20) 
26

>  <num_torsions>  (20) 
2

>  <pose>  (20) 
[18.85771133151887, -5.767662255600702, 11.307421126209348, 1.6882341147519606, 1.7759634104979445, -0.17976758960614406, 0.8817692935644783, 2.5064637340880167]

>  <energy>  (20) 
-482.4352013605806

>  <inter_energy>  (20) 
-500.2958765655044

>  <intra_energy>  (20) 
13.681089915744032

>  <rmsd>  (20) 
4.55349

>  <sdf_rank>  (20) 
0

$$$$

     RDKit          3D

 43 47  0  0  0  0  0  0  0  0999 V2000
   17.6951   -9.0873    8.8717 C   0  0  0  0  0  0  0  0  0  0  0  0
   18.4521   -6.2230   12.9850 C   0  0  0  0  0  0  0  0  0  0  0  0
   18.7047   -3.8799   12.3459 C   0  0  0  0  0  0  0  0  0  0  0  0
   18.6617   -4.1827    9.8320 C   0  0  0  0  0  0  0  0  0  0  0  0
   18.6355   -3.1820    7.1283 C   0  0  0  0  0  0  0  0  0  0  0  0
   19.6756   -1.8899    5.4319 C   0  0  0  0  0  0  0  0  0  0  0  0
   19.8063   -3.6618    9.2128 C   0  0  0  0  0  0  0  0  0  0  0  0
   18.2137   -7.7297   14.7655 O   0  0  0  0  0  0  0  0  0  0  0  0
   18.2992   -7.5254   13.5395 C   0  0  0  0  0  0  0  0  0  0  0  0
   18.2136   -8.6107   12.5847 C   0  0  0  0  0  0  0  0  0  0  0  0
   18.1558   -8.3535   11.2754 C   0  0  0  0  0  0  0  0  0  0  0  0
   18.2321   -9.3049   10.2242 N   0  0  0  0  0  0  0  0  0  0  0  0
   18.7057  -10.6849   10.3370 C   0  0  0  0  0  0  0  0  0  0  0  0
   17.5459  -11.6569   10.0762 C   0  0  0  0  0  0  0  0  0  0  0  0
   16.8854  -11.3815    8.8424 O   0  0  0  0  0  0  0  0  0  0  0  0
   16.5194  -10.0163    8.6552 C   0  0  0  0  0  0  0  0  0  0  0  0
   18.3574   -7.0992   10.7875 O   0  0  0  0  0  0  0  0  0  0  0  0
   18.4707   -6.0354   11.6429 C   0  0  0  0  0  0  0  0  0  0  0  0
   18.6046   -4.7507   13.8283 S   0  0  0  0  0  0  0  0  0  0  0  0
   18.6343   -4.6442   11.2154 C   0  0  0  0  0  0  0  0  0  0  0  0
   17.4899   -4.1499    9.0323 C   0  0  0  0  0  0  0  0  0  0  0  0
   17.4686   -3.6806    7.7104 C   0  0  0  0  0  0  0  0  0  0  0  0
   18.5945   -2.7228    5.8351 O   0  0  0  0  0  0  0  0  0  0  0  0
   21.0124   -2.3970    5.9534 C   0  0  0  0  0  0  0  0  0  0  0  0
   20.9748   -2.7067    7.3508 O   0  0  0  0  0  0  0  0  0  0  0  0
   19.8142   -3.1751    7.8856 C   0  0  0  0  0  0  0  0  0  0  0  0
   17.3643   -8.0432    8.7695 H   0  0  0  0  0  0  0  0  0  0  0  0
   18.4749   -9.2927    8.1237 H   0  0  0  0  0  0  0  0  0  0  0  0
   18.8173   -2.7863   12.3116 H   0  0  0  0  0  0  0  0  0  0  0  0
   19.7111   -1.8614    4.3329 H   0  0  0  0  0  0  0  0  0  0  0  0
   19.5061   -0.8871    5.8511 H   0  0  0  0  0  0  0  0  0  0  0  0
   20.7437   -3.6302    9.7875 H   0  0  0  0  0  0  0  0  0  0  0  0
   18.1961   -9.6518   12.9394 H   0  0  0  0  0  0  0  0  0  0  0  0
   19.5014  -10.8593    9.5977 H   0  0  0  0  0  0  0  0  0  0  0  0
   19.0981  -10.8520   11.3509 H   0  0  0  0  0  0  0  0  0  0  0  0
   17.9421  -12.6826   10.0458 H   0  0  0  0  0  0  0  0  0  0  0  0
   16.8132  -11.5373   10.8880 H   0  0  0  0  0  0  0  0  0  0  0  0
   15.7248   -9.7587    9.3710 H   0  0  0  0  0  0  0  0  0  0  0  0
   16.1711   -9.8933    7.6191 H   0  0  0  0  0  0  0  0  0  0  0  0
   16.5487   -4.5116    9.4721 H   0  0  0  0  0  0  0  0  0  0  0  0
   16.5328   -3.7054    7.1327 H   0  0  0  0  0  0  0  0  0  0  0  0
   21.2856   -3.3063    5.3979 H   0  0  0  0  0  0  0  0  0  0  0  0
   21.7527   -1.5964    5.8087 H   0  0  0  0  0  0  0  0  0  0  0  0
  1 12  1  0
  1 16  1  0
  2  9  1  0
  2 18  2  0
  2 19  1  0
  3 19  1  0
  3 20  2  0
  4  7  2  0
  4 20  1  0
  4 21  1  0
  5 22  1  0
  5 23  1  0
  5 26  2  0
  6 23  1  0
  6 24  1  0
  7 26  1  0
  8  9  2  0
  9 10  1  0
 10 11  2  0
 11 12  1  0
 11 17  1  0
 12 13  1  0
 13 14  1  0
 14 15  1  0
 15 16  1  0
 17 18  1  0
 18 20  1  0
 21 22  2  0
 24 25  1  0
 25 26  1  0
  1 27  1  0
  1 28  1  0
  3 29  1  0
  6 30  1  0
  6 31  1  0
  7 32  1  0
 10 33  1  0
 13 34  1  0
 13 35  1  0
 14 36  1  0
 14 37  1  0
 16 38  1  0
 16 39  1  0
 21 40  1  0
 22 41  1  0
 24 42  1  0
 24 43  1  0
M  END
>  <filename_input>  (21) 
7USH_82V_docked.sdf

>  <pdb_id>  (21) 
7USH_82V

>  <pose_rank>  (21) 
20

>  <num_atoms_heavy>  (21) 
26

>  <num_torsions>  (21) 
2

>  <pose>  (21) 
[18.45206522266048, -6.222990746883585, 12.985017342476924, 0.45444533957760525, 2.0990825760552556, -0.31022804772617946, 1.8564053351514498, 2.618330119631923]

>  <energy>  (21) 
-472.67142702501206

>  <inter_energy>  (21) 
-485.03680935238884

>  <intra_energy>  (21) 
0.1080776484123046

>  <rmsd>  (21) 
4.59141

>  <sdf_rank>  (21) 
0

$$$$

     RDKit          3D

 43 47  0  0  0  0  0  0  0  0999 V2000
   16.7763   -5.2298    9.7489 C   0  0  0  0  0  0  0  0  0  0  0  0
   21.0008   -2.8870    8.5886 C   0  0  0  0  0  0  0  0  0  0  0  0
   22.5153   -3.0119   10.4999 C   0  0  0  0  0  0  0  0  0  0  0  0
   21.1752   -4.6246   11.9201 C   0  0  0  0  0  0  0  0  0  0  0  0
   20.6651   -6.1561   14.3089 C   0  0  0  0  0  0  0  0  0  0  0  0
   19.1580   -7.4472   15.6091 C   0  0  0  0  0  0  0  0  0  0  0  0
   20.0926   -5.5083   12.0288 C   0  0  0  0  0  0  0  0  0  0  0  0
   20.6620   -2.0110    6.4404 O   0  0  0  0  0  0  0  0  0  0  0  0
   20.2519   -2.7029    7.3918 C   0  0  0  0  0  0  0  0  0  0  0  0
   18.9851   -3.4013    7.3274 C   0  0  0  0  0  0  0  0  0  0  0  0
   18.6364   -4.2553    8.2934 C   0  0  0  0  0  0  0  0  0  0  0  0
   17.3724   -4.8831    8.4491 N   0  0  0  0  0  0  0  0  0  0  0  0
   16.5330   -5.4189    7.3770 C   0  0  0  0  0  0  0  0  0  0  0  0
   16.4289   -6.9451    7.5100 C   0  0  0  0  0  0  0  0  0  0  0  0
   16.0069   -7.3401    8.8138 O   0  0  0  0  0  0  0  0  0  0  0  0
   16.7331   -6.7372    9.8825 C   0  0  0  0  0  0  0  0  0  0  0  0
   19.3570   -4.3613    9.4430 O   0  0  0  0  0  0  0  0  0  0  0  0
   20.5518   -3.7041    9.5722 C   0  0  0  0  0  0  0  0  0  0  0  0
   22.5054   -2.1933    8.9848 S   0  0  0  0  0  0  0  0  0  0  0  0
   21.4244   -3.7976   10.7447 C   0  0  0  0  0  0  0  0  0  0  0  0
   21.9773   -4.5255   13.0865 C   0  0  0  0  0  0  0  0  0  0  0  0
   21.7485   -5.2776   14.2486 C   0  0  0  0  0  0  0  0  0  0  0  0
   20.4543   -6.8804   15.4560 O   0  0  0  0  0  0  0  0  0  0  0  0
   18.6321   -8.0305   14.3055 C   0  0  0  0  0  0  0  0  0  0  0  0
   18.7718   -7.1267   13.2039 O   0  0  0  0  0  0  0  0  0  0  0  0
   19.8322   -6.2737   13.1884 C   0  0  0  0  0  0  0  0  0  0  0  0
   17.3859   -4.8046   10.5598 H   0  0  0  0  0  0  0  0  0  0  0  0
   15.7571   -4.8208    9.8123 H   0  0  0  0  0  0  0  0  0  0  0  0
   23.3410   -2.9095   11.2194 H   0  0  0  0  0  0  0  0  0  0  0  0
   19.2072   -8.2478   16.3619 H   0  0  0  0  0  0  0  0  0  0  0  0
   18.4724   -6.6464   15.9236 H   0  0  0  0  0  0  0  0  0  0  0  0
   19.4128   -5.6112   11.1701 H   0  0  0  0  0  0  0  0  0  0  0  0
   18.3067   -3.2276    6.4791 H   0  0  0  0  0  0  0  0  0  0  0  0
   15.5278   -4.9772    7.4451 H   0  0  0  0  0  0  0  0  0  0  0  0
   16.9829   -5.1692    6.4048 H   0  0  0  0  0  0  0  0  0  0  0  0
   15.7016   -7.3171    6.7733 H   0  0  0  0  0  0  0  0  0  0  0  0
   17.4277   -7.3706    7.3326 H   0  0  0  0  0  0  0  0  0  0  0  0
   17.7624   -7.1253    9.8777 H   0  0  0  0  0  0  0  0  0  0  0  0
   16.2237   -6.9837   10.8257 H   0  0  0  0  0  0  0  0  0  0  0  0
   22.8230   -3.8221   13.0792 H   0  0  0  0  0  0  0  0  0  0  0  0
   22.4224   -5.1750   15.1119 H   0  0  0  0  0  0  0  0  0  0  0  0
   19.1913   -8.9505   14.0800 H   0  0  0  0  0  0  0  0  0  0  0  0
   17.5588   -8.2314   14.4386 H   0  0  0  0  0  0  0  0  0  0  0  0
  1 12  1  0
  1 16  1  0
  2  9  1  0
  2 18  2  0
  2 19  1  0
  3 19  1  0
  3 20  2  0
  4  7  2  0
  4 20  1  0
  4 21  1  0
  5 22  1  0
  5 23  1  0
  5 26  2  0
  6 23  1  0
  6 24  1  0
  7 26  1  0
  8  9  2  0
  9 10  1  0
 10 11  2  0
 11 12  1  0
 11 17  1  0
 12 13  1  0
 13 14  1  0
 14 15  1  0
 15 16  1  0
 17 18  1  0
 18 20  1  0
 21 22  2  0
 24 25  1  0
 25 26  1  0
  1 27  1  0
  1 28  1  0
  3 29  1  0
  6 30  1  0
  6 31  1  0
  7 32  1  0
 10 33  1  0
 13 34  1  0
 13 35  1  0
 14 36  1  0
 14 37  1  0
 16 38  1  0
 16 39  1  0
 21 40  1  0
 22 41  1  0
 24 42  1  0
 24 43  1  0
M  END
>  <filename_input>  (22) 
7USH_82V_docked.sdf

>  <pdb_id>  (22) 
7USH_82V

>  <pose_rank>  (22) 
21

>  <num_atoms_heavy>  (22) 
26

>  <num_torsions>  (22) 
2

>  <pose>  (22) 
[21.000819873725867, -2.886981973006956, 8.588619686264021, -1.2221433689558383, 2.9209105084978444, 3.3561172453531984, -2.3987834868566935, -2.6933803918049057]

>  <energy>  (22) 
-359.4188314847665

>  <inter_energy>  (22) 
-368.3276612741699

>  <intra_energy>  (22) 
13.78828714381993

>  <rmsd>  (22) 
6.23936

>  <sdf_rank>  (22) 
0

$$$$

     RDKit          3D

 43 47  0  0  0  0  0  0  0  0999 V2000
   17.6883   -8.0321   10.6087 C   0  0  0  0  0  0  0  0  0  0  0  0
   15.7351   -5.6090    6.7151 C   0  0  0  0  0  0  0  0  0  0  0  0
   16.5290   -3.3346    6.3163 C   0  0  0  0  0  0  0  0  0  0  0  0
   18.6576   -3.4480    7.6837 C   0  0  0  0  0  0  0  0  0  0  0  0
   21.0589   -2.3007    8.7924 C   0  0  0  0  0  0  0  0  0  0  0  0
   22.5894   -2.1491   10.5990 C   0  0  0  0  0  0  0  0  0  0  0  0
   19.3228   -4.0130    8.7805 C   0  0  0  0  0  0  0  0  0  0  0  0
   14.0877   -7.2005    6.2153 O   0  0  0  0  0  0  0  0  0  0  0  0
   15.1292   -6.8926    6.8257 C   0  0  0  0  0  0  0  0  0  0  0  0
   15.8184   -7.8440    7.6722 C   0  0  0  0  0  0  0  0  0  0  0  0
   17.0098   -7.5418    8.1947 C   0  0  0  0  0  0  0  0  0  0  0  0
   17.7235   -8.2976    9.1619 N   0  0  0  0  0  0  0  0  0  0  0  0
   18.7094   -9.3439    8.8890 C   0  0  0  0  0  0  0  0  0  0  0  0
   20.0963   -8.8908    9.3677 C   0  0  0  0  0  0  0  0  0  0  0  0
   20.0792   -8.4670   10.7295 O   0  0  0  0  0  0  0  0  0  0  0  0
   19.0486   -7.5350   11.0497 C   0  0  0  0  0  0  0  0  0  0  0  0
   17.5272   -6.2862    8.1064 O   0  0  0  0  0  0  0  0  0  0  0  0
   16.9063   -5.3357    7.3401 C   0  0  0  0  0  0  0  0  0  0  0  0
   15.1698   -4.2710    5.8251 S   0  0  0  0  0  0  0  0  0  0  0  0
   17.4121   -3.9761    7.1383 C   0  0  0  0  0  0  0  0  0  0  0  0
   19.2445   -2.2557    7.1860 C   0  0  0  0  0  0  0  0  0  0  0  0
   20.4215   -1.6973    7.7068 C   0  0  0  0  0  0  0  0  0  0  0  0
   22.2072   -1.7375    9.2915 O   0  0  0  0  0  0  0  0  0  0  0  0
   22.3946   -3.6441   10.8068 C   0  0  0  0  0  0  0  0  0  0  0  0
   21.1027   -4.0934   10.3837 O   0  0  0  0  0  0  0  0  0  0  0  0
   20.5057   -3.4696    9.3317 C   0  0  0  0  0  0  0  0  0  0  0  0
   16.9278   -7.2675   10.8254 H   0  0  0  0  0  0  0  0  0  0  0  0
   17.4353   -8.9552   11.1508 H   0  0  0  0  0  0  0  0  0  0  0  0
   16.6758   -2.2939    5.9915 H   0  0  0  0  0  0  0  0  0  0  0  0
   23.6509   -1.9047   10.7520 H   0  0  0  0  0  0  0  0  0  0  0  0
   21.9507   -1.6200   11.3216 H   0  0  0  0  0  0  0  0  0  0  0  0
   18.9041   -4.9234    9.2344 H   0  0  0  0  0  0  0  0  0  0  0  0
   15.3585   -8.8202    7.8859 H   0  0  0  0  0  0  0  0  0  0  0  0
   18.4223  -10.2634    9.4202 H   0  0  0  0  0  0  0  0  0  0  0  0
   18.7442   -9.5361    7.8065 H   0  0  0  0  0  0  0  0  0  0  0  0
   20.7991   -9.7308    9.2660 H   0  0  0  0  0  0  0  0  0  0  0  0
   20.4066   -8.0355    8.7495 H   0  0  0  0  0  0  0  0  0  0  0  0
   19.2608   -6.5812   10.5445 H   0  0  0  0  0  0  0  0  0  0  0  0
   19.0295   -7.4064   12.1420 H   0  0  0  0  0  0  0  0  0  0  0  0
   18.7507   -1.7424    6.3478 H   0  0  0  0  0  0  0  0  0  0  0  0
   20.8419   -0.7843    7.2599 H   0  0  0  0  0  0  0  0  0  0  0  0
   23.1615   -4.1829   10.2310 H   0  0  0  0  0  0  0  0  0  0  0  0
   22.4817   -3.8455   11.8847 H   0  0  0  0  0  0  0  0  0  0  0  0
  1 12  1  0
  1 16  1  0
  2  9  1  0
  2 18  2  0
  2 19  1  0
  3 19  1  0
  3 20  2  0
  4  7  2  0
  4 20  1  0
  4 21  1  0
  5 22  1  0
  5 23  1  0
  5 26  2  0
  6 23  1  0
  6 24  1  0
  7 26  1  0
  8  9  2  0
  9 10  1  0
 10 11  2  0
 11 12  1  0
 11 17  1  0
 12 13  1  0
 13 14  1  0
 14 15  1  0
 15 16  1  0
 17 18  1  0
 18 20  1  0
 21 22  2  0
 24 25  1  0
 25 26  1  0
  1 27  1  0
  1 28  1  0
  3 29  1  0
  6 30  1  0
  6 31  1  0
  7 32  1  0
 10 33  1  0
 13 34  1  0
 13 35  1  0
 14 36  1  0
 14 37  1  0
 16 38  1  0
 16 39  1  0
 21 40  1  0
 22 41  1  0
 24 42  1  0
 24 43  1  0
M  END
>  <filename_input>  (23) 
7USH_82V_docked.sdf

>  <pdb_id>  (23) 
7USH_82V

>  <pose_rank>  (23) 
22

>  <num_atoms_heavy>  (23) 
26

>  <num_torsions>  (23) 
2

>  <pose>  (23) 
[15.735133561851743, -5.608951344933767, 6.715136069775941, 0.6642028017970131, 7.6806715405761405, 9.978108429788353, -2.8260931148922532, -1.794796946063554]

>  <energy>  (23) 
-1271.865296260047

>  <inter_energy>  (23) 
-1286.4808479746855

>  <intra_energy>  (23) 
11.854557467794193

>  <rmsd>  (23) 
1.90208

>  <sdf_rank>  (23) 
0

$$$$

     RDKit          3D

 43 47  0  0  0  0  0  0  0  0999 V2000
   21.3729   -2.6935    7.1312 C   0  0  0  0  0  0  0  0  0  0  0  0
   23.2060    1.9157    7.5733 C   0  0  0  0  0  0  0  0  0  0  0  0
   25.1919    1.8076    8.9898 C   0  0  0  0  0  0  0  0  0  0  0  0
   25.3247   -0.7093    9.2372 C   0  0  0  0  0  0  0  0  0  0  0  0
   26.3791   -3.2323   10.1506 C   0  0  0  0  0  0  0  0  0  0  0  0
   27.6610   -5.1780    9.7033 C   0  0  0  0  0  0  0  0  0  0  0  0
   26.3820   -1.3609    8.5873 C   0  0  0  0  0  0  0  0  0  0  0  0
   21.7632    3.3139    6.3647 O   0  0  0  0  0  0  0  0  0  0  0  0
   22.0786    2.1690    6.7414 C   0  0  0  0  0  0  0  0  0  0  0  0
   21.3285    1.0028    6.3242 C   0  0  0  0  0  0  0  0  0  0  0  0
   21.7718   -0.2231    6.6151 C   0  0  0  0  0  0  0  0  0  0  0  0
   21.0720   -1.4427    6.4173 N   0  0  0  0  0  0  0  0  0  0  0  0
   20.0615   -1.7054    5.3920 C   0  0  0  0  0  0  0  0  0  0  0  0
   20.5850   -2.7556    4.4015 C   0  0  0  0  0  0  0  0  0  0  0  0
   21.0426   -3.9330    5.0637 O   0  0  0  0  0  0  0  0  0  0  0  0
   21.9381   -3.6961    6.1477 C   0  0  0  0  0  0  0  0  0  0  0  0
   22.8240   -0.4180    7.4558 O   0  0  0  0  0  0  0  0  0  0  0  0
   23.5569    0.6491    7.9038 C   0  0  0  0  0  0  0  0  0  0  0  0
   24.2726    3.0603    8.2473 S   0  0  0  0  0  0  0  0  0  0  0  0
   24.7365    0.5391    8.7648 C   0  0  0  0  0  0  0  0  0  0  0  0
   24.8009   -1.4045   10.3579 C   0  0  0  0  0  0  0  0  0  0  0  0
   25.3162   -2.6244   10.8212 C   0  0  0  0  0  0  0  0  0  0  0  0
   26.8673   -4.4282   10.6159 O   0  0  0  0  0  0  0  0  0  0  0  0
   28.6136   -4.2921    8.9134 C   0  0  0  0  0  0  0  0  0  0  0  0
   27.9607   -3.1487    8.3508 O   0  0  0  0  0  0  0  0  0  0  0  0
   26.9175   -2.5935    9.0259 C   0  0  0  0  0  0  0  0  0  0  0  0
   22.1101   -2.4980    7.9239 H   0  0  0  0  0  0  0  0  0  0  0  0
   20.4542   -3.0938    7.5848 H   0  0  0  0  0  0  0  0  0  0  0  0
   26.0824    2.0140    9.6017 H   0  0  0  0  0  0  0  0  0  0  0  0
   28.2490   -5.9166   10.2679 H   0  0  0  0  0  0  0  0  0  0  0  0
   26.9840   -5.6697    8.9892 H   0  0  0  0  0  0  0  0  0  0  0  0
   26.8159   -0.8904    7.6927 H   0  0  0  0  0  0  0  0  0  0  0  0
   20.3893    1.1270    5.7652 H   0  0  0  0  0  0  0  0  0  0  0  0
   19.1447   -2.0801    5.8706 H   0  0  0  0  0  0  0  0  0  0  0  0
   19.8431   -0.7732    4.8506 H   0  0  0  0  0  0  0  0  0  0  0  0
   19.7730   -3.0290    3.7116 H   0  0  0  0  0  0  0  0  0  0  0  0
   21.4364   -2.3175    3.8601 H   0  0  0  0  0  0  0  0  0  0  0  0
   22.8867   -3.3080    5.7482 H   0  0  0  0  0  0  0  0  0  0  0  0
   22.0939   -4.6470    6.6782 H   0  0  0  0  0  0  0  0  0  0  0  0
   23.9458   -0.9639   10.8914 H   0  0  0  0  0  0  0  0  0  0  0  0
   24.8829   -3.1017   11.7125 H   0  0  0  0  0  0  0  0  0  0  0  0
   29.4129   -3.9465    9.5855 H   0  0  0  0  0  0  0  0  0  0  0  0
   29.0143   -4.8905    8.0820 H   0  0  0  0  0  0  0  0  0  0  0  0
  1 12  1  0
  1 16  1  0
  2  9  1  0
  2 18  2  0
  2 19  1  0
  3 19  1  0
  3 20  2  0
  4  7  2  0
  4 20  1  0
  4 21  1  0
  5 22  1  0
  5 23  1  0
  5 26  2  0
  6 23  1  0
  6 24  1  0
  7 26  1  0
  8  9  2  0
  9 10  1  0
 10 11  2  0
 11 12  1  0
 11 17  1  0
 12 13  1  0
 13 14  1  0
 14 15  1  0
 15 16  1  0
 17 18  1  0
 18 20  1  0
 21 22  2  0
 24 25  1  0
 25 26  1  0
  1 27  1  0
  1 28  1  0
  3 29  1  0
  6 30  1  0
  6 31  1  0
  7 32  1  0
 10 33  1  0
 13 34  1  0
 13 35  1  0
 14 36  1  0
 14 37  1  0
 16 38  1  0
 16 39  1  0
 21 40  1  0
 22 41  1  0
 24 42  1  0
 24 43  1  0
M  END
>  <filename_input>  (24) 
7USH_82V_docked.sdf

>  <pdb_id>  (24) 
7USH_82V

>  <pose_rank>  (24) 
23

>  <num_atoms_heavy>  (24) 
26

>  <num_torsions>  (24) 
2

>  <pose>  (24) 
[23.20595170716223, 1.915742820520422, 7.57328782989813, -3.300205220967504, 1.0497379213592173, 3.401056420303849, -0.8295464318114817, -2.8884373492524364]

>  <energy>  (24) 
-246.9741009835481

>  <inter_energy>  (24) 
-238.07375063923882

>  <intra_energy>  (24) 
0.0

>  <rmsd>  (24) 
8.52944

>  <sdf_rank>  (24) 
0

$$$$

     RDKit          3D

 43 47  0  0  0  0  0  0  0  0999 V2000
   26.1521  -10.5314   13.3020 C   0  0  0  0  0  0  0  0  0  0  0  0
   22.4064   -7.0116   12.3470 C   0  0  0  0  0  0  0  0  0  0  0  0
   22.3157   -4.5775   12.1766 C   0  0  0  0  0  0  0  0  0  0  0  0
   24.7740   -4.0958   12.5482 C   0  0  0  0  0  0  0  0  0  0  0  0
   27.0168   -2.2956   12.7510 C   0  0  0  0  0  0  0  0  0  0  0  0
   28.4599   -0.9961   14.1141 C   0  0  0  0  0  0  0  0  0  0  0  0
   25.4483   -3.8692   13.7559 C   0  0  0  0  0  0  0  0  0  0  0  0
   21.1902   -9.0102   12.1935 O   0  0  0  0  0  0  0  0  0  0  0  0
   22.2717   -8.4280   12.4021 C   0  0  0  0  0  0  0  0  0  0  0  0
   23.4851   -9.1659   12.6846 C   0  0  0  0  0  0  0  0  0  0  0  0
   24.6586   -8.5319   12.7547 C   0  0  0  0  0  0  0  0  0  0  0  0
   25.8944   -9.0881   13.1784 N   0  0  0  0  0  0  0  0  0  0  0  0
   27.0450   -8.3482   13.6978 C   0  0  0  0  0  0  0  0  0  0  0  0
   27.2751   -8.7102   15.1722 C   0  0  0  0  0  0  0  0  0  0  0  0
   27.3704  -10.1199   15.3674 O   0  0  0  0  0  0  0  0  0  0  0  0
   26.3217  -10.8761   14.7664 C   0  0  0  0  0  0  0  0  0  0  0  0
   24.7343   -7.1731   12.7479 O   0  0  0  0  0  0  0  0  0  0  0  0
   23.6148   -6.4203   12.5105 C   0  0  0  0  0  0  0  0  0  0  0  0
   21.1786   -5.8657   12.0615 S   0  0  0  0  0  0  0  0  0  0  0  0
   23.6036   -4.9580   12.4292 C   0  0  0  0  0  0  0  0  0  0  0  0
   25.2658   -3.3481   11.4469 C   0  0  0  0  0  0  0  0  0  0  0  0
   26.3662   -2.4818   11.5299 C   0  0  0  0  0  0  0  0  0  0  0  0
   28.0891   -1.4405   12.8141 O   0  0  0  0  0  0  0  0  0  0  0  0
   28.3970   -2.1180   15.1406 C   0  0  0  0  0  0  0  0  0  0  0  0
   27.1685   -2.8509   15.0783 O   0  0  0  0  0  0  0  0  0  0  0  0
   26.5550   -2.9973   13.8723 C   0  0  0  0  0  0  0  0  0  0  0  0
   25.3038  -11.0948   12.8859 H   0  0  0  0  0  0  0  0  0  0  0  0
   27.0655  -10.7955   12.7489 H   0  0  0  0  0  0  0  0  0  0  0  0
   22.0259   -3.5234   12.0554 H   0  0  0  0  0  0  0  0  0  0  0  0
   29.4879   -0.6067   14.0764 H   0  0  0  0  0  0  0  0  0  0  0  0
   27.7490   -0.2149   14.4213 H   0  0  0  0  0  0  0  0  0  0  0  0
   25.0995   -4.3953   14.6568 H   0  0  0  0  0  0  0  0  0  0  0  0
   23.4402  -10.2536   12.8421 H   0  0  0  0  0  0  0  0  0  0  0  0
   27.9402   -8.6087   13.1140 H   0  0  0  0  0  0  0  0  0  0  0  0
   26.8494   -7.2688   13.6155 H   0  0  0  0  0  0  0  0  0  0  0  0
   28.2101   -8.2406   15.5115 H   0  0  0  0  0  0  0  0  0  0  0  0
   26.4137   -8.3445   15.7504 H   0  0  0  0  0  0  0  0  0  0  0  0
   25.3805  -10.6627   15.2943 H   0  0  0  0  0  0  0  0  0  0  0  0
   26.5816  -11.9423   14.8401 H   0  0  0  0  0  0  0  0  0  0  0  0
   24.7574   -3.4533   10.4771 H   0  0  0  0  0  0  0  0  0  0  0  0
   26.7163   -1.9495   10.6332 H   0  0  0  0  0  0  0  0  0  0  0  0
   29.2309   -2.8114   14.9566 H   0  0  0  0  0  0  0  0  0  0  0  0
   28.4630   -1.6612   16.1390 H   0  0  0  0  0  0  0  0  0  0  0  0
  1 12  1  0
  1 16  1  0
  2  9  1  0
  2 18  2  0
  2 19  1  0
  3 19  1  0
  3 20  2  0
  4  7  2  0
  4 20  1  0
  4 21  1  0
  5 22  1  0
  5 23  1  0
  5 26  2  0
  6 23  1  0
  6 24  1  0
  7 26  1  0
  8  9  2  0
  9 10  1  0
 10 11  2  0
 11 12  1  0
 11 17  1  0
 12 13  1  0
 13 14  1  0
 14 15  1  0
 15 16  1  0
 17 18  1  0
 18 20  1  0
 21 22  2  0
 24 25  1  0
 25 26  1  0
  1 27  1  0
  1 28  1  0
  3 29  1  0
  6 30  1  0
  6 31  1  0
  7 32  1  0
 10 33  1  0
 13 34  1  0
 13 35  1  0
 14 36  1  0
 14 37  1  0
 16 38  1  0
 16 39  1  0
 21 40  1  0
 22 41  1  0
 24 42  1  0
 24 43  1  0
M  END
>  <filename_input>  (25) 
7USH_82V_docked.sdf

>  <pdb_id>  (25) 
7USH_82V

>  <pose_rank>  (25) 
24

>  <num_atoms_heavy>  (25) 
26

>  <num_torsions>  (25) 
2

>  <pose>  (25) 
[22.406382596572726, -7.011639483587424, 12.34696841803929, 1.8967645899457524, 5.272077573501171, 3.9982557385262423, 2.5524679349445787, -6.131958519688426]

>  <energy>  (25) 
-105.30468728065817

>  <inter_energy>  (25) 
-91.50512435420852

>  <intra_energy>  (25) 
0.15838980432679445

>  <rmsd>  (25) 
8.6989

>  <sdf_rank>  (25) 
0

$$$$

     RDKit          3D

 43 47  0  0  0  0  0  0  0  0999 V2000
   17.1710   -9.6520    9.6910 C   0  0  0  0  0  0  0  0  0  0  0  0
   15.8090   -5.5910    6.7180 C   0  0  0  0  0  0  0  0  0  0  0  0
   16.6900   -3.3460    6.3360 C   0  0  0  0  0  0  0  0  0  0  0  0
   18.7770   -3.5280    7.7590 C   0  0  0  0  0  0  0  0  0  0  0  0
   21.2840   -2.6820    8.9040 C   0  0  0  0  0  0  0  0  0  0  0  0
   23.4490   -1.7620    8.5950 C   0  0  0  0  0  0  0  0  0  0  0  0
   19.6690   -2.6890    7.0770 C   0  0  0  0  0  0  0  0  0  0  0  0
   14.1220   -7.1270    6.1780 O   0  0  0  0  0  0  0  0  0  0  0  0
   15.1570   -6.8530    6.8150 C   0  0  0  0  0  0  0  0  0  0  0  0
   15.7910   -7.8250    7.6810 C   0  0  0  0  0  0  0  0  0  0  0  0
   16.9780   -7.5620    8.2340 C   0  0  0  0  0  0  0  0  0  0  0  0
   17.6400   -8.3390    9.2210 N   0  0  0  0  0  0  0  0  0  0  0  0
   18.7840   -7.9190   10.0310 C   0  0  0  0  0  0  0  0  0  0  0  0
   18.3710   -7.8250   11.5070 C   0  0  0  0  0  0  0  0  0  0  0  0
   17.7590   -9.0280   11.9680 O   0  0  0  0  0  0  0  0  0  0  0  0
   16.7180   -9.5250   11.1300 C   0  0  0  0  0  0  0  0  0  0  0  0
   17.5400   -6.3250    8.1570 O   0  0  0  0  0  0  0  0  0  0  0  0
   16.9720   -5.3560    7.3730 C   0  0  0  0  0  0  0  0  0  0  0  0
   15.3130   -4.2370    5.8110 S   0  0  0  0  0  0  0  0  0  0  0  0
   17.5290   -4.0150    7.1820 C   0  0  0  0  0  0  0  0  0  0  0  0
   19.2210   -3.9470    9.0400 C   0  0  0  0  0  0  0  0  0  0  0  0
   20.4310   -3.5290    9.6140 C   0  0  0  0  0  0  0  0  0  0  0  0
   22.4660   -2.2870    9.4800 O   0  0  0  0  0  0  0  0  0  0  0  0
   22.8400   -0.8440    7.5450 C   0  0  0  0  0  0  0  0  0  0  0  0
   21.6970   -1.4230    6.9060 O   0  0  0  0  0  0  0  0  0  0  0  0
   20.8980   -2.2570    7.6260 C   0  0  0  0  0  0  0  0  0  0  0  0
   16.3296   -9.9884    9.0674 H   0  0  0  0  0  0  0  0  0  0  0  0
   17.9872  -10.3861    9.6208 H   0  0  0  0  0  0  0  0  0  0  0  0
   16.8806   -2.3118    6.0133 H   0  0  0  0  0  0  0  0  0  0  0  0
   24.1856   -1.1922    9.1804 H   0  0  0  0  0  0  0  0  0  0  0  0
   23.9222   -2.6071    8.0736 H   0  0  0  0  0  0  0  0  0  0  0  0
   19.3997   -2.3503    6.0657 H   0  0  0  0  0  0  0  0  0  0  0  0
   15.2928   -8.7844    7.8844 H   0  0  0  0  0  0  0  0  0  0  0  0
   19.5956   -8.6539    9.9252 H   0  0  0  0  0  0  0  0  0  0  0  0
   19.1293   -6.9327    9.6874 H   0  0  0  0  0  0  0  0  0  0  0  0
   19.2664   -7.6266   12.1144 H   0  0  0  0  0  0  0  0  0  0  0  0
   17.6368   -7.0116   11.6033 H   0  0  0  0  0  0  0  0  0  0  0  0
   15.8633   -8.8340   11.1751 H   0  0  0  0  0  0  0  0  0  0  0  0
   16.4353  -10.5251   11.4904 H   0  0  0  0  0  0  0  0  0  0  0  0
   18.5829   -4.6358    9.6131 H   0  0  0  0  0  0  0  0  0  0  0  0
   20.7075   -3.8685   10.6231 H   0  0  0  0  0  0  0  0  0  0  0  0
   22.5346    0.0942    8.0313 H   0  0  0  0  0  0  0  0  0  0  0  0
   23.6023   -0.6695    6.7714 H   0  0  0  0  0  0  0  0  0  0  0  0
  1 12  1  0
  1 16  1  0
  2  9  1  0
  2 18  2  0
  2 19  1  0
  3 19  1  0
  3 20  2  0
  4  7  2  0
  4 20  1  0
  4 21  1  0
  5 22  1  0
  5 23  1  0
  5 26  2  0
  6 23  1  0
  6 24  1  0
  7 26  1  0
  8  9  2  0
  9 10  1  0
 10 11  2  0
 11 12  1  0
 11 17  1  0
 12 13  1  0
 13 14  1  0
 14 15  1  0
 15 16  1  0
 17 18  1  0
 18 20  1  0
 21 22  2  0
 24 25  1  0
 25 26  1  0
  1 27  1  0
  1 28  1  0
  3 29  1  0
  6 30  1  0
  6 31  1  0
  7 32  1  0
 10 33  1  0
 13 34  1  0
 13 35  1  0
 14 36  1  0
 14 37  1  0
 16 38  1  0
 16 39  1  0
 21 40  1  0
 22 41  1  0
 24 42  1  0
 24 43  1  0
M  END
>  <filename_input>  (26) 
7USH_82V_docked.sdf

>  <pdb_id>  (26) 
7USH_82V

>  <pose_rank>  (26) 
25

>  <num_atoms_heavy>  (26) 
26

>  <num_torsions>  (26) 
2

>  <pose>  (26) 
[15.809, -5.591, 6.718, 1e-06, 1e-06, 1e-06, 0.0, 0.0]

>  <energy>  (26) 
-1382.1115322144472

>  <inter_energy>  (26) 
-1408.5662502043522

>  <intra_energy>  (26) 
9.304807171306729

>  <rmsd>  (26) 
0.0

>  <sdf_rank>  (26) 
0

$$$$
