
     RDKit          3D

 71 75  0  0  0  0  0  0  0  0999 V2000
   30.9233   -4.1071  -37.7957 P   0  0  2  0  0  0  0  0  0  0  0  0
   31.5397   -4.8298  -38.9694 O   0  0  0  0  0  0  0  0  0  0  0  0
   30.9496   -2.6077  -37.7738 O   0  0  0  0  0  0  0  0  0  0  0  0
   31.6136   -4.6081  -36.4387 O   0  0  0  0  0  0  0  0  0  0  0  0
   31.7351   -3.7079  -35.3584 C   0  0  0  0  0  0  0  0  0  0  0  0
   33.0650   -4.0486  -34.6004 C   0  0  1  0  0  0  0  0  0  0  0  0
   34.0033   -4.3587  -35.5439 O   0  0  0  0  0  0  0  0  0  0  0  0
   33.6057   -2.8661  -33.7371 C   0  0  1  0  0  0  0  0  0  0  0  0
   33.7005   -3.2062  -32.4000 O   0  0  0  0  0  0  0  0  0  0  0  0
   34.9796   -2.5887  -34.4176 C   0  0  1  0  0  0  0  0  0  0  0  0
   35.9832   -2.0998  -33.4676 O   0  0  0  0  0  0  0  0  0  0  0  0
   35.3220   -3.8180  -34.9972 C   0  0  2  0  0  0  0  0  0  0  0  0
   36.2350   -3.7397  -36.1492 N   0  0  0  0  0  0  0  0  0  0  0  0
   37.3944   -4.4352  -36.2603 C   0  0  0  0  0  0  0  0  0  0  0  0
   37.9483   -4.1562  -37.4752 N   0  0  0  0  0  0  0  0  0  0  0  0
   37.1252   -3.2700  -38.0637 C   0  0  0  0  0  0  0  0  0  0  0  0
   37.1790   -2.6049  -39.2660 C   0  0  0  0  0  0  0  0  0  0  0  0
   38.1780   -2.7001  -40.2931 N   0  0  0  0  0  0  0  0  0  0  0  0
   36.2411   -1.7663  -39.5716 N   0  0  0  0  0  0  0  0  0  0  0  0
   35.1982   -1.4975  -38.7418 C   0  0  0  0  0  0  0  0  0  0  0  0
   35.1006   -2.1485  -37.5363 N   0  0  0  0  0  0  0  0  0  0  0  0
   36.0777   -2.9975  -37.2556 C   0  0  0  0  0  0  0  0  0  0  0  0
   29.4237   -4.6682  -37.7489 O   0  0  0  0  0  0  0  0  0  0  0  0
   28.2797   -4.7586  -38.8967 P   0  0  2  0  0  0  0  0  0  0  0  0
   28.7878   -5.4807  -40.0963 O   0  0  0  0  0  0  0  0  0  0  0  0
   27.5889   -3.4550  -39.0700 O   0  0  0  0  0  0  0  0  0  0  0  0
   27.3144   -5.8202  -38.1459 O   0  0  0  0  0  0  0  0  0  0  0  0
   27.3254   -5.8195  -36.7023 C   0  0  0  0  0  0  0  0  0  0  0  0
   27.1289   -7.2718  -36.2237 C   0  0  1  0  0  0  0  0  0  0  0  0
   25.8131   -7.6600  -36.3172 O   0  0  0  0  0  0  0  0  0  0  0  0
   28.0253   -8.2889  -36.9857 C   0  0  1  0  0  0  0  0  0  0  0  0
   28.5189   -9.3281  -36.1454 O   0  0  0  0  0  0  0  0  0  0  0  0
   26.9301   -8.9057  -37.8863 C   0  0  1  0  0  0  0  0  0  0  0  0
   27.3453  -10.1837  -38.4102 O   0  0  0  0  0  0  0  0  0  0  0  0
   25.8184   -9.0330  -37.0624 C   0  0  2  0  0  0  0  0  0  0  0  0
   24.5118   -9.0828  -37.6725 N   0  0  0  0  0  0  0  0  0  0  0  0
   23.5287   -9.8336  -36.9869 C   0  0  0  0  0  0  0  0  0  0  0  0
   22.1587   -9.8181  -37.4791 C   0  0  0  0  0  0  0  0  0  0  0  0
   21.0815  -10.5268  -36.7381 C   0  0  0  0  0  0  0  0  0  0  0  0
   20.0406  -10.7710  -37.3019 O   0  0  0  0  0  0  0  0  0  0  0  0
   21.3366  -10.8152  -35.3745 N   0  0  0  0  0  0  0  0  0  0  0  0
   21.8437   -9.2455  -38.8490 C   0  0  0  0  0  0  0  0  0  0  0  0
   22.8369   -8.2098  -39.2693 C   0  0  0  0  0  0  0  0  0  0  0  0
   24.2130   -8.2537  -38.7841 C   0  0  0  0  0  0  0  0  0  0  0  0
   31.7722   -2.6748  -35.7341 H   0  0  0  0  0  0  0  0  0  0  0  0
   30.8722   -3.7993  -34.6823 H   0  0  0  0  0  0  0  0  0  0  0  0
   32.8592   -4.8801  -33.9103 H   0  0  0  0  0  0  0  0  0  0  0  0
   32.9564   -1.9785  -33.7122 H   0  0  0  0  0  0  0  0  0  0  0  0
   33.4808   -2.4180  -31.8427 H   0  0  0  0  0  0  0  0  0  0  0  0
   34.9269   -1.7843  -35.1660 H   0  0  0  0  0  0  0  0  0  0  0  0
   35.6654   -2.2547  -32.5429 H   0  0  0  0  0  0  0  0  0  0  0  0
   35.8340   -4.4226  -34.2341 H   0  0  0  0  0  0  0  0  0  0  0  0
   37.8160   -5.1094  -35.5002 H   0  0  0  0  0  0  0  0  0  0  0  0
   38.0897   -2.1372  -41.1512 H   0  0  0  0  0  0  0  0  0  0  0  0
   38.9828   -3.3313  -40.1718 H   0  0  0  0  0  0  0  0  0  0  0  0
   34.4352   -0.7613  -39.0348 H   0  0  0  0  0  0  0  0  0  0  0  0
   28.2881   -5.4330  -36.3365 H   0  0  0  0  0  0  0  0  0  0  0  0
   26.5212   -5.1771  -36.3143 H   0  0  0  0  0  0  0  0  0  0  0  0
   27.4366   -7.2787  -35.1677 H   0  0  0  0  0  0  0  0  0  0  0  0
   28.9127   -7.8402  -37.4560 H   0  0  0  0  0  0  0  0  0  0  0  0
   28.3971   -9.0716  -35.1971 H   0  0  0  0  0  0  0  0  0  0  0  0
   26.7178   -8.2793  -38.7653 H   0  0  0  0  0  0  0  0  0  0  0  0
   27.5451  -10.7985  -37.6605 H   0  0  0  0  0  0  0  0  0  0  0  0
   25.9287   -9.9815  -36.5165 H   0  0  0  0  0  0  0  0  0  0  0  0
   23.7951  -10.4203  -36.0954 H   0  0  0  0  0  0  0  0  0  0  0  0
   20.6274  -11.3045  -34.8102 H   0  0  0  0  0  0  0  0  0  0  0  0
   22.2313  -10.5356  -34.9476 H   0  0  0  0  0  0  0  0  0  0  0  0
   21.8511  -10.0629  -39.5851 H   0  0  0  0  0  0  0  0  0  0  0  0
   20.8558   -8.7646  -38.7955 H   0  0  0  0  0  0  0  0  0  0  0  0
   22.5270   -7.4051  -39.9522 H   0  0  0  0  0  0  0  0  0  0  0  0
   25.0000   -7.6577  -39.2692 H   0  0  0  0  0  0  0  0  0  0  0  0
  1  2  2  0
  1  3  1  6
  1  4  1  0
  1 23  1  0
  4  5  1  0
  6  5  1  0
  6  7  1  0
  6  8  1  0
  7 12  1  0
  8  9  1  0
  8 10  1  0
 10 11  1  0
 10 12  1  0
 12 13  1  0
 13 14  1  0
 13 22  1  0
 14 15  2  0
 15 16  1  0
 16 17  2  0
 16 22  1  0
 17 18  1  0
 17 19  1  0
 19 20  2  0
 20 21  1  0
 21 22  2  0
 23 24  1  0
 24 25  1  6
 24 26  2  0
 24 27  1  0
 27 28  1  0
 29 28  1  0
 29 30  1  0
 29 31  1  0
 30 35  1  0
 31 32  1  0
 31 33  1  0
 33 34  1  0
 33 35  1  0
 35 36  1  0
 36 37  1  0
 36 44  1  0
 37 38  2  0
 38 39  1  0
 38 42  1  0
 39 40  2  0
 39 41  1  0
 42 43  1  0
 43 44  2  0
  5 45  1  0
  5 46  1  0
  6 47  1  1
  8 48  1  1
  9 49  1  0
 10 50  1  6
 11 51  1  0
 12 52  1  1
 14 53  1  0
 18 54  1  0
 18 55  1  0
 20 56  1  0
 28 57  1  0
 28 58  1  0
 29 59  1  1
 31 60  1  6
 32 61  1  0
 33 62  1  6
 34 63  1  0
 35 64  1  1
 37 65  1  0
 41 66  1  0
 41 67  1  0
 42 68  1  0
 42 69  1  0
 43 70  1  0
 44 71  1  0
M  CHG  2   3  -1  25  -1
M  END
>  <filename_input>  (1) 
7UTW_NAI_docked.sdf

>  <pdb_id>  (1) 
7UTW_NAI

>  <pose_rank>  (1) 
0

>  <num_atoms_heavy>  (1) 
44

>  <num_torsions>  (1) 
11

>  <pose>  (1) 
[30.92329954009787, -4.107085058703752, -37.795707627032634, -4.260570514441792, -2.4839417978204685, 2.0058081889906014, 9.424538202222854, 13.792990218176485, 10.16551118702124, 2.8936371261574423, 14.466798487981983, 30.76950593202302, -38.355282268191694, -12.137704529721415, 62.71716338188726, 6.299720095301154, -0.046095169353792986]

>  <energy>  (1) 
-1052.115164786069

>  <inter_energy>  (1) 
-1069.9296840937027

>  <intra_energy>  (1) 
22.955039795766957

>  <rmsd>  (1) 
3.90932

>  <sdf_rank>  (1) 
0

$$$$

     RDKit          3D

 71 75  0  0  0  0  0  0  0  0999 V2000
   29.0655   -4.4053  -38.6159 P   0  0  2  0  0  0  0  0  0  0  0  0
   29.4270   -3.0659  -38.0201 O   0  0  0  0  0  0  0  0  0  0  0  0
   29.1318   -4.5773  -40.1043 O   0  0  0  0  0  0  0  0  0  0  0  0
   27.5815   -4.8073  -38.1630 O   0  0  0  0  0  0  0  0  0  0  0  0
   27.0636   -6.0625  -38.5479 C   0  0  0  0  0  0  0  0  0  0  0  0
   27.1507   -7.0161  -37.3059 C   0  0  1  0  0  0  0  0  0  0  0  0
   25.8778   -7.4124  -37.0069 O   0  0  0  0  0  0  0  0  0  0  0  0
   28.0162   -8.2893  -37.5627 C   0  0  1  0  0  0  0  0  0  0  0  0
   29.0850   -8.3701  -36.6888 O   0  0  0  0  0  0  0  0  0  0  0  0
   26.9625   -9.4222  -37.3789 C   0  0  1  0  0  0  0  0  0  0  0  0
   27.5544  -10.6522  -36.8442 O   0  0  0  0  0  0  0  0  0  0  0  0
   26.0049   -8.8557  -36.5266 C   0  0  2  0  0  0  0  0  0  0  0  0
   24.6545   -9.4337  -36.6225 N   0  0  0  0  0  0  0  0  0  0  0  0
   24.1986  -10.4545  -35.8541 C   0  0  0  0  0  0  0  0  0  0  0  0
   22.8951  -10.6892  -36.1805 N   0  0  0  0  0  0  0  0  0  0  0  0
   22.5972   -9.8228  -37.1653 C   0  0  0  0  0  0  0  0  0  0  0  0
   21.4609   -9.6155  -37.9113 C   0  0  0  0  0  0  0  0  0  0  0  0
   20.1984  -10.2935  -37.8190 N   0  0  0  0  0  0  0  0  0  0  0  0
   21.4636   -8.7097  -38.8363 N   0  0  0  0  0  0  0  0  0  0  0  0
   22.5572   -7.9529  -39.1189 C   0  0  0  0  0  0  0  0  0  0  0  0
   23.7092   -8.1203  -38.3900 N   0  0  0  0  0  0  0  0  0  0  0  0
   23.6713   -9.0561  -37.4535 C   0  0  0  0  0  0  0  0  0  0  0  0
   30.0385   -5.4311  -37.8629 O   0  0  0  0  0  0  0  0  0  0  0  0
   31.2683   -5.1790  -36.8343 P   0  0  2  0  0  0  0  0  0  0  0  0
   32.1478   -6.3786  -36.7548 O   0  0  0  0  0  0  0  0  0  0  0  0
   30.7965   -4.5378  -35.5801 O   0  0  0  0  0  0  0  0  0  0  0  0
   32.0870   -4.1184  -37.7440 O   0  0  0  0  0  0  0  0  0  0  0  0
   33.4980   -3.9685  -37.4784 C   0  0  0  0  0  0  0  0  0  0  0  0
   33.6628   -2.9300  -36.3508 C   0  0  1  0  0  0  0  0  0  0  0  0
   33.8820   -3.5352  -35.1358 O   0  0  0  0  0  0  0  0  0  0  0  0
   34.7970   -1.9037  -36.6315 C   0  0  1  0  0  0  0  0  0  0  0  0
   34.4754   -0.5893  -36.1859 O   0  0  0  0  0  0  0  0  0  0  0  0
   35.8497   -2.4767  -35.6545 C   0  0  1  0  0  0  0  0  0  0  0  0
   36.8661   -1.4992  -35.3520 O   0  0  0  0  0  0  0  0  0  0  0  0
   35.1306   -2.8279  -34.5185 C   0  0  2  0  0  0  0  0  0  0  0  0
   35.6790   -3.8327  -33.6402 N   0  0  0  0  0  0  0  0  0  0  0  0
   35.3825   -3.6915  -32.2645 C   0  0  0  0  0  0  0  0  0  0  0  0
   35.7953   -4.7399  -31.3427 C   0  0  0  0  0  0  0  0  0  0  0  0
   35.4290   -4.6676  -29.9031 C   0  0  0  0  0  0  0  0  0  0  0  0
   34.2721   -4.8064  -29.5815 O   0  0  0  0  0  0  0  0  0  0  0  0
   36.4784   -4.3721  -28.9980 N   0  0  0  0  0  0  0  0  0  0  0  0
   36.7639   -5.8181  -31.7933 C   0  0  0  0  0  0  0  0  0  0  0  0
   36.6964   -6.0561  -33.2680 C   0  0  0  0  0  0  0  0  0  0  0  0
   36.3026   -4.9867  -34.1803 C   0  0  0  0  0  0  0  0  0  0  0  0
   26.0156   -5.9543  -38.8642 H   0  0  0  0  0  0  0  0  0  0  0  0
   27.6384   -6.4743  -39.3906 H   0  0  0  0  0  0  0  0  0  0  0  0
   27.6318   -6.4628  -36.4859 H   0  0  0  0  0  0  0  0  0  0  0  0
   28.5086   -8.3218  -38.5458 H   0  0  0  0  0  0  0  0  0  0  0  0
   28.7519   -8.3449  -35.7569 H   0  0  0  0  0  0  0  0  0  0  0  0
   26.5201   -9.7481  -38.3318 H   0  0  0  0  0  0  0  0  0  0  0  0
   27.5401  -10.6223  -35.8548 H   0  0  0  0  0  0  0  0  0  0  0  0
   26.3379   -9.0117  -35.4899 H   0  0  0  0  0  0  0  0  0  0  0  0
   24.7808  -11.0001  -35.0969 H   0  0  0  0  0  0  0  0  0  0  0  0
   19.4261  -10.0319  -38.4484 H   0  0  0  0  0  0  0  0  0  0  0  0
   20.0650  -11.0414  -37.1235 H   0  0  0  0  0  0  0  0  0  0  0  0
   22.5195   -7.2091  -39.9284 H   0  0  0  0  0  0  0  0  0  0  0  0
   33.9229   -4.9328  -37.1628 H   0  0  0  0  0  0  0  0  0  0  0  0
   34.0242   -3.6350  -38.3850 H   0  0  0  0  0  0  0  0  0  0  0  0
   32.7118   -2.3782  -36.3166 H   0  0  0  0  0  0  0  0  0  0  0  0
   35.0564   -1.8017  -37.6956 H   0  0  0  0  0  0  0  0  0  0  0  0
   34.4703   -0.5684  -35.1961 H   0  0  0  0  0  0  0  0  0  0  0  0
   36.3840   -3.3378  -36.0824 H   0  0  0  0  0  0  0  0  0  0  0  0
   36.9576   -1.4112  -34.3702 H   0  0  0  0  0  0  0  0  0  0  0  0
   35.0310   -1.9194  -33.9064 H   0  0  0  0  0  0  0  0  0  0  0  0
   34.8481   -2.8032  -31.8968 H   0  0  0  0  0  0  0  0  0  0  0  0
   36.2851   -4.3090  -27.9883 H   0  0  0  0  0  0  0  0  0  0  0  0
   37.4345   -4.2205  -29.3498 H   0  0  0  0  0  0  0  0  0  0  0  0
   37.7862   -5.5084  -31.5307 H   0  0  0  0  0  0  0  0  0  0  0  0
   36.4872   -6.7544  -31.2867 H   0  0  0  0  0  0  0  0  0  0  0  0
   36.9465   -7.0489  -33.6702 H   0  0  0  0  0  0  0  0  0  0  0  0
   36.4851   -5.0738  -35.2615 H   0  0  0  0  0  0  0  0  0  0  0  0
  1  2  2  0
  1  3  1  6
  1  4  1  0
  1 23  1  0
  4  5  1  0
  6  5  1  0
  6  7  1  0
  6  8  1  0
  7 12  1  0
  8  9  1  0
  8 10  1  0
 10 11  1  0
 10 12  1  0
 12 13  1  0
 13 14  1  0
 13 22  1  0
 14 15  2  0
 15 16  1  0
 16 17  2  0
 16 22  1  0
 17 18  1  0
 17 19  1  0
 19 20  2  0
 20 21  1  0
 21 22  2  0
 23 24  1  0
 24 25  1  1
 24 26  2  0
 24 27  1  0
 27 28  1  0
 29 28  1  0
 29 30  1  0
 29 31  1  0
 30 35  1  0
 31 32  1  0
 31 33  1  0
 33 34  1  0
 33 35  1  0
 35 36  1  0
 36 37  1  0
 36 44  1  0
 37 38  2  0
 38 39  1  0
 38 42  1  0
 39 40  2  0
 39 41  1  0
 42 43  1  0
 43 44  2  0
  5 45  1  0
  5 46  1  0
  6 47  1  1
  8 48  1  6
  9 49  1  0
 10 50  1  6
 11 51  1  0
 12 52  1  1
 14 53  1  0
 18 54  1  0
 18 55  1  0
 20 56  1  0
 28 57  1  0
 28 58  1  0
 29 59  1  1
 31 60  1  6
 32 61  1  0
 33 62  1  6
 34 63  1  0
 35 64  1  1
 37 65  1  0
 41 66  1  0
 41 67  1  0
 42 68  1  0
 42 69  1  0
 43 70  1  0
 44 71  1  0
M  CHG  2   3  -1  25  -1
M  END
>  <filename_input>  (2) 
7UTW_NAI_docked.sdf

>  <pdb_id>  (2) 
7UTW_NAI

>  <pose_rank>  (2) 
1

>  <num_atoms_heavy>  (2) 
44

>  <num_torsions>  (2) 
11

>  <pose>  (2) 
[29.065480980317137, -4.4053473459829515, -38.615875855041736, -0.5322530721066647, -0.7117864786595294, 1.6970131443825343, -2.533950775319005, -0.7143002898029677, -0.9968082156692303, 2.281604807909458, -3.5877335332753515, 1.8740850109277494, 2.373521279914426, 1.4637330800306037, -3.2901704078985854, -0.017148709063177062, -2.282202003313932]

>  <energy>  (2) 
-958.5765174532206

>  <inter_energy>  (2) 
-994.1060625709144

>  <intra_energy>  (2) 
37.915867722776476

>  <rmsd>  (2) 
11.8407

>  <sdf_rank>  (2) 
0

$$$$

     RDKit          3D

 71 75  0  0  0  0  0  0  0  0999 V2000
   31.0606   -4.0624  -38.0322 P   0  0  2  0  0  0  0  0  0  0  0  0
   31.4556   -5.2336  -37.1651 O   0  0  0  0  0  0  0  0  0  0  0  0
   30.8964   -4.2767  -39.5075 O   0  0  0  0  0  0  0  0  0  0  0  0
   32.1247   -2.8783  -37.8460 O   0  0  0  0  0  0  0  0  0  0  0  0
   33.5015   -3.1716  -37.9477 C   0  0  0  0  0  0  0  0  0  0  0  0
   34.2567   -2.2890  -36.8941 C   0  0  1  0  0  0  0  0  0  0  0  0
   34.2015   -2.9466  -35.6978 O   0  0  0  0  0  0  0  0  0  0  0  0
   35.7556   -2.0431  -37.2531 C   0  0  1  0  0  0  0  0  0  0  0  0
   36.0375   -0.6964  -37.3918 O   0  0  0  0  0  0  0  0  0  0  0  0
   36.4773   -2.7192  -36.0491 C   0  0  1  0  0  0  0  0  0  0  0  0
   37.7437   -2.0596  -35.7169 O   0  0  0  0  0  0  0  0  0  0  0  0
   35.5348   -2.6562  -35.0137 C   0  0  2  0  0  0  0  0  0  0  0  0
   35.6815   -3.6781  -33.9644 N   0  0  0  0  0  0  0  0  0  0  0  0
   36.1663   -4.9282  -34.1707 C   0  0  0  0  0  0  0  0  0  0  0  0
   36.2082   -5.5764  -32.9712 N   0  0  0  0  0  0  0  0  0  0  0  0
   35.7167   -4.7124  -32.0650 C   0  0  0  0  0  0  0  0  0  0  0  0
   35.4811   -4.8135  -30.7141 C   0  0  0  0  0  0  0  0  0  0  0  0
   35.7338   -5.9295  -29.8465 N   0  0  0  0  0  0  0  0  0  0  0  0
   34.9613   -3.8101  -30.0822 N   0  0  0  0  0  0  0  0  0  0  0  0
   34.6192   -2.6497  -30.7028 C   0  0  0  0  0  0  0  0  0  0  0  0
   34.8481   -2.5033  -32.0491 N   0  0  0  0  0  0  0  0  0  0  0  0
   35.3790   -3.5496  -32.6637 C   0  0  0  0  0  0  0  0  0  0  0  0
   29.7055   -3.5332  -37.3619 O   0  0  0  0  0  0  0  0  0  0  0  0
   28.1874   -4.1040  -37.4253 P   0  0  2  0  0  0  0  0  0  0  0  0
   27.8027   -4.4333  -38.8261 O   0  0  0  0  0  0  0  0  0  0  0  0
   27.2705   -3.2847  -36.5919 O   0  0  0  0  0  0  0  0  0  0  0  0
   28.4729   -5.5344  -36.7216 O   0  0  0  0  0  0  0  0  0  0  0  0
   28.3873   -6.7107  -37.5539 C   0  0  0  0  0  0  0  0  0  0  0  0
   27.9482   -7.8918  -36.6656 C   0  0  1  0  0  0  0  0  0  0  0  0
   26.5815   -7.9335  -36.5211 O   0  0  0  0  0  0  0  0  0  0  0  0
   28.4570   -9.2658  -37.1869 C   0  0  1  0  0  0  0  0  0  0  0  0
   28.8326  -10.1510  -36.1357 O   0  0  0  0  0  0  0  0  0  0  0  0
   27.1203   -9.7818  -37.7682 C   0  0  1  0  0  0  0  0  0  0  0  0
   27.1464  -11.2132  -37.9431 O   0  0  0  0  0  0  0  0  0  0  0  0
   26.1565   -9.4022  -36.8419 C   0  0  2  0  0  0  0  0  0  0  0  0
   24.7915   -9.2615  -37.2875 N   0  0  0  0  0  0  0  0  0  0  0  0
   24.5396   -8.2256  -38.2169 C   0  0  0  0  0  0  0  0  0  0  0  0
   23.2123   -8.1119  -38.8040 C   0  0  0  0  0  0  0  0  0  0  0  0
   22.9321   -7.0887  -39.8463 C   0  0  0  0  0  0  0  0  0  0  0  0
   21.8258   -6.6072  -39.9173 O   0  0  0  0  0  0  0  0  0  0  0  0
   23.9901   -6.7917  -40.7409 N   0  0  0  0  0  0  0  0  0  0  0  0
   22.0503   -8.9008  -38.2285 C   0  0  0  0  0  0  0  0  0  0  0  0
   22.5009  -10.1560  -37.5523 C   0  0  0  0  0  0  0  0  0  0  0  0
   23.8270  -10.2449  -36.9486 C   0  0  0  0  0  0  0  0  0  0  0  0
   33.6741   -4.2372  -37.7362 H   0  0  0  0  0  0  0  0  0  0  0  0
   33.8670   -2.9568  -38.9627 H   0  0  0  0  0  0  0  0  0  0  0  0
   33.7693   -1.3033  -36.8648 H   0  0  0  0  0  0  0  0  0  0  0  0
   36.0709   -2.4542  -38.2234 H   0  0  0  0  0  0  0  0  0  0  0  0
   36.1240   -0.2834  -36.4962 H   0  0  0  0  0  0  0  0  0  0  0  0
   36.7803   -3.7546  -36.2639 H   0  0  0  0  0  0  0  0  0  0  0  0
   37.8411   -2.0089  -34.7331 H   0  0  0  0  0  0  0  0  0  0  0  0
   35.6413   -1.6809  -34.5161 H   0  0  0  0  0  0  0  0  0  0  0  0
   36.4732   -5.3478  -35.1402 H   0  0  0  0  0  0  0  0  0  0  0  0
   35.5053   -5.8647  -28.8443 H   0  0  0  0  0  0  0  0  0  0  0  0
   36.1436   -6.7947  -30.2264 H   0  0  0  0  0  0  0  0  0  0  0  0
   34.1606   -1.8312  -30.1287 H   0  0  0  0  0  0  0  0  0  0  0  0
   27.6486   -6.5498  -38.3529 H   0  0  0  0  0  0  0  0  0  0  0  0
   29.3621   -6.9228  -38.0173 H   0  0  0  0  0  0  0  0  0  0  0  0
   28.4128   -7.7122  -35.6848 H   0  0  0  0  0  0  0  0  0  0  0  0
   29.3348   -9.1982  -37.8464 H   0  0  0  0  0  0  0  0  0  0  0  0
   28.6506   -9.7220  -35.2622 H   0  0  0  0  0  0  0  0  0  0  0  0
   26.9157   -9.3646  -38.7652 H   0  0  0  0  0  0  0  0  0  0  0  0
   27.1544  -11.6539  -37.0567 H   0  0  0  0  0  0  0  0  0  0  0  0
   26.1368  -10.1771  -36.0614 H   0  0  0  0  0  0  0  0  0  0  0  0
   25.3344   -7.5167  -38.4920 H   0  0  0  0  0  0  0  0  0  0  0  0
   23.8550   -6.0912  -41.4838 H   0  0  0  0  0  0  0  0  0  0  0  0
   24.8943   -7.2763  -40.6482 H   0  0  0  0  0  0  0  0  0  0  0  0
   21.5239   -8.2724  -37.4950 H   0  0  0  0  0  0  0  0  0  0  0  0
   21.3886   -9.1838  -39.0605 H   0  0  0  0  0  0  0  0  0  0  0  0
   21.8250  -11.0228  -37.5092 H   0  0  0  0  0  0  0  0  0  0  0  0
   24.0726  -11.0558  -36.2470 H   0  0  0  0  0  0  0  0  0  0  0  0
  1  2  2  0
  1  3  1  6
  1  4  1  0
  1 23  1  0
  4  5  1  0
  6  5  1  0
  6  7  1  0
  6  8  1  0
  7 12  1  0
  8  9  1  0
  8 10  1  0
 10 11  1  0
 10 12  1  0
 12 13  1  0
 13 14  1  0
 13 22  1  0
 14 15  2  0
 15 16  1  0
 16 17  2  0
 16 22  1  0
 17 18  1  0
 17 19  1  0
 19 20  2  0
 20 21  1  0
 21 22  2  0
 23 24  1  0
 24 25  1  6
 24 26  2  0
 24 27  1  0
 27 28  1  0
 29 28  1  0
 29 30  1  0
 29 31  1  0
 30 35  1  0
 31 32  1  0
 31 33  1  0
 33 34  1  0
 33 35  1  0
 35 36  1  0
 36 37  1  0
 36 44  1  0
 37 38  2  0
 38 39  1  0
 38 42  1  0
 39 40  2  0
 39 41  1  0
 42 43  1  0
 43 44  2  0
  5 45  1  0
  5 46  1  0
  6 47  1  1
  8 48  1  6
  9 49  1  0
 10 50  1  6
 11 51  1  0
 12 52  1  1
 14 53  1  0
 18 54  1  0
 18 55  1  0
 20 56  1  0
 28 57  1  0
 28 58  1  0
 29 59  1  1
 31 60  1  6
 32 61  1  0
 33 62  1  6
 34 63  1  0
 35 64  1  1
 37 65  1  0
 41 66  1  0
 41 67  1  0
 42 68  1  0
 42 69  1  0
 43 70  1  0
 44 71  1  0
M  CHG  2   3  -1  25  -1
M  END
>  <filename_input>  (3) 
7UTW_NAI_docked.sdf

>  <pdb_id>  (3) 
7UTW_NAI

>  <pose_rank>  (3) 
2

>  <num_atoms_heavy>  (3) 
44

>  <num_torsions>  (3) 
11

>  <pose>  (3) 
[31.060626952701533, -4.0623695959996855, -38.03223351925547, 3.8145321718957073, -0.8699676117956522, 3.1500061407843822, 1.4099158082218786, 1.2867604423482992, 4.666766556289805, 0.13069474857251387, -4.813686849122467, -2.4128814747477874, 3.198205205980879, 0.34089229503791224, 8.992921342159388, 2.540845116067924, 0.20170154370637425]

>  <energy>  (3) 
-951.5962818658057

>  <inter_energy>  (3) 
-954.9031597216001

>  <intra_energy>  (3) 
7.882822778819651

>  <rmsd>  (3) 
2.24312

>  <sdf_rank>  (3) 
0

$$$$

     RDKit          3D

 71 75  0  0  0  0  0  0  0  0999 V2000
   30.9630   -6.0399  -36.2707 P   0  0  2  0  0  0  0  0  0  0  0  0
   32.2932   -6.7224  -36.0595 O   0  0  0  0  0  0  0  0  0  0  0  0
   30.5878   -4.8937  -35.3792 O   0  0  0  0  0  0  0  0  0  0  0  0
   29.7856   -7.1221  -36.1639 O   0  0  0  0  0  0  0  0  0  0  0  0
   28.4558   -6.7142  -36.4034 C   0  0  0  0  0  0  0  0  0  0  0  0
   28.0565   -7.2065  -37.8378 C   0  0  1  0  0  0  0  0  0  0  0  0
   26.9281   -7.9657  -37.7082 O   0  0  0  0  0  0  0  0  0  0  0  0
   27.7552   -6.0406  -38.8307 C   0  0  1  0  0  0  0  0  0  0  0  0
   28.5944   -6.0701  -39.9294 O   0  0  0  0  0  0  0  0  0  0  0  0
   26.2578   -6.3036  -39.1719 C   0  0  1  0  0  0  0  0  0  0  0  0
   25.9160   -5.8885  -40.5357 O   0  0  0  0  0  0  0  0  0  0  0  0
   26.1013   -7.6801  -38.9592 C   0  0  2  0  0  0  0  0  0  0  0  0
   24.7313   -8.1181  -38.6466 N   0  0  0  0  0  0  0  0  0  0  0  0
   23.6268   -7.7424  -39.3392 C   0  0  0  0  0  0  0  0  0  0  0  0
   22.5462   -8.3797  -38.8036 N   0  0  0  0  0  0  0  0  0  0  0  0
   23.0165   -9.1066  -37.7742 C   0  0  0  0  0  0  0  0  0  0  0  0
   22.4018   -9.9161  -36.8480 C   0  0  0  0  0  0  0  0  0  0  0  0
   21.0082  -10.2441  -36.7366 N   0  0  0  0  0  0  0  0  0  0  0  0
   23.1133  -10.4832  -35.9271 N   0  0  0  0  0  0  0  0  0  0  0  0
   24.4567  -10.3022  -35.8220 C   0  0  0  0  0  0  0  0  0  0  0  0
   25.1114   -9.5104  -36.7335 N   0  0  0  0  0  0  0  0  0  0  0  0
   24.3527   -8.9450  -37.6603 C   0  0  0  0  0  0  0  0  0  0  0  0
   31.0032   -5.5974  -37.8097 O   0  0  0  0  0  0  0  0  0  0  0  0
   31.2196   -4.1440  -38.4989 P   0  0  2  0  0  0  0  0  0  0  0  0
   30.4531   -3.0932  -37.7729 O   0  0  0  0  0  0  0  0  0  0  0  0
   31.1148   -4.2303  -39.9782 O   0  0  0  0  0  0  0  0  0  0  0  0
   32.7597   -3.9266  -38.0480 O   0  0  0  0  0  0  0  0  0  0  0  0
   32.9943   -3.2183  -36.8122 C   0  0  0  0  0  0  0  0  0  0  0  0
   34.4636   -3.4456  -36.4044 C   0  0  1  0  0  0  0  0  0  0  0  0
   34.7179   -2.9605  -35.1432 O   0  0  0  0  0  0  0  0  0  0  0  0
   34.8913   -4.9388  -36.4820 C   0  0  1  0  0  0  0  0  0  0  0  0
   36.2284   -5.1072  -36.9442 O   0  0  0  0  0  0  0  0  0  0  0  0
   34.8866   -5.2412  -34.9656 C   0  0  1  0  0  0  0  0  0  0  0  0
   35.6581   -6.4228  -34.6676 O   0  0  0  0  0  0  0  0  0  0  0  0
   35.4397   -4.1124  -34.3734 C   0  0  2  0  0  0  0  0  0  0  0  0
   35.1248   -3.8352  -32.9929 N   0  0  0  0  0  0  0  0  0  0  0  0
   35.8708   -4.5473  -32.0250 C   0  0  0  0  0  0  0  0  0  0  0  0
   35.6939   -4.2208  -30.6175 C   0  0  0  0  0  0  0  0  0  0  0  0
   36.5204   -4.8888  -29.5771 C   0  0  0  0  0  0  0  0  0  0  0  0
   36.2859   -4.6748  -28.4108 O   0  0  0  0  0  0  0  0  0  0  0  0
   37.5875   -5.6976  -30.0407 N   0  0  0  0  0  0  0  0  0  0  0  0
   34.5383   -3.3419  -30.1746 C   0  0  0  0  0  0  0  0  0  0  0  0
   34.0929   -2.4093  -31.2553 C   0  0  0  0  0  0  0  0  0  0  0  0
   34.2571   -2.7629  -32.6620 C   0  0  0  0  0  0  0  0  0  0  0  0
   27.7861   -7.1615  -35.6540 H   0  0  0  0  0  0  0  0  0  0  0  0
   28.3704   -5.6197  -36.3342 H   0  0  0  0  0  0  0  0  0  0  0  0
   28.9063   -7.7681  -38.2530 H   0  0  0  0  0  0  0  0  0  0  0  0
   27.9283   -5.0329  -38.4250 H   0  0  0  0  0  0  0  0  0  0  0  0
   29.5358   -6.1032  -39.6248 H   0  0  0  0  0  0  0  0  0  0  0  0
   25.5710   -5.7127  -38.5482 H   0  0  0  0  0  0  0  0  0  0  0  0
   25.2870   -5.1248  -40.5003 H   0  0  0  0  0  0  0  0  0  0  0  0
   26.3925   -8.2020  -39.8827 H   0  0  0  0  0  0  0  0  0  0  0  0
   23.6063   -7.0430  -40.1880 H   0  0  0  0  0  0  0  0  0  0  0  0
   20.6850  -10.8701  -35.9853 H   0  0  0  0  0  0  0  0  0  0  0  0
   20.3319   -9.8533  -37.4081 H   0  0  0  0  0  0  0  0  0  0  0  0
   25.0173  -10.7882  -35.0099 H   0  0  0  0  0  0  0  0  0  0  0  0
   32.8090   -2.1437  -36.9568 H   0  0  0  0  0  0  0  0  0  0  0  0
   32.3183   -3.5865  -36.0264 H   0  0  0  0  0  0  0  0  0  0  0  0
   35.0633   -2.8863  -37.1376 H   0  0  0  0  0  0  0  0  0  0  0  0
   34.2667   -5.5501  -37.1499 H   0  0  0  0  0  0  0  0  0  0  0  0
   36.8385   -5.1841  -36.1683 H   0  0  0  0  0  0  0  0  0  0  0  0
   33.8734   -5.4454  -34.5890 H   0  0  0  0  0  0  0  0  0  0  0  0
   35.7292   -6.5317  -33.6862 H   0  0  0  0  0  0  0  0  0  0  0  0
   36.5326   -4.2311  -34.4117 H   0  0  0  0  0  0  0  0  0  0  0  0
   36.5740   -5.3358  -32.3312 H   0  0  0  0  0  0  0  0  0  0  0  0
   38.1944   -6.1855  -29.3665 H   0  0  0  0  0  0  0  0  0  0  0  0
   37.7562   -5.7976  -31.0518 H   0  0  0  0  0  0  0  0  0  0  0  0
   33.6924   -3.9851  -29.8906 H   0  0  0  0  0  0  0  0  0  0  0  0
   34.8819   -2.7346  -29.3243 H   0  0  0  0  0  0  0  0  0  0  0  0
   33.6360   -1.4453  -30.9870 H   0  0  0  0  0  0  0  0  0  0  0  0
   33.7204   -2.2105  -33.4474 H   0  0  0  0  0  0  0  0  0  0  0  0
  1  2  2  0
  1  3  1  1
  1  4  1  0
  1 23  1  0
  4  5  1  0
  6  5  1  0
  6  7  1  0
  6  8  1  0
  7 12  1  0
  8  9  1  0
  8 10  1  0
 10 11  1  0
 10 12  1  0
 12 13  1  0
 13 14  1  0
 13 22  1  0
 14 15  2  0
 15 16  1  0
 16 17  2  0
 16 22  1  0
 17 18  1  0
 17 19  1  0
 19 20  2  0
 20 21  1  0
 21 22  2  0
 23 24  1  0
 24 25  1  1
 24 26  2  0
 24 27  1  0
 27 28  1  0
 29 28  1  0
 29 30  1  0
 29 31  1  0
 30 35  1  0
 31 32  1  0
 31 33  1  0
 33 34  1  0
 33 35  1  0
 35 36  1  0
 36 37  1  0
 36 44  1  0
 37 38  2  0
 38 39  1  0
 38 42  1  0
 39 40  2  0
 39 41  1  0
 42 43  1  0
 43 44  2  0
  5 45  1  0
  5 46  1  0
  6 47  1  6
  8 48  1  1
  9 49  1  0
 10 50  1  1
 11 51  1  0
 12 52  1  6
 14 53  1  0
 18 54  1  0
 18 55  1  0
 20 56  1  0
 28 57  1  0
 28 58  1  0
 29 59  1  6
 31 60  1  6
 32 61  1  0
 33 62  1  1
 34 63  1  0
 35 64  1  1
 37 65  1  0
 41 66  1  0
 41 67  1  0
 42 68  1  0
 42 69  1  0
 43 70  1  0
 44 71  1  0
M  CHG  2   3  -1  25  -1
M  END
>  <filename_input>  (4) 
7UTW_NAI_docked.sdf

>  <pdb_id>  (4) 
7UTW_NAI

>  <pose_rank>  (4) 
3

>  <num_atoms_heavy>  (4) 
44

>  <num_torsions>  (4) 
11

>  <pose>  (4) 
[30.963049584802075, -6.0399205569561065, -36.27071702825383, -3.578830746456478, 2.5183917784556593, -0.45070257842325145, -2.5328617510063887, -0.6980525480747847, -0.9172963779496577, 1.5061224197331204, 0.9824512979379764, -2.335183843409341, -2.7744868881659337, -0.42660547436607876, -1.7520578526721746, -1.1779972371217622, -0.2509467984721191]

>  <energy>  (4) 
-786.3834573139633

>  <inter_energy>  (4) 
-845.0428936246763

>  <intra_energy>  (4) 
67.90468760196153

>  <rmsd>  (4) 
11.4835

>  <sdf_rank>  (4) 
0

$$$$

     RDKit          3D

 71 75  0  0  0  0  0  0  0  0999 V2000
   31.8394   -3.4320  -37.7371 P   0  0  2  0  0  0  0  0  0  0  0  0
   32.7665   -4.3050  -38.5484 O   0  0  0  0  0  0  0  0  0  0  0  0
   31.1613   -2.2753  -38.4093 O   0  0  0  0  0  0  0  0  0  0  0  0
   32.6313   -2.8422  -36.4746 O   0  0  0  0  0  0  0  0  0  0  0  0
   31.9611   -2.7266  -35.2379 C   0  0  0  0  0  0  0  0  0  0  0  0
   32.7805   -3.5357  -34.1734 C   0  0  1  0  0  0  0  0  0  0  0  0
   33.7357   -4.2432  -34.8469 O   0  0  0  0  0  0  0  0  0  0  0  0
   33.4897   -2.6297  -33.1187 C   0  0  1  0  0  0  0  0  0  0  0  0
   33.0703   -2.9128  -31.8317 O   0  0  0  0  0  0  0  0  0  0  0  0
   34.9887   -2.9624  -33.3826 C   0  0  1  0  0  0  0  0  0  0  0  0
   35.8018   -2.8725  -32.1661 O   0  0  0  0  0  0  0  0  0  0  0  0
   34.9556   -4.2526  -33.9292 C   0  0  2  0  0  0  0  0  0  0  0  0
   36.1011   -4.6051  -34.7837 N   0  0  0  0  0  0  0  0  0  0  0  0
   36.9913   -5.5912  -34.5084 C   0  0  0  0  0  0  0  0  0  0  0  0
   37.8803   -5.6680  -35.5401 N   0  0  0  0  0  0  0  0  0  0  0  0
   37.5272   -4.7022  -36.4072 C   0  0  0  0  0  0  0  0  0  0  0  0
   38.0665   -4.2776  -37.5987 C   0  0  0  0  0  0  0  0  0  0  0  0
   39.2094   -4.7979  -38.2951 N   0  0  0  0  0  0  0  0  0  0  0  0
   37.5245   -3.2813  -38.2230 N   0  0  0  0  0  0  0  0  0  0  0  0
   36.4406   -2.6161  -37.7422 C   0  0  0  0  0  0  0  0  0  0  0  0
   35.8643   -3.0152  -36.5611 N   0  0  0  0  0  0  0  0  0  0  0  0
   36.4453   -4.0359  -35.9488 C   0  0  0  0  0  0  0  0  0  0  0  0
   30.7751   -4.4659  -37.1336 O   0  0  0  0  0  0  0  0  0  0  0  0
   29.2236   -4.7488  -37.5168 P   0  0  2  0  0  0  0  0  0  0  0  0
   29.0649   -4.9307  -38.9866 O   0  0  0  0  0  0  0  0  0  0  0  0
   28.3147   -3.8212  -36.7957 O   0  0  0  0  0  0  0  0  0  0  0  0
   29.1244   -6.2415  -36.8964 O   0  0  0  0  0  0  0  0  0  0  0  0
   27.8058   -6.7507  -36.6036 C   0  0  0  0  0  0  0  0  0  0  0  0
   27.3532   -7.6153  -37.7972 C   0  0  1  0  0  0  0  0  0  0  0  0
   26.6909   -8.7453  -37.3790 O   0  0  0  0  0  0  0  0  0  0  0  0
   26.4641   -6.8370  -38.8083 C   0  0  1  0  0  0  0  0  0  0  0  0
   26.7192   -7.2003  -40.1620 O   0  0  0  0  0  0  0  0  0  0  0  0
   25.1023   -7.4545  -38.4144 C   0  0  1  0  0  0  0  0  0  0  0  0
   24.1237   -7.2656  -39.4568 O   0  0  0  0  0  0  0  0  0  0  0  0
   25.3670   -8.8027  -38.2064 C   0  0  2  0  0  0  0  0  0  0  0  0
   24.4777   -9.5553  -37.3553 N   0  0  0  0  0  0  0  0  0  0  0  0
   23.0939   -9.3258  -37.5363 C   0  0  0  0  0  0  0  0  0  0  0  0
   22.1409  -10.1454  -36.8020 C   0  0  0  0  0  0  0  0  0  0  0  0
   20.6791   -9.9906  -37.0282 C   0  0  0  0  0  0  0  0  0  0  0  0
   20.2361  -10.1395  -38.1429 O   0  0  0  0  0  0  0  0  0  0  0  0
   19.9028   -9.6094  -35.9058 N   0  0  0  0  0  0  0  0  0  0  0  0
   22.6105  -11.0294  -35.6610 C   0  0  0  0  0  0  0  0  0  0  0  0
   24.0384  -11.4439  -35.8199 C   0  0  0  0  0  0  0  0  0  0  0  0
   24.9862  -10.5987  -36.5398 C   0  0  0  0  0  0  0  0  0  0  0  0
   31.9027   -1.6690  -34.9409 H   0  0  0  0  0  0  0  0  0  0  0  0
   30.9371   -3.1208  -35.3165 H   0  0  0  0  0  0  0  0  0  0  0  0
   32.0790   -4.1790  -33.6219 H   0  0  0  0  0  0  0  0  0  0  0  0
   33.2697   -1.5558  -33.2108 H   0  0  0  0  0  0  0  0  0  0  0  0
   33.6902   -2.4943  -31.1831 H   0  0  0  0  0  0  0  0  0  0  0  0
   35.4693   -2.2428  -34.0617 H   0  0  0  0  0  0  0  0  0  0  0  0
   35.2150   -2.9374  -31.3714 H   0  0  0  0  0  0  0  0  0  0  0  0
   34.9527   -4.9737  -33.0985 H   0  0  0  0  0  0  0  0  0  0  0  0
   36.9954   -6.2214  -33.6069 H   0  0  0  0  0  0  0  0  0  0  0  0
   39.5036   -4.3774  -39.1882 H   0  0  0  0  0  0  0  0  0  0  0  0
   39.7350   -5.5915  -37.9017 H   0  0  0  0  0  0  0  0  0  0  0  0
   36.0266   -1.7614  -38.2972 H   0  0  0  0  0  0  0  0  0  0  0  0
   27.8362   -7.3623  -35.6899 H   0  0  0  0  0  0  0  0  0  0  0  0
   27.1020   -5.9203  -36.4447 H   0  0  0  0  0  0  0  0  0  0  0  0
   28.2774   -7.9065  -38.3179 H   0  0  0  0  0  0  0  0  0  0  0  0
   26.5870   -5.7447  -38.7654 H   0  0  0  0  0  0  0  0  0  0  0  0
   27.2881   -8.0102  -40.1848 H   0  0  0  0  0  0  0  0  0  0  0  0
   24.6774   -6.9785  -37.5184 H   0  0  0  0  0  0  0  0  0  0  0  0
   23.2374   -7.0944  -39.0503 H   0  0  0  0  0  0  0  0  0  0  0  0
   25.3259   -9.2946  -39.1894 H   0  0  0  0  0  0  0  0  0  0  0  0
   22.7431   -8.5400  -38.2216 H   0  0  0  0  0  0  0  0  0  0  0  0
   18.8846   -9.4867  -36.0015 H   0  0  0  0  0  0  0  0  0  0  0  0
   20.3566   -9.4551  -34.9941 H   0  0  0  0  0  0  0  0  0  0  0  0
   22.5053  -10.4751  -34.7167 H   0  0  0  0  0  0  0  0  0  0  0  0
   21.9922  -11.9392  -35.6616 H   0  0  0  0  0  0  0  0  0  0  0  0
   24.3786  -12.3971  -35.3891 H   0  0  0  0  0  0  0  0  0  0  0  0
   26.0697  -10.7671  -36.4519 H   0  0  0  0  0  0  0  0  0  0  0  0
  1  2  2  0
  1  3  1  6
  1  4  1  0
  1 23  1  0
  4  5  1  0
  6  5  1  0
  6  7  1  0
  6  8  1  0
  7 12  1  0
  8  9  1  0
  8 10  1  0
 10 11  1  0
 10 12  1  0
 12 13  1  0
 13 14  1  0
 13 22  1  0
 14 15  2  0
 15 16  1  0
 16 17  2  0
 16 22  1  0
 17 18  1  0
 17 19  1  0
 19 20  2  0
 20 21  1  0
 21 22  2  0
 23 24  1  0
 24 25  1  6
 24 26  2  0
 24 27  1  0
 27 28  1  0
 29 28  1  0
 29 30  1  0
 29 31  1  0
 30 35  1  0
 31 32  1  0
 31 33  1  0
 33 34  1  0
 33 35  1  0
 35 36  1  0
 36 37  1  0
 36 44  1  0
 37 38  2  0
 38 39  1  0
 38 42  1  0
 39 40  2  0
 39 41  1  0
 42 43  1  0
 43 44  2  0
  5 45  1  0
  5 46  1  0
  6 47  1  1
  8 48  1  6
  9 49  1  0
 10 50  1  6
 11 51  1  0
 12 52  1  1
 14 53  1  0
 18 54  1  0
 18 55  1  0
 20 56  1  0
 28 57  1  0
 28 58  1  0
 29 59  1  6
 31 60  1  6
 32 61  1  0
 33 62  1  1
 34 63  1  0
 35 64  1  6
 37 65  1  0
 41 66  1  0
 41 67  1  0
 42 68  1  0
 42 69  1  0
 43 70  1  0
 44 71  1  0
M  CHG  2   3  -1  25  -1
M  END
>  <filename_input>  (5) 
7UTW_NAI_docked.sdf

>  <pdb_id>  (5) 
7UTW_NAI

>  <pose_rank>  (5) 
4

>  <num_atoms_heavy>  (5) 
44

>  <num_torsions>  (5) 
11

>  <pose>  (5) 
[31.839421599626352, -3.43198029704403, -37.737117812483035, -1.1752836136067284, -5.550347031580361, 0.4582591780959891, -45.909853158969995, -44.33242469878411, -9.532114542944187, 2.706923088738534, -17.884958469692727, -7.018348240100293, -17.217919253297488, 4.6518494984851975, 3.6854988162015565, -1.8432322269680401, -2.4845418201326344]

>  <energy>  (5) 
-862.1440220162941

>  <inter_energy>  (5) 
-896.3106790617106

>  <intra_energy>  (5) 
35.3776870727742

>  <rmsd>  (5) 
3.82715

>  <sdf_rank>  (5) 
0

$$$$

     RDKit          3D

 71 75  0  0  0  0  0  0  0  0999 V2000
   29.1722   -4.2526  -39.0928 P   0  0  2  0  0  0  0  0  0  0  0  0
   28.4417   -3.1002  -39.7394 O   0  0  0  0  0  0  0  0  0  0  0  0
   30.3754   -4.8249  -39.7814 O   0  0  0  0  0  0  0  0  0  0  0  0
   28.1502   -5.4634  -38.8510 O   0  0  0  0  0  0  0  0  0  0  0  0
   27.0677   -5.2802  -37.9640 C   0  0  0  0  0  0  0  0  0  0  0  0
   26.8016   -6.6490  -37.2464 C   0  0  1  0  0  0  0  0  0  0  0  0
   25.4701   -6.9253  -37.3779 O   0  0  0  0  0  0  0  0  0  0  0  0
   27.6139   -7.8349  -37.8546 C   0  0  1  0  0  0  0  0  0  0  0  0
   28.4450   -8.4230  -36.9188 O   0  0  0  0  0  0  0  0  0  0  0  0
   26.4713   -8.7662  -38.3592 C   0  0  1  0  0  0  0  0  0  0  0  0
   26.8390  -10.1839  -38.2953 O   0  0  0  0  0  0  0  0  0  0  0  0
   25.3844   -8.4411  -37.5362 C   0  0  2  0  0  0  0  0  0  0  0  0
   24.0560   -8.7129  -38.1092 N   0  0  0  0  0  0  0  0  0  0  0  0
   23.6569   -8.3215  -39.3454 C   0  0  0  0  0  0  0  0  0  0  0  0
   22.3938   -8.7906  -39.5578 N   0  0  0  0  0  0  0  0  0  0  0  0
   22.0414   -9.4322  -38.4294 C   0  0  0  0  0  0  0  0  0  0  0  0
   20.8856  -10.0685  -38.0420 C   0  0  0  0  0  0  0  0  0  0  0  0
   19.6754  -10.2528  -38.7926 N   0  0  0  0  0  0  0  0  0  0  0  0
   20.8110  -10.5868  -36.8579 N   0  0  0  0  0  0  0  0  0  0  0  0
   21.8308  -10.5180  -35.9613 C   0  0  0  0  0  0  0  0  0  0  0  0
   23.0067   -9.9010  -36.3120 N   0  0  0  0  0  0  0  0  0  0  0  0
   23.0474   -9.3809  -37.5294 C   0  0  0  0  0  0  0  0  0  0  0  0
   29.5384   -3.7001  -37.6345 O   0  0  0  0  0  0  0  0  0  0  0  0
   30.7178   -4.1143  -36.5993 P   0  0  2  0  0  0  0  0  0  0  0  0
   31.2828   -5.4484  -36.9453 O   0  0  0  0  0  0  0  0  0  0  0  0
   30.3231   -3.8327  -35.1952 O   0  0  0  0  0  0  0  0  0  0  0  0
   31.8245   -3.0461  -37.1058 O   0  0  0  0  0  0  0  0  0  0  0  0
   32.5769   -2.3422  -36.0946 C   0  0  0  0  0  0  0  0  0  0  0  0
   33.5545   -3.3424  -35.4458 C   0  0  1  0  0  0  0  0  0  0  0  0
   34.3858   -3.9136  -36.3803 O   0  0  0  0  0  0  0  0  0  0  0  0
   34.4079   -2.7082  -34.3109 C   0  0  1  0  0  0  0  0  0  0  0  0
   34.6290   -3.5997  -33.2219 O   0  0  0  0  0  0  0  0  0  0  0  0
   35.7401   -2.5892  -35.0867 C   0  0  1  0  0  0  0  0  0  0  0  0
   36.8559   -2.4375  -34.1855 O   0  0  0  0  0  0  0  0  0  0  0  0
   35.8357   -3.7673  -35.8174 C   0  0  2  0  0  0  0  0  0  0  0  0
   36.6539   -3.7757  -37.0057 N   0  0  0  0  0  0  0  0  0  0  0  0
   36.6968   -2.5709  -37.7453 C   0  0  0  0  0  0  0  0  0  0  0  0
   37.6031   -2.4717  -38.8801 C   0  0  0  0  0  0  0  0  0  0  0  0
   37.7374   -1.1947  -39.6305 C   0  0  0  0  0  0  0  0  0  0  0  0
   36.8337   -0.8347  -40.3480 O   0  0  0  0  0  0  0  0  0  0  0  0
   38.9696   -0.5085  -39.4948 N   0  0  0  0  0  0  0  0  0  0  0  0
   38.2768   -3.7144  -39.4331 C   0  0  0  0  0  0  0  0  0  0  0  0
   38.4389   -4.7774  -38.3941 C   0  0  0  0  0  0  0  0  0  0  0  0
   37.5071   -4.8766  -37.2748 C   0  0  0  0  0  0  0  0  0  0  0  0
   27.3194   -4.5099  -37.2201 H   0  0  0  0  0  0  0  0  0  0  0  0
   26.1722   -4.9522  -38.5121 H   0  0  0  0  0  0  0  0  0  0  0  0
   27.1178   -6.5497  -36.1975 H   0  0  0  0  0  0  0  0  0  0  0  0
   28.3158   -7.5518  -38.6528 H   0  0  0  0  0  0  0  0  0  0  0  0
   28.1278   -8.1985  -36.0082 H   0  0  0  0  0  0  0  0  0  0  0  0
   26.2387   -8.6131  -39.4234 H   0  0  0  0  0  0  0  0  0  0  0  0
   26.9116  -10.4636  -37.3485 H   0  0  0  0  0  0  0  0  0  0  0  0
   25.4586   -9.0460  -36.6205 H   0  0  0  0  0  0  0  0  0  0  0  0
   24.2508   -7.7271  -40.0554 H   0  0  0  0  0  0  0  0  0  0  0  0
   18.8801  -10.7547  -38.3723 H   0  0  0  0  0  0  0  0  0  0  0  0
   19.6025   -9.8831  -39.7512 H   0  0  0  0  0  0  0  0  0  0  0  0
   21.7144  -10.9549  -34.9585 H   0  0  0  0  0  0  0  0  0  0  0  0
   33.1388   -1.5161  -36.5548 H   0  0  0  0  0  0  0  0  0  0  0  0
   31.8992   -1.9235  -35.3361 H   0  0  0  0  0  0  0  0  0  0  0  0
   32.9230   -4.1221  -34.9950 H   0  0  0  0  0  0  0  0  0  0  0  0
   33.9651   -1.8033  -33.8691 H   0  0  0  0  0  0  0  0  0  0  0  0
   34.5084   -3.1136  -32.3678 H   0  0  0  0  0  0  0  0  0  0  0  0
   35.7610   -1.7022  -35.7370 H   0  0  0  0  0  0  0  0  0  0  0  0
   36.5333   -2.4814  -33.2506 H   0  0  0  0  0  0  0  0  0  0  0  0
   36.2712   -4.5259  -35.1503 H   0  0  0  0  0  0  0  0  0  0  0  0
   36.0551   -1.7219  -37.4671 H   0  0  0  0  0  0  0  0  0  0  0  0
   39.1209    0.3814  -39.9909 H   0  0  0  0  0  0  0  0  0  0  0  0
   39.7141   -0.8995  -38.9000 H   0  0  0  0  0  0  0  0  0  0  0  0
   37.6649   -4.1130  -40.2557 H   0  0  0  0  0  0  0  0  0  0  0  0
   39.2795   -3.4280  -39.7831 H   0  0  0  0  0  0  0  0  0  0  0  0
   39.2702   -5.4933  -38.4742 H   0  0  0  0  0  0  0  0  0  0  0  0
   37.4675   -5.7841  -36.6544 H   0  0  0  0  0  0  0  0  0  0  0  0
  1  2  2  0
  1  3  1  6
  1  4  1  0
  1 23  1  0
  4  5  1  0
  6  5  1  0
  6  7  1  0
  6  8  1  0
  7 12  1  0
  8  9  1  0
  8 10  1  0
 10 11  1  0
 10 12  1  0
 12 13  1  0
 13 14  1  0
 13 22  1  0
 14 15  2  0
 15 16  1  0
 16 17  2  0
 16 22  1  0
 17 18  1  0
 17 19  1  0
 19 20  2  0
 20 21  1  0
 21 22  2  0
 23 24  1  0
 24 25  1  1
 24 26  2  0
 24 27  1  0
 27 28  1  0
 29 28  1  0
 29 30  1  0
 29 31  1  0
 30 35  1  0
 31 32  1  0
 31 33  1  0
 33 34  1  0
 33 35  1  0
 35 36  1  0
 36 37  1  0
 36 44  1  0
 37 38  2  0
 38 39  1  0
 38 42  1  0
 39 40  2  0
 39 41  1  0
 42 43  1  0
 43 44  2  0
  5 45  1  0
  5 46  1  0
  6 47  1  1
  8 48  1  6
  9 49  1  0
 10 50  1  6
 11 51  1  0
 12 52  1  1
 14 53  1  0
 18 54  1  0
 18 55  1  0
 20 56  1  0
 28 57  1  0
 28 58  1  0
 29 59  1  1
 31 60  1  1
 32 61  1  0
 33 62  1  6
 34 63  1  0
 35 64  1  1
 37 65  1  0
 41 66  1  0
 41 67  1  0
 42 68  1  0
 42 69  1  0
 43 70  1  0
 44 71  1  0
M  CHG  2   3  -1  25  -1
M  END
>  <filename_input>  (6) 
7UTW_NAI_docked.sdf

>  <pdb_id>  (6) 
7UTW_NAI

>  <pose_rank>  (6) 
5

>  <num_atoms_heavy>  (6) 
44

>  <num_torsions>  (6) 
11

>  <pose>  (6) 
[29.172192577691597, -4.2526180914030105, -39.09275840806982, 1.5930487181853747, 0.7677411267100013, -2.6725968969297957, 5.715880906585726, -5.044074774860505, -11.616188339036679, -0.19046022823095296, 0.10894912009681347, 4.368271064932502, 1.2269485708554326, -2.0685191452889, 2.242752467427597, -3.1838711012571146, 1.534974676367948]

>  <energy>  (6) 
-866.0495007433191

>  <inter_energy>  (6) 
-865.1852100785982

>  <intra_energy>  (6) 
8.16866990895911

>  <rmsd>  (6) 
12.3997

>  <sdf_rank>  (6) 
0

$$$$

     RDKit          3D

 71 75  0  0  0  0  0  0  0  0999 V2000
   31.8814   -5.4526  -36.7188 P   0  0  2  0  0  0  0  0  0  0  0  0
   33.1253   -6.1558  -36.2308 O   0  0  0  0  0  0  0  0  0  0  0  0
   31.9465   -4.6691  -37.9960 O   0  0  0  0  0  0  0  0  0  0  0  0
   31.3530   -4.4537  -35.5822 O   0  0  0  0  0  0  0  0  0  0  0  0
   31.0164   -3.1294  -35.9358 C   0  0  0  0  0  0  0  0  0  0  0  0
   32.0354   -2.1721  -35.2255 C   0  0  1  0  0  0  0  0  0  0  0  0
   32.5643   -2.8541  -34.1663 O   0  0  0  0  0  0  0  0  0  0  0  0
   33.2055   -1.7160  -36.1523 C   0  0  1  0  0  0  0  0  0  0  0  0
   33.2442   -0.3409  -36.2938 O   0  0  0  0  0  0  0  0  0  0  0  0
   34.4391   -2.3098  -35.4086 C   0  0  1  0  0  0  0  0  0  0  0  0
   35.6416   -1.4893  -35.5811 O   0  0  0  0  0  0  0  0  0  0  0  0
   34.0178   -2.3967  -34.0747 C   0  0  2  0  0  0  0  0  0  0  0  0
   34.7091   -3.4089  -33.2597 N   0  0  0  0  0  0  0  0  0  0  0  0
   34.5531   -3.5550  -31.9200 C   0  0  0  0  0  0  0  0  0  0  0  0
   35.3028   -4.6197  -31.5136 N   0  0  0  0  0  0  0  0  0  0  0  0
   35.9238   -5.0784  -32.6150 C   0  0  0  0  0  0  0  0  0  0  0  0
   36.8261   -6.0956  -32.8200 C   0  0  0  0  0  0  0  0  0  0  0  0
   37.3649   -7.0160  -31.8584 N   0  0  0  0  0  0  0  0  0  0  0  0
   37.2935   -6.3012  -34.0097 N   0  0  0  0  0  0  0  0  0  0  0  0
   36.9403   -5.5389  -35.0787 C   0  0  0  0  0  0  0  0  0  0  0  0
   36.0333   -4.5198  -34.9195 N   0  0  0  0  0  0  0  0  0  0  0  0
   35.5774   -4.3368  -33.6895 C   0  0  0  0  0  0  0  0  0  0  0  0
   30.7917   -6.6236  -36.8039 O   0  0  0  0  0  0  0  0  0  0  0  0
   29.3647   -6.7023  -37.5732 P   0  0  2  0  0  0  0  0  0  0  0  0
   28.9077   -8.1143  -37.7000 O   0  0  0  0  0  0  0  0  0  0  0  0
   29.3507   -5.8223  -38.7699 O   0  0  0  0  0  0  0  0  0  0  0  0
   28.4553   -6.0717  -36.3909 O   0  0  0  0  0  0  0  0  0  0  0  0
   27.0368   -6.3362  -36.4338 C   0  0  0  0  0  0  0  0  0  0  0  0
   26.7799   -7.3787  -37.5402 C   0  0  1  0  0  0  0  0  0  0  0  0
   26.2854   -8.5525  -37.0224 O   0  0  0  0  0  0  0  0  0  0  0  0
   25.8259   -6.8600  -38.6535 C   0  0  1  0  0  0  0  0  0  0  0  0
   26.1955   -7.3124  -39.9529 O   0  0  0  0  0  0  0  0  0  0  0  0
   24.5618   -7.6458  -38.2344 C   0  0  1  0  0  0  0  0  0  0  0  0
   23.6135   -7.7233  -39.3183 O   0  0  0  0  0  0  0  0  0  0  0  0
   25.0255   -8.9057  -37.8760 C   0  0  2  0  0  0  0  0  0  0  0  0
   24.2282   -9.7017  -36.9746 N   0  0  0  0  0  0  0  0  0  0  0  0
   22.8361   -9.4524  -36.9832 C   0  0  0  0  0  0  0  0  0  0  0  0
   21.9614  -10.3079  -36.1944 C   0  0  0  0  0  0  0  0  0  0  0  0
   20.4857  -10.1300  -36.2432 C   0  0  0  0  0  0  0  0  0  0  0  0
   19.9033  -10.3186  -37.2855 O   0  0  0  0  0  0  0  0  0  0  0  0
   19.8634   -9.6812  -35.0519 N   0  0  0  0  0  0  0  0  0  0  0  0
   22.5452  -11.2616  -35.1680 C   0  0  0  0  0  0  0  0  0  0  0  0
   23.9402  -11.6755  -35.5124 C   0  0  0  0  0  0  0  0  0  0  0  0
   24.8117  -10.7953  -36.2848 C   0  0  0  0  0  0  0  0  0  0  0  0
   31.0830   -3.0046  -37.0266 H   0  0  0  0  0  0  0  0  0  0  0  0
   29.9877   -2.8971  -35.6232 H   0  0  0  0  0  0  0  0  0  0  0  0
   31.4941   -1.2633  -34.9237 H   0  0  0  0  0  0  0  0  0  0  0  0
   33.1301   -2.0611  -37.1941 H   0  0  0  0  0  0  0  0  0  0  0  0
   33.2561    0.0827  -35.3990 H   0  0  0  0  0  0  0  0  0  0  0  0
   34.7424   -3.2895  -35.8064 H   0  0  0  0  0  0  0  0  0  0  0  0
   36.0030   -1.2427  -34.6930 H   0  0  0  0  0  0  0  0  0  0  0  0
   34.2087   -1.4259  -33.5941 H   0  0  0  0  0  0  0  0  0  0  0  0
   33.9285   -2.9227  -31.2718 H   0  0  0  0  0  0  0  0  0  0  0  0
   38.0398   -7.7351  -32.1558 H   0  0  0  0  0  0  0  0  0  0  0  0
   37.0766   -6.9571  -30.8714 H   0  0  0  0  0  0  0  0  0  0  0  0
   37.3794   -5.7375  -36.0675 H   0  0  0  0  0  0  0  0  0  0  0  0
   26.7013   -6.7313  -35.4636 H   0  0  0  0  0  0  0  0  0  0  0  0
   26.4816   -5.4104  -36.6447 H   0  0  0  0  0  0  0  0  0  0  0  0
   27.7608   -7.5683  -38.0005 H   0  0  0  0  0  0  0  0  0  0  0  0
   25.7735   -5.7635  -38.7243 H   0  0  0  0  0  0  0  0  0  0  0  0
   26.8197   -8.0765  -39.8711 H   0  0  0  0  0  0  0  0  0  0  0  0
   24.0274   -7.1563  -37.4068 H   0  0  0  0  0  0  0  0  0  0  0  0
   22.6974   -7.7981  -38.9505 H   0  0  0  0  0  0  0  0  0  0  0  0
   25.1065   -9.4946  -38.8015 H   0  0  0  0  0  0  0  0  0  0  0  0
   22.4206   -8.6248  -37.5769 H   0  0  0  0  0  0  0  0  0  0  0  0
   18.8435   -9.5397  -35.0254 H   0  0  0  0  0  0  0  0  0  0  0  0
   20.4309   -9.4966  -34.2125 H   0  0  0  0  0  0  0  0  0  0  0  0
   22.5551  -10.7640  -34.1871 H   0  0  0  0  0  0  0  0  0  0  0  0
   21.9186  -12.1655  -35.1514 H   0  0  0  0  0  0  0  0  0  0  0  0
   24.3141  -12.6551  -35.1796 H   0  0  0  0  0  0  0  0  0  0  0  0
   25.8958  -10.9759  -36.3308 H   0  0  0  0  0  0  0  0  0  0  0  0
  1  2  2  0
  1  3  1  6
  1  4  1  0
  1 23  1  0
  4  5  1  0
  6  5  1  0
  6  7  1  0
  6  8  1  0
  7 12  1  0
  8  9  1  0
  8 10  1  0
 10 11  1  0
 10 12  1  0
 12 13  1  0
 13 14  1  0
 13 22  1  0
 14 15  2  0
 15 16  1  0
 16 17  2  0
 16 22  1  0
 17 18  1  0
 17 19  1  0
 19 20  2  0
 20 21  1  0
 21 22  2  0
 23 24  1  0
 24 25  1  6
 24 26  2  0
 24 27  1  0
 27 28  1  0
 29 28  1  0
 29 30  1  0
 29 31  1  0
 30 35  1  0
 31 32  1  0
 31 33  1  0
 33 34  1  0
 33 35  1  0
 35 36  1  0
 36 37  1  0
 36 44  1  0
 37 38  2  0
 38 39  1  0
 38 42  1  0
 39 40  2  0
 39 41  1  0
 42 43  1  0
 43 44  2  0
  5 45  1  0
  5 46  1  0
  6 47  1  1
  8 48  1  6
  9 49  1  0
 10 50  1  6
 11 51  1  0
 12 52  1  1
 14 53  1  0
 18 54  1  0
 18 55  1  0
 20 56  1  0
 28 57  1  0
 28 58  1  0
 29 59  1  6
 31 60  1  6
 32 61  1  0
 33 62  1  1
 34 63  1  0
 35 64  1  6
 37 65  1  0
 41 66  1  0
 41 67  1  0
 42 68  1  0
 42 69  1  0
 43 70  1  0
 44 71  1  0
M  CHG  2   3  -1  25  -1
M  END
>  <filename_input>  (7) 
7UTW_NAI_docked.sdf

>  <pdb_id>  (7) 
7UTW_NAI

>  <pose_rank>  (7) 
6

>  <num_atoms_heavy>  (7) 
44

>  <num_torsions>  (7) 
11

>  <pose>  (7) 
[31.881384113545394, -5.452635917988897, -36.718777052139686, 3.0172903105912527, 4.813773277630248, -1.5892438090712286, 15.420098037166172, 20.64268984528666, 9.10507538550852, -2.595757988985375, -0.02653636736309143, 1.2428625984644046, 2.3313448431563284, 3.1179726903625893, 3.262572614999177, 4.159667888072808, -2.377944020828098]

>  <energy>  (7) 
-801.8020758695486

>  <inter_energy>  (7) 
-920.7570848711174

>  <intra_energy>  (7) 
123.0333583150775

>  <rmsd>  (7) 
2.84066

>  <sdf_rank>  (7) 
0

$$$$

     RDKit          3D

 71 75  0  0  0  0  0  0  0  0999 V2000
   31.8457   -3.2008  -36.9673 P   0  0  2  0  0  0  0  0  0  0  0  0
   32.3767   -3.6556  -38.3056 O   0  0  0  0  0  0  0  0  0  0  0  0
   31.7232   -1.7303  -36.6988 O   0  0  0  0  0  0  0  0  0  0  0  0
   32.7508   -3.8174  -35.7971 O   0  0  0  0  0  0  0  0  0  0  0  0
   32.7980   -3.1607  -34.5486 C   0  0  0  0  0  0  0  0  0  0  0  0
   34.2967   -2.8072  -34.2514 C   0  0  1  0  0  0  0  0  0  0  0  0
   34.8277   -3.8481  -33.5435 O   0  0  0  0  0  0  0  0  0  0  0  0
   35.1514   -2.6009  -35.5410 C   0  0  1  0  0  0  0  0  0  0  0  0
   35.7011   -1.3332  -35.5969 O   0  0  0  0  0  0  0  0  0  0  0  0
   36.2042   -3.7408  -35.4004 C   0  0  1  0  0  0  0  0  0  0  0  0
   37.4967   -3.3813  -35.9915 O   0  0  0  0  0  0  0  0  0  0  0  0
   36.2735   -3.9658  -34.0187 C   0  0  2  0  0  0  0  0  0  0  0  0
   36.7214   -5.3103  -33.6205 N   0  0  0  0  0  0  0  0  0  0  0  0
   37.2660   -5.6140  -32.4156 C   0  0  0  0  0  0  0  0  0  0  0  0
   37.5097   -6.9556  -32.3800 N   0  0  0  0  0  0  0  0  0  0  0  0
   37.1351   -7.4330  -33.5804 C   0  0  0  0  0  0  0  0  0  0  0  0
   37.1783   -8.6892  -34.1379 C   0  0  0  0  0  0  0  0  0  0  0  0
   37.6416   -9.9120  -33.5445 N   0  0  0  0  0  0  0  0  0  0  0  0
   36.7673   -8.8601  -35.3537 N   0  0  0  0  0  0  0  0  0  0  0  0
   36.3018   -7.8389  -36.1212 C   0  0  0  0  0  0  0  0  0  0  0  0
   36.2315   -6.5706  -35.5990 N   0  0  0  0  0  0  0  0  0  0  0  0
   36.6616   -6.4320  -34.3539 C   0  0  0  0  0  0  0  0  0  0  0  0
   30.4287   -3.9385  -36.8502 O   0  0  0  0  0  0  0  0  0  0  0  0
   29.8607   -5.2820  -37.5620 P   0  0  2  0  0  0  0  0  0  0  0  0
   30.5175   -6.4965  -37.0032 O   0  0  0  0  0  0  0  0  0  0  0  0
   29.7746   -5.1136  -39.0353 O   0  0  0  0  0  0  0  0  0  0  0  0
   28.3836   -5.2611  -36.8983 O   0  0  0  0  0  0  0  0  0  0  0  0
   27.8726   -6.5080  -36.3806 C   0  0  0  0  0  0  0  0  0  0  0  0
   27.5429   -7.4215  -37.5779 C   0  0  1  0  0  0  0  0  0  0  0  0
   26.8358   -8.5332  -37.1846 O   0  0  0  0  0  0  0  0  0  0  0  0
   26.7672   -6.6860  -38.7075 C   0  0  1  0  0  0  0  0  0  0  0  0
   27.1603   -7.1053  -40.0111 O   0  0  0  0  0  0  0  0  0  0  0  0
   25.3692   -7.2867  -38.4323 C   0  0  1  0  0  0  0  0  0  0  0  0
   24.5051   -7.1413  -39.5779 O   0  0  0  0  0  0  0  0  0  0  0  0
   25.6050   -8.6250  -38.1422 C   0  0  2  0  0  0  0  0  0  0  0  0
   24.6288   -9.3416  -37.3579 N   0  0  0  0  0  0  0  0  0  0  0  0
   23.2866   -9.2529  -37.7951 C   0  0  0  0  0  0  0  0  0  0  0  0
   22.2724  -10.0551  -37.1265 C   0  0  0  0  0  0  0  0  0  0  0  0
   20.8663  -10.0522  -37.6108 C   0  0  0  0  0  0  0  0  0  0  0  0
   19.9894  -10.4448  -36.8773 O   0  0  0  0  0  0  0  0  0  0  0  0
   20.6599   -9.6384  -38.9502 N   0  0  0  0  0  0  0  0  0  0  0  0
   22.5887  -10.7524  -35.8160 C   0  0  0  0  0  0  0  0  0  0  0  0
   24.0453  -11.0614  -35.6789 C   0  0  0  0  0  0  0  0  0  0  0  0
   25.0502  -10.2325  -36.3376 C   0  0  0  0  0  0  0  0  0  0  0  0
   32.1965   -2.2405  -34.5864 H   0  0  0  0  0  0  0  0  0  0  0  0
   32.3909   -3.8078  -33.7576 H   0  0  0  0  0  0  0  0  0  0  0  0
   34.3183   -1.8566  -33.6983 H   0  0  0  0  0  0  0  0  0  0  0  0
   34.5861   -2.6578  -36.4830 H   0  0  0  0  0  0  0  0  0  0  0  0
   35.8473   -0.9961  -34.6776 H   0  0  0  0  0  0  0  0  0  0  0  0
   35.9195   -4.6506  -35.9492 H   0  0  0  0  0  0  0  0  0  0  0  0
   38.1502   -3.1996  -35.2704 H   0  0  0  0  0  0  0  0  0  0  0  0
   37.0000   -3.2569  -33.5950 H   0  0  0  0  0  0  0  0  0  0  0  0
   37.4753   -4.9000  -31.6054 H   0  0  0  0  0  0  0  0  0  0  0  0
   37.6158  -10.7887  -34.0846 H   0  0  0  0  0  0  0  0  0  0  0  0
   37.9996   -9.9124  -32.5787 H   0  0  0  0  0  0  0  0  0  0  0  0
   35.9826   -8.0279  -37.1568 H   0  0  0  0  0  0  0  0  0  0  0  0
   28.6310   -6.9865  -35.7435 H   0  0  0  0  0  0  0  0  0  0  0  0
   26.9709   -6.3299  -35.7762 H   0  0  0  0  0  0  0  0  0  0  0  0
   28.5150   -7.7341  -37.9871 H   0  0  0  0  0  0  0  0  0  0  0  0
   26.8897   -5.5929  -38.6973 H   0  0  0  0  0  0  0  0  0  0  0  0
   27.8354   -7.8255  -39.9365 H   0  0  0  0  0  0  0  0  0  0  0  0
   24.8554   -6.7738  -37.6059 H   0  0  0  0  0  0  0  0  0  0  0  0
   23.5763   -6.9850  -39.2729 H   0  0  0  0  0  0  0  0  0  0  0  0
   25.6643   -9.1574  -39.1030 H   0  0  0  0  0  0  0  0  0  0  0  0
   23.0133   -8.5878  -38.6276 H   0  0  0  0  0  0  0  0  0  0  0  0
   19.7074   -9.6159  -39.3414 H   0  0  0  0  0  0  0  0  0  0  0  0
   21.4625   -9.3601  -39.5327 H   0  0  0  0  0  0  0  0  0  0  0  0
   22.2852  -10.0991  -34.9846 H   0  0  0  0  0  0  0  0  0  0  0  0
   22.0379  -11.7044  -35.7979 H   0  0  0  0  0  0  0  0  0  0  0  0
   24.3633  -11.9237  -35.0745 H   0  0  0  0  0  0  0  0  0  0  0  0
   26.1098  -10.2973  -36.0495 H   0  0  0  0  0  0  0  0  0  0  0  0
  1  2  2  0
  1  3  1  6
  1  4  1  0
  1 23  1  0
  4  5  1  0
  6  5  1  0
  6  7  1  0
  6  8  1  0
  7 12  1  0
  8  9  1  0
  8 10  1  0
 10 11  1  0
 10 12  1  0
 12 13  1  0
 13 14  1  0
 13 22  1  0
 14 15  2  0
 15 16  1  0
 16 17  2  0
 16 22  1  0
 17 18  1  0
 17 19  1  0
 19 20  2  0
 20 21  1  0
 21 22  2  0
 23 24  1  0
 24 25  1  6
 24 26  2  0
 24 27  1  0
 27 28  1  0
 29 28  1  0
 29 30  1  0
 29 31  1  0
 30 35  1  0
 31 32  1  0
 31 33  1  0
 33 34  1  0
 33 35  1  0
 35 36  1  0
 36 37  1  0
 36 44  1  0
 37 38  2  0
 38 39  1  0
 38 42  1  0
 39 40  2  0
 39 41  1  0
 42 43  1  0
 43 44  2  0
  5 45  1  0
  5 46  1  0
  6 47  1  1
  8 48  1  6
  9 49  1  0
 10 50  1  6
 11 51  1  0
 12 52  1  1
 14 53  1  0
 18 54  1  0
 18 55  1  0
 20 56  1  0
 28 57  1  0
 28 58  1  0
 29 59  1  6
 31 60  1  6
 32 61  1  0
 33 62  1  1
 34 63  1  0
 35 64  1  6
 37 65  1  0
 41 66  1  0
 41 67  1  0
 42 68  1  0
 42 69  1  0
 43 70  1  0
 44 71  1  0
M  CHG  2   3  -1  25  -1
M  END
>  <filename_input>  (8) 
7UTW_NAI_docked.sdf

>  <pdb_id>  (8) 
7UTW_NAI

>  <pose_rank>  (8) 
7

>  <num_atoms_heavy>  (8) 
44

>  <num_torsions>  (8) 
11

>  <pose>  (8) 
[31.845693136017204, -3.20077890176068, -36.96729571008166, -4.059484494143589, -2.942774042069827, 1.2502568185889236, -3.019123092444908, 1.6515108328591945, 1.5988890092030443, 3.425965251690898, 3.2238104704820416, -0.3487439324067268, -3.515350711334167, 1.724246484055255, -1.7154427725992187, -1.7097058289456035, -0.03354991774676228]

>  <energy>  (8) 
-811.0818830683384

>  <inter_energy>  (8) 
-861.3640489115837

>  <intra_energy>  (8) 
51.951424754509574

>  <rmsd>  (8) 
3.57917

>  <sdf_rank>  (8) 
0

$$$$

     RDKit          3D

 71 75  0  0  0  0  0  0  0  0999 V2000
   29.3380   -4.9963  -37.9946 P   0  0  2  0  0  0  0  0  0  0  0  0
   29.6619   -4.7620  -39.4506 O   0  0  0  0  0  0  0  0  0  0  0  0
   29.8845   -6.2188  -37.3190 O   0  0  0  0  0  0  0  0  0  0  0  0
   27.7473   -5.0246  -37.8001 O   0  0  0  0  0  0  0  0  0  0  0  0
   27.2181   -5.2509  -36.5114 C   0  0  0  0  0  0  0  0  0  0  0  0
   27.1051   -6.8017  -36.3072 C   0  0  1  0  0  0  0  0  0  0  0  0
   25.7987   -7.1450  -36.5117 O   0  0  0  0  0  0  0  0  0  0  0  0
   27.9914   -7.6223  -37.2958 C   0  0  1  0  0  0  0  0  0  0  0  0
   28.9111   -8.4111  -36.6293 O   0  0  0  0  0  0  0  0  0  0  0  0
   26.9143   -8.4315  -38.0785 C   0  0  1  0  0  0  0  0  0  0  0  0
   27.4078   -9.7422  -38.5115 O   0  0  0  0  0  0  0  0  0  0  0  0
   25.8399   -8.5157  -37.1823 C   0  0  2  0  0  0  0  0  0  0  0  0
   24.5169   -8.7033  -37.7997 N   0  0  0  0  0  0  0  0  0  0  0  0
   24.1368   -8.1608  -38.9836 C   0  0  0  0  0  0  0  0  0  0  0  0
   22.8728   -8.5888  -39.2663 N   0  0  0  0  0  0  0  0  0  0  0  0
   22.5009   -9.3594  -38.2285 C   0  0  0  0  0  0  0  0  0  0  0  0
   21.3353  -10.0271  -37.9350 C   0  0  0  0  0  0  0  0  0  0  0  0
   20.1333  -10.1074  -38.7165 N   0  0  0  0  0  0  0  0  0  0  0  0
   21.2414  -10.6847  -36.8237 N   0  0  0  0  0  0  0  0  0  0  0  0
   22.2501  -10.7350  -35.9134 C   0  0  0  0  0  0  0  0  0  0  0  0
   23.4353  -10.0911  -36.1727 N   0  0  0  0  0  0  0  0  0  0  0  0
   23.4956   -9.4273  -37.3173 C   0  0  0  0  0  0  0  0  0  0  0  0
   29.8364   -3.6554  -37.2739 O   0  0  0  0  0  0  0  0  0  0  0  0
   31.2530   -3.2795  -36.5767 P   0  0  2  0  0  0  0  0  0  0  0  0
   31.0820   -3.0579  -35.1138 O   0  0  0  0  0  0  0  0  0  0  0  0
   31.9991   -2.2790  -37.3823 O   0  0  0  0  0  0  0  0  0  0  0  0
   31.9411   -4.7402  -36.7020 O   0  0  0  0  0  0  0  0  0  0  0  0
   33.3239   -4.7877  -37.1139 C   0  0  0  0  0  0  0  0  0  0  0  0
   34.1999   -4.5215  -35.8734 C   0  0  1  0  0  0  0  0  0  0  0  0
   35.4646   -5.0381  -36.0287 O   0  0  0  0  0  0  0  0  0  0  0  0
   34.2967   -3.0123  -35.5108 C   0  0  1  0  0  0  0  0  0  0  0  0
   34.3071   -2.7813  -34.1051 O   0  0  0  0  0  0  0  0  0  0  0  0
   35.7313   -2.7599  -36.0298 C   0  0  1  0  0  0  0  0  0  0  0  0
   36.2904   -1.5619  -35.4533 O   0  0  0  0  0  0  0  0  0  0  0  0
   36.4519   -3.8870  -35.6537 C   0  0  2  0  0  0  0  0  0  0  0  0
   37.6445   -4.2201  -36.3943 N   0  0  0  0  0  0  0  0  0  0  0  0
   37.8110   -3.5695  -37.6391 C   0  0  0  0  0  0  0  0  0  0  0  0
   39.0522   -3.7619  -38.3751 C   0  0  0  0  0  0  0  0  0  0  0  0
   39.2984   -3.0297  -39.6459 C   0  0  0  0  0  0  0  0  0  0  0  0
   38.3672   -2.7909  -40.3786 O   0  0  0  0  0  0  0  0  0  0  0  0
   40.6475   -2.7128  -39.9416 N   0  0  0  0  0  0  0  0  0  0  0  0
   40.0263   -4.8503  -37.9625 C   0  0  0  0  0  0  0  0  0  0  0  0
   39.9215   -5.1789  -36.5076 C   0  0  0  0  0  0  0  0  0  0  0  0
   38.6626   -5.0016  -35.7902 C   0  0  0  0  0  0  0  0  0  0  0  0
   27.8866   -4.8207  -35.7511 H   0  0  0  0  0  0  0  0  0  0  0  0
   26.2306   -4.7765  -36.4119 H   0  0  0  0  0  0  0  0  0  0  0  0
   27.4570   -7.0372  -35.2919 H   0  0  0  0  0  0  0  0  0  0  0  0
   28.6300   -7.0159  -37.9549 H   0  0  0  0  0  0  0  0  0  0  0  0
   28.7891   -8.3064  -35.6524 H   0  0  0  0  0  0  0  0  0  0  0  0
   26.6228   -7.9468  -39.0219 H   0  0  0  0  0  0  0  0  0  0  0  0
   27.6161  -10.2953  -37.7173 H   0  0  0  0  0  0  0  0  0  0  0  0
   26.0071   -9.3872  -36.5323 H   0  0  0  0  0  0  0  0  0  0  0  0
   24.7443   -7.4902  -39.6090 H   0  0  0  0  0  0  0  0  0  0  0  0
   19.3288  -10.6492  -38.3698 H   0  0  0  0  0  0  0  0  0  0  0  0
   20.0756   -9.6233  -39.6238 H   0  0  0  0  0  0  0  0  0  0  0  0
   22.1175  -11.2894  -34.9727 H   0  0  0  0  0  0  0  0  0  0  0  0
   33.5560   -5.7796  -37.5289 H   0  0  0  0  0  0  0  0  0  0  0  0
   33.5182   -4.0311  -37.8883 H   0  0  0  0  0  0  0  0  0  0  0  0
   33.6964   -5.0349  -35.0409 H   0  0  0  0  0  0  0  0  0  0  0  0
   33.4713   -2.4022  -35.9062 H   0  0  0  0  0  0  0  0  0  0  0  0
   34.2683   -3.6479  -33.6280 H   0  0  0  0  0  0  0  0  0  0  0  0
   35.7547   -2.6043  -37.1185 H   0  0  0  0  0  0  0  0  0  0  0  0
   36.2606   -1.6258  -34.4658 H   0  0  0  0  0  0  0  0  0  0  0  0
   36.7802   -3.7282  -34.6159 H   0  0  0  0  0  0  0  0  0  0  0  0
   37.0149   -2.9280  -38.0448 H   0  0  0  0  0  0  0  0  0  0  0  0
   40.8796   -2.2064  -40.8080 H   0  0  0  0  0  0  0  0  0  0  0  0
   41.3960   -2.9890  -39.2902 H   0  0  0  0  0  0  0  0  0  0  0  0
   39.8126   -5.7574  -38.5470 H   0  0  0  0  0  0  0  0  0  0  0  0
   41.0452   -4.4824  -38.1535 H   0  0  0  0  0  0  0  0  0  0  0  0
   40.8037   -5.5587  -35.9713 H   0  0  0  0  0  0  0  0  0  0  0  0
   38.5070   -5.4633  -34.8040 H   0  0  0  0  0  0  0  0  0  0  0  0
  1  2  2  0
  1  3  1  1
  1  4  1  0
  1 23  1  0
  4  5  1  0
  6  5  1  0
  6  7  1  0
  6  8  1  0
  7 12  1  0
  8  9  1  0
  8 10  1  0
 10 11  1  0
 10 12  1  0
 12 13  1  0
 13 14  1  0
 13 22  1  0
 14 15  2  0
 15 16  1  0
 16 17  2  0
 16 22  1  0
 17 18  1  0
 17 19  1  0
 19 20  2  0
 20 21  1  0
 21 22  2  0
 23 24  1  0
 24 25  1  1
 24 26  2  0
 24 27  1  0
 27 28  1  0
 29 28  1  0
 29 30  1  0
 29 31  1  0
 30 35  1  0
 31 32  1  0
 31 33  1  0
 33 34  1  0
 33 35  1  0
 35 36  1  0
 36 37  1  0
 36 44  1  0
 37 38  2  0
 38 39  1  0
 38 42  1  0
 39 40  2  0
 39 41  1  0
 42 43  1  0
 43 44  2  0
  5 45  1  0
  5 46  1  0
  6 47  1  1
  8 48  1  6
  9 49  1  0
 10 50  1  6
 11 51  1  0
 12 52  1  1
 14 53  1  0
 18 54  1  0
 18 55  1  0
 20 56  1  0
 28 57  1  0
 28 58  1  0
 29 59  1  1
 31 60  1  6
 32 61  1  0
 33 62  1  6
 34 63  1  0
 35 64  1  1
 37 65  1  0
 41 66  1  0
 41 67  1  0
 42 68  1  0
 42 69  1  0
 43 70  1  0
 44 71  1  0
M  CHG  2   3  -1  25  -1
M  END
>  <filename_input>  (9) 
7UTW_NAI_docked.sdf

>  <pdb_id>  (9) 
7UTW_NAI

>  <pose_rank>  (9) 
8

>  <num_atoms_heavy>  (9) 
44

>  <num_torsions>  (9) 
11

>  <pose>  (9) 
[29.33795053762728, -4.996332742591, -37.994589273810774, -2.0971737300761695, 0.9202274027773781, 2.0924168632688827, -8.89227288289986, -10.301357398190872, 1.4380214686250066, 12.630912639498726, -11.367853963151232, -3.6043645880088935, 1.2349676745520448, -1.8862193286497728, -2.307956579123161, -2.858164762591811, 2.203369972237054]

>  <energy>  (9) 
-663.4012849970366

>  <inter_energy>  (9) 
-828.3185873140751

>  <intra_energy>  (9) 
161.65342242039793

>  <rmsd>  (9) 
12.4829

>  <sdf_rank>  (9) 
0

$$$$

     RDKit          3D

 71 75  0  0  0  0  0  0  0  0999 V2000
   33.3075   -8.3863  -36.4167 P   0  0  2  0  0  0  0  0  0  0  0  0
   33.2753   -9.5306  -35.4321 O   0  0  0  0  0  0  0  0  0  0  0  0
   33.8400   -8.6335  -37.7968 O   0  0  0  0  0  0  0  0  0  0  0  0
   34.1537   -7.1740  -35.7978 O   0  0  0  0  0  0  0  0  0  0  0  0
   33.8425   -6.7126  -34.5007 C   0  0  0  0  0  0  0  0  0  0  0  0
   33.8377   -5.1449  -34.5401 C   0  0  1  0  0  0  0  0  0  0  0  0
   33.6364   -4.7063  -33.2619 O   0  0  0  0  0  0  0  0  0  0  0  0
   35.1745   -4.5348  -35.0661 C   0  0  1  0  0  0  0  0  0  0  0  0
   34.9785   -3.7630  -36.1967 O   0  0  0  0  0  0  0  0  0  0  0  0
   35.6556   -3.7260  -33.8243 C   0  0  1  0  0  0  0  0  0  0  0  0
   36.4136   -2.5285  -34.1990 O   0  0  0  0  0  0  0  0  0  0  0  0
   34.4714   -3.4349  -33.1333 C   0  0  2  0  0  0  0  0  0  0  0  0
   34.6262   -3.1977  -31.6889 N   0  0  0  0  0  0  0  0  0  0  0  0
   33.9908   -2.2182  -30.9980 C   0  0  0  0  0  0  0  0  0  0  0  0
   34.3304   -2.3311  -29.6817 N   0  0  0  0  0  0  0  0  0  0  0  0
   35.1920   -3.3613  -29.6076 C   0  0  0  0  0  0  0  0  0  0  0  0
   35.8925   -3.9163  -28.5626 C   0  0  0  0  0  0  0  0  0  0  0  0
   35.8745   -3.5384  -27.1773 N   0  0  0  0  0  0  0  0  0  0  0  0
   36.6930   -4.9083  -28.7890 N   0  0  0  0  0  0  0  0  0  0  0  0
   36.8877   -5.4253  -30.0313 C   0  0  0  0  0  0  0  0  0  0  0  0
   36.1991   -4.9074  -31.1010 N   0  0  0  0  0  0  0  0  0  0  0  0
   35.3907   -3.8929  -30.8333 C   0  0  0  0  0  0  0  0  0  0  0  0
   31.7895   -7.8763  -36.4562 O   0  0  0  0  0  0  0  0  0  0  0  0
   31.1526   -6.4476  -36.8893 P   0  0  2  0  0  0  0  0  0  0  0  0
   32.0646   -5.7190  -37.8145 O   0  0  0  0  0  0  0  0  0  0  0  0
   30.5846   -5.7353  -35.7160 O   0  0  0  0  0  0  0  0  0  0  0  0
   29.9701   -7.0242  -37.8337 O   0  0  0  0  0  0  0  0  0  0  0  0
   28.8597   -7.6760  -37.1811 C   0  0  0  0  0  0  0  0  0  0  0  0
   27.6287   -6.7558  -37.3028 C   0  0  1  0  0  0  0  0  0  0  0  0
   26.6241   -7.3506  -38.0291 O   0  0  0  0  0  0  0  0  0  0  0  0
   27.0723   -6.3004  -35.9238 C   0  0  1  0  0  0  0  0  0  0  0  0
   26.6056   -4.9544  -35.9336 O   0  0  0  0  0  0  0  0  0  0  0  0
   25.8291   -7.2188  -35.8815 C   0  0  1  0  0  0  0  0  0  0  0  0
   24.8576   -6.7369  -34.9307 O   0  0  0  0  0  0  0  0  0  0  0  0
   25.3243   -7.1984  -37.1760 C   0  0  2  0  0  0  0  0  0  0  0  0
   24.5097   -8.3056  -37.6145 N   0  0  0  0  0  0  0  0  0  0  0  0
   23.4687   -8.7013  -36.7426 C   0  0  0  0  0  0  0  0  0  0  0  0
   22.5311   -9.7245  -37.1821 C   0  0  0  0  0  0  0  0  0  0  0  0
   21.3753  -10.1073  -36.3282 C   0  0  0  0  0  0  0  0  0  0  0  0
   20.2540   -9.9732  -36.7592 O   0  0  0  0  0  0  0  0  0  0  0  0
   21.6779  -10.5530  -35.0176 N   0  0  0  0  0  0  0  0  0  0  0  0
   22.8234  -10.5491  -38.4225 C   0  0  0  0  0  0  0  0  0  0  0  0
   23.6938   -9.8176  -39.3937 C   0  0  0  0  0  0  0  0  0  0  0  0
   24.6451   -8.8107  -38.9332 C   0  0  0  0  0  0  0  0  0  0  0  0
   32.8515   -7.0828  -34.1992 H   0  0  0  0  0  0  0  0  0  0  0  0
   34.5837   -7.0773  -33.7742 H   0  0  0  0  0  0  0  0  0  0  0  0
   33.0458   -4.8249  -35.2334 H   0  0  0  0  0  0  0  0  0  0  0  0
   35.9159   -5.2728  -35.4064 H   0  0  0  0  0  0  0  0  0  0  0  0
   34.7438   -2.8392  -35.9290 H   0  0  0  0  0  0  0  0  0  0  0  0
   36.3651   -4.2895  -33.2005 H   0  0  0  0  0  0  0  0  0  0  0  0
   36.7119   -2.0574  -33.3809 H   0  0  0  0  0  0  0  0  0  0  0  0
   34.0486   -2.5122  -33.5573 H   0  0  0  0  0  0  0  0  0  0  0  0
   33.3167   -1.4618  -31.4262 H   0  0  0  0  0  0  0  0  0  0  0  0
   36.4564   -4.0478  -26.4970 H   0  0  0  0  0  0  0  0  0  0  0  0
   35.2797   -2.7580  -26.8641 H   0  0  0  0  0  0  0  0  0  0  0  0
   37.5941   -6.2554  -30.1793 H   0  0  0  0  0  0  0  0  0  0  0  0
   28.6543   -8.6406  -37.6682 H   0  0  0  0  0  0  0  0  0  0  0  0
   29.0944   -7.8624  -36.1227 H   0  0  0  0  0  0  0  0  0  0  0  0
   27.9814   -5.8599  -37.8347 H   0  0  0  0  0  0  0  0  0  0  0  0
   27.8043   -6.3552  -35.1045 H   0  0  0  0  0  0  0  0  0  0  0  0
   26.4953   -4.6365  -35.0025 H   0  0  0  0  0  0  0  0  0  0  0  0
   26.0810   -8.2393  -35.5571 H   0  0  0  0  0  0  0  0  0  0  0  0
   25.1865   -6.9001  -34.0113 H   0  0  0  0  0  0  0  0  0  0  0  0
   24.6851   -6.3070  -37.2586 H   0  0  0  0  0  0  0  0  0  0  0  0
   23.3691   -8.2430  -35.7476 H   0  0  0  0  0  0  0  0  0  0  0  0
   20.9184  -10.8317  -34.3802 H   0  0  0  0  0  0  0  0  0  0  0  0
   22.6575  -10.5984  -34.7025 H   0  0  0  0  0  0  0  0  0  0  0  0
   23.3316  -11.4765  -38.1199 H   0  0  0  0  0  0  0  0  0  0  0  0
   21.8659  -10.7620  -38.9204 H   0  0  0  0  0  0  0  0  0  0  0  0
   23.6163  -10.0408  -40.4680 H   0  0  0  0  0  0  0  0  0  0  0  0
   25.4484   -8.4518  -39.5934 H   0  0  0  0  0  0  0  0  0  0  0  0
  1  2  2  0
  1  3  1  6
  1  4  1  0
  1 23  1  0
  4  5  1  0
  6  5  1  0
  6  7  1  0
  6  8  1  0
  7 12  1  0
  8  9  1  0
  8 10  1  0
 10 11  1  0
 10 12  1  0
 12 13  1  0
 13 14  1  0
 13 22  1  0
 14 15  2  0
 15 16  1  0
 16 17  2  0
 16 22  1  0
 17 18  1  0
 17 19  1  0
 19 20  2  0
 20 21  1  0
 21 22  2  0
 23 24  1  0
 24 25  1  6
 24 26  2  0
 24 27  1  0
 27 28  1  0
 29 28  1  0
 29 30  1  0
 29 31  1  0
 30 35  1  0
 31 32  1  0
 31 33  1  0
 33 34  1  0
 33 35  1  0
 35 36  1  0
 36 37  1  0
 36 44  1  0
 37 38  2  0
 38 39  1  0
 38 42  1  0
 39 40  2  0
 39 41  1  0
 42 43  1  0
 43 44  2  0
  5 45  1  0
  5 46  1  0
  6 47  1  6
  8 48  1  6
  9 49  1  0
 10 50  1  1
 11 51  1  0
 12 52  1  6
 14 53  1  0
 18 54  1  0
 18 55  1  0
 20 56  1  0
 28 57  1  0
 28 58  1  0
 29 59  1  6
 31 60  1  1
 32 61  1  0
 33 62  1  1
 34 63  1  0
 35 64  1  6
 37 65  1  0
 41 66  1  0
 41 67  1  0
 42 68  1  0
 42 69  1  0
 43 70  1  0
 44 71  1  0
M  CHG  2   3  -1  25  -1
M  END
>  <filename_input>  (10) 
7UTW_NAI_docked.sdf

>  <pdb_id>  (10) 
7UTW_NAI

>  <pose_rank>  (10) 
9

>  <num_atoms_heavy>  (10) 
44

>  <num_torsions>  (10) 
11

>  <pose>  (10) 
[33.30747398861192, -8.386340582213148, -36.41670514063289, 3.0489213218527023, 0.8490352019417927, 3.89631018354171, -0.3435939013151589, 1.4137143876439364, 0.13550812738792126, -3.1987948497464274, -0.7131330895936677, -1.184734387475619, 0.09292012458201242, -1.4146385055589736, -2.9955657464492647, 4.531828200613795, -1.3889116775855905]

>  <energy>  (10) 
-828.8823356586956

>  <inter_energy>  (10) 
-854.2735226223853

>  <intra_energy>  (10) 
32.03734938803168

>  <rmsd>  (10) 
3.23701

>  <sdf_rank>  (10) 
0

$$$$

     RDKit          3D

 71 75  0  0  0  0  0  0  0  0999 V2000
   32.6126   -8.2221  -36.0849 P   0  0  2  0  0  0  0  0  0  0  0  0
   31.5351   -9.2233  -36.4258 O   0  0  0  0  0  0  0  0  0  0  0  0
   32.9971   -8.0335  -34.6475 O   0  0  0  0  0  0  0  0  0  0  0  0
   32.2006   -6.7811  -36.6530 O   0  0  0  0  0  0  0  0  0  0  0  0
   31.0108   -6.1773  -36.1927 C   0  0  0  0  0  0  0  0  0  0  0  0
   30.0117   -6.1100  -37.3997 C   0  0  1  0  0  0  0  0  0  0  0  0
   29.0793   -7.0907  -37.2113 O   0  0  0  0  0  0  0  0  0  0  0  0
   29.2712   -4.7409  -37.5146 C   0  0  1  0  0  0  0  0  0  0  0  0
   29.5195   -4.1214  -38.7258 O   0  0  0  0  0  0  0  0  0  0  0  0
   27.7874   -5.1739  -37.3186 C   0  0  1  0  0  0  0  0  0  0  0  0
   26.8556   -4.3228  -38.0644 O   0  0  0  0  0  0  0  0  0  0  0  0
   27.7692   -6.5110  -37.7383 C   0  0  2  0  0  0  0  0  0  0  0  0
   26.6991   -7.3393  -37.1591 N   0  0  0  0  0  0  0  0  0  0  0  0
   26.7084   -7.8350  -35.8963 C   0  0  0  0  0  0  0  0  0  0  0  0
   25.5388   -8.5057  -35.6892 N   0  0  0  0  0  0  0  0  0  0  0  0
   24.8567   -8.4284  -36.8459 C   0  0  0  0  0  0  0  0  0  0  0  0
   23.6455   -8.9398  -37.2489 C   0  0  0  0  0  0  0  0  0  0  0  0
   22.7120   -9.7233  -36.4895 N   0  0  0  0  0  0  0  0  0  0  0  0
   23.2365   -8.7280  -38.4589 N   0  0  0  0  0  0  0  0  0  0  0  0
   23.9649   -8.0261  -39.3674 C   0  0  0  0  0  0  0  0  0  0  0  0
   25.1750   -7.4887  -39.0024 N   0  0  0  0  0  0  0  0  0  0  0  0
   25.5629   -7.7263  -37.7585 C   0  0  0  0  0  0  0  0  0  0  0  0
   33.8623   -8.6928  -36.9695 O   0  0  0  0  0  0  0  0  0  0  0  0
   35.4603   -8.5590  -36.7191 P   0  0  2  0  0  0  0  0  0  0  0  0
   36.2083   -8.6537  -38.0037 O   0  0  0  0  0  0  0  0  0  0  0  0
   35.8933   -9.3838  -35.5620 O   0  0  0  0  0  0  0  0  0  0  0  0
   35.4806   -6.9854  -36.3372 O   0  0  0  0  0  0  0  0  0  0  0  0
   36.7711   -6.3505  -36.2135 C   0  0  0  0  0  0  0  0  0  0  0  0
   36.6428   -5.2061  -35.1884 C   0  0  1  0  0  0  0  0  0  0  0  0
   36.1560   -4.0596  -35.7706 O   0  0  0  0  0  0  0  0  0  0  0  0
   35.7588   -5.5826  -33.9655 C   0  0  1  0  0  0  0  0  0  0  0  0
   36.2464   -5.0378  -32.7427 O   0  0  0  0  0  0  0  0  0  0  0  0
   34.4979   -4.7782  -34.3579 C   0  0  1  0  0  0  0  0  0  0  0  0
   33.6409   -4.5642  -33.2178 O   0  0  0  0  0  0  0  0  0  0  0  0
   34.9816   -3.5765  -34.8607 C   0  0  2  0  0  0  0  0  0  0  0  0
   34.1484   -2.8249  -35.7677 N   0  0  0  0  0  0  0  0  0  0  0  0
   33.9912   -3.3634  -37.0660 C   0  0  0  0  0  0  0  0  0  0  0  0
   33.0620   -2.7248  -37.9869 C   0  0  0  0  0  0  0  0  0  0  0  0
   32.8073   -3.3098  -39.3302 C   0  0  0  0  0  0  0  0  0  0  0  0
   32.4016   -4.4455  -39.4113 O   0  0  0  0  0  0  0  0  0  0  0  0
   33.1257   -2.4952  -40.4451 N   0  0  0  0  0  0  0  0  0  0  0  0
   32.4883   -1.3559  -37.6692 C   0  0  0  0  0  0  0  0  0  0  0  0
   32.4340   -1.0949  -36.1979 C   0  0  0  0  0  0  0  0  0  0  0  0
   33.3883   -1.7260  -35.2913 C   0  0  0  0  0  0  0  0  0  0  0  0
   30.5763   -6.7776  -35.3799 H   0  0  0  0  0  0  0  0  0  0  0  0
   31.2159   -5.1682  -35.8059 H   0  0  0  0  0  0  0  0  0  0  0  0
   30.5896   -6.2395  -38.3267 H   0  0  0  0  0  0  0  0  0  0  0  0
   29.5920   -3.9805  -36.7873 H   0  0  0  0  0  0  0  0  0  0  0  0
   29.8829   -3.2148  -38.5644 H   0  0  0  0  0  0  0  0  0  0  0  0
   27.4490   -5.0675  -36.2774 H   0  0  0  0  0  0  0  0  0  0  0  0
   26.2952   -3.8109  -37.4288 H   0  0  0  0  0  0  0  0  0  0  0  0
   27.6177   -6.5232  -38.8278 H   0  0  0  0  0  0  0  0  0  0  0  0
   27.5206   -7.7162  -35.1641 H   0  0  0  0  0  0  0  0  0  0  0  0
   21.8342  -10.0422  -36.9238 H   0  0  0  0  0  0  0  0  0  0  0  0
   22.9202   -9.9663  -35.5104 H   0  0  0  0  0  0  0  0  0  0  0  0
   23.5863   -7.8892  -40.3911 H   0  0  0  0  0  0  0  0  0  0  0  0
   37.5152   -7.0819  -35.8652 H   0  0  0  0  0  0  0  0  0  0  0  0
   37.0981   -5.9565  -37.1871 H   0  0  0  0  0  0  0  0  0  0  0  0
   37.6633   -5.0231  -34.8210 H   0  0  0  0  0  0  0  0  0  0  0  0
   35.6689   -6.6653  -33.7935 H   0  0  0  0  0  0  0  0  0  0  0  0
   35.8251   -5.5086  -31.9805 H   0  0  0  0  0  0  0  0  0  0  0  0
   33.8816   -5.3118  -35.0965 H   0  0  0  0  0  0  0  0  0  0  0  0
   34.1606   -4.6940  -32.3853 H   0  0  0  0  0  0  0  0  0  0  0  0
   35.1577   -2.9146  -34.0000 H   0  0  0  0  0  0  0  0  0  0  0  0
   34.5623   -4.2513  -37.3753 H   0  0  0  0  0  0  0  0  0  0  0  0
   32.9708   -2.8468  -41.4008 H   0  0  0  0  0  0  0  0  0  0  0  0
   33.5119   -1.5515  -40.2998 H   0  0  0  0  0  0  0  0  0  0  0  0
   33.1190   -0.5888  -38.1423 H   0  0  0  0  0  0  0  0  0  0  0  0
   31.4594   -1.3223  -38.0568 H   0  0  0  0  0  0  0  0  0  0  0  0
   31.6657   -0.4193  -35.7939 H   0  0  0  0  0  0  0  0  0  0  0  0
   33.5151   -1.3579  -34.2625 H   0  0  0  0  0  0  0  0  0  0  0  0
  1  2  2  0
  1  3  1  1
  1  4  1  0
  1 23  1  0
  4  5  1  0
  6  5  1  0
  6  7  1  0
  6  8  1  0
  7 12  1  0
  8  9  1  0
  8 10  1  0
 10 11  1  0
 10 12  1  0
 12 13  1  0
 13 14  1  0
 13 22  1  0
 14 15  2  0
 15 16  1  0
 16 17  2  0
 16 22  1  0
 17 18  1  0
 17 19  1  0
 19 20  2  0
 20 21  1  0
 21 22  2  0
 23 24  1  0
 24 25  1  6
 24 26  2  0
 24 27  1  0
 27 28  1  0
 29 28  1  0
 29 30  1  0
 29 31  1  0
 30 35  1  0
 31 32  1  0
 31 33  1  0
 33 34  1  0
 33 35  1  0
 35 36  1  0
 36 37  1  0
 36 44  1  0
 37 38  2  0
 38 39  1  0
 38 42  1  0
 39 40  2  0
 39 41  1  0
 42 43  1  0
 43 44  2  0
  5 45  1  0
  5 46  1  0
  6 47  1  6
  8 48  1  1
  9 49  1  0
 10 50  1  1
 11 51  1  0
 12 52  1  6
 14 53  1  0
 18 54  1  0
 18 55  1  0
 20 56  1  0
 28 57  1  0
 28 58  1  0
 29 59  1  1
 31 60  1  1
 32 61  1  0
 33 62  1  6
 34 63  1  0
 35 64  1  1
 37 65  1  0
 41 66  1  0
 41 67  1  0
 42 68  1  0
 42 69  1  0
 43 70  1  0
 44 71  1  0
M  CHG  2   3  -1  25  -1
M  END
>  <filename_input>  (11) 
7UTW_NAI_docked.sdf

>  <pdb_id>  (11) 
7UTW_NAI

>  <pose_rank>  (11) 
10

>  <num_atoms_heavy>  (11) 
44

>  <num_torsions>  (11) 
11

>  <pose>  (11) 
[32.61261898754324, -8.222074234686618, -36.08490429816682, -0.308628080539796, 3.149449849856859, 1.122344931608948, 1.6040474419609918, 1.8091733043386495, 5.0165332199256785, -0.6614847407568071, 0.1909691837666534, 1.9256647659103865, 2.1365451487386755, 0.3403596188232331, 6.06604206804909, 2.433683890527016, -2.483967392281716]

>  <energy>  (11) 
-855.7017884462376

>  <inter_energy>  (11) 
-853.6080908128663

>  <intra_energy>  (11) 
15.270766890053046

>  <rmsd>  (11) 
10.5431

>  <sdf_rank>  (11) 
0

$$$$

     RDKit          3D

 71 75  0  0  0  0  0  0  0  0999 V2000
   32.1728   -5.6654  -36.4687 P   0  0  2  0  0  0  0  0  0  0  0  0
   33.0966   -6.6019  -35.7277 O   0  0  0  0  0  0  0  0  0  0  0  0
   31.0198   -6.2420  -37.2353 O   0  0  0  0  0  0  0  0  0  0  0  0
   33.0245   -4.7802  -37.4983 O   0  0  0  0  0  0  0  0  0  0  0  0
   34.3871   -4.5329  -37.2258 C   0  0  0  0  0  0  0  0  0  0  0  0
   34.4589   -3.4346  -36.1087 C   0  0  1  0  0  0  0  0  0  0  0  0
   34.3859   -4.0742  -34.9037 O   0  0  0  0  0  0  0  0  0  0  0  0
   35.7773   -2.6000  -36.1451 C   0  0  1  0  0  0  0  0  0  0  0  0
   35.5286   -1.2524  -36.3303 O   0  0  0  0  0  0  0  0  0  0  0  0
   36.3993   -2.9432  -34.7584 C   0  0  1  0  0  0  0  0  0  0  0  0
   37.1841   -1.8331  -34.2098 O   0  0  0  0  0  0  0  0  0  0  0  0
   35.2924   -3.2795  -33.9673 C   0  0  2  0  0  0  0  0  0  0  0  0
   35.5772   -4.1690  -32.8296 N   0  0  0  0  0  0  0  0  0  0  0  0
   36.2112   -5.3644  -32.9279 C   0  0  0  0  0  0  0  0  0  0  0  0
   36.3474   -5.8830  -31.6736 N   0  0  0  0  0  0  0  0  0  0  0  0
   35.7630   -5.0020  -30.8421 C   0  0  0  0  0  0  0  0  0  0  0  0
   35.5576   -4.9996  -29.4824 C   0  0  0  0  0  0  0  0  0  0  0  0
   35.9573   -5.9868  -28.5191 N   0  0  0  0  0  0  0  0  0  0  0  0
   34.9246   -4.0110  -28.9365 N   0  0  0  0  0  0  0  0  0  0  0  0
   34.4335   -2.9671  -29.6560 C   0  0  0  0  0  0  0  0  0  0  0  0
   34.6267   -2.9251  -31.0152 N   0  0  0  0  0  0  0  0  0  0  0  0
   35.2763   -3.9530  -31.5401 C   0  0  0  0  0  0  0  0  0  0  0  0
   31.6742   -4.6484  -35.3360 O   0  0  0  0  0  0  0  0  0  0  0  0
   30.9657   -3.1922  -35.4434 P   0  0  2  0  0  0  0  0  0  0  0  0
   31.9667   -2.1017  -35.2777 O   0  0  0  0  0  0  0  0  0  0  0  0
   29.7054   -3.1491  -34.6582 O   0  0  0  0  0  0  0  0  0  0  0  0
   30.6475   -3.2316  -37.0308 O   0  0  0  0  0  0  0  0  0  0  0  0
   29.2640   -3.3484  -37.4262 C   0  0  0  0  0  0  0  0  0  0  0  0
   29.1584   -4.4879  -38.4592 C   0  0  1  0  0  0  0  0  0  0  0  0
   28.7862   -5.6720  -37.8678 O   0  0  0  0  0  0  0  0  0  0  0  0
   28.1831   -4.1616  -39.6258 C   0  0  1  0  0  0  0  0  0  0  0  0
   28.6380   -4.6576  -40.8814 O   0  0  0  0  0  0  0  0  0  0  0  0
   27.0053   -5.0569  -39.1761 C   0  0  1  0  0  0  0  0  0  0  0  0
   26.1027   -5.3185  -40.2701 O   0  0  0  0  0  0  0  0  0  0  0  0
   27.5991   -6.2268  -38.7183 C   0  0  2  0  0  0  0  0  0  0  0  0
   26.8726   -7.0449  -37.7778 N   0  0  0  0  0  0  0  0  0  0  0  0
   25.4911   -7.2131  -38.0302 C   0  0  0  0  0  0  0  0  0  0  0  0
   24.7279   -8.1295  -37.1954 C   0  0  0  0  0  0  0  0  0  0  0  0
   23.2932   -8.3961  -37.4820 C   0  0  0  0  0  0  0  0  0  0  0  0
   22.6955   -9.1978  -36.8030 O   0  0  0  0  0  0  0  0  0  0  0  0
   22.7351   -7.7211  -38.5959 N   0  0  0  0  0  0  0  0  0  0  0  0
   25.3268   -8.6756  -35.9120 C   0  0  0  0  0  0  0  0  0  0  0  0
   26.8204   -8.7244  -35.9629 C   0  0  0  0  0  0  0  0  0  0  0  0
   27.5711   -7.7827  -36.7879 C   0  0  0  0  0  0  0  0  0  0  0  0
   34.8724   -5.4558  -36.8754 H   0  0  0  0  0  0  0  0  0  0  0  0
   34.9058   -4.1927  -38.1342 H   0  0  0  0  0  0  0  0  0  0  0  0
   33.6301   -2.7299  -36.2714 H   0  0  0  0  0  0  0  0  0  0  0  0
   36.4497   -2.8361  -36.9830 H   0  0  0  0  0  0  0  0  0  0  0  0
   35.4465   -0.8078  -35.4495 H   0  0  0  0  0  0  0  0  0  0  0  0
   37.1281   -3.7654  -34.8127 H   0  0  0  0  0  0  0  0  0  0  0  0
   37.1591   -1.8685  -33.2207 H   0  0  0  0  0  0  0  0  0  0  0  0
   34.8837   -2.3509  -33.5423 H   0  0  0  0  0  0  0  0  0  0  0  0
   36.5566   -5.8351  -33.8601 H   0  0  0  0  0  0  0  0  0  0  0  0
   35.7342   -5.8536  -27.5224 H   0  0  0  0  0  0  0  0  0  0  0  0
   36.4670   -6.8279  -28.8249 H   0  0  0  0  0  0  0  0  0  0  0  0
   33.8835   -2.1592  -29.1514 H   0  0  0  0  0  0  0  0  0  0  0  0
   28.6433   -3.5815  -36.5485 H   0  0  0  0  0  0  0  0  0  0  0  0
   28.9102   -2.4027  -37.8628 H   0  0  0  0  0  0  0  0  0  0  0  0
   30.1670   -4.5947  -38.8850 H   0  0  0  0  0  0  0  0  0  0  0  0
   28.0084   -3.0861  -39.7768 H   0  0  0  0  0  0  0  0  0  0  0  0
   29.2994   -5.3788  -40.7313 H   0  0  0  0  0  0  0  0  0  0  0  0
   26.3958   -4.5759  -38.3968 H   0  0  0  0  0  0  0  0  0  0  0  0
   25.2161   -5.5755  -39.9122 H   0  0  0  0  0  0  0  0  0  0  0  0
   27.7723   -6.8655  -39.5970 H   0  0  0  0  0  0  0  0  0  0  0  0
   25.0010   -6.6600  -38.8450 H   0  0  0  0  0  0  0  0  0  0  0  0
   21.7459   -7.8662  -38.8434 H   0  0  0  0  0  0  0  0  0  0  0  0
   23.3188   -7.0853  -39.1581 H   0  0  0  0  0  0  0  0  0  0  0  0
   25.0215   -8.0297  -35.0755 H   0  0  0  0  0  0  0  0  0  0  0  0
   24.9592   -9.7037  -35.7781 H   0  0  0  0  0  0  0  0  0  0  0  0
   27.3599   -9.4789  -35.3716 H   0  0  0  0  0  0  0  0  0  0  0  0
   28.6535   -7.6484  -36.6452 H   0  0  0  0  0  0  0  0  0  0  0  0
  1  2  2  0
  1  3  1  6
  1  4  1  0
  1 23  1  0
  4  5  1  0
  6  5  1  0
  6  7  1  0
  6  8  1  0
  7 12  1  0
  8  9  1  0
  8 10  1  0
 10 11  1  0
 10 12  1  0
 12 13  1  0
 13 14  1  0
 13 22  1  0
 14 15  2  0
 15 16  1  0
 16 17  2  0
 16 22  1  0
 17 18  1  0
 17 19  1  0
 19 20  2  0
 20 21  1  0
 21 22  2  0
 23 24  1  0
 24 25  1  6
 24 26  2  0
 24 27  1  0
 27 28  1  0
 29 28  1  0
 29 30  1  0
 29 31  1  0
 30 35  1  0
 31 32  1  0
 31 33  1  0
 33 34  1  0
 33 35  1  0
 35 36  1  0
 36 37  1  0
 36 44  1  0
 37 38  2  0
 38 39  1  0
 38 42  1  0
 39 40  2  0
 39 41  1  0
 42 43  1  0
 43 44  2  0
  5 45  1  0
  5 46  1  0
  6 47  1  6
  8 48  1  6
  9 49  1  0
 10 50  1  6
 11 51  1  0
 12 52  1  1
 14 53  1  0
 18 54  1  0
 18 55  1  0
 20 56  1  0
 28 57  1  0
 28 58  1  0
 29 59  1  6
 31 60  1  6
 32 61  1  0
 33 62  1  1
 34 63  1  0
 35 64  1  6
 37 65  1  0
 41 66  1  0
 41 67  1  0
 42 68  1  0
 42 69  1  0
 43 70  1  0
 44 71  1  0
M  CHG  2   3  -1  25  -1
M  END
>  <filename_input>  (12) 
7UTW_NAI_docked.sdf

>  <pdb_id>  (12) 
7UTW_NAI

>  <pose_rank>  (12) 
11

>  <num_atoms_heavy>  (12) 
44

>  <num_torsions>  (12) 
11

>  <pose>  (12) 
[32.172784280817616, -5.665357704894204, -36.46874806849498, -1.597314229944059, 0.8330625579330849, -0.5437713828041381, 0.08738163586530832, 2.448674341883499, -1.5732434839539502, -0.26141500779271654, -0.6171012766401364, 2.9713006418557413, 0.7639653244571336, 0.6924981650045026, 2.9228112381855635, -1.8677082770656126, -0.39334682449923036]

>  <energy>  (12) 
-698.1273200713908

>  <inter_energy>  (12) 
-834.7807321494665

>  <intra_energy>  (12) 
133.60053459151385

>  <rmsd>  (12) 
3.53639

>  <sdf_rank>  (12) 
0

$$$$

     RDKit          3D

 71 75  0  0  0  0  0  0  0  0999 V2000
   28.6234   -4.3075  -37.4059 P   0  0  2  0  0  0  0  0  0  0  0  0
   28.9186   -5.0817  -36.1437 O   0  0  0  0  0  0  0  0  0  0  0  0
   28.0496   -2.9266  -37.2908 O   0  0  0  0  0  0  0  0  0  0  0  0
   27.6247   -5.1548  -38.3298 O   0  0  0  0  0  0  0  0  0  0  0  0
   27.9680   -6.4794  -38.6756 C   0  0  0  0  0  0  0  0  0  0  0  0
   27.3580   -7.4301  -37.5877 C   0  0  1  0  0  0  0  0  0  0  0  0
   25.9982   -7.3372  -37.6822 O   0  0  0  0  0  0  0  0  0  0  0  0
   27.7643   -8.9255  -37.7744 C   0  0  1  0  0  0  0  0  0  0  0  0
   28.4389   -9.4171  -36.6718 O   0  0  0  0  0  0  0  0  0  0  0  0
   26.3786   -9.5948  -38.0179 C   0  0  1  0  0  0  0  0  0  0  0  0
   26.3276  -10.9699  -37.5122 O   0  0  0  0  0  0  0  0  0  0  0  0
   25.4739   -8.7378  -37.3765 C   0  0  2  0  0  0  0  0  0  0  0  0
   24.0959   -8.7749  -37.8926 N   0  0  0  0  0  0  0  0  0  0  0  0
   23.6640   -8.0913  -38.9819 C   0  0  0  0  0  0  0  0  0  0  0  0
   22.3535   -8.4047  -39.1944 N   0  0  0  0  0  0  0  0  0  0  0  0
   22.0094   -9.2508  -38.2069 C   0  0  0  0  0  0  0  0  0  0  0  0
   20.8248   -9.8673  -37.8793 C   0  0  0  0  0  0  0  0  0  0  0  0
   19.5619   -9.7891  -38.5585 N   0  0  0  0  0  0  0  0  0  0  0  0
   20.7712  -10.6268  -36.8322 N   0  0  0  0  0  0  0  0  0  0  0  0
   21.8425  -10.8351  -36.0213 C   0  0  0  0  0  0  0  0  0  0  0  0
   23.0475  -10.2471  -36.3189 N   0  0  0  0  0  0  0  0  0  0  0  0
   23.0656   -9.4758  -37.3955 C   0  0  0  0  0  0  0  0  0  0  0  0
   30.0246   -4.2978  -38.1821 O   0  0  0  0  0  0  0  0  0  0  0  0
   31.5329   -3.9998  -37.6619 P   0  0  2  0  0  0  0  0  0  0  0  0
   31.5208   -3.4972  -36.2598 O   0  0  0  0  0  0  0  0  0  0  0  0
   32.3212   -3.2723  -38.6894 O   0  0  0  0  0  0  0  0  0  0  0  0
   32.0232   -5.5393  -37.5513 O   0  0  0  0  0  0  0  0  0  0  0  0
   32.6991   -5.9335  -36.3381 C   0  0  0  0  0  0  0  0  0  0  0  0
   33.7892   -6.9578  -36.7115 C   0  0  1  0  0  0  0  0  0  0  0  0
   34.9967   -6.6422  -36.1345 O   0  0  0  0  0  0  0  0  0  0  0  0
   33.4029   -8.4180  -36.3410 C   0  0  1  0  0  0  0  0  0  0  0  0
   33.8438   -9.3681  -37.3067 O   0  0  0  0  0  0  0  0  0  0  0  0
   34.3099   -8.5697  -35.0978 C   0  0  1  0  0  0  0  0  0  0  0  0
   34.5148   -9.9590  -34.7691 O   0  0  0  0  0  0  0  0  0  0  0  0
   35.5037   -7.9505  -35.4475 C   0  0  2  0  0  0  0  0  0  0  0  0
   36.3591   -7.4604  -34.3941 N   0  0  0  0  0  0  0  0  0  0  0  0
   37.7508   -7.6101  -34.5966 C   0  0  0  0  0  0  0  0  0  0  0  0
   38.6711   -7.0217  -33.6343 C   0  0  0  0  0  0  0  0  0  0  0  0
   40.1401   -7.0859  -33.8568 C   0  0  0  0  0  0  0  0  0  0  0  0
   40.6167   -8.0731  -34.3660 O   0  0  0  0  0  0  0  0  0  0  0  0
   40.8991   -5.9852  -33.3875 N   0  0  0  0  0  0  0  0  0  0  0  0
   38.1593   -6.5067  -32.3014 C   0  0  0  0  0  0  0  0  0  0  0  0
   36.7270   -6.0833  -32.3729 C   0  0  0  0  0  0  0  0  0  0  0  0
   35.8122   -6.7003  -33.3285 C   0  0  0  0  0  0  0  0  0  0  0  0
   27.5545   -6.7276  -39.6642 H   0  0  0  0  0  0  0  0  0  0  0  0
   29.0610   -6.5951  -38.7188 H   0  0  0  0  0  0  0  0  0  0  0  0
   27.7426   -7.1146  -36.6066 H   0  0  0  0  0  0  0  0  0  0  0  0
   28.4761   -9.1114  -38.5922 H   0  0  0  0  0  0  0  0  0  0  0  0
   27.9984   -9.0961  -35.8453 H   0  0  0  0  0  0  0  0  0  0  0  0
   26.1455   -9.7097  -39.0867 H   0  0  0  0  0  0  0  0  0  0  0  0
   26.3281  -10.9577  -36.5223 H   0  0  0  0  0  0  0  0  0  0  0  0
   25.4185   -9.0326  -36.3181 H   0  0  0  0  0  0  0  0  0  0  0  0
   24.2677   -7.4017  -39.5902 H   0  0  0  0  0  0  0  0  0  0  0  0
   18.7498  -10.3095  -38.1972 H   0  0  0  0  0  0  0  0  0  0  0  0
   19.4683   -9.2126  -39.4068 H   0  0  0  0  0  0  0  0  0  0  0  0
   21.7445  -11.4724  -35.1301 H   0  0  0  0  0  0  0  0  0  0  0  0
   33.1597   -5.0539  -35.8647 H   0  0  0  0  0  0  0  0  0  0  0  0
   31.9843   -6.3773  -35.6294 H   0  0  0  0  0  0  0  0  0  0  0  0
   33.8831   -6.9030  -37.8061 H   0  0  0  0  0  0  0  0  0  0  0  0
   32.3204   -8.5824  -36.2350 H   0  0  0  0  0  0  0  0  0  0  0  0
   34.2123  -10.1620  -36.8441 H   0  0  0  0  0  0  0  0  0  0  0  0
   33.8611   -8.1158  -34.2020 H   0  0  0  0  0  0  0  0  0  0  0  0
   34.5306  -10.0664  -33.7851 H   0  0  0  0  0  0  0  0  0  0  0  0
   36.1024   -8.6918  -35.9970 H   0  0  0  0  0  0  0  0  0  0  0  0
   38.1320   -8.1627  -35.4680 H   0  0  0  0  0  0  0  0  0  0  0  0
   41.9213   -5.9734  -33.5133 H   0  0  0  0  0  0  0  0  0  0  0  0
   40.4286   -5.1968  -32.9207 H   0  0  0  0  0  0  0  0  0  0  0  0
   38.2556   -7.3061  -31.5519 H   0  0  0  0  0  0  0  0  0  0  0  0
   38.7588   -5.6264  -32.0262 H   0  0  0  0  0  0  0  0  0  0  0  0
   36.3583   -5.2974  -31.6972 H   0  0  0  0  0  0  0  0  0  0  0  0
   34.7239   -6.5786  -33.2248 H   0  0  0  0  0  0  0  0  0  0  0  0
  1  2  2  0
  1  3  1  1
  1  4  1  0
  1 23  1  0
  4  5  1  0
  6  5  1  0
  6  7  1  0
  6  8  1  0
  7 12  1  0
  8  9  1  0
  8 10  1  0
 10 11  1  0
 10 12  1  0
 12 13  1  0
 13 14  1  0
 13 22  1  0
 14 15  2  0
 15 16  1  0
 16 17  2  0
 16 22  1  0
 17 18  1  0
 17 19  1  0
 19 20  2  0
 20 21  1  0
 21 22  2  0
 23 24  1  0
 24 25  1  1
 24 26  2  0
 24 27  1  0
 27 28  1  0
 29 28  1  0
 29 30  1  0
 29 31  1  0
 30 35  1  0
 31 32  1  0
 31 33  1  0
 33 34  1  0
 33 35  1  0
 35 36  1  0
 36 37  1  0
 36 44  1  0
 37 38  2  0
 38 39  1  0
 38 42  1  0
 39 40  2  0
 39 41  1  0
 42 43  1  0
 43 44  2  0
  5 45  1  0
  5 46  1  0
  6 47  1  1
  8 48  1  6
  9 49  1  0
 10 50  1  6
 11 51  1  0
 12 52  1  1
 14 53  1  0
 18 54  1  0
 18 55  1  0
 20 56  1  0
 28 57  1  0
 28 58  1  0
 29 59  1  6
 31 60  1  1
 32 61  1  0
 33 62  1  1
 34 63  1  0
 35 64  1  6
 37 65  1  0
 41 66  1  0
 41 67  1  0
 42 68  1  0
 42 69  1  0
 43 70  1  0
 44 71  1  0
M  CHG  2   3  -1  25  -1
M  END
>  <filename_input>  (13) 
7UTW_NAI_docked.sdf

>  <pdb_id>  (13) 
7UTW_NAI

>  <pose_rank>  (13) 
12

>  <num_atoms_heavy>  (13) 
44

>  <num_torsions>  (13) 
11

>  <pose>  (13) 
[28.623385645039953, -4.307538938774719, -37.40590846517889, -1.730850085124801, 3.120591285727075, -1.4591885503591586, -0.39289730899606035, -0.9102975549342074, -1.944556904220347, -0.7659821086849937, 2.0216627887416263, -1.743642079143657, 2.8106991874410263, 0.44580875516464213, -2.744655631008769, 6.168148103703082, -4.119390289643346]

>  <energy>  (13) 
-747.2764220693757

>  <inter_energy>  (13) 
-757.7943357697485

>  <intra_energy>  (13) 
9.301967896033828

>  <rmsd>  (13) 
12.114

>  <sdf_rank>  (13) 
0

$$$$

     RDKit          3D

 71 75  0  0  0  0  0  0  0  0999 V2000
   29.5560   -3.7731  -36.2827 P   0  0  2  0  0  0  0  0  0  0  0  0
   29.5306   -2.7443  -35.1779 O   0  0  0  0  0  0  0  0  0  0  0  0
   29.5966   -3.3050  -37.7071 O   0  0  0  0  0  0  0  0  0  0  0  0
   28.2839   -4.7379  -36.1423 O   0  0  0  0  0  0  0  0  0  0  0  0
   27.9941   -5.6462  -37.1830 C   0  0  0  0  0  0  0  0  0  0  0  0
   27.4470   -6.9626  -36.5292 C   0  0  1  0  0  0  0  0  0  0  0  0
   26.0960   -6.9863  -36.7312 O   0  0  0  0  0  0  0  0  0  0  0  0
   28.0604   -8.2598  -37.1433 C   0  0  1  0  0  0  0  0  0  0  0  0
   28.7215   -9.0164  -36.1930 O   0  0  0  0  0  0  0  0  0  0  0  0
   26.7950   -8.9513  -37.7333 C   0  0  1  0  0  0  0  0  0  0  0  0
   26.8951  -10.4136  -37.7052 O   0  0  0  0  0  0  0  0  0  0  0  0
   25.7444   -8.4557  -36.9491 C   0  0  2  0  0  0  0  0  0  0  0  0
   24.4201   -8.4631  -37.5915 N   0  0  0  0  0  0  0  0  0  0  0  0
   24.0841   -7.7115  -38.6698 C   0  0  0  0  0  0  0  0  0  0  0  0
   22.8015   -8.0143  -39.0219 N   0  0  0  0  0  0  0  0  0  0  0  0
   22.3756   -8.9236  -38.1270 C   0  0  0  0  0  0  0  0  0  0  0  0
   21.1714   -9.5635  -37.9505 C   0  0  0  0  0  0  0  0  0  0  0  0
   19.9756   -9.4450  -38.7368 N   0  0  0  0  0  0  0  0  0  0  0  0
   21.0286  -10.3895  -36.9638 N   0  0  0  0  0  0  0  0  0  0  0  0
   22.0226  -10.6469  -36.0726 C   0  0  0  0  0  0  0  0  0  0  0  0
   23.2446  -10.0374  -36.2193 N   0  0  0  0  0  0  0  0  0  0  0  0
   23.3547   -9.1978  -37.2378 C   0  0  0  0  0  0  0  0  0  0  0  0
   30.8268   -4.6812  -35.9272 O   0  0  0  0  0  0  0  0  0  0  0  0
   31.9307   -4.5589  -34.7437 P   0  0  2  0  0  0  0  0  0  0  0  0
   32.9735   -5.6138  -34.8799 O   0  0  0  0  0  0  0  0  0  0  0  0
   31.2822   -4.3422  -33.4249 O   0  0  0  0  0  0  0  0  0  0  0  0
   32.6407   -3.1982  -35.2605 O   0  0  0  0  0  0  0  0  0  0  0  0
   34.0386   -3.0203  -34.9470 C   0  0  0  0  0  0  0  0  0  0  0  0
   34.8425   -3.1684  -36.2542 C   0  0  1  0  0  0  0  0  0  0  0  0
   34.1056   -3.7951  -37.2313 O   0  0  0  0  0  0  0  0  0  0  0  0
   35.3756   -1.8118  -36.7963 C   0  0  1  0  0  0  0  0  0  0  0  0
   36.6735   -1.9193  -37.3739 O   0  0  0  0  0  0  0  0  0  0  0  0
   34.3684   -1.6347  -37.9561 C   0  0  1  0  0  0  0  0  0  0  0  0
   34.8557   -0.6884  -38.9292 O   0  0  0  0  0  0  0  0  0  0  0  0
   34.2304   -2.9027  -38.5075 C   0  0  2  0  0  0  0  0  0  0  0  0
   33.0263   -3.2063  -39.2421 N   0  0  0  0  0  0  0  0  0  0  0  0
   32.3942   -2.1174  -39.8864 C   0  0  0  0  0  0  0  0  0  0  0  0
   31.2506   -2.3756  -40.7493 C   0  0  0  0  0  0  0  0  0  0  0  0
   30.6118   -1.2680  -41.5088 C   0  0  0  0  0  0  0  0  0  0  0  0
   30.8642   -1.1364  -42.6835 O   0  0  0  0  0  0  0  0  0  0  0  0
   29.7827   -0.3895  -40.7680 N   0  0  0  0  0  0  0  0  0  0  0  0
   30.5747   -3.7346  -40.7389 C   0  0  0  0  0  0  0  0  0  0  0  0
   31.5124   -4.8275  -40.3362 C   0  0  0  0  0  0  0  0  0  0  0  0
   32.6411   -4.5555  -39.4514 C   0  0  0  0  0  0  0  0  0  0  0  0
   27.2348   -5.2175  -37.8536 H   0  0  0  0  0  0  0  0  0  0  0  0
   28.8980   -5.8564  -37.7735 H   0  0  0  0  0  0  0  0  0  0  0  0
   27.7217   -6.9524  -35.4641 H   0  0  0  0  0  0  0  0  0  0  0  0
   28.8421   -8.0880  -37.8978 H   0  0  0  0  0  0  0  0  0  0  0  0
   28.4573   -8.7140  -35.2881 H   0  0  0  0  0  0  0  0  0  0  0  0
   26.6491   -8.7284  -38.8006 H   0  0  0  0  0  0  0  0  0  0  0  0
   26.9165  -10.7249  -36.7657 H   0  0  0  0  0  0  0  0  0  0  0  0
   25.6603   -9.0893  -36.0539 H   0  0  0  0  0  0  0  0  0  0  0  0
   24.7350   -6.9821  -39.1741 H   0  0  0  0  0  0  0  0  0  0  0  0
   19.1384   -9.9901  -38.4862 H   0  0  0  0  0  0  0  0  0  0  0  0
   19.9552   -8.8149  -39.5513 H   0  0  0  0  0  0  0  0  0  0  0  0
   21.8487  -11.3410  -35.2371 H   0  0  0  0  0  0  0  0  0  0  0  0
   34.2010   -2.0196  -34.5202 H   0  0  0  0  0  0  0  0  0  0  0  0
   34.3637   -3.7707  -34.2113 H   0  0  0  0  0  0  0  0  0  0  0  0
   35.7115   -3.7919  -35.9972 H   0  0  0  0  0  0  0  0  0  0  0  0
   35.4544   -1.0236  -36.0330 H   0  0  0  0  0  0  0  0  0  0  0  0
   37.3513   -1.9754  -36.6545 H   0  0  0  0  0  0  0  0  0  0  0  0
   33.4052   -1.2333  -37.6081 H   0  0  0  0  0  0  0  0  0  0  0  0
   35.2555    0.0881  -38.4630 H   0  0  0  0  0  0  0  0  0  0  0  0
   35.0565   -3.0353  -39.2215 H   0  0  0  0  0  0  0  0  0  0  0  0
   32.7611   -1.0911  -39.7376 H   0  0  0  0  0  0  0  0  0  0  0  0
   29.3134    0.3964  -41.2402 H   0  0  0  0  0  0  0  0  0  0  0  0
   29.6494   -0.5369  -39.7574 H   0  0  0  0  0  0  0  0  0  0  0  0
   29.7356   -3.7078  -40.0283 H   0  0  0  0  0  0  0  0  0  0  0  0
   30.2268   -3.9470  -41.7606 H   0  0  0  0  0  0  0  0  0  0  0  0
   31.3497   -5.8488  -40.7112 H   0  0  0  0  0  0  0  0  0  0  0  0
   33.1806   -5.3776  -38.9584 H   0  0  0  0  0  0  0  0  0  0  0  0
  1  2  2  0
  1  3  1  6
  1  4  1  0
  1 23  1  0
  4  5  1  0
  6  5  1  0
  6  7  1  0
  6  8  1  0
  7 12  1  0
  8  9  1  0
  8 10  1  0
 10 11  1  0
 10 12  1  0
 12 13  1  0
 13 14  1  0
 13 22  1  0
 14 15  2  0
 15 16  1  0
 16 17  2  0
 16 22  1  0
 17 18  1  0
 17 19  1  0
 19 20  2  0
 20 21  1  0
 21 22  2  0
 23 24  1  0
 24 25  1  1
 24 26  2  0
 24 27  1  0
 27 28  1  0
 29 28  1  0
 29 30  1  0
 29 31  1  0
 30 35  1  0
 31 32  1  0
 31 33  1  0
 33 34  1  0
 33 35  1  0
 35 36  1  0
 36 37  1  0
 36 44  1  0
 37 38  2  0
 38 39  1  0
 38 42  1  0
 39 40  2  0
 39 41  1  0
 42 43  1  0
 43 44  2  0
  5 45  1  0
  5 46  1  0
  6 47  1  1
  8 48  1  6
  9 49  1  0
 10 50  1  6
 11 51  1  0
 12 52  1  1
 14 53  1  0
 18 54  1  0
 18 55  1  0
 20 56  1  0
 28 57  1  0
 28 58  1  0
 29 59  1  1
 31 60  1  1
 32 61  1  0
 33 62  1  1
 34 63  1  0
 35 64  1  6
 37 65  1  0
 41 66  1  0
 41 67  1  0
 42 68  1  0
 42 69  1  0
 43 70  1  0
 44 71  1  0
M  CHG  2   3  -1  25  -1
M  END
>  <filename_input>  (14) 
7UTW_NAI_docked.sdf

>  <pdb_id>  (14) 
7UTW_NAI

>  <pose_rank>  (14) 
13

>  <num_atoms_heavy>  (14) 
44

>  <num_torsions>  (14) 
11

>  <pose>  (14) 
[29.55602339331846, -3.7731335309911724, -36.28273067256514, -0.1440243552882562, -1.1713887448253026, 1.7578775630455308, -2.75956203816948, 0.008356442920456453, -1.255211819734928, -0.4726478917630846, 2.7596890201428526, 1.5983409903912413, 2.4958343088502346, -1.4122334175143132, 0.9319064137832629, -2.0900142332382203, -1.7239006456622334]

>  <energy>  (14) 
-684.2302810617241

>  <inter_energy>  (14) 
-719.1592494723186

>  <intra_energy>  (14) 
31.30444765424876

>  <rmsd>  (14) 
11.1385

>  <sdf_rank>  (14) 
0

$$$$

     RDKit          3D

 71 75  0  0  0  0  0  0  0  0999 V2000
   28.7742   -4.4492  -37.4353 P   0  0  2  0  0  0  0  0  0  0  0  0
   28.5149   -5.5344  -36.4179 O   0  0  0  0  0  0  0  0  0  0  0  0
   28.6038   -3.0166  -37.0251 O   0  0  0  0  0  0  0  0  0  0  0  0
   27.8397   -4.6846  -38.7159 O   0  0  0  0  0  0  0  0  0  0  0  0
   27.5557   -6.0056  -39.1239 C   0  0  0  0  0  0  0  0  0  0  0  0
   26.9760   -6.7735  -37.8854 C   0  0  1  0  0  0  0  0  0  0  0  0
   25.6285   -6.8941  -38.0755 O   0  0  0  0  0  0  0  0  0  0  0  0
   27.5786   -8.2020  -37.7053 C   0  0  1  0  0  0  0  0  0  0  0  0
   28.2108   -8.3438  -36.4836 O   0  0  0  0  0  0  0  0  0  0  0  0
   26.3124   -9.0950  -37.8692 C   0  0  1  0  0  0  0  0  0  0  0  0
   26.3882  -10.3211  -37.0691 O   0  0  0  0  0  0  0  0  0  0  0  0
   25.2568   -8.2544  -37.4909 C   0  0  2  0  0  0  0  0  0  0  0  0
   23.9437   -8.5945  -38.0625 N   0  0  0  0  0  0  0  0  0  0  0  0
   23.5161   -8.2081  -39.2907 C   0  0  0  0  0  0  0  0  0  0  0  0
   22.2816   -8.7471  -39.5052 N   0  0  0  0  0  0  0  0  0  0  0  0
   21.9729   -9.4255  -38.3855 C   0  0  0  0  0  0  0  0  0  0  0  0
   20.8583  -10.1342  -38.0034 C   0  0  0  0  0  0  0  0  0  0  0  0
   19.6571  -10.3774  -38.7517 N   0  0  0  0  0  0  0  0  0  0  0  0
   20.8201  -10.6741  -36.8272 N   0  0  0  0  0  0  0  0  0  0  0  0
   21.8386  -10.5596  -35.9339 C   0  0  0  0  0  0  0  0  0  0  0  0
   22.9747   -9.8696  -36.2798 N   0  0  0  0  0  0  0  0  0  0  0  0
   22.9787   -9.3293  -37.4891 C   0  0  0  0  0  0  0  0  0  0  0  0
   30.2683   -4.7433  -37.9322 O   0  0  0  0  0  0  0  0  0  0  0  0
   31.6945   -4.6108  -37.1689 P   0  0  2  0  0  0  0  0  0  0  0  0
   31.5036   -4.1567  -35.7632 O   0  0  0  0  0  0  0  0  0  0  0  0
   32.6998   -3.9291  -38.0241 O   0  0  0  0  0  0  0  0  0  0  0  0
   32.0194   -6.1934  -37.0579 O   0  0  0  0  0  0  0  0  0  0  0  0
   33.1610   -6.5810  -36.2637 C   0  0  0  0  0  0  0  0  0  0  0  0
   33.5112   -8.0410  -36.6137 C   0  0  1  0  0  0  0  0  0  0  0  0
   34.8055   -8.1554  -37.0635 O   0  0  0  0  0  0  0  0  0  0  0  0
   33.2856   -9.0207  -35.4272 C   0  0  1  0  0  0  0  0  0  0  0  0
   32.7784  -10.2853  -35.8435 O   0  0  0  0  0  0  0  0  0  0  0  0
   34.7673   -9.2253  -35.0347 C   0  0  1  0  0  0  0  0  0  0  0  0
   34.9362  -10.4183  -34.2421 O   0  0  0  0  0  0  0  0  0  0  0  0
   35.4482   -9.3188  -36.2424 C   0  0  2  0  0  0  0  0  0  0  0  0
   36.8554   -9.0013  -36.2654 N   0  0  0  0  0  0  0  0  0  0  0  0
   37.5420   -9.2849  -37.4690 C   0  0  0  0  0  0  0  0  0  0  0  0
   38.9309   -8.8703  -37.6034 C   0  0  0  0  0  0  0  0  0  0  0  0
   39.6605   -9.0759  -38.8829 C   0  0  0  0  0  0  0  0  0  0  0  0
   39.3755  -10.0224  -39.5785 O   0  0  0  0  0  0  0  0  0  0  0  0
   40.7038   -8.1610  -39.1696 N   0  0  0  0  0  0  0  0  0  0  0  0
   39.7110   -8.4011  -36.3888 C   0  0  0  0  0  0  0  0  0  0  0  0
   38.8208   -7.8219  -35.3362 C   0  0  0  0  0  0  0  0  0  0  0  0
   37.4368   -8.2659  -35.2008 C   0  0  0  0  0  0  0  0  0  0  0  0
   26.8160   -5.9954  -39.9380 H   0  0  0  0  0  0  0  0  0  0  0  0
   28.4673   -6.4996  -39.4910 H   0  0  0  0  0  0  0  0  0  0  0  0
   27.2324   -6.2022  -36.9810 H   0  0  0  0  0  0  0  0  0  0  0  0
   28.3759   -8.4595  -38.4181 H   0  0  0  0  0  0  0  0  0  0  0  0
   27.5571   -8.1972  -35.7548 H   0  0  0  0  0  0  0  0  0  0  0  0
   26.1886   -9.4704  -38.8957 H   0  0  0  0  0  0  0  0  0  0  0  0
   26.3738  -10.0886  -36.1069 H   0  0  0  0  0  0  0  0  0  0  0  0
   25.1469   -8.3174  -36.3982 H   0  0  0  0  0  0  0  0  0  0  0  0
   24.0706   -7.5691  -39.9937 H   0  0  0  0  0  0  0  0  0  0  0  0
   18.8947  -10.9314  -38.3361 H   0  0  0  0  0  0  0  0  0  0  0  0
   19.5579   -9.9979  -39.7041 H   0  0  0  0  0  0  0  0  0  0  0  0
   21.7531  -11.0179  -34.9376 H   0  0  0  0  0  0  0  0  0  0  0  0
   34.0150   -5.9269  -36.4936 H   0  0  0  0  0  0  0  0  0  0  0  0
   32.9298   -6.4897  -35.1922 H   0  0  0  0  0  0  0  0  0  0  0  0
   32.8189   -8.3254  -37.4199 H   0  0  0  0  0  0  0  0  0  0  0  0
   32.5789   -8.6520  -34.6692 H   0  0  0  0  0  0  0  0  0  0  0  0
   32.5593  -10.8313  -35.0474 H   0  0  0  0  0  0  0  0  0  0  0  0
   35.1472   -8.4003  -34.4142 H   0  0  0  0  0  0  0  0  0  0  0  0
   34.9030  -10.1834  -33.2810 H   0  0  0  0  0  0  0  0  0  0  0  0
   35.3732  -10.3648  -36.5745 H   0  0  0  0  0  0  0  0  0  0  0  0
   37.0341   -9.8107  -38.2910 H   0  0  0  0  0  0  0  0  0  0  0  0
   41.2447   -8.2533  -40.0413 H   0  0  0  0  0  0  0  0  0  0  0  0
   40.9214   -7.4036  -38.5063 H   0  0  0  0  0  0  0  0  0  0  0  0
   40.2525   -9.2584  -35.9625 H   0  0  0  0  0  0  0  0  0  0  0  0
   40.4047   -7.6127  -36.7162 H   0  0  0  0  0  0  0  0  0  0  0  0
   39.2135   -7.0519  -34.6558 H   0  0  0  0  0  0  0  0  0  0  0  0
   36.8581   -8.0356  -34.2941 H   0  0  0  0  0  0  0  0  0  0  0  0
  1  2  2  0
  1  3  1  1
  1  4  1  0
  1 23  1  0
  4  5  1  0
  6  5  1  0
  6  7  1  0
  6  8  1  0
  7 12  1  0
  8  9  1  0
  8 10  1  0
 10 11  1  0
 10 12  1  0
 12 13  1  0
 13 14  1  0
 13 22  1  0
 14 15  2  0
 15 16  1  0
 16 17  2  0
 16 22  1  0
 17 18  1  0
 17 19  1  0
 19 20  2  0
 20 21  1  0
 21 22  2  0
 23 24  1  0
 24 25  1  1
 24 26  2  0
 24 27  1  0
 27 28  1  0
 29 28  1  0
 29 30  1  0
 29 31  1  0
 30 35  1  0
 31 32  1  0
 31 33  1  0
 33 34  1  0
 33 35  1  0
 35 36  1  0
 36 37  1  0
 36 44  1  0
 37 38  2  0
 38 39  1  0
 38 42  1  0
 39 40  2  0
 39 41  1  0
 42 43  1  0
 43 44  2  0
  5 45  1  0
  5 46  1  0
  6 47  1  1
  8 48  1  6
  9 49  1  0
 10 50  1  6
 11 51  1  0
 12 52  1  1
 14 53  1  0
 18 54  1  0
 18 55  1  0
 20 56  1  0
 28 57  1  0
 28 58  1  0
 29 59  1  6
 31 60  1  1
 32 61  1  0
 33 62  1  1
 34 63  1  0
 35 64  1  6
 37 65  1  0
 41 66  1  0
 41 67  1  0
 42 68  1  0
 42 69  1  0
 43 70  1  0
 44 71  1  0
M  CHG  2   3  -1  25  -1
M  END
>  <filename_input>  (15) 
7UTW_NAI_docked.sdf

>  <pdb_id>  (15) 
7UTW_NAI

>  <pose_rank>  (15) 
14

>  <num_atoms_heavy>  (15) 
44

>  <num_torsions>  (15) 
11

>  <pose>  (15) 
[28.77417747019307, -4.449182393540584, -37.43527720003107, -1.125033845913048, 3.375805910275523, -0.8947171042046821, -0.06531979496386933, -1.559768619570098, -1.2573733491138601, -0.7899126612318056, 1.615000302114423, -1.5772491043642431, 2.1211824471977696, 0.0980573978395819, -2.9066495393009726, 6.6818098449684165, -4.034195130889677]

>  <energy>  (15) 
-679.1534880258664

>  <inter_energy>  (15) 
-735.2405733693051

>  <intra_energy>  (15) 
57.09514532340535

>  <rmsd>  (15) 
12.0359

>  <sdf_rank>  (15) 
0

$$$$

     RDKit          3D

 71 75  0  0  0  0  0  0  0  0999 V2000
   29.4881   -3.8410  -37.2116 P   0  0  2  0  0  0  0  0  0  0  0  0
   28.3413   -2.8756  -37.0311 O   0  0  0  0  0  0  0  0  0  0  0  0
   30.1212   -4.4487  -35.9953 O   0  0  0  0  0  0  0  0  0  0  0  0
   30.6587   -3.1289  -38.0433 O   0  0  0  0  0  0  0  0  0  0  0  0
   32.0006   -3.4660  -37.7645 C   0  0  0  0  0  0  0  0  0  0  0  0
   32.4612   -2.6121  -36.5324 C   0  0  1  0  0  0  0  0  0  0  0  0
   33.2164   -3.4238  -35.7341 O   0  0  0  0  0  0  0  0  0  0  0  0
   33.3204   -1.3701  -36.9266 C   0  0  1  0  0  0  0  0  0  0  0  0
   32.7376   -0.1875  -36.5093 O   0  0  0  0  0  0  0  0  0  0  0  0
   34.6718   -1.6921  -36.2211 C   0  0  1  0  0  0  0  0  0  0  0  0
   35.3782   -0.4815  -35.7915 O   0  0  0  0  0  0  0  0  0  0  0  0
   34.3045   -2.5237  -35.1545 C   0  0  2  0  0  0  0  0  0  0  0  0
   35.3593   -3.4275  -34.6673 N   0  0  0  0  0  0  0  0  0  0  0  0
   35.1419   -4.5057  -33.8730 C   0  0  0  0  0  0  0  0  0  0  0  0
   36.3344   -5.1349  -33.6667 N   0  0  0  0  0  0  0  0  0  0  0  0
   37.2573   -4.4040  -34.3172 C   0  0  0  0  0  0  0  0  0  0  0  0
   38.6221   -4.5208  -34.4379 C   0  0  0  0  0  0  0  0  0  0  0  0
   39.4821   -5.5308  -33.8881 N   0  0  0  0  0  0  0  0  0  0  0  0
   39.2785   -3.6364  -35.1185 N   0  0  0  0  0  0  0  0  0  0  0  0
   38.6754   -2.5743  -35.7159 C   0  0  0  0  0  0  0  0  0  0  0  0
   37.3127   -2.4265  -35.6291 N   0  0  0  0  0  0  0  0  0  0  0  0
   36.6736   -3.3480  -34.9243 C   0  0  0  0  0  0  0  0  0  0  0  0
   28.8899   -4.9639  -38.1847 O   0  0  0  0  0  0  0  0  0  0  0  0
   28.3827   -4.8846  -39.7244 P   0  0  2  0  0  0  0  0  0  0  0  0
   29.4761   -5.2614  -40.6631 O   0  0  0  0  0  0  0  0  0  0  0  0
   27.6075   -3.6416  -39.9709 O   0  0  0  0  0  0  0  0  0  0  0  0
   27.4002   -6.1714  -39.6869 O   0  0  0  0  0  0  0  0  0  0  0  0
   26.3910   -6.2042  -38.6551 C   0  0  0  0  0  0  0  0  0  0  0  0
   26.2438   -7.6632  -38.1791 C   0  0  1  0  0  0  0  0  0  0  0  0
   27.4689   -8.2559  -37.9830 O   0  0  0  0  0  0  0  0  0  0  0  0
   25.3899   -7.7968  -36.8862 C   0  0  1  0  0  0  0  0  0  0  0  0
   24.5636   -8.9574  -36.8873 O   0  0  0  0  0  0  0  0  0  0  0  0
   26.5461   -8.0554  -35.8926 C   0  0  1  0  0  0  0  0  0  0  0  0
   26.0609   -8.6528  -34.6728 O   0  0  0  0  0  0  0  0  0  0  0  0
   27.4122   -8.9090  -36.5650 C   0  0  2  0  0  0  0  0  0  0  0  0
   28.7970   -8.9424  -36.1611 N   0  0  0  0  0  0  0  0  0  0  0  0
   29.4018  -10.2196  -36.1029 C   0  0  0  0  0  0  0  0  0  0  0  0
   30.8285  -10.3127  -35.8288 C   0  0  0  0  0  0  0  0  0  0  0  0
   31.5161  -11.6313  -35.8422 C   0  0  0  0  0  0  0  0  0  0  0  0
   32.0386  -12.0134  -36.8630 O   0  0  0  0  0  0  0  0  0  0  0  0
   31.4531  -12.3891  -34.6465 N   0  0  0  0  0  0  0  0  0  0  0  0
   31.5948   -9.0979  -35.3380 C   0  0  0  0  0  0  0  0  0  0  0  0
   30.9668   -7.8167  -35.7850 C   0  0  0  0  0  0  0  0  0  0  0  0
   29.5306   -7.7351  -36.0332 C   0  0  0  0  0  0  0  0  0  0  0  0
   32.0760   -4.5374  -37.5269 H   0  0  0  0  0  0  0  0  0  0  0  0
   32.6386   -3.2593  -38.6364 H   0  0  0  0  0  0  0  0  0  0  0  0
   31.5612   -2.2308  -36.0278 H   0  0  0  0  0  0  0  0  0  0  0  0
   33.4329   -1.2119  -38.0093 H   0  0  0  0  0  0  0  0  0  0  0  0
   32.7230   -0.1579  -35.5199 H   0  0  0  0  0  0  0  0  0  0  0  0
   35.3937   -2.1815  -36.8915 H   0  0  0  0  0  0  0  0  0  0  0  0
   35.3994   -0.4452  -34.8024 H   0  0  0  0  0  0  0  0  0  0  0  0
   34.0256   -1.8834  -34.3047 H   0  0  0  0  0  0  0  0  0  0  0  0
   34.1696   -4.8190  -33.4650 H   0  0  0  0  0  0  0  0  0  0  0  0
   40.4968   -5.4932  -34.0610 H   0  0  0  0  0  0  0  0  0  0  0  0
   39.0843   -6.2929  -33.3207 H   0  0  0  0  0  0  0  0  0  0  0  0
   39.2767   -1.8361  -36.2667 H   0  0  0  0  0  0  0  0  0  0  0  0
   26.6970   -5.5659  -37.8132 H   0  0  0  0  0  0  0  0  0  0  0  0
   25.4328   -5.8312  -39.0458 H   0  0  0  0  0  0  0  0  0  0  0  0
   25.7118   -8.1853  -38.9880 H   0  0  0  0  0  0  0  0  0  0  0  0
   24.7118   -6.9494  -36.7069 H   0  0  0  0  0  0  0  0  0  0  0  0
   24.3718   -9.2268  -35.9542 H   0  0  0  0  0  0  0  0  0  0  0  0
   27.0450   -7.1233  -35.5887 H   0  0  0  0  0  0  0  0  0  0  0  0
   26.4476   -8.1767  -33.8957 H   0  0  0  0  0  0  0  0  0  0  0  0
   27.0345   -9.9317  -36.4193 H   0  0  0  0  0  0  0  0  0  0  0  0
   28.8033  -11.1287  -36.2623 H   0  0  0  0  0  0  0  0  0  0  0  0
   31.9107  -13.3105  -34.5960 H   0  0  0  0  0  0  0  0  0  0  0  0
   30.9496  -12.0186  -33.8279 H   0  0  0  0  0  0  0  0  0  0  0  0
   31.6204   -9.1155  -34.2384 H   0  0  0  0  0  0  0  0  0  0  0  0
   32.6087   -9.1436  -35.7623 H   0  0  0  0  0  0  0  0  0  0  0  0
   31.5946   -6.9249  -35.9285 H   0  0  0  0  0  0  0  0  0  0  0  0
   29.0289   -6.7600  -36.1190 H   0  0  0  0  0  0  0  0  0  0  0  0
  1  2  2  0
  1  3  1  1
  1  4  1  0
  1 23  1  0
  4  5  1  0
  6  5  1  0
  6  7  1  0
  6  8  1  0
  7 12  1  0
  8  9  1  0
  8 10  1  0
 10 11  1  0
 10 12  1  0
 12 13  1  0
 13 14  1  0
 13 22  1  0
 14 15  2  0
 15 16  1  0
 16 17  2  0
 16 22  1  0
 17 18  1  0
 17 19  1  0
 19 20  2  0
 20 21  1  0
 21 22  2  0
 23 24  1  0
 24 25  1  6
 24 26  2  0
 24 27  1  0
 27 28  1  0
 29 28  1  0
 29 30  1  0
 29 31  1  0
 30 35  1  0
 31 32  1  0
 31 33  1  0
 33 34  1  0
 33 35  1  0
 35 36  1  0
 36 37  1  0
 36 44  1  0
 37 38  2  0
 38 39  1  0
 38 42  1  0
 39 40  2  0
 39 41  1  0
 42 43  1  0
 43 44  2  0
  5 45  1  0
  5 46  1  0
  6 47  1  1
  8 48  1  6
  9 49  1  0
 10 50  1  6
 11 51  1  0
 12 52  1  1
 14 53  1  0
 18 54  1  0
 18 55  1  0
 20 56  1  0
 28 57  1  0
 28 58  1  0
 29 59  1  6
 31 60  1  1
 32 61  1  0
 33 62  1  1
 34 63  1  0
 35 64  1  6
 37 65  1  0
 41 66  1  0
 41 67  1  0
 42 68  1  0
 42 69  1  0
 43 70  1  0
 44 71  1  0
M  CHG  2   3  -1  25  -1
M  END
>  <filename_input>  (16) 
7UTW_NAI_docked.sdf

>  <pdb_id>  (16) 
7UTW_NAI

>  <pose_rank>  (16) 
15

>  <num_atoms_heavy>  (16) 
44

>  <num_torsions>  (16) 
11

>  <pose>  (16) 
[29.488141815279103, -3.840962886005578, -37.211599130217095, -1.8622782088429681, -2.2809547876563587, -0.9381204089602424, 3.1098512206377524, 2.33251247126894, -0.6486020123925667, -2.191444326959551, -2.3357057820896516, 0.04528046115826408, -0.22011980269693426, 0.47000305841501067, 2.028277232634769, 6.102607674617171, -1.8684744859963358]

>  <energy>  (16) 
-454.3753600548219

>  <inter_energy>  (16) 
-509.0067355009634

>  <intra_energy>  (16) 
59.71471484748093

>  <rmsd>  (16) 
4.89819

>  <sdf_rank>  (16) 
0

$$$$

     RDKit          3D

 71 75  0  0  0  0  0  0  0  0999 V2000
   32.4168   -3.7713  -35.3407 P   0  0  2  0  0  0  0  0  0  0  0  0
   31.3050   -2.9042  -34.8003 O   0  0  0  0  0  0  0  0  0  0  0  0
   33.2123   -3.2808  -36.5138 O   0  0  0  0  0  0  0  0  0  0  0  0
   31.8269   -5.2066  -35.7413 O   0  0  0  0  0  0  0  0  0  0  0  0
   30.4312   -5.3579  -35.8869 C   0  0  0  0  0  0  0  0  0  0  0  0
   30.1128   -5.3962  -37.4221 C   0  0  1  0  0  0  0  0  0  0  0  0
   29.2313   -6.4192  -37.6295 O   0  0  0  0  0  0  0  0  0  0  0  0
   29.4711   -4.0766  -37.9542 C   0  0  1  0  0  0  0  0  0  0  0  0
   30.2390   -3.4941  -38.9458 O   0  0  0  0  0  0  0  0  0  0  0  0
   28.0825   -4.5840  -38.4461 C   0  0  1  0  0  0  0  0  0  0  0  0
   27.5834   -3.8178  -39.5919 O   0  0  0  0  0  0  0  0  0  0  0  0
   28.3040   -5.9361  -38.7417 C   0  0  2  0  0  0  0  0  0  0  0  0
   27.1131   -6.7989  -38.6779 N   0  0  0  0  0  0  0  0  0  0  0  0
   26.5748   -7.4465  -39.7415 C   0  0  0  0  0  0  0  0  0  0  0  0
   25.5187   -8.1898  -39.3026 N   0  0  0  0  0  0  0  0  0  0  0  0
   25.4200   -7.9514  -37.9825 C   0  0  0  0  0  0  0  0  0  0  0  0
   24.5360   -8.3828  -37.0217 C   0  0  0  0  0  0  0  0  0  0  0  0
   23.4243   -9.2792  -37.1718 N   0  0  0  0  0  0  0  0  0  0  0  0
   24.6635   -7.9607  -35.8044 N   0  0  0  0  0  0  0  0  0  0  0  0
   25.6353   -7.0871  -35.4288 C   0  0  0  0  0  0  0  0  0  0  0  0
   26.5456   -6.6401  -36.3551 N   0  0  0  0  0  0  0  0  0  0  0  0
   26.3843   -7.0908  -37.5901 C   0  0  0  0  0  0  0  0  0  0  0  0
   33.3509   -4.0300  -34.0654 O   0  0  0  0  0  0  0  0  0  0  0  0
   34.3711   -3.0491  -33.2708 P   0  0  2  0  0  0  0  0  0  0  0  0
   33.7980   -2.6383  -31.9587 O   0  0  0  0  0  0  0  0  0  0  0  0
   34.9347   -2.0142  -34.1752 O   0  0  0  0  0  0  0  0  0  0  0  0
   35.4910   -4.1617  -32.9093 O   0  0  0  0  0  0  0  0  0  0  0  0
   35.0939   -5.5478  -32.9783 C   0  0  0  0  0  0  0  0  0  0  0  0
   35.8508   -6.2024  -34.1512 C   0  0  1  0  0  0  0  0  0  0  0  0
   36.0721   -5.3072  -35.1710 O   0  0  0  0  0  0  0  0  0  0  0  0
   37.2010   -6.8427  -33.7207 C   0  0  1  0  0  0  0  0  0  0  0  0
   37.4803   -8.0584  -34.4089 O   0  0  0  0  0  0  0  0  0  0  0  0
   38.1436   -5.7604  -34.2963 C   0  0  1  0  0  0  0  0  0  0  0  0
   39.4860   -6.2655  -34.4471 O   0  0  0  0  0  0  0  0  0  0  0  0
   37.5897   -5.4193  -35.5242 C   0  0  2  0  0  0  0  0  0  0  0  0
   37.8959   -4.1240  -36.0813 N   0  0  0  0  0  0  0  0  0  0  0  0
   37.3546   -3.8475  -37.3583 C   0  0  0  0  0  0  0  0  0  0  0  0
   37.5169   -2.5142  -37.9197 C   0  0  0  0  0  0  0  0  0  0  0  0
   36.8907   -2.1611  -39.2216 C   0  0  0  0  0  0  0  0  0  0  0  0
   35.9640   -1.3853  -39.2389 O   0  0  0  0  0  0  0  0  0  0  0  0
   37.3977   -2.8234  -40.3671 N   0  0  0  0  0  0  0  0  0  0  0  0
   38.4811   -1.5284  -37.2854 C   0  0  0  0  0  0  0  0  0  0  0  0
   38.6781   -1.7915  -35.8267 C   0  0  0  0  0  0  0  0  0  0  0  0
   38.5340   -3.1391  -35.2843 C   0  0  0  0  0  0  0  0  0  0  0  0
   30.1046   -6.2954  -35.4132 H   0  0  0  0  0  0  0  0  0  0  0  0
   29.9010   -4.5235  -35.4044 H   0  0  0  0  0  0  0  0  0  0  0  0
   31.0614   -5.5307  -37.9625 H   0  0  0  0  0  0  0  0  0  0  0  0
   29.3902   -3.2704  -37.2102 H   0  0  0  0  0  0  0  0  0  0  0  0
   30.9555   -2.9506  -38.5318 H   0  0  0  0  0  0  0  0  0  0  0  0
   27.2925   -4.4544  -37.6918 H   0  0  0  0  0  0  0  0  0  0  0  0
   27.0729   -3.0340  -39.2675 H   0  0  0  0  0  0  0  0  0  0  0  0
   28.6814   -6.0011  -39.7729 H   0  0  0  0  0  0  0  0  0  0  0  0
   26.9296   -7.3830  -40.7808 H   0  0  0  0  0  0  0  0  0  0  0  0
   22.8408   -9.5170  -36.3570 H   0  0  0  0  0  0  0  0  0  0  0  0
   23.2104   -9.6845  -38.0942 H   0  0  0  0  0  0  0  0  0  0  0  0
   25.6923   -6.7395  -34.3867 H   0  0  0  0  0  0  0  0  0  0  0  0
   35.3507   -6.0570  -32.0377 H   0  0  0  0  0  0  0  0  0  0  0  0
   34.0076   -5.6269  -33.1328 H   0  0  0  0  0  0  0  0  0  0  0  0
   35.1961   -7.0099  -34.5109 H   0  0  0  0  0  0  0  0  0  0  0  0
   37.2603   -7.0870  -32.6498 H   0  0  0  0  0  0  0  0  0  0  0  0
   37.6460   -8.7795  -33.7511 H   0  0  0  0  0  0  0  0  0  0  0  0
   38.2272   -4.8895  -33.6296 H   0  0  0  0  0  0  0  0  0  0  0  0
   39.8845   -6.4155  -33.5534 H   0  0  0  0  0  0  0  0  0  0  0  0
   37.9552   -6.1530  -36.2577 H   0  0  0  0  0  0  0  0  0  0  0  0
   36.8192   -4.6280  -37.9188 H   0  0  0  0  0  0  0  0  0  0  0  0
   37.0033   -2.6197  -41.2965 H   0  0  0  0  0  0  0  0  0  0  0  0
   38.1607   -3.5086  -40.2703 H   0  0  0  0  0  0  0  0  0  0  0  0
   39.4533   -1.6063  -37.7941 H   0  0  0  0  0  0  0  0  0  0  0  0
   38.0535   -0.5206  -37.3925 H   0  0  0  0  0  0  0  0  0  0  0  0
   38.9348   -0.9597  -35.1543 H   0  0  0  0  0  0  0  0  0  0  0  0
   38.9115   -3.3851  -34.2809 H   0  0  0  0  0  0  0  0  0  0  0  0
  1  2  2  0
  1  3  1  6
  1  4  1  0
  1 23  1  0
  4  5  1  0
  6  5  1  0
  6  7  1  0
  6  8  1  0
  7 12  1  0
  8  9  1  0
  8 10  1  0
 10 11  1  0
 10 12  1  0
 12 13  1  0
 13 14  1  0
 13 22  1  0
 14 15  2  0
 15 16  1  0
 16 17  2  0
 16 22  1  0
 17 18  1  0
 17 19  1  0
 19 20  2  0
 20 21  1  0
 21 22  2  0
 23 24  1  0
 24 25  1  1
 24 26  2  0
 24 27  1  0
 27 28  1  0
 29 28  1  0
 29 30  1  0
 29 31  1  0
 30 35  1  0
 31 32  1  0
 31 33  1  0
 33 34  1  0
 33 35  1  0
 35 36  1  0
 36 37  1  0
 36 44  1  0
 37 38  2  0
 38 39  1  0
 38 42  1  0
 39 40  2  0
 39 41  1  0
 42 43  1  0
 43 44  2  0
  5 45  1  0
  5 46  1  0
  6 47  1  6
  8 48  1  1
  9 49  1  0
 10 50  1  1
 11 51  1  0
 12 52  1  6
 14 53  1  0
 18 54  1  0
 18 55  1  0
 20 56  1  0
 28 57  1  0
 28 58  1  0
 29 59  1  6
 31 60  1  1
 32 61  1  0
 33 62  1  1
 34 63  1  0
 35 64  1  6
 37 65  1  0
 41 66  1  0
 41 67  1  0
 42 68  1  0
 42 69  1  0
 43 70  1  0
 44 71  1  0
M  CHG  2   3  -1  25  -1
M  END
>  <filename_input>  (17) 
7UTW_NAI_docked.sdf

>  <pdb_id>  (17) 
7UTW_NAI

>  <pose_rank>  (17) 
16

>  <num_atoms_heavy>  (17) 
44

>  <num_torsions>  (17) 
11

>  <pose>  (17) 
[32.416814202930105, -3.77125097486644, -35.34067245494766, -0.6702224703853219, -1.6862785120980308, 2.27578319197214, 0.8321198463039967, -0.6940340606767986, -0.7280372196941348, -3.593169364953801, 1.5456297091514275, 0.25718238591385734, -1.4827584038848176, -1.3579557740531372, 0.6763386216704673, 0.4981982907124647, -1.56458316272754]

>  <energy>  (17) 
-727.7851880016532

>  <inter_energy>  (17) 
-753.0654453919905

>  <intra_energy>  (17) 
25.424057108116827

>  <rmsd>  (17) 
11.4712

>  <sdf_rank>  (17) 
0

$$$$

     RDKit          3D

 71 75  0  0  0  0  0  0  0  0999 V2000
   34.8827   -5.1661  -35.1658 P   0  0  2  0  0  0  0  0  0  0  0  0
   34.2354   -4.9408  -33.8204 O   0  0  0  0  0  0  0  0  0  0  0  0
   34.4397   -6.3340  -35.9959 O   0  0  0  0  0  0  0  0  0  0  0  0
   36.4690   -5.2986  -34.9787 O   0  0  0  0  0  0  0  0  0  0  0  0
   37.1618   -6.3018  -35.6898 C   0  0  0  0  0  0  0  0  0  0  0  0
   38.5840   -6.4481  -35.0453 C   0  0  1  0  0  0  0  0  0  0  0  0
   38.5280   -5.8821  -33.8030 O   0  0  0  0  0  0  0  0  0  0  0  0
   39.0441   -7.9315  -34.8912 C   0  0  1  0  0  0  0  0  0  0  0  0
   40.2148   -8.1819  -35.5834 O   0  0  0  0  0  0  0  0  0  0  0  0
   39.1863   -8.0526  -33.3444 C   0  0  1  0  0  0  0  0  0  0  0  0
   40.2403   -8.9935  -32.9538 O   0  0  0  0  0  0  0  0  0  0  0  0
   39.4376   -6.7387  -32.9260 C   0  0  2  0  0  0  0  0  0  0  0  0
   39.0597   -6.4364  -31.5358 N   0  0  0  0  0  0  0  0  0  0  0  0
   39.8863   -6.5683  -30.4681 C   0  0  0  0  0  0  0  0  0  0  0  0
   39.2194   -6.1500  -29.3541 N   0  0  0  0  0  0  0  0  0  0  0  0
   37.9878   -5.8017  -29.7676 C   0  0  0  0  0  0  0  0  0  0  0  0
   36.8750   -5.3474  -29.0997 C   0  0  0  0  0  0  0  0  0  0  0  0
   36.7242   -5.0826  -27.6965 N   0  0  0  0  0  0  0  0  0  0  0  0
   35.7875   -5.1126  -29.7618 N   0  0  0  0  0  0  0  0  0  0  0  0
   35.6879   -5.3106  -31.1033 C   0  0  0  0  0  0  0  0  0  0  0  0
   36.7793   -5.7528  -31.8101 N   0  0  0  0  0  0  0  0  0  0  0  0
   37.8738   -5.9843  -31.1011 C   0  0  0  0  0  0  0  0  0  0  0  0
   34.6538   -3.7796  -35.9345 O   0  0  0  0  0  0  0  0  0  0  0  0
   33.2956   -3.0496  -36.4412 P   0  0  2  0  0  0  0  0  0  0  0  0
   33.2037   -3.0729  -37.9277 O   0  0  0  0  0  0  0  0  0  0  0  0
   33.0710   -1.7717  -35.7178 O   0  0  0  0  0  0  0  0  0  0  0  0
   32.2511   -4.1805  -35.9387 O   0  0  0  0  0  0  0  0  0  0  0  0
   30.8523   -3.9627  -36.2217 C   0  0  0  0  0  0  0  0  0  0  0  0
   30.5679   -4.4818  -37.6453 C   0  0  1  0  0  0  0  0  0  0  0  0
   30.0388   -5.7507  -37.6231 O   0  0  0  0  0  0  0  0  0  0  0  0
   29.6316   -3.5432  -38.4581 C   0  0  1  0  0  0  0  0  0  0  0  0
   29.9908   -3.4612  -39.8343 O   0  0  0  0  0  0  0  0  0  0  0  0
   28.3445   -4.3955  -38.3679 C   0  0  1  0  0  0  0  0  0  0  0  0
   27.3966   -4.0170  -39.3869 O   0  0  0  0  0  0  0  0  0  0  0  0
   28.7711   -5.7074  -38.5351 C   0  0  2  0  0  0  0  0  0  0  0  0
   27.9494   -6.7705  -38.0095 N   0  0  0  0  0  0  0  0  0  0  0  0
   26.6695   -6.9196  -38.5925 C   0  0  0  0  0  0  0  0  0  0  0  0
   25.8426   -8.0512  -38.1990 C   0  0  0  0  0  0  0  0  0  0  0  0
   24.5268   -8.2883  -38.8503 C   0  0  0  0  0  0  0  0  0  0  0  0
   24.4310   -8.1627  -40.0487 O   0  0  0  0  0  0  0  0  0  0  0  0
   23.4414   -8.5903  -37.9909 N   0  0  0  0  0  0  0  0  0  0  0  0
   26.2182   -8.8911  -36.9918 C   0  0  0  0  0  0  0  0  0  0  0  0
   27.6891   -8.8675  -36.7241 C   0  0  0  0  0  0  0  0  0  0  0  0
   28.4995   -7.7146  -37.1048 C   0  0  0  0  0  0  0  0  0  0  0  0
   36.6180   -7.2553  -35.6176 H   0  0  0  0  0  0  0  0  0  0  0  0
   37.2467   -6.0316  -36.7527 H   0  0  0  0  0  0  0  0  0  0  0  0
   39.3100   -5.9556  -35.7090 H   0  0  0  0  0  0  0  0  0  0  0  0
   38.3528   -8.6752  -35.3143 H   0  0  0  0  0  0  0  0  0  0  0  0
   40.9511   -8.3394  -34.9406 H   0  0  0  0  0  0  0  0  0  0  0  0
   38.2866   -8.4686  -32.8675 H   0  0  0  0  0  0  0  0  0  0  0  0
   40.2921   -9.0397  -31.9662 H   0  0  0  0  0  0  0  0  0  0  0  0
   40.5203   -6.5595  -33.0008 H   0  0  0  0  0  0  0  0  0  0  0  0
   40.9183   -6.9478  -30.4961 H   0  0  0  0  0  0  0  0  0  0  0  0
   35.8236   -4.7420  -27.3305 H   0  0  0  0  0  0  0  0  0  0  0  0
   37.5165   -5.2332  -27.0559 H   0  0  0  0  0  0  0  0  0  0  0  0
   34.7366   -5.1172  -31.6206 H   0  0  0  0  0  0  0  0  0  0  0  0
   30.2347   -4.5101  -35.4944 H   0  0  0  0  0  0  0  0  0  0  0  0
   30.6101   -2.8921  -36.1498 H   0  0  0  0  0  0  0  0  0  0  0  0
   31.5440   -4.5030  -38.1521 H   0  0  0  0  0  0  0  0  0  0  0  0
   29.6108   -2.5054  -38.0940 H   0  0  0  0  0  0  0  0  0  0  0  0
   30.9530   -3.2415  -39.9117 H   0  0  0  0  0  0  0  0  0  0  0  0
   27.8227   -4.2544  -37.4099 H   0  0  0  0  0  0  0  0  0  0  0  0
   26.5673   -3.6858  -38.9595 H   0  0  0  0  0  0  0  0  0  0  0  0
   28.8371   -5.8893  -39.6179 H   0  0  0  0  0  0  0  0  0  0  0  0
   26.3045   -6.1916  -39.3319 H   0  0  0  0  0  0  0  0  0  0  0  0
   22.5057   -8.7642  -38.3846 H   0  0  0  0  0  0  0  0  0  0  0  0
   23.5882   -8.6360  -36.9724 H   0  0  0  0  0  0  0  0  0  0  0  0
   25.6911   -8.4991  -36.1095 H   0  0  0  0  0  0  0  0  0  0  0  0
   25.9291   -9.9317  -37.2006 H   0  0  0  0  0  0  0  0  0  0  0  0
   28.1662   -9.7293  -36.2346 H   0  0  0  0  0  0  0  0  0  0  0  0
   29.5133   -7.5809  -36.6994 H   0  0  0  0  0  0  0  0  0  0  0  0
  1  2  2  0
  1  3  1  6
  1  4  1  0
  1 23  1  0
  4  5  1  0
  6  5  1  0
  6  7  1  0
  6  8  1  0
  7 12  1  0
  8  9  1  0
  8 10  1  0
 10 11  1  0
 10 12  1  0
 12 13  1  0
 13 14  1  0
 13 22  1  0
 14 15  2  0
 15 16  1  0
 16 17  2  0
 16 22  1  0
 17 18  1  0
 17 19  1  0
 19 20  2  0
 20 21  1  0
 21 22  2  0
 23 24  1  0
 24 25  1  6
 24 26  2  0
 24 27  1  0
 27 28  1  0
 29 28  1  0
 29 30  1  0
 29 31  1  0
 30 35  1  0
 31 32  1  0
 31 33  1  0
 33 34  1  0
 33 35  1  0
 35 36  1  0
 36 37  1  0
 36 44  1  0
 37 38  2  0
 38 39  1  0
 38 42  1  0
 39 40  2  0
 39 41  1  0
 42 43  1  0
 43 44  2  0
  5 45  1  0
  5 46  1  0
  6 47  1  6
  8 48  1  6
  9 49  1  0
 10 50  1  1
 11 51  1  0
 12 52  1  1
 14 53  1  0
 18 54  1  0
 18 55  1  0
 20 56  1  0
 28 57  1  0
 28 58  1  0
 29 59  1  6
 31 60  1  1
 32 61  1  0
 33 62  1  1
 34 63  1  0
 35 64  1  6
 37 65  1  0
 41 66  1  0
 41 67  1  0
 42 68  1  0
 42 69  1  0
 43 70  1  0
 44 71  1  0
M  CHG  2   3  -1  25  -1
M  END
>  <filename_input>  (18) 
7UTW_NAI_docked.sdf

>  <pdb_id>  (18) 
7UTW_NAI

>  <pose_rank>  (18) 
17

>  <num_atoms_heavy>  (18) 
44

>  <num_torsions>  (18) 
11

>  <pose>  (18) 
[34.88270685148765, -5.166095381542117, -35.16578735179835, -1.5671842346492513, -0.06269684361019794, -2.0418642413140136, 2.9406972444643675, 0.8989657889893544, -2.7651254533825926, 2.2589374278570724, 1.675040182014244, -3.5174024991595747, 2.0109034714315785, -1.8336745746205703, 2.944733823344054, -1.472903192582242, -2.7413533170345215]

>  <energy>  (18) 
-655.8878838903291

>  <inter_energy>  (18) 
-715.1046414185591

>  <intra_energy>  (18) 
58.795122218838095

>  <rmsd>  (18) 
5.64652

>  <sdf_rank>  (18) 
0

$$$$

     RDKit          3D

 71 75  0  0  0  0  0  0  0  0999 V2000
   32.7064   -4.9157  -35.7010 P   0  0  2  0  0  0  0  0  0  0  0  0
   32.5480   -4.0779  -34.4549 O   0  0  0  0  0  0  0  0  0  0  0  0
   32.2818   -6.3537  -35.6654 O   0  0  0  0  0  0  0  0  0  0  0  0
   34.2391   -4.8907  -36.1690 O   0  0  0  0  0  0  0  0  0  0  0  0
   34.8737   -6.1062  -36.5035 C   0  0  0  0  0  0  0  0  0  0  0  0
   36.3256   -6.0652  -35.9121 C   0  0  1  0  0  0  0  0  0  0  0  0
   36.2500   -5.4611  -34.6890 O   0  0  0  0  0  0  0  0  0  0  0  0
   36.9580   -7.4799  -35.7252 C   0  0  1  0  0  0  0  0  0  0  0  0
   38.1239   -7.6231  -36.4549 O   0  0  0  0  0  0  0  0  0  0  0  0
   37.1687   -7.5234  -34.1821 C   0  0  1  0  0  0  0  0  0  0  0  0
   38.3371   -8.3231  -33.8018 O   0  0  0  0  0  0  0  0  0  0  0  0
   37.2827   -6.1743  -33.8201 C   0  0  2  0  0  0  0  0  0  0  0  0
   36.9231   -5.8625  -32.4272 N   0  0  0  0  0  0  0  0  0  0  0  0
   37.4395   -6.4897  -31.3407 C   0  0  0  0  0  0  0  0  0  0  0  0
   36.9205   -5.9079  -30.2214 N   0  0  0  0  0  0  0  0  0  0  0  0
   36.0736   -4.9574  -30.6558 C   0  0  0  0  0  0  0  0  0  0  0  0
   35.2424   -4.0802  -29.9997 C   0  0  0  0  0  0  0  0  0  0  0  0
   35.0599   -3.9144  -28.5851 N   0  0  0  0  0  0  0  0  0  0  0  0
   34.4976   -3.2748  -30.6872 N   0  0  0  0  0  0  0  0  0  0  0  0
   34.4874   -3.2651  -32.0467 C   0  0  0  0  0  0  0  0  0  0  0  0
   35.3108   -4.1175  -32.7408 N   0  0  0  0  0  0  0  0  0  0  0  0
   36.0573   -4.9281  -32.0061 C   0  0  0  0  0  0  0  0  0  0  0  0
   31.9020   -4.0939  -36.8161 O   0  0  0  0  0  0  0  0  0  0  0  0
   30.3113   -3.9721  -37.1146 P   0  0  2  0  0  0  0  0  0  0  0  0
   30.0548   -3.8338  -38.5753 O   0  0  0  0  0  0  0  0  0  0  0  0
   29.6580   -3.0316  -36.1685 O   0  0  0  0  0  0  0  0  0  0  0  0
   29.9152   -5.5023  -36.7623 O   0  0  0  0  0  0  0  0  0  0  0  0
   28.5107   -5.8097  -36.6321 C   0  0  0  0  0  0  0  0  0  0  0  0
   28.0673   -6.5599  -37.9039 C   0  0  1  0  0  0  0  0  0  0  0  0
   27.4288   -7.7384  -37.5976 O   0  0  0  0  0  0  0  0  0  0  0  0
   27.1578   -5.7021  -38.8289 C   0  0  1  0  0  0  0  0  0  0  0  0
   27.4116   -5.9240  -40.2131 O   0  0  0  0  0  0  0  0  0  0  0  0
   25.8102   -6.3819  -38.4929 C   0  0  1  0  0  0  0  0  0  0  0  0
   24.8220   -6.1090  -39.5074 O   0  0  0  0  0  0  0  0  0  0  0  0
   26.1013   -7.7387  -38.4212 C   0  0  2  0  0  0  0  0  0  0  0  0
   25.2314   -8.5892  -37.6456 N   0  0  0  0  0  0  0  0  0  0  0  0
   23.8501   -8.5055  -37.9379 C   0  0  0  0  0  0  0  0  0  0  0  0
   22.9335   -9.4281  -37.2839 C   0  0  0  0  0  0  0  0  0  0  0  0
   21.4865   -9.4265  -37.6276 C   0  0  0  0  0  0  0  0  0  0  0  0
   21.1542   -9.2672  -38.7787 O   0  0  0  0  0  0  0  0  0  0  0  0
   20.5799   -9.5524  -36.5459 N   0  0  0  0  0  0  0  0  0  0  0  0
   23.4010  -10.2685  -36.1096 C   0  0  0  0  0  0  0  0  0  0  0  0
   24.8729  -10.5283  -36.1528 C   0  0  0  0  0  0  0  0  0  0  0  0
   25.7805   -9.5808  -36.7927 C   0  0  0  0  0  0  0  0  0  0  0  0
   34.3170   -6.9507  -36.0712 H   0  0  0  0  0  0  0  0  0  0  0  0
   34.9062   -6.2358  -37.5953 H   0  0  0  0  0  0  0  0  0  0  0  0
   36.9660   -5.5201  -36.6212 H   0  0  0  0  0  0  0  0  0  0  0  0
   36.3417   -8.3130  -36.0941 H   0  0  0  0  0  0  0  0  0  0  0  0
   38.8910   -7.7173  -35.8362 H   0  0  0  0  0  0  0  0  0  0  0  0
   36.3404   -8.0197  -33.6552 H   0  0  0  0  0  0  0  0  0  0  0  0
   38.4003   -8.3663  -32.8148 H   0  0  0  0  0  0  0  0  0  0  0  0
   38.3344   -5.8767  -33.9447 H   0  0  0  0  0  0  0  0  0  0  0  0
   38.1549   -7.3252  -31.3592 H   0  0  0  0  0  0  0  0  0  0  0  0
   34.3965   -3.2107  -28.2304 H   0  0  0  0  0  0  0  0  0  0  0  0
   35.5923   -4.4991  -27.9251 H   0  0  0  0  0  0  0  0  0  0  0  0
   33.8221   -2.5770  -32.5888 H   0  0  0  0  0  0  0  0  0  0  0  0
   28.3478   -6.4443  -35.7485 H   0  0  0  0  0  0  0  0  0  0  0  0
   27.9269   -4.8853  -36.5105 H   0  0  0  0  0  0  0  0  0  0  0  0
   28.9937   -6.7800  -38.4548 H   0  0  0  0  0  0  0  0  0  0  0  0
   27.2605   -4.6174  -38.6780 H   0  0  0  0  0  0  0  0  0  0  0  0
   28.1532   -6.5722  -40.3129 H   0  0  0  0  0  0  0  0  0  0  0  0
   25.3817   -6.0056  -37.5523 H   0  0  0  0  0  0  0  0  0  0  0  0
   23.9630   -5.8719  -39.0760 H   0  0  0  0  0  0  0  0  0  0  0  0
   26.0636   -8.1311  -39.4482 H   0  0  0  0  0  0  0  0  0  0  0  0
   23.4742   -7.7546  -38.6485 H   0  0  0  0  0  0  0  0  0  0  0  0
   19.5652   -9.5575  -36.7224 H   0  0  0  0  0  0  0  0  0  0  0  0
   20.9357   -9.6387  -35.5831 H   0  0  0  0  0  0  0  0  0  0  0  0
   23.1621   -9.7376  -35.1764 H   0  0  0  0  0  0  0  0  0  0  0  0
   22.8848  -11.2385  -36.1612 H   0  0  0  0  0  0  0  0  0  0  0  0
   25.2767  -11.4443  -35.6968 H   0  0  0  0  0  0  0  0  0  0  0  0
   26.8652   -9.6345  -36.6176 H   0  0  0  0  0  0  0  0  0  0  0  0
  1  2  2  0
  1  3  1  1
  1  4  1  0
  1 23  1  0
  4  5  1  0
  6  5  1  0
  6  7  1  0
  6  8  1  0
  7 12  1  0
  8  9  1  0
  8 10  1  0
 10 11  1  0
 10 12  1  0
 12 13  1  0
 13 14  1  0
 13 22  1  0
 14 15  2  0
 15 16  1  0
 16 17  2  0
 16 22  1  0
 17 18  1  0
 17 19  1  0
 19 20  2  0
 20 21  1  0
 21 22  2  0
 23 24  1  0
 24 25  1  6
 24 26  2  0
 24 27  1  0
 27 28  1  0
 29 28  1  0
 29 30  1  0
 29 31  1  0
 30 35  1  0
 31 32  1  0
 31 33  1  0
 33 34  1  0
 33 35  1  0
 35 36  1  0
 36 37  1  0
 36 44  1  0
 37 38  2  0
 38 39  1  0
 38 42  1  0
 39 40  2  0
 39 41  1  0
 42 43  1  0
 43 44  2  0
  5 45  1  0
  5 46  1  0
  6 47  1  6
  8 48  1  6
  9 49  1  0
 10 50  1  1
 11 51  1  0
 12 52  1  6
 14 53  1  0
 18 54  1  0
 18 55  1  0
 20 56  1  0
 28 57  1  0
 28 58  1  0
 29 59  1  6
 31 60  1  1
 32 61  1  0
 33 62  1  1
 34 63  1  0
 35 64  1  6
 37 65  1  0
 41 66  1  0
 41 67  1  0
 42 68  1  0
 42 69  1  0
 43 70  1  0
 44 71  1  0
M  CHG  2   3  -1  25  -1
M  END
>  <filename_input>  (19) 
7UTW_NAI_docked.sdf

>  <pdb_id>  (19) 
7UTW_NAI

>  <pose_rank>  (19) 
18

>  <num_atoms_heavy>  (19) 
44

>  <num_torsions>  (19) 
11

>  <pose>  (19) 
[32.70640070475136, -4.915675123797356, -35.70098568567297, -2.1951561297486646, -0.5414930355044341, -1.6205256786671154, 2.8640573098028064, 1.359036393501429, -2.407238405926731, 1.5958591502706923, 1.4513454515051423, -4.14537900762368, 1.7718195526554246, -1.496036843082576, 3.4699015449183275, -1.6887403198796043, -2.811530979055329]

>  <energy>  (19) 
-734.8741332191394

>  <inter_energy>  (19) 
-800.2490720300239

>  <intra_energy>  (19) 
63.273310012165005

>  <rmsd>  (19) 
3.7556

>  <sdf_rank>  (19) 
0

$$$$

     RDKit          3D

 71 75  0  0  0  0  0  0  0  0999 V2000
   33.4699   -3.9203  -34.6529 P   0  0  2  0  0  0  0  0  0  0  0  0
   34.4582   -3.5866  -33.5613 O   0  0  0  0  0  0  0  0  0  0  0  0
   32.0030   -3.8208  -34.3566 O   0  0  0  0  0  0  0  0  0  0  0  0
   33.7416   -5.4089  -35.1813 O   0  0  0  0  0  0  0  0  0  0  0  0
   34.9025   -5.6651  -35.9421 C   0  0  0  0  0  0  0  0  0  0  0  0
   34.7836   -7.1182  -36.5198 C   0  0  1  0  0  0  0  0  0  0  0  0
   35.9638   -7.7564  -36.2621 O   0  0  0  0  0  0  0  0  0  0  0  0
   33.6253   -7.9458  -35.8799 C   0  0  1  0  0  0  0  0  0  0  0  0
   32.7043   -8.3586  -36.8252 O   0  0  0  0  0  0  0  0  0  0  0  0
   34.4115   -9.1132  -35.2115 C   0  0  1  0  0  0  0  0  0  0  0  0
   33.6413  -10.3603  -35.1851 O   0  0  0  0  0  0  0  0  0  0  0  0
   35.5855   -9.2064  -35.9714 C   0  0  2  0  0  0  0  0  0  0  0  0
   36.7420   -9.7939  -35.2757 N   0  0  0  0  0  0  0  0  0  0  0  0
   37.6610   -9.0827  -34.5756 C   0  0  0  0  0  0  0  0  0  0  0  0
   38.5531   -9.9562  -34.0263 N   0  0  0  0  0  0  0  0  0  0  0  0
   38.1722  -11.1805  -34.4328 C   0  0  0  0  0  0  0  0  0  0  0  0
   38.6999  -12.4344  -34.2326 C   0  0  0  0  0  0  0  0  0  0  0  0
   39.8587  -12.8019  -33.4682 N   0  0  0  0  0  0  0  0  0  0  0  0
   38.1290  -13.4596  -34.7797 N   0  0  0  0  0  0  0  0  0  0  0  0
   37.0251  -13.3519  -35.5660 C   0  0  0  0  0  0  0  0  0  0  0  0
   36.4597  -12.1191  -35.7824 N   0  0  0  0  0  0  0  0  0  0  0  0
   37.0704  -11.0930  -35.2092 C   0  0  0  0  0  0  0  0  0  0  0  0
   33.8922   -2.9519  -35.8569 O   0  0  0  0  0  0  0  0  0  0  0  0
   33.0061   -2.2290  -37.0086 P   0  0  2  0  0  0  0  0  0  0  0  0
   33.6611   -2.3569  -38.3403 O   0  0  0  0  0  0  0  0  0  0  0  0
   32.5245   -0.8976  -36.5591 O   0  0  0  0  0  0  0  0  0  0  0  0
   31.7886   -3.2965  -37.0359 O   0  0  0  0  0  0  0  0  0  0  0  0
   31.9982   -4.5215  -37.7704 C   0  0  0  0  0  0  0  0  0  0  0  0
   30.8443   -4.6741  -38.7813 C   0  0  1  0  0  0  0  0  0  0  0  0
   30.1582   -5.8502  -38.5898 O   0  0  0  0  0  0  0  0  0  0  0  0
   29.8474   -3.4808  -38.7497 C   0  0  1  0  0  0  0  0  0  0  0  0
   29.3619   -3.1321  -40.0429 O   0  0  0  0  0  0  0  0  0  0  0  0
   28.6940   -4.1861  -37.9993 C   0  0  1  0  0  0  0  0  0  0  0  0
   27.4462   -3.4878  -38.1875 O   0  0  0  0  0  0  0  0  0  0  0  0
   28.6449   -5.4656  -38.5390 C   0  0  2  0  0  0  0  0  0  0  0  0
   28.0614   -6.5234  -37.7501 N   0  0  0  0  0  0  0  0  0  0  0  0
   26.7276   -6.8751  -38.0626 C   0  0  0  0  0  0  0  0  0  0  0  0
   26.1245   -8.0188  -37.3938 C   0  0  0  0  0  0  0  0  0  0  0  0
   24.7544   -8.4700  -37.7560 C   0  0  0  0  0  0  0  0  0  0  0  0
   24.0878   -9.0506  -36.9317 O   0  0  0  0  0  0  0  0  0  0  0  0
   24.3445   -8.2359  -39.0921 N   0  0  0  0  0  0  0  0  0  0  0  0
   26.8021   -8.6465  -36.1893 C   0  0  0  0  0  0  0  0  0  0  0  0
   28.2833   -8.4425  -36.2057 C   0  0  0  0  0  0  0  0  0  0  0  0
   28.8699   -7.2776  -36.8614 C   0  0  0  0  0  0  0  0  0  0  0  0
   34.9783   -4.9397  -36.7656 H   0  0  0  0  0  0  0  0  0  0  0  0
   35.8018   -5.5722  -35.3155 H   0  0  0  0  0  0  0  0  0  0  0  0
   34.5640   -7.0395  -37.5948 H   0  0  0  0  0  0  0  0  0  0  0  0
   33.0010   -7.3894  -35.1653 H   0  0  0  0  0  0  0  0  0  0  0  0
   31.9023   -8.7181  -36.3696 H   0  0  0  0  0  0  0  0  0  0  0  0
   34.6259   -8.9260  -34.1489 H   0  0  0  0  0  0  0  0  0  0  0  0
   33.4768  -10.6267  -34.2459 H   0  0  0  0  0  0  0  0  0  0  0  0
   35.3799   -9.8542  -36.8363 H   0  0  0  0  0  0  0  0  0  0  0  0
   37.6830   -7.9881  -34.4690 H   0  0  0  0  0  0  0  0  0  0  0  0
   40.1412  -13.7903  -33.4042 H   0  0  0  0  0  0  0  0  0  0  0  0
   40.4073  -12.0771  -32.9840 H   0  0  0  0  0  0  0  0  0  0  0  0
   36.5863  -14.2490  -36.0272 H   0  0  0  0  0  0  0  0  0  0  0  0
   32.9589   -4.4768  -38.3045 H   0  0  0  0  0  0  0  0  0  0  0  0
   32.0204   -5.3801  -37.0833 H   0  0  0  0  0  0  0  0  0  0  0  0
   31.3203   -4.6874  -39.7729 H   0  0  0  0  0  0  0  0  0  0  0  0
   30.2691   -2.5551  -38.3310 H   0  0  0  0  0  0  0  0  0  0  0  0
   28.5612   -2.5571  -39.9508 H   0  0  0  0  0  0  0  0  0  0  0  0
   28.8613   -4.2073  -36.9123 H   0  0  0  0  0  0  0  0  0  0  0  0
   27.0544   -3.2685  -37.3052 H   0  0  0  0  0  0  0  0  0  0  0  0
   28.0371   -5.4063  -39.4540 H   0  0  0  0  0  0  0  0  0  0  0  0
   26.1548   -6.2933  -38.7997 H   0  0  0  0  0  0  0  0  0  0  0  0
   23.4061   -8.5267  -39.4013 H   0  0  0  0  0  0  0  0  0  0  0  0
   24.9851   -7.7750  -39.7540 H   0  0  0  0  0  0  0  0  0  0  0  0
   26.3919   -8.1924  -35.2752 H   0  0  0  0  0  0  0  0  0  0  0  0
   26.6095   -9.7291  -36.2191 H   0  0  0  0  0  0  0  0  0  0  0  0
   28.9387   -9.1790  -35.7179 H   0  0  0  0  0  0  0  0  0  0  0  0
   29.9147   -6.9913  -36.6708 H   0  0  0  0  0  0  0  0  0  0  0  0
  1  2  2  0
  1  3  1  1
  1  4  1  0
  1 23  1  0
  4  5  1  0
  6  5  1  0
  6  7  1  0
  6  8  1  0
  7 12  1  0
  8  9  1  0
  8 10  1  0
 10 11  1  0
 10 12  1  0
 12 13  1  0
 13 14  1  0
 13 22  1  0
 14 15  2  0
 15 16  1  0
 16 17  2  0
 16 22  1  0
 17 18  1  0
 17 19  1  0
 19 20  2  0
 20 21  1  0
 21 22  2  0
 23 24  1  0
 24 25  1  6
 24 26  2  0
 24 27  1  0
 27 28  1  0
 29 28  1  0
 29 30  1  0
 29 31  1  0
 30 35  1  0
 31 32  1  0
 31 33  1  0
 33 34  1  0
 33 35  1  0
 35 36  1  0
 36 37  1  0
 36 44  1  0
 37 38  2  0
 38 39  1  0
 38 42  1  0
 39 40  2  0
 39 41  1  0
 42 43  1  0
 43 44  2  0
  5 45  1  0
  5 46  1  0
  6 47  1  6
  8 48  1  1
  9 49  1  0
 10 50  1  1
 11 51  1  0
 12 52  1  6
 14 53  1  0
 18 54  1  0
 18 55  1  0
 20 56  1  0
 28 57  1  0
 28 58  1  0
 29 59  1  6
 31 60  1  1
 32 61  1  0
 33 62  1  1
 34 63  1  0
 35 64  1  6
 37 65  1  0
 41 66  1  0
 41 67  1  0
 42 68  1  0
 42 69  1  0
 43 70  1  0
 44 71  1  0
M  CHG  2   3  -1  25  -1
M  END
>  <filename_input>  (20) 
7UTW_NAI_docked.sdf

>  <pdb_id>  (20) 
7UTW_NAI

>  <pose_rank>  (20) 
19

>  <num_atoms_heavy>  (20) 
44

>  <num_torsions>  (20) 
11

>  <pose>  (20) 
[33.469863057361394, -3.920341360877299, -34.652876888666775, -2.8989233452539973, 1.1875277716684625, -1.8506629970146378, 11.877454291404952, 13.373866084942893, 0.9027978737106834, -0.9094994662452123, 0.24439414441565174, 2.3195925127713855, 10.012492939212956, 0.7666320176241459, -0.8885401093300787, -0.8522474553126502, 0.1199633193781209]

>  <energy>  (20) 
-628.3292765913056

>  <inter_energy>  (20) 
-651.0839767199866

>  <intra_energy>  (20) 
29.819612602147195

>  <rmsd>  (20) 
6.67265

>  <sdf_rank>  (20) 
0

$$$$

     RDKit          3D

 71 75  0  0  0  0  0  0  0  0999 V2000
   34.9981   -3.6312  -33.1838 P   0  0  2  0  0  0  0  0  0  0  0  0
   35.9316   -2.9747  -34.1725 O   0  0  0  0  0  0  0  0  0  0  0  0
   34.9180   -3.0834  -31.7899 O   0  0  0  0  0  0  0  0  0  0  0  0
   35.3645   -5.1863  -33.0561 O   0  0  0  0  0  0  0  0  0  0  0  0
   36.5754   -5.5564  -32.4326 C   0  0  0  0  0  0  0  0  0  0  0  0
   37.2639   -6.6406  -33.3326 C   0  0  1  0  0  0  0  0  0  0  0  0
   36.4870   -7.7634  -33.2835 O   0  0  0  0  0  0  0  0  0  0  0  0
   37.4085   -6.2056  -34.8245 C   0  0  1  0  0  0  0  0  0  0  0  0
   38.7306   -6.1876  -35.2297 O   0  0  0  0  0  0  0  0  0  0  0  0
   36.5409   -7.2801  -35.5458 C   0  0  1  0  0  0  0  0  0  0  0  0
   37.0406   -7.5898  -36.8887 O   0  0  0  0  0  0  0  0  0  0  0  0
   36.5766   -8.3795  -34.6773 C   0  0  2  0  0  0  0  0  0  0  0  0
   35.4368   -9.3048  -34.7839 N   0  0  0  0  0  0  0  0  0  0  0  0
   34.1349   -8.9234  -34.7930 C   0  0  0  0  0  0  0  0  0  0  0  0
   33.3624  -10.0356  -34.9575 N   0  0  0  0  0  0  0  0  0  0  0  0
   34.2147  -11.0746  -35.0136 C   0  0  0  0  0  0  0  0  0  0  0  0
   34.0230  -12.4312  -35.1307 C   0  0  0  0  0  0  0  0  0  0  0  0
   32.7855  -13.1487  -35.2570 N   0  0  0  0  0  0  0  0  0  0  0  0
   35.0488  -13.2211  -35.1293 N   0  0  0  0  0  0  0  0  0  0  0  0
   36.3241  -12.7674  -35.0011 C   0  0  0  0  0  0  0  0  0  0  0  0
   36.5603  -11.4187  -34.8928 N   0  0  0  0  0  0  0  0  0  0  0  0
   35.4884  -10.6407  -34.8960 C   0  0  0  0  0  0  0  0  0  0  0  0
   33.5742   -3.5827  -33.9159 O   0  0  0  0  0  0  0  0  0  0  0  0
   33.1709   -3.7326  -35.4809 P   0  0  2  0  0  0  0  0  0  0  0  0
   33.7828   -4.9555  -36.0715 O   0  0  0  0  0  0  0  0  0  0  0  0
   33.2998   -2.4364  -36.1950 O   0  0  0  0  0  0  0  0  0  0  0  0
   31.6115   -4.1090  -35.2593 O   0  0  0  0  0  0  0  0  0  0  0  0
   30.6647   -3.6043  -36.2252 C   0  0  0  0  0  0  0  0  0  0  0  0
   30.5476   -4.6384  -37.3627 C   0  0  1  0  0  0  0  0  0  0  0  0
   29.7109   -5.6738  -37.0189 O   0  0  0  0  0  0  0  0  0  0  0  0
   30.0744   -4.0129  -38.7056 C   0  0  1  0  0  0  0  0  0  0  0  0
   30.7128   -4.5919  -39.8400 O   0  0  0  0  0  0  0  0  0  0  0  0
   28.6181   -4.5321  -38.6815 C   0  0  1  0  0  0  0  0  0  0  0  0
   28.0288   -4.4915  -39.9972 O   0  0  0  0  0  0  0  0  0  0  0  0
   28.7102   -5.8352  -38.2076 C   0  0  2  0  0  0  0  0  0  0  0  0
   27.5497   -6.4247  -37.5851 N   0  0  0  0  0  0  0  0  0  0  0  0
   27.1923   -7.7201  -38.0261 C   0  0  0  0  0  0  0  0  0  0  0  0
   26.1119   -8.4227  -37.3492 C   0  0  0  0  0  0  0  0  0  0  0  0
   25.7628   -9.8175  -37.7291 C   0  0  0  0  0  0  0  0  0  0  0  0
   26.6095  -10.5227  -38.2258 O   0  0  0  0  0  0  0  0  0  0  0  0
   24.4145  -10.2071  -37.5337 N   0  0  0  0  0  0  0  0  0  0  0  0
   25.2034   -7.6827  -36.3844 C   0  0  0  0  0  0  0  0  0  0  0  0
   25.8829   -6.5064  -35.7596 C   0  0  0  0  0  0  0  0  0  0  0  0
   26.9491   -5.7991  -36.4625 C   0  0  0  0  0  0  0  0  0  0  0  0
   37.2308   -4.6783  -32.3364 H   0  0  0  0  0  0  0  0  0  0  0  0
   36.3835   -5.9568  -31.4262 H   0  0  0  0  0  0  0  0  0  0  0  0
   38.2811   -6.8054  -32.9478 H   0  0  0  0  0  0  0  0  0  0  0  0
   37.0789   -5.1784  -35.0395 H   0  0  0  0  0  0  0  0  0  0  0  0
   39.3195   -6.1796  -34.4340 H   0  0  0  0  0  0  0  0  0  0  0  0
   35.5118   -6.9389  -35.7315 H   0  0  0  0  0  0  0  0  0  0  0  0
   37.8798   -8.1100  -36.8167 H   0  0  0  0  0  0  0  0  0  0  0  0
   37.4775   -8.9666  -34.9091 H   0  0  0  0  0  0  0  0  0  0  0  0
   33.7652   -7.8930  -34.6859 H   0  0  0  0  0  0  0  0  0  0  0  0
   32.7914  -14.1755  -35.3371 H   0  0  0  0  0  0  0  0  0  0  0  0
   31.8920  -12.6364  -35.2674 H   0  0  0  0  0  0  0  0  0  0  0  0
   37.1636  -13.4779  -34.9842 H   0  0  0  0  0  0  0  0  0  0  0  0
   29.6841   -3.4621  -35.7475 H   0  0  0  0  0  0  0  0  0  0  0  0
   31.0034   -2.6360  -36.6223 H   0  0  0  0  0  0  0  0  0  0  0  0
   31.5654   -5.0273  -37.5139 H   0  0  0  0  0  0  0  0  0  0  0  0
   30.2537   -2.9304  -38.7840 H   0  0  0  0  0  0  0  0  0  0  0  0
   31.4112   -5.2253  -39.5381 H   0  0  0  0  0  0  0  0  0  0  0  0
   27.9694   -3.9112  -38.0463 H   0  0  0  0  0  0  0  0  0  0  0  0
   27.0445   -4.4237  -39.9159 H   0  0  0  0  0  0  0  0  0  0  0  0
   28.9433   -6.4762  -39.0706 H   0  0  0  0  0  0  0  0  0  0  0  0
   27.7226   -8.1895  -38.8679 H   0  0  0  0  0  0  0  0  0  0  0  0
   24.1134  -11.1612  -37.7786 H   0  0  0  0  0  0  0  0  0  0  0  0
   23.7354   -9.5361  -37.1468 H   0  0  0  0  0  0  0  0  0  0  0  0
   24.3168   -7.3303  -36.9319 H   0  0  0  0  0  0  0  0  0  0  0  0
   24.9255   -8.3794  -35.5797 H   0  0  0  0  0  0  0  0  0  0  0  0
   25.5758   -6.1700  -34.7584 H   0  0  0  0  0  0  0  0  0  0  0  0
   27.2791   -4.8041  -36.1293 H   0  0  0  0  0  0  0  0  0  0  0  0
  1  2  2  0
  1  3  1  1
  1  4  1  0
  1 23  1  0
  4  5  1  0
  6  5  1  0
  6  7  1  0
  6  8  1  0
  7 12  1  0
  8  9  1  0
  8 10  1  0
 10 11  1  0
 10 12  1  0
 12 13  1  0
 13 14  1  0
 13 22  1  0
 14 15  2  0
 15 16  1  0
 16 17  2  0
 16 22  1  0
 17 18  1  0
 17 19  1  0
 19 20  2  0
 20 21  1  0
 21 22  2  0
 23 24  1  0
 24 25  1  6
 24 26  2  0
 24 27  1  0
 27 28  1  0
 29 28  1  0
 29 30  1  0
 29 31  1  0
 30 35  1  0
 31 32  1  0
 31 33  1  0
 33 34  1  0
 33 35  1  0
 35 36  1  0
 36 37  1  0
 36 44  1  0
 37 38  2  0
 38 39  1  0
 38 42  1  0
 39 40  2  0
 39 41  1  0
 42 43  1  0
 43 44  2  0
  5 45  1  0
  5 46  1  0
  6 47  1  1
  8 48  1  1
  9 49  1  0
 10 50  1  6
 11 51  1  0
 12 52  1  1
 14 53  1  0
 18 54  1  0
 18 55  1  0
 20 56  1  0
 28 57  1  0
 28 58  1  0
 29 59  1  6
 31 60  1  1
 32 61  1  0
 33 62  1  1
 34 63  1  0
 35 64  1  6
 37 65  1  0
 41 66  1  0
 41 67  1  0
 42 68  1  0
 42 69  1  0
 43 70  1  0
 44 71  1  0
M  CHG  2   3  -1  25  -1
M  END
>  <filename_input>  (21) 
7UTW_NAI_docked.sdf

>  <pdb_id>  (21) 
7UTW_NAI

>  <pose_rank>  (21) 
20

>  <num_atoms_heavy>  (21) 
44

>  <num_torsions>  (21) 
11

>  <pose>  (21) 
[34.99809970782737, -3.6312246580229828, -33.18382890359949, 1.959031490563282, 0.3557354804121636, -0.036733046833074816, -48.5045555082114, -86.51795332538235, -41.96281307435931, -6.457357727784858, -97.09168876714955, -88.67488212729295, -55.1880683402181, -89.72654317947449, 40.34662392233457, -31.714390561718602, -3.039084027261433]

>  <energy>  (21) 
-668.7921076154582

>  <inter_energy>  (21) 
-669.886251143521

>  <intra_energy>  (21) 
1.3160204110553066

>  <rmsd>  (21) 
6.65603

>  <sdf_rank>  (21) 
0

$$$$

     RDKit          3D

 71 75  0  0  0  0  0  0  0  0999 V2000
   33.3234   -7.7522  -36.2207 P   0  0  2  0  0  0  0  0  0  0  0  0
   32.9264   -8.3660  -34.8996 O   0  0  0  0  0  0  0  0  0  0  0  0
   34.2813   -6.5982  -36.2241 O   0  0  0  0  0  0  0  0  0  0  0  0
   32.0088   -7.2727  -37.0023 O   0  0  0  0  0  0  0  0  0  0  0  0
   31.2190   -6.2427  -36.4480 C   0  0  0  0  0  0  0  0  0  0  0  0
   30.1118   -5.8738  -37.4956 C   0  0  1  0  0  0  0  0  0  0  0  0
   29.1335   -6.8231  -37.4054 O   0  0  0  0  0  0  0  0  0  0  0  0
   29.4660   -4.4748  -37.2470 C   0  0  1  0  0  0  0  0  0  0  0  0
   29.6367   -3.6295  -38.3280 O   0  0  0  0  0  0  0  0  0  0  0  0
   27.9815   -4.8627  -36.9762 C   0  0  1  0  0  0  0  0  0  0  0  0
   27.0447   -3.8280  -37.4244 O   0  0  0  0  0  0  0  0  0  0  0  0
   27.8233   -6.0799  -37.6528 C   0  0  2  0  0  0  0  0  0  0  0  0
   26.7586   -6.9551  -37.1359 N   0  0  0  0  0  0  0  0  0  0  0  0
   26.6141   -7.3031  -35.8326 C   0  0  0  0  0  0  0  0  0  0  0  0
   25.4959   -8.0754  -35.7154 N   0  0  0  0  0  0  0  0  0  0  0  0
   25.0022   -8.2052  -36.9599 C   0  0  0  0  0  0  0  0  0  0  0  0
   23.9250   -8.8927  -37.4675 C   0  0  0  0  0  0  0  0  0  0  0  0
   22.9616   -9.6881  -36.7595 N   0  0  0  0  0  0  0  0  0  0  0  0
   23.6954   -8.8647  -38.7414 N   0  0  0  0  0  0  0  0  0  0  0  0
   24.4888   -8.1898  -39.6152 C   0  0  0  0  0  0  0  0  0  0  0  0
   25.5685   -7.4809  -39.1484 N   0  0  0  0  0  0  0  0  0  0  0  0
   25.7745   -7.5330  -37.8410 C   0  0  0  0  0  0  0  0  0  0  0  0
   33.8951   -8.9917  -37.0590 O   0  0  0  0  0  0  0  0  0  0  0  0
   35.3906   -9.6137  -37.1623 P   0  0  2  0  0  0  0  0  0  0  0  0
   35.5750  -10.7176  -36.1795 O   0  0  0  0  0  0  0  0  0  0  0  0
   36.4136   -8.5402  -37.2518 O   0  0  0  0  0  0  0  0  0  0  0  0
   35.2114  -10.3513  -38.5928 O   0  0  0  0  0  0  0  0  0  0  0  0
   36.3529  -11.0607  -39.1198 C   0  0  0  0  0  0  0  0  0  0  0  0
   35.8403  -12.0979  -40.1388 C   0  0  1  0  0  0  0  0  0  0  0  0
   35.0601  -11.5110  -41.1069 O   0  0  0  0  0  0  0  0  0  0  0  0
   36.9864  -12.9036  -40.8140 C   0  0  1  0  0  0  0  0  0  0  0  0
   36.6468  -14.2697  -41.0331 O   0  0  0  0  0  0  0  0  0  0  0  0
   36.9628  -12.1967  -42.1890 C   0  0  1  0  0  0  0  0  0  0  0  0
   37.6135  -12.9968  -43.1972 O   0  0  0  0  0  0  0  0  0  0  0  0
   35.6152  -12.0173  -42.4765 C   0  0  2  0  0  0  0  0  0  0  0  0
   35.2408  -10.9678  -43.3931 N   0  0  0  0  0  0  0  0  0  0  0  0
   36.2145   -9.9711  -43.6355 C   0  0  0  0  0  0  0  0  0  0  0  0
   35.9498   -8.9574  -44.6463 C   0  0  0  0  0  0  0  0  0  0  0  0
   36.9827   -7.9434  -44.9882 C   0  0  0  0  0  0  0  0  0  0  0  0
   38.0759   -8.3134  -45.3472 O   0  0  0  0  0  0  0  0  0  0  0  0
   36.6209   -6.5858  -44.8039 N   0  0  0  0  0  0  0  0  0  0  0  0
   34.5560   -8.7996  -45.2261 C   0  0  0  0  0  0  0  0  0  0  0  0
   33.7765  -10.0746  -45.1750 C   0  0  0  0  0  0  0  0  0  0  0  0
   34.0394  -11.0703  -44.1404 C   0  0  0  0  0  0  0  0  0  0  0  0
   30.7510   -6.5904  -35.5152 H   0  0  0  0  0  0  0  0  0  0  0  0
   31.8390   -5.3639  -36.2173 H   0  0  0  0  0  0  0  0  0  0  0  0
   30.5830   -5.8361  -38.4889 H   0  0  0  0  0  0  0  0  0  0  0  0
   29.9129   -3.9005  -36.4220 H   0  0  0  0  0  0  0  0  0  0  0  0
   29.8219   -2.7125  -38.0039 H   0  0  0  0  0  0  0  0  0  0  0  0
   27.7576   -4.9590  -35.9035 H   0  0  0  0  0  0  0  0  0  0  0  0
   26.6423   -3.3836  -36.6366 H   0  0  0  0  0  0  0  0  0  0  0  0
   27.5633   -5.8564  -38.6980 H   0  0  0  0  0  0  0  0  0  0  0  0
   27.2845   -7.0120  -35.0105 H   0  0  0  0  0  0  0  0  0  0  0  0
   22.1985  -10.1511  -37.2736 H   0  0  0  0  0  0  0  0  0  0  0  0
   23.0336   -9.7956  -35.7377 H   0  0  0  0  0  0  0  0  0  0  0  0
   24.2666   -8.2115  -40.6924 H   0  0  0  0  0  0  0  0  0  0  0  0
   37.0345  -10.3545  -39.6166 H   0  0  0  0  0  0  0  0  0  0  0  0
   36.9002  -11.5612  -38.3074 H   0  0  0  0  0  0  0  0  0  0  0  0
   35.2299  -12.8052  -39.5582 H   0  0  0  0  0  0  0  0  0  0  0  0
   37.9235  -12.9190  -40.2380 H   0  0  0  0  0  0  0  0  0  0  0  0
   36.5334  -14.7254  -40.1615 H   0  0  0  0  0  0  0  0  0  0  0  0
   37.5075  -11.2412  -42.1710 H   0  0  0  0  0  0  0  0  0  0  0  0
   38.1741  -13.6861  -42.7605 H   0  0  0  0  0  0  0  0  0  0  0  0
   35.2554  -12.9522  -42.9310 H   0  0  0  0  0  0  0  0  0  0  0  0
   37.1573   -9.9619  -43.0690 H   0  0  0  0  0  0  0  0  0  0  0  0
   37.2951   -5.8388  -45.0238 H   0  0  0  0  0  0  0  0  0  0  0  0
   35.6838   -6.3461  -44.4500 H   0  0  0  0  0  0  0  0  0  0  0  0
   34.0177   -8.0318  -44.6509 H   0  0  0  0  0  0  0  0  0  0  0  0
   34.6598   -8.5088  -46.2818 H   0  0  0  0  0  0  0  0  0  0  0  0
   32.9955  -10.2645  -45.9260 H   0  0  0  0  0  0  0  0  0  0  0  0
   33.3225  -11.8813  -43.9448 H   0  0  0  0  0  0  0  0  0  0  0  0
  1  2  2  0
  1  3  1  1
  1  4  1  0
  1 23  1  0
  4  5  1  0
  6  5  1  0
  6  7  1  0
  6  8  1  0
  7 12  1  0
  8  9  1  0
  8 10  1  0
 10 11  1  0
 10 12  1  0
 12 13  1  0
 13 14  1  0
 13 22  1  0
 14 15  2  0
 15 16  1  0
 16 17  2  0
 16 22  1  0
 17 18  1  0
 17 19  1  0
 19 20  2  0
 20 21  1  0
 21 22  2  0
 23 24  1  0
 24 25  1  1
 24 26  2  0
 24 27  1  0
 27 28  1  0
 29 28  1  0
 29 30  1  0
 29 31  1  0
 30 35  1  0
 31 32  1  0
 31 33  1  0
 33 34  1  0
 33 35  1  0
 35 36  1  0
 36 37  1  0
 36 44  1  0
 37 38  2  0
 38 39  1  0
 38 42  1  0
 39 40  2  0
 39 41  1  0
 42 43  1  0
 43 44  2  0
  5 45  1  0
  5 46  1  0
  6 47  1  6
  8 48  1  1
  9 49  1  0
 10 50  1  1
 11 51  1  0
 12 52  1  6
 14 53  1  0
 18 54  1  0
 18 55  1  0
 20 56  1  0
 28 57  1  0
 28 58  1  0
 29 59  1  1
 31 60  1  1
 32 61  1  0
 33 62  1  1
 34 63  1  0
 35 64  1  6
 37 65  1  0
 41 66  1  0
 41 67  1  0
 42 68  1  0
 42 69  1  0
 43 70  1  0
 44 71  1  0
M  CHG  2   3  -1  25  -1
M  END
>  <filename_input>  (22) 
7UTW_NAI_docked.sdf

>  <pdb_id>  (22) 
7UTW_NAI

>  <pose_rank>  (22) 
21

>  <num_atoms_heavy>  (22) 
44

>  <num_torsions>  (22) 
11

>  <pose>  (22) 
[33.32337363796203, -7.752197322665427, -36.22072097291764, 0.12696327079613517, 4.210219393263848, -0.6462786395358197, -17.1769789894127, -18.32010181337626, -7.986318906475645, -0.20964512818337755, -36.43372926748833, -37.67331365205437, 1.970093323329519, 30.86255613608939, -10.375466783565228, 3.383968842117085, -2.509149825038494]

>  <energy>  (22) 
-706.332007471854

>  <inter_energy>  (22) 
-703.8604961897875

>  <intra_energy>  (22) 
5.129259029658238

>  <rmsd>  (22) 
11.2993

>  <sdf_rank>  (22) 
0

$$$$

     RDKit          3D

 71 75  0  0  0  0  0  0  0  0999 V2000
   32.8715   -3.7176  -36.5227 P   0  0  2  0  0  0  0  0  0  0  0  0
   32.1696   -2.5938  -37.2468 O   0  0  0  0  0  0  0  0  0  0  0  0
   34.0724   -4.3509  -37.1600 O   0  0  0  0  0  0  0  0  0  0  0  0
   31.8251   -4.8938  -36.2220 O   0  0  0  0  0  0  0  0  0  0  0  0
   31.6147   -5.8906  -37.1989 C   0  0  0  0  0  0  0  0  0  0  0  0
   30.3010   -5.5285  -37.9751 C   0  0  1  0  0  0  0  0  0  0  0  0
   29.4980   -6.6337  -37.9537 O   0  0  0  0  0  0  0  0  0  0  0  0
   29.5168   -4.3366  -37.3424 C   0  0  1  0  0  0  0  0  0  0  0  0
   29.3750   -3.2851  -38.2293 O   0  0  0  0  0  0  0  0  0  0  0  0
   28.1724   -5.0217  -36.9542 C   0  0  1  0  0  0  0  0  0  0  0  0
   27.0348   -4.1004  -37.0320 O   0  0  0  0  0  0  0  0  0  0  0  0
   28.0728   -6.0971  -37.8475 C   0  0  2  0  0  0  0  0  0  0  0  0
   27.2494   -7.2265  -37.3856 N   0  0  0  0  0  0  0  0  0  0  0  0
   27.5611   -8.0266  -36.3353 C   0  0  0  0  0  0  0  0  0  0  0  0
   26.5503   -8.9266  -36.1658 N   0  0  0  0  0  0  0  0  0  0  0  0
   25.6589   -8.6716  -37.1403 C   0  0  0  0  0  0  0  0  0  0  0  0
   24.4719   -9.2677  -37.4961 C   0  0  0  0  0  0  0  0  0  0  0  0
   23.8094  -10.3775  -36.8703 N   0  0  0  0  0  0  0  0  0  0  0  0
   23.8186   -8.8223  -38.5212 N   0  0  0  0  0  0  0  0  0  0  0  0
   24.2642   -7.7876  -39.2823 C   0  0  0  0  0  0  0  0  0  0  0  0
   25.4396   -7.1570  -38.9548 N   0  0  0  0  0  0  0  0  0  0  0  0
   26.0821   -7.6395  -37.9020 C   0  0  0  0  0  0  0  0  0  0  0  0
   33.2300   -3.0846  -35.0955 O   0  0  0  0  0  0  0  0  0  0  0  0
   34.2699   -3.5626  -33.9447 P   0  0  2  0  0  0  0  0  0  0  0  0
   33.6273   -3.5274  -32.6014 O   0  0  0  0  0  0  0  0  0  0  0  0
   35.6028   -2.9339  -34.1308 O   0  0  0  0  0  0  0  0  0  0  0  0
   34.3181   -5.1309  -34.3456 O   0  0  0  0  0  0  0  0  0  0  0  0
   35.6098   -5.6958  -34.6560 C   0  0  0  0  0  0  0  0  0  0  0  0
   35.4305   -6.6775  -35.8311 C   0  0  1  0  0  0  0  0  0  0  0  0
   36.6173   -7.2857  -36.1658 O   0  0  0  0  0  0  0  0  0  0  0  0
   34.3507   -7.7625  -35.5567 C   0  0  1  0  0  0  0  0  0  0  0  0
   33.5853   -8.0854  -36.7141 O   0  0  0  0  0  0  0  0  0  0  0  0
   35.3044   -8.9498  -35.2890 C   0  0  1  0  0  0  0  0  0  0  0  0
   34.6180  -10.2107  -35.4275 O   0  0  0  0  0  0  0  0  0  0  0  0
   36.3155   -8.8170  -36.2329 C   0  0  2  0  0  0  0  0  0  0  0  0
   37.5975   -9.4190  -35.9574 N   0  0  0  0  0  0  0  0  0  0  0  0
   38.2802   -8.9431  -34.8138 C   0  0  0  0  0  0  0  0  0  0  0  0
   39.5155   -9.5968  -34.4067 C   0  0  0  0  0  0  0  0  0  0  0  0
   40.2172   -9.1795  -33.1636 C   0  0  0  0  0  0  0  0  0  0  0  0
   41.4219   -9.0810  -33.1715 O   0  0  0  0  0  0  0  0  0  0  0  0
   39.4085   -8.9837  -32.0167 N   0  0  0  0  0  0  0  0  0  0  0  0
   40.2065  -10.5762  -35.3379 C   0  0  0  0  0  0  0  0  0  0  0  0
   39.2468  -11.2342  -36.2771 C   0  0  0  0  0  0  0  0  0  0  0  0
   38.0236  -10.5546  -36.6930 C   0  0  0  0  0  0  0  0  0  0  0  0
   32.4658   -5.9180  -37.8953 H   0  0  0  0  0  0  0  0  0  0  0  0
   31.5225   -6.8796  -36.7262 H   0  0  0  0  0  0  0  0  0  0  0  0
   30.5818   -5.2217  -38.9934 H   0  0  0  0  0  0  0  0  0  0  0  0
   30.0146   -3.8602  -36.4849 H   0  0  0  0  0  0  0  0  0  0  0  0
   29.2611   -2.4409  -37.7248 H   0  0  0  0  0  0  0  0  0  0  0  0
   28.1548   -5.3572  -35.9067 H   0  0  0  0  0  0  0  0  0  0  0  0
   26.7402   -3.8618  -36.1175 H   0  0  0  0  0  0  0  0  0  0  0  0
   27.6056   -5.7284  -38.7725 H   0  0  0  0  0  0  0  0  0  0  0  0
   28.4736   -7.9608  -35.7245 H   0  0  0  0  0  0  0  0  0  0  0  0
   22.9155  -10.7231  -37.2478 H   0  0  0  0  0  0  0  0  0  0  0  0
   24.2280  -10.8279  -36.0440 H   0  0  0  0  0  0  0  0  0  0  0  0
   23.6854   -7.4566  -40.1572 H   0  0  0  0  0  0  0  0  0  0  0  0
   36.3084   -4.8954  -34.9414 H   0  0  0  0  0  0  0  0  0  0  0  0
   36.0184   -6.2196  -33.7793 H   0  0  0  0  0  0  0  0  0  0  0  0
   35.0838   -6.0654  -36.6767 H   0  0  0  0  0  0  0  0  0  0  0  0
   33.6187   -7.4817  -34.7851 H   0  0  0  0  0  0  0  0  0  0  0  0
   32.7094   -8.4550  -36.4379 H   0  0  0  0  0  0  0  0  0  0  0  0
   35.6995   -8.9381  -34.2625 H   0  0  0  0  0  0  0  0  0  0  0  0
   34.4181  -10.5779  -34.5302 H   0  0  0  0  0  0  0  0  0  0  0  0
   35.9566   -9.2909  -37.1585 H   0  0  0  0  0  0  0  0  0  0  0  0
   37.8837   -8.0919  -34.2407 H   0  0  0  0  0  0  0  0  0  0  0  0
   39.8385   -8.6943  -31.1266 H   0  0  0  0  0  0  0  0  0  0  0  0
   38.3906   -9.1308  -32.0731 H   0  0  0  0  0  0  0  0  0  0  0  0
   40.9619  -10.0339  -35.9255 H   0  0  0  0  0  0  0  0  0  0  0  0
   40.6678  -11.3614  -34.7210 H   0  0  0  0  0  0  0  0  0  0  0  0
   39.4651  -12.2423  -36.6591 H   0  0  0  0  0  0  0  0  0  0  0  0
   37.4457  -10.9148  -37.5569 H   0  0  0  0  0  0  0  0  0  0  0  0
  1  2  2  0
  1  3  1  6
  1  4  1  0
  1 23  1  0
  4  5  1  0
  6  5  1  0
  6  7  1  0
  6  8  1  0
  7 12  1  0
  8  9  1  0
  8 10  1  0
 10 11  1  0
 10 12  1  0
 12 13  1  0
 13 14  1  0
 13 22  1  0
 14 15  2  0
 15 16  1  0
 16 17  2  0
 16 22  1  0
 17 18  1  0
 17 19  1  0
 19 20  2  0
 20 21  1  0
 21 22  2  0
 23 24  1  0
 24 25  1  1
 24 26  2  0
 24 27  1  0
 27 28  1  0
 29 28  1  0
 29 30  1  0
 29 31  1  0
 30 35  1  0
 31 32  1  0
 31 33  1  0
 33 34  1  0
 33 35  1  0
 35 36  1  0
 36 37  1  0
 36 44  1  0
 37 38  2  0
 38 39  1  0
 38 42  1  0
 39 40  2  0
 39 41  1  0
 42 43  1  0
 43 44  2  0
  5 45  1  0
  5 46  1  0
  6 47  1  6
  8 48  1  1
  9 49  1  0
 10 50  1  1
 11 51  1  0
 12 52  1  6
 14 53  1  0
 18 54  1  0
 18 55  1  0
 20 56  1  0
 28 57  1  0
 28 58  1  0
 29 59  1  6
 31 60  1  1
 32 61  1  0
 33 62  1  1
 34 63  1  0
 35 64  1  6
 37 65  1  0
 41 66  1  0
 41 67  1  0
 42 68  1  0
 42 69  1  0
 43 70  1  0
 44 71  1  0
M  CHG  2   3  -1  25  -1
M  END
>  <filename_input>  (23) 
7UTW_NAI_docked.sdf

>  <pdb_id>  (23) 
7UTW_NAI

>  <pose_rank>  (23) 
22

>  <num_atoms_heavy>  (23) 
44

>  <num_torsions>  (23) 
11

>  <pose>  (23) 
[32.87149955124525, -3.7175834463955453, -36.52265974717668, 1.6091412165875427, 0.6695520934199883, -2.667499484707653, 8.35682372692937, 2.048180429582577, 7.251209702929852, 5.80188045387632, -0.03682263394046928, -3.9243516241468144, 0.9827424307211107, 19.348806002081968, 16.97596530389159, -3.669365783823398, 0.38454426937650243]

>  <energy>  (23) 
-679.3413387903134

>  <inter_energy>  (23) 
-733.0515332384205

>  <intra_energy>  (23) 
52.228113739156704

>  <rmsd>  (23) 
11.2615

>  <sdf_rank>  (23) 
0

$$$$

     RDKit          3D

 71 75  0  0  0  0  0  0  0  0999 V2000
   33.8077   -7.7139  -35.9477 P   0  0  2  0  0  0  0  0  0  0  0  0
   33.5494   -8.3418  -34.5991 O   0  0  0  0  0  0  0  0  0  0  0  0
   34.5894   -6.4356  -36.0134 O   0  0  0  0  0  0  0  0  0  0  0  0
   32.4115   -7.4484  -36.6885 O   0  0  0  0  0  0  0  0  0  0  0  0
   31.6412   -6.3254  -36.3175 C   0  0  0  0  0  0  0  0  0  0  0  0
   30.5900   -6.0713  -37.4532 C   0  0  1  0  0  0  0  0  0  0  0  0
   29.5580   -6.9444  -37.2554 O   0  0  0  0  0  0  0  0  0  0  0  0
   30.0155   -4.6200  -37.4514 C   0  0  1  0  0  0  0  0  0  0  0  0
   30.2671   -3.9653  -38.6431 O   0  0  0  0  0  0  0  0  0  0  0  0
   28.5039   -4.8858  -37.1831 C   0  0  1  0  0  0  0  0  0  0  0  0
   27.6408   -3.8891  -37.8239 O   0  0  0  0  0  0  0  0  0  0  0  0
   28.2997   -6.1849  -37.6677 C   0  0  2  0  0  0  0  0  0  0  0  0
   27.1721   -6.9133  -37.0639 N   0  0  0  0  0  0  0  0  0  0  0  0
   26.9271   -6.9836  -35.7313 C   0  0  0  0  0  0  0  0  0  0  0  0
   25.7770   -7.6922  -35.5426 N   0  0  0  0  0  0  0  0  0  0  0  0
   25.3648   -8.0642  -36.7677 C   0  0  0  0  0  0  0  0  0  0  0  0
   24.3010   -8.8189  -37.2032 C   0  0  0  0  0  0  0  0  0  0  0  0
   23.2642   -9.4322  -36.4215 N   0  0  0  0  0  0  0  0  0  0  0  0
   24.1597   -9.0479  -38.4696 N   0  0  0  0  0  0  0  0  0  0  0  0
   25.0339   -8.5831  -39.4014 C   0  0  0  0  0  0  0  0  0  0  0  0
   26.1038   -7.8159  -39.0098 N   0  0  0  0  0  0  0  0  0  0  0  0
   26.2184   -7.6031  -37.7076 C   0  0  0  0  0  0  0  0  0  0  0  0
   34.5218   -8.8815  -36.7800 O   0  0  0  0  0  0  0  0  0  0  0  0
   36.0285   -9.4803  -36.7049 P   0  0  2  0  0  0  0  0  0  0  0  0
   36.1683  -10.4227  -35.5600 O   0  0  0  0  0  0  0  0  0  0  0  0
   37.0415   -8.4105  -36.8952 O   0  0  0  0  0  0  0  0  0  0  0  0
   35.9432  -10.4249  -38.0176 O   0  0  0  0  0  0  0  0  0  0  0  0
   37.0866  -10.4391  -38.8987 C   0  0  0  0  0  0  0  0  0  0  0  0
   37.4124  -11.9086  -39.2325 C   0  0  1  0  0  0  0  0  0  0  0  0
   36.2942  -12.5909  -39.6502 O   0  0  0  0  0  0  0  0  0  0  0  0
   38.5370  -12.0545  -40.2967 C   0  0  1  0  0  0  0  0  0  0  0  0
   39.4028  -13.1560  -40.0382 O   0  0  0  0  0  0  0  0  0  0  0  0
   37.6445  -12.4422  -41.4985 C   0  0  1  0  0  0  0  0  0  0  0  0
   38.4184  -13.0707  -42.5407 O   0  0  0  0  0  0  0  0  0  0  0  0
   36.6975  -13.3140  -40.9750 C   0  0  2  0  0  0  0  0  0  0  0  0
   35.4402  -13.4608  -41.6673 N   0  0  0  0  0  0  0  0  0  0  0  0
   35.0564  -12.3868  -42.5036 C   0  0  0  0  0  0  0  0  0  0  0  0
   33.8655  -12.5261  -43.3291 C   0  0  0  0  0  0  0  0  0  0  0  0
   33.4769  -11.4527  -44.2823 C   0  0  0  0  0  0  0  0  0  0  0  0
   34.2915  -11.0478  -45.0782 O   0  0  0  0  0  0  0  0  0  0  0  0
   32.1683  -10.9272  -44.1431 N   0  0  0  0  0  0  0  0  0  0  0  0
   32.9006  -13.6739  -43.0937 C   0  0  0  0  0  0  0  0  0  0  0  0
   33.5758  -14.8631  -42.4888 C   0  0  0  0  0  0  0  0  0  0  0  0
   34.7558  -14.7032  -41.6445 C   0  0  0  0  0  0  0  0  0  0  0  0
   31.1248   -6.5231  -35.3666 H   0  0  0  0  0  0  0  0  0  0  0  0
   32.2852   -5.4437  -36.1846 H   0  0  0  0  0  0  0  0  0  0  0  0
   31.0937   -6.2142  -38.4206 H   0  0  0  0  0  0  0  0  0  0  0  0
   30.4673   -3.9461  -36.7086 H   0  0  0  0  0  0  0  0  0  0  0  0
   30.6157   -3.0581  -38.4541 H   0  0  0  0  0  0  0  0  0  0  0  0
   28.2411   -4.8005  -36.1183 H   0  0  0  0  0  0  0  0  0  0  0  0
   27.1794   -3.3563  -37.1287 H   0  0  0  0  0  0  0  0  0  0  0  0
   28.0856   -6.1162  -38.7445 H   0  0  0  0  0  0  0  0  0  0  0  0
   27.5499   -6.5440  -34.9383 H   0  0  0  0  0  0  0  0  0  0  0  0
   22.5220   -9.9749  -36.8857 H   0  0  0  0  0  0  0  0  0  0  0  0
   23.2628   -9.3293  -35.3967 H   0  0  0  0  0  0  0  0  0  0  0  0
   24.8849   -8.8205  -40.4650 H   0  0  0  0  0  0  0  0  0  0  0  0
   36.8530   -9.8894  -39.8224 H   0  0  0  0  0  0  0  0  0  0  0  0
   37.9485   -9.9571  -38.4141 H   0  0  0  0  0  0  0  0  0  0  0  0
   37.7792  -12.3501  -38.2941 H   0  0  0  0  0  0  0  0  0  0  0  0
   39.1921  -11.1749  -40.3805 H   0  0  0  0  0  0  0  0  0  0  0  0
   39.4986  -13.2780  -39.0604 H   0  0  0  0  0  0  0  0  0  0  0  0
   37.1767  -11.5629  -41.9653 H   0  0  0  0  0  0  0  0  0  0  0  0
   39.1191  -13.6397  -42.1339 H   0  0  0  0  0  0  0  0  0  0  0  0
   37.1517  -14.3158  -40.9662 H   0  0  0  0  0  0  0  0  0  0  0  0
   35.6488  -11.4602  -42.5299 H   0  0  0  0  0  0  0  0  0  0  0  0
   31.8428  -10.1817  -44.7750 H   0  0  0  0  0  0  0  0  0  0  0  0
   31.5427  -11.2907  -43.4101 H   0  0  0  0  0  0  0  0  0  0  0  0
   32.1049  -13.3344  -42.4143 H   0  0  0  0  0  0  0  0  0  0  0  0
   32.4914  -13.9770  -44.0688 H   0  0  0  0  0  0  0  0  0  0  0  0
   33.1785  -15.8704  -42.6824 H   0  0  0  0  0  0  0  0  0  0  0  0
   35.1063  -15.5270  -41.0054 H   0  0  0  0  0  0  0  0  0  0  0  0
  1  2  2  0
  1  3  1  1
  1  4  1  0
  1 23  1  0
  4  5  1  0
  6  5  1  0
  6  7  1  0
  6  8  1  0
  7 12  1  0
  8  9  1  0
  8 10  1  0
 10 11  1  0
 10 12  1  0
 12 13  1  0
 13 14  1  0
 13 22  1  0
 14 15  2  0
 15 16  1  0
 16 17  2  0
 16 22  1  0
 17 18  1  0
 17 19  1  0
 19 20  2  0
 20 21  1  0
 21 22  2  0
 23 24  1  0
 24 25  1  1
 24 26  2  0
 24 27  1  0
 27 28  1  0
 29 28  1  0
 29 30  1  0
 29 31  1  0
 30 35  1  0
 31 32  1  0
 31 33  1  0
 33 34  1  0
 33 35  1  0
 35 36  1  0
 36 37  1  0
 36 44  1  0
 37 38  2  0
 38 39  1  0
 38 42  1  0
 39 40  2  0
 39 41  1  0
 42 43  1  0
 43 44  2  0
  5 45  1  0
  5 46  1  0
  6 47  1  6
  8 48  1  1
  9 49  1  0
 10 50  1  1
 11 51  1  0
 12 52  1  6
 14 53  1  0
 18 54  1  0
 18 55  1  0
 20 56  1  0
 28 57  1  0
 28 58  1  0
 29 59  1  1
 31 60  1  6
 32 61  1  0
 33 62  1  6
 34 63  1  0
 35 64  1  1
 37 65  1  0
 41 66  1  0
 41 67  1  0
 42 68  1  0
 42 69  1  0
 43 70  1  0
 44 71  1  0
M  CHG  2   3  -1  25  -1
M  END
>  <filename_input>  (24) 
7UTW_NAI_docked.sdf

>  <pdb_id>  (24) 
7UTW_NAI

>  <pose_rank>  (24) 
23

>  <num_atoms_heavy>  (24) 
44

>  <num_torsions>  (24) 
11

>  <pose>  (24) 
[33.80773523281865, -7.713917604079282, -35.94772558728096, -0.15534904206871197, 4.173965043784402, -0.8955395885417815, -16.924741845643315, -18.498075865601322, -7.961466419111833, -0.14479270201244812, -36.1869793148091, -37.91436195321498, 1.2430187082400284, 30.424192545895473, -10.450388269780193, 3.2846012075909927, -2.5724936817225075]

>  <energy>  (24) 
-674.0486371529553

>  <inter_energy>  (24) 
-670.6301827030153

>  <intra_energy>  (24) 
1.3651309725785559

>  <rmsd>  (24) 
10.8713

>  <sdf_rank>  (24) 
0

$$$$

     RDKit          3D

 71 75  0  0  0  0  0  0  0  0999 V2000
   26.7533   -6.6138  -37.3113 P   0  0  2  0  0  0  0  0  0  0  0  0
   26.2343   -7.3421  -38.5279 O   0  0  0  0  0  0  0  0  0  0  0  0
   25.7782   -6.1744  -36.2598 O   0  0  0  0  0  0  0  0  0  0  0  0
   27.5620   -5.3101  -37.7751 O   0  0  0  0  0  0  0  0  0  0  0  0
   27.9036   -4.3365  -36.8120 C   0  0  0  0  0  0  0  0  0  0  0  0
   28.9670   -3.3805  -37.4559 C   0  0  1  0  0  0  0  0  0  0  0  0
   29.9105   -3.1204  -36.5026 O   0  0  0  0  0  0  0  0  0  0  0  0
   29.6799   -3.9964  -38.7003 C   0  0  1  0  0  0  0  0  0  0  0  0
   29.4854   -3.2316  -39.8359 O   0  0  0  0  0  0  0  0  0  0  0  0
   31.1603   -4.0447  -38.2167 C   0  0  1  0  0  0  0  0  0  0  0  0
   32.1120   -3.8697  -39.3179 O   0  0  0  0  0  0  0  0  0  0  0  0
   31.2340   -3.0256  -37.2573 C   0  0  2  0  0  0  0  0  0  0  0  0
   32.2893   -3.1884  -36.2442 N   0  0  0  0  0  0  0  0  0  0  0  0
   32.0791   -3.6304  -34.9789 C   0  0  0  0  0  0  0  0  0  0  0  0
   33.2841   -3.7050  -34.3439 N   0  0  0  0  0  0  0  0  0  0  0  0
   34.1987   -3.2751  -35.2315 C   0  0  0  0  0  0  0  0  0  0  0  0
   35.5594   -3.0934  -35.1528 C   0  0  0  0  0  0  0  0  0  0  0  0
   36.4300   -3.3520  -34.0405 N   0  0  0  0  0  0  0  0  0  0  0  0
   36.1993   -2.6276  -36.1773 N   0  0  0  0  0  0  0  0  0  0  0  0
   35.5786   -2.2910  -37.3392 C   0  0  0  0  0  0  0  0  0  0  0  0
   34.2222   -2.4675  -37.4636 N   0  0  0  0  0  0  0  0  0  0  0  0
   33.5997   -2.9440  -36.3960 C   0  0  0  0  0  0  0  0  0  0  0  0
   27.8529   -7.6121  -36.7112 O   0  0  0  0  0  0  0  0  0  0  0  0
   28.1524   -9.1786  -37.0123 P   0  0  2  0  0  0  0  0  0  0  0  0
   28.4087   -9.4004  -38.4627 O   0  0  0  0  0  0  0  0  0  0  0  0
   27.1878  -10.0561  -36.3009 O   0  0  0  0  0  0  0  0  0  0  0  0
   29.6114   -9.2501  -36.3130 O   0  0  0  0  0  0  0  0  0  0  0  0
   30.7151   -8.6455  -37.0202 C   0  0  0  0  0  0  0  0  0  0  0  0
   31.8569   -8.4120  -36.0109 C   0  0  1  0  0  0  0  0  0  0  0  0
   32.5386   -9.5755  -35.7425 O   0  0  0  0  0  0  0  0  0  0  0  0
   32.8606   -7.3172  -36.4720 C   0  0  1  0  0  0  0  0  0  0  0  0
   33.3336   -6.5127  -35.3956 O   0  0  0  0  0  0  0  0  0  0  0  0
   34.0184   -8.2522  -36.8918 C   0  0  1  0  0  0  0  0  0  0  0  0
   35.2678   -7.5352  -36.9615 O   0  0  0  0  0  0  0  0  0  0  0  0
   34.0545   -9.2389  -35.9140 C   0  0  2  0  0  0  0  0  0  0  0  0
   34.6409  -10.5149  -36.2453 N   0  0  0  0  0  0  0  0  0  0  0  0
   34.4434  -10.9701  -37.5698 C   0  0  0  0  0  0  0  0  0  0  0  0
   35.1163  -12.1851  -38.0058 C   0  0  0  0  0  0  0  0  0  0  0  0
   35.0002  -12.6495  -39.4139 C   0  0  0  0  0  0  0  0  0  0  0  0
   35.5708  -13.6606  -39.7501 O   0  0  0  0  0  0  0  0  0  0  0  0
   34.2628  -11.8195  -40.2943 N   0  0  0  0  0  0  0  0  0  0  0  0
   35.7843  -13.0965  -36.9923 C   0  0  0  0  0  0  0  0  0  0  0  0
   36.2244  -12.3546  -35.7710 C   0  0  0  0  0  0  0  0  0  0  0  0
   35.5237  -11.1506  -35.3349 C   0  0  0  0  0  0  0  0  0  0  0  0
   27.0095   -3.7633  -36.5255 H   0  0  0  0  0  0  0  0  0  0  0  0
   28.3119   -4.8145  -35.9094 H   0  0  0  0  0  0  0  0  0  0  0  0
   28.4455   -2.4759  -37.8017 H   0  0  0  0  0  0  0  0  0  0  0  0
   29.3007   -4.9820  -39.0083 H   0  0  0  0  0  0  0  0  0  0  0  0
   29.2501   -2.3063  -39.5743 H   0  0  0  0  0  0  0  0  0  0  0  0
   31.4370   -5.0228  -37.7964 H   0  0  0  0  0  0  0  0  0  0  0  0
   33.0158   -3.7036  -38.9496 H   0  0  0  0  0  0  0  0  0  0  0  0
   31.4467   -2.0815  -37.7801 H   0  0  0  0  0  0  0  0  0  0  0  0
   31.1033   -3.8853  -34.5398 H   0  0  0  0  0  0  0  0  0  0  0  0
   37.4399   -3.1673  -34.1231 H   0  0  0  0  0  0  0  0  0  0  0  0
   36.0446   -3.7222  -33.1600 H   0  0  0  0  0  0  0  0  0  0  0  0
   36.1607   -1.8790  -38.1767 H   0  0  0  0  0  0  0  0  0  0  0  0
   31.0570   -9.3164  -37.8221 H   0  0  0  0  0  0  0  0  0  0  0  0
   30.4033   -7.6921  -37.4718 H   0  0  0  0  0  0  0  0  0  0  0  0
   31.3698   -8.0548  -35.0916 H   0  0  0  0  0  0  0  0  0  0  0  0
   32.4487   -6.6134  -37.2104 H   0  0  0  0  0  0  0  0  0  0  0  0
   33.0857   -6.9342  -34.5349 H   0  0  0  0  0  0  0  0  0  0  0  0
   33.8631   -8.6763  -37.8948 H   0  0  0  0  0  0  0  0  0  0  0  0
   35.5928   -7.3486  -36.0452 H   0  0  0  0  0  0  0  0  0  0  0  0
   34.6523   -8.8439  -35.0795 H   0  0  0  0  0  0  0  0  0  0  0  0
   33.7913  -10.4145  -38.2598 H   0  0  0  0  0  0  0  0  0  0  0  0
   34.1483  -12.0894  -41.2817 H   0  0  0  0  0  0  0  0  0  0  0  0
   33.8413  -10.9462  -39.9469 H   0  0  0  0  0  0  0  0  0  0  0  0
   35.0703  -13.8783  -36.6941 H   0  0  0  0  0  0  0  0  0  0  0  0
   36.6779  -13.5302  -37.4649 H   0  0  0  0  0  0  0  0  0  0  0  0
   37.0866  -12.7206  -35.1942 H   0  0  0  0  0  0  0  0  0  0  0  0
   35.6767  -10.7455  -34.3237 H   0  0  0  0  0  0  0  0  0  0  0  0
  1  2  2  0
  1  3  1  1
  1  4  1  0
  1 23  1  0
  4  5  1  0
  6  5  1  0
  6  7  1  0
  6  8  1  0
  7 12  1  0
  8  9  1  0
  8 10  1  0
 10 11  1  0
 10 12  1  0
 12 13  1  0
 13 14  1  0
 13 22  1  0
 14 15  2  0
 15 16  1  0
 16 17  2  0
 16 22  1  0
 17 18  1  0
 17 19  1  0
 19 20  2  0
 20 21  1  0
 21 22  2  0
 23 24  1  0
 24 25  1  6
 24 26  2  0
 24 27  1  0
 27 28  1  0
 29 28  1  0
 29 30  1  0
 29 31  1  0
 30 35  1  0
 31 32  1  0
 31 33  1  0
 33 34  1  0
 33 35  1  0
 35 36  1  0
 36 37  1  0
 36 44  1  0
 37 38  2  0
 38 39  1  0
 38 42  1  0
 39 40  2  0
 39 41  1  0
 42 43  1  0
 43 44  2  0
  5 45  1  0
  5 46  1  0
  6 47  1  6
  8 48  1  6
  9 49  1  0
 10 50  1  1
 11 51  1  0
 12 52  1  6
 14 53  1  0
 18 54  1  0
 18 55  1  0
 20 56  1  0
 28 57  1  0
 28 58  1  0
 29 59  1  1
 31 60  1  6
 32 61  1  0
 33 62  1  6
 34 63  1  0
 35 64  1  1
 37 65  1  0
 41 66  1  0
 41 67  1  0
 42 68  1  0
 42 69  1  0
 43 70  1  0
 44 71  1  0
M  CHG  2   3  -1  25  -1
M  END
>  <filename_input>  (25) 
7UTW_NAI_docked.sdf

>  <pdb_id>  (25) 
7UTW_NAI

>  <pose_rank>  (25) 
24

>  <num_atoms_heavy>  (25) 
44

>  <num_torsions>  (25) 
11

>  <pose>  (25) 
[26.75328367249771, -6.613785997015571, -37.311326021245904, 0.3111857544734559, -3.9199515338503765, -0.9683745243855749, 3.4676966143711123, 6.6865735799904815, 7.059679844687932, 5.183365605383108, -3.7183777215142957, -6.896638374111975, -2.465309411440093, -0.4977327933583335, -3.6811379791442205, -3.209059141178678, -0.34901935044804683]

>  <energy>  (25) 
-601.9283402805038

>  <inter_energy>  (25) 
-623.8363425416502

>  <intra_energy>  (25) 
25.720797516271492

>  <rmsd>  (25) 
7.75103

>  <sdf_rank>  (25) 
0

$$$$

     RDKit          3D

 71 75  0  0  0  0  0  0  0  0999 V2000
   30.8980   -4.0790  -38.7770 P   0  0  2  0  0  0  0  0  0  0  0  0
   32.1270   -4.9540  -38.8380 O   0  0  0  0  0  0  0  0  0  0  0  0
   30.6850   -3.0540  -39.8510 O   0  0  0  0  0  0  0  0  0  0  0  0
   30.8650   -3.3030  -37.3750 O   0  0  0  0  0  0  0  0  0  0  0  0
   31.4200   -3.9230  -36.2350 C   0  0  0  0  0  0  0  0  0  0  0  0
   32.1120   -2.8090  -35.3750 C   0  0  1  0  0  0  0  0  0  0  0  0
   32.5820   -3.4050  -34.2390 O   0  0  0  0  0  0  0  0  0  0  0  0
   33.3090   -2.1200  -36.1020 C   0  0  1  0  0  0  0  0  0  0  0  0
   33.1100   -0.7590  -36.2450 O   0  0  0  0  0  0  0  0  0  0  0  0
   34.4960   -2.4900  -35.1630 C   0  0  1  0  0  0  0  0  0  0  0  0
   35.5340   -1.4550  -35.1430 O   0  0  0  0  0  0  0  0  0  0  0  0
   33.8890   -2.6860  -33.9150 C   0  0  2  0  0  0  0  0  0  0  0  0
   34.6180   -3.5700  -32.9910 N   0  0  0  0  0  0  0  0  0  0  0  0
   35.2770   -4.6960  -33.3630 C   0  0  0  0  0  0  0  0  0  0  0  0
   35.8760   -5.2280  -32.2590 N   0  0  0  0  0  0  0  0  0  0  0  0
   35.5400   -4.4270  -31.2320 C   0  0  0  0  0  0  0  0  0  0  0  0
   35.8120   -4.4760  -29.8850 C   0  0  0  0  0  0  0  0  0  0  0  0
   36.5970   -5.4420  -29.1690 N   0  0  0  0  0  0  0  0  0  0  0  0
   35.3240   -3.5660  -29.1040 N   0  0  0  0  0  0  0  0  0  0  0  0
   34.5320   -2.5580  -29.5570 C   0  0  0  0  0  0  0  0  0  0  0  0
   34.2450   -2.4660  -30.8970 N   0  0  0  0  0  0  0  0  0  0  0  0
   34.7590   -3.4140  -31.6660 C   0  0  0  0  0  0  0  0  0  0  0  0
   29.6880   -5.1270  -38.7180 O   0  0  0  0  0  0  0  0  0  0  0  0
   28.1050   -4.9510  -39.0300 P   0  0  2  0  0  0  0  0  0  0  0  0
   27.8070   -5.2660  -40.4550 O   0  0  0  0  0  0  0  0  0  0  0  0
   27.5770   -3.6960  -38.4360 O   0  0  0  0  0  0  0  0  0  0  0  0
   27.5840   -6.2390  -38.1980 O   0  0  0  0  0  0  0  0  0  0  0  0
   27.7380   -6.2070  -36.7630 C   0  0  0  0  0  0  0  0  0  0  0  0
   27.4170   -7.6130  -36.2180 C   0  0  1  0  0  0  0  0  0  0  0  0
   26.0740   -7.8940  -36.3070 O   0  0  0  0  0  0  0  0  0  0  0  0
   28.2300   -8.7370  -36.9210 C   0  0  1  0  0  0  0  0  0  0  0  0
   28.6290   -9.7720  -36.0270 O   0  0  0  0  0  0  0  0  0  0  0  0
   27.0930   -9.3030  -37.8030 C   0  0  1  0  0  0  0  0  0  0  0  0
   27.4030  -10.6350  -38.2610 O   0  0  0  0  0  0  0  0  0  0  0  0
   25.9690   -9.2970  -36.9860 C   0  0  2  0  0  0  0  0  0  0  0  0
   24.6670   -9.2670  -37.6070 N   0  0  0  0  0  0  0  0  0  0  0  0
   23.6240   -9.9170  -36.9070 C   0  0  0  0  0  0  0  0  0  0  0  0
   22.2630   -9.8130  -37.4130 C   0  0  0  0  0  0  0  0  0  0  0  0
   21.1290  -10.4120  -36.6600 C   0  0  0  0  0  0  0  0  0  0  0  0
   20.0920  -10.6390  -37.2380 O   0  0  0  0  0  0  0  0  0  0  0  0
   21.3310  -10.6200  -35.2730 N   0  0  0  0  0  0  0  0  0  0  0  0
   22.0030   -9.2640  -38.8040 C   0  0  0  0  0  0  0  0  0  0  0  0
   23.0760   -8.3220  -39.2480 C   0  0  0  0  0  0  0  0  0  0  0  0
   24.4410   -8.4550  -38.7480 C   0  0  0  0  0  0  0  0  0  0  0  0
   30.6260   -4.4093  -35.6492 H   0  0  0  0  0  0  0  0  0  0  0  0
   32.1506   -4.6902  -36.5312 H   0  0  0  0  0  0  0  0  0  0  0  0
   31.3675   -2.0251  -35.1719 H   0  0  0  0  0  0  0  0  0  0  0  0
   33.4692   -2.4482  -37.1396 H   0  0  0  0  0  0  0  0  0  0  0  0
   33.0485   -0.3387  -35.3507 H   0  0  0  0  0  0  0  0  0  0  0  0
   35.0387   -3.3859  -35.4990 H   0  0  0  0  0  0  0  0  0  0  0  0
   35.7586   -1.2310  -34.2052 H   0  0  0  0  0  0  0  0  0  0  0  0
   33.8133   -1.7083  -33.4166 H   0  0  0  0  0  0  0  0  0  0  0  0
   35.3208   -5.1095  -34.3814 H   0  0  0  0  0  0  0  0  0  0  0  0
   36.7177   -5.3541  -28.1499 H   0  0  0  0  0  0  0  0  0  0  0  0
   37.0394   -6.2228  -29.6746 H   0  0  0  0  0  0  0  0  0  0  0  0
   34.1225   -1.8188  -28.8528 H   0  0  0  0  0  0  0  0  0  0  0  0
   28.7716   -5.9334  -36.5045 H   0  0  0  0  0  0  0  0  0  0  0  0
   27.0591   -5.4621  -36.3223 H   0  0  0  0  0  0  0  0  0  0  0  0
   27.7159   -7.5946  -35.1596 H   0  0  0  0  0  0  0  0  0  0  0  0
   29.1551   -8.3873  -37.4026 H   0  0  0  0  0  0  0  0  0  0  0  0
   28.5107   -9.4652  -35.0932 H   0  0  0  0  0  0  0  0  0  0  0  0
   26.9400   -8.7043  -38.7130 H   0  0  0  0  0  0  0  0  0  0  0  0
   27.5411  -11.2285  -37.4807 H   0  0  0  0  0  0  0  0  0  0  0  0
   25.9957  -10.2240  -36.3944 H   0  0  0  0  0  0  0  0  0  0  0  0
   23.8380  -10.4923  -35.9942 H   0  0  0  0  0  0  0  0  0  0  0  0
   20.5811  -11.0318  -34.6994 H   0  0  0  0  0  0  0  0  0  0  0  0
   22.2277  -10.3594  -34.8384 H   0  0  0  0  0  0  0  0  0  0  0  0
   21.9530  -10.1037  -39.5128 H   0  0  0  0  0  0  0  0  0  0  0  0
   21.0547   -8.7073  -38.7760 H   0  0  0  0  0  0  0  0  0  0  0  0
   22.8339   -7.5192  -39.9599 H   0  0  0  0  0  0  0  0  0  0  0  0
   25.2751   -7.9375  -39.2445 H   0  0  0  0  0  0  0  0  0  0  0  0
  1  2  2  0
  1  3  1  6
  1  4  1  0
  1 23  1  0
  4  5  1  0
  6  5  1  0
  6  7  1  0
  6  8  1  0
  7 12  1  0
  8  9  1  0
  8 10  1  0
 10 11  1  0
 10 12  1  0
 12 13  1  0
 13 14  1  0
 13 22  1  0
 14 15  2  0
 15 16  1  0
 16 17  2  0
 16 22  1  0
 17 18  1  0
 17 19  1  0
 19 20  2  0
 20 21  1  0
 21 22  2  0
 23 24  1  0
 24 25  1  6
 24 26  2  0
 24 27  1  0
 27 28  1  0
 29 28  1  0
 29 30  1  0
 29 31  1  0
 30 35  1  0
 31 32  1  0
 31 33  1  0
 33 34  1  0
 33 35  1  0
 35 36  1  0
 36 37  1  0
 36 44  1  0
 37 38  2  0
 38 39  1  0
 38 42  1  0
 39 40  2  0
 39 41  1  0
 42 43  1  0
 43 44  2  0
  5 45  1  0
  5 46  1  0
  6 47  1  1
  8 48  1  6
  9 49  1  0
 10 50  1  6
 11 51  1  0
 12 52  1  1
 14 53  1  0
 18 54  1  0
 18 55  1  0
 20 56  1  0
 28 57  1  0
 28 58  1  0
 29 59  1  1
 31 60  1  6
 32 61  1  0
 33 62  1  6
 34 63  1  0
 35 64  1  1
 37 65  1  0
 41 66  1  0
 41 67  1  0
 42 68  1  0
 42 69  1  0
 43 70  1  0
 44 71  1  0
M  CHG  2   3  -1  25  -1
M  END
>  <filename_input>  (26) 
7UTW_NAI_docked.sdf

>  <pdb_id>  (26) 
7UTW_NAI

>  <pose_rank>  (26) 
25

>  <num_atoms_heavy>  (26) 
44

>  <num_torsions>  (26) 
11

>  <pose>  (26) 
[30.898, -4.079, -38.777, 1e-06, 1e-06, 1e-06, 0.0, 0.0, 0.0, 0.0, 0.0, 0.0, 0.0, 0.0, 0.0, 0.0, 0.0]

>  <energy>  (26) 
-1239.9060368707746

>  <inter_energy>  (26) 
-1254.4504227933328

>  <intra_energy>  (26) 
6.679817661081237

>  <rmsd>  (26) 
0.0

>  <sdf_rank>  (26) 
0

$$$$
