
     RDKit          3D

 54 58  0  0  0  0  0  0  0  0999 V2000
  -14.4532   27.0605  -18.5657 N   0  0  0  0  0  0  0  0  0  0  0  0
  -13.4435   27.2357  -17.7039 C   0  0  0  0  0  0  0  0  0  0  0  0
  -14.3561   29.8645  -13.5714 O   0  0  0  0  0  0  0  0  0  0  0  0
  -15.5166   27.8881  -18.4982 C   0  0  0  0  0  0  0  0  0  0  0  0
  -15.4849   28.9135  -17.5328 C   0  0  0  0  0  0  0  0  0  0  0  0
  -14.3638   28.9763  -16.7302 C   0  0  0  0  0  0  0  0  0  0  0  0
  -11.6751   34.8469  -12.1608 C   0  0  0  0  0  0  0  0  0  0  0  0
  -10.8804   33.9374  -11.2554 C   0  0  2  0  0  0  0  0  0  0  0  0
   -9.6108   33.4411  -11.9546 C   0  0  2  0  0  0  0  0  0  0  0  0
   -9.6497   31.9274  -11.7428 C   0  0  2  0  0  0  0  0  0  0  0  0
  -11.1489   31.6678  -11.6412 C   0  0  1  0  0  0  0  0  0  0  0  0
  -15.8079   30.5321  -16.2031 C   0  0  0  0  0  0  0  0  0  0  0  0
  -13.7534   30.3920  -14.7356 C   0  0  2  0  0  0  0  0  0  0  0  0
  -13.6291   31.8929  -14.4538 C   0  0  1  0  0  0  0  0  0  0  0  0
  -13.1249   31.8310  -13.0093 C   0  0  1  0  0  0  0  0  0  0  0  0
  -13.8708   30.6240  -12.4374 C   0  0  1  0  0  0  0  0  0  0  0  0
  -15.0391   30.9633  -11.5461 C   0  0  0  0  0  0  0  0  0  0  0  0
  -13.3050   28.1641  -16.7577 N   0  0  0  0  0  0  0  0  0  0  0  0
  -14.5825   30.0238  -15.8596 N   0  0  0  0  0  0  0  0  0  0  0  0
  -16.3958   29.9007  -17.1928 N   0  0  0  0  0  0  0  0  0  0  0  0
  -16.5571   27.6767  -19.3286 N   0  0  0  0  0  0  0  0  0  0  0  0
  -15.8191   32.0260  -12.1611 O   0  0  0  0  0  0  0  0  0  0  0  0
   -8.9914   31.4742  -10.5633 O   0  0  0  0  0  0  0  0  0  0  0  0
   -8.4368   34.0298  -11.4066 O   0  0  0  0  0  0  0  0  0  0  0  0
  -12.7336   32.5124  -15.3546 O   0  0  0  0  0  0  0  0  0  0  0  0
  -15.4700   33.6040  -10.1668 O   0  0  0  0  0  0  0  0  0  0  0  0
  -17.3572   33.9750  -11.8615 O   0  0  0  0  0  0  0  0  0  0  0  0
  -14.9639   34.3434  -12.5098 O   0  0  0  0  0  0  0  0  0  0  0  0
  -14.9766   36.6415  -11.4588 O   0  0  0  0  0  0  0  0  0  0  0  0
  -13.7995   36.1350  -13.6819 O   0  0  0  0  0  0  0  0  0  0  0  0
  -12.8878   35.3055  -11.5313 O   0  0  0  0  0  0  0  0  0  0  0  0
  -11.6433   32.7687  -10.8987 O   0  0  0  0  0  0  0  0  0  0  0  0
  -11.7019   31.6251  -12.9489 O   0  0  0  0  0  0  0  0  0  0  0  0
  -15.9340   33.5146  -11.5590 P   0  0  2  0  0  0  0  0  0  0  0  0
  -14.1869   35.7212  -12.3167 P   0  0  2  0  0  0  0  0  0  0  0  0
  -12.6161   26.5157  -17.7882 H   0  0  0  0  0  0  0  0  0  0  0  0
  -11.0571   35.7192  -12.4200 H   0  0  0  0  0  0  0  0  0  0  0  0
  -11.9520   34.2762  -13.0595 H   0  0  0  0  0  0  0  0  0  0  0  0
  -10.6290   34.5265  -10.3611 H   0  0  0  0  0  0  0  0  0  0  0  0
   -9.5790   33.7153  -13.0194 H   0  0  0  0  0  0  0  0  0  0  0  0
   -9.1223   31.3935  -12.5471 H   0  0  0  0  0  0  0  0  0  0  0  0
  -11.4041   30.7126  -11.1589 H   0  0  0  0  0  0  0  0  0  0  0  0
  -16.2604   31.3953  -15.6931 H   0  0  0  0  0  0  0  0  0  0  0  0
  -12.7527   30.0096  -14.9854 H   0  0  0  0  0  0  0  0  0  0  0  0
  -14.5413   32.4945  -14.5802 H   0  0  0  0  0  0  0  0  0  0  0  0
  -13.3050   32.7649  -12.4568 H   0  0  0  0  0  0  0  0  0  0  0  0
  -13.1676   30.0704  -11.7978 H   0  0  0  0  0  0  0  0  0  0  0  0
  -15.6712   30.0728  -11.4137 H   0  0  0  0  0  0  0  0  0  0  0  0
  -14.6700   31.2970  -10.5651 H   0  0  0  0  0  0  0  0  0  0  0  0
  -17.3786   28.2971  -19.2932 H   0  0  0  0  0  0  0  0  0  0  0  0
  -16.5307   26.8949  -19.9986 H   0  0  0  0  0  0  0  0  0  0  0  0
   -9.4754   31.8074   -9.7665 H   0  0  0  0  0  0  0  0  0  0  0  0
   -8.4858   34.0052  -10.4182 H   0  0  0  0  0  0  0  0  0  0  0  0
  -12.0352   32.9956  -14.8457 H   0  0  0  0  0  0  0  0  0  0  0  0
  1  2  2  0
  1  4  1  0
  2 18  1  0
  3 13  1  0
  3 16  1  0
  4  5  2  0
  4 21  1  0
  5  6  1  0
  5 20  1  0
  6 18  2  0
  6 19  1  0
  8  7  1  0
  7 31  1  0
  8  9  1  0
  8 32  1  0
  9 10  1  0
  9 24  1  0
 10 11  1  0
 10 23  1  0
 11 32  1  0
 11 33  1  0
 12 19  1  0
 12 20  2  0
 13 14  1  0
 13 19  1  0
 14 15  1  0
 14 25  1  0
 15 16  1  0
 15 33  1  0
 16 17  1  0
 17 22  1  0
 22 34  1  0
 26 34  2  0
 34 27  1  1
 28 34  1  0
 28 35  1  0
 29 35  2  0
 35 30  1  6
 31 35  1  0
  2 36  1  0
  7 37  1  0
  7 38  1  0
  8 39  1  1
  9 40  1  6
 10 41  1  6
 11 42  1  1
 12 43  1  0
 13 44  1  6
 14 45  1  1
 15 46  1  1
 16 47  1  1
 17 48  1  0
 17 49  1  0
 21 50  1  0
 21 51  1  0
 23 52  1  0
 24 53  1  0
 25 54  1  0
M  CHG  2  27  -1  30  -1
M  END
>  <filename_input>  (1) 
7UXS_OJC_docked.sdf

>  <pdb_id>  (1) 
7UXS_OJC

>  <pose_rank>  (1) 
0

>  <num_atoms_heavy>  (1) 
35

>  <num_torsions>  (1) 
1

>  <pose>  (1) 
[-14.356092426342297, 29.864453521489402, -13.571427549484671, 5.639387081252683, -1.3429606964597622, -2.2543443136675134, -6.464550026105272]

>  <energy>  (1) 
-958.836059473205

>  <inter_energy>  (1) 
-931.9334698053069

>  <intra_energy>  (1) 
0.0

>  <rmsd>  (1) 
0.429861

>  <sdf_rank>  (1) 
0

$$$$

     RDKit          3D

 54 58  0  0  0  0  0  0  0  0999 V2000
  -17.7260   30.6458  -17.8653 N   0  0  0  0  0  0  0  0  0  0  0  0
  -17.3278   31.1538  -16.6922 C   0  0  0  0  0  0  0  0  0  0  0  0
  -14.4103   29.2342  -13.7457 O   0  0  0  0  0  0  0  0  0  0  0  0
  -16.9950   29.6621  -18.4295 C   0  0  0  0  0  0  0  0  0  0  0  0
  -15.8617   29.2069  -17.7275 C   0  0  0  0  0  0  0  0  0  0  0  0
  -15.5931   29.8175  -16.5193 C   0  0  0  0  0  0  0  0  0  0  0  0
  -11.5364   34.1436  -12.4646 C   0  0  0  0  0  0  0  0  0  0  0  0
  -10.8803   33.2608  -11.4307 C   0  0  2  0  0  0  0  0  0  0  0  0
   -9.5922   32.6387  -11.9793 C   0  0  2  0  0  0  0  0  0  0  0  0
   -9.7470   31.1505  -11.6646 C   0  0  2  0  0  0  0  0  0  0  0  0
  -11.2632   30.9881  -11.6761 C   0  0  1  0  0  0  0  0  0  0  0  0
  -14.0928   28.2985  -16.9940 C   0  0  0  0  0  0  0  0  0  0  0  0
  -13.6803   29.6349  -14.8873 C   0  0  2  0  0  0  0  0  0  0  0  0
  -13.4823   31.1429  -14.7034 C   0  0  1  0  0  0  0  0  0  0  0  0
  -13.1043   31.1621  -13.2196 C   0  0  1  0  0  0  0  0  0  0  0  0
  -13.9720   30.0483  -12.6305 C   0  0  1  0  0  0  0  0  0  0  0  0
  -15.1855   30.5229  -11.8711 C   0  0  0  0  0  0  0  0  0  0  0  0
  -16.2830   30.8039  -15.9425 N   0  0  0  0  0  0  0  0  0  0  0  0
  -14.4358   29.2312  -16.0504 N   0  0  0  0  0  0  0  0  0  0  0  0
  -14.9072   28.2469  -18.0226 N   0  0  0  0  0  0  0  0  0  0  0  0
  -17.3647   29.1897  -19.6367 N   0  0  0  0  0  0  0  0  0  0  0  0
  -15.8411   31.5796  -12.6259 O   0  0  0  0  0  0  0  0  0  0  0  0
   -9.2194   30.7509  -10.4028 O   0  0  0  0  0  0  0  0  0  0  0  0
   -8.4317   33.1975  -11.3743 O   0  0  0  0  0  0  0  0  0  0  0  0
  -12.4769   31.6381  -15.5643 O   0  0  0  0  0  0  0  0  0  0  0  0
  -15.5561   33.2822  -10.7260 O   0  0  0  0  0  0  0  0  0  0  0  0
  -17.2685   33.6329  -12.6012 O   0  0  0  0  0  0  0  0  0  0  0  0
  -14.8109   33.8092  -13.0627 O   0  0  0  0  0  0  0  0  0  0  0  0
  -14.7608   36.1777  -12.1829 O   0  0  0  0  0  0  0  0  0  0  0  0
  -13.4394   35.4344  -14.2530 O   0  0  0  0  0  0  0  0  0  0  0  0
  -12.7646   34.7195  -11.9776 O   0  0  0  0  0  0  0  0  0  0  0  0
  -11.7445   32.1698  -11.0598 O   0  0  0  0  0  0  0  0  0  0  0  0
  -11.7077   30.8782  -13.0207 O   0  0  0  0  0  0  0  0  0  0  0  0
  -15.9082   33.1140  -12.1436 P   0  0  2  0  0  0  0  0  0  0  0  0
  -13.9644   35.1496  -12.9009 P   0  0  2  0  0  0  0  0  0  0  0  0
  -17.9470   31.9707  -16.2931 H   0  0  0  0  0  0  0  0  0  0  0  0
  -10.8436   34.9557  -12.7302 H   0  0  0  0  0  0  0  0  0  0  0  0
  -11.7747   33.5232  -13.3411 H   0  0  0  0  0  0  0  0  0  0  0  0
  -10.6658   33.9008  -10.5621 H   0  0  0  0  0  0  0  0  0  0  0  0
   -9.4547   32.8284  -13.0541 H   0  0  0  0  0  0  0  0  0  0  0  0
   -9.1908   30.5267  -12.3797 H   0  0  0  0  0  0  0  0  0  0  0  0
  -11.6190   30.0893  -11.1511 H   0  0  0  0  0  0  0  0  0  0  0  0
  -13.2106   27.6486  -16.8979 H   0  0  0  0  0  0  0  0  0  0  0  0
  -12.6894   29.1763  -15.0210 H   0  0  0  0  0  0  0  0  0  0  0  0
  -14.3398   31.7858  -14.9513 H   0  0  0  0  0  0  0  0  0  0  0  0
  -13.2684   32.1445  -12.7528 H   0  0  0  0  0  0  0  0  0  0  0  0
  -13.3616   29.5049  -11.8942 H   0  0  0  0  0  0  0  0  0  0  0  0
  -15.8830   29.6840  -11.7313 H   0  0  0  0  0  0  0  0  0  0  0  0
  -14.8778   30.9084  -10.8879 H   0  0  0  0  0  0  0  0  0  0  0  0
  -16.8203   28.4389  -20.0847 H   0  0  0  0  0  0  0  0  0  0  0  0
  -18.1917   29.5796  -20.1111 H   0  0  0  0  0  0  0  0  0  0  0  0
   -9.7561   31.1574   -9.6770 H   0  0  0  0  0  0  0  0  0  0  0  0
   -8.5201   33.1549  -10.3892 H   0  0  0  0  0  0  0  0  0  0  0  0
  -11.7320   32.0050  -15.0251 H   0  0  0  0  0  0  0  0  0  0  0  0
  1  2  2  0
  1  4  1  0
  2 18  1  0
  3 13  1  0
  3 16  1  0
  4  5  2  0
  4 21  1  0
  5  6  1  0
  5 20  1  0
  6 18  2  0
  6 19  1  0
  8  7  1  0
  7 31  1  0
  8  9  1  0
  8 32  1  0
  9 10  1  0
  9 24  1  0
 10 11  1  0
 10 23  1  0
 11 32  1  0
 11 33  1  0
 12 19  1  0
 12 20  2  0
 13 14  1  0
 13 19  1  0
 14 15  1  0
 14 25  1  0
 15 16  1  0
 15 33  1  0
 16 17  1  0
 17 22  1  0
 22 34  1  0
 26 34  2  0
 34 27  1  1
 28 34  1  0
 28 35  1  0
 29 35  2  0
 35 30  1  6
 31 35  1  0
  2 36  1  0
  7 37  1  0
  7 38  1  0
  8 39  1  1
  9 40  1  6
 10 41  1  6
 11 42  1  1
 12 43  1  0
 13 44  1  6
 14 45  1  1
 15 46  1  1
 16 47  1  1
 17 48  1  0
 17 49  1  0
 21 50  1  0
 21 51  1  0
 23 52  1  0
 24 53  1  0
 25 54  1  0
M  CHG  2  27  -1  30  -1
M  END
>  <filename_input>  (2) 
7UXS_OJC_docked.sdf

>  <pdb_id>  (2) 
7UXS_OJC

>  <pose_rank>  (2) 
1

>  <num_atoms_heavy>  (2) 
35

>  <num_torsions>  (2) 
1

>  <pose>  (2) 
[-14.410284794331435, 29.23422031640663, -13.745668321283961, -0.13177406626510843, -0.06897117048804419, -0.04219326477879087, -3.4458087668768944]

>  <energy>  (2) 
-866.3027077379251

>  <inter_energy>  (2) 
-863.3196461186149

>  <intra_energy>  (2) 
12.987509747917326

>  <rmsd>  (2) 
1.69371

>  <sdf_rank>  (2) 
0

$$$$

     RDKit          3D

 54 58  0  0  0  0  0  0  0  0999 V2000
  -18.4993   31.4587  -17.1201 N   0  0  0  0  0  0  0  0  0  0  0  0
  -17.9217   31.8380  -15.9732 C   0  0  0  0  0  0  0  0  0  0  0  0
  -14.4825   29.7059  -13.8273 O   0  0  0  0  0  0  0  0  0  0  0  0
  -17.8473   30.5897  -17.9202 C   0  0  0  0  0  0  0  0  0  0  0  0
  -16.5983   30.1091  -17.4804 C   0  0  0  0  0  0  0  0  0  0  0  0
  -16.1452   30.5793  -16.2644 C   0  0  0  0  0  0  0  0  0  0  0  0
  -11.6139   34.5730  -12.3835 C   0  0  0  0  0  0  0  0  0  0  0  0
  -10.7556   33.6053  -11.6053 C   0  0  2  0  0  0  0  0  0  0  0  0
   -9.5604   33.1378  -12.4420 C   0  0  2  0  0  0  0  0  0  0  0  0
   -9.6027   31.6149  -12.3133 C   0  0  2  0  0  0  0  0  0  0  0  0
  -11.0907   31.3643  -12.0929 C   0  0  1  0  0  0  0  0  0  0  0  0
  -14.7048   29.2074  -17.1738 C   0  0  0  0  0  0  0  0  0  0  0  0
  -13.9777   30.2936  -15.0091 C   0  0  2  0  0  0  0  0  0  0  0  0
  -13.8068   31.7745  -14.6555 C   0  0  1  0  0  0  0  0  0  0  0  0
  -13.1775   31.6249  -13.2676 C   0  0  1  0  0  0  0  0  0  0  0  0
  -13.8875   30.3943  -12.7002 C   0  0  1  0  0  0  0  0  0  0  0  0
  -14.9670   30.6931  -11.6904 C   0  0  0  0  0  0  0  0  0  0  0  0
  -16.7547   31.4514  -15.4585 N   0  0  0  0  0  0  0  0  0  0  0  0
  -14.9085   29.9986  -16.0735 N   0  0  0  0  0  0  0  0  0  0  0  0
  -15.6808   29.2418  -18.0513 N   0  0  0  0  0  0  0  0  0  0  0  0
  -18.4037   30.2514  -19.1005 N   0  0  0  0  0  0  0  0  0  0  0  0
  -15.7827   31.7969  -12.1724 O   0  0  0  0  0  0  0  0  0  0  0  0
   -8.8491   31.0884  -11.2247 O   0  0  0  0  0  0  0  0  0  0  0  0
   -8.3339   33.6827  -11.9689 O   0  0  0  0  0  0  0  0  0  0  0  0
  -12.9857   32.4362  -15.5963 O   0  0  0  0  0  0  0  0  0  0  0  0
  -15.2350   33.2543  -10.1315 O   0  0  0  0  0  0  0  0  0  0  0  0
  -17.2594   33.7403  -11.6272 O   0  0  0  0  0  0  0  0  0  0  0  0
  -14.9278   34.1222  -12.4650 O   0  0  0  0  0  0  0  0  0  0  0  0
  -14.8134   36.3561  -11.2892 O   0  0  0  0  0  0  0  0  0  0  0  0
  -13.8457   35.9668  -13.6335 O   0  0  0  0  0  0  0  0  0  0  0  0
  -12.7592   35.0063  -11.6233 O   0  0  0  0  0  0  0  0  0  0  0  0
  -11.5010   32.4256  -11.2484 O   0  0  0  0  0  0  0  0  0  0  0  0
  -11.7579   31.4022  -13.3463 O   0  0  0  0  0  0  0  0  0  0  0  0
  -15.8219   33.2495  -11.4795 P   0  0  2  0  0  0  0  0  0  0  0  0
  -14.1165   35.4790  -12.2647 P   0  0  2  0  0  0  0  0  0  0  0  0
  -18.4870   32.5675  -15.3747 H   0  0  0  0  0  0  0  0  0  0  0  0
  -11.0085   35.4527  -12.6473 H   0  0  0  0  0  0  0  0  0  0  0  0
  -11.9779   34.0576  -13.2845 H   0  0  0  0  0  0  0  0  0  0  0  0
  -10.4172   34.1397  -10.7053 H   0  0  0  0  0  0  0  0  0  0  0  0
   -9.6192   33.4724  -13.4882 H   0  0  0  0  0  0  0  0  0  0  0  0
   -9.1566   31.1231  -13.1903 H   0  0  0  0  0  0  0  0  0  0  0  0
  -11.3161   30.3856  -11.6443 H   0  0  0  0  0  0  0  0  0  0  0  0
  -13.8008   28.5956  -17.3100 H   0  0  0  0  0  0  0  0  0  0  0  0
  -13.0089   29.9165  -15.3685 H   0  0  0  0  0  0  0  0  0  0  0  0
  -14.7177   32.3912  -14.6657 H   0  0  0  0  0  0  0  0  0  0  0  0
  -13.2941   32.5273  -12.6494 H   0  0  0  0  0  0  0  0  0  0  0  0
  -13.1385   29.7982  -12.1582 H   0  0  0  0  0  0  0  0  0  0  0  0
  -15.5980   29.8027  -11.5524 H   0  0  0  0  0  0  0  0  0  0  0  0
  -14.5075   30.9664  -10.7291 H   0  0  0  0  0  0  0  0  0  0  0  0
  -17.9222   29.5896  -19.7259 H   0  0  0  0  0  0  0  0  0  0  0  0
  -19.3102   30.6547  -19.3769 H   0  0  0  0  0  0  0  0  0  0  0  0
   -9.2592   31.3749  -10.3704 H   0  0  0  0  0  0  0  0  0  0  0  0
   -8.3331   33.6831  -10.9789 H   0  0  0  0  0  0  0  0  0  0  0  0
  -12.3101   32.9805  -15.1195 H   0  0  0  0  0  0  0  0  0  0  0  0
  1  2  2  0
  1  4  1  0
  2 18  1  0
  3 13  1  0
  3 16  1  0
  4  5  2  0
  4 21  1  0
  5  6  1  0
  5 20  1  0
  6 18  2  0
  6 19  1  0
  8  7  1  0
  7 31  1  0
  8  9  1  0
  8 32  1  0
  9 10  1  0
  9 24  1  0
 10 11  1  0
 10 23  1  0
 11 32  1  0
 11 33  1  0
 12 19  1  0
 12 20  2  0
 13 14  1  0
 13 19  1  0
 14 15  1  0
 14 25  1  0
 15 16  1  0
 15 33  1  0
 16 17  1  0
 17 22  1  0
 22 34  1  0
 26 34  2  0
 34 27  1  1
 28 34  1  0
 28 35  1  0
 29 35  2  0
 35 30  1  6
 31 35  1  0
  2 36  1  0
  7 37  1  0
  7 38  1  0
  8 39  1  1
  9 40  1  6
 10 41  1  6
 11 42  1  1
 12 43  1  0
 13 44  1  6
 14 45  1  1
 15 46  1  1
 16 47  1  1
 17 48  1  0
 17 49  1  0
 21 50  1  0
 21 51  1  0
 23 52  1  0
 24 53  1  0
 25 54  1  0
M  CHG  2  27  -1  30  -1
M  END
>  <filename_input>  (3) 
7UXS_OJC_docked.sdf

>  <pdb_id>  (3) 
7UXS_OJC

>  <pose_rank>  (3) 
2

>  <num_atoms_heavy>  (3) 
35

>  <num_torsions>  (3) 
1

>  <pose>  (3) 
[-14.482534150394594, 29.70590341212557, -13.827346026038065, 0.0008478062418940261, 0.10246115754803006, 0.01361911990589849, 2.849360087238128]

>  <energy>  (3) 
-807.4586652795256

>  <inter_energy>  (3) 
-810.4563886560076

>  <intra_energy>  (3) 
13.150405747592782

>  <rmsd>  (3) 
1.92957

>  <sdf_rank>  (3) 
0

$$$$

     RDKit          3D

 54 58  0  0  0  0  0  0  0  0999 V2000
  -18.5788   31.6856  -17.3113 N   0  0  0  0  0  0  0  0  0  0  0  0
  -18.0424   32.0363  -16.1356 C   0  0  0  0  0  0  0  0  0  0  0  0
  -14.8008   29.8047  -13.8448 O   0  0  0  0  0  0  0  0  0  0  0  0
  -17.9205   30.8003  -18.0880 C   0  0  0  0  0  0  0  0  0  0  0  0
  -16.7106   30.2734  -17.5951 C   0  0  0  0  0  0  0  0  0  0  0  0
  -16.2987   30.7188  -16.3555 C   0  0  0  0  0  0  0  0  0  0  0  0
  -11.7384   34.5194  -12.2969 C   0  0  0  0  0  0  0  0  0  0  0  0
  -10.9778   33.5143  -11.4663 C   0  0  2  0  0  0  0  0  0  0  0  0
   -9.7695   32.9702  -12.2352 C   0  0  2  0  0  0  0  0  0  0  0  0
   -9.9050   31.4537  -12.0951 C   0  0  2  0  0  0  0  0  0  0  0  0
  -11.4142   31.2900  -11.9506 C   0  0  1  0  0  0  0  0  0  0  0  0
  -14.8656   29.3042  -17.2092 C   0  0  0  0  0  0  0  0  0  0  0  0
  -14.2030   30.3489  -15.0038 C   0  0  2  0  0  0  0  0  0  0  0  0
  -13.9667   31.8219  -14.6551 C   0  0  1  0  0  0  0  0  0  0  0  0
  -13.4194   31.6537  -13.2350 C   0  0  1  0  0  0  0  0  0  0  0  0
  -14.2265   30.4719  -12.6943 C   0  0  1  0  0  0  0  0  0  0  0  0
  -15.3381   30.8431  -11.7451 C   0  0  0  0  0  0  0  0  0  0  0  0
  -16.9146   31.6057  -15.5710 N   0  0  0  0  0  0  0  0  0  0  0  0
  -15.0929   30.0941  -16.1127 N   0  0  0  0  0  0  0  0  0  0  0  0
  -15.7979   29.3788  -18.1306 N   0  0  0  0  0  0  0  0  0  0  0  0
  -18.4327   30.4900  -19.2957 N   0  0  0  0  0  0  0  0  0  0  0  0
  -16.0637   31.9853  -12.2789 O   0  0  0  0  0  0  0  0  0  0  0  0
   -9.2398   30.8986  -10.9640 O   0  0  0  0  0  0  0  0  0  0  0  0
   -8.5401   33.4507  -11.7036 O   0  0  0  0  0  0  0  0  0  0  0  0
  -13.0618   32.4250  -15.5577 O   0  0  0  0  0  0  0  0  0  0  0  0
  -15.5400   33.4338  -10.2253 O   0  0  0  0  0  0  0  0  0  0  0  0
  -17.4536   34.0151  -11.8291 O   0  0  0  0  0  0  0  0  0  0  0  0
  -15.0639   34.2550  -12.5474 O   0  0  0  0  0  0  0  0  0  0  0  0
  -14.8835   36.4928  -11.3874 O   0  0  0  0  0  0  0  0  0  0  0  0
  -13.8198   36.0217  -13.6744 O   0  0  0  0  0  0  0  0  0  0  0  0
  -12.8949   35.0256  -11.6015 O   0  0  0  0  0  0  0  0  0  0  0  0
  -11.8065   32.3827  -11.1382 O   0  0  0  0  0  0  0  0  0  0  0  0
  -12.0126   31.3505  -13.2373 O   0  0  0  0  0  0  0  0  0  0  0  0
  -16.0559   33.4459  -11.6021 P   0  0  2  0  0  0  0  0  0  0  0  0
  -14.1882   35.5662  -12.3172 P   0  0  2  0  0  0  0  0  0  0  0  0
  -18.6095   32.7807  -15.5575 H   0  0  0  0  0  0  0  0  0  0  0  0
  -11.0712   35.3604  -12.5366 H   0  0  0  0  0  0  0  0  0  0  0  0
  -12.0841   34.0146  -13.2111 H   0  0  0  0  0  0  0  0  0  0  0  0
  -10.6565   34.0394  -10.5547 H   0  0  0  0  0  0  0  0  0  0  0  0
   -9.7551   33.2950  -13.2861 H   0  0  0  0  0  0  0  0  0  0  0  0
   -9.4429   30.9271  -12.9432 H   0  0  0  0  0  0  0  0  0  0  0  0
  -11.7177   30.3310  -11.5055 H   0  0  0  0  0  0  0  0  0  0  0  0
  -13.9778   28.6624  -17.3089 H   0  0  0  0  0  0  0  0  0  0  0  0
  -13.2399   29.9135  -15.3087 H   0  0  0  0  0  0  0  0  0  0  0  0
  -14.8392   32.4887  -14.7184 H   0  0  0  0  0  0  0  0  0  0  0  0
  -13.5163   32.5685  -12.6319 H   0  0  0  0  0  0  0  0  0  0  0  0
  -13.5417   29.8410  -12.1087 H   0  0  0  0  0  0  0  0  0  0  0  0
  -16.0249   29.9913  -11.6322 H   0  0  0  0  0  0  0  0  0  0  0  0
  -14.9140   31.1015  -10.7636 H   0  0  0  0  0  0  0  0  0  0  0  0
  -17.9457   29.8164  -19.9040 H   0  0  0  0  0  0  0  0  0  0  0  0
  -19.3110   30.9265  -19.6102 H   0  0  0  0  0  0  0  0  0  0  0  0
   -9.6547   31.2448  -10.1345 H   0  0  0  0  0  0  0  0  0  0  0  0
   -8.5797   33.4353  -10.7145 H   0  0  0  0  0  0  0  0  0  0  0  0
  -12.3544   32.8964  -15.0502 H   0  0  0  0  0  0  0  0  0  0  0  0
  1  2  2  0
  1  4  1  0
  2 18  1  0
  3 13  1  0
  3 16  1  0
  4  5  2  0
  4 21  1  0
  5  6  1  0
  5 20  1  0
  6 18  2  0
  6 19  1  0
  8  7  1  0
  7 31  1  0
  8  9  1  0
  8 32  1  0
  9 10  1  0
  9 24  1  0
 10 11  1  0
 10 23  1  0
 11 32  1  0
 11 33  1  0
 12 19  1  0
 12 20  2  0
 13 14  1  0
 13 19  1  0
 14 15  1  0
 14 25  1  0
 15 16  1  0
 15 33  1  0
 16 17  1  0
 17 22  1  0
 22 34  1  0
 26 34  2  0
 34 27  1  1
 28 34  1  0
 28 35  1  0
 29 35  2  0
 35 30  1  6
 31 35  1  0
  2 36  1  0
  7 37  1  0
  7 38  1  0
  8 39  1  1
  9 40  1  6
 10 41  1  6
 11 42  1  1
 12 43  1  0
 13 44  1  6
 14 45  1  1
 15 46  1  1
 16 47  1  1
 17 48  1  0
 17 49  1  0
 21 50  1  0
 21 51  1  0
 23 52  1  0
 24 53  1  0
 25 54  1  0
M  CHG  2  27  -1  30  -1
M  END
>  <filename_input>  (4) 
7UXS_OJC_docked.sdf

>  <pdb_id>  (4) 
7UXS_OJC

>  <pose_rank>  (4) 
3

>  <num_atoms_heavy>  (4) 
35

>  <num_torsions>  (4) 
1

>  <pose>  (4) 
[-14.800807011931767, 29.804689050087397, -13.844783225715071, 0.6564312412792759, -4.6835406686421, 4.034141534814135, -3.4631383614856555]

>  <energy>  (4) 
-808.6737143638699

>  <inter_energy>  (4) 
-819.9955416468614

>  <intra_energy>  (4) 
12.775437475672478

>  <rmsd>  (4) 
1.96587

>  <sdf_rank>  (4) 
0

$$$$

     RDKit          3D

 54 58  0  0  0  0  0  0  0  0999 V2000
  -14.7533   26.8024  -18.7359 N   0  0  0  0  0  0  0  0  0  0  0  0
  -13.7796   26.9155  -17.8237 C   0  0  0  0  0  0  0  0  0  0  0  0
  -14.5645   29.6301  -13.8642 O   0  0  0  0  0  0  0  0  0  0  0  0
  -15.7327   27.7301  -18.7599 C   0  0  0  0  0  0  0  0  0  0  0  0
  -15.6533   28.7866  -17.8315 C   0  0  0  0  0  0  0  0  0  0  0  0
  -14.5768   28.7748  -16.9680 C   0  0  0  0  0  0  0  0  0  0  0  0
  -11.9673   34.5801  -12.2047 C   0  0  0  0  0  0  0  0  0  0  0  0
  -11.1849   33.6444  -11.3152 C   0  0  2  0  0  0  0  0  0  0  0  0
   -9.8944   33.1864  -12.0021 C   0  0  2  0  0  0  0  0  0  0  0  0
   -9.9231   31.6655  -11.8482 C   0  0  2  0  0  0  0  0  0  0  0  0
  -11.4217   31.3886  -11.7921 C   0  0  1  0  0  0  0  0  0  0  0  0
  -15.8882   30.4821  -16.5815 C   0  0  0  0  0  0  0  0  0  0  0  0
  -13.9400   30.2066  -14.9931 C   0  0  2  0  0  0  0  0  0  0  0  0
  -13.8374   31.6968  -14.6525 C   0  0  1  0  0  0  0  0  0  0  0  0
  -13.3665   31.5851  -13.1997 C   0  0  1  0  0  0  0  0  0  0  0  0
  -14.1135   30.3507  -12.6913 C   0  0  1  0  0  0  0  0  0  0  0  0
  -15.3057   30.6455  -11.8160 C   0  0  0  0  0  0  0  0  0  0  0  0
  -13.6026   27.8646  -16.9049 N   0  0  0  0  0  0  0  0  0  0  0  0
  -14.7388   29.8735  -16.1495 N   0  0  0  0  0  0  0  0  0  0  0  0
  -16.4803   29.8696  -17.5805 N   0  0  0  0  0  0  0  0  0  0  0  0
  -16.7422   27.5852  -19.6413 N   0  0  0  0  0  0  0  0  0  0  0  0
  -16.0817   31.7236  -12.4091 O   0  0  0  0  0  0  0  0  0  0  0  0
   -9.2881   31.1742  -10.6711 O   0  0  0  0  0  0  0  0  0  0  0  0
   -8.7395   33.7647  -11.4048 O   0  0  0  0  0  0  0  0  0  0  0  0
  -12.9273   32.3580  -15.5079 O   0  0  0  0  0  0  0  0  0  0  0  0
  -15.7952   33.2284  -10.3493 O   0  0  0  0  0  0  0  0  0  0  0  0
  -17.6458   33.6458  -12.0734 O   0  0  0  0  0  0  0  0  0  0  0  0
  -15.2418   34.0602  -12.6504 O   0  0  0  0  0  0  0  0  0  0  0  0
  -15.3021   36.3168  -11.5146 O   0  0  0  0  0  0  0  0  0  0  0  0
  -14.0683   35.9052  -13.7265 O   0  0  0  0  0  0  0  0  0  0  0  0
  -13.1990   35.0035  -11.5874 O   0  0  0  0  0  0  0  0  0  0  0  0
  -11.9442   32.4562  -11.0209 O   0  0  0  0  0  0  0  0  0  0  0  0
  -11.9433   31.3902  -13.1132 O   0  0  0  0  0  0  0  0  0  0  0  0
  -16.2256   33.1872  -11.7546 P   0  0  2  0  0  0  0  0  0  0  0  0
  -14.4833   35.4367  -12.3874 P   0  0  2  0  0  0  0  0  0  0  0  0
  -13.0233   26.1168  -17.8340 H   0  0  0  0  0  0  0  0  0  0  0  0
  -11.3521   35.4671  -12.4162 H   0  0  0  0  0  0  0  0  0  0  0  0
  -12.2174   34.0412  -13.1304 H   0  0  0  0  0  0  0  0  0  0  0  0
  -10.9604   34.2017  -10.3938 H   0  0  0  0  0  0  0  0  0  0  0  0
   -9.8405   33.5008  -13.0549 H   0  0  0  0  0  0  0  0  0  0  0  0
   -9.3717   31.1672  -12.6591 H   0  0  0  0  0  0  0  0  0  0  0  0
  -11.6784   30.4137  -11.3521 H   0  0  0  0  0  0  0  0  0  0  0  0
  -16.2810   31.4049  -16.1299 H   0  0  0  0  0  0  0  0  0  0  0  0
  -12.9300   29.8430  -15.2332 H   0  0  0  0  0  0  0  0  0  0  0  0
  -14.7523   32.2944  -14.7779 H   0  0  0  0  0  0  0  0  0  0  0  0
  -13.5689   32.4959  -12.6170 H   0  0  0  0  0  0  0  0  0  0  0  0
  -13.4200   29.7799  -12.0563 H   0  0  0  0  0  0  0  0  0  0  0  0
  -15.9318   29.7450  -11.7321 H   0  0  0  0  0  0  0  0  0  0  0  0
  -14.9630   30.9454  -10.8147 H   0  0  0  0  0  0  0  0  0  0  0  0
  -17.4998   28.2823  -19.6759 H   0  0  0  0  0  0  0  0  0  0  0  0
  -16.7561   26.7775  -20.2803 H   0  0  0  0  0  0  0  0  0  0  0  0
   -9.7509   31.5322   -9.8726 H   0  0  0  0  0  0  0  0  0  0  0  0
   -8.8220   33.7234  -10.4191 H   0  0  0  0  0  0  0  0  0  0  0  0
  -12.2577   32.8445  -14.9646 H   0  0  0  0  0  0  0  0  0  0  0  0
  1  2  2  0
  1  4  1  0
  2 18  1  0
  3 13  1  0
  3 16  1  0
  4  5  2  0
  4 21  1  0
  5  6  1  0
  5 20  1  0
  6 18  2  0
  6 19  1  0
  8  7  1  0
  7 31  1  0
  8  9  1  0
  8 32  1  0
  9 10  1  0
  9 24  1  0
 10 11  1  0
 10 23  1  0
 11 32  1  0
 11 33  1  0
 12 19  1  0
 12 20  2  0
 13 14  1  0
 13 19  1  0
 14 15  1  0
 14 25  1  0
 15 16  1  0
 15 33  1  0
 16 17  1  0
 17 22  1  0
 22 34  1  0
 26 34  2  0
 34 27  1  1
 28 34  1  0
 28 35  1  0
 29 35  2  0
 35 30  1  6
 31 35  1  0
  2 36  1  0
  7 37  1  0
  7 38  1  0
  8 39  1  1
  9 40  1  6
 10 41  1  6
 11 42  1  1
 12 43  1  0
 13 44  1  6
 14 45  1  1
 15 46  1  1
 16 47  1  1
 17 48  1  0
 17 49  1  0
 21 50  1  0
 21 51  1  0
 23 52  1  0
 24 53  1  0
 25 54  1  0
M  CHG  2  27  -1  30  -1
M  END
>  <filename_input>  (5) 
7UXS_OJC_docked.sdf

>  <pdb_id>  (5) 
7UXS_OJC

>  <pose_rank>  (5) 
4

>  <num_atoms_heavy>  (5) 
35

>  <num_torsions>  (5) 
1

>  <pose>  (5) 
[-14.564510463183014, 29.630064243537557, -13.86418299077445, -0.02005790175211557, -0.010659755978970141, 0.03203989402304065, 12.520010548587942]

>  <energy>  (5) 
-891.1573574220868

>  <inter_energy>  (5) 
-892.2736778707238

>  <intra_energy>  (5) 
0.0

>  <rmsd>  (5) 
0.281521

>  <sdf_rank>  (5) 
0

$$$$

     RDKit          3D

 54 58  0  0  0  0  0  0  0  0999 V2000
  -15.3232   27.2628  -19.2984 N   0  0  0  0  0  0  0  0  0  0  0  0
  -14.3516   27.2286  -18.3777 C   0  0  0  0  0  0  0  0  0  0  0  0
  -14.8149   29.8310  -14.3441 O   0  0  0  0  0  0  0  0  0  0  0  0
  -16.1844   28.3014  -19.2965 C   0  0  0  0  0  0  0  0  0  0  0  0
  -15.9881   29.3099  -18.3327 C   0  0  0  0  0  0  0  0  0  0  0  0
  -14.9288   29.1411  -17.4643 C   0  0  0  0  0  0  0  0  0  0  0  0
  -11.8231   34.4442  -12.4024 C   0  0  0  0  0  0  0  0  0  0  0  0
  -11.1210   33.3962  -11.5732 C   0  0  2  0  0  0  0  0  0  0  0  0
   -9.8715   32.8760  -12.2910 C   0  0  2  0  0  0  0  0  0  0  0  0
  -10.0248   31.3561  -12.2278 C   0  0  2  0  0  0  0  0  0  0  0  0
  -11.5410   31.1998  -12.1827 C   0  0  1  0  0  0  0  0  0  0  0  0
  -16.0303   30.9795  -17.0277 C   0  0  0  0  0  0  0  0  0  0  0  0
  -14.1440   30.4209  -15.4390 C   0  0  2  0  0  0  0  0  0  0  0  0
  -13.9201   31.8747  -15.0106 C   0  0  1  0  0  0  0  0  0  0  0  0
  -13.4617   31.6384  -13.5689 C   0  0  1  0  0  0  0  0  0  0  0  0
  -14.3078   30.4411  -13.1321 C   0  0  1  0  0  0  0  0  0  0  0  0
  -15.4729   30.7797  -12.2363 C   0  0  0  0  0  0  0  0  0  0  0  0
  -14.0710   28.1191  -17.4266 N   0  0  0  0  0  0  0  0  0  0  0  0
  -14.9660   30.2238  -16.6103 N   0  0  0  0  0  0  0  0  0  0  0  0
  -16.6821   30.4754  -18.0499 N   0  0  0  0  0  0  0  0  0  0  0  0
  -17.1958   28.3074  -20.1877 N   0  0  0  0  0  0  0  0  0  0  0  0
  -16.1573   31.9510  -12.7613 O   0  0  0  0  0  0  0  0  0  0  0  0
   -9.4335   30.7451  -11.0844 O   0  0  0  0  0  0  0  0  0  0  0  0
   -8.6738   33.3213  -11.6645 O   0  0  0  0  0  0  0  0  0  0  0  0
  -12.9579   32.5092  -15.8285 O   0  0  0  0  0  0  0  0  0  0  0  0
  -15.7510   33.3018  -10.6166 O   0  0  0  0  0  0  0  0  0  0  0  0
  -17.5592   33.9713  -12.3059 O   0  0  0  0  0  0  0  0  0  0  0  0
  -15.1287   34.2213  -12.8661 O   0  0  0  0  0  0  0  0  0  0  0  0
  -15.0053   36.4035  -11.5977 O   0  0  0  0  0  0  0  0  0  0  0  0
  -13.8068   36.0251  -13.8347 O   0  0  0  0  0  0  0  0  0  0  0  0
  -13.0167   34.9294  -11.7565 O   0  0  0  0  0  0  0  0  0  0  0  0
  -11.9754   32.2587  -11.3473 O   0  0  0  0  0  0  0  0  0  0  0  0
  -12.0593   31.3229  -13.4994 O   0  0  0  0  0  0  0  0  0  0  0  0
  -16.1816   33.3799  -12.0203 P   0  0  2  0  0  0  0  0  0  0  0  0
  -14.2604   35.5130  -12.5244 P   0  0  2  0  0  0  0  0  0  0  0  0
  -13.6961   26.3459  -18.4108 H   0  0  0  0  0  0  0  0  0  0  0  0
  -11.1371   35.2889  -12.5630 H   0  0  0  0  0  0  0  0  0  0  0  0
  -12.1154   33.9837  -13.3577 H   0  0  0  0  0  0  0  0  0  0  0  0
  -10.8527   33.8773  -10.6211 H   0  0  0  0  0  0  0  0  0  0  0  0
   -9.7908   33.2472  -13.3233 H   0  0  0  0  0  0  0  0  0  0  0  0
   -9.5151   30.8636  -13.0690 H   0  0  0  0  0  0  0  0  0  0  0  0
  -11.8773   30.2247  -11.8006 H   0  0  0  0  0  0  0  0  0  0  0  0
  -16.3143   31.9275  -16.5475 H   0  0  0  0  0  0  0  0  0  0  0  0
  -13.1668   29.9909  -15.7041 H   0  0  0  0  0  0  0  0  0  0  0  0
  -14.7829   32.5516  -15.0968 H   0  0  0  0  0  0  0  0  0  0  0  0
  -13.5894   32.5263  -12.9322 H   0  0  0  0  0  0  0  0  0  0  0  0
  -13.6640   29.7786  -12.5348 H   0  0  0  0  0  0  0  0  0  0  0  0
  -16.1707   29.9300  -12.2039 H   0  0  0  0  0  0  0  0  0  0  0  0
  -15.1079   30.9903  -11.2202 H   0  0  0  0  0  0  0  0  0  0  0  0
  -17.8642   29.0909  -20.2028 H   0  0  0  0  0  0  0  0  0  0  0  0
  -17.3001   27.5285  -20.8535 H   0  0  0  0  0  0  0  0  0  0  0  0
   -9.8175   31.1419  -10.2627 H   0  0  0  0  0  0  0  0  0  0  0  0
   -8.7812   33.2813  -10.6812 H   0  0  0  0  0  0  0  0  0  0  0  0
  -12.2823   32.9547  -15.2583 H   0  0  0  0  0  0  0  0  0  0  0  0
  1  2  2  0
  1  4  1  0
  2 18  1  0
  3 13  1  0
  3 16  1  0
  4  5  2  0
  4 21  1  0
  5  6  1  0
  5 20  1  0
  6 18  2  0
  6 19  1  0
  8  7  1  0
  7 31  1  0
  8  9  1  0
  8 32  1  0
  9 10  1  0
  9 24  1  0
 10 11  1  0
 10 23  1  0
 11 32  1  0
 11 33  1  0
 12 19  1  0
 12 20  2  0
 13 14  1  0
 13 19  1  0
 14 15  1  0
 14 25  1  0
 15 16  1  0
 15 33  1  0
 16 17  1  0
 17 22  1  0
 22 34  1  0
 26 34  2  0
 34 27  1  1
 28 34  1  0
 28 35  1  0
 29 35  2  0
 35 30  1  6
 31 35  1  0
  2 36  1  0
  7 37  1  0
  7 38  1  0
  8 39  1  1
  9 40  1  6
 10 41  1  6
 11 42  1  1
 12 43  1  0
 13 44  1  6
 14 45  1  1
 15 46  1  1
 16 47  1  1
 17 48  1  0
 17 49  1  0
 21 50  1  0
 21 51  1  0
 23 52  1  0
 24 53  1  0
 25 54  1  0
M  CHG  2  27  -1  30  -1
M  END
>  <filename_input>  (6) 
7UXS_OJC_docked.sdf

>  <pdb_id>  (6) 
7UXS_OJC

>  <pose_rank>  (6) 
5

>  <num_atoms_heavy>  (6) 
35

>  <num_torsions>  (6) 
1

>  <pose>  (6) 
[-14.814888065072122, 29.83103788501544, -14.344147087693385, 0.03924479943913793, -0.009504908769489402, -0.050235258793863834, 12.567088943895188]

>  <energy>  (6) 
-817.2088629906808

>  <inter_energy>  (6) 
-823.7072529841176

>  <intra_energy>  (6) 
0.0

>  <rmsd>  (6) 
0.466435

>  <sdf_rank>  (6) 
0

$$$$

     RDKit          3D

 54 58  0  0  0  0  0  0  0  0999 V2000
  -15.0727   26.8104  -18.7262 N   0  0  0  0  0  0  0  0  0  0  0  0
  -14.1153   26.8734  -17.7922 C   0  0  0  0  0  0  0  0  0  0  0  0
  -14.5837   29.7174  -14.0527 O   0  0  0  0  0  0  0  0  0  0  0  0
  -15.9417   27.8366  -18.8366 C   0  0  0  0  0  0  0  0  0  0  0  0
  -15.7681   28.9345  -17.9712 C   0  0  0  0  0  0  0  0  0  0  0  0
  -14.7212   28.8592  -17.0751 C   0  0  0  0  0  0  0  0  0  0  0  0
  -12.0564   34.6649  -12.2812 C   0  0  0  0  0  0  0  0  0  0  0  0
  -11.2517   33.7192  -11.4228 C   0  0  2  0  0  0  0  0  0  0  0  0
   -9.9591   33.3014  -12.1312 C   0  0  2  0  0  0  0  0  0  0  0  0
   -9.9613   31.7767  -12.0176 C   0  0  2  0  0  0  0  0  0  0  0  0
  -11.4545   31.4732  -11.9578 C   0  0  1  0  0  0  0  0  0  0  0  0
  -15.8433   30.7209  -16.8331 C   0  0  0  0  0  0  0  0  0  0  0  0
  -13.9778   30.3341  -15.1705 C   0  0  2  0  0  0  0  0  0  0  0  0
  -13.8973   31.8163  -14.7911 C   0  0  1  0  0  0  0  0  0  0  0  0
  -13.4133   31.6742  -13.3453 C   0  0  1  0  0  0  0  0  0  0  0  0
  -14.1357   30.4142  -12.8644 C   0  0  1  0  0  0  0  0  0  0  0  0
  -15.3257   30.6656  -11.9728 C   0  0  0  0  0  0  0  0  0  0  0  0
  -13.8564   27.8533  -16.9269 N   0  0  0  0  0  0  0  0  0  0  0  0
  -14.7800   30.0184  -16.3294 N   0  0  0  0  0  0  0  0  0  0  0  0
  -16.4752   30.1153  -17.8118 N   0  0  0  0  0  0  0  0  0  0  0  0
  -16.9391   27.7480  -19.7391 N   0  0  0  0  0  0  0  0  0  0  0  0
  -16.1242   31.7457  -12.5312 O   0  0  0  0  0  0  0  0  0  0  0  0
   -9.3090   31.2652  -10.8588 O   0  0  0  0  0  0  0  0  0  0  0  0
   -8.8094   33.8832  -11.5272 O   0  0  0  0  0  0  0  0  0  0  0  0
  -13.0051   32.5153  -15.6352 O   0  0  0  0  0  0  0  0  0  0  0  0
  -15.8466   33.2001  -10.4343 O   0  0  0  0  0  0  0  0  0  0  0  0
  -17.7174   33.6317  -12.1329 O   0  0  0  0  0  0  0  0  0  0  0  0
  -15.3253   34.1017  -12.7164 O   0  0  0  0  0  0  0  0  0  0  0  0
  -15.4143   36.3262  -11.5205 O   0  0  0  0  0  0  0  0  0  0  0  0
  -14.1912   35.9942  -13.7516 O   0  0  0  0  0  0  0  0  0  0  0  0
  -13.2902   35.0510  -11.6438 O   0  0  0  0  0  0  0  0  0  0  0  0
  -11.9887   32.5111  -11.1546 O   0  0  0  0  0  0  0  0  0  0  0  0
  -11.9865   31.5010  -13.2745 O   0  0  0  0  0  0  0  0  0  0  0  0
  -16.2873   33.1889  -11.8369 P   0  0  2  0  0  0  0  0  0  0  0  0
  -14.5878   35.4834  -12.4224 P   0  0  2  0  0  0  0  0  0  0  0  0
  -13.4527   25.9975  -17.7308 H   0  0  0  0  0  0  0  0  0  0  0  0
  -11.4578   35.5674  -12.4736 H   0  0  0  0  0  0  0  0  0  0  0  0
  -12.3048   34.1465  -13.2191 H   0  0  0  0  0  0  0  0  0  0  0  0
  -11.0293   34.2556  -10.4886 H   0  0  0  0  0  0  0  0  0  0  0  0
   -9.9187   33.6445  -13.1755 H   0  0  0  0  0  0  0  0  0  0  0  0
   -9.4080   31.3095  -12.8456 H   0  0  0  0  0  0  0  0  0  0  0  0
  -11.6915   30.4828  -11.5420 H   0  0  0  0  0  0  0  0  0  0  0  0
  -16.1420   31.7079  -16.4502 H   0  0  0  0  0  0  0  0  0  0  0  0
  -12.9638   29.9941  -15.4276 H   0  0  0  0  0  0  0  0  0  0  0  0
  -14.8231   32.4015  -14.8937 H   0  0  0  0  0  0  0  0  0  0  0  0
  -13.6263   32.5656  -12.7371 H   0  0  0  0  0  0  0  0  0  0  0  0
  -13.4277   29.8386  -12.2500 H   0  0  0  0  0  0  0  0  0  0  0  0
  -15.9360   29.7528  -11.9083 H   0  0  0  0  0  0  0  0  0  0  0  0
  -14.9802   30.9446  -10.9664 H   0  0  0  0  0  0  0  0  0  0  0  0
  -17.6132   28.5204  -19.8392 H   0  0  0  0  0  0  0  0  0  0  0  0
  -17.0271   26.9080  -20.3286 H   0  0  0  0  0  0  0  0  0  0  0  0
   -9.7553   31.6152  -10.0473 H   0  0  0  0  0  0  0  0  0  0  0  0
   -8.8962   33.8392  -10.5420 H   0  0  0  0  0  0  0  0  0  0  0  0
  -12.3579   33.0223  -15.0838 H   0  0  0  0  0  0  0  0  0  0  0  0
  1  2  2  0
  1  4  1  0
  2 18  1  0
  3 13  1  0
  3 16  1  0
  4  5  2  0
  4 21  1  0
  5  6  1  0
  5 20  1  0
  6 18  2  0
  6 19  1  0
  8  7  1  0
  7 31  1  0
  8  9  1  0
  8 32  1  0
  9 10  1  0
  9 24  1  0
 10 11  1  0
 10 23  1  0
 11 32  1  0
 11 33  1  0
 12 19  1  0
 12 20  2  0
 13 14  1  0
 13 19  1  0
 14 15  1  0
 14 25  1  0
 15 16  1  0
 15 33  1  0
 16 17  1  0
 17 22  1  0
 22 34  1  0
 26 34  2  0
 34 27  1  1
 28 34  1  0
 28 35  1  0
 29 35  2  0
 35 30  1  6
 31 35  1  0
  2 36  1  0
  7 37  1  0
  7 38  1  0
  8 39  1  1
  9 40  1  6
 10 41  1  6
 11 42  1  1
 12 43  1  0
 13 44  1  6
 14 45  1  1
 15 46  1  1
 16 47  1  1
 17 48  1  0
 17 49  1  0
 21 50  1  0
 21 51  1  0
 23 52  1  0
 24 53  1  0
 25 54  1  0
M  CHG  2  27  -1  30  -1
M  END
>  <filename_input>  (7) 
7UXS_OJC_docked.sdf

>  <pdb_id>  (7) 
7UXS_OJC

>  <pose_rank>  (7) 
6

>  <num_atoms_heavy>  (7) 
35

>  <num_torsions>  (7) 
1

>  <pose>  (7) 
[-14.583722241824113, 29.717449450458098, -14.052743918371936, 0.00672689203902742, -0.0036412066589489077, 0.04874582784602423, 12.679263612370043]

>  <energy>  (7) 
-873.8054960546633

>  <inter_energy>  (7) 
-862.1783994467819

>  <intra_energy>  (7) 
0.03643339711749395

>  <rmsd>  (7) 
0.248742

>  <sdf_rank>  (7) 
0

$$$$

     RDKit          3D

 54 58  0  0  0  0  0  0  0  0999 V2000
  -19.1447   34.3773   -6.7201 N   0  0  0  0  0  0  0  0  0  0  0  0
  -17.8114   34.3352   -6.8372 C   0  0  0  0  0  0  0  0  0  0  0  0
  -16.0060   35.2918  -11.7889 O   0  0  0  0  0  0  0  0  0  0  0  0
  -19.8962   34.3701   -7.8406 C   0  0  0  0  0  0  0  0  0  0  0  0
  -19.2245   34.2897   -9.0762 C   0  0  0  0  0  0  0  0  0  0  0  0
  -17.8463   34.2327   -9.0311 C   0  0  0  0  0  0  0  0  0  0  0  0
  -12.1198   31.1784  -13.1958 C   0  0  0  0  0  0  0  0  0  0  0  0
  -11.1430   32.3169  -13.0278 C   0  0  2  0  0  0  0  0  0  0  0  0
  -10.5932   32.3609  -11.5985 C   0  0  2  0  0  0  0  0  0  0  0  0
  -10.7898   33.8183  -11.1803 C   0  0  2  0  0  0  0  0  0  0  0  0
  -11.9982   34.2205  -12.0191 C   0  0  1  0  0  0  0  0  0  0  0  0
  -18.5764   34.2130  -11.0928 C   0  0  0  0  0  0  0  0  0  0  0  0
  -16.0638   34.2709  -10.8135 C   0  0  2  0  0  0  0  0  0  0  0  0
  -15.5268   33.0279  -11.5304 C   0  0  1  0  0  0  0  0  0  0  0  0
  -14.3288   33.6562  -12.2478 C   0  0  1  0  0  0  0  0  0  0  0  0
  -14.8421   35.0494  -12.6165 C   0  0  1  0  0  0  0  0  0  0  0  0
  -15.2326   35.2201  -14.0632 C   0  0  0  0  0  0  0  0  0  0  0  0
  -17.0727   34.2567   -7.9437 N   0  0  0  0  0  0  0  0  0  0  0  0
  -17.4280   34.1937  -10.3451 N   0  0  0  0  0  0  0  0  0  0  0  0
  -19.6801   34.2781  -10.3847 N   0  0  0  0  0  0  0  0  0  0  0  0
  -21.2356   34.4688   -7.7242 N   0  0  0  0  0  0  0  0  0  0  0  0
  -16.0078   34.0658  -14.4905 O   0  0  0  0  0  0  0  0  0  0  0  0
   -9.6867   34.6736  -11.4658 O   0  0  0  0  0  0  0  0  0  0  0  0
   -9.2274   31.9656  -11.5413 O   0  0  0  0  0  0  0  0  0  0  0  0
  -15.1840   32.0117  -10.6100 O   0  0  0  0  0  0  0  0  0  0  0  0
  -14.3249   33.4630  -16.3327 O   0  0  0  0  0  0  0  0  0  0  0  0
  -16.7259   32.5651  -16.3577 O   0  0  0  0  0  0  0  0  0  0  0  0
  -15.0750   31.7578  -14.6527 O   0  0  0  0  0  0  0  0  0  0  0  0
  -14.0740   30.1350  -16.3112 O   0  0  0  0  0  0  0  0  0  0  0  0
  -14.4458   29.5476  -13.8413 O   0  0  0  0  0  0  0  0  0  0  0  0
  -12.6691   31.1340  -14.5276 O   0  0  0  0  0  0  0  0  0  0  0  0
  -11.7822   33.5854  -13.2673 O   0  0  0  0  0  0  0  0  0  0  0  0
  -13.1794   33.7487  -11.3869 O   0  0  0  0  0  0  0  0  0  0  0  0
  -15.4896   32.9901  -15.5702 P   0  0  2  0  0  0  0  0  0  0  0  0
  -14.0806   30.5336  -14.8802 P   0  0  2  0  0  0  0  0  0  0  0  0
  -17.2498   34.3701   -5.8921 H   0  0  0  0  0  0  0  0  0  0  0  0
  -11.5993   30.2305  -12.9940 H   0  0  0  0  0  0  0  0  0  0  0  0
  -12.9490   31.3334  -12.4899 H   0  0  0  0  0  0  0  0  0  0  0  0
  -10.3335   32.1455  -13.7526 H   0  0  0  0  0  0  0  0  0  0  0  0
  -11.1064   31.6582  -10.9256 H   0  0  0  0  0  0  0  0  0  0  0  0
  -10.9074   33.9133  -10.0907 H   0  0  0  0  0  0  0  0  0  0  0  0
  -12.1160   35.3076  -12.1382 H   0  0  0  0  0  0  0  0  0  0  0  0
  -18.5737   34.1771  -12.1922 H   0  0  0  0  0  0  0  0  0  0  0  0
  -15.4619   34.4259   -9.9060 H   0  0  0  0  0  0  0  0  0  0  0  0
  -16.2246   32.5081  -12.2034 H   0  0  0  0  0  0  0  0  0  0  0  0
  -13.9944   33.0646  -13.1128 H   0  0  0  0  0  0  0  0  0  0  0  0
  -14.0204   35.7616  -12.4505 H   0  0  0  0  0  0  0  0  0  0  0  0
  -15.8381   36.1315  -14.1754 H   0  0  0  0  0  0  0  0  0  0  0  0
  -14.3272   35.3059  -14.6819 H   0  0  0  0  0  0  0  0  0  0  0  0
  -21.8274   34.4652   -8.5672 H   0  0  0  0  0  0  0  0  0  0  0  0
  -21.6671   34.5478   -6.7923 H   0  0  0  0  0  0  0  0  0  0  0  0
   -9.2833   34.9863  -10.6175 H   0  0  0  0  0  0  0  0  0  0  0  0
   -8.9466   31.8843  -10.5955 H   0  0  0  0  0  0  0  0  0  0  0  0
  -15.2983   32.3504   -9.6868 H   0  0  0  0  0  0  0  0  0  0  0  0
  1  2  2  0
  1  4  1  0
  2 18  1  0
  3 13  1  0
  3 16  1  0
  4  5  2  0
  4 21  1  0
  5  6  1  0
  5 20  1  0
  6 18  2  0
  6 19  1  0
  8  7  1  0
  7 31  1  0
  8  9  1  0
  8 32  1  0
  9 10  1  0
  9 24  1  0
 10 11  1  0
 10 23  1  0
 11 32  1  0
 11 33  1  0
 12 19  1  0
 12 20  2  0
 13 14  1  0
 13 19  1  0
 14 15  1  0
 14 25  1  0
 15 16  1  0
 15 33  1  0
 16 17  1  0
 17 22  1  0
 22 34  1  0
 26 34  2  0
 34 27  1  6
 28 34  1  0
 28 35  1  0
 29 35  2  0
 35 30  1  1
 31 35  1  0
  2 36  1  0
  7 37  1  0
  7 38  1  0
  8 39  1  6
  9 40  1  1
 10 41  1  1
 11 42  1  6
 12 43  1  0
 13 44  1  1
 14 45  1  6
 15 46  1  6
 16 47  1  1
 17 48  1  0
 17 49  1  0
 21 50  1  0
 21 51  1  0
 23 52  1  0
 24 53  1  0
 25 54  1  0
M  CHG  2  27  -1  30  -1
M  END
>  <filename_input>  (8) 
7UXS_OJC_docked.sdf

>  <pdb_id>  (8) 
7UXS_OJC

>  <pose_rank>  (8) 
7

>  <num_atoms_heavy>  (8) 
35

>  <num_torsions>  (8) 
1

>  <pose>  (8) 
[-16.005968980263162, 35.29181922176652, -11.788850357505261, -2.60246131344985, -0.01956172633600131, -0.8688416829461658, -6.960827371474122]

>  <energy>  (8) 
-703.6135319503564

>  <inter_energy>  (8) 
-701.8573744756643

>  <intra_energy>  (8) 
0.0

>  <rmsd>  (8) 
7.13177

>  <sdf_rank>  (8) 
0

$$$$

     RDKit          3D

 54 58  0  0  0  0  0  0  0  0999 V2000
   -8.6764   33.4058  -11.5567 N   0  0  0  0  0  0  0  0  0  0  0  0
   -9.7153   34.0573  -12.0946 C   0  0  0  0  0  0  0  0  0  0  0  0
  -12.8103   32.9267  -14.5291 O   0  0  0  0  0  0  0  0  0  0  0  0
   -8.6722   32.0568  -11.5805 C   0  0  0  0  0  0  0  0  0  0  0  0
   -9.7598   31.4119  -12.2015 C   0  0  0  0  0  0  0  0  0  0  0  0
  -10.7446   32.2231  -12.7278 C   0  0  0  0  0  0  0  0  0  0  0  0
  -18.1273   33.0627  -12.1387 C   0  0  0  0  0  0  0  0  0  0  0  0
  -18.5645   33.0960  -13.5832 C   0  0  2  0  0  0  0  0  0  0  0  0
  -18.8267   31.6812  -14.1091 C   0  0  2  0  0  0  0  0  0  0  0  0
  -18.0332   31.6281  -15.4150 C   0  0  2  0  0  0  0  0  0  0  0  0
  -16.9095   32.6201  -15.1345 C   0  0  1  0  0  0  0  0  0  0  0  0
  -11.2228   30.1073  -13.0077 C   0  0  0  0  0  0  0  0  0  0  0  0
  -12.9894   31.7473  -13.7717 C   0  0  2  0  0  0  0  0  0  0  0  0
  -14.0597   32.1160  -12.7393 C   0  0  1  0  0  0  0  0  0  0  0  0
  -15.0293   32.8741  -13.6502 C   0  0  1  0  0  0  0  0  0  0  0  0
  -14.0938   33.5917  -14.6250 C   0  0  1  0  0  0  0  0  0  0  0  0
  -13.8989   35.0621  -14.3523 C   0  0  0  0  0  0  0  0  0  0  0  0
  -10.7891   33.5569  -12.7049 N   0  0  0  0  0  0  0  0  0  0  0  0
  -11.6996   31.3706  -13.2419 N   0  0  0  0  0  0  0  0  0  0  0  0
  -10.0695   30.0733  -12.3812 N   0  0  0  0  0  0  0  0  0  0  0  0
   -7.6537   31.4005  -10.9896 N   0  0  0  0  0  0  0  0  0  0  0  0
  -13.6922   35.2625  -12.9265 O   0  0  0  0  0  0  0  0  0  0  0  0
  -18.7633   32.0267  -16.5717 O   0  0  0  0  0  0  0  0  0  0  0  0
  -20.2139   31.4381  -14.3135 O   0  0  0  0  0  0  0  0  0  0  0  0
  -14.6115   30.9629  -12.1367 O   0  0  0  0  0  0  0  0  0  0  0  0
  -15.7437   36.7915  -12.7190 O   0  0  0  0  0  0  0  0  0  0  0  0
  -13.8930   36.7752  -10.9452 O   0  0  0  0  0  0  0  0  0  0  0  0
  -15.4381   34.8179  -11.2010 O   0  0  0  0  0  0  0  0  0  0  0  0
  -17.2221   35.9792   -9.8391 O   0  0  0  0  0  0  0  0  0  0  0  0
  -16.7179   33.4727   -9.6224 O   0  0  0  0  0  0  0  0  0  0  0  0
  -17.8504   34.3828  -11.6307 O   0  0  0  0  0  0  0  0  0  0  0  0
  -17.5407   33.6680  -14.4195 O   0  0  0  0  0  0  0  0  0  0  0  0
  -15.9096   31.9799  -14.3548 O   0  0  0  0  0  0  0  0  0  0  0  0
  -14.7389   36.0235  -11.9691 P   0  0  2  0  0  0  0  0  0  0  0  0
  -16.8425   34.6842  -10.4601 P   0  0  2  0  0  0  0  0  0  0  0  0
   -9.6771   35.1543  -12.0229 H   0  0  0  0  0  0  0  0  0  0  0  0
  -18.9278   32.6101  -11.5352 H   0  0  0  0  0  0  0  0  0  0  0  0
  -17.2014   32.4721  -12.0761 H   0  0  0  0  0  0  0  0  0  0  0  0
  -19.4814   33.7025  -13.6196 H   0  0  0  0  0  0  0  0  0  0  0  0
  -18.5174   30.9010  -13.3980 H   0  0  0  0  0  0  0  0  0  0  0  0
  -17.7199   30.6015  -15.6555 H   0  0  0  0  0  0  0  0  0  0  0  0
  -16.4112   32.9966  -16.0400 H   0  0  0  0  0  0  0  0  0  0  0  0
  -11.7604   29.1992  -13.3183 H   0  0  0  0  0  0  0  0  0  0  0  0
  -13.3390   30.8608  -14.3211 H   0  0  0  0  0  0  0  0  0  0  0  0
  -13.7233   32.6969  -11.8678 H   0  0  0  0  0  0  0  0  0  0  0  0
  -15.6924   33.5522  -13.0931 H   0  0  0  0  0  0  0  0  0  0  0  0
  -14.5500   33.5386  -15.6245 H   0  0  0  0  0  0  0  0  0  0  0  0
  -13.0204   35.4253  -14.9058 H   0  0  0  0  0  0  0  0  0  0  0  0
  -14.7901   35.6188  -14.6777 H   0  0  0  0  0  0  0  0  0  0  0  0
   -7.6316   30.3708  -10.9966 H   0  0  0  0  0  0  0  0  0  0  0  0
   -6.8977   31.9288  -10.5312 H   0  0  0  0  0  0  0  0  0  0  0  0
  -19.5975   32.4821  -16.2948 H   0  0  0  0  0  0  0  0  0  0  0  0
  -20.6676   31.3585  -13.4372 H   0  0  0  0  0  0  0  0  0  0  0  0
  -14.5685   31.0526  -11.1517 H   0  0  0  0  0  0  0  0  0  0  0  0
  1  2  2  0
  1  4  1  0
  2 18  1  0
  3 13  1  0
  3 16  1  0
  4  5  2  0
  4 21  1  0
  5  6  1  0
  5 20  1  0
  6 18  2  0
  6 19  1  0
  8  7  1  0
  7 31  1  0
  8  9  1  0
  8 32  1  0
  9 10  1  0
  9 24  1  0
 10 11  1  0
 10 23  1  0
 11 32  1  0
 11 33  1  0
 12 19  1  0
 12 20  2  0
 13 14  1  0
 13 19  1  0
 14 15  1  0
 14 25  1  0
 15 16  1  0
 15 33  1  0
 16 17  1  0
 17 22  1  0
 22 34  1  0
 26 34  2  0
 34 27  1  1
 28 34  1  0
 28 35  1  0
 29 35  2  0
 35 30  1  1
 31 35  1  0
  2 36  1  0
  7 37  1  0
  7 38  1  0
  8 39  1  1
  9 40  1  1
 10 41  1  6
 11 42  1  6
 12 43  1  0
 13 44  1  6
 14 45  1  1
 15 46  1  1
 16 47  1  6
 17 48  1  0
 17 49  1  0
 21 50  1  0
 21 51  1  0
 23 52  1  0
 24 53  1  0
 25 54  1  0
M  CHG  2  27  -1  30  -1
M  END
>  <filename_input>  (9) 
7UXS_OJC_docked.sdf

>  <pdb_id>  (9) 
7UXS_OJC

>  <pose_rank>  (9) 
8

>  <num_atoms_heavy>  (9) 
35

>  <num_torsions>  (9) 
1

>  <pose>  (9) 
[-12.810348573249764, 32.92674668401951, -14.529101485137897, 1.1878118733756624, -2.2743347774659908, -1.6142591601160956, 2.2620770169996325]

>  <energy>  (9) 
-779.7772665960493

>  <inter_energy>  (9) 
-783.9433883802897

>  <intra_energy>  (9) 
15.876826366779152

>  <rmsd>  (9) 
6.92046

>  <sdf_rank>  (9) 
0

$$$$

     RDKit          3D

 54 58  0  0  0  0  0  0  0  0999 V2000
  -15.0198   26.7890  -18.5974 N   0  0  0  0  0  0  0  0  0  0  0  0
  -14.0631   26.8146  -17.6609 C   0  0  0  0  0  0  0  0  0  0  0  0
  -14.5854   29.5921  -13.7957 O   0  0  0  0  0  0  0  0  0  0  0  0
  -15.8884   27.8191  -18.6678 C   0  0  0  0  0  0  0  0  0  0  0  0
  -15.7149   28.8819  -17.7595 C   0  0  0  0  0  0  0  0  0  0  0  0
  -14.6687   28.7708  -16.8663 C   0  0  0  0  0  0  0  0  0  0  0  0
  -11.7937   34.3824  -11.9898 C   0  0  0  0  0  0  0  0  0  0  0  0
  -11.0607   33.3919  -11.1179 C   0  0  2  0  0  0  0  0  0  0  0  0
   -9.7846   32.8959  -11.8054 C   0  0  2  0  0  0  0  0  0  0  0  0
   -9.8801   31.3743  -11.6902 C   0  0  2  0  0  0  0  0  0  0  0  0
  -11.3896   31.1610  -11.6536 C   0  0  1  0  0  0  0  0  0  0  0  0
  -15.7903   30.6220  -16.5518 C   0  0  0  0  0  0  0  0  0  0  0  0
  -13.9261   30.1690  -14.9044 C   0  0  2  0  0  0  0  0  0  0  0  0
  -13.7628   31.6445  -14.5253 C   0  0  1  0  0  0  0  0  0  0  0  0
  -13.3109   31.4764  -13.0720 C   0  0  1  0  0  0  0  0  0  0  0  0
  -14.1150   30.2631  -12.6012 C   0  0  1  0  0  0  0  0  0  0  0  0
  -15.3016   30.5873  -11.7287 C   0  0  0  0  0  0  0  0  0  0  0  0
  -13.8044   27.7595  -16.7573 N   0  0  0  0  0  0  0  0  0  0  0  0
  -14.7276   29.8996  -16.0755 N   0  0  0  0  0  0  0  0  0  0  0  0
  -16.4217   30.0558  -17.5540 N   0  0  0  0  0  0  0  0  0  0  0  0
  -16.8851   27.7667  -19.5738 N   0  0  0  0  0  0  0  0  0  0  0  0
  -16.0249   31.7122  -12.3008 O   0  0  0  0  0  0  0  0  0  0  0  0
   -9.2779   30.8268  -10.5207 O   0  0  0  0  0  0  0  0  0  0  0  0
   -8.6116   33.4087  -11.1840 O   0  0  0  0  0  0  0  0  0  0  0  0
  -12.8171   32.2869  -15.3561 O   0  0  0  0  0  0  0  0  0  0  0  0
  -15.6934   33.1515  -10.2013 O   0  0  0  0  0  0  0  0  0  0  0  0
  -17.5081   33.6912  -11.9296 O   0  0  0  0  0  0  0  0  0  0  0  0
  -15.0832   34.0156  -12.4758 O   0  0  0  0  0  0  0  0  0  0  0  0
  -15.0572   36.2438  -11.2839 O   0  0  0  0  0  0  0  0  0  0  0  0
  -13.8214   35.8345  -13.4951 O   0  0  0  0  0  0  0  0  0  0  0  0
  -13.0118   34.8432  -11.3724 O   0  0  0  0  0  0  0  0  0  0  0  0
  -11.8731   32.2307  -10.8600 O   0  0  0  0  0  0  0  0  0  0  0  0
  -11.8983   31.2181  -12.9786 O   0  0  0  0  0  0  0  0  0  0  0  0
  -16.1119   33.1640  -11.6107 P   0  0  2  0  0  0  0  0  0  0  0  0
  -14.2688   35.3511  -12.1718 P   0  0  2  0  0  0  0  0  0  0  0  0
  -13.4008   25.9367  -17.6337 H   0  0  0  0  0  0  0  0  0  0  0  0
  -11.1390   35.2470  -12.1737 H   0  0  0  0  0  0  0  0  0  0  0  0
  -12.0580   33.8780  -12.9310 H   0  0  0  0  0  0  0  0  0  0  0  0
  -10.8211   33.9159  -10.1808 H   0  0  0  0  0  0  0  0  0  0  0  0
   -9.7073   33.2338  -12.8493 H   0  0  0  0  0  0  0  0  0  0  0  0
   -9.3430   30.8730  -12.5089 H   0  0  0  0  0  0  0  0  0  0  0  0
  -11.6921   30.1875  -11.2405 H   0  0  0  0  0  0  0  0  0  0  0  0
  -16.0889   31.5932  -16.1304 H   0  0  0  0  0  0  0  0  0  0  0  0
  -12.9305   29.7682  -15.1451 H   0  0  0  0  0  0  0  0  0  0  0  0
  -14.6500   32.2840  -14.6432 H   0  0  0  0  0  0  0  0  0  0  0  0
  -13.4794   32.3803  -12.4681 H   0  0  0  0  0  0  0  0  0  0  0  0
  -13.4526   29.6472  -11.9751 H   0  0  0  0  0  0  0  0  0  0  0  0
  -15.9666   29.7128  -11.6728 H   0  0  0  0  0  0  0  0  0  0  0  0
  -14.9558   30.8470  -10.7173 H   0  0  0  0  0  0  0  0  0  0  0  0
  -17.5588   28.5427  -19.6438 H   0  0  0  0  0  0  0  0  0  0  0  0
  -16.9730   26.9507  -20.1961 H   0  0  0  0  0  0  0  0  0  0  0  0
   -9.7053   31.2154   -9.7167 H   0  0  0  0  0  0  0  0  0  0  0  0
   -8.7130   33.3644  -10.2002 H   0  0  0  0  0  0  0  0  0  0  0  0
  -12.1424   32.7452  -14.7950 H   0  0  0  0  0  0  0  0  0  0  0  0
  1  2  2  0
  1  4  1  0
  2 18  1  0
  3 13  1  0
  3 16  1  0
  4  5  2  0
  4 21  1  0
  5  6  1  0
  5 20  1  0
  6 18  2  0
  6 19  1  0
  8  7  1  0
  7 31  1  0
  8  9  1  0
  8 32  1  0
  9 10  1  0
  9 24  1  0
 10 11  1  0
 10 23  1  0
 11 32  1  0
 11 33  1  0
 12 19  1  0
 12 20  2  0
 13 14  1  0
 13 19  1  0
 14 15  1  0
 14 25  1  0
 15 16  1  0
 15 33  1  0
 16 17  1  0
 17 22  1  0
 22 34  1  0
 26 34  2  0
 34 27  1  1
 28 34  1  0
 28 35  1  0
 29 35  2  0
 35 30  1  6
 31 35  1  0
  2 36  1  0
  7 37  1  0
  7 38  1  0
  8 39  1  1
  9 40  1  6
 10 41  1  6
 11 42  1  1
 12 43  1  0
 13 44  1  6
 14 45  1  1
 15 46  1  1
 16 47  1  1
 17 48  1  0
 17 49  1  0
 21 50  1  0
 21 51  1  0
 23 52  1  0
 24 53  1  0
 25 54  1  0
M  CHG  2  27  -1  30  -1
M  END
>  <filename_input>  (10) 
7UXS_OJC_docked.sdf

>  <pdb_id>  (10) 
7UXS_OJC

>  <pose_rank>  (10) 
9

>  <num_atoms_heavy>  (10) 
35

>  <num_torsions>  (10) 
1

>  <pose>  (10) 
[-14.585432496545398, 29.59205908876831, -13.795651183336984, -1.2758041325056144, 5.30622360308241, 3.06693421815734, 0.038920787070046065]

>  <energy>  (10) 
-872.3722073255909

>  <inter_energy>  (10) 
-872.210738776552

>  <intra_energy>  (10) 
0.0

>  <rmsd>  (10) 
0.339577

>  <sdf_rank>  (10) 
0

$$$$

     RDKit          3D

 54 58  0  0  0  0  0  0  0  0999 V2000
  -20.9579   33.6766  -11.3262 N   0  0  0  0  0  0  0  0  0  0  0  0
  -19.8778   33.7265  -12.1161 C   0  0  0  0  0  0  0  0  0  0  0  0
  -15.7854   35.3995  -11.0361 O   0  0  0  0  0  0  0  0  0  0  0  0
  -20.7952   33.8086   -9.9933 C   0  0  0  0  0  0  0  0  0  0  0  0
  -19.4878   34.0208   -9.5135 C   0  0  0  0  0  0  0  0  0  0  0  0
  -18.4805   34.0676  -10.4559 C   0  0  0  0  0  0  0  0  0  0  0  0
  -12.6622   31.1394  -13.5058 C   0  0  0  0  0  0  0  0  0  0  0  0
  -11.5103   32.0591  -13.1805 C   0  0  2  0  0  0  0  0  0  0  0  0
  -10.9081   31.7208  -11.8130 C   0  0  2  0  0  0  0  0  0  0  0  0
  -10.8534   33.0711  -11.0980 C   0  0  2  0  0  0  0  0  0  0  0  0
  -12.0120   33.8152  -11.7534 C   0  0  1  0  0  0  0  0  0  0  0  0
  -17.6888   34.3145   -8.4320 C   0  0  0  0  0  0  0  0  0  0  0  0
  -15.9698   34.2175  -10.2841 C   0  0  2  0  0  0  0  0  0  0  0  0
  -15.6655   33.0861  -11.2713 C   0  0  1  0  0  0  0  0  0  0  0  0
  -14.4097   33.6649  -11.9291 C   0  0  1  0  0  0  0  0  0  0  0  0
  -14.7067   35.1649  -11.9741 C   0  0  1  0  0  0  0  0  0  0  0  0
  -15.1179   35.6907  -13.3264 C   0  0  0  0  0  0  0  0  0  0  0  0
  -18.6039   33.9225  -11.7770 N   0  0  0  0  0  0  0  0  0  0  0  0
  -17.3106   34.2481   -9.7476 N   0  0  0  0  0  0  0  0  0  0  0  0
  -18.9794   34.1766   -8.2340 N   0  0  0  0  0  0  0  0  0  0  0  0
  -21.8755   33.7025   -9.1941 N   0  0  0  0  0  0  0  0  0  0  0  0
  -16.0831   34.7800  -13.9222 O   0  0  0  0  0  0  0  0  0  0  0  0
   -9.6389   33.7931  -11.2815 O   0  0  0  0  0  0  0  0  0  0  0  0
   -9.6220   31.1233  -11.9309 O   0  0  0  0  0  0  0  0  0  0  0  0
  -15.4560   31.8604  -10.5998 O   0  0  0  0  0  0  0  0  0  0  0  0
  -14.5875   34.3321  -15.9598 O   0  0  0  0  0  0  0  0  0  0  0  0
  -17.1005   33.8271  -15.9985 O   0  0  0  0  0  0  0  0  0  0  0  0
  -15.5383   32.4444  -14.6087 O   0  0  0  0  0  0  0  0  0  0  0  0
  -14.8719   31.0738  -16.6245 O   0  0  0  0  0  0  0  0  0  0  0  0
  -15.2414   30.0449  -14.3032 O   0  0  0  0  0  0  0  0  0  0  0  0
  -13.2603   31.4569  -14.7781 O   0  0  0  0  0  0  0  0  0  0  0  0
  -11.9467   33.4303  -13.1155 O   0  0  0  0  0  0  0  0  0  0  0  0
  -13.2293   33.4030  -11.1487 O   0  0  0  0  0  0  0  0  0  0  0  0
  -15.7840   33.8890  -15.2291 P   0  0  2  0  0  0  0  0  0  0  0  0
  -14.7617   31.1607  -15.1457 P   0  0  2  0  0  0  0  0  0  0  0  0
  -20.0677   33.5868  -13.1905 H   0  0  0  0  0  0  0  0  0  0  0  0
  -12.2931   30.1036  -13.5349 H   0  0  0  0  0  0  0  0  0  0  0  0
  -13.4293   31.2651  -12.7275 H   0  0  0  0  0  0  0  0  0  0  0  0
  -10.7660   31.9245  -13.9791 H   0  0  0  0  0  0  0  0  0  0  0  0
  -11.5020   30.9773  -11.2611 H   0  0  0  0  0  0  0  0  0  0  0  0
  -10.9140   32.9525  -10.0061 H   0  0  0  0  0  0  0  0  0  0  0  0
  -11.9586   34.9084  -11.6433 H   0  0  0  0  0  0  0  0  0  0  0  0
  -16.9723   34.4700   -7.6120 H   0  0  0  0  0  0  0  0  0  0  0  0
  -15.3178   34.0878   -9.4077 H   0  0  0  0  0  0  0  0  0  0  0  0
  -16.4618   32.8284  -11.9851 H   0  0  0  0  0  0  0  0  0  0  0  0
  -14.2065   33.2243  -12.9163 H   0  0  0  0  0  0  0  0  0  0  0  0
  -13.7761   35.6962  -11.7256 H   0  0  0  0  0  0  0  0  0  0  0  0
  -15.5735   36.6853  -13.2112 H   0  0  0  0  0  0  0  0  0  0  0  0
  -14.2339   35.7682  -13.9765 H   0  0  0  0  0  0  0  0  0  0  0  0
  -21.7729   33.8001   -8.1738 H   0  0  0  0  0  0  0  0  0  0  0  0
  -22.8035   33.5240   -9.6036 H   0  0  0  0  0  0  0  0  0  0  0  0
   -9.2543   34.0218  -10.3985 H   0  0  0  0  0  0  0  0  0  0  0  0
   -9.2536   30.9521  -11.0281 H   0  0  0  0  0  0  0  0  0  0  0  0
  -15.4818   32.0114   -9.6217 H   0  0  0  0  0  0  0  0  0  0  0  0
  1  2  2  0
  1  4  1  0
  2 18  1  0
  3 13  1  0
  3 16  1  0
  4  5  2  0
  4 21  1  0
  5  6  1  0
  5 20  1  0
  6 18  2  0
  6 19  1  0
  8  7  1  0
  7 31  1  0
  8  9  1  0
  8 32  1  0
  9 10  1  0
  9 24  1  0
 10 11  1  0
 10 23  1  0
 11 32  1  0
 11 33  1  0
 12 19  1  0
 12 20  2  0
 13 14  1  0
 13 19  1  0
 14 15  1  0
 14 25  1  0
 15 16  1  0
 15 33  1  0
 16 17  1  0
 17 22  1  0
 22 34  1  0
 26 34  2  0
 34 27  1  6
 28 34  1  0
 28 35  1  0
 29 35  2  0
 35 30  1  1
 31 35  1  0
  2 36  1  0
  7 37  1  0
  7 38  1  0
  8 39  1  6
  9 40  1  1
 10 41  1  1
 11 42  1  6
 12 43  1  0
 13 44  1  1
 14 45  1  6
 15 46  1  6
 16 47  1  1
 17 48  1  0
 17 49  1  0
 21 50  1  0
 21 51  1  0
 23 52  1  0
 24 53  1  0
 25 54  1  0
M  CHG  2  27  -1  30  -1
M  END
>  <filename_input>  (11) 
7UXS_OJC_docked.sdf

>  <pdb_id>  (11) 
7UXS_OJC

>  <pose_rank>  (11) 
10

>  <num_atoms_heavy>  (11) 
35

>  <num_torsions>  (11) 
1

>  <pose>  (11) 
[-15.785406147202325, 35.39954917209336, -11.03612852578419, 3.4802306135596353, -0.39359004144950216, 1.1432425625544822, -3.465961559105862]

>  <energy>  (11) 
-629.3108980402011

>  <inter_energy>  (11) 
-636.9105597249095

>  <intra_energy>  (11) 
12.743457020779495

>  <rmsd>  (11) 
6.60136

>  <sdf_rank>  (11) 
0

$$$$

     RDKit          3D

 54 58  0  0  0  0  0  0  0  0999 V2000
  -15.2618   26.5419  -18.5788 N   0  0  0  0  0  0  0  0  0  0  0  0
  -14.3067   26.5622  -17.6405 C   0  0  0  0  0  0  0  0  0  0  0  0
  -14.4959   29.5418  -14.0498 O   0  0  0  0  0  0  0  0  0  0  0  0
  -16.0346   27.6356  -18.7436 C   0  0  0  0  0  0  0  0  0  0  0  0
  -15.7667   28.7526  -17.9281 C   0  0  0  0  0  0  0  0  0  0  0  0
  -14.7346   28.6255  -17.0206 C   0  0  0  0  0  0  0  0  0  0  0  0
  -11.7408   34.3965  -12.3635 C   0  0  0  0  0  0  0  0  0  0  0  0
  -10.9738   33.4283  -11.4958 C   0  0  2  0  0  0  0  0  0  0  0  0
   -9.7052   32.9434  -12.2050 C   0  0  2  0  0  0  0  0  0  0  0  0
   -9.7744   31.4221  -12.0694 C   0  0  2  0  0  0  0  0  0  0  0  0
  -11.2793   31.1861  -11.9973 C   0  0  1  0  0  0  0  0  0  0  0  0
  -15.6859   30.5896  -16.8740 C   0  0  0  0  0  0  0  0  0  0  0  0
  -13.8698   30.1150  -15.1796 C   0  0  2  0  0  0  0  0  0  0  0  0
  -13.7214   31.5974  -14.8221 C   0  0  1  0  0  0  0  0  0  0  0  0
  -13.2355   31.4543  -13.3770 C   0  0  1  0  0  0  0  0  0  0  0  0
  -14.0102   30.2348  -12.8741 C   0  0  1  0  0  0  0  0  0  0  0  0
  -15.1826   30.5515  -11.9799 C   0  0  0  0  0  0  0  0  0  0  0  0
  -13.9644   27.5542  -16.8190 N   0  0  0  0  0  0  0  0  0  0  0  0
  -14.6921   29.8188  -16.3296 N   0  0  0  0  0  0  0  0  0  0  0  0
  -16.3654   29.9982  -17.8291 N   0  0  0  0  0  0  0  0  0  0  0  0
  -17.0320   27.5949  -19.6495 N   0  0  0  0  0  0  0  0  0  0  0  0
  -15.9356   31.6580  -12.5496 O   0  0  0  0  0  0  0  0  0  0  0  0
   -9.1386   30.8985  -10.9068 O   0  0  0  0  0  0  0  0  0  0  0  0
   -8.5272   33.4819  -11.6156 O   0  0  0  0  0  0  0  0  0  0  0  0
  -12.8040   32.2438  -15.6810 O   0  0  0  0  0  0  0  0  0  0  0  0
  -15.5812   33.1282  -10.4754 O   0  0  0  0  0  0  0  0  0  0  0  0
  -17.4411   33.6185  -12.1701 O   0  0  0  0  0  0  0  0  0  0  0  0
  -15.0340   33.9733  -12.7731 O   0  0  0  0  0  0  0  0  0  0  0  0
  -15.0170   36.2162  -11.6090 O   0  0  0  0  0  0  0  0  0  0  0  0
  -13.8231   35.7985  -13.8415 O   0  0  0  0  0  0  0  0  0  0  0  0
  -12.9523   34.8461  -11.7252 O   0  0  0  0  0  0  0  0  0  0  0  0
  -11.7621   32.2581  -11.2063 O   0  0  0  0  0  0  0  0  0  0  0  0
  -11.8174   31.2189  -13.3114 O   0  0  0  0  0  0  0  0  0  0  0  0
  -16.0303   33.1167  -11.8754 P   0  0  2  0  0  0  0  0  0  0  0  0
  -14.2341   35.3248  -12.5030 P   0  0  2  0  0  0  0  0  0  0  0  0
  -13.7258   25.6343  -17.5333 H   0  0  0  0  0  0  0  0  0  0  0  0
  -11.1039   35.2687  -12.5721 H   0  0  0  0  0  0  0  0  0  0  0  0
  -12.0175   33.8765  -13.2925 H   0  0  0  0  0  0  0  0  0  0  0  0
  -10.7222   33.9675  -10.5706 H   0  0  0  0  0  0  0  0  0  0  0  0
   -9.6559   33.2695  -13.2544 H   0  0  0  0  0  0  0  0  0  0  0  0
   -9.2474   30.9189  -12.8935 H   0  0  0  0  0  0  0  0  0  0  0  0
  -11.5576   30.2133  -11.5659 H   0  0  0  0  0  0  0  0  0  0  0  0
  -15.8962   31.6161  -16.5394 H   0  0  0  0  0  0  0  0  0  0  0  0
  -12.8735   29.7266  -15.4372 H   0  0  0  0  0  0  0  0  0  0  0  0
  -14.6208   32.2217  -14.9282 H   0  0  0  0  0  0  0  0  0  0  0  0
  -13.4050   32.3629  -12.7806 H   0  0  0  0  0  0  0  0  0  0  0  0
  -13.3249   29.6370  -12.2553 H   0  0  0  0  0  0  0  0  0  0  0  0
  -15.8324   29.6677  -11.8989 H   0  0  0  0  0  0  0  0  0  0  0  0
  -14.8190   30.8291  -10.9795 H   0  0  0  0  0  0  0  0  0  0  0  0
  -17.6334   28.4190  -19.7907 H   0  0  0  0  0  0  0  0  0  0  0  0
  -17.1926   26.7396  -20.2005 H   0  0  0  0  0  0  0  0  0  0  0  0
   -9.5793   31.2614  -10.0979 H   0  0  0  0  0  0  0  0  0  0  0  0
   -8.6056   33.4461  -10.6294 H   0  0  0  0  0  0  0  0  0  0  0  0
  -12.1261   32.7216  -15.1404 H   0  0  0  0  0  0  0  0  0  0  0  0
  1  2  2  0
  1  4  1  0
  2 18  1  0
  3 13  1  0
  3 16  1  0
  4  5  2  0
  4 21  1  0
  5  6  1  0
  5 20  1  0
  6 18  2  0
  6 19  1  0
  8  7  1  0
  7 31  1  0
  8  9  1  0
  8 32  1  0
  9 10  1  0
  9 24  1  0
 10 11  1  0
 10 23  1  0
 11 32  1  0
 11 33  1  0
 12 19  1  0
 12 20  2  0
 13 14  1  0
 13 19  1  0
 14 15  1  0
 14 25  1  0
 15 16  1  0
 15 33  1  0
 16 17  1  0
 17 22  1  0
 22 34  1  0
 26 34  2  0
 34 27  1  1
 28 34  1  0
 28 35  1  0
 29 35  2  0
 35 30  1  6
 31 35  1  0
  2 36  1  0
  7 37  1  0
  7 38  1  0
  8 39  1  1
  9 40  1  6
 10 41  1  6
 11 42  1  1
 12 43  1  0
 13 44  1  6
 14 45  1  1
 15 46  1  1
 16 47  1  1
 17 48  1  0
 17 49  1  0
 21 50  1  0
 21 51  1  0
 23 52  1  0
 24 53  1  0
 25 54  1  0
M  CHG  2  27  -1  30  -1
M  END
>  <filename_input>  (12) 
7UXS_OJC_docked.sdf

>  <pdb_id>  (12) 
7UXS_OJC

>  <pose_rank>  (12) 
11

>  <num_atoms_heavy>  (12) 
35

>  <num_torsions>  (12) 
1

>  <pose>  (12) 
[-14.495873901467704, 29.541785151391938, -14.049839319763212, 5.286758061446703, -1.5517381470930338, -3.0013778861130227, 0.16977043048359008]

>  <energy>  (12) 
-871.1728736323174

>  <inter_energy>  (12) 
-856.6372033550568

>  <intra_energy>  (12) 
0.22034984155300535

>  <rmsd>  (12) 
0.43692

>  <sdf_rank>  (12) 
0

$$$$

     RDKit          3D

 54 58  0  0  0  0  0  0  0  0999 V2000
  -20.2028   33.3793  -12.5290 N   0  0  0  0  0  0  0  0  0  0  0  0
  -19.0442   33.5496  -13.1783 C   0  0  0  0  0  0  0  0  0  0  0  0
  -15.3404   35.6211  -11.6770 O   0  0  0  0  0  0  0  0  0  0  0  0
  -20.2240   33.5252  -11.1878 C   0  0  0  0  0  0  0  0  0  0  0  0
  -19.0183   33.8788  -10.5509 C   0  0  0  0  0  0  0  0  0  0  0  0
  -17.9120   34.0384  -11.3605 C   0  0  0  0  0  0  0  0  0  0  0  0
  -11.4215   31.6893  -13.4617 C   0  0  0  0  0  0  0  0  0  0  0  0
  -10.4439   32.7662  -13.0577 C   0  0  2  0  0  0  0  0  0  0  0  0
   -9.9879   32.5764  -11.6075 C   0  0  2  0  0  0  0  0  0  0  0  0
  -10.1935   33.9556  -10.9805 C   0  0  2  0  0  0  0  0  0  0  0  0
  -11.3396   34.5094  -11.8203 C   0  0  1  0  0  0  0  0  0  0  0  0
  -17.4122   34.3661   -9.2566 C   0  0  0  0  0  0  0  0  0  0  0  0
  -15.4743   34.4633  -10.8782 C   0  0  2  0  0  0  0  0  0  0  0  0
  -14.9070   33.3344  -11.7449 C   0  0  1  0  0  0  0  0  0  0  0  0
  -13.6571   34.0392  -12.2794 C   0  0  1  0  0  0  0  0  0  0  0  0
  -14.1281   35.4837  -12.4580 C   0  0  1  0  0  0  0  0  0  0  0  0
  -14.4213   35.8848  -13.8819 C   0  0  0  0  0  0  0  0  0  0  0  0
  -17.8520   33.8837  -12.6849 N   0  0  0  0  0  0  0  0  0  0  0  0
  -16.8670   34.3449  -10.5137 N   0  0  0  0  0  0  0  0  0  0  0  0
  -18.6944   34.0866   -9.2198 N   0  0  0  0  0  0  0  0  0  0  0  0
  -21.3779   33.2990  -10.5286 N   0  0  0  0  0  0  0  0  0  0  0  0
  -15.1811   34.8280  -14.5314 O   0  0  0  0  0  0  0  0  0  0  0  0
   -9.0637   34.8200  -11.0598 O   0  0  0  0  0  0  0  0  0  0  0  0
   -8.6337   32.1467  -11.5273 O   0  0  0  0  0  0  0  0  0  0  0  0
  -14.6374   32.1808  -10.9744 O   0  0  0  0  0  0  0  0  0  0  0  0
  -13.3892   34.4800  -16.3362 O   0  0  0  0  0  0  0  0  0  0  0  0
  -15.7942   33.6504  -16.6508 O   0  0  0  0  0  0  0  0  0  0  0  0
  -14.2681   32.5526  -14.9925 O   0  0  0  0  0  0  0  0  0  0  0  0
  -13.1811   31.1840  -16.8177 O   0  0  0  0  0  0  0  0  0  0  0  0
  -13.7203   30.2302  -14.4974 O   0  0  0  0  0  0  0  0  0  0  0  0
  -11.8833   31.8637  -14.8159 O   0  0  0  0  0  0  0  0  0  0  0  0
  -11.0505   34.0703  -13.1362 O   0  0  0  0  0  0  0  0  0  0  0  0
  -12.5652   33.9719  -11.3444 O   0  0  0  0  0  0  0  0  0  0  0  0
  -14.6069   33.9209  -15.7309 P   0  0  2  0  0  0  0  0  0  0  0  0
  -13.2760   31.3566  -15.3453 P   0  0  2  0  0  0  0  0  0  0  0  0
  -19.0814   33.3923  -14.2663 H   0  0  0  0  0  0  0  0  0  0  0  0
  -10.9270   30.7103  -13.3779 H   0  0  0  0  0  0  0  0  0  0  0  0
  -12.2930   31.7518  -12.7935 H   0  0  0  0  0  0  0  0  0  0  0  0
   -9.5910   32.6909  -13.7483 H   0  0  0  0  0  0  0  0  0  0  0  0
  -10.5525   31.7897  -11.0856 H   0  0  0  0  0  0  0  0  0  0  0  0
  -10.3807   33.8835   -9.8989 H   0  0  0  0  0  0  0  0  0  0  0  0
  -11.4360   35.6042  -11.7757 H   0  0  0  0  0  0  0  0  0  0  0  0
  -16.8255   34.5975   -8.3553 H   0  0  0  0  0  0  0  0  0  0  0  0
  -14.9309   34.4626   -9.9217 H   0  0  0  0  0  0  0  0  0  0  0  0
  -15.5656   32.9405  -12.5329 H   0  0  0  0  0  0  0  0  0  0  0  0
  -13.2743   33.5812  -13.2034 H   0  0  0  0  0  0  0  0  0  0  0  0
  -13.3104   36.1433  -12.1320 H   0  0  0  0  0  0  0  0  0  0  0  0
  -15.0070   36.8158  -13.8884 H   0  0  0  0  0  0  0  0  0  0  0  0
  -13.4765   36.0450  -14.4220 H   0  0  0  0  0  0  0  0  0  0  0  0
  -21.4154   33.4048   -9.5048 H   0  0  0  0  0  0  0  0  0  0  0  0
  -22.2220   33.0204  -11.0488 H   0  0  0  0  0  0  0  0  0  0  0  0
   -8.7607   35.0518  -10.1462 H   0  0  0  0  0  0  0  0  0  0  0  0
   -8.3697   32.0629  -10.5768 H   0  0  0  0  0  0  0  0  0  0  0  0
  -14.6902   32.4069  -10.0120 H   0  0  0  0  0  0  0  0  0  0  0  0
  1  2  2  0
  1  4  1  0
  2 18  1  0
  3 13  1  0
  3 16  1  0
  4  5  2  0
  4 21  1  0
  5  6  1  0
  5 20  1  0
  6 18  2  0
  6 19  1  0
  8  7  1  0
  7 31  1  0
  8  9  1  0
  8 32  1  0
  9 10  1  0
  9 24  1  0
 10 11  1  0
 10 23  1  0
 11 32  1  0
 11 33  1  0
 12 19  1  0
 12 20  2  0
 13 14  1  0
 13 19  1  0
 14 15  1  0
 14 25  1  0
 15 16  1  0
 15 33  1  0
 16 17  1  0
 17 22  1  0
 22 34  1  0
 26 34  2  0
 34 27  1  6
 28 34  1  0
 28 35  1  0
 29 35  2  0
 35 30  1  1
 31 35  1  0
  2 36  1  0
  7 37  1  0
  7 38  1  0
  8 39  1  6
  9 40  1  1
 10 41  1  1
 11 42  1  6
 12 43  1  0
 13 44  1  1
 14 45  1  6
 15 46  1  6
 16 47  1  1
 17 48  1  0
 17 49  1  0
 21 50  1  0
 21 51  1  0
 23 52  1  0
 24 53  1  0
 25 54  1  0
M  CHG  2  27  -1  30  -1
M  END
>  <filename_input>  (13) 
7UXS_OJC_docked.sdf

>  <pdb_id>  (13) 
7UXS_OJC

>  <pose_rank>  (13) 
12

>  <num_atoms_heavy>  (13) 
35

>  <num_torsions>  (13) 
1

>  <pose>  (13) 
[-15.34042887204653, 35.62112882960203, -11.677048514275858, 3.44158369329365, -0.07227362965625714, 1.3036282995920108, 2.761832683344943]

>  <energy>  (13) 
-711.6917579781771

>  <inter_energy>  (13) 
-715.0290321143077

>  <intra_energy>  (13) 
12.253291003371785

>  <rmsd>  (13) 
6.18101

>  <sdf_rank>  (13) 
0

$$$$

     RDKit          3D

 54 58  0  0  0  0  0  0  0  0999 V2000
  -14.8006   27.1420  -18.9002 N   0  0  0  0  0  0  0  0  0  0  0  0
  -13.8218   27.1763  -17.9870 C   0  0  0  0  0  0  0  0  0  0  0  0
  -14.4758   29.7672  -13.9267 O   0  0  0  0  0  0  0  0  0  0  0  0
  -15.7369   28.1133  -18.8864 C   0  0  0  0  0  0  0  0  0  0  0  0
  -15.6087   29.1293  -17.9191 C   0  0  0  0  0  0  0  0  0  0  0  0
  -14.5329   29.0361  -17.0596 C   0  0  0  0  0  0  0  0  0  0  0  0
  -11.6694   34.5332  -12.0797 C   0  0  0  0  0  0  0  0  0  0  0  0
  -10.9255   33.5306  -11.2313 C   0  0  2  0  0  0  0  0  0  0  0  0
   -9.6566   33.0467  -11.9406 C   0  0  2  0  0  0  0  0  0  0  0  0
   -9.7491   31.5234  -11.8475 C   0  0  2  0  0  0  0  0  0  0  0  0
  -11.2578   31.3076  -11.7972 C   0  0  1  0  0  0  0  0  0  0  0  0
  -15.7651   30.7852  -16.6053 C   0  0  0  0  0  0  0  0  0  0  0  0
  -13.8298   30.3618  -15.0338 C   0  0  2  0  0  0  0  0  0  0  0  0
  -13.6639   31.8316  -14.6342 C   0  0  1  0  0  0  0  0  0  0  0  0
  -13.1954   31.6420  -13.1888 C   0  0  1  0  0  0  0  0  0  0  0  0
  -13.9927   30.4206  -12.7275 C   0  0  1  0  0  0  0  0  0  0  0  0
  -15.1698   30.7299  -11.8368 C   0  0  0  0  0  0  0  0  0  0  0  0
  -13.6010   28.0809  -17.0336 N   0  0  0  0  0  0  0  0  0  0  0  0
  -14.6441   30.1092  -16.1998 N   0  0  0  0  0  0  0  0  0  0  0  0
  -16.3855   30.2384  -17.6251 N   0  0  0  0  0  0  0  0  0  0  0  0
  -16.7529   28.0478  -19.7699 N   0  0  0  0  0  0  0  0  0  0  0  0
  -15.9008   31.8625  -12.3835 O   0  0  0  0  0  0  0  0  0  0  0  0
   -9.1331   30.9591  -10.6933 O   0  0  0  0  0  0  0  0  0  0  0  0
   -8.4773   33.5517  -11.3247 O   0  0  0  0  0  0  0  0  0  0  0  0
  -12.7283   32.4878  -15.4657 O   0  0  0  0  0  0  0  0  0  0  0  0
  -15.5473   33.2701  -10.2663 O   0  0  0  0  0  0  0  0  0  0  0  0
  -17.3820   33.8336  -11.9656 O   0  0  0  0  0  0  0  0  0  0  0  0
  -14.9638   34.1695  -12.5342 O   0  0  0  0  0  0  0  0  0  0  0  0
  -14.9269   36.3793  -11.3088 O   0  0  0  0  0  0  0  0  0  0  0  0
  -13.7157   36.0054  -13.5398 O   0  0  0  0  0  0  0  0  0  0  0  0
  -12.8810   34.9829  -11.4416 O   0  0  0  0  0  0  0  0  0  0  0  0
  -11.7335   32.3645  -10.9819 O   0  0  0  0  0  0  0  0  0  0  0  0
  -11.7815   31.3842  -13.1153 O   0  0  0  0  0  0  0  0  0  0  0  0
  -15.9817   33.3035  -11.6705 P   0  0  2  0  0  0  0  0  0  0  0  0
  -14.1475   35.5013  -12.2190 P   0  0  2  0  0  0  0  0  0  0  0  0
  -13.1025   26.3451  -18.0296 H   0  0  0  0  0  0  0  0  0  0  0  0
  -11.0179   35.4014  -12.2578 H   0  0  0  0  0  0  0  0  0  0  0  0
  -11.9437   34.0429  -13.0254 H   0  0  0  0  0  0  0  0  0  0  0  0
  -10.6760   34.0405  -10.2891 H   0  0  0  0  0  0  0  0  0  0  0  0
   -9.5916   33.4006  -12.9800 H   0  0  0  0  0  0  0  0  0  0  0  0
   -9.2207   31.0353  -12.6797 H   0  0  0  0  0  0  0  0  0  0  0  0
  -11.5546   30.3275  -11.3955 H   0  0  0  0  0  0  0  0  0  0  0  0
  -16.1152   31.7071  -16.1181 H   0  0  0  0  0  0  0  0  0  0  0  0
  -12.8364   29.9661  -15.2919 H   0  0  0  0  0  0  0  0  0  0  0  0
  -14.5531   32.4716  -14.7323 H   0  0  0  0  0  0  0  0  0  0  0  0
  -13.3581   32.5364  -12.5694 H   0  0  0  0  0  0  0  0  0  0  0  0
  -13.3226   29.7962  -12.1184 H   0  0  0  0  0  0  0  0  0  0  0  0
  -15.8331   29.8538  -11.7867 H   0  0  0  0  0  0  0  0  0  0  0  0
  -14.8128   30.9747  -10.8256 H   0  0  0  0  0  0  0  0  0  0  0  0
  -17.4781   28.7792  -19.7760 H   0  0  0  0  0  0  0  0  0  0  0  0
  -16.8041   27.2663  -20.4389 H   0  0  0  0  0  0  0  0  0  0  0  0
   -9.5479   31.3391   -9.8787 H   0  0  0  0  0  0  0  0  0  0  0  0
   -8.5752   33.5098  -10.3404 H   0  0  0  0  0  0  0  0  0  0  0  0
  -12.0603   32.9564  -14.9052 H   0  0  0  0  0  0  0  0  0  0  0  0
  1  2  2  0
  1  4  1  0
  2 18  1  0
  3 13  1  0
  3 16  1  0
  4  5  2  0
  4 21  1  0
  5  6  1  0
  5 20  1  0
  6 18  2  0
  6 19  1  0
  8  7  1  0
  7 31  1  0
  8  9  1  0
  8 32  1  0
  9 10  1  0
  9 24  1  0
 10 11  1  0
 10 23  1  0
 11 32  1  0
 11 33  1  0
 12 19  1  0
 12 20  2  0
 13 14  1  0
 13 19  1  0
 14 15  1  0
 14 25  1  0
 15 16  1  0
 15 33  1  0
 16 17  1  0
 17 22  1  0
 22 34  1  0
 26 34  2  0
 34 27  1  1
 28 34  1  0
 28 35  1  0
 29 35  2  0
 35 30  1  6
 31 35  1  0
  2 36  1  0
  7 37  1  0
  7 38  1  0
  8 39  1  1
  9 40  1  6
 10 41  1  6
 11 42  1  1
 12 43  1  0
 13 44  1  6
 14 45  1  1
 15 46  1  1
 16 47  1  1
 17 48  1  0
 17 49  1  0
 21 50  1  0
 21 51  1  0
 23 52  1  0
 24 53  1  0
 25 54  1  0
M  CHG  2  27  -1  30  -1
M  END
>  <filename_input>  (14) 
7UXS_OJC_docked.sdf

>  <pdb_id>  (14) 
7UXS_OJC

>  <pose_rank>  (14) 
13

>  <num_atoms_heavy>  (14) 
35

>  <num_torsions>  (14) 
1

>  <pose>  (14) 
[-14.475838537512411, 29.767196306736288, -13.926654240907366, 5.269804999530757, -2.1597472257458126, -2.7096412551242453, -0.04226847649915088]

>  <energy>  (14) 
-886.8892353403353

>  <inter_energy>  (14) 
-889.3835423162636

>  <intra_energy>  (14) 
0.0

>  <rmsd>  (14) 
0.28463

>  <sdf_rank>  (14) 
0

$$$$

     RDKit          3D

 54 58  0  0  0  0  0  0  0  0999 V2000
  -15.0144   27.0808  -18.9341 N   0  0  0  0  0  0  0  0  0  0  0  0
  -14.0238   27.1572  -18.0364 C   0  0  0  0  0  0  0  0  0  0  0  0
  -14.7251   29.8315  -13.9931 O   0  0  0  0  0  0  0  0  0  0  0  0
  -15.9794   28.0236  -18.9191 C   0  0  0  0  0  0  0  0  0  0  0  0
  -15.8678   29.0563  -17.9675 C   0  0  0  0  0  0  0  0  0  0  0  0
  -14.7771   29.0074  -17.1232 C   0  0  0  0  0  0  0  0  0  0  0  0
  -11.8884   34.6526  -12.3461 C   0  0  0  0  0  0  0  0  0  0  0  0
  -11.1422   33.6796  -11.4657 C   0  0  2  0  0  0  0  0  0  0  0  0
   -9.8801   33.1644  -12.1650 C   0  0  2  0  0  0  0  0  0  0  0  0
   -9.9775   31.6461  -12.0140 C   0  0  2  0  0  0  0  0  0  0  0  0
  -11.4866   31.4383  -11.9452 C   0  0  1  0  0  0  0  0  0  0  0  0
  -16.0549   30.7247  -16.6738 C   0  0  0  0  0  0  0  0  0  0  0  0
  -14.0847   30.3815  -15.1262 C   0  0  2  0  0  0  0  0  0  0  0  0
  -13.9106   31.8646  -14.7834 C   0  0  1  0  0  0  0  0  0  0  0  0
  -13.4327   31.7277  -13.3351 C   0  0  1  0  0  0  0  0  0  0  0  0
  -14.2312   30.5276  -12.8227 C   0  0  1  0  0  0  0  0  0  0  0  0
  -15.4009   30.8748  -11.9362 C   0  0  0  0  0  0  0  0  0  0  0  0
  -13.8164   28.0811  -17.0986 N   0  0  0  0  0  0  0  0  0  0  0  0
  -14.9080   30.0884  -16.2763 N   0  0  0  0  0  0  0  0  0  0  0  0
  -16.6734   30.1454  -17.6766 N   0  0  0  0  0  0  0  0  0  0  0  0
  -17.0059   27.9153  -19.7861 N   0  0  0  0  0  0  0  0  0  0  0  0
  -16.1315   31.9889  -12.5201 O   0  0  0  0  0  0  0  0  0  0  0  0
   -9.3555   31.1232  -10.8437 O   0  0  0  0  0  0  0  0  0  0  0  0
   -8.6947   33.6875  -11.5767 O   0  0  0  0  0  0  0  0  0  0  0  0
  -12.9785   32.4854  -15.6454 O   0  0  0  0  0  0  0  0  0  0  0  0
  -15.7581   33.4738  -10.4598 O   0  0  0  0  0  0  0  0  0  0  0  0
  -17.6026   33.9802  -12.1665 O   0  0  0  0  0  0  0  0  0  0  0  0
  -15.1872   34.2850  -12.7639 O   0  0  0  0  0  0  0  0  0  0  0  0
  -15.1336   36.5391  -11.6229 O   0  0  0  0  0  0  0  0  0  0  0  0
  -13.9395   36.0767  -13.8464 O   0  0  0  0  0  0  0  0  0  0  0  0
  -13.0938   35.1307  -11.7171 O   0  0  0  0  0  0  0  0  0  0  0  0
  -11.9527   32.5269  -11.1671 O   0  0  0  0  0  0  0  0  0  0  0  0
  -12.0193   31.4672  -13.2616 O   0  0  0  0  0  0  0  0  0  0  0  0
  -16.2022   33.4560  -11.8613 P   0  0  2  0  0  0  0  0  0  0  0  0
  -14.3639   35.6245  -12.5047 P   0  0  2  0  0  0  0  0  0  0  0  0
  -13.2803   26.3475  -18.0788 H   0  0  0  0  0  0  0  0  0  0  0  0
  -11.2349   35.5109  -12.5613 H   0  0  0  0  0  0  0  0  0  0  0  0
  -12.1711   34.1281  -13.2708 H   0  0  0  0  0  0  0  0  0  0  0  0
  -10.8842   34.2236  -10.5451 H   0  0  0  0  0  0  0  0  0  0  0  0
   -9.8210   33.4787  -13.2175 H   0  0  0  0  0  0  0  0  0  0  0  0
   -9.4568   31.1250  -12.8309 H   0  0  0  0  0  0  0  0  0  0  0  0
  -11.7841   30.4751  -11.5050 H   0  0  0  0  0  0  0  0  0  0  0  0
  -16.4256   31.6423  -16.1936 H   0  0  0  0  0  0  0  0  0  0  0  0
  -13.0946   29.9724  -15.3760 H   0  0  0  0  0  0  0  0  0  0  0  0
  -14.7981   32.5040  -14.8994 H   0  0  0  0  0  0  0  0  0  0  0  0
  -13.5878   32.6453  -12.7487 H   0  0  0  0  0  0  0  0  0  0  0  0
  -13.5591   29.9239  -12.1951 H   0  0  0  0  0  0  0  0  0  0  0  0
  -16.0670   30.0038  -11.8487 H   0  0  0  0  0  0  0  0  0  0  0  0
  -15.0359   31.1561  -10.9374 H   0  0  0  0  0  0  0  0  0  0  0  0
  -17.7529   28.6245  -19.7910 H   0  0  0  0  0  0  0  0  0  0  0  0
  -17.0432   27.1235  -20.4438 H   0  0  0  0  0  0  0  0  0  0  0  0
   -9.7983   31.4954  -10.0402 H   0  0  0  0  0  0  0  0  0  0  0  0
   -8.7728   33.6531  -10.5904 H   0  0  0  0  0  0  0  0  0  0  0  0
  -12.2870   32.9460  -15.1071 H   0  0  0  0  0  0  0  0  0  0  0  0
  1  2  2  0
  1  4  1  0
  2 18  1  0
  3 13  1  0
  3 16  1  0
  4  5  2  0
  4 21  1  0
  5  6  1  0
  5 20  1  0
  6 18  2  0
  6 19  1  0
  8  7  1  0
  7 31  1  0
  8  9  1  0
  8 32  1  0
  9 10  1  0
  9 24  1  0
 10 11  1  0
 10 23  1  0
 11 32  1  0
 11 33  1  0
 12 19  1  0
 12 20  2  0
 13 14  1  0
 13 19  1  0
 14 15  1  0
 14 25  1  0
 15 16  1  0
 15 33  1  0
 16 17  1  0
 17 22  1  0
 22 34  1  0
 26 34  2  0
 34 27  1  1
 28 34  1  0
 28 35  1  0
 29 35  2  0
 35 30  1  6
 31 35  1  0
  2 36  1  0
  7 37  1  0
  7 38  1  0
  8 39  1  1
  9 40  1  6
 10 41  1  6
 11 42  1  1
 12 43  1  0
 13 44  1  6
 14 45  1  1
 15 46  1  1
 16 47  1  1
 17 48  1  0
 17 49  1  0
 21 50  1  0
 21 51  1  0
 23 52  1  0
 24 53  1  0
 25 54  1  0
M  CHG  2  27  -1  30  -1
M  END
>  <filename_input>  (15) 
7UXS_OJC_docked.sdf

>  <pdb_id>  (15) 
7UXS_OJC

>  <pose_rank>  (15) 
14

>  <num_atoms_heavy>  (15) 
35

>  <num_torsions>  (15) 
1

>  <pose>  (15) 
[-14.725124379518046, 29.83147817623171, -13.993074567054755, 4.925855387278184, 0.3922424021394815, 3.843989213552028, -0.08466657343020804]

>  <energy>  (15) 
-881.1275781554416

>  <inter_energy>  (15) 
-882.5652888196869

>  <intra_energy>  (15) 
0.0

>  <rmsd>  (15) 
0.18505

>  <sdf_rank>  (15) 
0

$$$$

     RDKit          3D

 54 58  0  0  0  0  0  0  0  0999 V2000
  -15.0845   26.3552  -18.4988 N   0  0  0  0  0  0  0  0  0  0  0  0
  -14.0804   26.4459  -17.6176 C   0  0  0  0  0  0  0  0  0  0  0  0
  -14.4013   29.4845  -13.9399 O   0  0  0  0  0  0  0  0  0  0  0  0
  -15.9576   27.3792  -18.5973 C   0  0  0  0  0  0  0  0  0  0  0  0
  -15.7392   28.5038  -17.7776 C   0  0  0  0  0  0  0  0  0  0  0  0
  -14.6477   28.4549  -16.9343 C   0  0  0  0  0  0  0  0  0  0  0  0
  -11.5547   34.3973  -12.6117 C   0  0  0  0  0  0  0  0  0  0  0  0
  -10.7683   33.4708  -11.7162 C   0  0  2  0  0  0  0  0  0  0  0  0
   -9.5270   32.9351  -12.4367 C   0  0  2  0  0  0  0  0  0  0  0  0
   -9.6042   31.4243  -12.2150 C   0  0  2  0  0  0  0  0  0  0  0  0
  -11.1079   31.2076  -12.0829 C   0  0  1  0  0  0  0  0  0  0  0  0
  -15.7550   30.3259  -16.6949 C   0  0  0  0  0  0  0  0  0  0  0  0
  -13.8067   29.9884  -15.1186 C   0  0  2  0  0  0  0  0  0  0  0  0
  -13.6349   31.4867  -14.8485 C   0  0  1  0  0  0  0  0  0  0  0  0
  -13.1047   31.4187  -13.4137 C   0  0  1  0  0  0  0  0  0  0  0  0
  -13.8729   30.2364  -12.8200 C   0  0  1  0  0  0  0  0  0  0  0  0
  -15.0137   30.6134  -11.9085 C   0  0  0  0  0  0  0  0  0  0  0  0
  -13.7769   27.4525  -16.7985 N   0  0  0  0  0  0  0  0  0  0  0  0
  -14.6675   29.6375  -16.2242 N   0  0  0  0  0  0  0  0  0  0  0  0
  -16.4366   29.6906  -17.6199 N   0  0  0  0  0  0  0  0  0  0  0  0
  -17.0000   27.2639  -19.4441 N   0  0  0  0  0  0  0  0  0  0  0  0
  -15.7754   31.6943  -12.5148 O   0  0  0  0  0  0  0  0  0  0  0  0
   -8.9361   30.9593  -11.0456 O   0  0  0  0  0  0  0  0  0  0  0  0
   -8.3265   33.4936  -11.9151 O   0  0  0  0  0  0  0  0  0  0  0  0
  -12.7401   32.0758  -15.7702 O   0  0  0  0  0  0  0  0  0  0  0  0
  -15.3434   33.2729  -10.5373 O   0  0  0  0  0  0  0  0  0  0  0  0
  -17.2521   33.6875  -12.1976 O   0  0  0  0  0  0  0  0  0  0  0  0
  -14.8625   33.9847  -12.8942 O   0  0  0  0  0  0  0  0  0  0  0  0
  -14.7903   36.2881  -11.8571 O   0  0  0  0  0  0  0  0  0  0  0  0
  -13.6713   35.7363  -14.0993 O   0  0  0  0  0  0  0  0  0  0  0  0
  -12.7416   34.8933  -11.9618 O   0  0  0  0  0  0  0  0  0  0  0  0
  -11.5566   32.3261  -11.3378 O   0  0  0  0  0  0  0  0  0  0  0  0
  -11.6871   31.1732  -13.3794 O   0  0  0  0  0  0  0  0  0  0  0  0
  -15.8368   33.1888  -11.9198 P   0  0  2  0  0  0  0  0  0  0  0  0
  -14.0435   35.3411  -12.7245 P   0  0  2  0  0  0  0  0  0  0  0  0
  -13.4159   25.5711  -17.5623 H   0  0  0  0  0  0  0  0  0  0  0  0
  -10.9176   35.2504  -12.8881 H   0  0  0  0  0  0  0  0  0  0  0  0
  -11.8649   33.8297  -13.5014 H   0  0  0  0  0  0  0  0  0  0  0  0
  -10.4831   34.0576  -10.8306 H   0  0  0  0  0  0  0  0  0  0  0  0
   -9.5083   33.2024  -13.5036 H   0  0  0  0  0  0  0  0  0  0  0  0
   -9.1077   30.8713  -13.0260 H   0  0  0  0  0  0  0  0  0  0  0  0
  -11.3802   30.2627  -11.5899 H   0  0  0  0  0  0  0  0  0  0  0  0
  -16.0331   31.3252  -16.3290 H   0  0  0  0  0  0  0  0  0  0  0  0
  -12.8222   29.5766  -15.3853 H   0  0  0  0  0  0  0  0  0  0  0  0
  -14.5322   32.1131  -14.9609 H   0  0  0  0  0  0  0  0  0  0  0  0
  -13.2478   32.3604  -12.8634 H   0  0  0  0  0  0  0  0  0  0  0  0
  -13.1731   29.6668  -12.1908 H   0  0  0  0  0  0  0  0  0  0  0  0
  -15.6678   29.7419  -11.7585 H   0  0  0  0  0  0  0  0  0  0  0  0
  -14.6163   30.9421  -10.9369 H   0  0  0  0  0  0  0  0  0  0  0  0
  -17.6779   28.0341  -19.5342 H   0  0  0  0  0  0  0  0  0  0  0  0
  -17.1186   26.4057  -20.0012 H   0  0  0  0  0  0  0  0  0  0  0  0
   -9.4101   31.2892  -10.2415 H   0  0  0  0  0  0  0  0  0  0  0  0
   -8.3583   33.4788  -10.9257 H   0  0  0  0  0  0  0  0  0  0  0  0
  -12.0227   32.5481  -15.2778 H   0  0  0  0  0  0  0  0  0  0  0  0
  1  2  2  0
  1  4  1  0
  2 18  1  0
  3 13  1  0
  3 16  1  0
  4  5  2  0
  4 21  1  0
  5  6  1  0
  5 20  1  0
  6 18  2  0
  6 19  1  0
  8  7  1  0
  7 31  1  0
  8  9  1  0
  8 32  1  0
  9 10  1  0
  9 24  1  0
 10 11  1  0
 10 23  1  0
 11 32  1  0
 11 33  1  0
 12 19  1  0
 12 20  2  0
 13 14  1  0
 13 19  1  0
 14 15  1  0
 14 25  1  0
 15 16  1  0
 15 33  1  0
 16 17  1  0
 17 22  1  0
 22 34  1  0
 26 34  2  0
 34 27  1  1
 28 34  1  0
 28 35  1  0
 29 35  2  0
 35 30  1  6
 31 35  1  0
  2 36  1  0
  7 37  1  0
  7 38  1  0
  8 39  1  1
  9 40  1  6
 10 41  1  6
 11 42  1  1
 12 43  1  0
 13 44  1  6
 14 45  1  1
 15 46  1  1
 16 47  1  1
 17 48  1  0
 17 49  1  0
 21 50  1  0
 21 51  1  0
 23 52  1  0
 24 53  1  0
 25 54  1  0
M  CHG  2  27  -1  30  -1
M  END
>  <filename_input>  (16) 
7UXS_OJC_docked.sdf

>  <pdb_id>  (16) 
7UXS_OJC

>  <pose_rank>  (16) 
15

>  <num_atoms_heavy>  (16) 
35

>  <num_torsions>  (16) 
1

>  <pose>  (16) 
[-14.401250925105602, 29.4845436615068, -13.939866952977505, 5.4536509100722546, -2.9458714919882842, 0.4067035203368597, 0.046492390841314006]

>  <energy>  (16) 
-855.9489604289565

>  <inter_energy>  (16) 
-846.9393863406782

>  <intra_energy>  (16) 
0.0

>  <rmsd>  (16) 
0.605104

>  <sdf_rank>  (16) 
0

$$$$

     RDKit          3D

 54 58  0  0  0  0  0  0  0  0999 V2000
   -7.9348   32.4215  -10.9399 N   0  0  0  0  0  0  0  0  0  0  0  0
   -8.4245   33.4216  -11.6835 C   0  0  0  0  0  0  0  0  0  0  0  0
  -12.1563   34.1149  -13.1096 O   0  0  0  0  0  0  0  0  0  0  0  0
   -8.6225   31.2625  -10.8751 C   0  0  0  0  0  0  0  0  0  0  0  0
   -9.8115   31.1666  -11.6245 C   0  0  0  0  0  0  0  0  0  0  0  0
  -10.1743   32.2779  -12.3581 C   0  0  0  0  0  0  0  0  0  0  0  0
  -17.4625   33.4354  -15.4301 C   0  0  0  0  0  0  0  0  0  0  0  0
  -17.0508   34.6407  -16.2402 C   0  0  2  0  0  0  0  0  0  0  0  0
  -16.4071   34.2172  -17.5644 C   0  0  2  0  0  0  0  0  0  0  0  0
  -15.1065   35.0200  -17.6070 C   0  0  2  0  0  0  0  0  0  0  0  0
  -14.8040   35.1977  -16.1230 C   0  0  1  0  0  0  0  0  0  0  0  0
  -11.6388   30.6680  -12.5756 C   0  0  0  0  0  0  0  0  0  0  0  0
  -12.2144   32.8449  -13.7264 C   0  0  2  0  0  0  0  0  0  0  0  0
  -13.7070   32.5002  -13.7497 C   0  0  1  0  0  0  0  0  0  0  0  0
  -14.2650   33.8539  -14.1979 C   0  0  1  0  0  0  0  0  0  0  0  0
  -13.3389   34.8535  -13.5025 C   0  0  1  0  0  0  0  0  0  0  0  0
  -13.9234   35.5173  -12.2810 C   0  0  0  0  0  0  0  0  0  0  0  0
   -9.5286   33.4439  -12.4296 N   0  0  0  0  0  0  0  0  0  0  0  0
  -11.3689   31.9534  -12.9669 N   0  0  0  0  0  0  0  0  0  0  0  0
  -10.7438   30.1514  -11.7658 N   0  0  0  0  0  0  0  0  0  0  0  0
   -8.1584   30.2760  -10.0823 N   0  0  0  0  0  0  0  0  0  0  0  0
  -14.5925   34.5163  -11.4647 O   0  0  0  0  0  0  0  0  0  0  0  0
  -15.2118   36.2906  -18.2428 O   0  0  0  0  0  0  0  0  0  0  0  0
  -17.2475   34.4971  -18.6781 O   0  0  0  0  0  0  0  0  0  0  0  0
  -13.9753   31.4380  -14.6425 O   0  0  0  0  0  0  0  0  0  0  0  0
  -16.8579   35.7110  -11.6383 O   0  0  0  0  0  0  0  0  0  0  0  0
  -16.3841   33.9857   -9.8025 O   0  0  0  0  0  0  0  0  0  0  0  0
  -16.6301   33.2754  -12.1939 O   0  0  0  0  0  0  0  0  0  0  0  0
  -19.1496   33.3121  -12.0020 O   0  0  0  0  0  0  0  0  0  0  0  0
  -17.8793   31.4967  -13.2961 O   0  0  0  0  0  0  0  0  0  0  0  0
  -18.0479   33.8110  -14.1678 O   0  0  0  0  0  0  0  0  0  0  0  0
  -16.0723   35.4276  -15.5344 O   0  0  0  0  0  0  0  0  0  0  0  0
  -14.2019   34.0107  -15.6270 O   0  0  0  0  0  0  0  0  0  0  0  0
  -16.1854   34.4666  -11.2371 P   0  0  2  0  0  0  0  0  0  0  0  0
  -18.0210   32.9077  -12.8791 P   0  0  2  0  0  0  0  0  0  0  0  0
   -7.8356   34.3506  -11.6779 H   0  0  0  0  0  0  0  0  0  0  0  0
  -18.1992   32.8551  -16.0051 H   0  0  0  0  0  0  0  0  0  0  0  0
  -16.5615   32.8389  -15.2242 H   0  0  0  0  0  0  0  0  0  0  0  0
  -17.9651   35.2254  -16.4197 H   0  0  0  0  0  0  0  0  0  0  0  0
  -16.2331   33.1327  -17.6228 H   0  0  0  0  0  0  0  0  0  0  0  0
  -14.3339   34.5056  -18.1973 H   0  0  0  0  0  0  0  0  0  0  0  0
  -14.1068   36.0204  -15.9058 H   0  0  0  0  0  0  0  0  0  0  0  0
  -12.5292   30.1163  -12.9113 H   0  0  0  0  0  0  0  0  0  0  0  0
  -11.8357   32.7834  -14.7574 H   0  0  0  0  0  0  0  0  0  0  0  0
  -14.1414   32.1304  -12.8092 H   0  0  0  0  0  0  0  0  0  0  0  0
  -15.3268   33.9813  -13.9403 H   0  0  0  0  0  0  0  0  0  0  0  0
  -13.1394   35.6710  -14.2110 H   0  0  0  0  0  0  0  0  0  0  0  0
  -13.1184   35.9887  -11.6981 H   0  0  0  0  0  0  0  0  0  0  0  0
  -14.6475   36.2857  -12.5896 H   0  0  0  0  0  0  0  0  0  0  0  0
   -8.6684   29.3834  -10.0187 H   0  0  0  0  0  0  0  0  0  0  0  0
   -7.2936   30.4148   -9.5402 H   0  0  0  0  0  0  0  0  0  0  0  0
  -15.2706   37.0000  -17.5548 H   0  0  0  0  0  0  0  0  0  0  0  0
  -18.1355   34.7929  -18.3554 H   0  0  0  0  0  0  0  0  0  0  0  0
  -14.1824   30.6183  -14.1275 H   0  0  0  0  0  0  0  0  0  0  0  0
  1  2  2  0
  1  4  1  0
  2 18  1  0
  3 13  1  0
  3 16  1  0
  4  5  2  0
  4 21  1  0
  5  6  1  0
  5 20  1  0
  6 18  2  0
  6 19  1  0
  8  7  1  0
  7 31  1  0
  8  9  1  0
  8 32  1  0
  9 10  1  0
  9 24  1  0
 10 11  1  0
 10 23  1  0
 11 32  1  0
 11 33  1  0
 12 19  1  0
 12 20  2  0
 13 14  1  0
 13 19  1  0
 14 15  1  0
 14 25  1  0
 15 16  1  0
 15 33  1  0
 16 17  1  0
 17 22  1  0
 22 34  1  0
 26 34  2  0
 34 27  1  1
 28 34  1  0
 28 35  1  0
 29 35  2  0
 35 30  1  6
 31 35  1  0
  2 36  1  0
  7 37  1  0
  7 38  1  0
  8 39  1  6
  9 40  1  1
 10 41  1  6
 11 42  1  6
 12 43  1  0
 13 44  1  6
 14 45  1  1
 15 46  1  1
 16 47  1  6
 17 48  1  0
 17 49  1  0
 21 50  1  0
 21 51  1  0
 23 52  1  0
 24 53  1  0
 25 54  1  0
M  CHG  2  27  -1  30  -1
M  END
>  <filename_input>  (17) 
7UXS_OJC_docked.sdf

>  <pdb_id>  (17) 
7UXS_OJC

>  <pose_rank>  (17) 
16

>  <num_atoms_heavy>  (17) 
35

>  <num_torsions>  (17) 
1

>  <pose>  (17) 
[-12.156348869500691, 34.11488499472761, -13.109566603712047, 2.3819232891592756, -1.5954551702794675, -2.5808800260996962, 0.9198368582967628]

>  <energy>  (17) 
-672.8882259870563

>  <inter_energy>  (17) 
-682.0576079984329

>  <intra_energy>  (17) 
19.357539073044826

>  <rmsd>  (17) 
6.97958

>  <sdf_rank>  (17) 
0

$$$$

     RDKit          3D

 54 58  0  0  0  0  0  0  0  0999 V2000
   -8.9198   30.3768  -10.0147 N   0  0  0  0  0  0  0  0  0  0  0  0
  -10.2386   30.3495  -10.2450 C   0  0  0  0  0  0  0  0  0  0  0  0
  -11.8665   33.6124  -14.4842 O   0  0  0  0  0  0  0  0  0  0  0  0
   -8.1265   31.0682  -10.8592 C   0  0  0  0  0  0  0  0  0  0  0  0
   -8.7456   31.7485  -11.9261 C   0  0  0  0  0  0  0  0  0  0  0  0
  -10.1184   31.6404  -12.0182 C   0  0  0  0  0  0  0  0  0  0  0  0
  -17.1676   32.4502  -12.3513 C   0  0  0  0  0  0  0  0  0  0  0  0
  -17.5320   32.3929  -13.8151 C   0  0  2  0  0  0  0  0  0  0  0  0
  -17.4235   30.9618  -14.3513 C   0  0  2  0  0  0  0  0  0  0  0  0
  -16.5802   31.1132  -15.6175 C   0  0  2  0  0  0  0  0  0  0  0  0
  -15.7405   32.3419  -15.2848 C   0  0  1  0  0  0  0  0  0  0  0  0
   -9.3051   32.8560  -13.6444 C   0  0  0  0  0  0  0  0  0  0  0  0
  -11.7937   32.4166  -13.7348 C   0  0  2  0  0  0  0  0  0  0  0  0
  -12.9681   32.5085  -12.7552 C   0  0  1  0  0  0  0  0  0  0  0  0
  -14.0471   33.0223  -13.7125 C   0  0  1  0  0  0  0  0  0  0  0  0
  -13.2657   33.9525  -14.6422 C   0  0  1  0  0  0  0  0  0  0  0  0
  -13.4409   35.4240  -14.3624 C   0  0  0  0  0  0  0  0  0  0  0  0
  -10.9296   30.9511  -11.2129 N   0  0  0  0  0  0  0  0  0  0  0  0
  -10.4774   32.3534  -13.1433 N   0  0  0  0  0  0  0  0  0  0  0  0
   -8.2369   32.5185  -12.9596 N   0  0  0  0  0  0  0  0  0  0  0  0
   -6.7935   31.0493  -10.6592 N   0  0  0  0  0  0  0  0  0  0  0  0
  -13.3550   35.6534  -12.9285 O   0  0  0  0  0  0  0  0  0  0  0  0
  -17.3294   31.3377  -16.8084 O   0  0  0  0  0  0  0  0  0  0  0  0
  -18.7013   30.3966  -14.6216 O   0  0  0  0  0  0  0  0  0  0  0  0
  -13.2559   31.2508  -12.1784 O   0  0  0  0  0  0  0  0  0  0  0  0
  -15.7199   36.6460  -12.8214 O   0  0  0  0  0  0  0  0  0  0  0  0
  -14.0042   37.0540  -10.9610 O   0  0  0  0  0  0  0  0  0  0  0  0
  -15.0229   34.7870  -11.2881 O   0  0  0  0  0  0  0  0  0  0  0  0
  -17.0945   35.4747  -10.0146 O   0  0  0  0  0  0  0  0  0  0  0  0
  -16.0164   33.1591   -9.7709 O   0  0  0  0  0  0  0  0  0  0  0  0
  -17.2384   33.7929  -11.8323 O   0  0  0  0  0  0  0  0  0  0  0  0
  -16.6366   33.2014  -14.6022 O   0  0  0  0  0  0  0  0  0  0  0  0
  -14.6542   31.9510  -14.4573 O   0  0  0  0  0  0  0  0  0  0  0  0
  -14.5970   36.1325  -12.0232 P   0  0  2  0  0  0  0  0  0  0  0  0
  -16.3877   34.3143  -10.6151 P   0  0  2  0  0  0  0  0  0  0  0  0
  -10.8321   29.7492   -9.5398 H   0  0  0  0  0  0  0  0  0  0  0  0
  -17.8641   31.8132  -11.7862 H   0  0  0  0  0  0  0  0  0  0  0  0
  -16.1314   32.0971  -12.2438 H   0  0  0  0  0  0  0  0  0  0  0  0
  -18.5646   32.7632  -13.8962 H   0  0  0  0  0  0  0  0  0  0  0  0
  -16.9704   30.2708  -13.6252 H   0  0  0  0  0  0  0  0  0  0  0  0
  -16.0197   30.1936  -15.8415 H   0  0  0  0  0  0  0  0  0  0  0  0
  -15.3049   32.8358  -16.1659 H   0  0  0  0  0  0  0  0  0  0  0  0
   -9.2626   33.4882  -14.5436 H   0  0  0  0  0  0  0  0  0  0  0  0
  -11.8951   31.4779  -14.2992 H   0  0  0  0  0  0  0  0  0  0  0  0
  -12.8215   33.1439  -11.8694 H   0  0  0  0  0  0  0  0  0  0  0  0
  -14.8785   33.5167  -13.1886 H   0  0  0  0  0  0  0  0  0  0  0  0
  -13.6487   33.8023  -15.6624 H   0  0  0  0  0  0  0  0  0  0  0  0
  -12.6498   35.9922  -14.8736 H   0  0  0  0  0  0  0  0  0  0  0  0
  -14.4231   35.7551  -14.7307 H   0  0  0  0  0  0  0  0  0  0  0  0
   -6.1703   31.5704  -11.2924 H   0  0  0  0  0  0  0  0  0  0  0  0
   -6.3982   30.5138   -9.8731 H   0  0  0  0  0  0  0  0  0  0  0  0
  -18.2503   31.6137  -16.5719 H   0  0  0  0  0  0  0  0  0  0  0  0
  -19.1597   30.1938  -13.7679 H   0  0  0  0  0  0  0  0  0  0  0  0
  -13.2381   31.3286  -11.1916 H   0  0  0  0  0  0  0  0  0  0  0  0
  1  2  2  0
  1  4  1  0
  2 18  1  0
  3 13  1  0
  3 16  1  0
  4  5  2  0
  4 21  1  0
  5  6  1  0
  5 20  1  0
  6 18  2  0
  6 19  1  0
  8  7  1  0
  7 31  1  0
  8  9  1  0
  8 32  1  0
  9 10  1  0
  9 24  1  0
 10 11  1  0
 10 23  1  0
 11 32  1  0
 11 33  1  0
 12 19  1  0
 12 20  2  0
 13 14  1  0
 13 19  1  0
 14 15  1  0
 14 25  1  0
 15 16  1  0
 15 33  1  0
 16 17  1  0
 17 22  1  0
 22 34  1  0
 26 34  2  0
 34 27  1  1
 28 34  1  0
 28 35  1  0
 29 35  2  0
 35 30  1  1
 31 35  1  0
  2 36  1  0
  7 37  1  0
  7 38  1  0
  8 39  1  1
  9 40  1  1
 10 41  1  6
 11 42  1  6
 12 43  1  0
 13 44  1  6
 14 45  1  1
 15 46  1  1
 16 47  1  6
 17 48  1  0
 17 49  1  0
 21 50  1  0
 21 51  1  0
 23 52  1  0
 24 53  1  0
 25 54  1  0
M  CHG  2  27  -1  30  -1
M  END
>  <filename_input>  (18) 
7UXS_OJC_docked.sdf

>  <pdb_id>  (18) 
7UXS_OJC

>  <pose_rank>  (18) 
17

>  <num_atoms_heavy>  (18) 
35

>  <num_torsions>  (18) 
1

>  <pose>  (18) 
[-11.866453129197003, 33.61239321903822, -14.4841626053738, 1.4523010172216555, -2.058936114013797, -1.5178135175890006, -1.9956434735192985]

>  <energy>  (18) 
-617.837912324812

>  <inter_energy>  (18) 
-648.3419261689533

>  <intra_energy>  (18) 
48.50012851266969

>  <rmsd>  (18) 
6.85797

>  <sdf_rank>  (18) 
0

$$$$

     RDKit          3D

 54 58  0  0  0  0  0  0  0  0999 V2000
  -14.9868   27.0784  -18.2781 N   0  0  0  0  0  0  0  0  0  0  0  0
  -13.9898   27.1746  -17.3895 C   0  0  0  0  0  0  0  0  0  0  0  0
  -14.5181   30.0449  -13.5394 O   0  0  0  0  0  0  0  0  0  0  0  0
  -15.9144   28.0572  -18.3229 C   0  0  0  0  0  0  0  0  0  0  0  0
  -15.7583   29.1448  -17.4413 C   0  0  0  0  0  0  0  0  0  0  0  0
  -14.6663   29.1087  -16.5981 C   0  0  0  0  0  0  0  0  0  0  0  0
  -11.7506   34.9583  -12.0557 C   0  0  0  0  0  0  0  0  0  0  0  0
  -10.9671   34.0206  -11.1694 C   0  0  2  0  0  0  0  0  0  0  0  0
   -9.7086   33.5159  -11.8825 C   0  0  2  0  0  0  0  0  0  0  0  0
   -9.7713   31.9996  -11.6964 C   0  0  2  0  0  0  0  0  0  0  0  0
  -11.2741   31.7626  -11.5928 C   0  0  1  0  0  0  0  0  0  0  0  0
  -15.8743   30.9003  -16.2595 C   0  0  0  0  0  0  0  0  0  0  0  0
  -13.9116   30.5825  -14.6970 C   0  0  2  0  0  0  0  0  0  0  0  0
  -13.7618   32.0761  -14.3903 C   0  0  1  0  0  0  0  0  0  0  0  0
  -13.2527   31.9813  -12.9492 C   0  0  1  0  0  0  0  0  0  0  0  0
  -14.0158   30.7769  -12.3947 C   0  0  1  0  0  0  0  0  0  0  0  0
  -15.1748   31.1198  -11.4927 C   0  0  0  0  0  0  0  0  0  0  0  0
  -13.7423   28.1492  -16.5148 N   0  0  0  0  0  0  0  0  0  0  0  0
  -14.7512   30.2471  -15.8235 N   0  0  0  0  0  0  0  0  0  0  0  0
  -16.5196   30.2813  -17.2208 N   0  0  0  0  0  0  0  0  0  0  0  0
  -16.9484   27.9326  -19.1788 N   0  0  0  0  0  0  0  0  0  0  0  0
  -15.9399   32.2054  -12.0860 O   0  0  0  0  0  0  0  0  0  0  0  0
   -9.1156   31.5157  -10.5277 O   0  0  0  0  0  0  0  0  0  0  0  0
   -8.5229   34.0760  -11.3298 O   0  0  0  0  0  0  0  0  0  0  0  0
  -12.8600   32.6964  -15.2842 O   0  0  0  0  0  0  0  0  0  0  0  0
  -15.5570   33.7431  -10.0666 O   0  0  0  0  0  0  0  0  0  0  0  0
  -17.4449   34.1737  -11.7464 O   0  0  0  0  0  0  0  0  0  0  0  0
  -15.0486   34.5143  -12.3989 O   0  0  0  0  0  0  0  0  0  0  0  0
  -15.0195   36.7939  -11.3087 O   0  0  0  0  0  0  0  0  0  0  0  0
  -13.8600   36.3066  -13.5452 O   0  0  0  0  0  0  0  0  0  0  0  0
  -12.9531   35.4256  -11.4132 O   0  0  0  0  0  0  0  0  0  0  0  0
  -11.7474   32.8586  -10.8294 O   0  0  0  0  0  0  0  0  0  0  0  0
  -11.8330   31.7514  -12.8985 O   0  0  0  0  0  0  0  0  0  0  0  0
  -16.0281   33.6851  -11.4581 P   0  0  2  0  0  0  0  0  0  0  0  0
  -14.2484   35.8757  -12.1856 P   0  0  2  0  0  0  0  0  0  0  0  0
  -13.2786   26.3355  -17.3802 H   0  0  0  0  0  0  0  0  0  0  0  0
  -11.1195   35.8248  -12.3026 H   0  0  0  0  0  0  0  0  0  0  0  0
  -12.0405   34.4077  -12.9628 H   0  0  0  0  0  0  0  0  0  0  0  0
  -10.7024   34.5902  -10.2663 H   0  0  0  0  0  0  0  0  0  0  0  0
   -9.6768   33.8078  -12.9426 H   0  0  0  0  0  0  0  0  0  0  0  0
   -9.2560   31.4712  -12.5120 H   0  0  0  0  0  0  0  0  0  0  0  0
  -11.5428   30.8036  -11.1257 H   0  0  0  0  0  0  0  0  0  0  0  0
  -16.2068   31.8612  -15.8398 H   0  0  0  0  0  0  0  0  0  0  0  0
  -12.9184   30.1883  -14.9577 H   0  0  0  0  0  0  0  0  0  0  0  0
  -14.6646   32.6945  -14.5023 H   0  0  0  0  0  0  0  0  0  0  0  0
  -13.4154   32.9084  -12.3800 H   0  0  0  0  0  0  0  0  0  0  0  0
  -13.3191   30.2011  -11.7678 H   0  0  0  0  0  0  0  0  0  0  0  0
  -15.8208   30.2375  -11.3727 H   0  0  0  0  0  0  0  0  0  0  0  0
  -14.7963   31.4306  -10.5078 H   0  0  0  0  0  0  0  0  0  0  0  0
  -17.6673   28.6685  -19.2285 H   0  0  0  0  0  0  0  0  0  0  0  0
  -17.0196   27.1014  -19.7829 H   0  0  0  0  0  0  0  0  0  0  0  0
   -9.5798   31.8583   -9.7232 H   0  0  0  0  0  0  0  0  0  0  0  0
   -8.5758   34.0511  -10.3415 H   0  0  0  0  0  0  0  0  0  0  0  0
  -12.1630   33.1759  -14.7700 H   0  0  0  0  0  0  0  0  0  0  0  0
  1  2  2  0
  1  4  1  0
  2 18  1  0
  3 13  1  0
  3 16  1  0
  4  5  2  0
  4 21  1  0
  5  6  1  0
  5 20  1  0
  6 18  2  0
  6 19  1  0
  8  7  1  0
  7 31  1  0
  8  9  1  0
  8 32  1  0
  9 10  1  0
  9 24  1  0
 10 11  1  0
 10 23  1  0
 11 32  1  0
 11 33  1  0
 12 19  1  0
 12 20  2  0
 13 14  1  0
 13 19  1  0
 14 15  1  0
 14 25  1  0
 15 16  1  0
 15 33  1  0
 16 17  1  0
 17 22  1  0
 22 34  1  0
 26 34  2  0
 34 27  1  1
 28 34  1  0
 28 35  1  0
 29 35  2  0
 35 30  1  6
 31 35  1  0
  2 36  1  0
  7 37  1  0
  7 38  1  0
  8 39  1  1
  9 40  1  6
 10 41  1  6
 11 42  1  1
 12 43  1  0
 13 44  1  6
 14 45  1  1
 15 46  1  1
 16 47  1  1
 17 48  1  0
 17 49  1  0
 21 50  1  0
 21 51  1  0
 23 52  1  0
 24 53  1  0
 25 54  1  0
M  CHG  2  27  -1  30  -1
M  END
>  <filename_input>  (19) 
7UXS_OJC_docked.sdf

>  <pdb_id>  (19) 
7UXS_OJC

>  <pose_rank>  (19) 
18

>  <num_atoms_heavy>  (19) 
35

>  <num_torsions>  (19) 
1

>  <pose>  (19) 
[-14.518081820326126, 30.044897785311864, -13.539433386620226, 5.612935826777449, -2.5453139578837995, -0.9683858523946423, -0.009021830767402976]

>  <energy>  (19) 
-891.8508273403751

>  <inter_energy>  (19) 
-883.4896562793275

>  <intra_energy>  (19) 
0.0

>  <rmsd>  (19) 
0.377635

>  <sdf_rank>  (19) 
0

$$$$

     RDKit          3D

 54 58  0  0  0  0  0  0  0  0999 V2000
  -14.9698   37.1505  -21.0918 N   0  0  0  0  0  0  0  0  0  0  0  0
  -13.9457   36.7869  -20.3095 C   0  0  0  0  0  0  0  0  0  0  0  0
  -15.1214   33.1574  -16.6558 O   0  0  0  0  0  0  0  0  0  0  0  0
  -16.2237   36.8258  -20.7140 C   0  0  0  0  0  0  0  0  0  0  0  0
  -16.3804   36.1415  -19.4927 C   0  0  0  0  0  0  0  0  0  0  0  0
  -15.2281   35.8549  -18.7892 C   0  0  0  0  0  0  0  0  0  0  0  0
  -13.3852   34.7693  -11.3276 C   0  0  0  0  0  0  0  0  0  0  0  0
  -12.3220   33.7254  -11.5691 C   0  0  2  0  0  0  0  0  0  0  0  0
  -11.0652   34.3542  -12.1792 C   0  0  2  0  0  0  0  0  0  0  0  0
  -10.7661   33.4653  -13.3868 C   0  0  2  0  0  0  0  0  0  0  0  0
  -12.1578   32.9591  -13.7504 C   0  0  1  0  0  0  0  0  0  0  0  0
  -17.0003   35.0944  -17.7573 C   0  0  0  0  0  0  0  0  0  0  0  0
  -14.7772   34.5274  -16.6940 C   0  0  2  0  0  0  0  0  0  0  0  0
  -14.9345   35.0006  -15.2453 C   0  0  1  0  0  0  0  0  0  0  0  0
  -14.2674   33.8235  -14.5283 C   0  0  1  0  0  0  0  0  0  0  0  0
  -14.6777   32.6237  -15.3842 C   0  0  1  0  0  0  0  0  0  0  0  0
  -15.7818   31.7767  -14.8028 C   0  0  0  0  0  0  0  0  0  0  0  0
  -13.9739   36.1442  -19.1424 N   0  0  0  0  0  0  0  0  0  0  0  0
  -15.6347   35.1644  -17.6663 N   0  0  0  0  0  0  0  0  0  0  0  0
  -17.4988   35.6561  -18.8342 N   0  0  0  0  0  0  0  0  0  0  0  0
  -17.2495   37.1428  -21.5290 N   0  0  0  0  0  0  0  0  0  0  0  0
  -16.8294   32.6430  -14.2851 O   0  0  0  0  0  0  0  0  0  0  0  0
   -9.8985   32.3677  -13.1177 O   0  0  0  0  0  0  0  0  0  0  0  0
   -9.9836   34.3858  -11.2549 O   0  0  0  0  0  0  0  0  0  0  0  0
  -14.2948   36.2436  -15.0383 O   0  0  0  0  0  0  0  0  0  0  0  0
  -16.5893   31.7157  -11.9035 O   0  0  0  0  0  0  0  0  0  0  0  0
  -18.6927   32.9761  -12.6507 O   0  0  0  0  0  0  0  0  0  0  0  0
  -16.5169   34.1835  -12.3479 O   0  0  0  0  0  0  0  0  0  0  0  0
  -16.8845   34.3318   -9.8521 O   0  0  0  0  0  0  0  0  0  0  0  0
  -15.8890   36.2551  -11.2283 O   0  0  0  0  0  0  0  0  0  0  0  0
  -14.5869   34.1947  -10.7769 O   0  0  0  0  0  0  0  0  0  0  0  0
  -12.7812   32.7262  -12.4994 O   0  0  0  0  0  0  0  0  0  0  0  0
  -12.8351   33.9599  -14.4967 O   0  0  0  0  0  0  0  0  0  0  0  0
  -17.1801   32.7858  -12.7204 P   0  0  2  0  0  0  0  0  0  0  0  0
  -16.0245   34.8066  -10.9664 P   0  0  2  0  0  0  0  0  0  0  0  0
  -12.9454   37.0551  -20.6805 H   0  0  0  0  0  0  0  0  0  0  0  0
  -12.9944   35.5188  -10.6236 H   0  0  0  0  0  0  0  0  0  0  0  0
  -13.6387   35.2281  -12.2947 H   0  0  0  0  0  0  0  0  0  0  0  0
  -12.0976   33.2739  -10.5915 H   0  0  0  0  0  0  0  0  0  0  0  0
  -11.2122   35.4076  -12.4596 H   0  0  0  0  0  0  0  0  0  0  0  0
  -10.2348   34.0198  -14.1744 H   0  0  0  0  0  0  0  0  0  0  0  0
  -12.1535   32.0507  -14.3708 H   0  0  0  0  0  0  0  0  0  0  0  0
  -17.6254   34.6091  -16.9933 H   0  0  0  0  0  0  0  0  0  0  0  0
  -13.7542   34.7665  -17.0199 H   0  0  0  0  0  0  0  0  0  0  0  0
  -15.9597   35.2054  -14.9030 H   0  0  0  0  0  0  0  0  0  0  0  0
  -14.5725   33.7404  -13.4748 H   0  0  0  0  0  0  0  0  0  0  0  0
  -13.8072   31.9556  -15.4602 H   0  0  0  0  0  0  0  0  0  0  0  0
  -16.1970   31.1257  -15.5863 H   0  0  0  0  0  0  0  0  0  0  0  0
  -15.3804   31.1559  -13.9883 H   0  0  0  0  0  0  0  0  0  0  0  0
  -18.2144   36.9038  -21.2592 H   0  0  0  0  0  0  0  0  0  0  0  0
  -17.0685   37.6240  -22.4215 H   0  0  0  0  0  0  0  0  0  0  0  0
   -9.8069   32.2517  -12.1388 H   0  0  0  0  0  0  0  0  0  0  0  0
  -10.3388   34.3754  -10.3309 H   0  0  0  0  0  0  0  0  0  0  0  0
  -14.2080   36.4123  -14.0666 H   0  0  0  0  0  0  0  0  0  0  0  0
  1  2  2  0
  1  4  1  0
  2 18  1  0
  3 13  1  0
  3 16  1  0
  4  5  2  0
  4 21  1  0
  5  6  1  0
  5 20  1  0
  6 18  2  0
  6 19  1  0
  8  7  1  0
  7 31  1  0
  8  9  1  0
  8 32  1  0
  9 10  1  0
  9 24  1  0
 10 11  1  0
 10 23  1  0
 11 32  1  0
 11 33  1  0
 12 19  1  0
 12 20  2  0
 13 14  1  0
 13 19  1  0
 14 15  1  0
 14 25  1  0
 15 16  1  0
 15 33  1  0
 16 17  1  0
 17 22  1  0
 22 34  1  0
 26 34  2  0
 34 27  1  6
 28 34  1  0
 28 35  1  0
 29 35  2  0
 35 30  1  6
 31 35  1  0
  2 36  1  0
  7 37  1  0
  7 38  1  0
  8 39  1  1
  9 40  1  6
 10 41  1  6
 11 42  1  6
 12 43  1  0
 13 44  1  6
 14 45  1  1
 15 46  1  1
 16 47  1  6
 17 48  1  0
 17 49  1  0
 21 50  1  0
 21 51  1  0
 23 52  1  0
 24 53  1  0
 25 54  1  0
M  CHG  2  27  -1  30  -1
M  END
>  <filename_input>  (20) 
7UXS_OJC_docked.sdf

>  <pdb_id>  (20) 
7UXS_OJC

>  <pose_rank>  (20) 
19

>  <num_atoms_heavy>  (20) 
35

>  <num_torsions>  (20) 
1

>  <pose>  (20) 
[-15.121423790113447, 33.157425923123036, -16.65575124196539, -5.05379413050382, 0.07368835239560355, -1.3885067483639753, 5.7169894557204195]

>  <energy>  (20) 
-577.0640962767635

>  <inter_energy>  (20) 
-572.0578506554136

>  <intra_energy>  (20) 
0.0

>  <rmsd>  (20) 
4.79566

>  <sdf_rank>  (20) 
0

$$$$

     RDKit          3D

 54 58  0  0  0  0  0  0  0  0999 V2000
  -16.4537   37.1455  -21.2403 N   0  0  0  0  0  0  0  0  0  0  0  0
  -16.7533   35.9317  -20.7609 C   0  0  0  0  0  0  0  0  0  0  0  0
  -15.7181   34.4040  -16.8421 O   0  0  0  0  0  0  0  0  0  0  0  0
  -15.4258   37.8257  -20.6913 C   0  0  0  0  0  0  0  0  0  0  0  0
  -14.7069   37.1975  -19.6555 C   0  0  0  0  0  0  0  0  0  0  0  0
  -15.1257   35.9354  -19.2859 C   0  0  0  0  0  0  0  0  0  0  0  0
  -12.0578   31.7475  -13.1614 C   0  0  0  0  0  0  0  0  0  0  0  0
  -13.0058   30.5897  -13.3596 C   0  0  2  0  0  0  0  0  0  0  0  0
  -12.5324   29.6827  -14.5000 C   0  0  2  0  0  0  0  0  0  0  0  0
  -13.7761   29.5229  -15.3748 C   0  0  2  0  0  0  0  0  0  0  0  0
  -14.5163   30.8278  -15.1014 C   0  0  1  0  0  0  0  0  0  0  0  0
  -13.4308   36.5984  -18.0728 C   0  0  0  0  0  0  0  0  0  0  0  0
  -14.4365   34.3674  -17.4361 C   0  0  2  0  0  0  0  0  0  0  0  0
  -13.4710   34.2476  -16.2525 C   0  0  1  0  0  0  0  0  0  0  0  0
  -14.2201   33.1957  -15.4296 C   0  0  1  0  0  0  0  0  0  0  0  0
  -15.6878   33.5550  -15.6688 C   0  0  1  0  0  0  0  0  0  0  0  0
  -16.3581   34.2801  -14.5289 C   0  0  0  0  0  0  0  0  0  0  0  0
  -16.1475   35.2431  -19.7939 N   0  0  0  0  0  0  0  0  0  0  0  0
  -14.2998   35.5535  -18.2490 N   0  0  0  0  0  0  0  0  0  0  0  0
  -13.6342   37.6117  -18.8825 N   0  0  0  0  0  0  0  0  0  0  0  0
  -15.1599   39.0701  -21.1363 N   0  0  0  0  0  0  0  0  0  0  0  0
  -15.4683   35.3173  -14.0305 O   0  0  0  0  0  0  0  0  0  0  0  0
  -14.6008   28.4105  -15.0394 O   0  0  0  0  0  0  0  0  0  0  0  0
  -12.0491   28.4331  -14.0204 O   0  0  0  0  0  0  0  0  0  0  0  0
  -12.1850   33.8438  -16.6771 O   0  0  0  0  0  0  0  0  0  0  0  0
  -15.4030   34.3009  -11.6742 O   0  0  0  0  0  0  0  0  0  0  0  0
  -14.7299   36.7361  -12.1080 O   0  0  0  0  0  0  0  0  0  0  0  0
  -13.2895   34.8477  -12.9099 O   0  0  0  0  0  0  0  0  0  0  0  0
  -12.2502   34.5968  -10.6201 O   0  0  0  0  0  0  0  0  0  0  0  0
  -10.8980   34.3940  -12.7914 O   0  0  0  0  0  0  0  0  0  0  0  0
  -12.4982   32.6283  -12.1090 O   0  0  0  0  0  0  0  0  0  0  0  0
  -14.3216   31.0548  -13.7164 O   0  0  0  0  0  0  0  0  0  0  0  0
  -13.9416   31.8607  -15.8890 O   0  0  0  0  0  0  0  0  0  0  0  0
  -14.7826   35.2840  -12.5744 P   0  0  2  0  0  0  0  0  0  0  0  0
  -12.1473   34.1609  -12.0365 P   0  0  2  0  0  0  0  0  0  0  0  0
  -17.6165   35.4356  -21.2287 H   0  0  0  0  0  0  0  0  0  0  0  0
  -11.0640   31.3532  -12.9026 H   0  0  0  0  0  0  0  0  0  0  0  0
  -12.0239   32.3246  -14.0973 H   0  0  0  0  0  0  0  0  0  0  0  0
  -13.0319   30.0390  -12.4077 H   0  0  0  0  0  0  0  0  0  0  0  0
  -11.6817   30.1073  -15.0533 H   0  0  0  0  0  0  0  0  0  0  0  0
  -13.5093   29.3318  -16.4247 H   0  0  0  0  0  0  0  0  0  0  0  0
  -15.5861   30.7948  -15.3552 H   0  0  0  0  0  0  0  0  0  0  0  0
  -12.6311   36.5890  -17.3175 H   0  0  0  0  0  0  0  0  0  0  0  0
  -14.2381   33.5305  -18.1219 H   0  0  0  0  0  0  0  0  0  0  0  0
  -13.2544   35.1729  -15.6985 H   0  0  0  0  0  0  0  0  0  0  0  0
  -13.9303   33.2020  -14.3685 H   0  0  0  0  0  0  0  0  0  0  0  0
  -16.2463   32.6143  -15.7843 H   0  0  0  0  0  0  0  0  0  0  0  0
  -17.2935   34.7376  -14.8836 H   0  0  0  0  0  0  0  0  0  0  0  0
  -16.5841   33.5686  -13.7211 H   0  0  0  0  0  0  0  0  0  0  0  0
  -14.3797   39.6063  -20.7305 H   0  0  0  0  0  0  0  0  0  0  0  0
  -15.7369   39.4846  -21.8821 H   0  0  0  0  0  0  0  0  0  0  0  0
  -14.6610   28.3293  -14.0546 H   0  0  0  0  0  0  0  0  0  0  0  0
  -12.0505   28.4367  -13.0304 H   0  0  0  0  0  0  0  0  0  0  0  0
  -11.6172   33.6655  -15.8859 H   0  0  0  0  0  0  0  0  0  0  0  0
  1  2  2  0
  1  4  1  0
  2 18  1  0
  3 13  1  0
  3 16  1  0
  4  5  2  0
  4 21  1  0
  5  6  1  0
  5 20  1  0
  6 18  2  0
  6 19  1  0
  8  7  1  0
  7 31  1  0
  8  9  1  0
  8 32  1  0
  9 10  1  0
  9 24  1  0
 10 11  1  0
 10 23  1  0
 11 32  1  0
 11 33  1  0
 12 19  1  0
 12 20  2  0
 13 14  1  0
 13 19  1  0
 14 15  1  0
 14 25  1  0
 15 16  1  0
 15 33  1  0
 16 17  1  0
 17 22  1  0
 22 34  1  0
 26 34  2  0
 34 27  1  1
 28 34  1  0
 28 35  1  0
 29 35  2  0
 35 30  1  6
 31 35  1  0
  2 36  1  0
  7 37  1  0
  7 38  1  0
  8 39  1  1
  9 40  1  6
 10 41  1  6
 11 42  1  1
 12 43  1  0
 13 44  1  6
 14 45  1  1
 15 46  1  1
 16 47  1  6
 17 48  1  0
 17 49  1  0
 21 50  1  0
 21 51  1  0
 23 52  1  0
 24 53  1  0
 25 54  1  0
M  CHG  2  27  -1  30  -1
M  END
>  <filename_input>  (21) 
7UXS_OJC_docked.sdf

>  <pdb_id>  (21) 
7UXS_OJC

>  <pose_rank>  (21) 
20

>  <num_atoms_heavy>  (21) 
35

>  <num_torsions>  (21) 
1

>  <pose>  (21) 
[-15.718118056799712, 34.40396787479846, -16.8421162981839, 0.785831031227396, -0.22696006635374835, -1.228266423144544, 6.834112140275018]

>  <energy>  (21) 
-529.2502804624331

>  <inter_energy>  (21) 
-534.666159051609

>  <intra_energy>  (21) 
7.0214761428958195

>  <rmsd>  (21) 
5.8205

>  <sdf_rank>  (21) 
0

$$$$

     RDKit          3D

 54 58  0  0  0  0  0  0  0  0999 V2000
  -19.7334   36.1313   -7.9443 N   0  0  0  0  0  0  0  0  0  0  0  0
  -18.5686   35.4814   -8.0612 C   0  0  0  0  0  0  0  0  0  0  0  0
  -16.8137   33.3244  -10.7135 O   0  0  0  0  0  0  0  0  0  0  0  0
  -20.6636   35.9773   -8.9095 C   0  0  0  0  0  0  0  0  0  0  0  0
  -20.3583   35.1108   -9.9773 C   0  0  0  0  0  0  0  0  0  0  0  0
  -19.1223   34.4975   -9.9454 C   0  0  0  0  0  0  0  0  0  0  0  0
  -14.6871   32.5084  -16.0813 C   0  0  0  0  0  0  0  0  0  0  0  0
  -13.9387   31.3855  -15.4048 C   0  0  2  0  0  0  0  0  0  0  0  0
  -14.7180   30.0701  -15.5033 C   0  0  2  0  0  0  0  0  0  0  0  0
  -14.7390   29.5538  -14.0643 C   0  0  2  0  0  0  0  0  0  0  0  0
  -14.6633   30.8525  -13.2686 C   0  0  1  0  0  0  0  0  0  0  0  0
  -20.2456   33.9311  -11.7346 C   0  0  0  0  0  0  0  0  0  0  0  0
  -17.8898   33.0252  -11.5791 C   0  0  2  0  0  0  0  0  0  0  0  0
  -17.3839   33.4256  -12.9688 C   0  0  1  0  0  0  0  0  0  0  0  0
  -15.9708   32.8406  -12.8939 C   0  0  1  0  0  0  0  0  0  0  0  0
  -15.5821   33.0695  -11.4321 C   0  0  1  0  0  0  0  0  0  0  0  0
  -14.6379   34.2222  -11.1989 C   0  0  0  0  0  0  0  0  0  0  0  0
  -18.1734   34.6418   -9.0179 N   0  0  0  0  0  0  0  0  0  0  0  0
  -19.0485   33.7393  -11.0955 N   0  0  0  0  0  0  0  0  0  0  0  0
  -21.0638   34.7487  -11.1135 N   0  0  0  0  0  0  0  0  0  0  0  0
  -21.8135   36.6750   -8.8198 N   0  0  0  0  0  0  0  0  0  0  0  0
  -15.0760   35.3672  -11.9818 O   0  0  0  0  0  0  0  0  0  0  0  0
  -13.6490   28.7029  -13.7212 O   0  0  0  0  0  0  0  0  0  0  0  0
  -14.0985   29.1500  -16.3948 O   0  0  0  0  0  0  0  0  0  0  0  0
  -18.1886   32.8693  -13.9887 O   0  0  0  0  0  0  0  0  0  0  0  0
  -12.8680   35.4754  -13.2867 O   0  0  0  0  0  0  0  0  0  0  0  0
  -14.4675   37.4758  -13.1809 O   0  0  0  0  0  0  0  0  0  0  0  0
  -15.0760   35.4176  -14.4760 O   0  0  0  0  0  0  0  0  0  0  0  0
  -13.6869   36.1801  -16.4445 O   0  0  0  0  0  0  0  0  0  0  0  0
  -15.9728   35.0454  -16.7112 O   0  0  0  0  0  0  0  0  0  0  0  0
  -13.9830   33.7618  -15.9783 O   0  0  0  0  0  0  0  0  0  0  0  0
  -13.7568   31.6576  -14.0020 O   0  0  0  0  0  0  0  0  0  0  0  0
  -15.9566   31.4369  -13.2105 O   0  0  0  0  0  0  0  0  0  0  0  0
  -14.2530   35.9657  -13.2292 P   0  0  2  0  0  0  0  0  0  0  0  0
  -14.6829   35.1713  -16.0005 P   0  0  2  0  0  0  0  0  0  0  0  0
  -17.8389   35.6653   -7.2588 H   0  0  0  0  0  0  0  0  0  0  0  0
  -14.8164   32.2595  -17.1450 H   0  0  0  0  0  0  0  0  0  0  0  0
  -15.6594   32.6212  -15.5795 H   0  0  0  0  0  0  0  0  0  0  0  0
  -12.9677   31.3033  -15.9150 H   0  0  0  0  0  0  0  0  0  0  0  0
  -15.7288   30.2066  -15.9151 H   0  0  0  0  0  0  0  0  0  0  0  0
  -15.6205   28.9238  -13.8743 H   0  0  0  0  0  0  0  0  0  0  0  0
  -14.3296   30.7192  -12.2290 H   0  0  0  0  0  0  0  0  0  0  0  0
  -20.4991   33.4419  -12.6866 H   0  0  0  0  0  0  0  0  0  0  0  0
  -18.2049   31.9722  -11.6231 H   0  0  0  0  0  0  0  0  0  0  0  0
  -17.4080   34.4983  -13.2110 H   0  0  0  0  0  0  0  0  0  0  0  0
  -15.2806   33.3056  -13.6133 H   0  0  0  0  0  0  0  0  0  0  0  0
  -15.0414   32.1757  -11.0875 H   0  0  0  0  0  0  0  0  0  0  0  0
  -14.6365   34.4859  -10.1310 H   0  0  0  0  0  0  0  0  0  0  0  0
  -13.6213   33.9338  -11.5043 H   0  0  0  0  0  0  0  0  0  0  0  0
  -22.5365   36.5718   -9.5461 H   0  0  0  0  0  0  0  0  0  0  0  0
  -21.9691   37.3113   -8.0249 H   0  0  0  0  0  0  0  0  0  0  0  0
  -13.5737   28.6441  -12.7358 H   0  0  0  0  0  0  0  0  0  0  0  0
  -13.6282   28.4517  -15.8740 H   0  0  0  0  0  0  0  0  0  0  0  0
  -18.9306   32.3564  -13.5807 H   0  0  0  0  0  0  0  0  0  0  0  0
  1  2  2  0
  1  4  1  0
  2 18  1  0
  3 13  1  0
  3 16  1  0
  4  5  2  0
  4 21  1  0
  5  6  1  0
  5 20  1  0
  6 18  2  0
  6 19  1  0
  8  7  1  0
  7 31  1  0
  8  9  1  0
  8 32  1  0
  9 10  1  0
  9 24  1  0
 10 11  1  0
 10 23  1  0
 11 32  1  0
 11 33  1  0
 12 19  1  0
 12 20  2  0
 13 14  1  0
 13 19  1  0
 14 15  1  0
 14 25  1  0
 15 16  1  0
 15 33  1  0
 16 17  1  0
 17 22  1  0
 22 34  1  0
 26 34  2  0
 34 27  1  1
 28 34  1  0
 28 35  1  0
 29 35  2  0
 35 30  1  6
 31 35  1  0
  2 36  1  0
  7 37  1  0
  7 38  1  0
  8 39  1  6
  9 40  1  6
 10 41  1  1
 11 42  1  1
 12 43  1  0
 13 44  1  6
 14 45  1  1
 15 46  1  6
 16 47  1  1
 17 48  1  0
 17 49  1  0
 21 50  1  0
 21 51  1  0
 23 52  1  0
 24 53  1  0
 25 54  1  0
M  CHG  2  27  -1  30  -1
M  END
>  <filename_input>  (22) 
7UXS_OJC_docked.sdf

>  <pdb_id>  (22) 
7UXS_OJC

>  <pose_rank>  (22) 
21

>  <num_atoms_heavy>  (22) 
35

>  <num_torsions>  (22) 
1

>  <pose>  (22) 
[-16.81374074512752, 33.32438298587612, -10.713477181484736, 1.992443751156475, -3.181712276511998, 2.3500848102115306, 1.4782187143065215]

>  <energy>  (22) 
-493.1861624333763

>  <inter_energy>  (22) 
-519.7493360666444

>  <intra_energy>  (22) 
31.643920845720494

>  <rmsd>  (22) 
7.36967

>  <sdf_rank>  (22) 
0

$$$$

     RDKit          3D

 54 58  0  0  0  0  0  0  0  0999 V2000
  -21.1856   35.3497  -11.0018 N   0  0  0  0  0  0  0  0  0  0  0  0
  -20.3874   34.8480  -11.9527 C   0  0  0  0  0  0  0  0  0  0  0  0
  -15.2948   33.6181  -10.3223 O   0  0  0  0  0  0  0  0  0  0  0  0
  -20.7571   35.3416   -9.7225 C   0  0  0  0  0  0  0  0  0  0  0  0
  -19.4711   34.8257   -9.4684 C   0  0  0  0  0  0  0  0  0  0  0  0
  -18.7611   34.3636  -10.5580 C   0  0  0  0  0  0  0  0  0  0  0  0
  -14.7794   32.2809  -15.9746 C   0  0  0  0  0  0  0  0  0  0  0  0
  -13.7817   31.2782  -15.4475 C   0  0  2  0  0  0  0  0  0  0  0  0
  -14.4522   29.9270  -15.1793 C   0  0  2  0  0  0  0  0  0  0  0  0
  -14.0107   29.5804  -13.7571 C   0  0  2  0  0  0  0  0  0  0  0  0
  -13.8050   30.9646  -13.1512 C   0  0  1  0  0  0  0  0  0  0  0  0
  -17.6300   34.1061   -8.7038 C   0  0  0  0  0  0  0  0  0  0  0  0
  -16.5511   33.1733  -10.7920 C   0  0  2  0  0  0  0  0  0  0  0  0
  -16.5072   33.4321  -12.3014 C   0  0  1  0  0  0  0  0  0  0  0  0
  -15.0937   32.9229  -12.5972 C   0  0  1  0  0  0  0  0  0  0  0  0
  -14.3122   33.3365  -11.3487 C   0  0  1  0  0  0  0  0  0  0  0  0
  -13.4326   34.5491  -11.5228 C   0  0  0  0  0  0  0  0  0  0  0  0
  -19.1615   34.3395  -11.8311 N   0  0  0  0  0  0  0  0  0  0  0  0
  -17.5683   33.8866  -10.0552 N   0  0  0  0  0  0  0  0  0  0  0  0
  -18.7495   34.6586   -8.2974 N   0  0  0  0  0  0  0  0  0  0  0  0
  -21.5831   35.7953   -8.7586 N   0  0  0  0  0  0  0  0  0  0  0  0
  -14.1675   35.5753  -12.2459 O   0  0  0  0  0  0  0  0  0  0  0  0
  -12.8060   28.8241  -13.6754 O   0  0  0  0  0  0  0  0  0  0  0  0
  -14.0526   28.9383  -16.1215 O   0  0  0  0  0  0  0  0  0  0  0  0
  -17.5304   32.7263  -12.9739 O   0  0  0  0  0  0  0  0  0  0  0  0
  -12.4543   35.6293  -14.1568 O   0  0  0  0  0  0  0  0  0  0  0  0
  -14.1011   37.5557  -13.7716 O   0  0  0  0  0  0  0  0  0  0  0  0
  -14.9026   35.3363  -14.6178 O   0  0  0  0  0  0  0  0  0  0  0  0
  -14.2146   35.9265  -16.9767 O   0  0  0  0  0  0  0  0  0  0  0  0
  -16.3841   34.6684  -16.4339 O   0  0  0  0  0  0  0  0  0  0  0  0
  -14.1744   33.5678  -16.2099 O   0  0  0  0  0  0  0  0  0  0  0  0
  -13.2179   31.7187  -14.1974 O   0  0  0  0  0  0  0  0  0  0  0  0
  -15.0652   31.4939  -12.7651 O   0  0  0  0  0  0  0  0  0  0  0  0
  -13.7948   36.0611  -13.7347 P   0  0  2  0  0  0  0  0  0  0  0  0
  -14.9561   34.9328  -16.1584 P   0  0  2  0  0  0  0  0  0  0  0  0
  -20.7994   34.8568  -12.9726 H   0  0  0  0  0  0  0  0  0  0  0  0
  -15.1954   31.9050  -16.9209 H   0  0  0  0  0  0  0  0  0  0  0  0
  -15.5675   32.4079  -15.2178 H   0  0  0  0  0  0  0  0  0  0  0  0
  -12.9996   31.1806  -16.2149 H   0  0  0  0  0  0  0  0  0  0  0  0
  -15.5467   29.9700  -15.2803 H   0  0  0  0  0  0  0  0  0  0  0  0
  -14.7467   28.9383  -13.2511 H   0  0  0  0  0  0  0  0  0  0  0  0
  -13.1719   30.9676  -12.2516 H   0  0  0  0  0  0  0  0  0  0  0  0
  -16.8113   33.8420   -8.0182 H   0  0  0  0  0  0  0  0  0  0  0  0
  -16.7835   32.1094  -10.6367 H   0  0  0  0  0  0  0  0  0  0  0  0
  -16.6835   34.4674  -12.6286 H   0  0  0  0  0  0  0  0  0  0  0  0
  -14.6826   33.3315  -13.5321 H   0  0  0  0  0  0  0  0  0  0  0  0
  -13.6273   32.5134  -11.0968 H   0  0  0  0  0  0  0  0  0  0  0  0
  -13.1383   34.9345  -10.5354 H   0  0  0  0  0  0  0  0  0  0  0  0
  -12.5311   34.2726  -12.0893 H   0  0  0  0  0  0  0  0  0  0  0  0
  -21.2753   35.7977   -7.7757 H   0  0  0  0  0  0  0  0  0  0  0  0
  -22.5221   36.1395   -9.0051 H   0  0  0  0  0  0  0  0  0  0  0  0
  -12.5723   28.6774  -12.7247 H   0  0  0  0  0  0  0  0  0  0  0  0
  -13.7284   28.1360  -15.6405 H   0  0  0  0  0  0  0  0  0  0  0  0
  -18.1349   32.3093  -12.3100 H   0  0  0  0  0  0  0  0  0  0  0  0
  1  2  2  0
  1  4  1  0
  2 18  1  0
  3 13  1  0
  3 16  1  0
  4  5  2  0
  4 21  1  0
  5  6  1  0
  5 20  1  0
  6 18  2  0
  6 19  1  0
  8  7  1  0
  7 31  1  0
  8  9  1  0
  8 32  1  0
  9 10  1  0
  9 24  1  0
 10 11  1  0
 10 23  1  0
 11 32  1  0
 11 33  1  0
 12 19  1  0
 12 20  2  0
 13 14  1  0
 13 19  1  0
 14 15  1  0
 14 25  1  0
 15 16  1  0
 15 33  1  0
 16 17  1  0
 17 22  1  0
 22 34  1  0
 26 34  2  0
 34 27  1  1
 28 34  1  0
 28 35  1  0
 29 35  2  0
 35 30  1  6
 31 35  1  0
  2 36  1  0
  7 37  1  0
  7 38  1  0
  8 39  1  6
  9 40  1  1
 10 41  1  1
 11 42  1  1
 12 43  1  0
 13 44  1  6
 14 45  1  1
 15 46  1  6
 16 47  1  1
 17 48  1  0
 17 49  1  0
 21 50  1  0
 21 51  1  0
 23 52  1  0
 24 53  1  0
 25 54  1  0
M  CHG  2  27  -1  30  -1
M  END
>  <filename_input>  (23) 
7UXS_OJC_docked.sdf

>  <pdb_id>  (23) 
7UXS_OJC

>  <pose_rank>  (23) 
22

>  <num_atoms_heavy>  (23) 
35

>  <num_torsions>  (23) 
1

>  <pose>  (23) 
[-15.294807720186405, 33.61810482517841, -10.322262072426591, 2.2661920883101674, -3.0120851958693784, 1.8238302392387384, -2.25651703264406]

>  <energy>  (23) 
-508.50558533898175

>  <inter_energy>  (23) 
-571.3167458379124

>  <intra_energy>  (23) 
53.91745482013506

>  <rmsd>  (23) 
7.08982

>  <sdf_rank>  (23) 
0

$$$$

     RDKit          3D

 54 58  0  0  0  0  0  0  0  0999 V2000
  -20.1229   36.1503   -8.4891 N   0  0  0  0  0  0  0  0  0  0  0  0
  -18.9425   35.5199   -8.5334 C   0  0  0  0  0  0  0  0  0  0  0  0
  -17.0464   33.2769  -11.0083 O   0  0  0  0  0  0  0  0  0  0  0  0
  -21.0081   35.9435   -9.4862 C   0  0  0  0  0  0  0  0  0  0  0  0
  -20.6417   35.0459  -10.5082 C   0  0  0  0  0  0  0  0  0  0  0  0
  -19.3972   34.4588  -10.4022 C   0  0  0  0  0  0  0  0  0  0  0  0
  -14.6152   32.4125  -16.2375 C   0  0  0  0  0  0  0  0  0  0  0  0
  -13.8943   31.3071  -15.5047 C   0  0  2  0  0  0  0  0  0  0  0  0
  -14.6532   29.9820  -15.6279 C   0  0  2  0  0  0  0  0  0  0  0  0
  -14.7492   29.4849  -14.1852 C   0  0  2  0  0  0  0  0  0  0  0  0
  -14.7314   30.7949  -13.4049 C   0  0  1  0  0  0  0  0  0  0  0  0
  -20.4326   33.8070  -12.2151 C   0  0  0  0  0  0  0  0  0  0  0  0
  -18.0694   32.9542  -11.9282 C   0  0  2  0  0  0  0  0  0  0  0  0
  -17.4909   33.3415  -13.2930 C   0  0  1  0  0  0  0  0  0  0  0  0
  -16.0782   32.7733  -13.1315 C   0  0  1  0  0  0  0  0  0  0  0  0
  -15.7740   33.0260  -11.6536 C   0  0  1  0  0  0  0  0  0  0  0  0
  -14.8563   34.1921  -11.3845 C   0  0  0  0  0  0  0  0  0  0  0  0
  -18.4915   34.6549   -9.4415 N   0  0  0  0  0  0  0  0  0  0  0  0
  -19.2606   33.6618  -11.5199 N   0  0  0  0  0  0  0  0  0  0  0  0
  -21.2915   34.6297  -11.6590 N   0  0  0  0  0  0  0  0  0  0  0  0
  -22.1734   36.6210   -9.4702 N   0  0  0  0  0  0  0  0  0  0  0  0
  -15.2617   35.3217  -12.2065 O   0  0  0  0  0  0  0  0  0  0  0  0
  -13.6712   28.6508  -13.7701 O   0  0  0  0  0  0  0  0  0  0  0  0
  -13.9755   29.0570  -16.4706 O   0  0  0  0  0  0  0  0  0  0  0  0
  -18.2316   32.7627  -14.3482 O   0  0  0  0  0  0  0  0  0  0  0  0
  -12.9856   35.4368  -13.3878 O   0  0  0  0  0  0  0  0  0  0  0  0
  -14.6091   37.4206  -13.3993 O   0  0  0  0  0  0  0  0  0  0  0  0
  -15.1231   35.3385  -14.6972 O   0  0  0  0  0  0  0  0  0  0  0  0
  -13.6343   36.0898  -16.5959 O   0  0  0  0  0  0  0  0  0  0  0  0
  -15.8899   34.9264  -16.9735 O   0  0  0  0  0  0  0  0  0  0  0  0
  -13.9310   33.6749  -16.1130 O   0  0  0  0  0  0  0  0  0  0  0  0
  -13.7937   31.6001  -14.0979 O   0  0  0  0  0  0  0  0  0  0  0  0
  -16.0318   31.3656  -13.4270 O   0  0  0  0  0  0  0  0  0  0  0  0
  -14.3766   35.9124  -13.4144 P   0  0  2  0  0  0  0  0  0  0  0  0
  -14.6430   35.0762  -16.1939 P   0  0  2  0  0  0  0  0  0  0  0  0
  -18.2512   35.7467   -7.7084 H   0  0  0  0  0  0  0  0  0  0  0  0
  -14.6825   32.1479  -17.3031 H   0  0  0  0  0  0  0  0  0  0  0  0
  -15.6152   32.5212  -15.7922 H   0  0  0  0  0  0  0  0  0  0  0  0
  -12.8955   31.2289  -15.9588 H   0  0  0  0  0  0  0  0  0  0  0  0
  -15.6409   30.1018  -16.0972 H   0  0  0  0  0  0  0  0  0  0  0  0
  -15.6333   28.8478  -14.0358 H   0  0  0  0  0  0  0  0  0  0  0  0
  -14.4549   30.6793  -12.3465 H   0  0  0  0  0  0  0  0  0  0  0  0
  -20.6363   33.2793  -13.1585 H   0  0  0  0  0  0  0  0  0  0  0  0
  -18.3707   31.8973  -11.9748 H   0  0  0  0  0  0  0  0  0  0  0  0
  -17.5125   34.4105  -13.5512 H   0  0  0  0  0  0  0  0  0  0  0  0
  -15.3538   33.2361  -13.8177 H   0  0  0  0  0  0  0  0  0  0  0  0
  -15.2441   32.1430  -11.2670 H   0  0  0  0  0  0  0  0  0  0  0  0
  -14.9171   34.4702  -10.3219 H   0  0  0  0  0  0  0  0  0  0  0  0
  -13.8212   33.9109  -11.6286 H   0  0  0  0  0  0  0  0  0  0  0  0
  -22.8628   36.4777  -10.2220 H   0  0  0  0  0  0  0  0  0  0  0  0
  -22.3744   37.2819   -8.7063 H   0  0  0  0  0  0  0  0  0  0  0  0
  -13.6367   28.6241  -12.7811 H   0  0  0  0  0  0  0  0  0  0  0  0
  -13.4917   28.3966  -15.9138 H   0  0  0  0  0  0  0  0  0  0  0  0
  -18.9537   32.1984  -13.9737 H   0  0  0  0  0  0  0  0  0  0  0  0
  1  2  2  0
  1  4  1  0
  2 18  1  0
  3 13  1  0
  3 16  1  0
  4  5  2  0
  4 21  1  0
  5  6  1  0
  5 20  1  0
  6 18  2  0
  6 19  1  0
  8  7  1  0
  7 31  1  0
  8  9  1  0
  8 32  1  0
  9 10  1  0
  9 24  1  0
 10 11  1  0
 10 23  1  0
 11 32  1  0
 11 33  1  0
 12 19  1  0
 12 20  2  0
 13 14  1  0
 13 19  1  0
 14 15  1  0
 14 25  1  0
 15 16  1  0
 15 33  1  0
 16 17  1  0
 17 22  1  0
 22 34  1  0
 26 34  2  0
 34 27  1  6
 28 34  1  0
 28 35  1  0
 29 35  2  0
 35 30  1  6
 31 35  1  0
  2 36  1  0
  7 37  1  0
  7 38  1  0
  8 39  1  6
  9 40  1  6
 10 41  1  6
 11 42  1  1
 12 43  1  0
 13 44  1  6
 14 45  1  6
 15 46  1  6
 16 47  1  1
 17 48  1  0
 17 49  1  0
 21 50  1  0
 21 51  1  0
 23 52  1  0
 24 53  1  0
 25 54  1  0
M  CHG  2  27  -1  30  -1
M  END
>  <filename_input>  (24) 
7UXS_OJC_docked.sdf

>  <pdb_id>  (24) 
7UXS_OJC

>  <pose_rank>  (24) 
23

>  <num_atoms_heavy>  (24) 
35

>  <num_torsions>  (24) 
1

>  <pose>  (24) 
[-17.04639268914425, 33.276890566122226, -11.008271146669177, 2.013326203653154, -3.1347234881643287, 2.4667389307600454, 1.5055357159547633]

>  <energy>  (24) 
-485.75134245574776

>  <inter_energy>  (24) 
-508.1806358304558

>  <intra_energy>  (24) 
31.688995243768588

>  <rmsd>  (24) 
7.27651

>  <sdf_rank>  (24) 
0

$$$$

     RDKit          3D

 54 58  0  0  0  0  0  0  0  0999 V2000
  -13.2538   30.2685  -13.0169 N   0  0  0  0  0  0  0  0  0  0  0  0
  -12.8120   29.5823  -14.0784 C   0  0  0  0  0  0  0  0  0  0  0  0
  -16.0955   30.2107  -18.5737 O   0  0  0  0  0  0  0  0  0  0  0  0
  -14.4456   30.8957  -13.0983 C   0  0  0  0  0  0  0  0  0  0  0  0
  -15.1712   30.7646  -14.2987 C   0  0  0  0  0  0  0  0  0  0  0  0
  -14.5907   30.0067  -15.2954 C   0  0  0  0  0  0  0  0  0  0  0  0
  -15.3285   24.7776  -20.5473 C   0  0  0  0  0  0  0  0  0  0  0  0
  -14.7581   25.4997  -21.7439 C   0  0  2  0  0  0  0  0  0  0  0  0
  -13.2421   25.6742  -21.6072 C   0  0  2  0  0  0  0  0  0  0  0  0
  -13.0224   27.1605  -21.8906 C   0  0  2  0  0  0  0  0  0  0  0  0
  -14.3497   27.7608  -21.4396 C   0  0  1  0  0  0  0  0  0  0  0  0
  -16.5158   30.8236  -15.9360 C   0  0  0  0  0  0  0  0  0  0  0  0
  -15.2283   29.5324  -17.6879 C   0  0  2  0  0  0  0  0  0  0  0  0
  -15.5563   28.0501  -17.8937 C   0  0  1  0  0  0  0  0  0  0  0  0
  -15.6394   28.0266  -19.4225 C   0  0  1  0  0  0  0  0  0  0  0  0
  -16.2595   29.3856  -19.7530 C   0  0  1  0  0  0  0  0  0  0  0  0
  -17.7227   29.3447  -20.1158 C   0  0  0  0  0  0  0  0  0  0  0  0
  -13.4078   29.3897  -15.2550 N   0  0  0  0  0  0  0  0  0  0  0  0
  -15.4635   30.0564  -16.3626 N   0  0  0  0  0  0  0  0  0  0  0  0
  -16.3894   31.2798  -14.7113 N   0  0  0  0  0  0  0  0  0  0  0  0
  -14.8642   31.6323  -12.0498 N   0  0  0  0  0  0  0  0  0  0  0  0
  -18.4245   28.4768  -19.1830 O   0  0  0  0  0  0  0  0  0  0  0  0
  -12.7797   27.4762  -23.2586 O   0  0  0  0  0  0  0  0  0  0  0  0
  -12.5269   24.8432  -22.5144 O   0  0  0  0  0  0  0  0  0  0  0  0
  -14.5468   27.2207  -17.3551 O   0  0  0  0  0  0  0  0  0  0  0  0
  -19.2193   26.9061  -21.0513 O   0  0  0  0  0  0  0  0  0  0  0  0
  -20.3512   26.9419  -18.7515 O   0  0  0  0  0  0  0  0  0  0  0  0
  -18.0372   26.0174  -19.0250 O   0  0  0  0  0  0  0  0  0  0  0  0
  -18.9575   23.8084  -19.8369 O   0  0  0  0  0  0  0  0  0  0  0  0
  -16.9427   23.9798  -18.2573 O   0  0  0  0  0  0  0  0  0  0  0  0
  -16.7585   24.6251  -20.6435 O   0  0  0  0  0  0  0  0  0  0  0  0
  -15.3199   26.8203  -21.8663 O   0  0  0  0  0  0  0  0  0  0  0  0
  -14.3392   27.9002  -20.0261 O   0  0  0  0  0  0  0  0  0  0  0  0
  -19.0864   27.0687  -19.5961 P   0  0  2  0  0  0  0  0  0  0  0  0
  -17.7182   24.5024  -19.4020 P   0  0  2  0  0  0  0  0  0  0  0  0
  -11.8233   29.1140  -13.9639 H   0  0  0  0  0  0  0  0  0  0  0  0
  -14.8682   23.7808  -20.4807 H   0  0  0  0  0  0  0  0  0  0  0  0
  -15.1089   25.3764  -19.6511 H   0  0  0  0  0  0  0  0  0  0  0  0
  -15.0030   24.8887  -22.6253 H   0  0  0  0  0  0  0  0  0  0  0  0
  -12.8693   25.3761  -20.6162 H   0  0  0  0  0  0  0  0  0  0  0  0
  -12.1246   27.5401  -21.3808 H   0  0  0  0  0  0  0  0  0  0  0  0
  -14.5507   28.7596  -21.8543 H   0  0  0  0  0  0  0  0  0  0  0  0
  -17.3916   31.0389  -16.5658 H   0  0  0  0  0  0  0  0  0  0  0  0
  -14.1501   29.6682  -17.8581 H   0  0  0  0  0  0  0  0  0  0  0  0
  -16.4605   27.6722  -17.3942 H   0  0  0  0  0  0  0  0  0  0  0  0
  -16.2183   27.1720  -19.8028 H   0  0  0  0  0  0  0  0  0  0  0  0
  -15.7488   29.7764  -20.6454 H   0  0  0  0  0  0  0  0  0  0  0  0
  -18.1434   30.3596  -20.0612 H   0  0  0  0  0  0  0  0  0  0  0  0
  -17.8384   28.9571  -21.1387 H   0  0  0  0  0  0  0  0  0  0  0  0
  -15.7710   32.1191  -12.0917 H   0  0  0  0  0  0  0  0  0  0  0  0
  -14.2774   31.7083  -11.2068 H   0  0  0  0  0  0  0  0  0  0  0  0
  -12.1773   28.2598  -23.3145 H   0  0  0  0  0  0  0  0  0  0  0  0
  -11.9728   24.1995  -22.0057 H   0  0  0  0  0  0  0  0  0  0  0  0
  -14.5859   27.2529  -16.3664 H   0  0  0  0  0  0  0  0  0  0  0  0
  1  2  2  0
  1  4  1  0
  2 18  1  0
  3 13  1  0
  3 16  1  0
  4  5  2  0
  4 21  1  0
  5  6  1  0
  5 20  1  0
  6 18  2  0
  6 19  1  0
  8  7  1  0
  7 31  1  0
  8  9  1  0
  8 32  1  0
  9 10  1  0
  9 24  1  0
 10 11  1  0
 10 23  1  0
 11 32  1  0
 11 33  1  0
 12 19  1  0
 12 20  2  0
 13 14  1  0
 13 19  1  0
 14 15  1  0
 14 25  1  0
 15 16  1  0
 15 33  1  0
 16 17  1  0
 17 22  1  0
 22 34  1  0
 26 34  2  0
 34 27  1  1
 28 34  1  0
 28 35  1  0
 29 35  2  0
 35 30  1  1
 31 35  1  0
  2 36  1  0
  7 37  1  0
  7 38  1  0
  8 39  1  6
  9 40  1  1
 10 41  1  1
 11 42  1  6
 12 43  1  0
 13 44  1  6
 14 45  1  1
 15 46  1  1
 16 47  1  6
 17 48  1  0
 17 49  1  0
 21 50  1  0
 21 51  1  0
 23 52  1  0
 24 53  1  0
 25 54  1  0
M  CHG  2  27  -1  30  -1
M  END
>  <filename_input>  (25) 
7UXS_OJC_docked.sdf

>  <pdb_id>  (25) 
7UXS_OJC

>  <pose_rank>  (25) 
24

>  <num_atoms_heavy>  (25) 
35

>  <num_torsions>  (25) 
1

>  <pose>  (25) 
[-16.095514999036432, 30.210736444522375, -18.57371869991228, 2.977572986710992, -0.3715852741567344, -0.5824254245035664, -1.2050364208382998]

>  <energy>  (25) 
-409.2277153910827

>  <inter_energy>  (25) 
-409.6365175691643

>  <intra_energy>  (25) 
2.840389217466294

>  <rmsd>  (25) 
9.70061

>  <sdf_rank>  (25) 
0

$$$$

     RDKit          3D

 54 58  0  0  0  0  0  0  0  0999 V2000
  -15.1060   27.0890  -18.7200 N   0  0  0  0  0  0  0  0  0  0  0  0
  -14.1260   27.1400  -17.8090 C   0  0  0  0  0  0  0  0  0  0  0  0
  -14.6870   29.8720  -13.8740 O   0  0  0  0  0  0  0  0  0  0  0  0
  -16.0190   28.0820  -18.7490 C   0  0  0  0  0  0  0  0  0  0  0  0
  -15.8660   29.1360  -17.8270 C   0  0  0  0  0  0  0  0  0  0  0  0
  -14.7920   29.0550  -16.9640 C   0  0  0  0  0  0  0  0  0  0  0  0
  -11.9150   34.7020  -12.1450 C   0  0  0  0  0  0  0  0  0  0  0  0
  -11.1540   33.7240  -11.2830 C   0  0  2  0  0  0  0  0  0  0  0  0
   -9.8860   33.2390  -11.9930 C   0  0  2  0  0  0  0  0  0  0  0  0
   -9.9620   31.7170  -11.8690 C   0  0  2  0  0  0  0  0  0  0  0  0
  -11.4680   31.4870  -11.8020 C   0  0  1  0  0  0  0  0  0  0  0  0
  -15.9820   30.8510  -16.5870 C   0  0  0  0  0  0  0  0  0  0  0  0
  -14.0560   30.4510  -14.9980 C   0  0  2  0  0  0  0  0  0  0  0  0
  -13.9020   31.9300  -14.6290 C   0  0  1  0  0  0  0  0  0  0  0  0
  -13.4200   31.7740  -13.1840 C   0  0  1  0  0  0  0  0  0  0  0  0
  -14.2010   30.5540  -12.6920 C   0  0  1  0  0  0  0  0  0  0  0  0
  -15.3740   30.8690  -11.7980 C   0  0  0  0  0  0  0  0  0  0  0  0
  -13.8830   28.0800  -16.8960 N   0  0  0  0  0  0  0  0  0  0  0  0
  -14.8770   30.1670  -16.1520 N   0  0  0  0  0  0  0  0  0  0  0  0
  -16.6160   30.2750  -17.5820 N   0  0  0  0  0  0  0  0  0  0  0  0
  -17.0370   28.0020  -19.6290 N   0  0  0  0  0  0  0  0  0  0  0  0
  -16.1210   31.9830  -12.3610 O   0  0  0  0  0  0  0  0  0  0  0  0
   -9.3310   31.1820  -10.7090 O   0  0  0  0  0  0  0  0  0  0  0  0
   -8.7070   33.7680  -11.3970 O   0  0  0  0  0  0  0  0  0  0  0  0
  -12.9800   32.5790  -15.4810 O   0  0  0  0  0  0  0  0  0  0  0  0
  -15.7650   33.4360  -10.2750 O   0  0  0  0  0  0  0  0  0  0  0  0
  -17.6190   33.9470  -11.9700 O   0  0  0  0  0  0  0  0  0  0  0  0
  -15.2090   34.2960  -12.5650 O   0  0  0  0  0  0  0  0  0  0  0  0
  -15.1850   36.5300  -11.3840 O   0  0  0  0  0  0  0  0  0  0  0  0
  -13.9880   36.1240  -13.6170 O   0  0  0  0  0  0  0  0  0  0  0  0
  -13.1260   35.1520  -11.5060 O   0  0  0  0  0  0  0  0  0  0  0  0
  -11.9480   32.5550  -11.0040 O   0  0  0  0  0  0  0  0  0  0  0  0
  -12.0030   31.5320  -13.1170 O   0  0  0  0  0  0  0  0  0  0  0  0
  -16.2110   33.4370  -11.6760 P   0  0  2  0  0  0  0  0  0  0  0  0
  -14.4040   35.6420  -12.2830 P   0  0  2  0  0  0  0  0  0  0  0  0
  -13.4267   26.2909  -17.8150 H   0  0  0  0  0  0  0  0  0  0  0  0
  -11.2739   35.5730  -12.3456 H   0  0  0  0  0  0  0  0  0  0  0  0
  -12.1919   34.1902  -13.0785 H   0  0  0  0  0  0  0  0  0  0  0  0
  -10.9022   34.2551  -10.3532 H   0  0  0  0  0  0  0  0  0  0  0  0
   -9.8329   33.5728  -13.0398 H   0  0  0  0  0  0  0  0  0  0  0  0
   -9.4353   31.2178  -12.6957 H   0  0  0  0  0  0  0  0  0  0  0  0
  -11.7514   30.5121  -11.3786 H   0  0  0  0  0  0  0  0  0  0  0  0
  -16.3098   31.8014  -16.1406 H   0  0  0  0  0  0  0  0  0  0  0  0
  -13.0607   30.0603  -15.2563 H   0  0  0  0  0  0  0  0  0  0  0  0
  -14.7985   32.5589  -14.7324 H   0  0  0  0  0  0  0  0  0  0  0  0
  -13.5869   32.6788  -12.5811 H   0  0  0  0  0  0  0  0  0  0  0  0
  -13.5196   29.9486  -12.0762 H   0  0  0  0  0  0  0  0  0  0  0  0
  -16.0278   29.9874  -11.7251 H   0  0  0  0  0  0  0  0  0  0  0  0
  -15.0115   31.1375  -10.7948 H   0  0  0  0  0  0  0  0  0  0  0  0
  -17.7446   28.7495  -19.6673 H   0  0  0  0  0  0  0  0  0  0  0  0
  -17.1072   27.1934  -20.2631 H   0  0  0  0  0  0  0  0  0  0  0  0
   -9.7645   31.5495   -9.8984 H   0  0  0  0  0  0  0  0  0  0  0  0
   -8.7903   33.7306  -10.4112 H   0  0  0  0  0  0  0  0  0  0  0  0
  -12.3046   33.0545  -14.9353 H   0  0  0  0  0  0  0  0  0  0  0  0
  1  2  2  0
  1  4  1  0
  2 18  1  0
  3 13  1  0
  3 16  1  0
  4  5  2  0
  4 21  1  0
  5  6  1  0
  5 20  1  0
  6 18  2  0
  6 19  1  0
  8  7  1  0
  7 31  1  0
  8  9  1  0
  8 32  1  0
  9 10  1  0
  9 24  1  0
 10 11  1  0
 10 23  1  0
 11 32  1  0
 11 33  1  0
 12 19  1  0
 12 20  2  0
 13 14  1  0
 13 19  1  0
 14 15  1  0
 14 25  1  0
 15 16  1  0
 15 33  1  0
 16 17  1  0
 17 22  1  0
 22 34  1  0
 26 34  2  0
 34 27  1  1
 28 34  1  0
 28 35  1  0
 29 35  2  0
 35 30  1  6
 31 35  1  0
  2 36  1  0
  7 37  1  0
  7 38  1  0
  8 39  1  1
  9 40  1  6
 10 41  1  6
 11 42  1  1
 12 43  1  0
 13 44  1  6
 14 45  1  1
 15 46  1  1
 16 47  1  1
 17 48  1  0
 17 49  1  0
 21 50  1  0
 21 51  1  0
 23 52  1  0
 24 53  1  0
 25 54  1  0
M  CHG  2  27  -1  30  -1
M  END
>  <filename_input>  (26) 
7UXS_OJC_docked.sdf

>  <pdb_id>  (26) 
7UXS_OJC

>  <pose_rank>  (26) 
25

>  <num_atoms_heavy>  (26) 
35

>  <num_torsions>  (26) 
1

>  <pose>  (26) 
[-14.687, 29.872, -13.874, 1e-06, 1e-06, 1e-06, 0.0]

>  <energy>  (26) 
-879.7941335765346

>  <inter_energy>  (26) 
-892.166420860334

>  <intra_energy>  (26) 
0.0

>  <rmsd>  (26) 
0.0

>  <sdf_rank>  (26) 
0

$$$$
