
     RDKit          3D

 52 54  0  0  0  0  0  0  0  0999 V2000
   -0.0987  -31.1007   18.4657 O   0  0  0  0  0  0  0  0  0  0  0  0
    0.1684  -32.3033   17.7691 C   0  0  2  0  0  0  0  0  0  0  0  0
    1.6585  -32.3386   17.3872 C   0  0  0  0  0  0  0  0  0  0  0  0
   -0.6496  -32.2872   16.5384 C   0  0  0  0  0  0  0  0  0  0  0  0
   -2.1391  -32.2207   16.8434 C   0  0  1  0  0  0  0  0  0  0  0  0
   -2.3912  -31.0587   17.7938 C   0  0  1  0  0  0  0  0  0  0  0  0
   -3.6844  -31.2282   18.3371 O   0  0  0  0  0  0  0  0  0  0  0  0
   -1.4225  -31.0755   19.0009 C   0  0  2  0  0  0  0  0  0  0  0  0
   -2.2264  -29.8559   17.0144 O   0  0  0  0  0  0  0  0  0  0  0  0
   -1.6288  -29.8792   19.8027 O   0  0  0  0  0  0  0  0  0  0  0  0
   -2.3448  -28.7018   17.8358 C   0  0  2  0  0  0  0  0  0  0  0  0
   -2.0428  -27.4593   16.9784 C   0  0  1  0  0  0  0  0  0  0  0  0
   -2.8684  -27.5223   15.7881 N   0  0  0  0  0  0  0  0  0  0  0  0
   -2.5300  -26.7440   14.5787 C   0  0  0  0  0  0  0  0  0  0  0  0
   -2.1367  -26.2019   17.7713 C   0  0  1  0  0  0  0  0  0  0  0  0
   -3.4792  -25.9684   18.1741 O   0  0  0  0  0  0  0  0  0  0  0  0
   -1.2951  -26.3295   19.0475 C   0  0  1  0  0  0  0  0  0  0  0  0
   -1.4522  -25.1658   19.9533 N   0  0  0  0  0  0  0  0  0  0  0  0
   -0.2920  -24.3510   20.1769 C   0  0  0  0  0  0  0  0  0  0  0  0
   -1.5944  -27.5222   19.8488 C   0  0  2  0  0  0  0  0  0  0  0  0
   -0.7001  -27.5723   21.0072 O   0  0  0  0  0  0  0  0  0  0  0  0
   -1.3851  -28.7818   18.9981 C   0  0  1  0  0  0  0  0  0  0  0  0
   -2.8566  -32.1153   15.6453 O   0  0  0  0  0  0  0  0  0  0  0  0
   -2.6023  -33.4292   17.4367 O   0  0  0  0  0  0  0  0  0  0  0  0
   -0.0688  -33.1821   18.3866 H   0  0  0  0  0  0  0  0  0  0  0  0
    2.2709  -32.3531   18.3009 H   0  0  0  0  0  0  0  0  0  0  0  0
    1.8637  -33.2418   16.7939 H   0  0  0  0  0  0  0  0  0  0  0  0
    1.9062  -31.4460   16.7939 H   0  0  0  0  0  0  0  0  0  0  0  0
   -0.3706  -31.4085   15.9382 H   0  0  0  0  0  0  0  0  0  0  0  0
   -0.4568  -33.2214   15.9906 H   0  0  0  0  0  0  0  0  0  0  0  0
   -3.6307  -31.2212   19.3256 H   0  0  0  0  0  0  0  0  0  0  0  0
   -1.5931  -31.9490   19.6474 H   0  0  0  0  0  0  0  0  0  0  0  0
   -3.3650  -28.6374   18.2422 H   0  0  0  0  0  0  0  0  0  0  0  0
   -0.9963  -27.4513   16.6396 H   0  0  0  0  0  0  0  0  0  0  0  0
   -2.8919  -28.5113   15.5014 H   0  0  0  0  0  0  0  0  0  0  0  0
   -3.7453  -27.0813   16.1001 H   0  0  0  0  0  0  0  0  0  0  0  0
   -2.1075  -25.7723   14.8743 H   0  0  0  0  0  0  0  0  0  0  0  0
   -1.7916  -27.2982   13.9807 H   0  0  0  0  0  0  0  0  0  0  0  0
   -3.4389  -26.5820   13.9807 H   0  0  0  0  0  0  0  0  0  0  0  0
   -1.7762  -25.3761   17.1403 H   0  0  0  0  0  0  0  0  0  0  0  0
   -3.5303  -25.9595   19.1627 H   0  0  0  0  0  0  0  0  0  0  0  0
   -0.2681  -26.3956   18.6590 H   0  0  0  0  0  0  0  0  0  0  0  0
   -2.1850  -24.5604   19.5566 H   0  0  0  0  0  0  0  0  0  0  0  0
   -1.6743  -25.5720   20.8734 H   0  0  0  0  0  0  0  0  0  0  0  0
   -0.1278  -24.2357   21.2585 H   0  0  0  0  0  0  0  0  0  0  0  0
    0.5867  -24.8313   19.7218 H   0  0  0  0  0  0  0  0  0  0  0  0
   -0.4457  -23.3614   19.7218 H   0  0  0  0  0  0  0  0  0  0  0  0
   -2.6395  -27.4755   20.1887 H   0  0  0  0  0  0  0  0  0  0  0  0
   -1.2358  -27.5423   21.8392 H   0  0  0  0  0  0  0  0  0  0  0  0
   -0.3622  -28.8681   18.6029 H   0  0  0  0  0  0  0  0  0  0  0  0
   -3.8157  -31.9745   15.8463 H   0  0  0  0  0  0  0  0  0  0  0  0
   -2.5704  -33.3461   18.4227 H   0  0  0  0  0  0  0  0  0  0  0  0
  1  2  1  0
  8  1  1  0
  2  3  1  0
  2  4  1  0
  4  5  1  0
  5  6  1  0
  5 23  1  6
  5 24  1  0
  6  7  1  1
  6  8  1  0
  6  9  1  0
  8 10  1  0
 11  9  1  0
 22 10  1  0
 11 12  1  0
 11 22  1  0
 12 13  1  0
 12 15  1  0
 13 14  1  0
 15 16  1  0
 15 17  1  0
 17 18  1  0
 17 20  1  0
 18 19  1  0
 20 21  1  0
 20 22  1  0
  2 25  1  1
  3 26  1  0
  3 27  1  0
  3 28  1  0
  4 29  1  0
  4 30  1  0
  7 31  1  0
  8 32  1  1
 11 33  1  1
 12 34  1  6
 13 35  1  0
 13 36  1  0
 14 37  1  0
 14 38  1  0
 14 39  1  0
 15 40  1  6
 16 41  1  0
 17 42  1  6
 18 43  1  0
 18 44  1  0
 19 45  1  0
 19 46  1  0
 19 47  1  0
 20 48  1  1
 21 49  1  0
 22 50  1  6
 23 51  1  0
 24 52  1  0
M  CHG  2  13   1  18   1
M  END
>  <filename_input>  (1) 
7UY4_SMI_docked.sdf

>  <pdb_id>  (1) 
7UY4_SMI

>  <pose_rank>  (1) 
0

>  <num_atoms_heavy>  (1) 
24

>  <num_torsions>  (1) 
2

>  <pose>  (1) 
[-0.09867704727700694, -31.10071466617243, 18.465690686429376, 3.719275597217538, -3.111664886834104, -2.3899398995280374, 0.44930019949979044, -0.8234362540669651]

>  <energy>  (1) 
-518.0905919901423

>  <inter_energy>  (1) 
-520.35928994932

>  <intra_energy>  (1) 
1.8522188784322515

>  <rmsd>  (1) 
2.20439

>  <sdf_rank>  (1) 
0

$$$$

     RDKit          3D

 52 54  0  0  0  0  0  0  0  0999 V2000
    0.1883  -31.8905   19.2567 O   0  0  0  0  0  0  0  0  0  0  0  0
    1.1462  -32.8979   18.9917 C   0  0  2  0  0  0  0  0  0  0  0  0
    2.5132  -32.4410   19.5300 C   0  0  0  0  0  0  0  0  0  0  0  0
    1.2268  -33.0501   17.5240 C   0  0  0  0  0  0  0  0  0  0  0  0
   -0.1047  -33.4720   16.9195 C   0  0  1  0  0  0  0  0  0  0  0  0
   -1.1856  -32.5163   17.4048 C   0  0  1  0  0  0  0  0  0  0  0  0
   -2.4354  -33.1175   17.1351 O   0  0  0  0  0  0  0  0  0  0  0  0
   -1.1373  -32.3162   18.9389 C   0  0  2  0  0  0  0  0  0  0  0  0
   -0.9634  -31.2700   16.7128 O   0  0  0  0  0  0  0  0  0  0  0  0
   -2.1076  -31.3031   19.3247 O   0  0  0  0  0  0  0  0  0  0  0  0
   -1.8656  -30.2710   17.1698 C   0  0  2  0  0  0  0  0  0  0  0  0
   -1.5055  -28.9388   16.4872 C   0  0  1  0  0  0  0  0  0  0  0  0
   -1.4308  -29.1712   15.0579 N   0  0  0  0  0  0  0  0  0  0  0  0
   -1.0498  -28.0910   14.1248 C   0  0  0  0  0  0  0  0  0  0  0  0
   -2.4029  -27.8323   16.9219 C   0  0  1  0  0  0  0  0  0  0  0  0
   -3.7276  -28.0571   16.4595 O   0  0  0  0  0  0  0  0  0  0  0  0
   -2.4590  -27.7817   18.4541 C   0  0  1  0  0  0  0  0  0  0  0  0
   -3.4421  -26.7916   18.9566 N   0  0  0  0  0  0  0  0  0  0  0  0
   -3.1904  -25.4109   18.6562 C   0  0  0  0  0  0  0  0  0  0  0  0
   -2.7992  -29.0618   19.0863 C   0  0  2  0  0  0  0  0  0  0  0  0
   -2.7700  -28.9130   20.5427 O   0  0  0  0  0  0  0  0  0  0  0  0
   -1.7799  -30.1304   18.6702 C   0  0  1  0  0  0  0  0  0  0  0  0
    0.0075  -33.5106   15.5241 O   0  0  0  0  0  0  0  0  0  0  0  0
   -0.4455  -34.8033   17.2914 O   0  0  0  0  0  0  0  0  0  0  0  0
    0.8671  -33.8483   19.4701 H   0  0  0  0  0  0  0  0  0  0  0  0
    2.4949  -32.4471   20.6298 H   0  0  0  0  0  0  0  0  0  0  0  0
    3.2958  -33.1263   19.1725 H   0  0  0  0  0  0  0  0  0  0  0  0
    2.7263  -31.4227   19.1725 H   0  0  0  0  0  0  0  0  0  0  0  0
    1.5277  -32.0882   17.0833 H   0  0  0  0  0  0  0  0  0  0  0  0
    1.9635  -33.8369   17.3044 H   0  0  0  0  0  0  0  0  0  0  0  0
   -2.8878  -33.3352   17.9884 H   0  0  0  0  0  0  0  0  0  0  0  0
   -1.3838  -33.2428   19.4780 H   0  0  0  0  0  0  0  0  0  0  0  0
   -2.8969  -30.5559   16.9143 H   0  0  0  0  0  0  0  0  0  0  0  0
   -0.5144  -28.5818   16.8037 H   0  0  0  0  0  0  0  0  0  0  0  0
   -0.7473  -29.9295   14.9210 H   0  0  0  0  0  0  0  0  0  0  0  0
   -2.4144  -29.3468   14.8078 H   0  0  0  0  0  0  0  0  0  0  0  0
   -0.7374  -27.2052   14.6972 H   0  0  0  0  0  0  0  0  0  0  0  0
   -0.2172  -28.4305   13.4911 H   0  0  0  0  0  0  0  0  0  0  0  0
   -1.9112  -27.8331   13.4911 H   0  0  0  0  0  0  0  0  0  0  0  0
   -2.0065  -26.8930   16.5090 H   0  0  0  0  0  0  0  0  0  0  0  0
   -4.3347  -28.1601   17.2347 H   0  0  0  0  0  0  0  0  0  0  0  0
   -1.4323  -27.4975   18.7283 H   0  0  0  0  0  0  0  0  0  0  0  0
   -4.3594  -27.0342   18.5560 H   0  0  0  0  0  0  0  0  0  0  0  0
   -3.3848  -26.8561   19.9830 H   0  0  0  0  0  0  0  0  0  0  0  0
   -3.0871  -24.8447   19.5936 H   0  0  0  0  0  0  0  0  0  0  0  0
   -2.2619  -25.3261   18.0724 H   0  0  0  0  0  0  0  0  0  0  0  0
   -4.0291  -25.0039   18.0724 H   0  0  0  0  0  0  0  0  0  0  0  0
   -3.8060  -29.3666   18.7647 H   0  0  0  0  0  0  0  0  0  0  0  0
   -2.9424  -29.7904   20.9676 H   0  0  0  0  0  0  0  0  0  0  0  0
   -0.7466  -29.8661   18.9392 H   0  0  0  0  0  0  0  0  0  0  0  0
    0.9133  -33.8226   15.2744 H   0  0  0  0  0  0  0  0  0  0  0  0
   -0.4640  -34.8757   18.2786 H   0  0  0  0  0  0  0  0  0  0  0  0
  1  2  1  0
  8  1  1  0
  2  3  1  0
  2  4  1  0
  4  5  1  0
  5  6  1  0
  5 23  1  6
  5 24  1  0
  6  7  1  1
  6  8  1  0
  6  9  1  0
  8 10  1  0
 11  9  1  0
 22 10  1  0
 11 12  1  0
 11 22  1  0
 12 13  1  0
 12 15  1  0
 13 14  1  0
 15 16  1  0
 15 17  1  0
 17 18  1  0
 17 20  1  0
 18 19  1  0
 20 21  1  0
 20 22  1  0
  2 25  1  1
  3 26  1  0
  3 27  1  0
  3 28  1  0
  4 29  1  0
  4 30  1  0
  7 31  1  0
  8 32  1  1
 11 33  1  1
 12 34  1  1
 13 35  1  0
 13 36  1  0
 14 37  1  0
 14 38  1  0
 14 39  1  0
 15 40  1  6
 16 41  1  0
 17 42  1  1
 18 43  1  0
 18 44  1  0
 19 45  1  0
 19 46  1  0
 19 47  1  0
 20 48  1  6
 21 49  1  0
 22 50  1  6
 23 51  1  0
 24 52  1  0
M  CHG  2  13   1  18   1
M  END
>  <filename_input>  (2) 
7UY4_SMI_docked.sdf

>  <pdb_id>  (2) 
7UY4_SMI

>  <pose_rank>  (2) 
1

>  <num_atoms_heavy>  (2) 
24

>  <num_torsions>  (2) 
2

>  <pose>  (2) 
[0.18829852621686927, -31.89049577507072, 19.25671185788421, 4.488856854396216, 1.0588842866839074, -2.6828866452274465, -6.135988220678124, 0.06919358353705513]

>  <energy>  (2) 
-616.7149383146059

>  <inter_energy>  (2) 
-600.1407766658872

>  <intra_energy>  (2) 
0.49247937567609656

>  <rmsd>  (2) 
2.97223

>  <sdf_rank>  (2) 
0

$$$$

     RDKit          3D

 52 54  0  0  0  0  0  0  0  0999 V2000
   -1.0291  -31.7642   17.9301 O   0  0  0  0  0  0  0  0  0  0  0  0
   -0.7778  -32.6586   16.8625 C   0  0  2  0  0  0  0  0  0  0  0  0
    0.5223  -33.4288   17.1521 C   0  0  0  0  0  0  0  0  0  0  0  0
   -0.6003  -31.8445   15.6420 C   0  0  0  0  0  0  0  0  0  0  0  0
   -1.8428  -31.0295   15.3133 C   0  0  1  0  0  0  0  0  0  0  0  0
   -2.2531  -30.2444   16.5512 C   0  0  1  0  0  0  0  0  0  0  0  0
   -3.5747  -29.7892   16.3458 O   0  0  0  0  0  0  0  0  0  0  0  0
   -2.3075  -31.1383   17.8137 C   0  0  2  0  0  0  0  0  0  0  0  0
   -1.2783  -29.1919   16.7037 O   0  0  0  0  0  0  0  0  0  0  0  0
   -2.5820  -30.3120   18.9792 O   0  0  0  0  0  0  0  0  0  0  0  0
   -1.5147  -28.4536   17.8953 C   0  0  2  0  0  0  0  0  0  0  0  0
   -0.3804  -27.4269   18.0666 C   0  0  1  0  0  0  0  0  0  0  0  0
   -0.2578  -26.6809   16.8293 N   0  0  0  0  0  0  0  0  0  0  0  0
    0.5118  -25.4213   16.7668 C   0  0  0  0  0  0  0  0  0  0  0  0
   -0.5493  -26.6146   19.3037 C   0  0  1  0  0  0  0  0  0  0  0  0
   -1.6946  -25.7803   19.1968 O   0  0  0  0  0  0  0  0  0  0  0  0
   -0.7726  -27.5411   20.5058 C   0  0  1  0  0  0  0  0  0  0  0  0
   -1.0862  -26.7966   21.7495 N   0  0  0  0  0  0  0  0  0  0  0  0
    0.0249  -26.3227   22.5247 C   0  0  0  0  0  0  0  0  0  0  0  0
   -1.8548  -28.5154   20.3217 C   0  0  2  0  0  0  0  0  0  0  0  0
   -1.9431  -29.3794   21.5006 O   0  0  0  0  0  0  0  0  0  0  0  0
   -1.5674  -29.3791   19.0866 C   0  0  1  0  0  0  0  0  0  0  0  0
   -1.5853  -30.2122   14.2055 O   0  0  0  0  0  0  0  0  0  0  0  0
   -2.9191  -31.8660   14.9025 O   0  0  0  0  0  0  0  0  0  0  0  0
   -1.6041  -33.3744   16.7402 H   0  0  0  0  0  0  0  0  0  0  0  0
    0.6642  -33.5128   18.2396 H   0  0  0  0  0  0  0  0  0  0  0  0
    0.4583  -34.4348   16.7118 H   0  0  0  0  0  0  0  0  0  0  0  0
    1.3739  -32.8893   16.7118 H   0  0  0  0  0  0  0  0  0  0  0  0
    0.2452  -31.1574   15.7935 H   0  0  0  0  0  0  0  0  0  0  0  0
   -0.4116  -32.5292   14.8020 H   0  0  0  0  0  0  0  0  0  0  0  0
   -4.0117  -29.6387   17.2213 H   0  0  0  0  0  0  0  0  0  0  0  0
   -3.1019  -31.8958   17.7420 H   0  0  0  0  0  0  0  0  0  0  0  0
   -2.4821  -27.9347   17.8259 H   0  0  0  0  0  0  0  0  0  0  0  0
    0.5867  -27.9230   18.2360 H   0  0  0  0  0  0  0  0  0  0  0  0
    0.1720  -27.3196   16.1450 H   0  0  0  0  0  0  0  0  0  0  0  0
   -1.2231  -26.3621   16.6634 H   0  0  0  0  0  0  0  0  0  0  0  0
    0.7256  -25.0713   17.7875 H   0  0  0  0  0  0  0  0  0  0  0  0
    1.4578  -25.5956   16.2333 H   0  0  0  0  0  0  0  0  0  0  0  0
   -0.0751  -24.6591   16.2333 H   0  0  0  0  0  0  0  0  0  0  0  0
    0.3576  -26.0064   19.4357 H   0  0  0  0  0  0  0  0  0  0  0  0
   -2.0173  -25.5453   20.1028 H   0  0  0  0  0  0  0  0  0  0  0  0
    0.1881  -28.0701   20.5902 H   0  0  0  0  0  0  0  0  0  0  0  0
   -1.6530  -25.9777   21.4865 H   0  0  0  0  0  0  0  0  0  0  0  0
   -1.5629  -27.4790   22.3560 H   0  0  0  0  0  0  0  0  0  0  0  0
   -0.2065  -26.4214   23.5955 H   0  0  0  0  0  0  0  0  0  0  0  0
    0.9187  -26.9179   22.2863 H   0  0  0  0  0  0  0  0  0  0  0  0
    0.2140  -25.2656   22.2863 H   0  0  0  0  0  0  0  0  0  0  0  0
   -2.8045  -27.9779   20.1837 H   0  0  0  0  0  0  0  0  0  0  0  0
   -1.8866  -28.8266   22.3199 H   0  0  0  0  0  0  0  0  0  0  0  0
   -0.6117  -29.9196   19.1533 H   0  0  0  0  0  0  0  0  0  0  0  0
   -1.3028  -29.3155   14.5156 H   0  0  0  0  0  0  0  0  0  0  0  0
   -3.3812  -32.2251   15.7010 H   0  0  0  0  0  0  0  0  0  0  0  0
  1  2  1  0
  8  1  1  0
  2  3  1  0
  2  4  1  0
  4  5  1  0
  5  6  1  0
  5 23  1  6
  5 24  1  0
  6  7  1  6
  6  8  1  0
  6  9  1  0
  8 10  1  0
 11  9  1  0
 22 10  1  0
 11 12  1  0
 11 22  1  0
 12 13  1  0
 12 15  1  0
 13 14  1  0
 15 16  1  0
 15 17  1  0
 17 18  1  0
 17 20  1  0
 18 19  1  0
 20 21  1  0
 20 22  1  0
  2 25  1  6
  3 26  1  0
  3 27  1  0
  3 28  1  0
  4 29  1  0
  4 30  1  0
  7 31  1  0
  8 32  1  6
 11 33  1  6
 12 34  1  1
 13 35  1  0
 13 36  1  0
 14 37  1  0
 14 38  1  0
 14 39  1  0
 15 40  1  1
 16 41  1  0
 17 42  1  1
 18 43  1  0
 18 44  1  0
 19 45  1  0
 19 46  1  0
 19 47  1  0
 20 48  1  6
 21 49  1  0
 22 50  1  1
 23 51  1  0
 24 52  1  0
M  CHG  2  13   1  18   1
M  END
>  <filename_input>  (3) 
7UY4_SMI_docked.sdf

>  <pdb_id>  (3) 
7UY4_SMI

>  <pose_rank>  (3) 
2

>  <num_atoms_heavy>  (3) 
24

>  <num_torsions>  (3) 
2

>  <pose>  (3) 
[-1.0290987434340457, -31.764152864425522, 17.930053871008123, 3.187234447423618, 0.493589648097474, 5.173611457865406, -0.14924834756860747, -0.30468583897210455]

>  <energy>  (3) 
-605.8682991790241

>  <inter_energy>  (3) 
-601.1551266993708

>  <intra_energy>  (3) 
2.667504533506956

>  <rmsd>  (3) 
0.737491

>  <sdf_rank>  (3) 
0

$$$$

     RDKit          3D

 52 54  0  0  0  0  0  0  0  0999 V2000
   -1.4102  -27.1403   17.1255 O   0  0  0  0  0  0  0  0  0  0  0  0
   -0.8083  -25.9204   17.5159 C   0  0  2  0  0  0  0  0  0  0  0  0
    0.0100  -25.3675   16.3361 C   0  0  0  0  0  0  0  0  0  0  0  0
    0.1014  -26.2215   18.6410 C   0  0  0  0  0  0  0  0  0  0  0  0
   -0.6406  -26.8035   19.8355 C   0  0  1  0  0  0  0  0  0  0  0  0
   -1.4821  -27.9800   19.3613 C   0  0  1  0  0  0  0  0  0  0  0  0
   -2.4152  -28.2723   20.3812 O   0  0  0  0  0  0  0  0  0  0  0  0
   -2.3228  -27.6257   18.1109 C   0  0  2  0  0  0  0  0  0  0  0  0
   -0.5570  -29.0500   19.0770 O   0  0  0  0  0  0  0  0  0  0  0  0
   -3.0058  -28.8185   17.6341 O   0  0  0  0  0  0  0  0  0  0  0  0
   -1.2361  -30.1726   18.5298 C   0  0  2  0  0  0  0  0  0  0  0  0
   -0.1904  -31.2319   18.1368 C   0  0  1  0  0  0  0  0  0  0  0  0
    0.6698  -31.4614   19.2814 N   0  0  0  0  0  0  0  0  0  0  0  0
    1.8035  -32.4061   19.2107 C   0  0  0  0  0  0  0  0  0  0  0  0
   -0.8231  -32.4427   17.5434 C   0  0  1  0  0  0  0  0  0  0  0  0
   -1.5926  -33.1298   18.5205 O   0  0  0  0  0  0  0  0  0  0  0  0
   -1.7813  -32.0288   16.4191 C   0  0  1  0  0  0  0  0  0  0  0  0
   -2.5509  -33.1738   15.8751 N   0  0  0  0  0  0  0  0  0  0  0  0
   -1.8139  -34.1730   15.1551 C   0  0  0  0  0  0  0  0  0  0  0  0
   -2.7675  -31.0152   16.8118 C   0  0  2  0  0  0  0  0  0  0  0  0
   -3.5892  -30.6558   15.6544 O   0  0  0  0  0  0  0  0  0  0  0  0
   -2.0447  -29.7622   17.3230 C   0  0  1  0  0  0  0  0  0  0  0  0
    0.2797  -27.1532   20.8315 O   0  0  0  0  0  0  0  0  0  0  0  0
   -1.4832  -25.8324   20.4471 O   0  0  0  0  0  0  0  0  0  0  0  0
   -1.5658  -25.1795   17.8111 H   0  0  0  0  0  0  0  0  0  0  0  0
    0.8639  -24.7905   16.7206 H   0  0  0  0  0  0  0  0  0  0  0  0
    0.3784  -26.2025   15.7221 H   0  0  0  0  0  0  0  0  0  0  0  0
   -0.6273  -24.7142   15.7221 H   0  0  0  0  0  0  0  0  0  0  0  0
    0.8554  -26.9478   18.3033 H   0  0  0  0  0  0  0  0  0  0  0  0
    0.5707  -25.2790   18.9595 H   0  0  0  0  0  0  0  0  0  0  0  0
   -1.9902  -28.1392   21.2653 H   0  0  0  0  0  0  0  0  0  0  0  0
   -3.0863  -26.8664   18.3358 H   0  0  0  0  0  0  0  0  0  0  0  0
   -1.9286  -30.5888   19.2763 H   0  0  0  0  0  0  0  0  0  0  0  0
    0.4547  -30.8743   17.3208 H   0  0  0  0  0  0  0  0  0  0  0  0
    1.0681  -30.5461   19.5352 H   0  0  0  0  0  0  0  0  0  0  0  0
    0.0355  -31.9223   19.9494 H   0  0  0  0  0  0  0  0  0  0  0  0
    2.1230  -32.6723   20.2291 H   0  0  0  0  0  0  0  0  0  0  0  0
    1.4909  -33.3147   18.6752 H   0  0  0  0  0  0  0  0  0  0  0  0
    2.6408  -31.9347   18.6752 H   0  0  0  0  0  0  0  0  0  0  0  0
   -0.0208  -33.0910   17.1612 H   0  0  0  0  0  0  0  0  0  0  0  0
   -1.2926  -32.8619   19.4251 H   0  0  0  0  0  0  0  0  0  0  0  0
   -1.1038  -31.6086   15.6612 H   0  0  0  0  0  0  0  0  0  0  0  0
   -3.0145  -33.6408   16.6675 H   0  0  0  0  0  0  0  0  0  0  0  0
   -3.1888  -32.7604   15.1801 H   0  0  0  0  0  0  0  0  0  0  0  0
   -1.3168  -34.8469   15.8684 H   0  0  0  0  0  0  0  0  0  0  0  0
   -2.5028  -34.7521   14.5226 H   0  0  0  0  0  0  0  0  0  0  0  0
   -1.0572  -33.6858   14.5226 H   0  0  0  0  0  0  0  0  0  0  0  0
   -3.4069  -31.4236   17.6083 H   0  0  0  0  0  0  0  0  0  0  0  0
   -4.4503  -30.2790   15.9652 H   0  0  0  0  0  0  0  0  0  0  0  0
   -1.3645  -29.3244   16.5776 H   0  0  0  0  0  0  0  0  0  0  0  0
   -0.1240  -26.9998   21.7224 H   0  0  0  0  0  0  0  0  0  0  0  0
   -1.4157  -25.9102   21.4317 H   0  0  0  0  0  0  0  0  0  0  0  0
  1  2  1  0
  8  1  1  0
  2  3  1  0
  2  4  1  0
  4  5  1  0
  5  6  1  0
  5 23  1  1
  5 24  1  0
  6  7  1  1
  6  8  1  0
  6  9  1  0
  8 10  1  0
 11  9  1  0
 22 10  1  0
 11 12  1  0
 11 22  1  0
 12 13  1  0
 12 15  1  0
 13 14  1  0
 15 16  1  0
 15 17  1  0
 17 18  1  0
 17 20  1  0
 18 19  1  0
 20 21  1  0
 20 22  1  0
  2 25  1  1
  3 26  1  0
  3 27  1  0
  3 28  1  0
  4 29  1  0
  4 30  1  0
  7 31  1  0
  8 32  1  1
 11 33  1  1
 12 34  1  6
 13 35  1  0
 13 36  1  0
 14 37  1  0
 14 38  1  0
 14 39  1  0
 15 40  1  6
 16 41  1  0
 17 42  1  6
 18 43  1  0
 18 44  1  0
 19 45  1  0
 19 46  1  0
 19 47  1  0
 20 48  1  1
 21 49  1  0
 22 50  1  6
 23 51  1  0
 24 52  1  0
M  CHG  2  13   1  18   1
M  END
>  <filename_input>  (4) 
7UY4_SMI_docked.sdf

>  <pdb_id>  (4) 
7UY4_SMI

>  <pose_rank>  (4) 
3

>  <num_atoms_heavy>  (4) 
24

>  <num_torsions>  (4) 
2

>  <pose>  (4) 
[-1.4101647563604904, -27.140315864177964, 17.125540266328034, -3.3736584015194926, -0.4434735268727067, 1.0830283847614601, 0.1324147668337667, 0.012095029178223339]

>  <energy>  (4) 
-552.9818433818878

>  <inter_energy>  (4) 
-549.5025093998879

>  <intra_energy>  (4) 
0.25237612286587113

>  <rmsd>  (4) 
6.06492

>  <sdf_rank>  (4) 
0

$$$$

     RDKit          3D

 52 54  0  0  0  0  0  0  0  0999 V2000
   -1.2655  -28.0101   16.1573 O   0  0  0  0  0  0  0  0  0  0  0  0
   -1.2379  -26.6635   16.5915 C   0  0  2  0  0  0  0  0  0  0  0  0
    0.0329  -25.9890   16.0458 C   0  0  0  0  0  0  0  0  0  0  0  0
   -1.1845  -26.6807   18.0682 C   0  0  0  0  0  0  0  0  0  0  0  0
   -2.4009  -27.3642   18.6758 C   0  0  1  0  0  0  0  0  0  0  0  0
   -2.5682  -28.7306   18.0262 C   0  0  1  0  0  0  0  0  0  0  0  0
   -3.8701  -29.1879   18.3297 O   0  0  0  0  0  0  0  0  0  0  0  0
   -2.4996  -28.6515   16.4819 C   0  0  2  0  0  0  0  0  0  0  0  0
   -1.5095  -29.5593   18.5497 O   0  0  0  0  0  0  0  0  0  0  0  0
   -2.5405  -29.9957   15.9269 O   0  0  0  0  0  0  0  0  0  0  0  0
   -1.5152  -30.8380   17.9287 C   0  0  2  0  0  0  0  0  0  0  0  0
   -0.2983  -31.6327   18.4362 C   0  0  1  0  0  0  0  0  0  0  0  0
   -0.3064  -31.5915   19.8856 N   0  0  0  0  0  0  0  0  0  0  0  0
    0.3977  -32.6149   20.6853 C   0  0  0  0  0  0  0  0  0  0  0  0
   -0.2256  -32.9880   17.8228 C   0  0  1  0  0  0  0  0  0  0  0  0
   -1.3121  -33.7909   18.2632 O   0  0  0  0  0  0  0  0  0  0  0  0
   -0.3348  -32.8731   16.2969 C   0  0  1  0  0  0  0  0  0  0  0  0
   -0.4086  -34.1952   15.6290 N   0  0  0  0  0  0  0  0  0  0  0  0
    0.6906  -34.5611   14.7818 C   0  0  0  0  0  0  0  0  0  0  0  0
   -1.4985  -32.1085   15.8329 C   0  0  2  0  0  0  0  0  0  0  0  0
   -1.4734  -32.0151   14.3718 O   0  0  0  0  0  0  0  0  0  0  0  0
   -1.4577  -30.6946   16.4272 C   0  0  1  0  0  0  0  0  0  0  0  0
   -2.2519  -27.4323   20.0667 O   0  0  0  0  0  0  0  0  0  0  0  0
   -3.5825  -26.5953   18.4764 O   0  0  0  0  0  0  0  0  0  0  0  0
   -2.1217  -26.1129   16.2370 H   0  0  0  0  0  0  0  0  0  0  0  0
    0.6605  -25.6559   16.8855 H   0  0  0  0  0  0  0  0  0  0  0  0
    0.5943  -26.7078   15.4309 H   0  0  0  0  0  0  0  0  0  0  0  0
   -0.2478  -25.1212   15.4309 H   0  0  0  0  0  0  0  0  0  0  0  0
   -0.2794  -27.2200   18.3844 H   0  0  0  0  0  0  0  0  0  0  0  0
   -1.1704  -25.6383   18.4193 H   0  0  0  0  0  0  0  0  0  0  0  0
   -3.9850  -29.2283   19.3122 H   0  0  0  0  0  0  0  0  0  0  0  0
   -3.3475  -28.0880   16.0653 H   0  0  0  0  0  0  0  0  0  0  0  0
   -2.4432  -31.3711   18.1831 H   0  0  0  0  0  0  0  0  0  0  0  0
    0.6456  -31.1712   18.1102 H   0  0  0  0  0  0  0  0  0  0  0  0
    0.0975  -30.6828   20.1539 H   0  0  0  0  0  0  0  0  0  0  0  0
   -1.2952  -31.7737   20.1093 H   0  0  0  0  0  0  0  0  0  0  0  0
    0.2543  -32.4064   21.7558 H   0  0  0  0  0  0  0  0  0  0  0  0
   -0.0083  -33.6092   20.4477 H   0  0  0  0  0  0  0  0  0  0  0  0
    1.4715  -32.5910   20.4477 H   0  0  0  0  0  0  0  0  0  0  0  0
    0.7317  -33.4423   18.1181 H   0  0  0  0  0  0  0  0  0  0  0  0
   -1.3318  -33.8054   19.2529 H   0  0  0  0  0  0  0  0  0  0  0  0
    0.5881  -32.3403   16.0240 H   0  0  0  0  0  0  0  0  0  0  0  0
   -0.4846  -34.9112   16.3655 H   0  0  0  0  0  0  0  0  0  0  0  0
   -1.2210  -34.1309   14.9992 H   0  0  0  0  0  0  0  0  0  0  0  0
    1.5523  -34.8480   15.4025 H   0  0  0  0  0  0  0  0  0  0  0  0
    0.3973  -35.4101   14.1468 H   0  0  0  0  0  0  0  0  0  0  0  0
    0.9647  -33.7057   14.1468 H   0  0  0  0  0  0  0  0  0  0  0  0
   -2.4177  -32.6187   16.1564 H   0  0  0  0  0  0  0  0  0  0  0  0
   -1.2267  -31.0945   14.1042 H   0  0  0  0  0  0  0  0  0  0  0  0
   -0.5433  -30.1435   16.1623 H   0  0  0  0  0  0  0  0  0  0  0  0
   -3.0599  -27.0632   20.5036 H   0  0  0  0  0  0  0  0  0  0  0  0
   -3.9659  -26.3458   19.3544 H   0  0  0  0  0  0  0  0  0  0  0  0
  1  2  1  0
  8  1  1  0
  2  3  1  0
  2  4  1  0
  4  5  1  0
  5  6  1  0
  5 23  1  1
  5 24  1  0
  6  7  1  6
  6  8  1  0
  6  9  1  0
  8 10  1  0
 11  9  1  0
 22 10  1  0
 11 12  1  0
 11 22  1  0
 12 13  1  0
 12 15  1  0
 13 14  1  0
 15 16  1  0
 15 17  1  0
 17 18  1  0
 17 20  1  0
 18 19  1  0
 20 21  1  0
 20 22  1  0
  2 25  1  1
  3 26  1  0
  3 27  1  0
  3 28  1  0
  4 29  1  0
  4 30  1  0
  7 31  1  0
  8 32  1  6
 11 33  1  6
 12 34  1  6
 13 35  1  0
 13 36  1  0
 14 37  1  0
 14 38  1  0
 14 39  1  0
 15 40  1  6
 16 41  1  0
 17 42  1  6
 18 43  1  0
 18 44  1  0
 19 45  1  0
 19 46  1  0
 19 47  1  0
 20 48  1  6
 21 49  1  0
 22 50  1  1
 23 51  1  0
 24 52  1  0
M  CHG  2  13   1  18   1
M  END
>  <filename_input>  (5) 
7UY4_SMI_docked.sdf

>  <pdb_id>  (5) 
7UY4_SMI

>  <pose_rank>  (5) 
4

>  <num_atoms_heavy>  (5) 
24

>  <num_torsions>  (5) 
2

>  <pose>  (5) 
[-1.2654966780940269, -28.010148006219804, 16.15729779305361, 2.4483515909708866, 0.32729231490275024, 0.08926929395854175, -0.28511110087087854, -0.806955769778867]

>  <energy>  (5) 
-468.9356682174811

>  <inter_energy>  (5) 
-465.78282521340816

>  <intra_energy>  (5) 
6.690345648721402

>  <rmsd>  (5) 
5.94707

>  <sdf_rank>  (5) 
0

$$$$

     RDKit          3D

 52 54  0  0  0  0  0  0  0  0999 V2000
   -3.0565  -31.6086   17.5239 O   0  0  0  0  0  0  0  0  0  0  0  0
   -2.9828  -32.9852   17.8436 C   0  0  2  0  0  0  0  0  0  0  0  0
   -4.3146  -33.4224   18.4780 C   0  0  0  0  0  0  0  0  0  0  0  0
   -1.8960  -33.1476   18.8318 C   0  0  0  0  0  0  0  0  0  0  0  0
   -0.5498  -32.7025   18.2787 C   0  0  1  0  0  0  0  0  0  0  0  0
   -0.6952  -31.2966   17.7134 C   0  0  1  0  0  0  0  0  0  0  0  0
    0.4348  -31.0466   16.9030 O   0  0  0  0  0  0  0  0  0  0  0  0
   -1.9208  -31.1717   16.7763 C   0  0  2  0  0  0  0  0  0  0  0  0
   -0.8196  -30.4154   18.8489 O   0  0  0  0  0  0  0  0  0  0  0  0
   -2.0779  -29.7839   16.3690 O   0  0  0  0  0  0  0  0  0  0  0  0
   -1.0604  -29.0794   18.4271 C   0  0  2  0  0  0  0  0  0  0  0  0
   -1.3026  -28.2099   19.6743 C   0  0  1  0  0  0  0  0  0  0  0  0
   -0.2080  -28.4339   20.5986 N   0  0  0  0  0  0  0  0  0  0  0  0
    0.0338  -27.5219   21.7355 C   0  0  0  0  0  0  0  0  0  0  0  0
   -1.5735  -26.7896   19.3164 C   0  0  1  0  0  0  0  0  0  0  0  0
   -0.4146  -26.1900   18.7539 O   0  0  0  0  0  0  0  0  0  0  0  0
   -2.6795  -26.7242   18.2554 C   0  0  1  0  0  0  0  0  0  0  0  0
   -2.9053  -25.3481   17.7507 N   0  0  0  0  0  0  0  0  0  0  0  0
   -3.3482  -24.3683   18.7014 C   0  0  0  0  0  0  0  0  0  0  0  0
   -2.4327  -27.5630   17.0765 C   0  0  2  0  0  0  0  0  0  0  0  0
   -3.5704  -27.4679   16.1597 O   0  0  0  0  0  0  0  0  0  0  0  0
   -2.2580  -29.0244   17.5100 C   0  0  1  0  0  0  0  0  0  0  0  0
    0.4207  -32.7921   19.2843 O   0  0  0  0  0  0  0  0  0  0  0  0
   -0.0923  -33.5811   17.2560 O   0  0  0  0  0  0  0  0  0  0  0  0
   -2.7915  -33.5924   16.9465 H   0  0  0  0  0  0  0  0  0  0  0  0
   -4.2257  -33.3932   19.5740 H   0  0  0  0  0  0  0  0  0  0  0  0
   -5.1152  -32.7399   18.1568 H   0  0  0  0  0  0  0  0  0  0  0  0
   -4.5550  -34.4466   18.1568 H   0  0  0  0  0  0  0  0  0  0  0  0
   -2.1315  -32.5441   19.7208 H   0  0  0  0  0  0  0  0  0  0  0  0
   -1.8230  -34.2160   19.0833 H   0  0  0  0  0  0  0  0  0  0  0  0
    1.2215  -30.8725   17.4782 H   0  0  0  0  0  0  0  0  0  0  0  0
   -1.8014  -31.7792   15.8671 H   0  0  0  0  0  0  0  0  0  0  0  0
   -0.1897  -28.7021   17.8709 H   0  0  0  0  0  0  0  0  0  0  0  0
   -2.2248  -28.5057   20.1958 H   0  0  0  0  0  0  0  0  0  0  0  0
   -0.3537  -29.3704   21.0018 H   0  0  0  0  0  0  0  0  0  0  0  0
    0.6204  -28.2784   20.0066 H   0  0  0  0  0  0  0  0  0  0  0  0
   -0.1107  -28.0669   22.6800 H   0  0  0  0  0  0  0  0  0  0  0  0
    1.0642  -27.1400   21.6865 H   0  0  0  0  0  0  0  0  0  0  0  0
   -0.6721  -26.6797   21.6865 H   0  0  0  0  0  0  0  0  0  0  0  0
   -1.8727  -26.2607   20.2333 H   0  0  0  0  0  0  0  0  0  0  0  0
    0.1827  -25.8809   19.4804 H   0  0  0  0  0  0  0  0  0  0  0  0
   -3.5610  -27.0995   18.7958 H   0  0  0  0  0  0  0  0  0  0  0  0
   -2.0164  -25.0140   17.3519 H   0  0  0  0  0  0  0  0  0  0  0  0
   -3.6793  -25.4348   17.0767 H   0  0  0  0  0  0  0  0  0  0  0  0
   -3.1784  -24.7440   19.7212 H   0  0  0  0  0  0  0  0  0  0  0  0
   -2.7845  -23.4351   18.5558 H   0  0  0  0  0  0  0  0  0  0  0  0
   -4.4213  -24.1750   18.5558 H   0  0  0  0  0  0  0  0  0  0  0  0
   -1.5192  -27.2158   16.5716 H   0  0  0  0  0  0  0  0  0  0  0  0
   -4.4092  -27.3977   16.6808 H   0  0  0  0  0  0  0  0  0  0  0  0
   -3.1313  -29.4198   18.0495 H   0  0  0  0  0  0  0  0  0  0  0  0
   -0.0181  -32.7516   20.1709 H   0  0  0  0  0  0  0  0  0  0  0  0
    0.3234  -34.3793   17.6683 H   0  0  0  0  0  0  0  0  0  0  0  0
  1  2  1  0
  8  1  1  0
  2  3  1  0
  2  4  1  0
  4  5  1  0
  5  6  1  0
  5 23  1  1
  5 24  1  0
  6  7  1  6
  6  8  1  0
  6  9  1  0
  8 10  1  0
 11  9  1  0
 22 10  1  0
 11 12  1  0
 11 22  1  0
 12 13  1  0
 12 15  1  0
 13 14  1  0
 15 16  1  0
 15 17  1  0
 17 18  1  0
 17 20  1  0
 18 19  1  0
 20 21  1  0
 20 22  1  0
  2 25  1  6
  3 26  1  0
  3 27  1  0
  3 28  1  0
  4 29  1  0
  4 30  1  0
  7 31  1  0
  8 32  1  6
 11 33  1  6
 12 34  1  1
 13 35  1  0
 13 36  1  0
 14 37  1  0
 14 38  1  0
 14 39  1  0
 15 40  1  1
 16 41  1  0
 17 42  1  1
 18 43  1  0
 18 44  1  0
 19 45  1  0
 19 46  1  0
 19 47  1  0
 20 48  1  6
 21 49  1  0
 22 50  1  1
 23 51  1  0
 24 52  1  0
M  CHG  2  13   1  18   1
M  END
>  <filename_input>  (6) 
7UY4_SMI_docked.sdf

>  <pdb_id>  (6) 
7UY4_SMI

>  <pose_rank>  (6) 
5

>  <num_atoms_heavy>  (6) 
24

>  <num_torsions>  (6) 
2

>  <pose>  (6) 
[-3.056454745854656, -31.608587681070013, 17.523943123716318, -0.2608037106887073, -2.104707628245099, -0.9662443515104772, -0.15590128846444568, 0.10030539531996141]

>  <energy>  (6) 
-532.6732322646285

>  <inter_energy>  (6) 
-533.3362064196176

>  <intra_energy>  (6) 
3.4112039041614066

>  <rmsd>  (6) 
3.78089

>  <sdf_rank>  (6) 
0

$$$$

     RDKit          3D

 52 54  0  0  0  0  0  0  0  0999 V2000
   -1.4854  -32.4325   13.9452 O   0  0  0  0  0  0  0  0  0  0  0  0
   -1.5931  -33.8121   14.2417 C   0  0  2  0  0  0  0  0  0  0  0  0
   -2.7057  -34.4241   13.3728 C   0  0  0  0  0  0  0  0  0  0  0  0
   -1.9696  -33.9255   15.6663 C   0  0  0  0  0  0  0  0  0  0  0  0
   -0.9238  -33.3095   16.5843 C   0  0  1  0  0  0  0  0  0  0  0  0
   -0.6328  -31.8924   16.1108 C   0  0  1  0  0  0  0  0  0  0  0  0
    0.5657  -31.4754   16.7321 O   0  0  0  0  0  0  0  0  0  0  0  0
   -0.3597  -31.8336   14.5884 C   0  0  2  0  0  0  0  0  0  0  0  0
   -1.7894  -31.1040   16.4602 O   0  0  0  0  0  0  0  0  0  0  0  0
   -0.2125  -30.4459   14.1771 O   0  0  0  0  0  0  0  0  0  0  0  0
   -1.6613  -29.7754   15.9713 C   0  0  2  0  0  0  0  0  0  0  0  0
   -2.9685  -29.0180   16.2674 C   0  0  1  0  0  0  0  0  0  0  0  0
   -3.2783  -29.1877   17.6737 N   0  0  0  0  0  0  0  0  0  0  0  0
   -4.5821  -28.7675   18.2273 C   0  0  0  0  0  0  0  0  0  0  0  0
   -2.9194  -27.6130   15.7754 C   0  0  1  0  0  0  0  0  0  0  0  0
   -1.9648  -26.8621   16.5131 O   0  0  0  0  0  0  0  0  0  0  0  0
   -2.4766  -27.5930   14.3068 C   0  0  1  0  0  0  0  0  0  0  0  0
   -2.2722  -26.2176   13.7911 N   0  0  0  0  0  0  0  0  0  0  0  0
   -3.0158  -25.8410   12.6227 C   0  0  0  0  0  0  0  0  0  0  0  0
   -1.2312  -28.3238   14.0439 C   0  0  2  0  0  0  0  0  0  0  0  0
   -0.9338  -28.2870   12.6106 O   0  0  0  0  0  0  0  0  0  0  0  0
   -1.3862  -29.7845   14.4872 C   0  0  1  0  0  0  0  0  0  0  0  0
   -1.3753  -33.3637   17.9089 O   0  0  0  0  0  0  0  0  0  0  0  0
    0.2810  -34.0682   16.5820 O   0  0  0  0  0  0  0  0  0  0  0  0
   -0.6472  -34.3370   14.0427 H   0  0  0  0  0  0  0  0  0  0  0  0
   -3.4840  -34.8523   14.0216 H   0  0  0  0  0  0  0  0  0  0  0  0
   -3.1471  -33.6419   12.7378 H   0  0  0  0  0  0  0  0  0  0  0  0
   -2.2814  -35.2158   12.7378 H   0  0  0  0  0  0  0  0  0  0  0  0
   -2.9278  -33.4083   15.8224 H   0  0  0  0  0  0  0  0  0  0  0  0
   -2.0493  -34.9948   15.9121 H   0  0  0  0  0  0  0  0  0  0  0  0
    0.4580  -31.5129   17.7156 H   0  0  0  0  0  0  0  0  0  0  0  0
    0.5650  -32.3655   14.3200 H   0  0  0  0  0  0  0  0  0  0  0  0
   -0.8176  -29.2752   16.4695 H   0  0  0  0  0  0  0  0  0  0  0  0
   -3.8127  -29.4402   15.7025 H   0  0  0  0  0  0  0  0  0  0  0  0
   -3.1874  -30.1941   17.8731 H   0  0  0  0  0  0  0  0  0  0  0  0
   -2.6219  -28.5367   18.1278 H   0  0  0  0  0  0  0  0  0  0  0  0
   -4.5357  -28.7824   19.3263 H   0  0  0  0  0  0  0  0  0  0  0  0
   -4.8150  -27.7487   17.8840 H   0  0  0  0  0  0  0  0  0  0  0  0
   -5.3661  -29.4584   17.8840 H   0  0  0  0  0  0  0  0  0  0  0  0
   -3.9230  -27.1781   15.8923 H   0  0  0  0  0  0  0  0  0  0  0  0
   -2.1239  -26.9873   17.4821 H   0  0  0  0  0  0  0  0  0  0  0  0
   -3.3111  -28.0912   13.7917 H   0  0  0  0  0  0  0  0  0  0  0  0
   -2.5255  -25.5628   14.5447 H   0  0  0  0  0  0  0  0  0  0  0  0
   -1.2846  -26.1856   13.5006 H   0  0  0  0  0  0  0  0  0  0  0  0
   -3.9589  -25.3633   12.9265 H   0  0  0  0  0  0  0  0  0  0  0  0
   -2.4233  -25.1343   12.0231 H   0  0  0  0  0  0  0  0  0  0  0  0
   -3.2350  -26.7368   12.0231 H   0  0  0  0  0  0  0  0  0  0  0  0
   -0.4110  -27.8525   14.6052 H   0  0  0  0  0  0  0  0  0  0  0  0
    0.0399  -28.1664   12.4786 H   0  0  0  0  0  0  0  0  0  0  0  0
   -2.2141  -30.3017   13.9803 H   0  0  0  0  0  0  0  0  0  0  0  0
   -0.6052  -33.2712   18.5241 H   0  0  0  0  0  0  0  0  0  0  0  0
    0.5614  -34.2449   17.5149 H   0  0  0  0  0  0  0  0  0  0  0  0
  1  2  1  0
  8  1  1  0
  2  3  1  0
  2  4  1  0
  4  5  1  0
  5  6  1  0
  5 23  1  1
  5 24  1  0
  6  7  1  1
  6  8  1  0
  6  9  1  0
  8 10  1  0
 11  9  1  0
 22 10  1  0
 11 12  1  0
 11 22  1  0
 12 13  1  0
 12 15  1  0
 13 14  1  0
 15 16  1  0
 15 17  1  0
 17 18  1  0
 17 20  1  0
 18 19  1  0
 20 21  1  0
 20 22  1  0
  2 25  1  1
  3 26  1  0
  3 27  1  0
  3 28  1  0
  4 29  1  0
  4 30  1  0
  7 31  1  0
  8 32  1  1
 11 33  1  1
 12 34  1  6
 13 35  1  0
 13 36  1  0
 14 37  1  0
 14 38  1  0
 14 39  1  0
 15 40  1  6
 16 41  1  0
 17 42  1  6
 18 43  1  0
 18 44  1  0
 19 45  1  0
 19 46  1  0
 19 47  1  0
 20 48  1  1
 21 49  1  0
 22 50  1  6
 23 51  1  0
 24 52  1  0
M  CHG  2  13   1  18   1
M  END
>  <filename_input>  (7) 
7UY4_SMI_docked.sdf

>  <pdb_id>  (7) 
7UY4_SMI

>  <pose_rank>  (7) 
6

>  <num_atoms_heavy>  (7) 
24

>  <num_torsions>  (7) 
2

>  <pose>  (7) 
[-1.4854194410759225, -32.43254981162149, 13.94517152701315, -0.487408507809849, 2.753475694864367, 1.0627043148632809, 0.2799647791590134, -0.9738123156367119]

>  <energy>  (7) 
-453.84771901442156

>  <inter_energy>  (7) 
-450.1342084957236

>  <intra_energy>  (7) 
4.513682462742575

>  <rmsd>  (7) 
4.85455

>  <sdf_rank>  (7) 
0

$$$$

     RDKit          3D

 52 54  0  0  0  0  0  0  0  0999 V2000
   -4.0559  -29.7722   18.0846 O   0  0  0  0  0  0  0  0  0  0  0  0
   -4.5132  -28.4522   18.3109 C   0  0  2  0  0  0  0  0  0  0  0  0
   -6.0249  -28.3926   18.0302 C   0  0  0  0  0  0  0  0  0  0  0  0
   -3.8054  -27.5740   17.3561 C   0  0  0  0  0  0  0  0  0  0  0  0
   -2.2974  -27.6090   17.5576 C   0  0  1  0  0  0  0  0  0  0  0  0
   -1.8380  -29.0602   17.5529 C   0  0  1  0  0  0  0  0  0  0  0  0
   -0.5305  -29.0928   18.0872 O   0  0  0  0  0  0  0  0  0  0  0  0
   -2.6971  -29.9441   18.4891 C   0  0  2  0  0  0  0  0  0  0  0  0
   -1.9331  -29.5097   16.1853 O   0  0  0  0  0  0  0  0  0  0  0  0
   -2.2918  -31.3342   18.3474 O   0  0  0  0  0  0  0  0  0  0  0  0
   -1.6178  -30.8923   16.0851 C   0  0  2  0  0  0  0  0  0  0  0  0
   -1.8509  -31.3421   14.6314 C   0  0  1  0  0  0  0  0  0  0  0  0
   -1.1410  -30.4278   13.7580 N   0  0  0  0  0  0  0  0  0  0  0  0
   -0.8371  -30.7864   12.3573 C   0  0  0  0  0  0  0  0  0  0  0  0
   -1.5508  -32.7888   14.4433 C   0  0  1  0  0  0  0  0  0  0  0  0
   -0.1614  -33.0336   14.6133 O   0  0  0  0  0  0  0  0  0  0  0  0
   -2.2906  -33.6140   15.5041 C   0  0  1  0  0  0  0  0  0  0  0  0
   -1.9289  -35.0516   15.4632 N   0  0  0  0  0  0  0  0  0  0  0  0
   -2.7758  -35.9165   14.6920 C   0  0  0  0  0  0  0  0  0  0  0  0
   -2.0594  -33.1672   16.8829 C   0  0  2  0  0  0  0  0  0  0  0  0
   -2.8526  -33.9845   17.8032 O   0  0  0  0  0  0  0  0  0  0  0  0
   -2.4788  -31.6984   17.0270 C   0  0  1  0  0  0  0  0  0  0  0  0
   -1.6764  -26.8335   16.5706 O   0  0  0  0  0  0  0  0  0  0  0  0
   -1.9233  -26.9961   18.7870 O   0  0  0  0  0  0  0  0  0  0  0  0
   -4.3240  -28.1378   19.3479 H   0  0  0  0  0  0  0  0  0  0  0  0
   -6.5741  -28.3709   18.9830 H   0  0  0  0  0  0  0  0  0  0  0  0
   -6.2552  -27.4846   17.4534 H   0  0  0  0  0  0  0  0  0  0  0  0
   -6.3260  -29.2795   17.4534 H   0  0  0  0  0  0  0  0  0  0  0  0
   -4.0345  -27.9051   16.3324 H   0  0  0  0  0  0  0  0  0  0  0  0
   -4.1467  -26.5423   17.5269 H   0  0  0  0  0  0  0  0  0  0  0  0
   -0.5780  -29.0917   19.0761 H   0  0  0  0  0  0  0  0  0  0  0  0
   -2.5709  -29.6613   19.5446 H   0  0  0  0  0  0  0  0  0  0  0  0
   -0.5662  -31.0553   16.3635 H   0  0  0  0  0  0  0  0  0  0  0  0
   -2.9148  -31.2807   14.3589 H   0  0  0  0  0  0  0  0  0  0  0  0
   -1.7007  -29.5639   13.7231 H   0  0  0  0  0  0  0  0  0  0  0  0
   -0.2055  -30.3889   14.1873 H   0  0  0  0  0  0  0  0  0  0  0  0
   -0.1260  -31.6254   12.3397 H   0  0  0  0  0  0  0  0  0  0  0  0
   -1.7647  -31.0811   11.8448 H   0  0  0  0  0  0  0  0  0  0  0  0
   -0.3944  -29.9197   11.8448 H   0  0  0  0  0  0  0  0  0  0  0  0
   -1.8691  -33.0715   13.4290 H   0  0  0  0  0  0  0  0  0  0  0  0
    0.0513  -33.0711   15.5794 H   0  0  0  0  0  0  0  0  0  0  0  0
   -3.3477  -33.4619   15.2406 H   0  0  0  0  0  0  0  0  0  0  0  0
   -0.9776  -35.1214   15.0745 H   0  0  0  0  0  0  0  0  0  0  0  0
   -2.0270  -35.3792   16.4348 H   0  0  0  0  0  0  0  0  0  0  0  0
   -3.3821  -36.5355   15.3697 H   0  0  0  0  0  0  0  0  0  0  0  0
   -3.4389  -35.3099   14.0577 H   0  0  0  0  0  0  0  0  0  0  0  0
   -2.1556  -36.5667   14.0577 H   0  0  0  0  0  0  0  0  0  0  0  0
   -0.9906  -33.2712   17.1214 H   0  0  0  0  0  0  0  0  0  0  0  0
   -2.6229  -33.7478   18.7366 H   0  0  0  0  0  0  0  0  0  0  0  0
   -3.5347  -31.5261   16.7712 H   0  0  0  0  0  0  0  0  0  0  0  0
   -1.1188  -26.1373   17.0002 H   0  0  0  0  0  0  0  0  0  0  0  0
   -2.2564  -27.5420   19.5427 H   0  0  0  0  0  0  0  0  0  0  0  0
  1  2  1  0
  8  1  1  0
  2  3  1  0
  2  4  1  0
  4  5  1  0
  5  6  1  0
  5 23  1  6
  5 24  1  0
  6  7  1  1
  6  8  1  0
  6  9  1  0
  8 10  1  0
 11  9  1  0
 22 10  1  0
 11 12  1  0
 11 22  1  0
 12 13  1  0
 12 15  1  0
 13 14  1  0
 15 16  1  0
 15 17  1  0
 17 18  1  0
 17 20  1  0
 18 19  1  0
 20 21  1  0
 20 22  1  0
  2 25  1  1
  3 26  1  0
  3 27  1  0
  3 28  1  0
  4 29  1  0
  4 30  1  0
  7 31  1  0
  8 32  1  1
 11 33  1  1
 12 34  1  6
 13 35  1  0
 13 36  1  0
 14 37  1  0
 14 38  1  0
 14 39  1  0
 15 40  1  6
 16 41  1  0
 17 42  1  6
 18 43  1  0
 18 44  1  0
 19 45  1  0
 19 46  1  0
 19 47  1  0
 20 48  1  1
 21 49  1  0
 22 50  1  6
 23 51  1  0
 24 52  1  0
M  CHG  2  13   1  18   1
M  END
>  <filename_input>  (8) 
7UY4_SMI_docked.sdf

>  <pdb_id>  (8) 
7UY4_SMI

>  <pose_rank>  (8) 
7

>  <num_atoms_heavy>  (8) 
24

>  <num_torsions>  (8) 
2

>  <pose>  (8) 
[-4.055925181290569, -29.77219564289116, 18.084559372032327, 0.731134447916102, 1.7255213686071431, -2.1395011100429087, -0.20524897482535875, 5.82512702192931]

>  <energy>  (8) 
-453.0844789653075

>  <inter_energy>  (8) 
-451.46367605351503

>  <intra_energy>  (8) 
3.5692260686823993

>  <rmsd>  (8) 
5.99385

>  <sdf_rank>  (8) 
0

$$$$

     RDKit          3D

 52 54  0  0  0  0  0  0  0  0999 V2000
   -0.5012  -27.2457   20.1337 O   0  0  0  0  0  0  0  0  0  0  0  0
   -0.4142  -26.0083   20.8149 C   0  0  2  0  0  0  0  0  0  0  0  0
   -0.5565  -26.2594   22.3262 C   0  0  0  0  0  0  0  0  0  0  0  0
   -1.5419  -25.1733   20.3514 C   0  0  0  0  0  0  0  0  0  0  0  0
   -1.4806  -24.9109   18.8536 C   0  0  1  0  0  0  0  0  0  0  0  0
   -1.3315  -26.2422   18.1306 C   0  0  1  0  0  0  0  0  0  0  0  0
   -0.9233  -25.9626   16.8072 O   0  0  0  0  0  0  0  0  0  0  0  0
   -0.2070  -27.1122   18.7426 C   0  0  2  0  0  0  0  0  0  0  0  0
   -2.6102  -26.9025   18.2319 O   0  0  0  0  0  0  0  0  0  0  0  0
   -0.1960  -28.4141   18.0934 O   0  0  0  0  0  0  0  0  0  0  0  0
   -2.5508  -28.2067   17.6695 C   0  0  2  0  0  0  0  0  0  0  0  0
   -3.9014  -28.9048   17.9117 C   0  0  1  0  0  0  0  0  0  0  0  0
   -4.9539  -28.0220   17.4475 N   0  0  0  0  0  0  0  0  0  0  0  0
   -6.1512  -27.7573   18.2716 C   0  0  0  0  0  0  0  0  0  0  0  0
   -3.9186  -30.2874   17.3582 C   0  0  1  0  0  0  0  0  0  0  0  0
   -3.8488  -30.2547   15.9393 O   0  0  0  0  0  0  0  0  0  0  0  0
   -2.6905  -31.0605   17.8558 C   0  0  1  0  0  0  0  0  0  0  0  0
   -2.5696  -32.4012   17.2336 N   0  0  0  0  0  0  0  0  0  0  0  0
   -1.6227  -32.5419   16.1642 C   0  0  0  0  0  0  0  0  0  0  0  0
   -1.4132  -30.3770   17.6199 C   0  0  2  0  0  0  0  0  0  0  0  0
   -0.3198  -31.1732   18.1809 O   0  0  0  0  0  0  0  0  0  0  0  0
   -1.4311  -29.0006   18.2976 C   0  0  1  0  0  0  0  0  0  0  0  0
   -2.6180  -24.1960   18.4580 O   0  0  0  0  0  0  0  0  0  0  0  0
   -0.3868  -24.0632   18.5191 O   0  0  0  0  0  0  0  0  0  0  0  0
    0.5479  -25.5126   20.6184 H   0  0  0  0  0  0  0  0  0  0  0  0
   -0.0880  -25.4331   22.8809 H   0  0  0  0  0  0  0  0  0  0  0  0
   -1.6230  -26.3192   22.5891 H   0  0  0  0  0  0  0  0  0  0  0  0
   -0.0604  -27.2053   22.5891 H   0  0  0  0  0  0  0  0  0  0  0  0
   -2.4849  -25.6902   20.5829 H   0  0  0  0  0  0  0  0  0  0  0  0
   -1.4815  -24.2042   20.8684 H   0  0  0  0  0  0  0  0  0  0  0  0
   -0.1067  -25.4031   16.8249 H   0  0  0  0  0  0  0  0  0  0  0  0
    0.7836  -26.6556   18.6006 H   0  0  0  0  0  0  0  0  0  0  0  0
   -2.3533  -28.1378   16.5896 H   0  0  0  0  0  0  0  0  0  0  0  0
   -4.0782  -29.0739   18.9842 H   0  0  0  0  0  0  0  0  0  0  0  0
   -4.5122  -27.1081   17.2726 H   0  0  0  0  0  0  0  0  0  0  0  0
   -5.3433  -28.5396   16.6466 H   0  0  0  0  0  0  0  0  0  0  0  0
   -5.8835  -27.8165   19.3369 H   0  0  0  0  0  0  0  0  0  0  0  0
   -6.5369  -26.7522   18.0458 H   0  0  0  0  0  0  0  0  0  0  0  0
   -6.9247  -28.5061   18.0458 H   0  0  0  0  0  0  0  0  0  0  0  0
   -4.8505  -30.7716   17.6855 H   0  0  0  0  0  0  0  0  0  0  0  0
   -2.9886  -29.8517   15.6604 H   0  0  0  0  0  0  0  0  0  0  0  0
   -2.8714  -31.1388   18.9380 H   0  0  0  0  0  0  0  0  0  0  0  0
   -2.3017  -33.0644   17.9747 H   0  0  0  0  0  0  0  0  0  0  0  0
   -3.4878  -32.5788   16.8019 H   0  0  0  0  0  0  0  0  0  0  0  0
   -0.6165  -32.6915   16.5828 H   0  0  0  0  0  0  0  0  0  0  0  0
   -1.8950  -33.4095   15.5452 H   0  0  0  0  0  0  0  0  0  0  0  0
   -1.6309  -31.6327   15.5452 H   0  0  0  0  0  0  0  0  0  0  0  0
   -1.2647  -30.2537   16.5370 H   0  0  0  0  0  0  0  0  0  0  0  0
   -0.3624  -31.1421   19.1695 H   0  0  0  0  0  0  0  0  0  0  0  0
   -1.6073  -29.0579   19.3819 H   0  0  0  0  0  0  0  0  0  0  0  0
   -3.1092  -23.8872   19.2601 H   0  0  0  0  0  0  0  0  0  0  0  0
    0.0401  -23.7324   19.3488 H   0  0  0  0  0  0  0  0  0  0  0  0
  1  2  1  0
  8  1  1  0
  2  3  1  0
  2  4  1  0
  4  5  1  0
  5  6  1  0
  5 23  1  6
  5 24  1  0
  6  7  1  6
  6  8  1  0
  6  9  1  0
  8 10  1  0
 11  9  1  0
 22 10  1  0
 11 12  1  0
 11 22  1  0
 12 13  1  0
 12 15  1  0
 13 14  1  0
 15 16  1  0
 15 17  1  0
 17 18  1  0
 17 20  1  0
 18 19  1  0
 20 21  1  0
 20 22  1  0
  2 25  1  1
  3 26  1  0
  3 27  1  0
  3 28  1  0
  4 29  1  0
  4 30  1  0
  7 31  1  0
  8 32  1  1
 11 33  1  6
 12 34  1  1
 13 35  1  0
 13 36  1  0
 14 37  1  0
 14 38  1  0
 14 39  1  0
 15 40  1  6
 16 41  1  0
 17 42  1  1
 18 43  1  0
 18 44  1  0
 19 45  1  0
 19 46  1  0
 19 47  1  0
 20 48  1  6
 21 49  1  0
 22 50  1  1
 23 51  1  0
 24 52  1  0
M  CHG  2  13   1  18   1
M  END
>  <filename_input>  (9) 
7UY4_SMI_docked.sdf

>  <pdb_id>  (9) 
7UY4_SMI

>  <pose_rank>  (9) 
8

>  <num_atoms_heavy>  (9) 
24

>  <num_torsions>  (9) 
2

>  <pose>  (9) 
[-0.5011529030669647, -27.245736654958232, 20.133703516914235, -1.6654113588333084, 2.0882534986129393, -2.5007969915859154, 0.9212735869891842, 2.9560509618205133]

>  <energy>  (9) 
-440.6694688011253

>  <inter_energy>  (9) 
-471.391830308336

>  <intra_energy>  (9) 
25.790424445502307

>  <rmsd>  (9) 
5.89503

>  <sdf_rank>  (9) 
0

$$$$

     RDKit          3D

 52 54  0  0  0  0  0  0  0  0999 V2000
   -4.2430  -29.0040   18.7271 O   0  0  0  0  0  0  0  0  0  0  0  0
   -5.1542  -27.9317   18.5765 C   0  0  2  0  0  0  0  0  0  0  0  0
   -6.5669  -28.5032   18.3642 C   0  0  0  0  0  0  0  0  0  0  0  0
   -4.7477  -27.1777   17.3722 C   0  0  0  0  0  0  0  0  0  0  0  0
   -3.3421  -26.6088   17.5019 C   0  0  1  0  0  0  0  0  0  0  0  0
   -2.3961  -27.7320   17.9025 C   0  0  1  0  0  0  0  0  0  0  0  0
   -1.1992  -27.1358   18.3588 O   0  0  0  0  0  0  0  0  0  0  0  0
   -2.9405  -28.5507   19.0980 C   0  0  2  0  0  0  0  0  0  0  0  0
   -2.2386  -28.5638   16.7343 O   0  0  0  0  0  0  0  0  0  0  0  0
   -2.0581  -29.6791   19.3526 O   0  0  0  0  0  0  0  0  0  0  0  0
   -1.4454  -29.7056   17.0306 C   0  0  2  0  0  0  0  0  0  0  0  0
   -1.4111  -30.6124   15.7869 C   0  0  1  0  0  0  0  0  0  0  0  0
   -1.0206  -29.8019   14.6497 N   0  0  0  0  0  0  0  0  0  0  0  0
   -1.1096  -30.3235   13.2703 C   0  0  0  0  0  0  0  0  0  0  0  0
   -0.6036  -31.8423   16.0191 C   0  0  1  0  0  0  0  0  0  0  0  0
    0.7681  -31.5111   16.1861 O   0  0  0  0  0  0  0  0  0  0  0  0
   -1.0655  -32.5297   17.3104 C   0  0  1  0  0  0  0  0  0  0  0  0
   -0.2131  -33.6865   17.6773 N   0  0  0  0  0  0  0  0  0  0  0  0
   -0.2781  -34.8412   16.8274 C   0  0  0  0  0  0  0  0  0  0  0  0
   -1.0959  -31.6482   18.4836 C   0  0  2  0  0  0  0  0  0  0  0  0
   -1.6015  -32.3890   19.6410 O   0  0  0  0  0  0  0  0  0  0  0  0
   -2.0197  -30.4545   18.2087 C   0  0  1  0  0  0  0  0  0  0  0  0
   -2.9779  -25.9865   16.3013 O   0  0  0  0  0  0  0  0  0  0  0  0
   -3.2891  -25.5724   18.4765 O   0  0  0  0  0  0  0  0  0  0  0  0
   -5.1550  -27.2824   19.4644 H   0  0  0  0  0  0  0  0  0  0  0  0
   -7.0362  -28.6930   19.3408 H   0  0  0  0  0  0  0  0  0  0  0  0
   -7.1741  -27.7799   17.8001 H   0  0  0  0  0  0  0  0  0  0  0  0
   -6.5005  -29.4451   17.8001 H   0  0  0  0  0  0  0  0  0  0  0  0
   -4.7789  -27.8522   16.5038 H   0  0  0  0  0  0  0  0  0  0  0  0
   -5.4444  -26.3356   17.2479 H   0  0  0  0  0  0  0  0  0  0  0  0
   -1.1894  -27.1309   19.3487 H   0  0  0  0  0  0  0  0  0  0  0  0
   -2.9899  -27.9467   20.0160 H   0  0  0  0  0  0  0  0  0  0  0  0
   -0.4245  -29.3916   17.2934 H   0  0  0  0  0  0  0  0  0  0  0  0
   -2.4076  -31.0192   15.5603 H   0  0  0  0  0  0  0  0  0  0  0  0
   -1.6065  -28.9554   14.6799 H   0  0  0  0  0  0  0  0  0  0  0  0
   -0.0046  -29.7001   14.7856 H   0  0  0  0  0  0  0  0  0  0  0  0
   -1.2946  -31.4075   13.2994 H   0  0  0  0  0  0  0  0  0  0  0  0
   -1.9356  -29.8246   12.7423 H   0  0  0  0  0  0  0  0  0  0  0  0
   -0.1649  -30.1269   12.7423 H   0  0  0  0  0  0  0  0  0  0  0  0
   -0.7358  -32.5031   15.1497 H   0  0  0  0  0  0  0  0  0  0  0  0
    0.9800  -31.4599   17.1518 H   0  0  0  0  0  0  0  0  0  0  0  0
   -2.0885  -32.8511   17.0653 H   0  0  0  0  0  0  0  0  0  0  0  0
    0.7643  -33.3616   17.6854 H   0  0  0  0  0  0  0  0  0  0  0  0
   -0.5733  -34.0050   18.5882 H   0  0  0  0  0  0  0  0  0  0  0  0
   -0.3292  -35.7494   17.4460 H   0  0  0  0  0  0  0  0  0  0  0  0
   -1.1742  -34.7792   16.1925 H   0  0  0  0  0  0  0  0  0  0  0  0
    0.6193  -34.8801   16.1925 H   0  0  0  0  0  0  0  0  0  0  0  0
   -0.0775  -31.2873   18.6901 H   0  0  0  0  0  0  0  0  0  0  0  0
   -1.2995  -31.9465   20.4736 H   0  0  0  0  0  0  0  0  0  0  0  0
   -3.0493  -30.7552   17.9650 H   0  0  0  0  0  0  0  0  0  0  0  0
   -2.4879  -25.1493   16.4990 H   0  0  0  0  0  0  0  0  0  0  0  0
   -3.3095  -25.9703   19.3828 H   0  0  0  0  0  0  0  0  0  0  0  0
  1  2  1  0
  8  1  1  0
  2  3  1  0
  2  4  1  0
  4  5  1  0
  5  6  1  0
  5 23  1  6
  5 24  1  0
  6  7  1  1
  6  8  1  0
  6  9  1  0
  8 10  1  0
 11  9  1  0
 22 10  1  0
 11 12  1  0
 11 22  1  0
 12 13  1  0
 12 15  1  0
 13 14  1  0
 15 16  1  0
 15 17  1  0
 17 18  1  0
 17 20  1  0
 18 19  1  0
 20 21  1  0
 20 22  1  0
  2 25  1  1
  3 26  1  0
  3 27  1  0
  3 28  1  0
  4 29  1  0
  4 30  1  0
  7 31  1  0
  8 32  1  1
 11 33  1  1
 12 34  1  6
 13 35  1  0
 13 36  1  0
 14 37  1  0
 14 38  1  0
 14 39  1  0
 15 40  1  6
 16 41  1  0
 17 42  1  6
 18 43  1  0
 18 44  1  0
 19 45  1  0
 19 46  1  0
 19 47  1  0
 20 48  1  1
 21 49  1  0
 22 50  1  6
 23 51  1  0
 24 52  1  0
M  CHG  2  13   1  18   1
M  END
>  <filename_input>  (10) 
7UY4_SMI_docked.sdf

>  <pdb_id>  (10) 
7UY4_SMI

>  <pose_rank>  (10) 
9

>  <num_atoms_heavy>  (10) 
24

>  <num_torsions>  (10) 
2

>  <pose>  (10) 
[-4.242991487301514, -29.0039627438026, 18.72711011993684, -0.4682248318863625, -2.071468686038841, 3.1465301826876475, 0.28299673180203305, -0.009740452760923744]

>  <energy>  (10) 
-507.3786146316056

>  <inter_energy>  (10) 
-505.2389264535913

>  <intra_energy>  (10) 
0.07797735266516358

>  <rmsd>  (10) 
5.44895

>  <sdf_rank>  (10) 
0

$$$$

     RDKit          3D

 52 54  0  0  0  0  0  0  0  0999 V2000
   -1.8234  -30.2737   18.8030 O   0  0  0  0  0  0  0  0  0  0  0  0
   -2.0316  -31.1725   17.7299 C   0  0  2  0  0  0  0  0  0  0  0  0
   -0.9699  -32.2841   17.7966 C   0  0  0  0  0  0  0  0  0  0  0  0
   -1.8576  -30.4072   16.4778 C   0  0  0  0  0  0  0  0  0  0  0  0
   -2.8596  -29.2676   16.3609 C   0  0  1  0  0  0  0  0  0  0  0  0
   -2.8010  -28.4339   17.6332 C   0  0  1  0  0  0  0  0  0  0  0  0
   -3.9561  -27.6208   17.6609 O   0  0  0  0  0  0  0  0  0  0  0  0
   -2.8738  -29.3115   18.9061 C   0  0  2  0  0  0  0  0  0  0  0  0
   -1.5592  -27.7015   17.5796 O   0  0  0  0  0  0  0  0  0  0  0  0
   -2.6887  -28.4743   20.0814 O   0  0  0  0  0  0  0  0  0  0  0  0
   -1.3582  -26.9601   18.7757 C   0  0  2  0  0  0  0  0  0  0  0  0
    0.0301  -26.2978   18.7122 C   0  0  1  0  0  0  0  0  0  0  0  0
    0.1301  -25.5819   17.4552 N   0  0  0  0  0  0  0  0  0  0  0  0
   -0.9042  -24.6113   17.0417 C   0  0  0  0  0  0  0  0  0  0  0  0
    0.3236  -25.5056   19.9389 C   0  0  1  0  0  0  0  0  0  0  0  0
   -0.5410  -24.3810   20.0220 O   0  0  0  0  0  0  0  0  0  0  0  0
    0.0715  -26.3655   21.1841 C   0  0  1  0  0  0  0  0  0  0  0  0
    0.2110  -25.5979   22.4453 N   0  0  0  0  0  0  0  0  0  0  0  0
   -0.9898  -25.0601   23.0187 C   0  0  0  0  0  0  0  0  0  0  0  0
   -1.2552  -26.9918   21.2242 C   0  0  2  0  0  0  0  0  0  0  0  0
   -1.3667  -27.8290   22.4204 O   0  0  0  0  0  0  0  0  0  0  0  0
   -1.4512  -27.8666   19.9791 C   0  0  1  0  0  0  0  0  0  0  0  0
   -2.5888  -28.5247   15.2050 O   0  0  0  0  0  0  0  0  0  0  0  0
   -4.1834  -29.7570   16.1739 O   0  0  0  0  0  0  0  0  0  0  0  0
   -3.0334  -31.6243   17.7778 H   0  0  0  0  0  0  0  0  0  0  0  0
   -0.7479  -32.5165   18.8486 H   0  0  0  0  0  0  0  0  0  0  0  0
   -1.3508  -33.1856   17.2945 H   0  0  0  0  0  0  0  0  0  0  0  0
   -0.0518  -31.9449   17.2945 H   0  0  0  0  0  0  0  0  0  0  0  0
   -0.8404  -29.9891   16.4558 H   0  0  0  0  0  0  0  0  0  0  0  0
   -2.0246  -31.0936   15.6346 H   0  0  0  0  0  0  0  0  0  0  0  0
   -4.2110  -27.4415   18.6005 H   0  0  0  0  0  0  0  0  0  0  0  0
   -3.8481  -29.8136   18.9990 H   0  0  0  0  0  0  0  0  0  0  0  0
   -2.1370  -26.1891   18.8710 H   0  0  0  0  0  0  0  0  0  0  0  0
    0.8330  -27.0497   18.7147 H   0  0  0  0  0  0  0  0  0  0  0  0
    1.0205  -25.0648   17.4840 H   0  0  0  0  0  0  0  0  0  0  0  0
    0.0223  -26.3340   16.7599 H   0  0  0  0  0  0  0  0  0  0  0  0
   -1.3726  -24.1718   17.9347 H   0  0  0  0  0  0  0  0  0  0  0  0
   -0.4405  -23.8148   16.4413 H   0  0  0  0  0  0  0  0  0  0  0  0
   -1.6696  -25.1247   16.4413 H   0  0  0  0  0  0  0  0  0  0  0  0
    1.3731  -25.1799   19.8885 H   0  0  0  0  0  0  0  0  0  0  0  0
   -0.7086  -24.1632   20.9731 H   0  0  0  0  0  0  0  0  0  0  0  0
    0.8439  -27.1448   21.1050 H   0  0  0  0  0  0  0  0  0  0  0  0
    0.6354  -26.2240   23.1445 H   0  0  0  0  0  0  0  0  0  0  0  0
    0.7790  -24.7757   22.1958 H   0  0  0  0  0  0  0  0  0  0  0  0
   -0.9185  -25.0921   24.1159 H   0  0  0  0  0  0  0  0  0  0  0  0
   -1.1185  -24.0184   22.6898 H   0  0  0  0  0  0  0  0  0  0  0  0
   -1.8528  -25.6577   22.6898 H   0  0  0  0  0  0  0  0  0  0  0  0
   -2.0245  -26.2060   21.2484 H   0  0  0  0  0  0  0  0  0  0  0  0
   -1.2912  -27.2618   23.2283 H   0  0  0  0  0  0  0  0  0  0  0  0
   -0.6901  -28.6550   19.8839 H   0  0  0  0  0  0  0  0  0  0  0  0
   -2.2612  -27.6258   15.4596 H   0  0  0  0  0  0  0  0  0  0  0  0
   -4.6052  -29.9130   17.0558 H   0  0  0  0  0  0  0  0  0  0  0  0
  1  2  1  0
  8  1  1  0
  2  3  1  0
  2  4  1  0
  4  5  1  0
  5  6  1  0
  5 23  1  6
  5 24  1  0
  6  7  1  6
  6  8  1  0
  6  9  1  0
  8 10  1  0
 11  9  1  0
 22 10  1  0
 11 12  1  0
 11 22  1  0
 12 13  1  0
 12 15  1  0
 13 14  1  0
 15 16  1  0
 15 17  1  0
 17 18  1  0
 17 20  1  0
 18 19  1  0
 20 21  1  0
 20 22  1  0
  2 25  1  1
  3 26  1  0
  3 27  1  0
  3 28  1  0
  4 29  1  0
  4 30  1  0
  7 31  1  0
  8 32  1  1
 11 33  1  1
 12 34  1  6
 13 35  1  0
 13 36  1  0
 14 37  1  0
 14 38  1  0
 14 39  1  0
 15 40  1  6
 16 41  1  0
 17 42  1  1
 18 43  1  0
 18 44  1  0
 19 45  1  0
 19 46  1  0
 19 47  1  0
 20 48  1  1
 21 49  1  0
 22 50  1  6
 23 51  1  0
 24 52  1  0
M  CHG  2  13   1  18   1
M  END
>  <filename_input>  (11) 
7UY4_SMI_docked.sdf

>  <pdb_id>  (11) 
7UY4_SMI

>  <pose_rank>  (11) 
10

>  <num_atoms_heavy>  (11) 
24

>  <num_torsions>  (11) 
2

>  <pose>  (11) 
[-1.8234227302052037, -30.27368122248081, 18.802984937029752, -0.11218353278323309, 0.1847503186187398, -0.43449548674690874, 4.1573325783987505, 2.8524498697266556]

>  <energy>  (11) 
-520.3301078949983

>  <inter_energy>  (11) 
-558.1720211797458

>  <intra_energy>  (11) 
38.970453493091725

>  <rmsd>  (11) 
2.50678

>  <sdf_rank>  (11) 
0

$$$$

     RDKit          3D

 52 54  0  0  0  0  0  0  0  0999 V2000
   -3.3306  -27.6673   16.8788 O   0  0  0  0  0  0  0  0  0  0  0  0
   -4.2842  -28.6746   16.5981 C   0  0  2  0  0  0  0  0  0  0  0  0
   -5.6948  -28.0683   16.6978 C   0  0  0  0  0  0  0  0  0  0  0  0
   -4.1304  -29.7225   17.6287 C   0  0  0  0  0  0  0  0  0  0  0  0
   -2.7420  -30.3455   17.6071 C   0  0  1  0  0  0  0  0  0  0  0  0
   -1.7063  -29.2317   17.6682 C   0  0  1  0  0  0  0  0  0  0  0  0
   -0.4630  -29.7877   17.2924 O   0  0  0  0  0  0  0  0  0  0  0  0
   -1.9953  -28.1131   16.6382 C   0  0  2  0  0  0  0  0  0  0  0  0
   -1.7450  -28.7174   19.0156 O   0  0  0  0  0  0  0  0  0  0  0  0
   -1.0491  -27.0246   16.8287 O   0  0  0  0  0  0  0  0  0  0  0  0
   -0.8782  -27.5992   19.1543 C   0  0  2  0  0  0  0  0  0  0  0  0
   -1.0497  -27.0213   20.5709 C   0  0  1  0  0  0  0  0  0  0  0  0
   -0.9007  -28.1066   21.5208 N   0  0  0  0  0  0  0  0  0  0  0  0
   -0.7103  -27.8429   22.9620 C   0  0  0  0  0  0  0  0  0  0  0  0
   -0.1784  -25.8343   20.7951 C   0  0  1  0  0  0  0  0  0  0  0  0
    1.1904  -26.2157   20.7912 O   0  0  0  0  0  0  0  0  0  0  0  0
   -0.3724  -24.8259   19.6554 C   0  0  1  0  0  0  0  0  0  0  0  0
    0.5661  -23.6808   19.7408 N   0  0  0  0  0  0  0  0  0  0  0  0
    0.2413  -22.6383   20.6722 C   0  0  0  0  0  0  0  0  0  0  0  0
   -0.2093  -25.3966   18.3130 C   0  0  2  0  0  0  0  0  0  0  0  0
   -0.4696  -24.3654   17.3065 O   0  0  0  0  0  0  0  0  0  0  0  0
   -1.2018  -26.5503   18.1182 C   0  0  1  0  0  0  0  0  0  0  0  0
   -2.6252  -31.2619   18.6596 O   0  0  0  0  0  0  0  0  0  0  0  0
   -2.5384  -31.1198   16.4298 O   0  0  0  0  0  0  0  0  0  0  0  0
   -4.1385  -29.0908   15.5903 H   0  0  0  0  0  0  0  0  0  0  0  0
   -5.9692  -27.9504   17.7565 H   0  0  0  0  0  0  0  0  0  0  0  0
   -5.7072  -27.0854   16.2041 H   0  0  0  0  0  0  0  0  0  0  0  0
   -6.4165  -28.7357   16.2041 H   0  0  0  0  0  0  0  0  0  0  0  0
   -4.3031  -29.2749   18.6185 H   0  0  0  0  0  0  0  0  0  0  0  0
   -4.8618  -30.5164   17.4173 H   0  0  0  0  0  0  0  0  0  0  0  0
    0.0541  -30.0190   18.1044 H   0  0  0  0  0  0  0  0  0  0  0  0
   -1.8905  -28.4748   15.6046 H   0  0  0  0  0  0  0  0  0  0  0  0
    0.1644  -27.9154   19.0025 H   0  0  0  0  0  0  0  0  0  0  0  0
   -2.0590  -26.6084   20.7154 H   0  0  0  0  0  0  0  0  0  0  0  0
   -1.7498  -28.6840   21.4396 H   0  0  0  0  0  0  0  0  0  0  0  0
    0.0019  -28.5210   21.2478 H   0  0  0  0  0  0  0  0  0  0  0  0
   -1.2553  -28.5977   23.5480 H   0  0  0  0  0  0  0  0  0  0  0  0
    0.3612  -27.8931   23.2055 H   0  0  0  0  0  0  0  0  0  0  0  0
   -1.0952  -26.8416   23.2055 H   0  0  0  0  0  0  0  0  0  0  0  0
   -0.4509  -25.3927   21.7650 H   0  0  0  0  0  0  0  0  0  0  0  0
    1.5108  -26.3050   21.7236 H   0  0  0  0  0  0  0  0  0  0  0  0
   -1.4135  -24.4982   19.7917 H   0  0  0  0  0  0  0  0  0  0  0  0
    1.4892  -24.0549   20.0031 H   0  0  0  0  0  0  0  0  0  0  0  0
    0.5255  -23.2329   18.8142 H   0  0  0  0  0  0  0  0  0  0  0  0
    0.3585  -23.0145   21.6992 H   0  0  0  0  0  0  0  0  0  0  0  0
    0.9156  -21.7835   20.5157 H   0  0  0  0  0  0  0  0  0  0  0  0
   -0.7993  -22.3179   20.5157 H   0  0  0  0  0  0  0  0  0  0  0  0
    0.8190  -25.7714   18.2028 H   0  0  0  0  0  0  0  0  0  0  0  0
   -0.6853  -23.5110   17.7576 H   0  0  0  0  0  0  0  0  0  0  0  0
   -2.2498  -26.2417   18.2471 H   0  0  0  0  0  0  0  0  0  0  0  0
   -2.6864  -30.7820   19.5233 H   0  0  0  0  0  0  0  0  0  0  0  0
   -2.2950  -32.0457   16.6818 H   0  0  0  0  0  0  0  0  0  0  0  0
  1  2  1  0
  8  1  1  0
  2  3  1  0
  2  4  1  0
  4  5  1  0
  5  6  1  0
  5 23  1  1
  5 24  1  0
  6  7  1  6
  6  8  1  0
  6  9  1  0
  8 10  1  0
 11  9  1  0
 22 10  1  0
 11 12  1  0
 11 22  1  0
 12 13  1  0
 12 15  1  0
 13 14  1  0
 15 16  1  0
 15 17  1  0
 17 18  1  0
 17 20  1  0
 18 19  1  0
 20 21  1  0
 20 22  1  0
  2 25  1  6
  3 26  1  0
  3 27  1  0
  3 28  1  0
  4 29  1  0
  4 30  1  0
  7 31  1  0
  8 32  1  6
 11 33  1  6
 12 34  1  6
 13 35  1  0
 13 36  1  0
 14 37  1  0
 14 38  1  0
 14 39  1  0
 15 40  1  1
 16 41  1  0
 17 42  1  6
 18 43  1  0
 18 44  1  0
 19 45  1  0
 19 46  1  0
 19 47  1  0
 20 48  1  1
 21 49  1  0
 22 50  1  6
 23 51  1  0
 24 52  1  0
M  CHG  2  13   1  18   1
M  END
>  <filename_input>  (12) 
7UY4_SMI_docked.sdf

>  <pdb_id>  (12) 
7UY4_SMI

>  <pose_rank>  (12) 
11

>  <num_atoms_heavy>  (12) 
24

>  <num_torsions>  (12) 
2

>  <pose>  (12) 
[-3.33059797522969, -27.667349177482524, 16.878769624269758, -0.8316669098132974, -2.1474059823412213, -1.9237982566643264, -0.13643644457804457, -0.1975377898528239]

>  <energy>  (12) 
-456.4832834303995

>  <inter_energy>  (12) 
-450.40194935311666

>  <intra_energy>  (12) 
2.478458496019705

>  <rmsd>  (12) 
4.49222

>  <sdf_rank>  (12) 
0

$$$$

     RDKit          3D

 52 54  0  0  0  0  0  0  0  0999 V2000
   -1.3258  -28.5839   16.9089 O   0  0  0  0  0  0  0  0  0  0  0  0
   -1.1971  -27.6958   18.0032 C   0  0  2  0  0  0  0  0  0  0  0  0
   -0.0734  -26.6894   17.6999 C   0  0  0  0  0  0  0  0  0  0  0  0
   -0.8217  -28.5046   19.1816 C   0  0  0  0  0  0  0  0  0  0  0  0
   -1.8789  -29.5458   19.5200 C   0  0  1  0  0  0  0  0  0  0  0  0
   -2.1910  -30.3499   18.2658 C   0  0  1  0  0  0  0  0  0  0  0  0
   -3.3971  -31.0480   18.4989 O   0  0  0  0  0  0  0  0  0  0  0  0
   -2.4619  -29.4385   17.0444 C   0  0  2  0  0  0  0  0  0  0  0  0
   -1.0475  -31.1987   18.0349 O   0  0  0  0  0  0  0  0  0  0  0  0
   -2.6300  -30.2606   15.8560 O   0  0  0  0  0  0  0  0  0  0  0  0
   -1.1954  -31.9264   16.8227 C   0  0  2  0  0  0  0  0  0  0  0  0
    0.0993  -32.7197   16.5684 C   0  0  1  0  0  0  0  0  0  0  0  0
    0.4090  -33.4724   17.7685 N   0  0  0  0  0  0  0  0  0  0  0  0
   -0.5231  -34.4897   18.2968 C   0  0  0  0  0  0  0  0  0  0  0  0
    0.0292  -33.5060   15.3054 C   0  0  1  0  0  0  0  0  0  0  0  0
   -0.9384  -34.5405   15.4180 O   0  0  0  0  0  0  0  0  0  0  0  0
   -0.4109  -32.5957   14.1516 C   0  0  1  0  0  0  0  0  0  0  0  0
   -0.6357  -33.3420   12.8900 N   0  0  0  0  0  0  0  0  0  0  0  0
    0.4148  -33.3040   11.9127 C   0  0  0  0  0  0  0  0  0  0  0  0
   -1.6442  -31.8448   14.4147 C   0  0  2  0  0  0  0  0  0  0  0  0
   -1.9393  -30.9718   13.2767 O   0  0  0  0  0  0  0  0  0  0  0  0
   -1.4674  -30.9860   15.6737 C   0  0  1  0  0  0  0  0  0  0  0  0
   -1.4292  -30.3392   20.5828 O   0  0  0  0  0  0  0  0  0  0  0  0
   -3.0716  -28.9369   20.0034 O   0  0  0  0  0  0  0  0  0  0  0  0
   -2.1344  -27.1494   18.1846 H   0  0  0  0  0  0  0  0  0  0  0  0
    0.3466  -26.3132   18.6444 H   0  0  0  0  0  0  0  0  0  0  0  0
    0.7174  -27.1868   17.1193 H   0  0  0  0  0  0  0  0  0  0  0  0
   -0.4810  -25.8487   17.1193 H   0  0  0  0  0  0  0  0  0  0  0  0
    0.1280  -29.0184   18.9715 H   0  0  0  0  0  0  0  0  0  0  0  0
   -0.7259  -27.8263   20.0422 H   0  0  0  0  0  0  0  0  0  0  0  0
   -3.5455  -31.1339   19.4739 H   0  0  0  0  0  0  0  0  0  0  0  0
   -3.3777  -28.8435   17.1759 H   0  0  0  0  0  0  0  0  0  0  0  0
   -2.0477  -32.6169   16.9048 H   0  0  0  0  0  0  0  0  0  0  0  0
    0.9511  -32.0481   16.3856 H   0  0  0  0  0  0  0  0  0  0  0  0
    1.2987  -33.9584   17.5865 H   0  0  0  0  0  0  0  0  0  0  0  0
    0.3870  -32.7472   18.4996 H   0  0  0  0  0  0  0  0  0  0  0  0
   -0.5039  -34.4687   19.3964 H   0  0  0  0  0  0  0  0  0  0  0  0
   -1.5419  -34.2722   17.9437 H   0  0  0  0  0  0  0  0  0  0  0  0
   -0.2175  -35.4856   17.9437 H   0  0  0  0  0  0  0  0  0  0  0  0
    1.0257  -33.9316   15.1159 H   0  0  0  0  0  0  0  0  0  0  0  0
   -1.1126  -34.7267   16.3746 H   0  0  0  0  0  0  0  0  0  0  0  0
    0.4323  -31.8960   14.0553 H   0  0  0  0  0  0  0  0  0  0  0  0
   -0.7940  -34.3293   13.1373 H   0  0  0  0  0  0  0  0  0  0  0  0
   -1.4349  -32.8724   12.4410 H   0  0  0  0  0  0  0  0  0  0  0  0
    1.3888  -33.2688   12.4226 H   0  0  0  0  0  0  0  0  0  0  0  0
    0.3628  -34.2047   11.2833 H   0  0  0  0  0  0  0  0  0  0  0  0
    0.2979  -32.4095   11.2833 H   0  0  0  0  0  0  0  0  0  0  0  0
   -2.4728  -32.5527   14.5638 H   0  0  0  0  0  0  0  0  0  0  0  0
   -2.2381  -30.0879   13.6077 H   0  0  0  0  0  0  0  0  0  0  0  0
   -0.6304  -30.2765   15.5957 H   0  0  0  0  0  0  0  0  0  0  0  0
   -1.6725  -29.9099   21.4411 H   0  0  0  0  0  0  0  0  0  0  0  0
   -3.0658  -28.9398   20.9933 H   0  0  0  0  0  0  0  0  0  0  0  0
  1  2  1  0
  8  1  1  0
  2  3  1  0
  2  4  1  0
  4  5  1  0
  5  6  1  0
  5 23  1  1
  5 24  1  0
  6  7  1  1
  6  8  1  0
  6  9  1  0
  8 10  1  0
 11  9  1  0
 22 10  1  0
 11 12  1  0
 11 22  1  0
 12 13  1  0
 12 15  1  0
 13 14  1  0
 15 16  1  0
 15 17  1  0
 17 18  1  0
 17 20  1  0
 18 19  1  0
 20 21  1  0
 20 22  1  0
  2 25  1  1
  3 26  1  0
  3 27  1  0
  3 28  1  0
  4 29  1  0
  4 30  1  0
  7 31  1  0
  8 32  1  1
 11 33  1  1
 12 34  1  6
 13 35  1  0
 13 36  1  0
 14 37  1  0
 14 38  1  0
 14 39  1  0
 15 40  1  6
 16 41  1  0
 17 42  1  6
 18 43  1  0
 18 44  1  0
 19 45  1  0
 19 46  1  0
 19 47  1  0
 20 48  1  1
 21 49  1  0
 22 50  1  6
 23 51  1  0
 24 52  1  0
M  CHG  2  13   1  18   1
M  END
>  <filename_input>  (13) 
7UY4_SMI_docked.sdf

>  <pdb_id>  (13) 
7UY4_SMI

>  <pose_rank>  (13) 
12

>  <num_atoms_heavy>  (13) 
24

>  <num_torsions>  (13) 
2

>  <pose>  (13) 
[-1.325755469635355, -28.58386120211296, 16.908864074099256, -3.150476512802356, -0.5494410228215472, 0.06740580741603519, 4.3084335290211175, -6.840234000789806]

>  <energy>  (13) 
-529.810003858377

>  <inter_energy>  (13) 
-534.7396180704576

>  <intra_energy>  (13) 
16.314802962050408

>  <rmsd>  (13) 
6.47545

>  <sdf_rank>  (13) 
0

$$$$

     RDKit          3D

 52 54  0  0  0  0  0  0  0  0999 V2000
   -1.6616  -27.4124   15.1651 O   0  0  0  0  0  0  0  0  0  0  0  0
   -1.7664  -26.0735   14.7187 C   0  0  2  0  0  0  0  0  0  0  0  0
   -0.4020  -25.6223   14.1692 C   0  0  0  0  0  0  0  0  0  0  0  0
   -2.1163  -25.2468   15.8926 C   0  0  0  0  0  0  0  0  0  0  0  0
   -3.4453  -25.6615   16.5076 C   0  0  1  0  0  0  0  0  0  0  0  0
   -3.4160  -27.1610   16.7676 C   0  0  1  0  0  0  0  0  0  0  0  0
   -4.7468  -27.5781   16.9940 O   0  0  0  0  0  0  0  0  0  0  0  0
   -2.9310  -27.9552   15.5306 C   0  0  2  0  0  0  0  0  0  0  0  0
   -2.5313  -27.3595   17.8897 O   0  0  0  0  0  0  0  0  0  0  0  0
   -2.8061  -29.3623   15.8785 O   0  0  0  0  0  0  0  0  0  0  0  0
   -2.3553  -28.7449   18.1551 C   0  0  2  0  0  0  0  0  0  0  0  0
   -1.3143  -28.8983   19.2789 C   0  0  1  0  0  0  0  0  0  0  0  0
   -1.7166  -28.0501   20.3840 N   0  0  0  0  0  0  0  0  0  0  0  0
   -0.9138  -26.8744   20.7793 C   0  0  0  0  0  0  0  0  0  0  0  0
   -1.0641  -30.3283   19.6120 C   0  0  1  0  0  0  0  0  0  0  0  0
   -2.2214  -30.9119   20.1944 O   0  0  0  0  0  0  0  0  0  0  0  0
   -0.7555  -31.1130   18.3304 C   0  0  1  0  0  0  0  0  0  0  0  0
   -0.6318  -32.5713   18.5701 N   0  0  0  0  0  0  0  0  0  0  0  0
   -1.8507  -33.3227   18.6680 C   0  0  0  0  0  0  0  0  0  0  0  0
   -1.7568  -30.9504   17.2697 C   0  0  2  0  0  0  0  0  0  0  0  0
   -1.3365  -31.6935   16.0800 O   0  0  0  0  0  0  0  0  0  0  0  0
   -1.8932  -29.4648   16.9115 C   0  0  1  0  0  0  0  0  0  0  0  0
   -3.6793  -24.9083   17.6649 O   0  0  0  0  0  0  0  0  0  0  0  0
   -4.5357  -25.3494   15.6470 O   0  0  0  0  0  0  0  0  0  0  0  0
   -2.5261  -25.9756   13.9292 H   0  0  0  0  0  0  0  0  0  0  0  0
    0.2749  -25.3984   15.0069 H   0  0  0  0  0  0  0  0  0  0  0  0
    0.0293  -26.4256   13.5538 H   0  0  0  0  0  0  0  0  0  0  0  0
   -0.5347  -24.7202   13.5538 H   0  0  0  0  0  0  0  0  0  0  0  0
   -1.3260  -25.3536   16.6502 H   0  0  0  0  0  0  0  0  0  0  0  0
   -2.2085  -24.2032   15.5574 H   0  0  0  0  0  0  0  0  0  0  0  0
   -4.9149  -27.6308   17.9682 H   0  0  0  0  0  0  0  0  0  0  0  0
   -3.6393  -27.8758   14.6928 H   0  0  0  0  0  0  0  0  0  0  0  0
   -3.3121  -29.1884   18.4679 H   0  0  0  0  0  0  0  0  0  0  0  0
   -0.3220  -28.5504   18.9558 H   0  0  0  0  0  0  0  0  0  0  0  0
   -2.6566  -27.6975   20.1539 H   0  0  0  0  0  0  0  0  0  0  0  0
   -1.6127  -28.6755   21.1957 H   0  0  0  0  0  0  0  0  0  0  0  0
   -0.8711  -26.8119   21.8767 H   0  0  0  0  0  0  0  0  0  0  0  0
    0.1054  -26.9745   20.3778 H   0  0  0  0  0  0  0  0  0  0  0  0
   -1.3781  -25.9616   20.3778 H   0  0  0  0  0  0  0  0  0  0  0  0
   -0.2187  -30.3694   20.3146 H   0  0  0  0  0  0  0  0  0  0  0  0
   -2.1486  -30.8752   21.1810 H   0  0  0  0  0  0  0  0  0  0  0  0
    0.2014  -30.6810   18.0022 H   0  0  0  0  0  0  0  0  0  0  0  0
   -0.0840  -32.9681   17.7933 H   0  0  0  0  0  0  0  0  0  0  0  0
   -0.1929  -32.6528   19.4983 H   0  0  0  0  0  0  0  0  0  0  0  0
   -2.1019  -33.4776   19.7277 H   0  0  0  0  0  0  0  0  0  0  0  0
   -2.6636  -32.7687   18.1757 H   0  0  0  0  0  0  0  0  0  0  0  0
   -1.7209  -34.2978   18.1757 H   0  0  0  0  0  0  0  0  0  0  0  0
   -2.7243  -31.3351   17.6248 H   0  0  0  0  0  0  0  0  0  0  0  0
   -0.8684  -32.5210   16.3561 H   0  0  0  0  0  0  0  0  0  0  0  0
   -0.9468  -29.0149   16.5771 H   0  0  0  0  0  0  0  0  0  0  0  0
   -3.5056  -25.4674   18.4632 H   0  0  0  0  0  0  0  0  0  0  0  0
   -5.3309  -25.1219   16.1911 H   0  0  0  0  0  0  0  0  0  0  0  0
  1  2  1  0
  8  1  1  0
  2  3  1  0
  2  4  1  0
  4  5  1  0
  5  6  1  0
  5 23  1  1
  5 24  1  0
  6  7  1  1
  6  8  1  0
  6  9  1  0
  8 10  1  0
 11  9  1  0
 22 10  1  0
 11 12  1  0
 11 22  1  0
 12 13  1  0
 12 15  1  0
 13 14  1  0
 15 16  1  0
 15 17  1  0
 17 18  1  0
 17 20  1  0
 18 19  1  0
 20 21  1  0
 20 22  1  0
  2 25  1  6
  3 26  1  0
  3 27  1  0
  3 28  1  0
  4 29  1  0
  4 30  1  0
  7 31  1  0
  8 32  1  6
 11 33  1  1
 12 34  1  6
 13 35  1  0
 13 36  1  0
 14 37  1  0
 14 38  1  0
 14 39  1  0
 15 40  1  1
 16 41  1  0
 17 42  1  6
 18 43  1  0
 18 44  1  0
 19 45  1  0
 19 46  1  0
 19 47  1  0
 20 48  1  1
 21 49  1  0
 22 50  1  6
 23 51  1  0
 24 52  1  0
M  CHG  2  13   1  18   1
M  END
>  <filename_input>  (14) 
7UY4_SMI_docked.sdf

>  <pdb_id>  (14) 
7UY4_SMI

>  <pose_rank>  (14) 
13

>  <num_atoms_heavy>  (14) 
24

>  <num_torsions>  (14) 
2

>  <pose>  (14) 
[-1.6615929043990931, -27.41237876403224, 15.16513749403695, -4.331833656969456, -0.7298439716584076, -0.7310992911285077, 1.2675452649864445, 2.5940106158421985]

>  <energy>  (14) 
-442.2188628171164

>  <inter_energy>  (14) 
-460.3750169746184

>  <intra_energy>  (14) 
25.056984063684208

>  <rmsd>  (14) 
4.98036

>  <sdf_rank>  (14) 
0

$$$$

     RDKit          3D

 52 54  0  0  0  0  0  0  0  0999 V2000
   -0.2771  -32.8988   13.6344 O   0  0  0  0  0  0  0  0  0  0  0  0
   -0.7166  -32.7951   12.2931 C   0  0  2  0  0  0  0  0  0  0  0  0
    0.0057  -31.6144   11.6210 C   0  0  0  0  0  0  0  0  0  0  0  0
   -2.1685  -32.5218   12.3282 C   0  0  0  0  0  0  0  0  0  0  0  0
   -2.9438  -33.6396   13.0105 C   0  0  1  0  0  0  0  0  0  0  0  0
   -2.3119  -33.9136   14.3680 C   0  0  1  0  0  0  0  0  0  0  0  0
   -2.8018  -35.1594   14.8199 O   0  0  0  0  0  0  0  0  0  0  0  0
   -0.7757  -34.0759   14.2710 C   0  0  2  0  0  0  0  0  0  0  0  0
   -2.6623  -32.7957   15.2100 O   0  0  0  0  0  0  0  0  0  0  0  0
   -0.2187  -34.2108   15.6082 O   0  0  0  0  0  0  0  0  0  0  0  0
   -2.0356  -32.9051   16.4812 C   0  0  2  0  0  0  0  0  0  0  0  0
   -2.3469  -31.6328   17.2901 C   0  0  1  0  0  0  0  0  0  0  0  0
   -3.7816  -31.4239   17.2660 N   0  0  0  0  0  0  0  0  0  0  0  0
   -4.3943  -30.2397   17.9023 C   0  0  0  0  0  0  0  0  0  0  0  0
   -1.7151  -31.6642   18.6386 C   0  0  1  0  0  0  0  0  0  0  0  0
   -2.3044  -32.6795   19.4391 O   0  0  0  0  0  0  0  0  0  0  0  0
   -0.2240  -31.9992   18.5049 C   0  0  1  0  0  0  0  0  0  0  0  0
    0.4394  -32.1832   19.8184 N   0  0  0  0  0  0  0  0  0  0  0  0
    1.3643  -33.2744   19.9358 C   0  0  0  0  0  0  0  0  0  0  0  0
    0.0526  -33.2126   17.7269 C   0  0  2  0  0  0  0  0  0  0  0  0
    1.4999  -33.4054   17.6164 O   0  0  0  0  0  0  0  0  0  0  0  0
   -0.5439  -33.0714   16.3204 C   0  0  1  0  0  0  0  0  0  0  0  0
   -4.2959  -33.2849   13.0961 O   0  0  0  0  0  0  0  0  0  0  0  0
   -2.9315  -34.8310   12.2312 O   0  0  0  0  0  0  0  0  0  0  0  0
   -0.5041  -33.7172   11.7323 H   0  0  0  0  0  0  0  0  0  0  0  0
    0.4143  -30.9466   12.3937 H   0  0  0  0  0  0  0  0  0  0  0  0
    0.8258  -31.9950   10.9944 H   0  0  0  0  0  0  0  0  0  0  0  0
   -0.7065  -31.0576   10.9944 H   0  0  0  0  0  0  0  0  0  0  0  0
   -2.3400  -31.5843   12.8774 H   0  0  0  0  0  0  0  0  0  0  0  0
   -2.5246  -32.4464   11.2902 H   0  0  0  0  0  0  0  0  0  0  0  0
   -2.8070  -35.1725   15.8098 H   0  0  0  0  0  0  0  0  0  0  0  0
   -0.4966  -34.9717   13.6969 H   0  0  0  0  0  0  0  0  0  0  0  0
   -2.4201  -33.7892   17.0109 H   0  0  0  0  0  0  0  0  0  0  0  0
   -1.8884  -30.7444   16.8313 H   0  0  0  0  0  0  0  0  0  0  0  0
   -4.0557  -31.3965   16.2736 H   0  0  0  0  0  0  0  0  0  0  0  0
   -4.1303  -32.1975   17.8498 H   0  0  0  0  0  0  0  0  0  0  0  0
   -4.3412  -30.3424   18.9962 H   0  0  0  0  0  0  0  0  0  0  0  0
   -3.8514  -29.3347   17.5922 H   0  0  0  0  0  0  0  0  0  0  0  0
   -5.4467  -30.1602   17.5922 H   0  0  0  0  0  0  0  0  0  0  0  0
   -1.8590  -30.6774   19.1029 H   0  0  0  0  0  0  0  0  0  0  0  0
   -2.1773  -32.4605   20.3962 H   0  0  0  0  0  0  0  0  0  0  0  0
    0.1782  -31.1230   17.9752 H   0  0  0  0  0  0  0  0  0  0  0  0
    0.9536  -31.3163   20.0307 H   0  0  0  0  0  0  0  0  0  0  0  0
   -0.3231  -32.4082   20.4733 H   0  0  0  0  0  0  0  0  0  0  0  0
    1.5457  -33.4885   20.9994 H   0  0  0  0  0  0  0  0  0  0  0  0
    0.9428  -34.1663   19.4489 H   0  0  0  0  0  0  0  0  0  0  0  0
    2.3131  -33.0049   19.4489 H   0  0  0  0  0  0  0  0  0  0  0  0
   -0.3992  -34.0775   18.2346 H   0  0  0  0  0  0  0  0  0  0  0  0
    1.8959  -33.4581   18.5222 H   0  0  0  0  0  0  0  0  0  0  0  0
   -0.1513  -32.2021   15.7725 H   0  0  0  0  0  0  0  0  0  0  0  0
   -4.5594  -33.2158   14.0479 H   0  0  0  0  0  0  0  0  0  0  0  0
   -2.9234  -35.6180   12.8318 H   0  0  0  0  0  0  0  0  0  0  0  0
  1  2  1  0
  8  1  1  0
  2  3  1  0
  2  4  1  0
  4  5  1  0
  5  6  1  0
  5 23  1  1
  5 24  1  0
  6  7  1  1
  6  8  1  0
  6  9  1  0
  8 10  1  0
 11  9  1  0
 22 10  1  0
 11 12  1  0
 11 22  1  0
 12 13  1  0
 12 15  1  0
 13 14  1  0
 15 16  1  0
 15 17  1  0
 17 18  1  0
 17 20  1  0
 18 19  1  0
 20 21  1  0
 20 22  1  0
  2 25  1  6
  3 26  1  0
  3 27  1  0
  3 28  1  0
  4 29  1  0
  4 30  1  0
  7 31  1  0
  8 32  1  6
 11 33  1  1
 12 34  1  6
 13 35  1  0
 13 36  1  0
 14 37  1  0
 14 38  1  0
 14 39  1  0
 15 40  1  1
 16 41  1  0
 17 42  1  6
 18 43  1  0
 18 44  1  0
 19 45  1  0
 19 46  1  0
 19 47  1  0
 20 48  1  1
 21 49  1  0
 22 50  1  6
 23 51  1  0
 24 52  1  0
M  CHG  2  13   1  18   1
M  END
>  <filename_input>  (15) 
7UY4_SMI_docked.sdf

>  <pdb_id>  (15) 
7UY4_SMI

>  <pose_rank>  (15) 
14

>  <num_atoms_heavy>  (15) 
24

>  <num_torsions>  (15) 
2

>  <pose>  (15) 
[-0.2770526853684833, -32.89877190309207, 13.63436178210855, -1.7518165802413859, -2.4915921873222624, -3.6311278042476296, 6.4404480837329166, -2.6874824107301047]

>  <energy>  (15) 
-406.2880521531262

>  <inter_energy>  (15) 
-452.92712927139905

>  <intra_energy>  (15) 
48.658452031304115

>  <rmsd>  (15) 
4.82313

>  <sdf_rank>  (15) 
0

$$$$

     RDKit          3D

 52 54  0  0  0  0  0  0  0  0999 V2000
   -2.1674  -27.2833   17.4118 O   0  0  0  0  0  0  0  0  0  0  0  0
   -2.6994  -26.1735   18.1105 C   0  0  2  0  0  0  0  0  0  0  0  0
   -1.5510  -25.4295   18.8142 C   0  0  0  0  0  0  0  0  0  0  0  0
   -3.6322  -26.7026   19.1273 C   0  0  0  0  0  0  0  0  0  0  0  0
   -4.7804  -27.4798   18.4996 C   0  0  1  0  0  0  0  0  0  0  0  0
   -4.2034  -28.5254   17.5557 C   0  0  1  0  0  0  0  0  0  0  0  0
   -5.2573  -28.9806   16.7321 O   0  0  0  0  0  0  0  0  0  0  0  0
   -3.1498  -27.9222   16.5956 C   0  0  2  0  0  0  0  0  0  0  0  0
   -3.6184  -29.5455   18.3914 O   0  0  0  0  0  0  0  0  0  0  0  0
   -2.5482  -28.9872   15.8079 O   0  0  0  0  0  0  0  0  0  0  0  0
   -2.9607  -30.5285   17.6028 C   0  0  2  0  0  0  0  0  0  0  0  0
   -2.2571  -31.5208   18.5464 C   0  0  1  0  0  0  0  0  0  0  0  0
   -3.2280  -31.9820   19.5196 N   0  0  0  0  0  0  0  0  0  0  0  0
   -3.1944  -33.3645   20.0396 C   0  0  0  0  0  0  0  0  0  0  0  0
   -1.5324  -32.5828   17.7945 C   0  0  1  0  0  0  0  0  0  0  0  0
   -2.4525  -33.4218   17.1099 O   0  0  0  0  0  0  0  0  0  0  0  0
   -0.6268  -31.9419   16.7350 C   0  0  1  0  0  0  0  0  0  0  0  0
    0.0212  -32.9452   15.8559 N   0  0  0  0  0  0  0  0  0  0  0  0
    1.1192  -33.6859   16.4087 C   0  0  0  0  0  0  0  0  0  0  0  0
   -1.3145  -30.9959   15.8483 C   0  0  2  0  0  0  0  0  0  0  0  0
   -0.3502  -30.4056   14.9179 O   0  0  0  0  0  0  0  0  0  0  0  0
   -1.9559  -29.8792   16.6823 C   0  0  1  0  0  0  0  0  0  0  0  0
   -5.5771  -28.0326   19.5100 O   0  0  0  0  0  0  0  0  0  0  0  0
   -5.6566  -26.6201   17.7784 O   0  0  0  0  0  0  0  0  0  0  0  0
   -3.2144  -25.4826   17.4270 H   0  0  0  0  0  0  0  0  0  0  0  0
   -1.6754  -25.5100   19.9041 H   0  0  0  0  0  0  0  0  0  0  0  0
   -0.5900  -25.8770   18.5207 H   0  0  0  0  0  0  0  0  0  0  0  0
   -1.5667  -24.3695   18.5207 H   0  0  0  0  0  0  0  0  0  0  0  0
   -3.0788  -27.3710   19.8032 H   0  0  0  0  0  0  0  0  0  0  0  0
   -4.0592  -25.8484   19.6732 H   0  0  0  0  0  0  0  0  0  0  0  0
   -6.0030  -29.3027   17.2981 H   0  0  0  0  0  0  0  0  0  0  0  0
   -3.6003  -27.1999   15.8989 H   0  0  0  0  0  0  0  0  0  0  0  0
   -3.6961  -31.0601   16.9812 H   0  0  0  0  0  0  0  0  0  0  0  0
   -1.4487  -31.0325   19.1105 H   0  0  0  0  0  0  0  0  0  0  0  0
   -3.1400  -31.3609   20.3365 H   0  0  0  0  0  0  0  0  0  0  0  0
   -4.1075  -31.9656   18.9837 H   0  0  0  0  0  0  0  0  0  0  0  0
   -3.1950  -33.3427   21.1394 H   0  0  0  0  0  0  0  0  0  0  0  0
   -4.0795  -33.9119   19.6833 H   0  0  0  0  0  0  0  0  0  0  0  0
   -2.2838  -33.8683   19.6833 H   0  0  0  0  0  0  0  0  0  0  0  0
   -0.9440  -33.1675   18.5169 H   0  0  0  0  0  0  0  0  0  0  0  0
   -2.9984  -33.9196   17.7689 H   0  0  0  0  0  0  0  0  0  0  0  0
    0.1173  -31.4039   17.3407 H   0  0  0  0  0  0  0  0  0  0  0  0
   -0.7008  -33.6239   15.5746 H   0  0  0  0  0  0  0  0  0  0  0  0
    0.4295  -32.3993   15.0837 H   0  0  0  0  0  0  0  0  0  0  0  0
    1.0685  -33.6517   17.5070 H   0  0  0  0  0  0  0  0  0  0  0  0
    1.0630  -34.7314   16.0714 H   0  0  0  0  0  0  0  0  0  0  0  0
    2.0676  -33.2422   16.0714 H   0  0  0  0  0  0  0  0  0  0  0  0
   -2.0938  -31.5305   15.2853 H   0  0  0  0  0  0  0  0  0  0  0  0
    0.3730  -29.9629   15.4289 H   0  0  0  0  0  0  0  0  0  0  0  0
   -1.2269  -29.3264   17.2929 H   0  0  0  0  0  0  0  0  0  0  0  0
   -5.2116  -27.7791   20.3944 H   0  0  0  0  0  0  0  0  0  0  0  0
   -6.1972  -26.0897   18.4160 H   0  0  0  0  0  0  0  0  0  0  0  0
  1  2  1  0
  8  1  1  0
  2  3  1  0
  2  4  1  0
  4  5  1  0
  5  6  1  0
  5 23  1  1
  5 24  1  0
  6  7  1  6
  6  8  1  0
  6  9  1  0
  8 10  1  0
 11  9  1  0
 22 10  1  0
 11 12  1  0
 11 22  1  0
 12 13  1  0
 12 15  1  0
 13 14  1  0
 15 16  1  0
 15 17  1  0
 17 18  1  0
 17 20  1  0
 18 19  1  0
 20 21  1  0
 20 22  1  0
  2 25  1  6
  3 26  1  0
  3 27  1  0
  3 28  1  0
  4 29  1  0
  4 30  1  0
  7 31  1  0
  8 32  1  6
 11 33  1  6
 12 34  1  1
 13 35  1  0
 13 36  1  0
 14 37  1  0
 14 38  1  0
 14 39  1  0
 15 40  1  1
 16 41  1  0
 17 42  1  1
 18 43  1  0
 18 44  1  0
 19 45  1  0
 19 46  1  0
 19 47  1  0
 20 48  1  6
 21 49  1  0
 22 50  1  1
 23 51  1  0
 24 52  1  0
M  CHG  2  13   1  18   1
M  END
>  <filename_input>  (16) 
7UY4_SMI_docked.sdf

>  <pdb_id>  (16) 
7UY4_SMI

>  <pose_rank>  (16) 
15

>  <num_atoms_heavy>  (16) 
24

>  <num_torsions>  (16) 
2

>  <pose>  (16) 
[-2.1673957963069665, -27.28329409025889, 17.411847185826296, -3.1862924482275194, -0.07854341996063847, -1.464171799258033, -0.5007885345307163, -0.13032521616666107]

>  <energy>  (16) 
-423.11583691249564

>  <inter_energy>  (16) 
-439.8624271706438

>  <intra_energy>  (16) 
9.99736796811037

>  <rmsd>  (16) 
6.00706

>  <sdf_rank>  (16) 
0

$$$$

     RDKit          3D

 52 54  0  0  0  0  0  0  0  0999 V2000
    0.4165  -21.7846   18.2252 O   0  0  0  0  0  0  0  0  0  0  0  0
    0.5341  -20.5105   17.6206 C   0  0  2  0  0  0  0  0  0  0  0  0
    0.2469  -19.4286   18.6763 C   0  0  0  0  0  0  0  0  0  0  0  0
   -0.4877  -20.4353   16.5556 C   0  0  0  0  0  0  0  0  0  0  0  0
   -0.2813  -21.5019   15.4898 C   0  0  1  0  0  0  0  0  0  0  0  0
   -0.1675  -22.8579   16.1719 C   0  0  1  0  0  0  0  0  0  0  0  0
    0.3700  -23.7629   15.2294 O   0  0  0  0  0  0  0  0  0  0  0  0
    0.8360  -22.8325   17.3502 C   0  0  2  0  0  0  0  0  0  0  0  0
   -1.4942  -23.1931   16.6289 O   0  0  0  0  0  0  0  0  0  0  0  0
    0.8084  -24.1152   18.0361 O   0  0  0  0  0  0  0  0  0  0  0  0
   -1.4812  -24.4051   17.3717 C   0  0  2  0  0  0  0  0  0  0  0  0
   -2.8940  -24.6492   17.9324 C   0  0  1  0  0  0  0  0  0  0  0  0
   -3.8375  -24.5450   16.8363 N   0  0  0  0  0  0  0  0  0  0  0  0
   -5.2727  -24.2942   17.0817 C   0  0  0  0  0  0  0  0  0  0  0  0
   -2.9634  -25.9016   18.7357 C   0  0  1  0  0  0  0  0  0  0  0  0
   -2.7718  -27.0367   17.9025 O   0  0  0  0  0  0  0  0  0  0  0  0
   -1.8403  -25.9103   19.7807 C   0  0  1  0  0  0  0  0  0  0  0  0
   -1.7637  -27.1905   20.5253 N   0  0  0  0  0  0  0  0  0  0  0  0
   -1.1317  -27.1600   21.8135 C   0  0  0  0  0  0  0  0  0  0  0  0
   -0.5020  -25.6714   19.2276 C   0  0  2  0  0  0  0  0  0  0  0  0
    0.4802  -25.6456   20.3132 O   0  0  0  0  0  0  0  0  0  0  0  0
   -0.4784  -24.3226   18.4968 C   0  0  1  0  0  0  0  0  0  0  0  0
   -1.3270  -21.4413   14.5602 O   0  0  0  0  0  0  0  0  0  0  0  0
    0.8948  -21.2533   14.7270 O   0  0  0  0  0  0  0  0  0  0  0  0
    1.5424  -20.3570   17.2087 H   0  0  0  0  0  0  0  0  0  0  0  0
    0.3610  -19.8585   19.6823 H   0  0  0  0  0  0  0  0  0  0  0  0
    0.9553  -18.5965   18.5506 H   0  0  0  0  0  0  0  0  0  0  0  0
   -0.7809  -19.0573   18.5506 H   0  0  0  0  0  0  0  0  0  0  0  0
   -1.4815  -20.5721   17.0069 H   0  0  0  0  0  0  0  0  0  0  0  0
   -0.4018  -19.4511   16.0718 H   0  0  0  0  0  0  0  0  0  0  0  0
    0.8135  -24.5096   15.7046 H   0  0  0  0  0  0  0  0  0  0  0  0
    1.8652  -22.6564   17.0044 H   0  0  0  0  0  0  0  0  0  0  0  0
   -1.1886  -25.2395   16.7173 H   0  0  0  0  0  0  0  0  0  0  0  0
   -3.1724  -23.8783   18.6661 H   0  0  0  0  0  0  0  0  0  0  0  0
   -3.5051  -23.7758   16.2374 H   0  0  0  0  0  0  0  0  0  0  0  0
   -3.8397  -25.5003   16.4511 H   0  0  0  0  0  0  0  0  0  0  0  0
   -5.4591  -24.2616   18.1653 H   0  0  0  0  0  0  0  0  0  0  0  0
   -5.5590  -23.3324   16.6313 H   0  0  0  0  0  0  0  0  0  0  0  0
   -5.8683  -25.1018   16.6313 H   0  0  0  0  0  0  0  0  0  0  0  0
   -3.9519  -25.9410   19.2165 H   0  0  0  0  0  0  0  0  0  0  0  0
   -2.6362  -27.8399   18.4652 H   0  0  0  0  0  0  0  0  0  0  0  0
   -2.1172  -25.0790   20.4458 H   0  0  0  0  0  0  0  0  0  0  0  0
   -2.7270  -27.5293   20.6601 H   0  0  0  0  0  0  0  0  0  0  0  0
   -1.1652  -27.7991   19.9488 H   0  0  0  0  0  0  0  0  0  0  0  0
   -1.8999  -27.1971   22.5999 H   0  0  0  0  0  0  0  0  0  0  0  0
   -0.4620  -28.0268   21.9140 H   0  0  0  0  0  0  0  0  0  0  0  0
   -0.5487  -26.2326   21.9140 H   0  0  0  0  0  0  0  0  0  0  0  0
   -0.2540  -26.4781   18.5220 H   0  0  0  0  0  0  0  0  0  0  0  0
    0.0098  -25.6579   21.1842 H   0  0  0  0  0  0  0  0  0  0  0  0
   -0.7492  -23.4772   19.1466 H   0  0  0  0  0  0  0  0  0  0  0  0
   -2.1920  -21.3912   15.0393 H   0  0  0  0  0  0  0  0  0  0  0  0
    1.6567  -21.0922   15.3383 H   0  0  0  0  0  0  0  0  0  0  0  0
  1  2  1  0
  8  1  1  0
  2  3  1  0
  2  4  1  0
  4  5  1  0
  5  6  1  0
  5 23  1  6
  5 24  1  0
  6  7  1  6
  6  8  1  0
  6  9  1  0
  8 10  1  0
 11  9  1  0
 22 10  1  0
 11 12  1  0
 11 22  1  0
 12 13  1  0
 12 15  1  0
 13 14  1  0
 15 16  1  0
 15 17  1  0
 17 18  1  0
 17 20  1  0
 18 19  1  0
 20 21  1  0
 20 22  1  0
  2 25  1  6
  3 26  1  0
  3 27  1  0
  3 28  1  0
  4 29  1  0
  4 30  1  0
  7 31  1  0
  8 32  1  6
 11 33  1  6
 12 34  1  1
 13 35  1  0
 13 36  1  0
 14 37  1  0
 14 38  1  0
 14 39  1  0
 15 40  1  1
 16 41  1  0
 17 42  1  1
 18 43  1  0
 18 44  1  0
 19 45  1  0
 19 46  1  0
 19 47  1  0
 20 48  1  6
 21 49  1  0
 22 50  1  1
 23 51  1  0
 24 52  1  0
M  CHG  2  13   1  18   1
M  END
>  <filename_input>  (17) 
7UY4_SMI_docked.sdf

>  <pdb_id>  (17) 
7UY4_SMI

>  <pose_rank>  (17) 
16

>  <num_atoms_heavy>  (17) 
24

>  <num_torsions>  (17) 
2

>  <pose>  (17) 
[0.41651784807856085, -21.78459996351227, 18.225202236637926, -1.0038086678657823, 0.8965308041614086, -3.745570249613352, 0.4526677452175061, -1.5582712170302617]

>  <energy>  (17) 
-312.40781908409656

>  <inter_energy>  (17) 
-338.72503326483894

>  <intra_energy>  (17) 
25.80443091866833

>  <rmsd>  (17) 
7.45628

>  <sdf_rank>  (17) 
0

$$$$

     RDKit          3D

 52 54  0  0  0  0  0  0  0  0999 V2000
   -4.1786  -27.7212   17.7560 O   0  0  0  0  0  0  0  0  0  0  0  0
   -4.8132  -28.9420   18.0873 C   0  0  2  0  0  0  0  0  0  0  0  0
   -6.1151  -28.6373   18.8487 C   0  0  0  0  0  0  0  0  0  0  0  0
   -3.8940  -29.6869   18.9728 C   0  0  0  0  0  0  0  0  0  0  0  0
   -2.5689  -29.9954   18.2910 C   0  0  1  0  0  0  0  0  0  0  0  0
   -2.0007  -28.7032   17.7213 C   0  0  1  0  0  0  0  0  0  0  0  0
   -0.9832  -29.0545   16.8061 O   0  0  0  0  0  0  0  0  0  0  0  0
   -3.0526  -27.9190   16.9001 C   0  0  2  0  0  0  0  0  0  0  0  0
   -1.5440  -27.9301   18.8506 O   0  0  0  0  0  0  0  0  0  0  0  0
   -2.4903  -26.6417   16.4891 O   0  0  0  0  0  0  0  0  0  0  0  0
   -1.0810  -26.6524   18.4336 C   0  0  2  0  0  0  0  0  0  0  0  0
   -0.7205  -25.8315   19.6852 C   0  0  1  0  0  0  0  0  0  0  0  0
    0.1673  -26.6306   20.5072 N   0  0  0  0  0  0  0  0  0  0  0  0
    0.0199  -26.6732   21.9767 C   0  0  0  0  0  0  0  0  0  0  0  0
   -0.2331  -24.4687   19.3334 C   0  0  1  0  0  0  0  0  0  0  0  0
    1.0143  -24.5470   18.6573 O   0  0  0  0  0  0  0  0  0  0  0  0
   -1.2259  -23.7934   18.3785 C   0  0  1  0  0  0  0  0  0  0  0  0
   -0.7362  -22.4864   17.8771 N   0  0  0  0  0  0  0  0  0  0  0  0
    0.1039  -22.5065   16.7136 C   0  0  0  0  0  0  0  0  0  0  0  0
   -1.5604  -24.5931   17.1942 C   0  0  2  0  0  0  0  0  0  0  0  0
   -2.5519  -23.8811   16.3854 O   0  0  0  0  0  0  0  0  0  0  0  0
   -2.1443  -25.9431   17.6307 C   0  0  1  0  0  0  0  0  0  0  0  0
   -1.7082  -30.6180   19.2036 O   0  0  0  0  0  0  0  0  0  0  0  0
   -2.7326  -30.9453   17.2431 O   0  0  0  0  0  0  0  0  0  0  0  0
   -5.0485  -29.5259   17.1853 H   0  0  0  0  0  0  0  0  0  0  0  0
   -5.9257  -28.6816   19.9313 H   0  0  0  0  0  0  0  0  0  0  0  0
   -6.4705  -27.6317   18.5795 H   0  0  0  0  0  0  0  0  0  0  0  0
   -6.8799  -29.3807   18.5795 H   0  0  0  0  0  0  0  0  0  0  0  0
   -3.6988  -29.0826   19.8710 H   0  0  0  0  0  0  0  0  0  0  0  0
   -4.3728  -30.6427   19.2320 H   0  0  0  0  0  0  0  0  0  0  0  0
   -0.1741  -29.3339   17.3035 H   0  0  0  0  0  0  0  0  0  0  0  0
   -3.3499  -28.4649   15.9927 H   0  0  0  0  0  0  0  0  0  0  0  0
   -0.1939  -26.7686   17.7937 H   0  0  0  0  0  0  0  0  0  0  0  0
   -1.6113  -25.6176   20.2941 H   0  0  0  0  0  0  0  0  0  0  0  0
    0.0758  -27.6018   20.1765 H   0  0  0  0  0  0  0  0  0  0  0  0
    1.0729  -26.1549   20.3866 H   0  0  0  0  0  0  0  0  0  0  0  0
    0.9742  -26.3971   22.4490 H   0  0  0  0  0  0  0  0  0  0  0  0
   -0.7617  -25.9644   22.2875 H   0  0  0  0  0  0  0  0  0  0  0  0
   -0.2624  -27.6899   22.2875 H   0  0  0  0  0  0  0  0  0  0  0  0
   -0.1286  -23.8953   20.2663 H   0  0  0  0  0  0  0  0  0  0  0  0
    1.7472  -24.5931   19.3212 H   0  0  0  0  0  0  0  0  0  0  0  0
   -2.1224  -23.6692   19.0037 H   0  0  0  0  0  0  0  0  0  0  0  0
   -1.5607  -21.9106   17.6548 H   0  0  0  0  0  0  0  0  0  0  0  0
   -0.1389  -22.1182   18.6311 H   0  0  0  0  0  0  0  0  0  0  0  0
    1.1590  -22.5317   17.0236 H   0  0  0  0  0  0  0  0  0  0  0  0
   -0.1232  -23.3995   16.1127 H   0  0  0  0  0  0  0  0  0  0  0  0
   -0.0803  -21.6037   16.1127 H   0  0  0  0  0  0  0  0  0  0  0  0
   -0.6486  -24.7593   16.6018 H   0  0  0  0  0  0  0  0  0  0  0  0
   -3.1941  -23.4200   16.9812 H   0  0  0  0  0  0  0  0  0  0  0  0
   -3.0445  -25.8402   18.2545 H   0  0  0  0  0  0  0  0  0  0  0  0
   -1.9982  -30.4082   20.1266 H   0  0  0  0  0  0  0  0  0  0  0  0
   -2.8872  -31.8424   17.6322 H   0  0  0  0  0  0  0  0  0  0  0  0
  1  2  1  0
  8  1  1  0
  2  3  1  0
  2  4  1  0
  4  5  1  0
  5  6  1  0
  5 23  1  1
  5 24  1  0
  6  7  1  6
  6  8  1  0
  6  9  1  0
  8 10  1  0
 11  9  1  0
 22 10  1  0
 11 12  1  0
 11 22  1  0
 12 13  1  0
 12 15  1  0
 13 14  1  0
 15 16  1  0
 15 17  1  0
 17 18  1  0
 17 20  1  0
 18 19  1  0
 20 21  1  0
 20 22  1  0
  2 25  1  6
  3 26  1  0
  3 27  1  0
  3 28  1  0
  4 29  1  0
  4 30  1  0
  7 31  1  0
  8 32  1  6
 11 33  1  6
 12 34  1  1
 13 35  1  0
 13 36  1  0
 14 37  1  0
 14 38  1  0
 14 39  1  0
 15 40  1  1
 16 41  1  0
 17 42  1  1
 18 43  1  0
 18 44  1  0
 19 45  1  0
 19 46  1  0
 19 47  1  0
 20 48  1  6
 21 49  1  0
 22 50  1  1
 23 51  1  0
 24 52  1  0
M  CHG  2  13   1  18   1
M  END
>  <filename_input>  (18) 
7UY4_SMI_docked.sdf

>  <pdb_id>  (18) 
7UY4_SMI

>  <pose_rank>  (18) 
17

>  <num_atoms_heavy>  (18) 
24

>  <num_torsions>  (18) 
2

>  <pose>  (18) 
[-4.178623135808756, -27.721211664599842, 17.755979653267758, 1.359220265989792, 2.9804148279009772, 1.8870260216733004, 0.828847639194612, 2.6916254941838473]

>  <energy>  (18) 
-483.9917046181888

>  <inter_energy>  (18) 
-496.72462202221277

>  <intra_energy>  (18) 
22.730498971426684

>  <rmsd>  (18) 
4.9207

>  <sdf_rank>  (18) 
0

$$$$

     RDKit          3D

 52 54  0  0  0  0  0  0  0  0999 V2000
    0.0694  -24.2072   16.8875 O   0  0  0  0  0  0  0  0  0  0  0  0
    0.4421  -22.8419   16.8876 C   0  0  2  0  0  0  0  0  0  0  0  0
    1.9446  -22.7347   16.5741 C   0  0  0  0  0  0  0  0  0  0  0  0
    0.1895  -22.3192   18.2466 C   0  0  0  0  0  0  0  0  0  0  0  0
   -1.2782  -22.4242   18.6353 C   0  0  1  0  0  0  0  0  0  0  0  0
   -1.7432  -23.8551   18.4040 C   0  0  1  0  0  0  0  0  0  0  0  0
   -3.1559  -23.8503   18.4240 O   0  0  0  0  0  0  0  0  0  0  0  0
   -1.3442  -24.3756   17.0019 C   0  0  2  0  0  0  0  0  0  0  0  0
   -1.1362  -24.6503   19.4435 O   0  0  0  0  0  0  0  0  0  0  0  0
   -1.7042  -25.7805   16.8877 O   0  0  0  0  0  0  0  0  0  0  0  0
   -1.4293  -26.0292   19.2605 C   0  0  2  0  0  0  0  0  0  0  0  0
   -0.6617  -26.8366   20.3231 C   0  0  1  0  0  0  0  0  0  0  0  0
   -0.9470  -26.2574   21.6214 N   0  0  0  0  0  0  0  0  0  0  0  0
    0.0875  -26.1891   22.6741 C   0  0  0  0  0  0  0  0  0  0  0  0
   -0.9085  -28.2998   20.1934 C   0  0  1  0  0  0  0  0  0  0  0  0
   -2.2610  -28.6044   20.5052 O   0  0  0  0  0  0  0  0  0  0  0  0
   -0.6661  -28.7400   18.7440 C   0  0  1  0  0  0  0  0  0  0  0  0
   -1.0267  -30.1596   18.5110 N   0  0  0  0  0  0  0  0  0  0  0  0
   -2.3610  -30.4282   18.0554 C   0  0  0  0  0  0  0  0  0  0  0  0
   -1.4028  -27.9557   17.7458 C   0  0  2  0  0  0  0  0  0  0  0  0
   -1.0563  -28.4224   16.4018 O   0  0  0  0  0  0  0  0  0  0  0  0
   -1.0284  -26.4735   17.8748 C   0  0  1  0  0  0  0  0  0  0  0  0
   -1.4415  -22.0015   19.9604 O   0  0  0  0  0  0  0  0  0  0  0  0
   -2.0831  -21.5333   17.8702 O   0  0  0  0  0  0  0  0  0  0  0  0
   -0.1267  -22.2741   16.1366 H   0  0  0  0  0  0  0  0  0  0  0  0
    2.5134  -22.6941   17.5147 H   0  0  0  0  0  0  0  0  0  0  0  0
    2.2613  -23.6125   15.9917 H   0  0  0  0  0  0  0  0  0  0  0  0
    2.1333  -21.8208   15.9917 H   0  0  0  0  0  0  0  0  0  0  0  0
    0.7893  -22.8961   18.9659 H   0  0  0  0  0  0  0  0  0  0  0  0
    0.4682  -21.2552   18.2581 H   0  0  0  0  0  0  0  0  0  0  0  0
   -3.4727  -23.8492   19.3619 H   0  0  0  0  0  0  0  0  0  0  0  0
   -1.8632  -23.8277   16.2016 H   0  0  0  0  0  0  0  0  0  0  0  0
   -2.5107  -26.1977   19.3710 H   0  0  0  0  0  0  0  0  0  0  0  0
    0.4256  -26.7629   20.1739 H   0  0  0  0  0  0  0  0  0  0  0  0
   -1.2513  -25.2887   21.4482 H   0  0  0  0  0  0  0  0  0  0  0  0
   -1.6270  -26.9213   22.0184 H   0  0  0  0  0  0  0  0  0  0  0  0
   -0.3932  -26.2208   23.6630 H   0  0  0  0  0  0  0  0  0  0  0  0
    0.7720  -27.0441   22.5715 H   0  0  0  0  0  0  0  0  0  0  0  0
    0.6537  -25.2517   22.5715 H   0  0  0  0  0  0  0  0  0  0  0  0
   -0.2288  -28.8202   20.8842 H   0  0  0  0  0  0  0  0  0  0  0  0
   -2.3752  -28.6301   21.4883 H   0  0  0  0  0  0  0  0  0  0  0  0
    0.4141  -28.5775   18.6152 H   0  0  0  0  0  0  0  0  0  0  0  0
   -0.3765  -30.5332   17.8049 H   0  0  0  0  0  0  0  0  0  0  0  0
   -0.9663  -30.6057   19.4374 H   0  0  0  0  0  0  0  0  0  0  0  0
   -3.0246  -30.5618   18.9225 H   0  0  0  0  0  0  0  0  0  0  0  0
   -2.7177  -29.5838   17.4473 H   0  0  0  0  0  0  0  0  0  0  0  0
   -2.3632  -31.3448   17.4473 H   0  0  0  0  0  0  0  0  0  0  0  0
   -2.4827  -28.0800   17.9147 H   0  0  0  0  0  0  0  0  0  0  0  0
   -0.4674  -29.2153   16.4695 H   0  0  0  0  0  0  0  0  0  0  0  0
    0.0484  -26.2896   17.7454 H   0  0  0  0  0  0  0  0  0  0  0  0
   -1.1617  -22.7257   20.5746 H   0  0  0  0  0  0  0  0  0  0  0  0
   -2.6060  -20.9546   18.4800 H   0  0  0  0  0  0  0  0  0  0  0  0
  1  2  1  0
  8  1  1  0
  2  3  1  0
  2  4  1  0
  4  5  1  0
  5  6  1  0
  5 23  1  1
  5 24  1  0
  6  7  1  6
  6  8  1  0
  6  9  1  0
  8 10  1  0
 11  9  1  0
 22 10  1  0
 11 12  1  0
 11 22  1  0
 12 13  1  0
 12 15  1  0
 13 14  1  0
 15 16  1  0
 15 17  1  0
 17 18  1  0
 17 20  1  0
 18 19  1  0
 20 21  1  0
 20 22  1  0
  2 25  1  6
  3 26  1  0
  3 27  1  0
  3 28  1  0
  4 29  1  0
  4 30  1  0
  7 31  1  0
  8 32  1  6
 11 33  1  1
 12 34  1  6
 13 35  1  0
 13 36  1  0
 14 37  1  0
 14 38  1  0
 14 39  1  0
 15 40  1  1
 16 41  1  0
 17 42  1  6
 18 43  1  0
 18 44  1  0
 19 45  1  0
 19 46  1  0
 19 47  1  0
 20 48  1  1
 21 49  1  0
 22 50  1  6
 23 51  1  0
 24 52  1  0
M  CHG  2  13   1  18   1
M  END
>  <filename_input>  (19) 
7UY4_SMI_docked.sdf

>  <pdb_id>  (19) 
7UY4_SMI

>  <pose_rank>  (19) 
18

>  <num_atoms_heavy>  (19) 
24

>  <num_torsions>  (19) 
2

>  <pose>  (19) 
[0.06936271173391532, -24.20716258328744, 16.887535912294986, -4.163592039390712, 0.2439809135706311, -0.41366523290961027, 0.7369886468252886, -3.4855042164322785]

>  <energy>  (19) 
-424.9316984011654

>  <inter_energy>  (19) 
-445.00495503035717

>  <intra_energy>  (19) 
23.22738376902869

>  <rmsd>  (19) 
6.72543

>  <sdf_rank>  (19) 
0

$$$$

     RDKit          3D

 52 54  0  0  0  0  0  0  0  0999 V2000
   -2.9651  -23.7501   17.4780 O   0  0  0  0  0  0  0  0  0  0  0  0
   -3.7654  -23.3549   16.3798 C   0  0  2  0  0  0  0  0  0  0  0  0
   -5.0736  -22.7428   16.9102 C   0  0  0  0  0  0  0  0  0  0  0  0
   -4.0770  -24.5735   15.6042 C   0  0  0  0  0  0  0  0  0  0  0  0
   -2.8211  -25.2500   15.0739 C   0  0  1  0  0  0  0  0  0  0  0  0
   -1.8536  -25.4583   16.2306 C   0  0  1  0  0  0  0  0  0  0  0  0
   -0.5864  -25.7470   15.6766 O   0  0  0  0  0  0  0  0  0  0  0  0
   -1.6633  -24.1700   17.0672 C   0  0  2  0  0  0  0  0  0  0  0  0
   -2.4075  -26.5205   17.0344 O   0  0  0  0  0  0  0  0  0  0  0  0
   -0.8305  -24.4635   18.2235 O   0  0  0  0  0  0  0  0  0  0  0  0
   -1.6257  -26.7296   18.2031 C   0  0  2  0  0  0  0  0  0  0  0  0
   -2.3264  -27.7859   19.0768 C   0  0  1  0  0  0  0  0  0  0  0  0
   -2.6117  -28.9396   18.2461 N   0  0  0  0  0  0  0  0  0  0  0  0
   -3.5317  -30.0025   18.7007 C   0  0  0  0  0  0  0  0  0  0  0  0
   -1.5719  -28.0568   20.3321 C   0  0  1  0  0  0  0  0  0  0  0  0
   -0.3314  -28.6853   20.0396 O   0  0  0  0  0  0  0  0  0  0  0  0
   -1.2549  -26.7344   21.0422 C   0  0  1  0  0  0  0  0  0  0  0  0
   -0.3850  -26.9184   22.2291 N   0  0  0  0  0  0  0  0  0  0  0  0
   -0.5443  -25.9838   23.3067 C   0  0  0  0  0  0  0  0  0  0  0  0
   -0.5913  -25.7390   20.1919 C   0  0  2  0  0  0  0  0  0  0  0  0
   -0.3874  -24.5033   20.9506 O   0  0  0  0  0  0  0  0  0  0  0  0
   -1.4673  -25.4384   18.9687 C   0  0  1  0  0  0  0  0  0  0  0  0
   -3.1703  -26.4430   14.4289 O   0  0  0  0  0  0  0  0  0  0  0  0
   -2.1942  -24.4643   14.0656 O   0  0  0  0  0  0  0  0  0  0  0  0
   -3.2454  -22.6140   15.7547 H   0  0  0  0  0  0  0  0  0  0  0  0
   -5.0616  -22.7485   18.0101 H   0  0  0  0  0  0  0  0  0  0  0  0
   -5.1667  -21.7077   16.5498 H   0  0  0  0  0  0  0  0  0  0  0  0
   -5.9279  -23.3348   16.5498 H   0  0  0  0  0  0  0  0  0  0  0  0
   -4.6134  -25.2805   16.2542 H   0  0  0  0  0  0  0  0  0  0  0  0
   -4.6933  -24.2787   14.7420 H   0  0  0  0  0  0  0  0  0  0  0  0
    0.0664  -25.8957   16.4059 H   0  0  0  0  0  0  0  0  0  0  0  0
   -1.1684  -23.3774   16.4869 H   0  0  0  0  0  0  0  0  0  0  0  0
   -0.6224  -27.0821   17.9216 H   0  0  0  0  0  0  0  0  0  0  0  0
   -3.2925  -27.4178   19.4526 H   0  0  0  0  0  0  0  0  0  0  0  0
   -2.9997  -28.5754   17.3643 H   0  0  0  0  0  0  0  0  0  0  0  0
   -1.7040  -29.4257   18.2186 H   0  0  0  0  0  0  0  0  0  0  0  0
   -3.5512  -30.0250   19.8003 H   0  0  0  0  0  0  0  0  0  0  0  0
   -4.5436  -29.7991   18.3201 H   0  0  0  0  0  0  0  0  0  0  0  0
   -3.1854  -30.9747   18.3201 H   0  0  0  0  0  0  0  0  0  0  0  0
   -2.1919  -28.7078   20.9659 H   0  0  0  0  0  0  0  0  0  0  0  0
    0.1280  -28.9181   20.8851 H   0  0  0  0  0  0  0  0  0  0  0  0
   -2.2502  -26.3661   21.3315 H   0  0  0  0  0  0  0  0  0  0  0  0
   -0.5679  -27.8597   22.6051 H   0  0  0  0  0  0  0  0  0  0  0  0
    0.5733  -26.7665   21.8837 H   0  0  0  0  0  0  0  0  0  0  0  0
   -0.4542  -26.5126   24.2670 H   0  0  0  0  0  0  0  0  0  0  0  0
    0.2350  -25.2104   23.2395 H   0  0  0  0  0  0  0  0  0  0  0  0
   -1.5358  -25.5121   23.2395 H   0  0  0  0  0  0  0  0  0  0  0  0
    0.3800  -26.1363   19.8621 H   0  0  0  0  0  0  0  0  0  0  0  0
   -0.4202  -24.7020   21.9199 H   0  0  0  0  0  0  0  0  0  0  0  0
   -2.4666  -25.0651   19.2372 H   0  0  0  0  0  0  0  0  0  0  0  0
   -3.3733  -27.1367   15.1054 H   0  0  0  0  0  0  0  0  0  0  0  0
   -1.6367  -23.7654   14.4908 H   0  0  0  0  0  0  0  0  0  0  0  0
  1  2  1  0
  8  1  1  0
  2  3  1  0
  2  4  1  0
  4  5  1  0
  5  6  1  0
  5 23  1  6
  5 24  1  0
  6  7  1  6
  6  8  1  0
  6  9  1  0
  8 10  1  0
 11  9  1  0
 22 10  1  0
 11 12  1  0
 11 22  1  0
 12 13  1  0
 12 15  1  0
 13 14  1  0
 15 16  1  0
 15 17  1  0
 17 18  1  0
 17 20  1  0
 18 19  1  0
 20 21  1  0
 20 22  1  0
  2 25  1  6
  3 26  1  0
  3 27  1  0
  3 28  1  0
  4 29  1  0
  4 30  1  0
  7 31  1  0
  8 32  1  6
 11 33  1  6
 12 34  1  1
 13 35  1  0
 13 36  1  0
 14 37  1  0
 14 38  1  0
 14 39  1  0
 15 40  1  1
 16 41  1  0
 17 42  1  1
 18 43  1  0
 18 44  1  0
 19 45  1  0
 19 46  1  0
 19 47  1  0
 20 48  1  6
 21 49  1  0
 22 50  1  1
 23 51  1  0
 24 52  1  0
M  CHG  2  13   1  18   1
M  END
>  <filename_input>  (20) 
7UY4_SMI_docked.sdf

>  <pdb_id>  (20) 
7UY4_SMI

>  <pose_rank>  (20) 
19

>  <num_atoms_heavy>  (20) 
24

>  <num_torsions>  (20) 
2

>  <pose>  (20) 
[-2.965056733365512, -23.75014108353971, 17.477953536125888, -0.5462424031885046, -0.41839749583794794, -3.0147816770587332, 0.33832653262990675, -1.4273075807104898]

>  <energy>  (20) 
-398.0898451096881

>  <inter_energy>  (20) 
-416.9835092135376

>  <intra_energy>  (20) 
19.826588497726355

>  <rmsd>  (20) 
5.71381

>  <sdf_rank>  (20) 
0

$$$$

     RDKit          3D

 52 54  0  0  0  0  0  0  0  0999 V2000
   -3.0765  -36.5412   13.5046 O   0  0  0  0  0  0  0  0  0  0  0  0
   -3.5233  -37.6029   12.6824 C   0  0  2  0  0  0  0  0  0  0  0  0
   -3.0300  -38.9345   13.2746 C   0  0  0  0  0  0  0  0  0  0  0  0
   -2.9170  -37.4086   11.3487 C   0  0  0  0  0  0  0  0  0  0  0  0
   -3.3393  -36.0905   10.7158 C   0  0  1  0  0  0  0  0  0  0  0  0
   -3.0758  -34.9663   11.7077 C   0  0  1  0  0  0  0  0  0  0  0  0
   -3.7869  -33.8305   11.2601 O   0  0  0  0  0  0  0  0  0  0  0  0
   -3.6391  -35.2883   13.1130 C   0  0  2  0  0  0  0  0  0  0  0  0
   -1.6442  -34.7929   11.7511 O   0  0  0  0  0  0  0  0  0  0  0  0
   -3.2495  -34.2385   14.0419 O   0  0  0  0  0  0  0  0  0  0  0  0
   -1.2821  -33.8257   12.7279 C   0  0  2  0  0  0  0  0  0  0  0  0
    0.2540  -33.7696   12.8135 C   0  0  1  0  0  0  0  0  0  0  0  0
    0.7734  -33.5934   11.4712 N   0  0  0  0  0  0  0  0  0  0  0  0
    2.1802  -33.9069   11.1466 C   0  0  0  0  0  0  0  0  0  0  0  0
    0.7176  -32.7814   13.8270 C   0  0  1  0  0  0  0  0  0  0  0  0
    0.3922  -31.4604   13.4169 O   0  0  0  0  0  0  0  0  0  0  0  0
    0.0024  -33.0324   15.1608 C   0  0  1  0  0  0  0  0  0  0  0  0
    0.3128  -31.9987   16.1779 N   0  0  0  0  0  0  0  0  0  0  0  0
   -0.7540  -31.6013   17.0519 C   0  0  0  0  0  0  0  0  0  0  0  0
   -1.4607  -33.0869   15.0580 C   0  0  2  0  0  0  0  0  0  0  0  0
   -2.0342  -33.3848   16.3719 O   0  0  0  0  0  0  0  0  0  0  0  0
   -1.8683  -34.1884   14.0708 C   0  0  1  0  0  0  0  0  0  0  0  0
   -2.6650  -35.9192    9.5004 O   0  0  0  0  0  0  0  0  0  0  0  0
   -4.7191  -36.1012   10.3650 O   0  0  0  0  0  0  0  0  0  0  0  0
   -4.6211  -37.6198   12.6158 H   0  0  0  0  0  0  0  0  0  0  0  0
   -3.0511  -38.8775   14.3729 H   0  0  0  0  0  0  0  0  0  0  0  0
   -3.6854  -39.7510   12.9372 H   0  0  0  0  0  0  0  0  0  0  0  0
   -2.0009  -39.1271   12.9372 H   0  0  0  0  0  0  0  0  0  0  0  0
   -1.8219  -37.4181   11.4518 H   0  0  0  0  0  0  0  0  0  0  0  0
   -3.2629  -38.2242   10.6967 H   0  0  0  0  0  0  0  0  0  0  0  0
   -4.1099  -33.3146   12.0408 H   0  0  0  0  0  0  0  0  0  0  0  0
   -4.7377  -35.3444   13.1080 H   0  0  0  0  0  0  0  0  0  0  0  0
   -1.6774  -32.8403   12.4404 H   0  0  0  0  0  0  0  0  0  0  0  0
    0.6687  -34.7150   13.1934 H   0  0  0  0  0  0  0  0  0  0  0  0
    0.1938  -34.1807   10.8547 H   0  0  0  0  0  0  0  0  0  0  0  0
    0.7380  -32.5712   11.3497 H   0  0  0  0  0  0  0  0  0  0  0  0
    2.7518  -34.0343   12.0777 H   0  0  0  0  0  0  0  0  0  0  0  0
    2.2227  -34.8366   10.5601 H   0  0  0  0  0  0  0  0  0  0  0  0
    2.6135  -33.0833   10.5601 H   0  0  0  0  0  0  0  0  0  0  0  0
    1.8066  -32.8926   13.9347 H   0  0  0  0  0  0  0  0  0  0  0  0
    0.2522  -30.8921   14.2154 H   0  0  0  0  0  0  0  0  0  0  0  0
    0.3868  -34.0173   15.4642 H   0  0  0  0  0  0  0  0  0  0  0  0
    1.0770  -32.3613   16.7657 H   0  0  0  0  0  0  0  0  0  0  0  0
    0.5437  -31.1531   15.6370 H   0  0  0  0  0  0  0  0  0  0  0  0
   -0.4348  -31.7202   18.0978 H   0  0  0  0  0  0  0  0  0  0  0  0
   -1.0089  -30.5479   16.8638 H   0  0  0  0  0  0  0  0  0  0  0  0
   -1.6360  -32.2312   16.8638 H   0  0  0  0  0  0  0  0  0  0  0  0
   -1.8338  -32.1153   14.7019 H   0  0  0  0  0  0  0  0  0  0  0  0
   -1.4202  -33.0658   17.0800 H   0  0  0  0  0  0  0  0  0  0  0  0
   -1.4962  -35.1826   14.3589 H   0  0  0  0  0  0  0  0  0  0  0  0
   -1.7210  -35.6793    9.6776 H   0  0  0  0  0  0  0  0  0  0  0  0
   -5.2688  -36.1055   11.1883 H   0  0  0  0  0  0  0  0  0  0  0  0
  1  2  1  0
  8  1  1  0
  2  3  1  0
  2  4  1  0
  4  5  1  0
  5  6  1  0
  5 23  1  6
  5 24  1  0
  6  7  1  6
  6  8  1  0
  6  9  1  0
  8 10  1  0
 11  9  1  0
 22 10  1  0
 11 12  1  0
 11 22  1  0
 12 13  1  0
 12 15  1  0
 13 14  1  0
 15 16  1  0
 15 17  1  0
 17 18  1  0
 17 20  1  0
 18 19  1  0
 20 21  1  0
 20 22  1  0
  2 25  1  6
  3 26  1  0
  3 27  1  0
  3 28  1  0
  4 29  1  0
  4 30  1  0
  7 31  1  0
  8 32  1  6
 11 33  1  6
 12 34  1  1
 13 35  1  0
 13 36  1  0
 14 37  1  0
 14 38  1  0
 14 39  1  0
 15 40  1  1
 16 41  1  0
 17 42  1  1
 18 43  1  0
 18 44  1  0
 19 45  1  0
 19 46  1  0
 19 47  1  0
 20 48  1  6
 21 49  1  0
 22 50  1  1
 23 51  1  0
 24 52  1  0
M  CHG  2  13   1  18   1
M  END
>  <filename_input>  (21) 
7UY4_SMI_docked.sdf

>  <pdb_id>  (21) 
7UY4_SMI

>  <pose_rank>  (21) 
20

>  <num_atoms_heavy>  (21) 
24

>  <num_torsions>  (21) 
2

>  <pose>  (21) 
[-3.07647296250746, -36.54120263761846, 13.504607163544868, -0.34101581749968335, -0.036158624165921596, -0.8740125065122888, 0.4336597546711821, -2.600702889398764]

>  <energy>  (21) 
-297.3534908866606

>  <inter_energy>  (21) 
-344.92629555832673

>  <intra_energy>  (21) 
50.836270136208505

>  <rmsd>  (21) 
7.0931

>  <sdf_rank>  (21) 
0

$$$$

     RDKit          3D

 52 54  0  0  0  0  0  0  0  0999 V2000
   -0.6705  -23.5919   19.4068 O   0  0  0  0  0  0  0  0  0  0  0  0
   -0.6427  -22.2331   19.0124 C   0  0  2  0  0  0  0  0  0  0  0  0
   -1.2897  -21.3793   20.1169 C   0  0  0  0  0  0  0  0  0  0  0  0
   -1.4446  -22.1195   17.7763 C   0  0  0  0  0  0  0  0  0  0  0  0
   -0.8764  -22.9670   16.6470 C   0  0  1  0  0  0  0  0  0  0  0  0
   -0.6816  -24.3888   17.1543 C   0  0  1  0  0  0  0  0  0  0  0  0
    0.1590  -25.0556   16.2351 O   0  0  0  0  0  0  0  0  0  0  0  0
    0.0654  -24.4243   18.5095 C   0  0  2  0  0  0  0  0  0  0  0  0
   -2.0013  -24.9591   17.2755 O   0  0  0  0  0  0  0  0  0  0  0  0
    0.1109  -25.7931   19.0004 O   0  0  0  0  0  0  0  0  0  0  0  0
   -1.9382  -26.2626   17.8393 C   0  0  2  0  0  0  0  0  0  0  0  0
   -3.3752  -26.7712   18.0549 C   0  0  1  0  0  0  0  0  0  0  0  0
   -4.0999  -26.6143   16.8088 N   0  0  0  0  0  0  0  0  0  0  0  0
   -3.4883  -26.9818   15.5151 C   0  0  0  0  0  0  0  0  0  0  0  0
   -3.3971  -28.1344   18.6547 C   0  0  1  0  0  0  0  0  0  0  0  0
   -2.8763  -29.0879   17.7389 O   0  0  0  0  0  0  0  0  0  0  0  0
   -2.5036  -28.1667   19.9014 C   0  0  1  0  0  0  0  0  0  0  0  0
   -2.3686  -29.5292   20.4713 N   0  0  0  0  0  0  0  0  0  0  0  0
   -1.4062  -30.4006   19.8595 C   0  0  0  0  0  0  0  0  0  0  0  0
   -1.1395  -27.6739   19.6769 C   0  0  2  0  0  0  0  0  0  0  0  0
   -0.3957  -27.6969   20.9380 O   0  0  0  0  0  0  0  0  0  0  0  0
   -1.1908  -26.2337   19.1504 C   0  0  1  0  0  0  0  0  0  0  0  0
   -1.7248  -22.8924   15.5352 O   0  0  0  0  0  0  0  0  0  0  0  0
    0.3684  -22.4517   16.1867 O   0  0  0  0  0  0  0  0  0  0  0  0
    0.3884  -21.8884   18.8445 H   0  0  0  0  0  0  0  0  0  0  0  0
   -0.9942  -21.7692   21.1022 H   0  0  0  0  0  0  0  0  0  0  0  0
   -0.9529  -20.3367   20.0191 H   0  0  0  0  0  0  0  0  0  0  0  0
   -2.3845  -21.4217   20.0191 H   0  0  0  0  0  0  0  0  0  0  0  0
   -2.4715  -22.4522   17.9876 H   0  0  0  0  0  0  0  0  0  0  0  0
   -1.4247  -21.0679   17.4544 H   0  0  0  0  0  0  0  0  0  0  0  0
    0.8312  -25.5887   16.7291 H   0  0  0  0  0  0  0  0  0  0  0  0
    1.1007  -24.0655   18.4130 H   0  0  0  0  0  0  0  0  0  0  0  0
   -1.4004  -26.9375   17.1571 H   0  0  0  0  0  0  0  0  0  0  0  0
   -3.9042  -26.1694   18.8084 H   0  0  0  0  0  0  0  0  0  0  0  0
   -4.9572  -27.1784   16.8969 H   0  0  0  0  0  0  0  0  0  0  0  0
   -4.1920  -25.5915   16.7305 H   0  0  0  0  0  0  0  0  0  0  0  0
   -2.5580  -27.5407   15.6949 H   0  0  0  0  0  0  0  0  0  0  0  0
   -4.1882  -27.6090   14.9436 H   0  0  0  0  0  0  0  0  0  0  0  0
   -3.2631  -26.0693   14.9436 H   0  0  0  0  0  0  0  0  0  0  0  0
   -4.4398  -28.3758   18.9086 H   0  0  0  0  0  0  0  0  0  0  0  0
   -2.4669  -29.8373   18.2399 H   0  0  0  0  0  0  0  0  0  0  0  0
   -3.0278  -27.4946   20.5968 H   0  0  0  0  0  0  0  0  0  0  0  0
   -2.1085  -29.4266   21.4627 H   0  0  0  0  0  0  0  0  0  0  0  0
   -3.2799  -29.9795   20.3050 H   0  0  0  0  0  0  0  0  0  0  0  0
   -0.8326  -30.9199   20.6414 H   0  0  0  0  0  0  0  0  0  0  0  0
   -1.9270  -31.1406   19.2342 H   0  0  0  0  0  0  0  0  0  0  0  0
   -0.7213  -29.8091   19.2342 H   0  0  0  0  0  0  0  0  0  0  0  0
   -0.6396  -28.3192   18.9395 H   0  0  0  0  0  0  0  0  0  0  0  0
   -1.0315  -27.6773   21.6965 H   0  0  0  0  0  0  0  0  0  0  0  0
   -1.7083  -25.5446   19.8339 H   0  0  0  0  0  0  0  0  0  0  0  0
   -2.6628  -22.8099   15.8408 H   0  0  0  0  0  0  0  0  0  0  0  0
    0.9358  -22.2169   16.9632 H   0  0  0  0  0  0  0  0  0  0  0  0
  1  2  1  0
  8  1  1  0
  2  3  1  0
  2  4  1  0
  4  5  1  0
  5  6  1  0
  5 23  1  6
  5 24  1  0
  6  7  1  6
  6  8  1  0
  6  9  1  0
  8 10  1  0
 11  9  1  0
 22 10  1  0
 11 12  1  0
 11 22  1  0
 12 13  1  0
 12 15  1  0
 13 14  1  0
 15 16  1  0
 15 17  1  0
 17 18  1  0
 17 20  1  0
 18 19  1  0
 20 21  1  0
 20 22  1  0
  2 25  1  6
  3 26  1  0
  3 27  1  0
  3 28  1  0
  4 29  1  0
  4 30  1  0
  7 31  1  0
  8 32  1  6
 11 33  1  6
 12 34  1  1
 13 35  1  0
 13 36  1  0
 14 37  1  0
 14 38  1  0
 14 39  1  0
 15 40  1  1
 16 41  1  0
 17 42  1  1
 18 43  1  0
 18 44  1  0
 19 45  1  0
 19 46  1  0
 19 47  1  0
 20 48  1  6
 21 49  1  0
 22 50  1  1
 23 51  1  0
 24 52  1  0
M  CHG  2  13   1  18   1
M  END
>  <filename_input>  (22) 
7UY4_SMI_docked.sdf

>  <pdb_id>  (22) 
7UY4_SMI

>  <pose_rank>  (22) 
21

>  <num_atoms_heavy>  (22) 
24

>  <num_torsions>  (22) 
2

>  <pose>  (22) 
[-0.6704742435175087, -23.591899771593262, 19.406822375143843, -0.7348767483668002, 1.1481261579479085, -3.5023138391498088, -2.2746729674735797, -3.6683332010101433]

>  <energy>  (22) 
-393.80265775867423

>  <inter_energy>  (22) 
-430.5089157901769

>  <intra_energy>  (22) 
38.34325428895624

>  <rmsd>  (22) 
6.39086

>  <sdf_rank>  (22) 
0

$$$$

     RDKit          3D

 52 54  0  0  0  0  0  0  0  0999 V2000
  -10.6497  -35.2511   22.3764 O   0  0  0  0  0  0  0  0  0  0  0  0
  -10.5721  -35.4658   23.7731 C   0  0  2  0  0  0  0  0  0  0  0  0
  -10.0350  -34.1901   24.4452 C   0  0  0  0  0  0  0  0  0  0  0  0
   -9.6169  -36.5717   23.9936 C   0  0  0  0  0  0  0  0  0  0  0  0
  -10.0725  -37.8614   23.3264 C   0  0  1  0  0  0  0  0  0  0  0  0
  -10.3876  -37.5705   21.8659 C   0  0  1  0  0  0  0  0  0  0  0  0
  -11.1322  -38.6626   21.3670 O   0  0  0  0  0  0  0  0  0  0  0  0
  -11.3001  -36.3306   21.7048 C   0  0  2  0  0  0  0  0  0  0  0  0
   -9.1181  -37.3675   21.2112 O   0  0  0  0  0  0  0  0  0  0  0  0
  -11.4629  -36.0310   20.2905 O   0  0  0  0  0  0  0  0  0  0  0  0
   -9.3047  -36.9898   19.8536 C   0  0  2  0  0  0  0  0  0  0  0  0
   -7.9283  -36.6718   19.2416 C   0  0  1  0  0  0  0  0  0  0  0  0
   -7.0467  -37.7911   19.5107 N   0  0  0  0  0  0  0  0  0  0  0  0
   -7.5320  -39.1845   19.4344 C   0  0  0  0  0  0  0  0  0  0  0  0
   -8.0378  -36.2562   17.8155 C   0  0  1  0  0  0  0  0  0  0  0  0
   -8.4777  -37.3440   17.0140 O   0  0  0  0  0  0  0  0  0  0  0  0
   -9.0817  -35.1403   17.6793 C   0  0  1  0  0  0  0  0  0  0  0  0
   -9.3429  -34.7728   16.2665 N   0  0  0  0  0  0  0  0  0  0  0  0
   -8.2030  -34.6407   15.4045 C   0  0  0  0  0  0  0  0  0  0  0  0
  -10.3854  -35.4604   18.2725 C   0  0  2  0  0  0  0  0  0  0  0  0
  -11.2824  -34.3112   18.1353 O   0  0  0  0  0  0  0  0  0  0  0  0
  -10.2095  -35.7850   19.7617 C   0  0  1  0  0  0  0  0  0  0  0  0
   -9.0886  -38.8445   23.4903 O   0  0  0  0  0  0  0  0  0  0  0  0
  -11.2274  -38.3964   23.9644 O   0  0  0  0  0  0  0  0  0  0  0  0
  -11.5588  -35.7096   24.1937 H   0  0  0  0  0  0  0  0  0  0  0  0
  -10.0828  -34.3036   25.5382 H   0  0  0  0  0  0  0  0  0  0  0  0
   -8.9913  -34.0259   24.1388 H   0  0  0  0  0  0  0  0  0  0  0  0
  -10.6469  -33.3289   24.1388 H   0  0  0  0  0  0  0  0  0  0  0  0
   -8.6392  -36.2841   23.5797 H   0  0  0  0  0  0  0  0  0  0  0  0
   -9.5531  -36.7540   25.0765 H   0  0  0  0  0  0  0  0  0  0  0  0
  -11.4918  -39.1900   22.1238 H   0  0  0  0  0  0  0  0  0  0  0  0
  -12.2995  -36.5029   22.1308 H   0  0  0  0  0  0  0  0  0  0  0  0
   -9.7795  -37.8134   19.3001 H   0  0  0  0  0  0  0  0  0  0  0  0
   -7.4743  -35.7885   19.7144 H   0  0  0  0  0  0  0  0  0  0  0  0
   -6.2677  -37.7165   18.8410 H   0  0  0  0  0  0  0  0  0  0  0  0
   -6.8429  -37.6795   20.5141 H   0  0  0  0  0  0  0  0  0  0  0  0
   -7.6701  -39.5809   20.4511 H   0  0  0  0  0  0  0  0  0  0  0  0
   -8.4918  -39.2096   18.8976 H   0  0  0  0  0  0  0  0  0  0  0  0
   -6.7955  -39.8004   18.8976 H   0  0  0  0  0  0  0  0  0  0  0  0
   -7.0461  -35.9130   17.4858 H   0  0  0  0  0  0  0  0  0  0  0  0
   -8.7771  -38.0847   17.5986 H   0  0  0  0  0  0  0  0  0  0  0  0
   -8.6223  -34.3057   18.2292 H   0  0  0  0  0  0  0  0  0  0  0  0
   -9.9534  -35.4986   15.8647 H   0  0  0  0  0  0  0  0  0  0  0  0
   -9.7566  -33.8304   16.3080 H   0  0  0  0  0  0  0  0  0  0  0  0
   -7.2931  -34.5352   16.0135 H   0  0  0  0  0  0  0  0  0  0  0  0
   -8.1177  -35.5349   14.7697 H   0  0  0  0  0  0  0  0  0  0  0  0
   -8.3245  -33.7506   14.7697 H   0  0  0  0  0  0  0  0  0  0  0  0
  -10.8144  -36.3299   17.7531 H   0  0  0  0  0  0  0  0  0  0  0  0
  -11.5384  -33.9832   19.0337 H   0  0  0  0  0  0  0  0  0  0  0  0
   -9.7544  -34.9606   20.3302 H   0  0  0  0  0  0  0  0  0  0  0  0
   -8.9340  -38.9989   24.4559 H   0  0  0  0  0  0  0  0  0  0  0  0
  -11.1156  -38.3446   24.9467 H   0  0  0  0  0  0  0  0  0  0  0  0
  1  2  1  0
  8  1  1  0
  2  3  1  0
  2  4  1  0
  4  5  1  0
  5  6  1  0
  5 23  1  6
  5 24  1  0
  6  7  1  6
  6  8  1  0
  6  9  1  0
  8 10  1  0
 11  9  1  0
 22 10  1  0
 11 12  1  0
 11 22  1  0
 12 13  1  0
 12 15  1  0
 13 14  1  0
 15 16  1  0
 15 17  1  0
 17 18  1  0
 17 20  1  0
 18 19  1  0
 20 21  1  0
 20 22  1  0
  2 25  1  1
  3 26  1  0
  3 27  1  0
  3 28  1  0
  4 29  1  0
  4 30  1  0
  7 31  1  0
  8 32  1  1
 11 33  1  6
 12 34  1  1
 13 35  1  0
 13 36  1  0
 14 37  1  0
 14 38  1  0
 14 39  1  0
 15 40  1  6
 16 41  1  0
 17 42  1  1
 18 43  1  0
 18 44  1  0
 19 45  1  0
 19 46  1  0
 19 47  1  0
 20 48  1  6
 21 49  1  0
 22 50  1  1
 23 51  1  0
 24 52  1  0
M  CHG  2  13   1  18   1
M  END
>  <filename_input>  (23) 
7UY4_SMI_docked.sdf

>  <pdb_id>  (23) 
7UY4_SMI

>  <pose_rank>  (23) 
22

>  <num_atoms_heavy>  (23) 
24

>  <num_torsions>  (23) 
2

>  <pose>  (23) 
[-10.649663985335916, -35.25108021349815, 22.376430343752798, 3.5536765456138437, 1.6595107520146974, 0.05924827493926162, -2.3510306265618, -5.855888367304523]

>  <energy>  (23) 
-102.22399775220225

>  <inter_energy>  (23) 
-126.6114775364034

>  <intra_energy>  (23) 
21.995936390710977

>  <rmsd>  (23) 
12.5148

>  <sdf_rank>  (23) 
0

$$$$

     RDKit          3D

 52 54  0  0  0  0  0  0  0  0999 V2000
  -10.2404  -34.2467   23.9708 O   0  0  0  0  0  0  0  0  0  0  0  0
  -10.0369  -33.6083   25.2172 C   0  0  2  0  0  0  0  0  0  0  0  0
   -9.2288  -32.3185   24.9914 C   0  0  0  0  0  0  0  0  0  0  0  0
   -9.2516  -34.5339   26.0601 C   0  0  0  0  0  0  0  0  0  0  0  0
   -9.9814  -35.8479   26.2986 C   0  0  1  0  0  0  0  0  0  0  0  0
  -10.4129  -36.4173   24.9545 C   0  0  1  0  0  0  0  0  0  0  0  0
  -11.3751  -37.4203   25.2081 O   0  0  0  0  0  0  0  0  0  0  0  0
  -11.1282  -35.3602   24.0789 C   0  0  2  0  0  0  0  0  0  0  0  0
   -9.2118  -36.8939   24.3130 O   0  0  0  0  0  0  0  0  0  0  0  0
  -11.4037  -35.9257   22.7671 O   0  0  0  0  0  0  0  0  0  0  0  0
   -9.4917  -37.3601   22.9996 C   0  0  2  0  0  0  0  0  0  0  0  0
   -8.1624  -37.7425   22.3236 C   0  0  1  0  0  0  0  0  0  0  0  0
   -7.4457  -38.6355   23.2132 N   0  0  0  0  0  0  0  0  0  0  0  0
   -6.1896  -39.2902   22.7931 C   0  0  0  0  0  0  0  0  0  0  0  0
   -8.3685  -38.2345   20.9330 C   0  0  1  0  0  0  0  0  0  0  0  0
   -9.0662  -39.4723   20.9429 O   0  0  0  0  0  0  0  0  0  0  0  0
   -9.2294  -37.2339   20.1512 C   0  0  1  0  0  0  0  0  0  0  0  0
   -9.5905  -37.7259   18.7996 N   0  0  0  0  0  0  0  0  0  0  0  0
   -8.5185  -38.1897   17.9655 C   0  0  0  0  0  0  0  0  0  0  0  0
  -10.4900  -36.8786   20.8137 C   0  0  2  0  0  0  0  0  0  0  0  0
  -11.2017  -35.8814   20.0116 O   0  0  0  0  0  0  0  0  0  0  0  0
  -10.1969  -36.2913   22.2005 C   0  0  1  0  0  0  0  0  0  0  0  0
   -9.1548  -36.7162   27.0225 O   0  0  0  0  0  0  0  0  0  0  0  0
  -11.1252  -35.6641   27.1262 O   0  0  0  0  0  0  0  0  0  0  0  0
  -10.9945  -33.3573   25.6968 H   0  0  0  0  0  0  0  0  0  0  0  0
   -8.9555  -31.8822   25.9635 H   0  0  0  0  0  0  0  0  0  0  0  0
   -8.3156  -32.5525   24.4247 H   0  0  0  0  0  0  0  0  0  0  0  0
   -9.8378  -31.5988   24.4247 H   0  0  0  0  0  0  0  0  0  0  0  0
   -8.2951  -34.7449   25.5596 H   0  0  0  0  0  0  0  0  0  0  0  0
   -9.0928  -34.0520   27.0361 H   0  0  0  0  0  0  0  0  0  0  0  0
  -11.4839  -37.5337   26.1856 H   0  0  0  0  0  0  0  0  0  0  0  0
  -12.0861  -35.0473   24.5199 H   0  0  0  0  0  0  0  0  0  0  0  0
  -10.1527  -38.2380   23.0493 H   0  0  0  0  0  0  0  0  0  0  0  0
   -7.5215  -36.8612   22.1735 H   0  0  0  0  0  0  0  0  0  0  0  0
   -7.2217  -38.0889   24.0570 H   0  0  0  0  0  0  0  0  0  0  0  0
   -8.0940  -39.4309   23.3022 H   0  0  0  0  0  0  0  0  0  0  0  0
   -5.6164  -39.5890   23.6831 H   0  0  0  0  0  0  0  0  0  0  0  0
   -6.4238  -40.1810   22.1917 H   0  0  0  0  0  0  0  0  0  0  0  0
   -5.5935  -38.5881   22.1917 H   0  0  0  0  0  0  0  0  0  0  0  0
   -7.3796  -38.3551   20.4665 H   0  0  0  0  0  0  0  0  0  0  0  0
   -9.2251  -39.7541   21.8785 H   0  0  0  0  0  0  0  0  0  0  0  0
   -8.5821  -36.3465   20.0920 H   0  0  0  0  0  0  0  0  0  0  0  0
  -10.2507  -38.5072   18.9197 H   0  0  0  0  0  0  0  0  0  0  0  0
   -9.9731  -36.9044   18.3100 H   0  0  0  0  0  0  0  0  0  0  0  0
   -7.6915  -38.5476   18.5964 H   0  0  0  0  0  0  0  0  0  0  0  0
   -8.8779  -39.0129   17.3304 H   0  0  0  0  0  0  0  0  0  0  0  0
   -8.1645  -37.3643   17.3304 H   0  0  0  0  0  0  0  0  0  0  0  0
  -11.1096  -37.7814   20.9183 H   0  0  0  0  0  0  0  0  0  0  0  0
  -11.6592  -35.2406   20.6118 H   0  0  0  0  0  0  0  0  0  0  0  0
   -9.5533  -35.4000   22.1623 H   0  0  0  0  0  0  0  0  0  0  0  0
   -9.2928  -36.5713   27.9921 H   0  0  0  0  0  0  0  0  0  0  0  0
  -10.8545  -35.7076   28.0775 H   0  0  0  0  0  0  0  0  0  0  0  0
  1  2  1  0
  8  1  1  0
  2  3  1  0
  2  4  1  0
  4  5  1  0
  5  6  1  0
  5 23  1  1
  5 24  1  0
  6  7  1  1
  6  8  1  0
  6  9  1  0
  8 10  1  0
 11  9  1  0
 22 10  1  0
 11 12  1  0
 11 22  1  0
 12 13  1  0
 12 15  1  0
 13 14  1  0
 15 16  1  0
 15 17  1  0
 17 18  1  0
 17 20  1  0
 18 19  1  0
 20 21  1  0
 20 22  1  0
  2 25  1  1
  3 26  1  0
  3 27  1  0
  3 28  1  0
  4 29  1  0
  4 30  1  0
  7 31  1  0
  8 32  1  1
 11 33  1  1
 12 34  1  6
 13 35  1  0
 13 36  1  0
 14 37  1  0
 14 38  1  0
 14 39  1  0
 15 40  1  6
 16 41  1  0
 17 42  1  6
 18 43  1  0
 18 44  1  0
 19 45  1  0
 19 46  1  0
 19 47  1  0
 20 48  1  1
 21 49  1  0
 22 50  1  6
 23 51  1  0
 24 52  1  0
M  CHG  2  13   1  18   1
M  END
>  <filename_input>  (24) 
7UY4_SMI_docked.sdf

>  <pdb_id>  (24) 
7UY4_SMI

>  <pose_rank>  (24) 
23

>  <num_atoms_heavy>  (24) 
24

>  <num_torsions>  (24) 
2

>  <pose>  (24) 
[-10.240400226191438, -34.246746846777135, 23.9707542147574, -2.7928425736654496, -0.834199634017933, 0.2915217958245006, -0.0035281509584341522, 0.28510255880454505]

>  <energy>  (24) 
-118.21980401266963

>  <inter_energy>  (24) 
-117.10793818024175

>  <intra_energy>  (24) 
3.8412873444097366

>  <rmsd>  (24) 
13.6411

>  <sdf_rank>  (24) 
0

$$$$

     RDKit          3D

 52 54  0  0  0  0  0  0  0  0999 V2000
   -9.8946  -30.1157   27.0200 O   0  0  0  0  0  0  0  0  0  0  0  0
   -9.7281  -28.7126   26.9397 C   0  0  2  0  0  0  0  0  0  0  0  0
  -10.9772  -28.0275   27.5209 C   0  0  0  0  0  0  0  0  0  0  0  0
   -9.6049  -28.3676   25.5080 C   0  0  0  0  0  0  0  0  0  0  0  0
   -8.4029  -29.0394   24.8599 C   0  0  1  0  0  0  0  0  0  0  0  0
   -8.4597  -30.5316   25.1553 C   0  0  1  0  0  0  0  0  0  0  0  0
   -7.1861  -31.0701   24.8651 O   0  0  0  0  0  0  0  0  0  0  0  0
   -8.7048  -30.8171   26.6568 C   0  0  2  0  0  0  0  0  0  0  0  0
   -9.5290  -31.0635   24.3459 O   0  0  0  0  0  0  0  0  0  0  0  0
   -8.8725  -32.2485   26.8553 O   0  0  0  0  0  0  0  0  0  0  0  0
   -9.7325  -32.4431   24.6214 C   0  0  2  0  0  0  0  0  0  0  0  0
  -10.9564  -32.9254   23.8216 C   0  0  1  0  0  0  0  0  0  0  0  0
  -10.7696  -32.5389   22.4365 N   0  0  0  0  0  0  0  0  0  0  0  0
  -11.4358  -31.3445   21.8777 C   0  0  0  0  0  0  0  0  0  0  0  0
  -11.2444  -34.3666   24.0633 C   0  0  1  0  0  0  0  0  0  0  0  0
  -10.2033  -35.1761   23.5343 O   0  0  0  0  0  0  0  0  0  0  0  0
  -11.3081  -34.6367   25.5720 C   0  0  1  0  0  0  0  0  0  0  0  0
  -11.4546  -36.0783   25.8879 N   0  0  0  0  0  0  0  0  0  0  0  0
  -10.2676  -36.8832   25.8313 C   0  0  0  0  0  0  0  0  0  0  0  0
  -10.1347  -34.1659   26.3175 C   0  0  2  0  0  0  0  0  0  0  0  0
  -10.3253  -34.4235   27.7463 O   0  0  0  0  0  0  0  0  0  0  0  0
   -9.9548  -32.6580   26.0988 C   0  0  1  0  0  0  0  0  0  0  0  0
   -8.3899  -28.7515   23.4894 O   0  0  0  0  0  0  0  0  0  0  0  0
   -7.1797  -28.5034   25.3532 O   0  0  0  0  0  0  0  0  0  0  0  0
   -8.8403  -28.3845   27.5002 H   0  0  0  0  0  0  0  0  0  0  0  0
  -10.9314  -28.0526   28.6196 H   0  0  0  0  0  0  0  0  0  0  0  0
  -11.0147  -26.9826   27.1792 H   0  0  0  0  0  0  0  0  0  0  0  0
  -11.8785  -28.5575   27.1792 H   0  0  0  0  0  0  0  0  0  0  0  0
  -10.5171  -28.6912   24.9852 H   0  0  0  0  0  0  0  0  0  0  0  0
   -9.4670  -27.2790   25.4319 H   0  0  0  0  0  0  0  0  0  0  0  0
   -6.7120  -31.2705   25.7108 H   0  0  0  0  0  0  0  0  0  0  0  0
   -7.8586  -30.4868   27.2772 H   0  0  0  0  0  0  0  0  0  0  0  0
   -8.8419  -33.0170   24.3255 H   0  0  0  0  0  0  0  0  0  0  0  0
  -11.8787  -32.4355   24.1669 H   0  0  0  0  0  0  0  0  0  0  0  0
   -9.7578  -32.3958   22.3075 H   0  0  0  0  0  0  0  0  0  0  0  0
  -11.2249  -33.3088   21.9258 H   0  0  0  0  0  0  0  0  0  0  0  0
  -11.7922  -30.7054   22.6991 H   0  0  0  0  0  0  0  0  0  0  0  0
  -10.7212  -30.7818   21.2590 H   0  0  0  0  0  0  0  0  0  0  0  0
  -12.2900  -31.6568   21.2590 H   0  0  0  0  0  0  0  0  0  0  0  0
  -12.2017  -34.6066   23.5774 H   0  0  0  0  0  0  0  0  0  0  0  0
   -9.6872  -35.5774   24.2778 H   0  0  0  0  0  0  0  0  0  0  0  0
  -12.1958  -34.0682   25.8862 H   0  0  0  0  0  0  0  0  0  0  0  0
  -11.8330  -36.1499   26.8432 H   0  0  0  0  0  0  0  0  0  0  0  0
  -12.0662  -36.4526   25.1484 H   0  0  0  0  0  0  0  0  0  0  0  0
   -9.9306  -37.1117   26.8531 H   0  0  0  0  0  0  0  0  0  0  0  0
  -10.4854  -37.8207   25.2987 H   0  0  0  0  0  0  0  0  0  0  0  0
   -9.4772  -36.3340   25.2987 H   0  0  0  0  0  0  0  0  0  0  0  0
   -9.2420  -34.7001   25.9601 H   0  0  0  0  0  0  0  0  0  0  0  0
   -9.8265  -33.7495   28.2726 H   0  0  0  0  0  0  0  0  0  0  0  0
  -10.8313  -32.0711   26.4105 H   0  0  0  0  0  0  0  0  0  0  0  0
   -8.3458  -27.7711   23.3586 H   0  0  0  0  0  0  0  0  0  0  0  0
   -7.1924  -28.5090   26.3431 H   0  0  0  0  0  0  0  0  0  0  0  0
  1  2  1  0
  8  1  1  0
  2  3  1  0
  2  4  1  0
  4  5  1  0
  5  6  1  0
  5 23  1  6
  5 24  1  0
  6  7  1  6
  6  8  1  0
  6  9  1  0
  8 10  1  0
 11  9  1  0
 22 10  1  0
 11 12  1  0
 11 22  1  0
 12 13  1  0
 12 15  1  0
 13 14  1  0
 15 16  1  0
 15 17  1  0
 17 18  1  0
 17 20  1  0
 18 19  1  0
 20 21  1  0
 20 22  1  0
  2 25  1  1
  3 26  1  0
  3 27  1  0
  3 28  1  0
  4 29  1  0
  4 30  1  0
  7 31  1  0
  8 32  1  1
 11 33  1  6
 12 34  1  1
 13 35  1  0
 13 36  1  0
 14 37  1  0
 14 38  1  0
 14 39  1  0
 15 40  1  6
 16 41  1  0
 17 42  1  1
 18 43  1  0
 18 44  1  0
 19 45  1  0
 19 46  1  0
 19 47  1  0
 20 48  1  6
 21 49  1  0
 22 50  1  1
 23 51  1  0
 24 52  1  0
M  CHG  2  13   1  18   1
M  END
>  <filename_input>  (25) 
7UY4_SMI_docked.sdf

>  <pdb_id>  (25) 
7UY4_SMI

>  <pose_rank>  (25) 
24

>  <num_atoms_heavy>  (25) 
24

>  <num_torsions>  (25) 
2

>  <pose>  (25) 
[-9.894627895693302, -30.115659312403267, 27.0199747736875, -0.2495662793736882, -1.2703639708042045, 2.490791111402099, 1.5014217983449283, 2.576358651388775]

>  <energy>  (25) 
135.95283045228837

>  <inter_energy>  (25) 
113.40097224462556

>  <intra_energy>  (25) 
29.871859259443013

>  <rmsd>  (25) 
12.8055

>  <sdf_rank>  (25) 
0

$$$$

     RDKit          3D

 52 54  0  0  0  0  0  0  0  0999 V2000
   -0.8150  -31.9120   17.1880 O   0  0  0  0  0  0  0  0  0  0  0  0
   -0.4510  -32.6490   16.0360 C   0  0  2  0  0  0  0  0  0  0  0  0
    0.9600  -33.2280   16.2390 C   0  0  0  0  0  0  0  0  0  0  0  0
   -0.4310  -31.7040   14.9000 C   0  0  0  0  0  0  0  0  0  0  0  0
   -1.7930  -31.0680   14.6620 C   0  0  1  0  0  0  0  0  0  0  0  0
   -2.2930  -30.4800   15.9740 C   0  0  1  0  0  0  0  0  0  0  0  0
   -3.6740  -30.2220   15.8240 O   0  0  0  0  0  0  0  0  0  0  0  0
   -2.1780  -31.4880   17.1430 C   0  0  2  0  0  0  0  0  0  0  0  0
   -1.4920  -29.3060   16.2220 O   0  0  0  0  0  0  0  0  0  0  0  0
   -2.5520  -30.8310   18.3860 O   0  0  0  0  0  0  0  0  0  0  0  0
   -1.8140  -28.7320   17.4820 C   0  0  2  0  0  0  0  0  0  0  0  0
   -0.8510  -27.5600   17.7450 C   0  0  1  0  0  0  0  0  0  0  0  0
   -0.8750  -26.6890   16.5860 N   0  0  0  0  0  0  0  0  0  0  0  0
   -0.1530  -25.4000   16.5810 C   0  0  0  0  0  0  0  0  0  0  0  0
   -1.1170  -26.9070   19.0570 C   0  0  1  0  0  0  0  0  0  0  0  0
   -2.3810  -26.2580   19.0410 O   0  0  0  0  0  0  0  0  0  0  0  0
   -1.1650  -27.9680   20.1640 C   0  0  1  0  0  0  0  0  0  0  0  0
   -1.5630  -27.4050   21.4770 N   0  0  0  0  0  0  0  0  0  0  0  0
   -0.6370  -26.5110   22.1120 C   0  0  0  0  0  0  0  0  0  0  0  0
   -2.0850  -29.0790   19.8930 C   0  0  2  0  0  0  0  0  0  0  0  0
   -2.0100  -30.0550   20.9820 O   0  0  0  0  0  0  0  0  0  0  0  0
   -1.6940  -29.7640   18.5770 C   0  0  1  0  0  0  0  0  0  0  0  0
   -1.6920  -30.1180   13.6380 O   0  0  0  0  0  0  0  0  0  0  0  0
   -2.7340  -32.0210   14.1790 O   0  0  0  0  0  0  0  0  0  0  0  0
   -1.1574  -33.4714   15.8500 H   0  0  0  0  0  0  0  0  0  0  0  0
    1.1697  -33.3140   17.3154 H   0  0  0  0  0  0  0  0  0  0  0  0
    1.0186  -34.2229   15.7734 H   0  0  0  0  0  0  0  0  0  0  0  0
    1.7005  -32.5610   15.7734 H   0  0  0  0  0  0  0  0  0  0  0  0
    0.2996  -30.9095   15.1121 H   0  0  0  0  0  0  0  0  0  0  0  0
   -0.1565  -32.2666   13.9955 H   0  0  0  0  0  0  0  0  0  0  0  0
   -4.0940  -30.1435   16.7171 H   0  0  0  0  0  0  0  0  0  0  0  0
   -2.8453  -32.3512   17.0031 H   0  0  0  0  0  0  0  0  0  0  0  0
   -2.8521  -28.3685   17.4710 H   0  0  0  0  0  0  0  0  0  0  0  0
    0.1854  -27.9109   17.8578 H   0  0  0  0  0  0  0  0  0  0  0  0
   -0.4973  -27.2380   15.8006 H   0  0  0  0  0  0  0  0  0  0  0  0
   -1.8610  -26.3936   16.5482 H   0  0  0  0  0  0  0  0  0  0  0  0
    0.0279  -25.0770   17.6169 H   0  0  0  0  0  0  0  0  0  0  0  0
    0.8089  -25.5205   16.0612 H   0  0  0  0  0  0  0  0  0  0  0  0
   -0.7583  -24.6427   16.0612 H   0  0  0  0  0  0  0  0  0  0  0  0
   -0.3138  -26.1784   19.2415 H   0  0  0  0  0  0  0  0  0  0  0  0
   -2.6839  -26.1025   19.9706 H   0  0  0  0  0  0  0  0  0  0  0  0
   -0.1315  -28.3440   20.1890 H   0  0  0  0  0  0  0  0  0  0  0  0
   -2.4456  -26.8920   21.3401 H   0  0  0  0  0  0  0  0  0  0  0  0
   -1.6251  -28.2170   22.1077 H   0  0  0  0  0  0  0  0  0  0  0  0
   -0.7305  -26.6013   23.2043 H   0  0  0  0  0  0  0  0  0  0  0  0
    0.3884  -26.7694   21.8092 H   0  0  0  0  0  0  0  0  0  0  0  0
   -0.8592  -25.4771   21.8092 H   0  0  0  0  0  0  0  0  0  0  0  0
   -3.1101  -28.6878   19.8154 H   0  0  0  0  0  0  0  0  0  0  0  0
   -2.0463  -29.5828   21.8514 H   0  0  0  0  0  0  0  0  0  0  0  0
   -0.6641  -30.1504   18.5833 H   0  0  0  0  0  0  0  0  0  0  0  0
   -1.5961  -29.2155   14.0334 H   0  0  0  0  0  0  0  0  0  0  0  0
   -3.1746  -32.4672   14.9451 H   0  0  0  0  0  0  0  0  0  0  0  0
  1  2  1  0
  8  1  1  0
  2  3  1  0
  2  4  1  0
  4  5  1  0
  5  6  1  0
  5 23  1  6
  5 24  1  0
  6  7  1  6
  6  8  1  0
  6  9  1  0
  8 10  1  0
 11  9  1  0
 22 10  1  0
 11 12  1  0
 11 22  1  0
 12 13  1  0
 12 15  1  0
 13 14  1  0
 15 16  1  0
 15 17  1  0
 17 18  1  0
 17 20  1  0
 18 19  1  0
 20 21  1  0
 20 22  1  0
  2 25  1  6
  3 26  1  0
  3 27  1  0
  3 28  1  0
  4 29  1  0
  4 30  1  0
  7 31  1  0
  8 32  1  6
 11 33  1  6
 12 34  1  1
 13 35  1  0
 13 36  1  0
 14 37  1  0
 14 38  1  0
 14 39  1  0
 15 40  1  1
 16 41  1  0
 17 42  1  1
 18 43  1  0
 18 44  1  0
 19 45  1  0
 19 46  1  0
 19 47  1  0
 20 48  1  6
 21 49  1  0
 22 50  1  1
 23 51  1  0
 24 52  1  0
M  CHG  2  13   1  18   1
M  END
>  <filename_input>  (26) 
7UY4_SMI_docked.sdf

>  <pdb_id>  (26) 
7UY4_SMI

>  <pose_rank>  (26) 
25

>  <num_atoms_heavy>  (26) 
24

>  <num_torsions>  (26) 
2

>  <pose>  (26) 
[-0.815, -31.912, 17.188, 1e-06, 1e-06, 1e-06, 0.0, 0.0]

>  <energy>  (26) 
-525.6254721309597

>  <inter_energy>  (26) 
-522.7728954274255

>  <intra_energy>  (26) 
0.992151375473485

>  <rmsd>  (26) 
0.0

>  <sdf_rank>  (26) 
0

$$$$
