
     RDKit          3D

 53 58  0  0  0  0  0  0  0  0999 V2000
   29.8869    5.9592   -4.9201 C   0  0  0  0  0  0  0  0  0  0  0  0
   30.6534    5.9916   -6.0856 C   0  0  0  0  0  0  0  0  0  0  0  0
   31.6447    5.0328   -6.3098 C   0  0  0  0  0  0  0  0  0  0  0  0
   31.8512    4.0481   -5.3520 C   0  0  0  0  0  0  0  0  0  0  0  0
   32.8698    2.9601   -5.4761 C   0  0  1  0  0  0  0  0  0  0  0  0
   34.0478    1.4066   -6.9494 C   0  0  1  0  0  0  0  0  0  0  0  0
   35.7256    3.0970   -3.3280 C   0  0  0  0  0  0  0  0  0  0  0  0
   38.0572    2.4302   -0.3293 C   0  0  0  0  0  0  0  0  0  0  0  0
   27.5036    6.4832   -4.7426 C   0  0  0  0  0  0  0  0  0  0  0  0
   26.4393    7.3487   -4.4859 C   0  0  0  0  0  0  0  0  0  0  0  0
   26.6658    8.6793   -4.1313 C   0  0  0  0  0  0  0  0  0  0  0  0
   33.7390    0.3080   -7.9309 C   0  0  0  0  0  0  0  0  0  0  0  0
   34.9324    1.1985   -8.1528 C   0  0  0  0  0  0  0  0  0  0  0  0
   34.5345    2.5028   -3.6959 C   0  0  0  0  0  0  0  0  0  0  0  0
   35.8897    4.1678   -4.2284 C   0  0  0  0  0  0  0  0  0  0  0  0
   36.5601    2.6784   -2.2073 C   0  0  0  0  0  0  0  0  0  0  0  0
   36.6045    1.4241   -1.6376 C   0  0  0  0  0  0  0  0  0  0  0  0
   28.8232    6.9227   -4.6439 C   0  0  0  0  0  0  0  0  0  0  0  0
   27.9842    9.1340   -4.0406 C   0  0  0  0  0  0  0  0  0  0  0  0
   30.1505    4.9424   -4.0112 C   0  0  0  0  0  0  0  0  0  0  0  0
   29.0471    8.2595   -4.2953 C   0  0  0  0  0  0  0  0  0  0  0  0
   30.8146    9.8420   -4.9438 C   0  0  0  0  0  0  0  0  0  0  0  0
   33.1763    2.6087   -6.9126 C   0  0  0  0  0  0  0  0  0  0  0  0
   27.2819    5.2003   -5.0769 F   0  0  0  0  0  0  0  0  0  0  0  0
   34.0953    3.2332   -4.7579 N   0  0  0  0  0  0  0  0  0  0  0  0
   34.8873    4.2576   -5.1097 N   0  0  0  0  0  0  0  0  0  0  0  0
   31.1090    4.0284   -4.2344 N   0  0  0  0  0  0  0  0  0  0  0  0
   37.4667    1.2804   -0.5686 N   0  0  0  0  0  0  0  0  0  0  0  0
   30.3345    8.7902   -4.2320 N   0  0  0  0  0  0  0  0  0  0  0  0
   32.0753   10.0209   -4.6149 N   0  0  0  0  0  0  0  0  0  0  0  0
   32.3512    9.0486   -3.6825 N   0  0  0  0  0  0  0  0  0  0  0  0
   31.2901    8.2867   -3.4443 N   0  0  0  0  0  0  0  0  0  0  0  0
   31.2984    3.1232   -3.3849 O   0  0  0  0  0  0  0  0  0  0  0  0
   37.6299    3.7297   -1.3679 S   0  0  0  0  0  0  0  0  0  0  0  0
   24.8142    6.7864   -4.6076 Cl  0  0  0  0  0  0  0  0  0  0  0  0
   30.4758    6.7781   -6.8339 H   0  0  0  0  0  0  0  0  0  0  0  0
   32.2504    5.0574   -7.2277 H   0  0  0  0  0  0  0  0  0  0  0  0
   32.3983    2.0870   -5.0013 H   0  0  0  0  0  0  0  0  0  0  0  0
   34.2046    1.4513   -5.8615 H   0  0  0  0  0  0  0  0  0  0  0  0
   38.7826    2.5530    0.4884 H   0  0  0  0  0  0  0  0  0  0  0  0
   25.8235    9.3568   -3.9273 H   0  0  0  0  0  0  0  0  0  0  0  0
   33.8839   -0.7436   -7.6424 H   0  0  0  0  0  0  0  0  0  0  0  0
   32.8598    0.0236   -8.5277 H   0  0  0  0  0  0  0  0  0  0  0  0
   34.9269    1.9315   -8.9729 H   0  0  0  0  0  0  0  0  0  0  0  0
   36.0087    1.0330   -8.3082 H   0  0  0  0  0  0  0  0  0  0  0  0
   34.0479    1.6316   -3.2330 H   0  0  0  0  0  0  0  0  0  0  0  0
   36.7483    4.8551   -4.2089 H   0  0  0  0  0  0  0  0  0  0  0  0
   35.9918    0.5903   -2.0109 H   0  0  0  0  0  0  0  0  0  0  0  0
   28.1869   10.1804   -3.7686 H   0  0  0  0  0  0  0  0  0  0  0  0
   29.5593    4.8843   -3.0854 H   0  0  0  0  0  0  0  0  0  0  0  0
   30.2467   10.4414   -5.6706 H   0  0  0  0  0  0  0  0  0  0  0  0
   32.2384    2.3990   -7.4476 H   0  0  0  0  0  0  0  0  0  0  0  0
   33.6914    3.4519   -7.3960 H   0  0  0  0  0  0  0  0  0  0  0  0
  1  2  2  0
  1 18  1  0
  1 20  1  0
  2  3  1  0
  3  4  2  0
  4  5  1  0
  4 27  1  0
  5 23  1  0
  5 25  1  0
  6 12  1  0
  6 13  1  0
  6 23  1  0
  7 14  2  0
  7 15  1  0
  7 16  1  0
  8 28  2  0
  8 34  1  0
  9 10  2  0
  9 18  1  0
  9 24  1  0
 10 11  1  0
 10 35  1  0
 11 19  2  0
 12 13  1  0
 14 25  1  0
 15 26  2  0
 16 17  2  0
 16 34  1  0
 17 28  1  0
 18 21  2  0
 19 21  1  0
 20 27  2  0
 21 29  1  0
 22 29  1  0
 22 30  2  0
 25 26  1  0
 27 33  1  0
 29 32  1  0
 30 31  1  0
 31 32  2  0
  2 36  1  0
  3 37  1  0
  5 38  1  1
  6 39  1  1
  8 40  1  0
 11 41  1  0
 12 42  1  0
 12 43  1  0
 13 44  1  0
 13 45  1  0
 14 46  1  0
 15 47  1  0
 17 48  1  0
 19 49  1  0
 20 50  1  0
 22 51  1  0
 23 52  1  0
 23 53  1  0
M  CHG  2  27   1  33  -1
M  END
>  <filename_input>  (1) 
7V14_ORU_docked.sdf

>  <pdb_id>  (1) 
7V14_ORU

>  <pose_rank>  (1) 
0

>  <num_atoms_heavy>  (1) 
35

>  <num_torsions>  (1) 
7

>  <pose>  (1) 
[29.886878328796044, 5.959214554812058, -4.920078702042667, 2.245140520544128, -2.8625060540555323, 5.047198582024453, -0.03630506441124014, -0.03228445479719631, -0.00772762875183795, -0.06470440630806268, 0.05668945675212474, 0.16172995452674802, 1.0193831257370405]

>  <energy>  (1) 
-1957.8172295970833

>  <inter_energy>  (1) 
-1959.1203741454983

>  <intra_energy>  (1) 
30.82941917102943

>  <rmsd>  (1) 
0.451737

>  <sdf_rank>  (1) 
0

$$$$

     RDKit          3D

 53 58  0  0  0  0  0  0  0  0999 V2000
   30.0744    6.1317   -4.9615 C   0  0  0  0  0  0  0  0  0  0  0  0
   30.8704    6.2289   -6.1035 C   0  0  0  0  0  0  0  0  0  0  0  0
   31.9140    5.3255   -6.3199 C   0  0  0  0  0  0  0  0  0  0  0  0
   32.1426    4.3301   -5.3783 C   0  0  0  0  0  0  0  0  0  0  0  0
   33.2172    3.2967   -5.4967 C   0  0  1  0  0  0  0  0  0  0  0  0
   33.7836    1.6418   -7.2033 C   0  0  1  0  0  0  0  0  0  0  0  0
   35.8051    4.8348   -7.4269 C   0  0  0  0  0  0  0  0  0  0  0  0
   37.6293    6.7267  -10.2493 C   0  0  0  0  0  0  0  0  0  0  0  0
   27.6653    6.5156   -4.7746 C   0  0  0  0  0  0  0  0  0  0  0  0
   26.5528    7.3207   -4.5258 C   0  0  0  0  0  0  0  0  0  0  0  0
   26.7016    8.6692   -4.1985 C   0  0  0  0  0  0  0  0  0  0  0  0
   34.4874    0.3235   -7.0229 C   0  0  0  0  0  0  0  0  0  0  0  0
   33.4750    0.4887   -8.1248 C   0  0  0  0  0  0  0  0  0  0  0  0
   34.4637    4.5954   -7.2023 C   0  0  0  0  0  0  0  0  0  0  0  0
   36.4749    4.1264   -6.4101 C   0  0  0  0  0  0  0  0  0  0  0  0
   36.3425    5.6258   -8.5283 C   0  0  0  0  0  0  0  0  0  0  0  0
   35.6274    6.4297   -9.3898 C   0  0  0  0  0  0  0  0  0  0  0  0
   28.9568    7.0351   -4.6951 C   0  0  0  0  0  0  0  0  0  0  0  0
   27.9909    9.2035   -4.1273 C   0  0  0  0  0  0  0  0  0  0  0  0
   30.3630    5.1083   -4.0679 C   0  0  0  0  0  0  0  0  0  0  0  0
   29.1025    8.3895   -4.3739 C   0  0  0  0  0  0  0  0  0  0  0  0
   30.7977   10.0036   -5.1288 C   0  0  0  0  0  0  0  0  0  0  0  0
   32.7532    2.0520   -6.2154 C   0  0  0  0  0  0  0  0  0  0  0  0
   27.5186    5.2154   -5.0826 F   0  0  0  0  0  0  0  0  0  0  0  0
   34.4332    3.7960   -6.1004 N   0  0  0  0  0  0  0  0  0  0  0  0
   35.6347    3.4829   -5.5918 N   0  0  0  0  0  0  0  0  0  0  0  0
   31.3717    4.2479   -4.2833 N   0  0  0  0  0  0  0  0  0  0  0  0
   36.3648    7.0655  -10.3691 N   0  0  0  0  0  0  0  0  0  0  0  0
   30.3563    8.9973   -4.3313 N   0  0  0  0  0  0  0  0  0  0  0  0
   32.0365   10.2853   -4.7889 N   0  0  0  0  0  0  0  0  0  0  0  0
   32.3388    9.4225   -3.7617 N   0  0  0  0  0  0  0  0  0  0  0  0
   31.3150    8.6262   -3.4768 N   0  0  0  0  0  0  0  0  0  0  0  0
   31.5823    3.3335   -3.4487 O   0  0  0  0  0  0  0  0  0  0  0  0
   38.0051    5.6523   -8.9632 S   0  0  0  0  0  0  0  0  0  0  0  0
   24.9635    6.6599   -4.6235 Cl  0  0  0  0  0  0  0  0  0  0  0  0
   30.6746    7.0229   -6.8392 H   0  0  0  0  0  0  0  0  0  0  0  0
   32.5430    5.4011   -7.2192 H   0  0  0  0  0  0  0  0  0  0  0  0
   33.4537    3.0259   -4.4571 H   0  0  0  0  0  0  0  0  0  0  0  0
   34.1124    2.6831   -7.3361 H   0  0  0  0  0  0  0  0  0  0  0  0
   38.4016    7.1092  -10.9328 H   0  0  0  0  0  0  0  0  0  0  0  0
   25.8217    9.2989   -4.0006 H   0  0  0  0  0  0  0  0  0  0  0  0
   35.5561    0.2330   -7.2673 H   0  0  0  0  0  0  0  0  0  0  0  0
   34.6186   -0.3794   -6.1870 H   0  0  0  0  0  0  0  0  0  0  0  0
   32.5031   -0.0224   -8.0601 H   0  0  0  0  0  0  0  0  0  0  0  0
   33.4800    0.3407   -9.2147 H   0  0  0  0  0  0  0  0  0  0  0  0
   33.6086    4.9684   -7.7850 H   0  0  0  0  0  0  0  0  0  0  0  0
   37.5692    4.1046   -6.3010 H   0  0  0  0  0  0  0  0  0  0  0  0
   34.5383    6.5567   -9.3029 H   0  0  0  0  0  0  0  0  0  0  0  0
   28.1324   10.2653   -3.8770 H   0  0  0  0  0  0  0  0  0  0  0  0
   29.7501    4.9996   -3.1610 H   0  0  0  0  0  0  0  0  0  0  0  0
   30.2188   10.4982   -5.9226 H   0  0  0  0  0  0  0  0  0  0  0  0
   32.6004    1.2424   -5.4865 H   0  0  0  0  0  0  0  0  0  0  0  0
   31.8061    2.2584   -6.7353 H   0  0  0  0  0  0  0  0  0  0  0  0
  1  2  2  0
  1 18  1  0
  1 20  1  0
  2  3  1  0
  3  4  2  0
  4  5  1  0
  4 27  1  0
  5 23  1  0
  5 25  1  0
  6 12  1  0
  6 13  1  0
  6 23  1  0
  7 14  2  0
  7 15  1  0
  7 16  1  0
  8 28  2  0
  8 34  1  0
  9 10  2  0
  9 18  1  0
  9 24  1  0
 10 11  1  0
 10 35  1  0
 11 19  2  0
 12 13  1  0
 14 25  1  0
 15 26  2  0
 16 17  2  0
 16 34  1  0
 17 28  1  0
 18 21  2  0
 19 21  1  0
 20 27  2  0
 21 29  1  0
 22 29  1  0
 22 30  2  0
 25 26  1  0
 27 33  1  0
 29 32  1  0
 30 31  1  0
 31 32  2  0
  2 36  1  0
  3 37  1  0
  5 38  1  1
  6 39  1  6
  8 40  1  0
 11 41  1  0
 12 42  1  0
 12 43  1  0
 13 44  1  0
 13 45  1  0
 14 46  1  0
 15 47  1  0
 17 48  1  0
 19 49  1  0
 20 50  1  0
 22 51  1  0
 23 52  1  0
 23 53  1  0
M  CHG  2  27   1  33  -1
M  END
>  <filename_input>  (2) 
7V14_ORU_docked.sdf

>  <pdb_id>  (2) 
7V14_ORU

>  <pose_rank>  (2) 
1

>  <num_atoms_heavy>  (2) 
35

>  <num_torsions>  (2) 
7

>  <pose>  (2) 
[30.074397127133278, 6.131736085653629, -4.961507770333559, -4.313895301192582, -0.49999337163678526, 4.540005594306233, 0.019850580274435606, -0.11519374004233722, -1.0974244739839363, -2.8384190973529213, -0.1803798869789522, -0.7592508196136256, 0.6783964486478341]

>  <energy>  (2) 
-1709.024707434059

>  <inter_energy>  (2) 
-1765.0600050042835

>  <intra_energy>  (2) 
81.56939443581584

>  <rmsd>  (2) 
3.7155

>  <sdf_rank>  (2) 
0

$$$$

     RDKit          3D

 53 58  0  0  0  0  0  0  0  0999 V2000
   30.0107    6.0816   -4.9776 C   0  0  0  0  0  0  0  0  0  0  0  0
   30.8182    6.2432   -6.1042 C   0  0  0  0  0  0  0  0  0  0  0  0
   31.8799    5.3683   -6.3476 C   0  0  0  0  0  0  0  0  0  0  0  0
   32.1149    4.3356   -5.4485 C   0  0  0  0  0  0  0  0  0  0  0  0
   33.2087    3.3269   -5.5995 C   0  0  1  0  0  0  0  0  0  0  0  0
   33.4776    1.2733   -6.8966 C   0  0  1  0  0  0  0  0  0  0  0  0
   35.9636    3.6839   -7.8515 C   0  0  0  0  0  0  0  0  0  0  0  0
   39.3602    3.1500   -9.5981 C   0  0  0  0  0  0  0  0  0  0  0  0
   27.5926    6.4422   -4.8852 C   0  0  0  0  0  0  0  0  0  0  0  0
   26.4630    7.2177   -4.6196 C   0  0  0  0  0  0  0  0  0  0  0  0
   26.5851    8.5277   -4.1542 C   0  0  0  0  0  0  0  0  0  0  0  0
   34.1283   -0.0553   -6.6190 C   0  0  0  0  0  0  0  0  0  0  0  0
   32.9303    0.0179   -7.5278 C   0  0  0  0  0  0  0  0  0  0  0  0
   35.3827    3.0636   -6.7630 C   0  0  0  0  0  0  0  0  0  0  0  0
   35.0179    4.6398   -8.2712 C   0  0  0  0  0  0  0  0  0  0  0  0
   37.2943    3.3906   -8.3719 C   0  0  0  0  0  0  0  0  0  0  0  0
   38.3183    2.7557   -7.7025 C   0  0  0  0  0  0  0  0  0  0  0  0
   28.8745    6.9530   -4.6852 C   0  0  0  0  0  0  0  0  0  0  0  0
   27.8652    9.0540   -3.9610 C   0  0  0  0  0  0  0  0  0  0  0  0
   30.3067    5.0241   -4.1270 C   0  0  0  0  0  0  0  0  0  0  0  0
   28.9938    8.2695   -4.2254 C   0  0  0  0  0  0  0  0  0  0  0  0
   30.7291    9.9325   -4.7470 C   0  0  0  0  0  0  0  0  0  0  0  0
   32.6855    1.9280   -5.8242 C   0  0  0  0  0  0  0  0  0  0  0  0
   27.4712    5.1784   -5.3266 F   0  0  0  0  0  0  0  0  0  0  0  0
   34.1710    3.6690   -6.6238 N   0  0  0  0  0  0  0  0  0  0  0  0
   33.9130    4.6364   -7.5171 N   0  0  0  0  0  0  0  0  0  0  0  0
   31.3327    4.1915   -4.3680 N   0  0  0  0  0  0  0  0  0  0  0  0
   39.4973    2.6112   -8.4069 N   0  0  0  0  0  0  0  0  0  0  0  0
   30.2394    8.8717   -4.0553 N   0  0  0  0  0  0  0  0  0  0  0  0
   31.9412   10.1881   -4.3056 N   0  0  0  0  0  0  0  0  0  0  0  0
   32.1777    9.2534   -3.3251 N   0  0  0  0  0  0  0  0  0  0  0  0
   31.1404    8.4394   -3.1675 N   0  0  0  0  0  0  0  0  0  0  0  0
   31.5495    3.2443   -3.5724 O   0  0  0  0  0  0  0  0  0  0  0  0
   37.8254    3.8389   -9.9439 S   0  0  0  0  0  0  0  0  0  0  0  0
   24.8857    6.5677   -4.8678 Cl  0  0  0  0  0  0  0  0  0  0  0  0
   30.6173    7.0660   -6.8061 H   0  0  0  0  0  0  0  0  0  0  0  0
   32.5179    5.4947   -7.2347 H   0  0  0  0  0  0  0  0  0  0  0  0
   33.7355    3.3464   -4.6341 H   0  0  0  0  0  0  0  0  0  0  0  0
   33.8316    2.2460   -7.2689 H   0  0  0  0  0  0  0  0  0  0  0  0
   40.1807    3.1592  -10.3307 H   0  0  0  0  0  0  0  0  0  0  0  0
   25.6917    9.1338   -3.9437 H   0  0  0  0  0  0  0  0  0  0  0  0
   35.1216   -0.2787   -7.0357 H   0  0  0  0  0  0  0  0  0  0  0  0
   34.3814   -0.6221   -5.7108 H   0  0  0  0  0  0  0  0  0  0  0  0
   31.9630   -0.3877   -7.1966 H   0  0  0  0  0  0  0  0  0  0  0  0
   32.7132   -0.3048   -8.5567 H   0  0  0  0  0  0  0  0  0  0  0  0
   35.8056    2.2581   -6.1447 H   0  0  0  0  0  0  0  0  0  0  0  0
   35.1713    5.3153   -9.1258 H   0  0  0  0  0  0  0  0  0  0  0  0
   38.2037    2.3875   -6.6724 H   0  0  0  0  0  0  0  0  0  0  0  0
   27.9860   10.0863   -3.6006 H   0  0  0  0  0  0  0  0  0  0  0  0
   29.6852    4.8646   -3.2336 H   0  0  0  0  0  0  0  0  0  0  0  0
   30.2025   10.4834   -5.5403 H   0  0  0  0  0  0  0  0  0  0  0  0
   32.7766    1.3480   -4.8940 H   0  0  0  0  0  0  0  0  0  0  0  0
   31.6280    1.9740   -6.1234 H   0  0  0  0  0  0  0  0  0  0  0  0
  1  2  2  0
  1 18  1  0
  1 20  1  0
  2  3  1  0
  3  4  2  0
  4  5  1  0
  4 27  1  0
  5 23  1  0
  5 25  1  0
  6 12  1  0
  6 13  1  0
  6 23  1  0
  7 14  2  0
  7 15  1  0
  7 16  1  0
  8 28  2  0
  8 34  1  0
  9 10  2  0
  9 18  1  0
  9 24  1  0
 10 11  1  0
 10 35  1  0
 11 19  2  0
 12 13  1  0
 14 25  1  0
 15 26  2  0
 16 17  2  0
 16 34  1  0
 17 28  1  0
 18 21  2  0
 19 21  1  0
 20 27  2  0
 21 29  1  0
 22 29  1  0
 22 30  2  0
 25 26  1  0
 27 33  1  0
 29 32  1  0
 30 31  1  0
 31 32  2  0
  2 36  1  0
  3 37  1  0
  5 38  1  1
  6 39  1  6
  8 40  1  0
 11 41  1  0
 12 42  1  0
 12 43  1  0
 13 44  1  0
 13 45  1  0
 14 46  1  0
 15 47  1  0
 17 48  1  0
 19 49  1  0
 20 50  1  0
 22 51  1  0
 23 52  1  0
 23 53  1  0
M  CHG  2  27   1  33  -1
M  END
>  <filename_input>  (3) 
7V14_ORU_docked.sdf

>  <pdb_id>  (3) 
7V14_ORU

>  <pose_rank>  (3) 
2

>  <num_atoms_heavy>  (3) 
35

>  <num_torsions>  (3) 
7

>  <pose>  (3) 
[30.01073729441944, 6.081551637847836, -4.977636458152802, -5.6671442464194035, 1.5114639615573353, -2.1110119623020855, -6.332812174954105, -0.14440429622758374, -1.5240320395864255, -11.740146887976163, -6.989321742112826, 5.554036134184158, 0.8469231298049782]

>  <energy>  (3) 
-1479.605891098881

>  <inter_energy>  (3) 
-1619.8781818405625

>  <intra_energy>  (3) 
128.6094570203481

>  <rmsd>  (3) 
3.27383

>  <sdf_rank>  (3) 
0

$$$$

     RDKit          3D

 53 58  0  0  0  0  0  0  0  0999 V2000
   30.0656    6.2812   -5.0650 C   0  0  0  0  0  0  0  0  0  0  0  0
   30.8116    6.4167   -6.2364 C   0  0  0  0  0  0  0  0  0  0  0  0
   31.8434    5.5210   -6.5281 C   0  0  0  0  0  0  0  0  0  0  0  0
   32.1108    4.4942   -5.6315 C   0  0  0  0  0  0  0  0  0  0  0  0
   33.1776    3.4652   -5.8312 C   0  0  1  0  0  0  0  0  0  0  0  0
   35.1273    3.4563   -4.3581 C   0  0  1  0  0  0  0  0  0  0  0  0
   31.5490    1.0396   -7.8935 C   0  0  0  0  0  0  0  0  0  0  0  0
   28.3182   -0.1637   -9.6217 C   0  0  0  0  0  0  0  0  0  0  0  0
   27.6697    6.6522   -4.7364 C   0  0  0  0  0  0  0  0  0  0  0  0
   26.5705    7.4483   -4.4111 C   0  0  0  0  0  0  0  0  0  0  0  0
   26.7335    8.7913   -4.0685 C   0  0  0  0  0  0  0  0  0  0  0  0
   35.7290    3.4928   -2.9788 C   0  0  0  0  0  0  0  0  0  0  0  0
   36.2086    2.4756   -3.9798 C   0  0  0  0  0  0  0  0  0  0  0  0
   31.5007    2.2046   -7.1536 C   0  0  0  0  0  0  0  0  0  0  0  0
   32.8771    0.5866   -7.7699 C   0  0  0  0  0  0  0  0  0  0  0  0
   30.4158    0.4418   -8.5906 C   0  0  0  0  0  0  0  0  0  0  0  0
   30.4243   -0.7228   -9.3279 C   0  0  0  0  0  0  0  0  0  0  0  0
   28.9620    7.1752   -4.7201 C   0  0  0  0  0  0  0  0  0  0  0  0
   28.0233    9.3294   -4.0600 C   0  0  0  0  0  0  0  0  0  0  0  0
   30.3908    5.2280   -4.2198 C   0  0  0  0  0  0  0  0  0  0  0  0
   29.1216    8.5242   -4.3832 C   0  0  0  0  0  0  0  0  0  0  0  0
   30.7644   10.1639   -5.1968 C   0  0  0  0  0  0  0  0  0  0  0  0
   33.7418    2.9491   -4.5288 C   0  0  0  0  0  0  0  0  0  0  0  0
   27.5097    5.3571   -5.0590 F   0  0  0  0  0  0  0  0  0  0  0  0
   32.7630    2.3597   -6.6669 N   0  0  0  0  0  0  0  0  0  0  0  0
   33.6284    1.3947   -7.0136 N   0  0  0  0  0  0  0  0  0  0  0  0
   31.3878    4.3752   -4.5076 N   0  0  0  0  0  0  0  0  0  0  0  0
   29.2224   -1.0730   -9.9109 N   0  0  0  0  0  0  0  0  0  0  0  0
   30.3740    9.1361   -4.4000 N   0  0  0  0  0  0  0  0  0  0  0  0
   32.0204   10.4423   -4.9243 N   0  0  0  0  0  0  0  0  0  0  0  0
   32.3858    9.5554   -3.9389 N   0  0  0  0  0  0  0  0  0  0  0  0
   31.3830    8.7479   -3.6138 N   0  0  0  0  0  0  0  0  0  0  0  0
   31.6327    3.4330   -3.7143 O   0  0  0  0  0  0  0  0  0  0  0  0
   28.8454    1.1391   -8.6346 S   0  0  0  0  0  0  0  0  0  0  0  0
   24.9802    6.7832   -4.4314 Cl  0  0  0  0  0  0  0  0  0  0  0  0
   30.5856    7.2353   -6.9356 H   0  0  0  0  0  0  0  0  0  0  0  0
   32.4331    5.6269   -7.4507 H   0  0  0  0  0  0  0  0  0  0  0  0
   33.9775    3.9989   -6.3653 H   0  0  0  0  0  0  0  0  0  0  0  0
   34.9869    4.1947   -5.1612 H   0  0  0  0  0  0  0  0  0  0  0  0
   27.2842   -0.2332   -9.9905 H   0  0  0  0  0  0  0  0  0  0  0  0
   25.8642    9.4139   -3.8102 H   0  0  0  0  0  0  0  0  0  0  0  0
   36.3835    4.3272   -2.6865 H   0  0  0  0  0  0  0  0  0  0  0  0
   35.3293    3.4471   -1.9550 H   0  0  0  0  0  0  0  0  0  0  0  0
   35.9635    1.4119   -3.8437 H   0  0  0  0  0  0  0  0  0  0  0  0
   37.1870    2.1965   -4.3978 H   0  0  0  0  0  0  0  0  0  0  0  0
   30.6337    2.8623   -6.9929 H   0  0  0  0  0  0  0  0  0  0  0  0
   33.2551   -0.3314   -8.2436 H   0  0  0  0  0  0  0  0  0  0  0  0
   31.3310   -1.3345   -9.4445 H   0  0  0  0  0  0  0  0  0  0  0  0
   28.1754   10.3871   -3.7990 H   0  0  0  0  0  0  0  0  0  0  0  0
   29.8174    5.0888   -3.2915 H   0  0  0  0  0  0  0  0  0  0  0  0
   30.1378   10.6757   -5.9420 H   0  0  0  0  0  0  0  0  0  0  0  0
   33.1171    3.2989   -3.6936 H   0  0  0  0  0  0  0  0  0  0  0  0
   33.7512    1.8493   -4.5417 H   0  0  0  0  0  0  0  0  0  0  0  0
  1  2  2  0
  1 18  1  0
  1 20  1  0
  2  3  1  0
  3  4  2  0
  4  5  1  0
  4 27  1  0
  5 23  1  0
  5 25  1  0
  6 12  1  0
  6 13  1  0
  6 23  1  0
  7 14  2  0
  7 15  1  0
  7 16  1  0
  8 28  2  0
  8 34  1  0
  9 10  2  0
  9 18  1  0
  9 24  1  0
 10 11  1  0
 10 35  1  0
 11 19  2  0
 12 13  1  0
 14 25  1  0
 15 26  2  0
 16 17  2  0
 16 34  1  0
 17 28  1  0
 18 21  2  0
 19 21  1  0
 20 27  2  0
 21 29  1  0
 22 29  1  0
 22 30  2  0
 25 26  1  0
 27 33  1  0
 29 32  1  0
 30 31  1  0
 31 32  2  0
  2 36  1  0
  3 37  1  0
  5 38  1  6
  6 39  1  6
  8 40  1  0
 11 41  1  0
 12 42  1  0
 12 43  1  0
 13 44  1  0
 13 45  1  0
 14 46  1  0
 15 47  1  0
 17 48  1  0
 19 49  1  0
 20 50  1  0
 22 51  1  0
 23 52  1  0
 23 53  1  0
M  CHG  2  27   1  33  -1
M  END
>  <filename_input>  (4) 
7V14_ORU_docked.sdf

>  <pdb_id>  (4) 
7V14_ORU

>  <pose_rank>  (4) 
3

>  <num_atoms_heavy>  (4) 
35

>  <num_torsions>  (4) 
7

>  <pose>  (4) 
[30.065578063912493, 6.28117686176922, -5.0649771513275805, -3.862792916772616, -4.882881354408917, 0.15439164676328732, -6.242377394488818, -0.10722565550534366, 3.100530025441512, -2.1519702868016957, 2.778580755215614, 1.262848893309974, -4.850560024022061]

>  <energy>  (4) 
-1513.1338075037231

>  <inter_energy>  (4) 
-1576.6915615479434

>  <intra_energy>  (4) 
76.84086355375511

>  <rmsd>  (4) 
5.08392

>  <sdf_rank>  (4) 
0

$$$$

     RDKit          3D

 53 58  0  0  0  0  0  0  0  0999 V2000
   30.1469    6.1247   -5.0258 C   0  0  0  0  0  0  0  0  0  0  0  0
   30.9418    6.2234   -6.1684 C   0  0  0  0  0  0  0  0  0  0  0  0
   31.9879    5.3229   -6.3850 C   0  0  0  0  0  0  0  0  0  0  0  0
   32.2200    4.3286   -5.4430 C   0  0  0  0  0  0  0  0  0  0  0  0
   33.2974    3.2982   -5.5616 C   0  0  1  0  0  0  0  0  0  0  0  0
   34.6473    1.9193   -7.0610 C   0  0  1  0  0  0  0  0  0  0  0  0
   35.9165    3.2416   -3.1273 C   0  0  0  0  0  0  0  0  0  0  0  0
   38.1888    2.1393   -0.2128 C   0  0  0  0  0  0  0  0  0  0  0  0
   27.7407    6.4869   -4.7710 C   0  0  0  0  0  0  0  0  0  0  0  0
   26.6265    7.2884   -4.5180 C   0  0  0  0  0  0  0  0  0  0  0  0
   26.7681    8.6514   -4.2539 C   0  0  0  0  0  0  0  0  0  0  0  0
   34.2544    0.6898   -6.2864 C   0  0  0  0  0  0  0  0  0  0  0  0
   34.1131    0.7092   -7.7851 C   0  0  0  0  0  0  0  0  0  0  0  0
   34.8414    2.6288   -3.7402 C   0  0  0  0  0  0  0  0  0  0  0  0
   36.0309    4.4933   -3.7631 C   0  0  0  0  0  0  0  0  0  0  0  0
   36.6929    2.6724   -2.0315 C   0  0  0  0  0  0  0  0  0  0  0  0
   36.4904    1.4502   -1.4273 C   0  0  0  0  0  0  0  0  0  0  0  0
   29.0269    7.0250   -4.7591 C   0  0  0  0  0  0  0  0  0  0  0  0
   28.0517    9.2040   -4.2507 C   0  0  0  0  0  0  0  0  0  0  0  0
   30.4391    5.1025   -4.1318 C   0  0  0  0  0  0  0  0  0  0  0  0
   29.1652    8.3936   -4.5012 C   0  0  0  0  0  0  0  0  0  0  0  0
   31.2333    9.2353   -3.4700 C   0  0  0  0  0  0  0  0  0  0  0  0
   33.7898    3.1293   -6.9793 C   0  0  0  0  0  0  0  0  0  0  0  0
   27.6012    5.1730   -5.0180 F   0  0  0  0  0  0  0  0  0  0  0  0
   34.4139    3.5264   -4.6707 N   0  0  0  0  0  0  0  0  0  0  0  0
   35.1065    4.6748   -4.7128 N   0  0  0  0  0  0  0  0  0  0  0  0
   31.4500    4.2450   -4.3474 N   0  0  0  0  0  0  0  0  0  0  0  0
   37.3512    1.1421   -0.3923 N   0  0  0  0  0  0  0  0  0  0  0  0
   30.4112    9.0179   -4.5285 N   0  0  0  0  0  0  0  0  0  0  0  0
   32.3030    9.8667   -3.9020 N   0  0  0  0  0  0  0  0  0  0  0  0
   32.1105   10.0288   -5.2539 N   0  0  0  0  0  0  0  0  0  0  0  0
   30.9509    9.5144   -5.6463 N   0  0  0  0  0  0  0  0  0  0  0  0
   31.6639    3.3316   -3.5124 O   0  0  0  0  0  0  0  0  0  0  0  0
   38.0052    3.4802   -1.2701 S   0  0  0  0  0  0  0  0  0  0  0  0
   25.0440    6.6047   -4.5317 Cl  0  0  0  0  0  0  0  0  0  0  0  0
   30.7433    7.0165   -6.9043 H   0  0  0  0  0  0  0  0  0  0  0  0
   32.6160    5.3998   -7.2847 H   0  0  0  0  0  0  0  0  0  0  0  0
   32.8153    2.3597   -5.2506 H   0  0  0  0  0  0  0  0  0  0  0  0
   35.5574    2.5333   -7.1291 H   0  0  0  0  0  0  0  0  0  0  0  0
   38.9622    2.1162    0.5691 H   0  0  0  0  0  0  0  0  0  0  0  0
   25.8870    9.2783   -4.0523 H   0  0  0  0  0  0  0  0  0  0  0  0
   35.0285    0.0662   -5.8153 H   0  0  0  0  0  0  0  0  0  0  0  0
   33.5766    0.4853   -5.4446 H   0  0  0  0  0  0  0  0  0  0  0  0
   33.1135    0.7390   -8.2432 H   0  0  0  0  0  0  0  0  0  0  0  0
   34.4714    0.0743   -8.6089 H   0  0  0  0  0  0  0  0  0  0  0  0
   34.4228    1.6347   -3.5244 H   0  0  0  0  0  0  0  0  0  0  0  0
   36.7968    5.2401   -3.5066 H   0  0  0  0  0  0  0  0  0  0  0  0
   35.6935    0.7636   -1.7491 H   0  0  0  0  0  0  0  0  0  0  0  0
   28.1872   10.2772   -4.0510 H   0  0  0  0  0  0  0  0  0  0  0  0
   29.8271    4.9927   -3.2244 H   0  0  0  0  0  0  0  0  0  0  0  0
   31.0382    8.9349   -2.4300 H   0  0  0  0  0  0  0  0  0  0  0  0
   32.9299    3.0165   -7.6559 H   0  0  0  0  0  0  0  0  0  0  0  0
   34.3727    4.0142   -7.2746 H   0  0  0  0  0  0  0  0  0  0  0  0
  1  2  2  0
  1 18  1  0
  1 20  1  0
  2  3  1  0
  3  4  2  0
  4  5  1  0
  4 27  1  0
  5 23  1  0
  5 25  1  0
  6 12  1  0
  6 13  1  0
  6 23  1  0
  7 14  2  0
  7 15  1  0
  7 16  1  0
  8 28  2  0
  8 34  1  0
  9 10  2  0
  9 18  1  0
  9 24  1  0
 10 11  1  0
 10 35  1  0
 11 19  2  0
 12 13  1  0
 14 25  1  0
 15 26  2  0
 16 17  2  0
 16 34  1  0
 17 28  1  0
 18 21  2  0
 19 21  1  0
 20 27  2  0
 21 29  1  0
 22 29  1  0
 22 30  2  0
 25 26  1  0
 27 33  1  0
 29 32  1  0
 30 31  1  0
 31 32  2  0
  2 36  1  0
  3 37  1  0
  5 38  1  1
  6 39  1  6
  8 40  1  0
 11 41  1  0
 12 42  1  0
 12 43  1  0
 13 44  1  0
 13 45  1  0
 14 46  1  0
 15 47  1  0
 17 48  1  0
 19 49  1  0
 20 50  1  0
 22 51  1  0
 23 52  1  0
 23 53  1  0
M  CHG  2  27   1  33  -1
M  END
>  <filename_input>  (5) 
7V14_ORU_docked.sdf

>  <pdb_id>  (5) 
7V14_ORU

>  <pose_rank>  (5) 
4

>  <num_atoms_heavy>  (5) 
35

>  <num_torsions>  (5) 
7

>  <pose>  (5) 
[30.14692417423346, 6.12467240165317, -5.0257686333850256, -0.4366263049333868, 1.8169233094785935, 6.00155348590488, -6.208087273348923, -3.78729303808132, 6.409302884303731, 0.056717849694684984, -0.3758889574475571, 0.22442652211031885, -0.6579362034852386]

>  <energy>  (5) 
-1823.990919914879

>  <inter_energy>  (5) 
-1846.7157040630061

>  <intra_energy>  (5) 
47.14340112384185

>  <rmsd>  (5) 
0.671606

>  <sdf_rank>  (5) 
0

$$$$

     RDKit          3D

 53 58  0  0  0  0  0  0  0  0999 V2000
   30.0258    6.0117   -5.1388 C   0  0  0  0  0  0  0  0  0  0  0  0
   30.6229    6.0391   -6.3997 C   0  0  0  0  0  0  0  0  0  0  0  0
   31.6557    5.1526   -6.7151 C   0  0  0  0  0  0  0  0  0  0  0  0
   32.0750    4.2445   -5.7511 C   0  0  0  0  0  0  0  0  0  0  0  0
   33.1597    3.2374   -5.9654 C   0  0  1  0  0  0  0  0  0  0  0  0
   31.3660    2.0204   -7.0938 C   0  0  1  0  0  0  0  0  0  0  0  0
   36.0176    5.2111   -6.8169 C   0  0  0  0  0  0  0  0  0  0  0  0
   38.2373    8.0045   -8.2807 C   0  0  0  0  0  0  0  0  0  0  0  0
   27.6268    6.4118   -4.8728 C   0  0  0  0  0  0  0  0  0  0  0  0
   26.5322    7.2041   -4.5239 C   0  0  0  0  0  0  0  0  0  0  0  0
   26.7092    8.5092   -4.0621 C   0  0  0  0  0  0  0  0  0  0  0  0
   30.6045    2.3182   -8.3577 C   0  0  0  0  0  0  0  0  0  0  0  0
   30.8363    0.8904   -7.9403 C   0  0  0  0  0  0  0  0  0  0  0  0
   34.6482    5.0331   -6.8075 C   0  0  0  0  0  0  0  0  0  0  0  0
   36.5374    4.0561   -6.2004 C   0  0  0  0  0  0  0  0  0  0  0  0
   36.7102    6.3555   -7.3986 C   0  0  0  0  0  0  0  0  0  0  0  0
   36.1281    7.4590   -7.9844 C   0  0  0  0  0  0  0  0  0  0  0  0
   28.9281    6.9001   -4.7621 C   0  0  0  0  0  0  0  0  0  0  0  0
   28.0084    9.0132   -3.9579 C   0  0  0  0  0  0  0  0  0  0  0  0
   30.4978    5.0736   -4.2297 C   0  0  0  0  0  0  0  0  0  0  0  0
   29.1020    8.2117   -4.3057 C   0  0  0  0  0  0  0  0  0  0  0  0
   30.8668    9.7669   -5.0240 C   0  0  0  0  0  0  0  0  0  0  0  0
   32.8327    2.2521   -7.0623 C   0  0  0  0  0  0  0  0  0  0  0  0
   27.4530    5.1527   -5.3105 F   0  0  0  0  0  0  0  0  0  0  0  0
   34.4584    3.8297   -6.1991 N   0  0  0  0  0  0  0  0  0  0  0  0
   35.5816    3.2010   -5.8201 N   0  0  0  0  0  0  0  0  0  0  0  0
   31.4944    4.2290   -4.5416 N   0  0  0  0  0  0  0  0  0  0  0  0
   37.0018    8.4058   -8.4817 N   0  0  0  0  0  0  0  0  0  0  0  0
   30.3665    8.7923   -4.2219 N   0  0  0  0  0  0  0  0  0  0  0  0
   32.0954   10.0298   -4.6356 N   0  0  0  0  0  0  0  0  0  0  0  0
   32.3310    9.1881   -3.5740 N   0  0  0  0  0  0  0  0  0  0  0  0
   31.2771    8.4227   -3.3156 N   0  0  0  0  0  0  0  0  0  0  0  0
   31.8754    3.3924   -3.6860 O   0  0  0  0  0  0  0  0  0  0  0  0
   38.4212    6.4958   -7.4808 S   0  0  0  0  0  0  0  0  0  0  0  0
   24.9305    6.5818   -4.6623 Cl  0  0  0  0  0  0  0  0  0  0  0  0
   30.2777    6.7643   -7.1513 H   0  0  0  0  0  0  0  0  0  0  0  0
   32.1280    5.1734   -7.7083 H   0  0  0  0  0  0  0  0  0  0  0  0
   33.2157    2.6875   -5.0143 H   0  0  0  0  0  0  0  0  0  0  0  0
   31.2664    2.3223   -6.0407 H   0  0  0  0  0  0  0  0  0  0  0  0
   39.1030    8.6003   -8.6058 H   0  0  0  0  0  0  0  0  0  0  0  0
   25.8433    9.1287   -3.7857 H   0  0  0  0  0  0  0  0  0  0  0  0
   29.5944    2.7501   -8.3020 H   0  0  0  0  0  0  0  0  0  0  0  0
   30.8057    2.9047   -9.2663 H   0  0  0  0  0  0  0  0  0  0  0  0
   31.5320    0.2568   -8.5098 H   0  0  0  0  0  0  0  0  0  0  0  0
   30.1910    0.0183   -7.7586 H   0  0  0  0  0  0  0  0  0  0  0  0
   33.8801    5.7133   -7.2042 H   0  0  0  0  0  0  0  0  0  0  0  0
   37.6120    3.8769   -6.0483 H   0  0  0  0  0  0  0  0  0  0  0  0
   35.0366    7.5781   -8.0515 H   0  0  0  0  0  0  0  0  0  0  0  0
   28.1720   10.0411   -3.6022 H   0  0  0  0  0  0  0  0  0  0  0  0
   30.0439    5.0210   -3.2291 H   0  0  0  0  0  0  0  0  0  0  0  0
   30.3357   10.2530   -5.8556 H   0  0  0  0  0  0  0  0  0  0  0  0
   33.1614    2.6578   -8.0305 H   0  0  0  0  0  0  0  0  0  0  0  0
   33.3516    1.3014   -6.8700 H   0  0  0  0  0  0  0  0  0  0  0  0
  1  2  2  0
  1 18  1  0
  1 20  1  0
  2  3  1  0
  3  4  2  0
  4  5  1  0
  4 27  1  0
  5 23  1  0
  5 25  1  0
  6 12  1  0
  6 13  1  0
  6 23  1  0
  7 14  2  0
  7 15  1  0
  7 16  1  0
  8 28  2  0
  8 34  1  0
  9 10  2  0
  9 18  1  0
  9 24  1  0
 10 11  1  0
 10 35  1  0
 11 19  2  0
 12 13  1  0
 14 25  1  0
 15 26  2  0
 16 17  2  0
 16 34  1  0
 17 28  1  0
 18 21  2  0
 19 21  1  0
 20 27  2  0
 21 29  1  0
 22 29  1  0
 22 30  2  0
 25 26  1  0
 27 33  1  0
 29 32  1  0
 30 31  1  0
 31 32  2  0
  2 36  1  0
  3 37  1  0
  5 38  1  1
  6 39  1  1
  8 40  1  0
 11 41  1  0
 12 42  1  0
 12 43  1  0
 13 44  1  0
 13 45  1  0
 14 46  1  0
 15 47  1  0
 17 48  1  0
 19 49  1  0
 20 50  1  0
 22 51  1  0
 23 52  1  0
 23 53  1  0
M  CHG  2  27   1  33  -1
M  END
>  <filename_input>  (6) 
7V14_ORU_docked.sdf

>  <pdb_id>  (6) 
7V14_ORU

>  <pose_rank>  (6) 
5

>  <num_atoms_heavy>  (6) 
35

>  <num_torsions>  (6) 
7

>  <pose>  (6) 
[30.025796442707364, 6.011743930785675, -5.13876241616165, -0.07866654901184565, 0.16322753467191256, 0.03599654778883886, -0.2202530887098095, -0.25832399699959563, -0.60665028270953, -2.611294447748096, -0.3289102988515157, 2.6068902940432923, 0.774058620050707]

>  <energy>  (6) 
-1572.8857794777057

>  <inter_energy>  (6) 
-1626.7069833386308

>  <intra_energy>  (6) 
48.02177462911661

>  <rmsd>  (6) 
3.55854

>  <sdf_rank>  (6) 
0

$$$$

     RDKit          3D

 53 58  0  0  0  0  0  0  0  0999 V2000
   34.3055    6.1745   -7.2621 C   0  0  0  0  0  0  0  0  0  0  0  0
   34.9225    6.4716   -8.4779 C   0  0  0  0  0  0  0  0  0  0  0  0
   36.2490    6.9089   -8.5122 C   0  0  0  0  0  0  0  0  0  0  0  0
   36.9406    7.0409   -7.3147 C   0  0  0  0  0  0  0  0  0  0  0  0
   38.3645    7.4873   -7.2153 C   0  0  1  0  0  0  0  0  0  0  0  0
   40.2051    6.4759   -5.9658 C   0  0  1  0  0  0  0  0  0  0  0  0
   38.6576    9.8141   -9.9150 C   0  0  0  0  0  0  0  0  0  0  0  0
   37.6134   11.7435  -13.0867 C   0  0  0  0  0  0  0  0  0  0  0  0
   31.9036    6.6372   -7.2077 C   0  0  0  0  0  0  0  0  0  0  0  0
   30.5661    6.2462   -7.1301 C   0  0  0  0  0  0  0  0  0  0  0  0
   30.2181    4.9007   -7.0034 C   0  0  0  0  0  0  0  0  0  0  0  0
   39.8869    5.6789   -4.7292 C   0  0  0  0  0  0  0  0  0  0  0  0
   41.0801    5.3129   -5.5711 C   0  0  0  0  0  0  0  0  0  0  0  0
   37.8734    9.0185   -9.1031 C   0  0  0  0  0  0  0  0  0  0  0  0
   39.9761    9.5999   -9.4680 C   0  0  0  0  0  0  0  0  0  0  0  0
   38.1617   10.6395  -11.0107 C   0  0  0  0  0  0  0  0  0  0  0  0
   37.1758   11.5998  -10.9368 C   0  0  0  0  0  0  0  0  0  0  0  0
   32.9287    5.6929   -7.1687 C   0  0  0  0  0  0  0  0  0  0  0  0
   31.2376    3.9463   -6.9517 C   0  0  0  0  0  0  0  0  0  0  0  0
   35.0629    6.3284   -6.1080 C   0  0  0  0  0  0  0  0  0  0  0  0
   32.5768    4.3450   -7.0342 C   0  0  0  0  0  0  0  0  0  0  0  0
   33.6576    2.4276   -5.9368 C   0  0  0  0  0  0  0  0  0  0  0  0
   39.3359    6.3321   -7.1616 C   0  0  0  0  0  0  0  0  0  0  0  0
   32.2350    7.9335   -7.3368 F   0  0  0  0  0  0  0  0  0  0  0  0
   38.7516    8.4154   -8.2549 N   0  0  0  0  0  0  0  0  0  0  0  0
   40.0399    8.7376   -8.4473 N   0  0  0  0  0  0  0  0  0  0  0  0
   36.3360    6.7539   -6.1518 N   0  0  0  0  0  0  0  0  0  0  0  0
   36.8680   12.2367  -12.1228 N   0  0  0  0  0  0  0  0  0  0  0  0
   33.5438    3.3465   -6.9299 N   0  0  0  0  0  0  0  0  0  0  0  0
   34.7059    1.6750   -6.1899 N   0  0  0  0  0  0  0  0  0  0  0  0
   35.2290    2.1605   -7.3654 N   0  0  0  0  0  0  0  0  0  0  0  0
   34.5245    3.1883   -7.8244 N   0  0  0  0  0  0  0  0  0  0  0  0
   36.9795    6.8647   -5.0791 O   0  0  0  0  0  0  0  0  0  0  0  0
   38.7227   10.5143  -12.6305 S   0  0  0  0  0  0  0  0  0  0  0  0
   29.3116    7.4273   -7.1852 Cl  0  0  0  0  0  0  0  0  0  0  0  0
   34.3600    6.3607   -9.4167 H   0  0  0  0  0  0  0  0  0  0  0  0
   36.7366    7.1444   -9.4697 H   0  0  0  0  0  0  0  0  0  0  0  0
   38.4172    8.0260   -6.2576 H   0  0  0  0  0  0  0  0  0  0  0  0
   40.3702    7.5425   -6.1782 H   0  0  0  0  0  0  0  0  0  0  0  0
   37.5315   12.0975  -14.1250 H   0  0  0  0  0  0  0  0  0  0  0  0
   29.1623    4.5974   -6.9454 H   0  0  0  0  0  0  0  0  0  0  0  0
   40.0322    6.1259   -3.7346 H   0  0  0  0  0  0  0  0  0  0  0  0
   39.0028    5.1397   -4.3582 H   0  0  0  0  0  0  0  0  0  0  0  0
   41.0697    4.3891   -6.1681 H   0  0  0  0  0  0  0  0  0  0  0  0
   42.1549    5.1773   -5.3804 H   0  0  0  0  0  0  0  0  0  0  0  0
   36.7805    8.8984   -9.1345 H   0  0  0  0  0  0  0  0  0  0  0  0
   40.8570   10.0883   -9.9100 H   0  0  0  0  0  0  0  0  0  0  0  0
   36.6664   11.8436   -9.9929 H   0  0  0  0  0  0  0  0  0  0  0  0
   30.9874    2.8804   -6.8460 H   0  0  0  0  0  0  0  0  0  0  0  0
   34.6085    6.0959   -5.1336 H   0  0  0  0  0  0  0  0  0  0  0  0
   32.9880    2.3295   -5.0696 H   0  0  0  0  0  0  0  0  0  0  0  0
   38.7784    5.3859   -7.0988 H   0  0  0  0  0  0  0  0  0  0  0  0
   39.9565    6.3304   -8.0698 H   0  0  0  0  0  0  0  0  0  0  0  0
  1  2  2  0
  1 18  1  0
  1 20  1  0
  2  3  1  0
  3  4  2  0
  4  5  1  0
  4 27  1  0
  5 23  1  0
  5 25  1  0
  6 12  1  0
  6 13  1  0
  6 23  1  0
  7 14  2  0
  7 15  1  0
  7 16  1  0
  8 28  2  0
  8 34  1  0
  9 10  2  0
  9 18  1  0
  9 24  1  0
 10 11  1  0
 10 35  1  0
 11 19  2  0
 12 13  1  0
 14 25  1  0
 15 26  2  0
 16 17  2  0
 16 34  1  0
 17 28  1  0
 18 21  2  0
 19 21  1  0
 20 27  2  0
 21 29  1  0
 22 29  1  0
 22 30  2  0
 25 26  1  0
 27 33  1  0
 29 32  1  0
 30 31  1  0
 31 32  2  0
  2 36  1  0
  3 37  1  0
  5 38  1  1
  6 39  1  1
  8 40  1  0
 11 41  1  0
 12 42  1  0
 12 43  1  0
 13 44  1  0
 13 45  1  0
 14 46  1  0
 15 47  1  0
 17 48  1  0
 19 49  1  0
 20 50  1  0
 22 51  1  0
 23 52  1  0
 23 53  1  0
M  CHG  2  27   1  33  -1
M  END
>  <filename_input>  (7) 
7V14_ORU_docked.sdf

>  <pdb_id>  (7) 
7V14_ORU

>  <pose_rank>  (7) 
6

>  <num_atoms_heavy>  (7) 
35

>  <num_torsions>  (7) 
7

>  <pose>  (7) 
[34.30548453504128, 6.174475822326549, -7.26209303865099, -3.087368189418525, -0.26627110517294406, 6.764727370531481, -15.90608014931172, 0.028796068401411565, -1.176925521180976, -1.8797931517425668, 0.5818513673561911, 0.9706277937184317, 0.39367176147168154]

>  <energy>  (7) 
-155.67086745002678

>  <inter_energy>  (7) 
-215.34286025295992

>  <intra_energy>  (7) 
69.18682767469853

>  <rmsd>  (7) 
8.23522

>  <sdf_rank>  (7) 
0

$$$$

     RDKit          3D

 53 58  0  0  0  0  0  0  0  0999 V2000
   34.9779    3.3888   -4.9942 C   0  0  0  0  0  0  0  0  0  0  0  0
   33.6295    3.1826   -4.7000 C   0  0  0  0  0  0  0  0  0  0  0  0
   32.7324    4.2537   -4.6959 C   0  0  0  0  0  0  0  0  0  0  0  0
   33.2078    5.5252   -4.9908 C   0  0  0  0  0  0  0  0  0  0  0  0
   32.3514    6.7506   -5.0311 C   0  0  1  0  0  0  0  0  0  0  0  0
   32.6290    8.7399   -6.4229 C   0  0  1  0  0  0  0  0  0  0  0  0
   28.9063    6.6485   -4.0777 C   0  0  0  0  0  0  0  0  0  0  0  0
   25.0981    7.0623   -4.5247 C   0  0  0  0  0  0  0  0  0  0  0  0
   36.2171    1.7064   -6.2669 C   0  0  0  0  0  0  0  0  0  0  0  0
   37.1439    0.6689   -6.3783 C   0  0  0  0  0  0  0  0  0  0  0  0
   37.8283    0.1948   -5.2583 C   0  0  0  0  0  0  0  0  0  0  0  0
   33.3405    9.2937   -7.6283 C   0  0  0  0  0  0  0  0  0  0  0  0
   31.9188    9.6994   -7.3443 C   0  0  0  0  0  0  0  0  0  0  0  0
   29.8929    7.0649   -4.9495 C   0  0  0  0  0  0  0  0  0  0  0  0
   29.5861    5.9193   -3.0825 C   0  0  0  0  0  0  0  0  0  0  0  0
   27.4889    6.9706   -4.2002 C   0  0  0  0  0  0  0  0  0  0  0  0
   26.8824    8.1597   -3.8566 C   0  0  0  0  0  0  0  0  0  0  0  0
   35.9555    2.3031   -5.0342 C   0  0  0  0  0  0  0  0  0  0  0  0
   37.5657    0.7776   -4.0156 C   0  0  0  0  0  0  0  0  0  0  0  0
   35.3767    4.6879   -5.2815 C   0  0  0  0  0  0  0  0  0  0  0  0
   36.6380    1.8206   -3.9117 C   0  0  0  0  0  0  0  0  0  0  0  0
   35.6290    1.7498   -1.6698 C   0  0  0  0  0  0  0  0  0  0  0  0
   32.2068    7.3159   -6.4241 C   0  0  0  0  0  0  0  0  0  0  0  0
   35.5649    2.1654   -7.3490 F   0  0  0  0  0  0  0  0  0  0  0  0
   31.0482    6.5631   -4.4321 N   0  0  0  0  0  0  0  0  0  0  0  0
   30.9058    5.8656   -3.2947 N   0  0  0  0  0  0  0  0  0  0  0  0
   34.5068    5.7112   -5.2703 N   0  0  0  0  0  0  0  0  0  0  0  0
   25.5161    8.2146   -4.0497 N   0  0  0  0  0  0  0  0  0  0  0  0
   36.3902    2.3248   -2.6359 N   0  0  0  0  0  0  0  0  0  0  0  0
   35.6277    2.5422   -0.6203 N   0  0  0  0  0  0  0  0  0  0  0  0
   36.4094    3.6171   -0.9730 N   0  0  0  0  0  0  0  0  0  0  0  0
   36.8783    3.4939   -2.2092 N   0  0  0  0  0  0  0  0  0  0  0  0
   34.9181    6.8646   -5.5488 O   0  0  0  0  0  0  0  0  0  0  0  0
   26.3050    5.8669   -4.7782 S   0  0  0  0  0  0  0  0  0  0  0  0
   37.4585   -0.0535   -7.9116 Cl  0  0  0  0  0  0  0  0  0  0  0  0
   33.2701    2.1689   -4.4696 H   0  0  0  0  0  0  0  0  0  0  0  0
   31.6693    4.0930   -4.4634 H   0  0  0  0  0  0  0  0  0  0  0  0
   32.8931    7.4846   -4.4164 H   0  0  0  0  0  0  0  0  0  0  0  0
   32.8447    8.7052   -5.3448 H   0  0  0  0  0  0  0  0  0  0  0  0
   24.0373    6.8747   -4.7469 H   0  0  0  0  0  0  0  0  0  0  0  0
   38.5598   -0.6214   -5.3518 H   0  0  0  0  0  0  0  0  0  0  0  0
   34.1558   10.0208   -7.4994 H   0  0  0  0  0  0  0  0  0  0  0  0
   33.8665    8.8559   -8.4895 H   0  0  0  0  0  0  0  0  0  0  0  0
   31.1046    9.3404   -7.9910 H   0  0  0  0  0  0  0  0  0  0  0  0
   31.3939   10.6575   -7.2156 H   0  0  0  0  0  0  0  0  0  0  0  0
   29.7723    7.6688   -5.8610 H   0  0  0  0  0  0  0  0  0  0  0  0
   29.0863    5.4458   -2.2246 H   0  0  0  0  0  0  0  0  0  0  0  0
   27.4507    9.0111   -3.4539 H   0  0  0  0  0  0  0  0  0  0  0  0
   38.0887    0.4162   -3.1179 H   0  0  0  0  0  0  0  0  0  0  0  0
   36.4316    4.8836   -5.5245 H   0  0  0  0  0  0  0  0  0  0  0  0
   35.1036    0.7868   -1.7511 H   0  0  0  0  0  0  0  0  0  0  0  0
   32.8400    6.7456   -7.1196 H   0  0  0  0  0  0  0  0  0  0  0  0
   31.1567    7.2435   -6.7437 H   0  0  0  0  0  0  0  0  0  0  0  0
  1  2  2  0
  1 18  1  0
  1 20  1  0
  2  3  1  0
  3  4  2  0
  4  5  1  0
  4 27  1  0
  5 23  1  0
  5 25  1  0
  6 12  1  0
  6 13  1  0
  6 23  1  0
  7 14  2  0
  7 15  1  0
  7 16  1  0
  8 28  2  0
  8 34  1  0
  9 10  2  0
  9 18  1  0
  9 24  1  0
 10 11  1  0
 10 35  1  0
 11 19  2  0
 12 13  1  0
 14 25  1  0
 15 26  2  0
 16 17  2  0
 16 34  1  0
 17 28  1  0
 18 21  2  0
 19 21  1  0
 20 27  2  0
 21 29  1  0
 22 29  1  0
 22 30  2  0
 25 26  1  0
 27 33  1  0
 29 32  1  0
 30 31  1  0
 31 32  2  0
  2 36  1  0
  3 37  1  0
  5 38  1  1
  6 39  1  1
  8 40  1  0
 11 41  1  0
 12 42  1  0
 12 43  1  0
 13 44  1  0
 13 45  1  0
 14 46  1  0
 15 47  1  0
 17 48  1  0
 19 49  1  0
 20 50  1  0
 22 51  1  0
 23 52  1  0
 23 53  1  0
M  CHG  2  27   1  33  -1
M  END
>  <filename_input>  (8) 
7V14_ORU_docked.sdf

>  <pdb_id>  (8) 
7V14_ORU

>  <pose_rank>  (8) 
7

>  <num_atoms_heavy>  (8) 
35

>  <num_torsions>  (8) 
7

>  <pose>  (8) 
[34.97791586983565, 3.388822907470817, -4.99417078236798, 1.3934755676791442, 1.112059432925432, 2.315393267746389, 18.588775254814678, 12.183172746932975, 17.365431846334072, -4.501863040138136, -1.7420102783308111, 13.560746604532463, -5.107981537005286]

>  <energy>  (8) 
-983.491015465695

>  <inter_energy>  (8) 
-1015.9988027034025

>  <intra_energy>  (8) 
53.87291872063359

>  <rmsd>  (8) 
9.02942

>  <sdf_rank>  (8) 
0

$$$$

     RDKit          3D

 53 58  0  0  0  0  0  0  0  0999 V2000
   32.1996    6.2836   -5.7137 C   0  0  0  0  0  0  0  0  0  0  0  0
   32.9258    5.9484   -6.8572 C   0  0  0  0  0  0  0  0  0  0  0  0
   33.2382    4.6150   -7.1337 C   0  0  0  0  0  0  0  0  0  0  0  0
   32.8119    3.6313   -6.2504 C   0  0  0  0  0  0  0  0  0  0  0  0
   33.0701    2.1701   -6.4366 C   0  0  1  0  0  0  0  0  0  0  0  0
   34.1170    0.4264   -7.7914 C   0  0  1  0  0  0  0  0  0  0  0  0
   34.5016    1.0094   -3.3719 C   0  0  0  0  0  0  0  0  0  0  0  0
   37.1906    1.4245   -0.6387 C   0  0  0  0  0  0  0  0  0  0  0  0
   32.8151    8.6382   -5.4632 C   0  0  0  0  0  0  0  0  0  0  0  0
   32.5261    9.9719   -5.1707 C   0  0  0  0  0  0  0  0  0  0  0  0
   31.2420   10.3602   -4.7859 C   0  0  0  0  0  0  0  0  0  0  0  0
   34.9448   -0.0887   -8.9382 C   0  0  0  0  0  0  0  0  0  0  0  0
   35.4091   -0.3030   -7.5223 C   0  0  0  0  0  0  0  0  0  0  0  0
   34.4617    1.9331   -4.3977 C   0  0  0  0  0  0  0  0  0  0  0  0
   33.5019    0.0698   -3.6911 C   0  0  0  0  0  0  0  0  0  0  0  0
   35.4365    1.0397   -2.2526 C   0  0  0  0  0  0  0  0  0  0  0  0
   35.3339    0.3307   -1.0751 C   0  0  0  0  0  0  0  0  0  0  0  0
   31.8263    7.6582   -5.3864 C   0  0  0  0  0  0  0  0  0  0  0  0
   30.2456    9.3845   -4.6944 C   0  0  0  0  0  0  0  0  0  0  0  0
   31.8062    5.2443   -4.8804 C   0  0  0  0  0  0  0  0  0  0  0  0
   30.5414    8.0494   -4.9931 C   0  0  0  0  0  0  0  0  0  0  0  0
   29.0616    6.2454   -5.7708 C   0  0  0  0  0  0  0  0  0  0  0  0
   34.0652    1.8889   -7.5374 C   0  0  0  0  0  0  0  0  0  0  0  0
   34.0513    8.2690   -5.8404 F   0  0  0  0  0  0  0  0  0  0  0  0
   33.4689    1.4956   -5.2207 N   0  0  0  0  0  0  0  0  0  0  0  0
   32.8644    0.3632   -4.8300 N   0  0  0  0  0  0  0  0  0  0  0  0
   32.1159    3.9662   -5.1532 N   0  0  0  0  0  0  0  0  0  0  0  0
   36.3415    0.5450   -0.1555 N   0  0  0  0  0  0  0  0  0  0  0  0
   29.5131    7.1213   -4.8368 N   0  0  0  0  0  0  0  0  0  0  0  0
   28.0726    5.5562   -5.2452 N   0  0  0  0  0  0  0  0  0  0  0  0
   27.9330    6.0362   -3.9642 N   0  0  0  0  0  0  0  0  0  0  0  0
   28.8102    6.9992   -3.7063 N   0  0  0  0  0  0  0  0  0  0  0  0
   31.7255    3.0637   -4.3721 O   0  0  0  0  0  0  0  0  0  0  0  0
   36.8430    2.0266   -2.2092 S   0  0  0  0  0  0  0  0  0  0  0  0
   33.7601   11.1711   -5.2760 Cl  0  0  0  0  0  0  0  0  0  0  0  0
   33.2547    6.7402   -7.5463 H   0  0  0  0  0  0  0  0  0  0  0  0
   33.8112    4.3491   -8.0343 H   0  0  0  0  0  0  0  0  0  0  0  0
   32.0970    1.7554   -6.7383 H   0  0  0  0  0  0  0  0  0  0  0  0
   33.0700    0.3053   -7.4766 H   0  0  0  0  0  0  0  0  0  0  0  0
   38.0723    1.7556   -0.0704 H   0  0  0  0  0  0  0  0  0  0  0  0
   31.0186   11.4131   -4.5591 H   0  0  0  0  0  0  0  0  0  0  0  0
   34.5876   -0.9413   -9.5345 H   0  0  0  0  0  0  0  0  0  0  0  0
   35.3854    0.3589   -9.8413 H   0  0  0  0  0  0  0  0  0  0  0  0
   36.2820    0.2468   -7.1404 H   0  0  0  0  0  0  0  0  0  0  0  0
   35.6982   -1.1783   -6.9221 H   0  0  0  0  0  0  0  0  0  0  0  0
   35.0927    2.8254   -4.5225 H   0  0  0  0  0  0  0  0  0  0  0  0
   33.2706   -0.8092   -3.0715 H   0  0  0  0  0  0  0  0  0  0  0  0
   34.5019   -0.3621   -0.8802 H   0  0  0  0  0  0  0  0  0  0  0  0
   29.2276    9.6661   -4.3872 H   0  0  0  0  0  0  0  0  0  0  0  0
   31.2264    5.4738   -3.9742 H   0  0  0  0  0  0  0  0  0  0  0  0
   29.4554    6.1318   -6.7916 H   0  0  0  0  0  0  0  0  0  0  0  0
   33.7550    2.4103   -8.4549 H   0  0  0  0  0  0  0  0  0  0  0  0
   35.0606    2.2454   -7.2338 H   0  0  0  0  0  0  0  0  0  0  0  0
  1  2  2  0
  1 18  1  0
  1 20  1  0
  2  3  1  0
  3  4  2  0
  4  5  1  0
  4 27  1  0
  5 23  1  0
  5 25  1  0
  6 12  1  0
  6 13  1  0
  6 23  1  0
  7 14  2  0
  7 15  1  0
  7 16  1  0
  8 28  2  0
  8 34  1  0
  9 10  2  0
  9 18  1  0
  9 24  1  0
 10 11  1  0
 10 35  1  0
 11 19  2  0
 12 13  1  0
 14 25  1  0
 15 26  2  0
 16 17  2  0
 16 34  1  0
 17 28  1  0
 18 21  2  0
 19 21  1  0
 20 27  2  0
 21 29  1  0
 22 29  1  0
 22 30  2  0
 25 26  1  0
 27 33  1  0
 29 32  1  0
 30 31  1  0
 31 32  2  0
  2 36  1  0
  3 37  1  0
  5 38  1  6
  6 39  1  1
  8 40  1  0
 11 41  1  0
 12 42  1  0
 12 43  1  0
 13 44  1  0
 13 45  1  0
 14 46  1  0
 15 47  1  0
 17 48  1  0
 19 49  1  0
 20 50  1  0
 22 51  1  0
 23 52  1  0
 23 53  1  0
M  CHG  2  27   1  33  -1
M  END
>  <filename_input>  (9) 
7V14_ORU_docked.sdf

>  <pdb_id>  (9) 
7V14_ORU

>  <pose_rank>  (9) 
8

>  <num_atoms_heavy>  (9) 
35

>  <num_torsions>  (9) 
7

>  <pose>  (9) 
[32.19963148259959, 6.283586135268195, -5.713688770217037, -0.5020033974378597, 0.06176062612293362, 5.6244084093647135, -2.7342311559843306, 3.1563743433902864, -5.615433713986499, -2.950257642135076, 2.502738302198694, 0.17098022028566365, 1.6971909061283994]

>  <energy>  (9) 
-604.2312808350255

>  <inter_energy>  (9) 
-715.0835121070163

>  <intra_energy>  (9) 
125.14095764102792

>  <rmsd>  (9) 
3.72522

>  <sdf_rank>  (9) 
0

$$$$

     RDKit          3D

 53 58  0  0  0  0  0  0  0  0999 V2000
   31.3494    6.5464   -5.3007 C   0  0  0  0  0  0  0  0  0  0  0  0
   32.0057    6.8169   -6.5020 C   0  0  0  0  0  0  0  0  0  0  0  0
   33.2225    6.1986   -6.8007 C   0  0  0  0  0  0  0  0  0  0  0  0
   33.7645    5.3101   -5.8806 C   0  0  0  0  0  0  0  0  0  0  0  0
   35.0512    4.5755   -6.0841 C   0  0  1  0  0  0  0  0  0  0  0  0
   34.5342    2.2212   -6.4863 C   0  0  1  0  0  0  0  0  0  0  0  0
   37.3434    7.1674   -6.9875 C   0  0  0  0  0  0  0  0  0  0  0  0
   38.7728   10.4581   -8.4020 C   0  0  0  0  0  0  0  0  0  0  0  0
   28.9286    6.3421   -5.0109 C   0  0  0  0  0  0  0  0  0  0  0  0
   27.6714    6.8496   -4.6798 C   0  0  0  0  0  0  0  0  0  0  0  0
   27.5158    8.1784   -4.2827 C   0  0  0  0  0  0  0  0  0  0  0  0
   33.5521    1.3254   -7.1926 C   0  0  0  0  0  0  0  0  0  0  0  0
   34.9997    0.9232   -7.0966 C   0  0  0  0  0  0  0  0  0  0  0  0
   36.0469    6.7072   -6.8677 C   0  0  0  0  0  0  0  0  0  0  0  0
   38.1494    6.0986   -6.5491 C   0  0  0  0  0  0  0  0  0  0  0  0
   37.7235    8.4763   -7.5072 C   0  0  0  0  0  0  0  0  0  0  0  0
   36.8777    9.5277   -7.7880 C   0  0  0  0  0  0  0  0  0  0  0  0
   30.0651    7.1472   -4.9463 C   0  0  0  0  0  0  0  0  0  0  0  0
   28.6463    8.9978   -4.2253 C   0  0  0  0  0  0  0  0  0  0  0  0
   31.9527    5.6448   -4.4332 C   0  0  0  0  0  0  0  0  0  0  0  0
   29.9048    8.4813   -4.5548 C   0  0  0  0  0  0  0  0  0  0  0  0
   31.0722   10.5601   -5.1588 C   0  0  0  0  0  0  0  0  0  0  0  0
   34.9459    3.4935   -7.1326 C   0  0  0  0  0  0  0  0  0  0  0  0
   29.0758    5.0597   -5.3862 F   0  0  0  0  0  0  0  0  0  0  0  0
   36.1709    5.4437   -6.3753 N   0  0  0  0  0  0  0  0  0  0  0  0
   37.4324    5.0337   -6.1731 N   0  0  0  0  0  0  0  0  0  0  0  0
   33.1249    5.0594   -4.7280 N   0  0  0  0  0  0  0  0  0  0  0  0
   37.4791   10.6639   -8.2923 N   0  0  0  0  0  0  0  0  0  0  0  0
   30.9823    9.3650   -4.5207 N   0  0  0  0  0  0  0  0  0  0  0  0
   32.2494   11.0821   -4.8920 N   0  0  0  0  0  0  0  0  0  0  0  0
   32.8756   10.1719   -4.0732 N   0  0  0  0  0  0  0  0  0  0  0  0
   32.1070    9.1138   -3.8432 N   0  0  0  0  0  0  0  0  0  0  0  0
   33.6212    4.2429   -3.9131 O   0  0  0  0  0  0  0  0  0  0  0  0
   39.3381    8.9162   -7.8995 S   0  0  0  0  0  0  0  0  0  0  0  0
   26.2778    5.8379   -4.7605 Cl  0  0  0  0  0  0  0  0  0  0  0  0
   31.5617    7.5226   -7.2195 H   0  0  0  0  0  0  0  0  0  0  0  0
   33.7416    6.4113   -7.7469 H   0  0  0  0  0  0  0  0  0  0  0  0
   35.2504    4.0965   -5.1141 H   0  0  0  0  0  0  0  0  0  0  0  0
   34.5850    2.6785   -5.4872 H   0  0  0  0  0  0  0  0  0  0  0  0
   39.4536   11.2286   -8.7929 H   0  0  0  0  0  0  0  0  0  0  0  0
   26.5231    8.5728   -4.0201 H   0  0  0  0  0  0  0  0  0  0  0  0
   32.7909    0.7807   -6.6148 H   0  0  0  0  0  0  0  0  0  0  0  0
   32.8346    1.4554   -8.0162 H   0  0  0  0  0  0  0  0  0  0  0  0
   35.6345    0.9341   -7.9949 H   0  0  0  0  0  0  0  0  0  0  0  0
   35.5387    0.0385   -6.7268 H   0  0  0  0  0  0  0  0  0  0  0  0
   35.1187    7.2430   -7.1154 H   0  0  0  0  0  0  0  0  0  0  0  0
   39.2484    6.1356   -6.5192 H   0  0  0  0  0  0  0  0  0  0  0  0
   35.7922    9.4657   -7.6209 H   0  0  0  0  0  0  0  0  0  0  0  0
   28.5470   10.0502   -3.9209 H   0  0  0  0  0  0  0  0  0  0  0  0
   31.4578    5.4042   -3.4807 H   0  0  0  0  0  0  0  0  0  0  0  0
   30.2941   11.0137   -5.7904 H   0  0  0  0  0  0  0  0  0  0  0  0
   34.1971    3.7826   -7.8848 H   0  0  0  0  0  0  0  0  0  0  0  0
   35.9218    3.3589   -7.6221 H   0  0  0  0  0  0  0  0  0  0  0  0
  1  2  2  0
  1 18  1  0
  1 20  1  0
  2  3  1  0
  3  4  2  0
  4  5  1  0
  4 27  1  0
  5 23  1  0
  5 25  1  0
  6 12  1  0
  6 13  1  0
  6 23  1  0
  7 14  2  0
  7 15  1  0
  7 16  1  0
  8 28  2  0
  8 34  1  0
  9 10  2  0
  9 18  1  0
  9 24  1  0
 10 11  1  0
 10 35  1  0
 11 19  2  0
 12 13  1  0
 14 25  1  0
 15 26  2  0
 16 17  2  0
 16 34  1  0
 17 28  1  0
 18 21  2  0
 19 21  1  0
 20 27  2  0
 21 29  1  0
 22 29  1  0
 22 30  2  0
 25 26  1  0
 27 33  1  0
 29 32  1  0
 30 31  1  0
 31 32  2  0
  2 36  1  0
  3 37  1  0
  5 38  1  1
  6 39  1  1
  8 40  1  0
 11 41  1  0
 12 42  1  0
 12 43  1  0
 13 44  1  0
 13 45  1  0
 14 46  1  0
 15 47  1  0
 17 48  1  0
 19 49  1  0
 20 50  1  0
 22 51  1  0
 23 52  1  0
 23 53  1  0
M  CHG  2  27   1  33  -1
M  END
>  <filename_input>  (10) 
7V14_ORU_docked.sdf

>  <pdb_id>  (10) 
7V14_ORU

>  <pose_rank>  (10) 
9

>  <num_atoms_heavy>  (10) 
35

>  <num_torsions>  (10) 
7

>  <pose>  (10) 
[31.349391875667017, 6.546377005184205, -5.300668911009474, -0.009208729469692211, 0.07890477617387491, 0.25245636818118283, -0.054067379111815944, 0.02691638385543707, -0.7693729076067123, -2.4470917608719924, -0.2059200154943697, 1.6046419499187514, 1.1085733457383242]

>  <energy>  (10) 
-809.8711662245444

>  <inter_energy>  (10) 
-871.4030857460646

>  <intra_energy>  (10) 
47.99609919241328

>  <rmsd>  (10) 
4.21701

>  <sdf_rank>  (10) 
0

$$$$

     RDKit          3D

 53 58  0  0  0  0  0  0  0  0999 V2000
   35.0975    4.2846   -6.8201 C   0  0  0  0  0  0  0  0  0  0  0  0
   33.8414    4.0769   -7.3915 C   0  0  0  0  0  0  0  0  0  0  0  0
   32.8608    5.0701   -7.3295 C   0  0  0  0  0  0  0  0  0  0  0  0
   33.1603    6.2665   -6.6901 C   0  0  0  0  0  0  0  0  0  0  0  0
   32.2056    7.4108   -6.5653 C   0  0  1  0  0  0  0  0  0  0  0  0
   32.0961    9.3401   -8.0612 C   0  0  1  0  0  0  0  0  0  0  0  0
   29.0786    7.1065   -4.8572 C   0  0  0  0  0  0  0  0  0  0  0  0
   25.2660    7.3784   -4.3439 C   0  0  0  0  0  0  0  0  0  0  0  0
   36.0917    2.2037   -6.0032 C   0  0  0  0  0  0  0  0  0  0  0  0
   37.0755    1.2137   -6.0062 C   0  0  0  0  0  0  0  0  0  0  0  0
   38.1654    1.2877   -6.8748 C   0  0  0  0  0  0  0  0  0  0  0  0
   33.3310    9.6880   -8.8486 C   0  0  0  0  0  0  0  0  0  0  0  0
   31.9693    9.9696   -9.4256 C   0  0  0  0  0  0  0  0  0  0  0  0
   29.8256    7.6179   -5.9000 C   0  0  0  0  0  0  0  0  0  0  0  0
   29.9886    6.3439   -4.0992 C   0  0  0  0  0  0  0  0  0  0  0  0
   27.6637    7.3771   -4.6281 C   0  0  0  0  0  0  0  0  0  0  0  0
   27.1143    8.5570   -4.1744 C   0  0  0  0  0  0  0  0  0  0  0  0
   36.1671    3.2900   -6.8740 C   0  0  0  0  0  0  0  0  0  0  0  0
   38.2572    2.3781   -7.7440 C   0  0  0  0  0  0  0  0  0  0  0  0
   35.3223    5.5074   -6.2009 C   0  0  0  0  0  0  0  0  0  0  0  0
   37.2650    3.3653   -7.7387 C   0  0  0  0  0  0  0  0  0  0  0  0
   36.9088    4.5963   -9.8379 C   0  0  0  0  0  0  0  0  0  0  0  0
   31.7178    7.9125   -7.9038 C   0  0  0  0  0  0  0  0  0  0  0  0
   35.0397    2.1255   -5.1702 F   0  0  0  0  0  0  0  0  0  0  0  0
   31.0817    7.1320   -5.6985 N   0  0  0  0  0  0  0  0  0  0  0  0
   31.2242    6.3582   -4.6117 N   0  0  0  0  0  0  0  0  0  0  0  0
   34.3710    6.4537   -6.1429 N   0  0  0  0  0  0  0  0  0  0  0  0
   25.7421    8.5599   -4.0195 N   0  0  0  0  0  0  0  0  0  0  0  0
   37.4425    4.4482   -8.5983 N   0  0  0  0  0  0  0  0  0  0  0  0
   37.3265    5.7411  -10.3322 N   0  0  0  0  0  0  0  0  0  0  0  0
   38.1303    6.2876   -9.3594 N   0  0  0  0  0  0  0  0  0  0  0  0
   38.2101    5.4994   -8.2937 N   0  0  0  0  0  0  0  0  0  0  0  0
   34.6307    7.5463   -5.5809 O   0  0  0  0  0  0  0  0  0  0  0  0
   26.4189    6.2151   -4.8611 S   0  0  0  0  0  0  0  0  0  0  0  0
   36.9632   -0.1252   -4.9261 Cl  0  0  0  0  0  0  0  0  0  0  0  0
   33.6217    3.1238   -7.8946 H   0  0  0  0  0  0  0  0  0  0  0  0
   31.8699    4.9078   -7.7787 H   0  0  0  0  0  0  0  0  0  0  0  0
   32.7950    8.2100   -6.0923 H   0  0  0  0  0  0  0  0  0  0  0  0
   31.7286    9.5788   -7.0522 H   0  0  0  0  0  0  0  0  0  0  0  0
   24.1918    7.1481   -4.2875 H   0  0  0  0  0  0  0  0  0  0  0  0
   38.9366    0.5034   -6.8752 H   0  0  0  0  0  0  0  0  0  0  0  0
   33.9734   10.5199   -8.5244 H   0  0  0  0  0  0  0  0  0  0  0  0
   34.2188    9.1336   -9.1868 H   0  0  0  0  0  0  0  0  0  0  0  0
   31.5973    9.3753  -10.2732 H   0  0  0  0  0  0  0  0  0  0  0  0
   31.4635   10.8597   -9.8280 H   0  0  0  0  0  0  0  0  0  0  0  0
   29.4819    8.2732   -6.7139 H   0  0  0  0  0  0  0  0  0  0  0  0
   29.7132    5.7965   -3.1857 H   0  0  0  0  0  0  0  0  0  0  0  0
   27.7300    9.4405   -3.9498 H   0  0  0  0  0  0  0  0  0  0  0  0
   39.1105    2.4607   -8.4333 H   0  0  0  0  0  0  0  0  0  0  0  0
   36.3042    5.7058   -5.7465 H   0  0  0  0  0  0  0  0  0  0  0  0
   36.2418    3.8815  -10.3421 H   0  0  0  0  0  0  0  0  0  0  0  0
   32.1779    7.3198   -8.7081 H   0  0  0  0  0  0  0  0  0  0  0  0
   30.6236    7.8135   -7.9577 H   0  0  0  0  0  0  0  0  0  0  0  0
  1  2  2  0
  1 18  1  0
  1 20  1  0
  2  3  1  0
  3  4  2  0
  4  5  1  0
  4 27  1  0
  5 23  1  0
  5 25  1  0
  6 12  1  0
  6 13  1  0
  6 23  1  0
  7 14  2  0
  7 15  1  0
  7 16  1  0
  8 28  2  0
  8 34  1  0
  9 10  2  0
  9 18  1  0
  9 24  1  0
 10 11  1  0
 10 35  1  0
 11 19  2  0
 12 13  1  0
 14 25  1  0
 15 26  2  0
 16 17  2  0
 16 34  1  0
 17 28  1  0
 18 21  2  0
 19 21  1  0
 20 27  2  0
 21 29  1  0
 22 29  1  0
 22 30  2  0
 25 26  1  0
 27 33  1  0
 29 32  1  0
 30 31  1  0
 31 32  2  0
  2 36  1  0
  3 37  1  0
  5 38  1  1
  6 39  1  1
  8 40  1  0
 11 41  1  0
 12 42  1  0
 12 43  1  0
 13 44  1  0
 13 45  1  0
 14 46  1  0
 15 47  1  0
 17 48  1  0
 19 49  1  0
 20 50  1  0
 22 51  1  0
 23 52  1  0
 23 53  1  0
M  CHG  2  27   1  33  -1
M  END
>  <filename_input>  (11) 
7V14_ORU_docked.sdf

>  <pdb_id>  (11) 
7V14_ORU

>  <pose_rank>  (11) 
10

>  <num_atoms_heavy>  (11) 
35

>  <num_torsions>  (11) 
7

>  <pose>  (11) 
[35.09745034899837, 4.284578295174609, -6.82005141422864, -0.8069466400896134, -0.4045859001279655, -3.11801309700823, -9.533522095899416, 2.6399877917556545, -6.816331757651032, 1.6704881447964781, -1.6405314432735323, 1.074256597623476, -5.9175234014801745]

>  <energy>  (11) 
-825.4319562249458

>  <inter_energy>  (11) 
-835.1457080384745

>  <intra_energy>  (11) 
11.375714828181678

>  <rmsd>  (11) 
9.07777

>  <sdf_rank>  (11) 
0

$$$$

     RDKit          3D

 53 58  0  0  0  0  0  0  0  0999 V2000
   30.1080    6.0365   -4.8028 C   0  0  0  0  0  0  0  0  0  0  0  0
   31.1009    6.3190   -5.7417 C   0  0  0  0  0  0  0  0  0  0  0  0
   32.1557    5.4267   -5.9494 C   0  0  0  0  0  0  0  0  0  0  0  0
   32.1961    4.2544   -5.2050 C   0  0  0  0  0  0  0  0  0  0  0  0
   33.2618    3.2138   -5.3394 C   0  0  1  0  0  0  0  0  0  0  0  0
   33.8564    4.5924   -7.2675 C   0  0  1  0  0  0  0  0  0  0  0  0
   36.0429    3.8415   -3.1807 C   0  0  0  0  0  0  0  0  0  0  0  0
   39.4563    5.0973   -1.8981 C   0  0  0  0  0  0  0  0  0  0  0  0
   27.6895    6.3932   -4.7044 C   0  0  0  0  0  0  0  0  0  0  0  0
   26.5596    7.1815   -4.4814 C   0  0  0  0  0  0  0  0  0  0  0  0
   26.6813    8.5228   -4.1159 C   0  0  0  0  0  0  0  0  0  0  0  0
   35.1371    5.3565   -7.4720 C   0  0  0  0  0  0  0  0  0  0  0  0
   34.3879    4.8163   -8.6608 C   0  0  0  0  0  0  0  0  0  0  0  0
   35.3685    4.0826   -4.3614 C   0  0  0  0  0  0  0  0  0  0  0  0
   35.2624    2.8819   -2.5070 C   0  0  0  0  0  0  0  0  0  0  0  0
   37.3110    4.4534   -2.7997 C   0  0  0  0  0  0  0  0  0  0  0  0
   37.8776    5.5834   -3.3493 C   0  0  0  0  0  0  0  0  0  0  0  0
   28.9713    6.9226   -4.5601 C   0  0  0  0  0  0  0  0  0  0  0  0
   27.9611    9.0673   -3.9796 C   0  0  0  0  0  0  0  0  0  0  0  0
   30.2158    4.8434   -4.0998 C   0  0  0  0  0  0  0  0  0  0  0  0
   29.0901    8.2699   -4.2006 C   0  0  0  0  0  0  0  0  0  0  0  0
   30.6897   10.0932   -4.6077 C   0  0  0  0  0  0  0  0  0  0  0  0
   33.9160    3.2209   -6.7006 C   0  0  0  0  0  0  0  0  0  0  0  0
   27.5687    5.0996   -5.0494 F   0  0  0  0  0  0  0  0  0  0  0  0
   34.2683    3.2824   -4.3028 N   0  0  0  0  0  0  0  0  0  0  0  0
   34.1695    2.5323   -3.1947 N   0  0  0  0  0  0  0  0  0  0  0  0
   31.2366    3.9947   -4.3039 N   0  0  0  0  0  0  0  0  0  0  0  0
   39.1009    5.9559   -2.8279 N   0  0  0  0  0  0  0  0  0  0  0  0
   30.3347    8.8882   -4.0926 N   0  0  0  0  0  0  0  0  0  0  0  0
   31.9504   10.3149   -4.3063 N   0  0  0  0  0  0  0  0  0  0  0  0
   32.3550    9.2112   -3.5927 N   0  0  0  0  0  0  0  0  0  0  0  0
   31.3713    8.3292   -3.4600 N   0  0  0  0  0  0  0  0  0  0  0  0
   31.2798    2.9238   -3.6492 O   0  0  0  0  0  0  0  0  0  0  0  0
   38.3521    3.8188   -1.5884 S   0  0  0  0  0  0  0  0  0  0  0  0
   24.9825    6.5085   -4.6594 Cl  0  0  0  0  0  0  0  0  0  0  0  0
   31.0527    7.2517   -6.3230 H   0  0  0  0  0  0  0  0  0  0  0  0
   32.9396    5.6482   -6.6885 H   0  0  0  0  0  0  0  0  0  0  0  0
   32.7299    2.2587   -5.2182 H   0  0  0  0  0  0  0  0  0  0  0  0
   32.9075    4.7964   -6.7499 H   0  0  0  0  0  0  0  0  0  0  0  0
   40.4054    5.1922   -1.3503 H   0  0  0  0  0  0  0  0  0  0  0  0
   25.7876    9.1392   -3.9386 H   0  0  0  0  0  0  0  0  0  0  0  0
   35.1661    6.4404   -7.2867 H   0  0  0  0  0  0  0  0  0  0  0  0
   36.1661    5.2639   -7.0943 H   0  0  0  0  0  0  0  0  0  0  0  0
   34.8004    3.9732   -9.2344 H   0  0  0  0  0  0  0  0  0  0  0  0
   33.9833    5.2488   -9.5878 H   0  0  0  0  0  0  0  0  0  0  0  0
   35.6565    4.7697   -5.1708 H   0  0  0  0  0  0  0  0  0  0  0  0
   35.5230    2.4654   -1.5228 H   0  0  0  0  0  0  0  0  0  0  0  0
   37.3865    6.1524   -4.1524 H   0  0  0  0  0  0  0  0  0  0  0  0
   28.0814   10.1239   -3.6982 H   0  0  0  0  0  0  0  0  0  0  0  0
   29.4458    4.5872   -3.3572 H   0  0  0  0  0  0  0  0  0  0  0  0
   30.0353   10.7680   -5.1791 H   0  0  0  0  0  0  0  0  0  0  0  0
   34.9663    2.9082   -6.6050 H   0  0  0  0  0  0  0  0  0  0  0  0
   33.3870    2.5237   -7.3670 H   0  0  0  0  0  0  0  0  0  0  0  0
  1  2  2  0
  1 18  1  0
  1 20  1  0
  2  3  1  0
  3  4  2  0
  4  5  1  0
  4 27  1  0
  5 23  1  0
  5 25  1  0
  6 12  1  0
  6 13  1  0
  6 23  1  0
  7 14  2  0
  7 15  1  0
  7 16  1  0
  8 28  2  0
  8 34  1  0
  9 10  2  0
  9 18  1  0
  9 24  1  0
 10 11  1  0
 10 35  1  0
 11 19  2  0
 12 13  1  0
 14 25  1  0
 15 26  2  0
 16 17  2  0
 16 34  1  0
 17 28  1  0
 18 21  2  0
 19 21  1  0
 20 27  2  0
 21 29  1  0
 22 29  1  0
 22 30  2  0
 25 26  1  0
 27 33  1  0
 29 32  1  0
 30 31  1  0
 31 32  2  0
  2 36  1  0
  3 37  1  0
  5 38  1  1
  6 39  1  6
  8 40  1  0
 11 41  1  0
 12 42  1  0
 12 43  1  0
 13 44  1  0
 13 45  1  0
 14 46  1  0
 15 47  1  0
 17 48  1  0
 19 49  1  0
 20 50  1  0
 22 51  1  0
 23 52  1  0
 23 53  1  0
M  CHG  2  27   1  33  -1
M  END
>  <filename_input>  (12) 
7V14_ORU_docked.sdf

>  <pdb_id>  (12) 
7V14_ORU

>  <pose_rank>  (12) 
11

>  <num_atoms_heavy>  (12) 
35

>  <num_torsions>  (12) 
7

>  <pose>  (12) 
[30.108017346474224, 6.0364882311976515, -4.802802733386474, 0.20391315768611423, -0.1823506921998663, -0.03108162261472411, 0.25198249656742583, 0.1757352616753003, 0.03197907929980873, -3.5752689656199705, -0.06908090124817949, 3.6678542811526436, 0.6413854216012977]

>  <energy>  (12) 
-1597.6853598208895

>  <inter_energy>  (12) 
-1752.3325180913607

>  <intra_energy>  (12) 
152.30639654380343

>  <rmsd>  (12) 
1.87692

>  <sdf_rank>  (12) 
0

$$$$

     RDKit          3D

 53 58  0  0  0  0  0  0  0  0999 V2000
   33.7354    6.2307   -6.4286 C   0  0  0  0  0  0  0  0  0  0  0  0
   35.0146    5.8974   -5.9816 C   0  0  0  0  0  0  0  0  0  0  0  0
   35.2533    4.6643   -5.3696 C   0  0  0  0  0  0  0  0  0  0  0  0
   34.1947    3.7780   -5.2161 C   0  0  0  0  0  0  0  0  0  0  0  0
   34.3194    2.4256   -4.5898 C   0  0  1  0  0  0  0  0  0  0  0  0
   34.1943    1.7609   -6.9381 C   0  0  1  0  0  0  0  0  0  0  0  0
   37.0841    2.3935   -2.3219 C   0  0  0  0  0  0  0  0  0  0  0  0
   40.7102    2.0982   -1.0423 C   0  0  0  0  0  0  0  0  0  0  0  0
   34.4905    8.1972   -7.6732 C   0  0  0  0  0  0  0  0  0  0  0  0
   34.2721    9.4087   -8.3307 C   0  0  0  0  0  0  0  0  0  0  0  0
   32.9913    9.9558   -8.4203 C   0  0  0  0  0  0  0  0  0  0  0  0
   35.2014    1.9356   -8.0430 C   0  0  0  0  0  0  0  0  0  0  0  0
   34.2651    0.7569   -8.0609 C   0  0  0  0  0  0  0  0  0  0  0  0
   36.5985    2.4570   -3.6131 C   0  0  0  0  0  0  0  0  0  0  0  0
   35.9392    2.2802   -1.5092 C   0  0  0  0  0  0  0  0  0  0  0  0
   38.4961    2.4024   -1.9560 C   0  0  0  0  0  0  0  0  0  0  0  0
   39.5074    3.0880   -2.5940 C   0  0  0  0  0  0  0  0  0  0  0  0
   33.4332    7.4962   -7.0945 C   0  0  0  0  0  0  0  0  0  0  0  0
   31.9257    9.2676   -7.8340 C   0  0  0  0  0  0  0  0  0  0  0  0
   32.7295    5.2913   -6.2421 C   0  0  0  0  0  0  0  0  0  0  0  0
   32.1512    8.0509   -7.1797 C   0  0  0  0  0  0  0  0  0  0  0  0
   30.6343    7.6040   -5.2960 C   0  0  0  0  0  0  0  0  0  0  0  0
   34.6640    1.3484   -5.5908 C   0  0  0  0  0  0  0  0  0  0  0  0
   35.7244    7.6697   -7.5949 F   0  0  0  0  0  0  0  0  0  0  0  0
   35.2452    2.3878   -3.4791 N   0  0  0  0  0  0  0  0  0  0  0  0
   34.8041    2.2738   -2.2170 N   0  0  0  0  0  0  0  0  0  0  0  0
   32.9689    4.1106   -5.6484 N   0  0  0  0  0  0  0  0  0  0  0  0
   40.7724    2.9201   -2.0663 N   0  0  0  0  0  0  0  0  0  0  0  0
   31.0519    7.4409   -6.5776 N   0  0  0  0  0  0  0  0  0  0  0  0
   29.5767    6.8454   -5.1076 N   0  0  0  0  0  0  0  0  0  0  0  0
   29.3606    6.2145   -6.3103 N   0  0  0  0  0  0  0  0  0  0  0  0
   30.2631    6.5711   -7.2167 N   0  0  0  0  0  0  0  0  0  0  0  0
   32.0255    3.2924   -5.5149 O   0  0  0  0  0  0  0  0  0  0  0  0
   39.1498    1.4985   -0.6484 S   0  0  0  0  0  0  0  0  0  0  0  0
   35.5907   10.2591   -9.0448 Cl  0  0  0  0  0  0  0  0  0  0  0  0
   35.8414    6.6110   -6.1120 H   0  0  0  0  0  0  0  0  0  0  0  0
   36.2609    4.4002   -5.0159 H   0  0  0  0  0  0  0  0  0  0  0  0
   33.3168    2.2150   -4.1892 H   0  0  0  0  0  0  0  0  0  0  0  0
   33.4064    2.3925   -6.5018 H   0  0  0  0  0  0  0  0  0  0  0  0
   41.6054    1.8112   -0.4710 H   0  0  0  0  0  0  0  0  0  0  0  0
   32.8240   10.9096   -8.9420 H   0  0  0  0  0  0  0  0  0  0  0  0
   35.0783    2.7466   -8.7759 H   0  0  0  0  0  0  0  0  0  0  0  0
   36.2933    2.0615   -8.0866 H   0  0  0  0  0  0  0  0  0  0  0  0
   34.6511   -0.2554   -7.8703 H   0  0  0  0  0  0  0  0  0  0  0  0
   33.5451    0.3459   -8.7839 H   0  0  0  0  0  0  0  0  0  0  0  0
   37.1773    2.5443   -4.5444 H   0  0  0  0  0  0  0  0  0  0  0  0
   35.9746    2.2051   -0.4123 H   0  0  0  0  0  0  0  0  0  0  0  0
   39.3187    3.7284   -3.4682 H   0  0  0  0  0  0  0  0  0  0  0  0
   30.9083    9.6825   -7.8868 H   0  0  0  0  0  0  0  0  0  0  0  0
   31.7112    5.5200   -6.5894 H   0  0  0  0  0  0  0  0  0  0  0  0
   31.1004    8.2582   -4.5445 H   0  0  0  0  0  0  0  0  0  0  0  0
   35.7539    1.2010   -5.6110 H   0  0  0  0  0  0  0  0  0  0  0  0
   34.1737    0.4070   -5.3021 H   0  0  0  0  0  0  0  0  0  0  0  0
  1  2  2  0
  1 18  1  0
  1 20  1  0
  2  3  1  0
  3  4  2  0
  4  5  1  0
  4 27  1  0
  5 23  1  0
  5 25  1  0
  6 12  1  0
  6 13  1  0
  6 23  1  0
  7 14  2  0
  7 15  1  0
  7 16  1  0
  8 28  2  0
  8 34  1  0
  9 10  2  0
  9 18  1  0
  9 24  1  0
 10 11  1  0
 10 35  1  0
 11 19  2  0
 12 13  1  0
 14 25  1  0
 15 26  2  0
 16 17  2  0
 16 34  1  0
 17 28  1  0
 18 21  2  0
 19 21  1  0
 20 27  2  0
 21 29  1  0
 22 29  1  0
 22 30  2  0
 25 26  1  0
 27 33  1  0
 29 32  1  0
 30 31  1  0
 31 32  2  0
  2 36  1  0
  3 37  1  0
  5 38  1  1
  6 39  1  1
  8 40  1  0
 11 41  1  0
 12 42  1  0
 12 43  1  0
 13 44  1  0
 13 45  1  0
 14 46  1  0
 15 47  1  0
 17 48  1  0
 19 49  1  0
 20 50  1  0
 22 51  1  0
 23 52  1  0
 23 53  1  0
M  CHG  2  27   1  33  -1
M  END
>  <filename_input>  (13) 
7V14_ORU_docked.sdf

>  <pdb_id>  (13) 
7V14_ORU

>  <pose_rank>  (13) 
12

>  <num_atoms_heavy>  (13) 
35

>  <num_torsions>  (13) 
7

>  <pose>  (13) 
[33.73542881249432, 6.230743337198917, -6.428620392061509, 0.13022175919258472, -1.3008760169916749, -0.3919273559878299, -1.5424259651561878, -0.6351668911195874, -1.084853952669444, -3.340444733802878, 0.229957573466298, 2.72395633796983, 0.726716239005838]

>  <energy>  (13) 
-467.72070254108445

>  <inter_energy>  (13) 
-610.9525808629655

>  <intra_energy>  (13) 
130.44636570128847

>  <rmsd>  (13) 
4.52839

>  <sdf_rank>  (13) 
0

$$$$

     RDKit          3D

 53 58  0  0  0  0  0  0  0  0999 V2000
   34.6534    3.8185   -4.7965 C   0  0  0  0  0  0  0  0  0  0  0  0
   35.0127    5.0354   -5.3773 C   0  0  0  0  0  0  0  0  0  0  0  0
   34.0450    6.0069   -5.6451 C   0  0  0  0  0  0  0  0  0  0  0  0
   32.7209    5.7386   -5.3217 C   0  0  0  0  0  0  0  0  0  0  0  0
   31.5940    6.6960   -5.5457 C   0  0  1  0  0  0  0  0  0  0  0  0
   29.1973    6.9067   -5.1177 C   0  0  1  0  0  0  0  0  0  0  0  0
   32.7828    9.9394   -6.4706 C   0  0  0  0  0  0  0  0  0  0  0  0
   33.9526   12.4629   -9.1421 C   0  0  0  0  0  0  0  0  0  0  0  0
   36.1709    2.7666   -3.1913 C   0  0  0  0  0  0  0  0  0  0  0  0
   37.0999    1.7955   -2.8147 C   0  0  0  0  0  0  0  0  0  0  0  0
   37.5148    0.8124   -3.7141 C   0  0  0  0  0  0  0  0  0  0  0  0
   27.9825    7.0183   -4.2358 C   0  0  0  0  0  0  0  0  0  0  0  0
   28.5941    8.2586   -4.8307 C   0  0  0  0  0  0  0  0  0  0  0  0
   32.5093    8.6273   -6.8033 C   0  0  0  0  0  0  0  0  0  0  0  0
   32.4293   10.0499   -5.1116 C   0  0  0  0  0  0  0  0  0  0  0  0
   33.3563   10.9311   -7.3736 C   0  0  0  0  0  0  0  0  0  0  0  0
   34.4215   11.7653   -7.1104 C   0  0  0  0  0  0  0  0  0  0  0  0
   35.6259    2.7760   -4.4747 C   0  0  0  0  0  0  0  0  0  0  0  0
   36.9839    0.8189   -5.0067 C   0  0  0  0  0  0  0  0  0  0  0  0
   33.3104    3.6254   -4.4993 C   0  0  0  0  0  0  0  0  0  0  0  0
   36.0495    1.7933   -5.3766 C   0  0  0  0  0  0  0  0  0  0  0  0
   34.5387    1.0663   -7.1760 C   0  0  0  0  0  0  0  0  0  0  0  0
   30.5078    6.5730   -4.5036 C   0  0  0  0  0  0  0  0  0  0  0  0
   35.7681    3.7078   -2.3203 F   0  0  0  0  0  0  0  0  0  0  0  0
   32.0215    8.0732   -5.6592 N   0  0  0  0  0  0  0  0  0  0  0  0
   31.9620    8.9028   -4.6063 N   0  0  0  0  0  0  0  0  0  0  0  0
   32.3875    4.5642   -4.7652 N   0  0  0  0  0  0  0  0  0  0  0  0
   34.7674   12.6358   -8.1250 N   0  0  0  0  0  0  0  0  0  0  0  0
   35.5956    1.7695   -6.6944 N   0  0  0  0  0  0  0  0  0  0  0  0
   34.4470    1.2937   -8.4681 N   0  0  0  0  0  0  0  0  0  0  0  0
   35.4778    2.1552   -8.7615 N   0  0  0  0  0  0  0  0  0  0  0  0
   36.1899    2.4495   -7.6800 N   0  0  0  0  0  0  0  0  0  0  0  0
   31.1881    4.3428   -4.4657 O   0  0  0  0  0  0  0  0  0  0  0  0
   32.7498   11.2521   -8.9494 S   0  0  0  0  0  0  0  0  0  0  0  0
   37.7593    1.7961   -1.2218 Cl  0  0  0  0  0  0  0  0  0  0  0  0
   36.0661    5.2313   -5.6262 H   0  0  0  0  0  0  0  0  0  0  0  0
   34.3263    6.9664   -6.1037 H   0  0  0  0  0  0  0  0  0  0  0  0
   31.1727    6.4016   -6.5182 H   0  0  0  0  0  0  0  0  0  0  0  0
   29.4451    6.3374   -6.0257 H   0  0  0  0  0  0  0  0  0  0  0  0
   34.0364   13.0588  -10.0628 H   0  0  0  0  0  0  0  0  0  0  0  0
   38.2452    0.0475   -3.4115 H   0  0  0  0  0  0  0  0  0  0  0  0
   27.0070    6.6594   -4.5959 H   0  0  0  0  0  0  0  0  0  0  0  0
   27.7284    6.6886   -3.2176 H   0  0  0  0  0  0  0  0  0  0  0  0
   29.1268    8.9730   -4.1857 H   0  0  0  0  0  0  0  0  0  0  0  0
   28.2225    9.0914   -5.4458 H   0  0  0  0  0  0  0  0  0  0  0  0
   32.6538    8.1378   -7.7778 H   0  0  0  0  0  0  0  0  0  0  0  0
   32.5268   10.9781   -4.5294 H   0  0  0  0  0  0  0  0  0  0  0  0
   34.9619   11.7393   -6.1526 H   0  0  0  0  0  0  0  0  0  0  0  0
   37.3008    0.0575   -5.7346 H   0  0  0  0  0  0  0  0  0  0  0  0
   32.9948    2.6797   -4.0345 H   0  0  0  0  0  0  0  0  0  0  0  0
   33.8735    0.4179   -6.5868 H   0  0  0  0  0  0  0  0  0  0  0  0
   30.4819    5.5424   -4.1199 H   0  0  0  0  0  0  0  0  0  0  0  0
   30.7130    7.2661   -3.6743 H   0  0  0  0  0  0  0  0  0  0  0  0
  1  2  2  0
  1 18  1  0
  1 20  1  0
  2  3  1  0
  3  4  2  0
  4  5  1  0
  4 27  1  0
  5 23  1  0
  5 25  1  0
  6 12  1  0
  6 13  1  0
  6 23  1  0
  7 14  2  0
  7 15  1  0
  7 16  1  0
  8 28  2  0
  8 34  1  0
  9 10  2  0
  9 18  1  0
  9 24  1  0
 10 11  1  0
 10 35  1  0
 11 19  2  0
 12 13  1  0
 14 25  1  0
 15 26  2  0
 16 17  2  0
 16 34  1  0
 17 28  1  0
 18 21  2  0
 19 21  1  0
 20 27  2  0
 21 29  1  0
 22 29  1  0
 22 30  2  0
 25 26  1  0
 27 33  1  0
 29 32  1  0
 30 31  1  0
 31 32  2  0
  2 36  1  0
  3 37  1  0
  5 38  1  6
  6 39  1  6
  8 40  1  0
 11 41  1  0
 12 42  1  0
 12 43  1  0
 13 44  1  0
 13 45  1  0
 14 46  1  0
 15 47  1  0
 17 48  1  0
 19 49  1  0
 20 50  1  0
 22 51  1  0
 23 52  1  0
 23 53  1  0
M  CHG  2  27   1  33  -1
M  END
>  <filename_input>  (14) 
7V14_ORU_docked.sdf

>  <pdb_id>  (14) 
7V14_ORU

>  <pose_rank>  (14) 
13

>  <num_atoms_heavy>  (14) 
35

>  <num_torsions>  (14) 
7

>  <pose>  (14) 
[34.65343198533288, 3.818509472670151, -4.796512857295564, 1.5139398222286964, 1.5706375456159969, -1.9559723268054952, -6.56565712314774, 2.5007662594041755, 4.181396687990023, -0.6428654573703516, -2.6597223575551334, 0.5766980757503143, 1.926115620559337]

>  <energy>  (14) 
-616.0262102075226

>  <inter_energy>  (14) 
-680.066712220898

>  <intra_energy>  (14) 
67.13622710275389

>  <rmsd>  (14) 
8.8869

>  <sdf_rank>  (14) 
0

$$$$

     RDKit          3D

 53 58  0  0  0  0  0  0  0  0999 V2000
   35.6008    3.3464   -6.0517 C   0  0  0  0  0  0  0  0  0  0  0  0
   35.4559    4.5062   -5.2894 C   0  0  0  0  0  0  0  0  0  0  0  0
   34.2487    5.2096   -5.2904 C   0  0  0  0  0  0  0  0  0  0  0  0
   33.1973    4.7322   -6.0627 C   0  0  0  0  0  0  0  0  0  0  0  0
   31.8535    5.3838   -6.1418 C   0  0  1  0  0  0  0  0  0  0  0  0
   29.7516    5.8835   -4.9999 C   0  0  1  0  0  0  0  0  0  0  0  0
   32.3913    8.7584   -7.1961 C   0  0  0  0  0  0  0  0  0  0  0  0
   33.9535   12.2751   -7.4525 C   0  0  0  0  0  0  0  0  0  0  0  0
   37.4092    2.2824   -7.3101 C   0  0  0  0  0  0  0  0  0  0  0  0
   38.5888    1.5421   -7.4014 C   0  0  0  0  0  0  0  0  0  0  0  0
   39.2190    1.0523   -6.2566 C   0  0  0  0  0  0  0  0  0  0  0  0
   28.7304    5.5505   -3.9454 C   0  0  0  0  0  0  0  0  0  0  0  0
   29.2005    6.9709   -4.1124 C   0  0  0  0  0  0  0  0  0  0  0  0
   32.6723    7.7167   -6.3342 C   0  0  0  0  0  0  0  0  0  0  0  0
   31.4218    8.2460   -8.0801 C   0  0  0  0  0  0  0  0  0  0  0  0
   32.9789   10.0913   -7.1196 C   0  0  0  0  0  0  0  0  0  0  0  0
   33.1563   10.8485   -5.9816 C   0  0  0  0  0  0  0  0  0  0  0  0
   36.8323    2.5595   -6.0713 C   0  0  0  0  0  0  0  0  0  0  0  0
   38.6435    1.3141   -5.0103 C   0  0  0  0  0  0  0  0  0  0  0  0
   34.5039    2.9306   -6.7954 C   0  0  0  0  0  0  0  0  0  0  0  0
   37.4626    2.0607   -4.9256 C   0  0  0  0  0  0  0  0  0  0  0  0
   35.8685    1.5732   -3.1173 C   0  0  0  0  0  0  0  0  0  0  0  0
   31.1603    5.4562   -4.8020 C   0  0  0  0  0  0  0  0  0  0  0  0
   36.8088    2.7587   -8.4143 F   0  0  0  0  0  0  0  0  0  0  0  0
   31.8825    6.6918   -6.7587 N   0  0  0  0  0  0  0  0  0  0  0  0
   31.1031    6.9744   -7.8137 N   0  0  0  0  0  0  0  0  0  0  0  0
   33.3494    3.6169   -6.7929 N   0  0  0  0  0  0  0  0  0  0  0  0
   33.7211   12.0943   -6.1714 N   0  0  0  0  0  0  0  0  0  0  0  0
   36.9182    2.2454   -3.6557 N   0  0  0  0  0  0  0  0  0  0  0  0
   35.6493    2.0495   -1.9112 N   0  0  0  0  0  0  0  0  0  0  0  0
   36.5946    3.0314   -1.7288 N   0  0  0  0  0  0  0  0  0  0  0  0
   37.3749    3.1609   -2.7954 N   0  0  0  0  0  0  0  0  0  0  0  0
   32.3847    3.1905   -7.4746 O   0  0  0  0  0  0  0  0  0  0  0  0
   33.5279   10.9732   -8.4888 S   0  0  0  0  0  0  0  0  0  0  0  0
   39.2908    1.2136   -8.9413 Cl  0  0  0  0  0  0  0  0  0  0  0  0
   36.2986    4.8695   -4.6830 H   0  0  0  0  0  0  0  0  0  0  0  0
   34.1330    6.1245   -4.6907 H   0  0  0  0  0  0  0  0  0  0  0  0
   31.2666    4.7241   -6.7978 H   0  0  0  0  0  0  0  0  0  0  0  0
   29.8245    5.7215   -6.0855 H   0  0  0  0  0  0  0  0  0  0  0  0
   34.3948   13.2059   -7.8383 H   0  0  0  0  0  0  0  0  0  0  0  0
   40.1501    0.4716   -6.3337 H   0  0  0  0  0  0  0  0  0  0  0  0
   27.7076    5.2718   -4.2392 H   0  0  0  0  0  0  0  0  0  0  0  0
   28.6829    4.8412   -3.1059 H   0  0  0  0  0  0  0  0  0  0  0  0
   29.8402    7.4324   -3.3458 H   0  0  0  0  0  0  0  0  0  0  0  0
   28.7068    7.9390   -4.2829 H   0  0  0  0  0  0  0  0  0  0  0  0
   33.3784    7.7151   -5.4907 H   0  0  0  0  0  0  0  0  0  0  0  0
   30.9754    8.8279   -8.8999 H   0  0  0  0  0  0  0  0  0  0  0  0
   32.8663   10.4835   -4.9852 H   0  0  0  0  0  0  0  0  0  0  0  0
   39.1192    0.9330   -4.0946 H   0  0  0  0  0  0  0  0  0  0  0  0
   34.5827    2.0162   -7.4018 H   0  0  0  0  0  0  0  0  0  0  0  0
   35.2993    0.7686   -3.6059 H   0  0  0  0  0  0  0  0  0  0  0  0
   31.1800    4.4656   -4.3242 H   0  0  0  0  0  0  0  0  0  0  0  0
   31.6782    6.1823   -4.1582 H   0  0  0  0  0  0  0  0  0  0  0  0
  1  2  2  0
  1 18  1  0
  1 20  1  0
  2  3  1  0
  3  4  2  0
  4  5  1  0
  4 27  1  0
  5 23  1  0
  5 25  1  0
  6 12  1  0
  6 13  1  0
  6 23  1  0
  7 14  2  0
  7 15  1  0
  7 16  1  0
  8 28  2  0
  8 34  1  0
  9 10  2  0
  9 18  1  0
  9 24  1  0
 10 11  1  0
 10 35  1  0
 11 19  2  0
 12 13  1  0
 14 25  1  0
 15 26  2  0
 16 17  2  0
 16 34  1  0
 17 28  1  0
 18 21  2  0
 19 21  1  0
 20 27  2  0
 21 29  1  0
 22 29  1  0
 22 30  2  0
 25 26  1  0
 27 33  1  0
 29 32  1  0
 30 31  1  0
 31 32  2  0
  2 36  1  0
  3 37  1  0
  5 38  1  6
  6 39  1  6
  8 40  1  0
 11 41  1  0
 12 42  1  0
 12 43  1  0
 13 44  1  0
 13 45  1  0
 14 46  1  0
 15 47  1  0
 17 48  1  0
 19 49  1  0
 20 50  1  0
 22 51  1  0
 23 52  1  0
 23 53  1  0
M  CHG  2  27   1  33  -1
M  END
>  <filename_input>  (15) 
7V14_ORU_docked.sdf

>  <pdb_id>  (15) 
7V14_ORU

>  <pose_rank>  (15) 
14

>  <num_atoms_heavy>  (15) 
35

>  <num_torsions>  (15) 
7

>  <pose>  (15) 
[35.60081939849481, 3.346385249133447, -6.051668775431236, -1.8665280097335966, -2.6933693313752727, 0.5809135897349362, -10.38799028070161, 11.754957005893585, -6.8608916092330094, 3.244476652171323, -1.1451851240246278, 0.20579669915547755, -4.879899414179742]

>  <energy>  (15) 
-530.3061201574128

>  <inter_energy>  (15) 
-588.5550738858245

>  <intra_energy>  (15) 
43.85401379428937

>  <rmsd>  (15) 
8.98621

>  <sdf_rank>  (15) 
0

$$$$

     RDKit          3D

 53 58  0  0  0  0  0  0  0  0999 V2000
   34.0646    3.6786   -5.6100 C   0  0  0  0  0  0  0  0  0  0  0  0
   33.6095    4.2983   -4.4455 C   0  0  0  0  0  0  0  0  0  0  0  0
   32.7116    5.3665   -4.5146 C   0  0  0  0  0  0  0  0  0  0  0  0
   32.2808    5.7981   -5.7628 C   0  0  0  0  0  0  0  0  0  0  0  0
   31.3148    6.9202   -5.9729 C   0  0  1  0  0  0  0  0  0  0  0  0
   29.2929    5.7591   -5.2411 C   0  0  1  0  0  0  0  0  0  0  0  0
   33.1828    9.9024   -6.6099 C   0  0  0  0  0  0  0  0  0  0  0  0
   35.7294   12.3764   -8.1156 C   0  0  0  0  0  0  0  0  0  0  0  0
   34.5426    1.3372   -6.1348 C   0  0  0  0  0  0  0  0  0  0  0  0
   35.3731    0.2159   -6.1599 C   0  0  0  0  0  0  0  0  0  0  0  0
   36.6670    0.2693   -5.6397 C   0  0  0  0  0  0  0  0  0  0  0  0
   28.8297    4.9052   -4.0912 C   0  0  0  0  0  0  0  0  0  0  0  0
   27.8612    5.8339   -4.7737 C   0  0  0  0  0  0  0  0  0  0  0  0
   32.8560    8.6029   -6.9439 C   0  0  0  0  0  0  0  0  0  0  0  0
   32.4160   10.1855   -5.4628 C   0  0  0  0  0  0  0  0  0  0  0  0
   34.1564   10.7292   -7.3141 C   0  0  0  0  0  0  0  0  0  0  0  0
   34.8154   10.4106   -8.4821 C   0  0  0  0  0  0  0  0  0  0  0  0
   34.9862    2.5444   -5.5961 C   0  0  0  0  0  0  0  0  0  0  0  0
   37.1182    1.4708   -5.0868 C   0  0  0  0  0  0  0  0  0  0  0  0
   33.5864    4.1649   -6.8200 C   0  0  0  0  0  0  0  0  0  0  0  0
   36.2816    2.5928   -5.0686 C   0  0  0  0  0  0  0  0  0  0  0  0
   36.9358    3.9564   -3.1290 C   0  0  0  0  0  0  0  0  0  0  0  0
   30.1861    6.9143   -4.9694 C   0  0  0  0  0  0  0  0  0  0  0  0
   33.2994    1.2841   -6.6432 F   0  0  0  0  0  0  0  0  0  0  0  0
   31.9429    8.2227   -6.0080 N   0  0  0  0  0  0  0  0  0  0  0  0
   31.6523    9.1537   -5.0865 N   0  0  0  0  0  0  0  0  0  0  0  0
   32.7269    5.1955   -6.8754 N   0  0  0  0  0  0  0  0  0  0  0  0
   35.7091   11.3564   -8.9445 N   0  0  0  0  0  0  0  0  0  0  0  0
   36.7782    3.7449   -4.4609 N   0  0  0  0  0  0  0  0  0  0  0  0
   37.4126    5.1700   -2.9582 N   0  0  0  0  0  0  0  0  0  0  0  0
   37.5414    5.6934   -4.2232 N   0  0  0  0  0  0  0  0  0  0  0  0
   37.1510    4.8274   -5.1511 N   0  0  0  0  0  0  0  0  0  0  0  0
   32.3168    5.5884   -7.9955 O   0  0  0  0  0  0  0  0  0  0  0  0
   34.6810   12.2692   -6.7594 S   0  0  0  0  0  0  0  0  0  0  0  0
   34.8095   -1.2670   -6.8347 Cl  0  0  0  0  0  0  0  0  0  0  0  0
   33.9604    3.9429   -3.4654 H   0  0  0  0  0  0  0  0  0  0  0  0
   32.3524    5.8566   -3.5976 H   0  0  0  0  0  0  0  0  0  0  0  0
   30.8896    6.7335   -6.9701 H   0  0  0  0  0  0  0  0  0  0  0  0
   29.7934    5.5605   -6.2003 H   0  0  0  0  0  0  0  0  0  0  0  0
   36.3799   13.2479   -8.2809 H   0  0  0  0  0  0  0  0  0  0  0  0
   37.3186   -0.6165   -5.6644 H   0  0  0  0  0  0  0  0  0  0  0  0
   28.7311    3.8172   -4.2193 H   0  0  0  0  0  0  0  0  0  0  0  0
   29.1608    4.7535   -3.0532 H   0  0  0  0  0  0  0  0  0  0  0  0
   27.4991    6.7319   -4.2515 H   0  0  0  0  0  0  0  0  0  0  0  0
   26.8786    5.7175   -5.2542 H   0  0  0  0  0  0  0  0  0  0  0  0
   33.2470    8.0064   -7.7814 H   0  0  0  0  0  0  0  0  0  0  0  0
   32.4423   11.1498   -4.9341 H   0  0  0  0  0  0  0  0  0  0  0  0
   34.6404    9.4628   -9.0123 H   0  0  0  0  0  0  0  0  0  0  0  0
   38.1323    1.5349   -4.6653 H   0  0  0  0  0  0  0  0  0  0  0  0
   33.9201    3.6941   -7.7565 H   0  0  0  0  0  0  0  0  0  0  0  0
   36.7044    3.2364   -2.3303 H   0  0  0  0  0  0  0  0  0  0  0  0
   30.5985    6.8287   -3.9532 H   0  0  0  0  0  0  0  0  0  0  0  0
   29.6138    7.8499   -5.0534 H   0  0  0  0  0  0  0  0  0  0  0  0
  1  2  2  0
  1 18  1  0
  1 20  1  0
  2  3  1  0
  3  4  2  0
  4  5  1  0
  4 27  1  0
  5 23  1  0
  5 25  1  0
  6 12  1  0
  6 13  1  0
  6 23  1  0
  7 14  2  0
  7 15  1  0
  7 16  1  0
  8 28  2  0
  8 34  1  0
  9 10  2  0
  9 18  1  0
  9 24  1  0
 10 11  1  0
 10 35  1  0
 11 19  2  0
 12 13  1  0
 14 25  1  0
 15 26  2  0
 16 17  2  0
 16 34  1  0
 17 28  1  0
 18 21  2  0
 19 21  1  0
 20 27  2  0
 21 29  1  0
 22 29  1  0
 22 30  2  0
 25 26  1  0
 27 33  1  0
 29 32  1  0
 30 31  1  0
 31 32  2  0
  2 36  1  0
  3 37  1  0
  5 38  1  6
  6 39  1  6
  8 40  1  0
 11 41  1  0
 12 42  1  0
 12 43  1  0
 13 44  1  0
 13 45  1  0
 14 46  1  0
 15 47  1  0
 17 48  1  0
 19 49  1  0
 20 50  1  0
 22 51  1  0
 23 52  1  0
 23 53  1  0
M  CHG  2  27   1  33  -1
M  END
>  <filename_input>  (16) 
7V14_ORU_docked.sdf

>  <pdb_id>  (16) 
7V14_ORU

>  <pose_rank>  (16) 
15

>  <num_atoms_heavy>  (16) 
35

>  <num_torsions>  (16) 
7

>  <pose>  (16) 
[34.064630517234846, 3.6786382357272176, -5.610018157363789, -2.3711129989905144, -2.2785173329838515, -0.7698781455523519, 0.16067398652174972, -0.3242554597622458, -0.22873240138664758, -0.9807300219253949, -0.2628200421866058, -4.335450539710079, 1.0046152256509608]

>  <energy>  (16) 
-646.7259881735015

>  <inter_energy>  (16) 
-649.394111331672

>  <intra_energy>  (16) 
29.87665058737804

>  <rmsd>  (16) 
8.23199

>  <sdf_rank>  (16) 
0

$$$$

     RDKit          3D

 53 58  0  0  0  0  0  0  0  0999 V2000
   31.5879   10.8257   -9.7605 C   0  0  0  0  0  0  0  0  0  0  0  0
   30.5213   10.0490   -9.3061 C   0  0  0  0  0  0  0  0  0  0  0  0
   30.6977    9.1483   -8.2527 C   0  0  0  0  0  0  0  0  0  0  0  0
   31.9528    9.0420   -7.6670 C   0  0  0  0  0  0  0  0  0  0  0  0
   32.2700    8.1268   -6.5274 C   0  0  1  0  0  0  0  0  0  0  0  0
   31.9098    9.7989   -4.7821 C   0  0  1  0  0  0  0  0  0  0  0  0
   29.1692    6.7954   -5.3438 C   0  0  0  0  0  0  0  0  0  0  0  0
   25.5189    6.5777   -4.1188 C   0  0  0  0  0  0  0  0  0  0  0  0
   30.2300   11.8755  -11.5040 C   0  0  0  0  0  0  0  0  0  0  0  0
   30.0324   12.7867  -12.5426 C   0  0  0  0  0  0  0  0  0  0  0  0
   31.0574   13.6400  -12.9533 C   0  0  0  0  0  0  0  0  0  0  0  0
   32.0597   10.2314   -3.3482 C   0  0  0  0  0  0  0  0  0  0  0  0
   32.3682   11.1988   -4.4596 C   0  0  0  0  0  0  0  0  0  0  0  0
   29.9587    7.8826   -5.6628 C   0  0  0  0  0  0  0  0  0  0  0  0
   29.9778    5.6717   -5.6037 C   0  0  0  0  0  0  0  0  0  0  0  0
   27.8125    6.8715   -4.8137 C   0  0  0  0  0  0  0  0  0  0  0  0
   27.2958    7.8684   -4.0144 C   0  0  0  0  0  0  0  0  0  0  0  0
   31.4553   11.7985  -10.8431 C   0  0  0  0  0  0  0  0  0  0  0  0
   32.2934   13.5637  -12.3057 C   0  0  0  0  0  0  0  0  0  0  0  0
   32.8112   10.6649   -9.1226 C   0  0  0  0  0  0  0  0  0  0  0  0
   32.4836   12.6505  -11.2621 C   0  0  0  0  0  0  0  0  0  0  0  0
   34.1827   13.2757   -9.5974 C   0  0  0  0  0  0  0  0  0  0  0  0
   32.8952    8.8476   -5.3567 C   0  0  0  0  0  0  0  0  0  0  0  0
   29.2383   11.0600  -11.1063 F   0  0  0  0  0  0  0  0  0  0  0  0
   31.1370    7.3450   -6.0833 N   0  0  0  0  0  0  0  0  0  0  0  0
   31.1915    6.0046   -6.0572 N   0  0  0  0  0  0  0  0  0  0  0  0
   32.9711    9.7927   -8.1138 N   0  0  0  0  0  0  0  0  0  0  0  0
   25.9815    7.7041   -3.6237 N   0  0  0  0  0  0  0  0  0  0  0  0
   33.7540   12.5948  -10.6911 N   0  0  0  0  0  0  0  0  0  0  0  0
   35.4440   12.9677   -9.3886 N   0  0  0  0  0  0  0  0  0  0  0  0
   35.7732   12.0798  -10.3857 N   0  0  0  0  0  0  0  0  0  0  0  0
   34.7435   11.8482  -11.1915 N   0  0  0  0  0  0  0  0  0  0  0  0
   34.0961    9.6951   -7.5643 O   0  0  0  0  0  0  0  0  0  0  0  0
   26.6135    5.6694   -5.0814 S   0  0  0  0  0  0  0  0  0  0  0  0
   28.5090   12.8716  -13.3450 Cl  0  0  0  0  0  0  0  0  0  0  0  0
   29.5339   10.1467   -9.7809 H   0  0  0  0  0  0  0  0  0  0  0  0
   29.8582    8.5347   -7.8938 H   0  0  0  0  0  0  0  0  0  0  0  0
   33.0127    7.4260   -6.9365 H   0  0  0  0  0  0  0  0  0  0  0  0
   31.0955    9.3599   -5.3772 H   0  0  0  0  0  0  0  0  0  0  0  0
   24.4907    6.2367   -3.9278 H   0  0  0  0  0  0  0  0  0  0  0  0
   30.8957   14.3584  -13.7705 H   0  0  0  0  0  0  0  0  0  0  0  0
   31.1672   10.3795   -2.7225 H   0  0  0  0  0  0  0  0  0  0  0  0
   32.6093    9.8502   -2.4748 H   0  0  0  0  0  0  0  0  0  0  0  0
   33.4087   11.4963   -4.6572 H   0  0  0  0  0  0  0  0  0  0  0  0
   32.0285   12.2101   -4.7278 H   0  0  0  0  0  0  0  0  0  0  0  0
   29.6940    8.9480   -5.5927 H   0  0  0  0  0  0  0  0  0  0  0  0
   29.6473    4.6337   -5.4506 H   0  0  0  0  0  0  0  0  0  0  0  0
   27.8926    8.7399   -3.7072 H   0  0  0  0  0  0  0  0  0  0  0  0
   33.1180   14.2222  -12.6164 H   0  0  0  0  0  0  0  0  0  0  0  0
   33.6708   11.2671   -9.4520 H   0  0  0  0  0  0  0  0  0  0  0  0
   33.5787   13.9662   -8.9904 H   0  0  0  0  0  0  0  0  0  0  0  0
   33.1898    8.1161   -4.5898 H   0  0  0  0  0  0  0  0  0  0  0  0
   33.7845    9.3989   -5.6960 H   0  0  0  0  0  0  0  0  0  0  0  0
  1  2  2  0
  1 18  1  0
  1 20  1  0
  2  3  1  0
  3  4  2  0
  4  5  1  0
  4 27  1  0
  5 23  1  0
  5 25  1  0
  6 12  1  0
  6 13  1  0
  6 23  1  0
  7 14  2  0
  7 15  1  0
  7 16  1  0
  8 28  2  0
  8 34  1  0
  9 10  2  0
  9 18  1  0
  9 24  1  0
 10 11  1  0
 10 35  1  0
 11 19  2  0
 12 13  1  0
 14 25  1  0
 15 26  2  0
 16 17  2  0
 16 34  1  0
 17 28  1  0
 18 21  2  0
 19 21  1  0
 20 27  2  0
 21 29  1  0
 22 29  1  0
 22 30  2  0
 25 26  1  0
 27 33  1  0
 29 32  1  0
 30 31  1  0
 31 32  2  0
  2 36  1  0
  3 37  1  0
  5 38  1  6
  6 39  1  1
  8 40  1  0
 11 41  1  0
 12 42  1  0
 12 43  1  0
 13 44  1  0
 13 45  1  0
 14 46  1  0
 15 47  1  0
 17 48  1  0
 19 49  1  0
 20 50  1  0
 22 51  1  0
 23 52  1  0
 23 53  1  0
M  CHG  2  27   1  33  -1
M  END
>  <filename_input>  (17) 
7V14_ORU_docked.sdf

>  <pdb_id>  (17) 
7V14_ORU

>  <pose_rank>  (17) 
16

>  <num_atoms_heavy>  (17) 
35

>  <num_torsions>  (17) 
7

>  <pose>  (17) 
[31.58787210133455, 10.825651256866026, -9.760463009528625, 2.5864898576835658, -2.27629088961571, 1.7720264604235558, -1.9815363751974675, -3.693627784355067, -1.7221348083305066, -3.070200776574327, -0.9089369568272571, -1.976129634024351, 1.3862886497793485]

>  <energy>  (17) 
-430.6865120473212

>  <inter_energy>  (17) 
-605.1769054457169

>  <intra_energy>  (17) 
170.93820224514997

>  <rmsd>  (17) 
8.75788

>  <sdf_rank>  (17) 
0

$$$$

     RDKit          3D

 53 58  0  0  0  0  0  0  0  0999 V2000
   33.5509    9.7365   -8.5505 C   0  0  0  0  0  0  0  0  0  0  0  0
   32.9651    8.6979   -9.2753 C   0  0  0  0  0  0  0  0  0  0  0  0
   32.7896    7.4389   -8.6954 C   0  0  0  0  0  0  0  0  0  0  0  0
   33.2079    7.2420   -7.3854 C   0  0  0  0  0  0  0  0  0  0  0  0
   33.0671    5.9491   -6.6471 C   0  0  1  0  0  0  0  0  0  0  0  0
   34.6624    4.1933   -6.0606 C   0  0  1  0  0  0  0  0  0  0  0  0
   29.9117    6.2947   -5.0001 C   0  0  0  0  0  0  0  0  0  0  0  0
   26.7012    8.3144   -4.3029 C   0  0  0  0  0  0  0  0  0  0  0  0
   33.1711   12.1494   -8.4107 C   0  0  0  0  0  0  0  0  0  0  0  0
   33.3175   13.4575   -8.8748 C   0  0  0  0  0  0  0  0  0  0  0  0
   34.0292   13.7285  -10.0442 C   0  0  0  0  0  0  0  0  0  0  0  0
   36.1185    3.8310   -6.1804 C   0  0  0  0  0  0  0  0  0  0  0  0
   35.3463    3.4374   -4.9494 C   0  0  0  0  0  0  0  0  0  0  0  0
   30.8061    6.7080   -5.9676 C   0  0  0  0  0  0  0  0  0  0  0  0
   30.5563    5.2290   -4.3422 C   0  0  0  0  0  0  0  0  0  0  0  0
   28.6131    6.9070   -4.7427 C   0  0  0  0  0  0  0  0  0  0  0  0
   27.3874    6.2769   -4.7634 C   0  0  0  0  0  0  0  0  0  0  0  0
   33.7391   11.0781   -9.0990 C   0  0  0  0  0  0  0  0  0  0  0  0
   34.5932   12.6614  -10.7486 C   0  0  0  0  0  0  0  0  0  0  0  0
   33.9406    9.4632   -7.2456 C   0  0  0  0  0  0  0  0  0  0  0  0
   34.4460   11.3524  -10.2753 C   0  0  0  0  0  0  0  0  0  0  0  0
   34.4482    9.7751  -12.1624 C   0  0  0  0  0  0  0  0  0  0  0  0
   34.2876    5.6109   -5.8243 C   0  0  0  0  0  0  0  0  0  0  0  0
   32.4909   11.8926   -7.2801 F   0  0  0  0  0  0  0  0  0  0  0  0
   31.8784    5.8808   -5.8257 N   0  0  0  0  0  0  0  0  0  0  0  0
   31.7689    4.9715   -4.8451 N   0  0  0  0  0  0  0  0  0  0  0  0
   33.7715    8.2479   -6.6993 N   0  0  0  0  0  0  0  0  0  0  0  0
   26.2947    7.0805   -4.5040 N   0  0  0  0  0  0  0  0  0  0  0  0
   34.9940   10.3318  -11.0508 N   0  0  0  0  0  0  0  0  0  0  0  0
   35.2601    8.8345  -12.5932 N   0  0  0  0  0  0  0  0  0  0  0  0
   36.3167    8.8327  -11.7130 N   0  0  0  0  0  0  0  0  0  0  0  0
   36.1600    9.7455  -10.7615 N   0  0  0  0  0  0  0  0  0  0  0  0
   34.1313    8.0577   -5.5112 O   0  0  0  0  0  0  0  0  0  0  0  0
   28.3959    8.5766   -4.3970 S   0  0  0  0  0  0  0  0  0  0  0  0
   32.6127   14.7703   -8.0079 Cl  0  0  0  0  0  0  0  0  0  0  0  0
   32.6389    8.8717  -10.3113 H   0  0  0  0  0  0  0  0  0  0  0  0
   32.3288    6.6188   -9.2655 H   0  0  0  0  0  0  0  0  0  0  0  0
   32.9642    5.1912   -7.4376 H   0  0  0  0  0  0  0  0  0  0  0  0
   33.7705    4.0311   -6.6837 H   0  0  0  0  0  0  0  0  0  0  0  0
   25.9969    9.1313   -4.0869 H   0  0  0  0  0  0  0  0  0  0  0  0
   34.1441   14.7615  -10.4043 H   0  0  0  0  0  0  0  0  0  0  0  0
   36.4361    3.0615   -6.8994 H   0  0  0  0  0  0  0  0  0  0  0  0
   37.0458    4.3915   -6.3700 H   0  0  0  0  0  0  0  0  0  0  0  0
   35.5500    3.9349   -3.9897 H   0  0  0  0  0  0  0  0  0  0  0  0
   35.1562    2.4927   -4.4190 H   0  0  0  0  0  0  0  0  0  0  0  0
   30.6802    7.5253   -6.6930 H   0  0  0  0  0  0  0  0  0  0  0  0
   30.1113    4.6696   -3.5061 H   0  0  0  0  0  0  0  0  0  0  0  0
   27.2859    5.2019   -4.9733 H   0  0  0  0  0  0  0  0  0  0  0  0
   35.1534   12.8504  -11.6761 H   0  0  0  0  0  0  0  0  0  0  0  0
   34.3993   10.2621   -6.6445 H   0  0  0  0  0  0  0  0  0  0  0  0
   33.4914   10.0616  -12.6234 H   0  0  0  0  0  0  0  0  0  0  0  0
   35.1216    6.2653   -6.1182 H   0  0  0  0  0  0  0  0  0  0  0  0
   34.0653    5.7601   -4.7573 H   0  0  0  0  0  0  0  0  0  0  0  0
  1  2  2  0
  1 18  1  0
  1 20  1  0
  2  3  1  0
  3  4  2  0
  4  5  1  0
  4 27  1  0
  5 23  1  0
  5 25  1  0
  6 12  1  0
  6 13  1  0
  6 23  1  0
  7 14  2  0
  7 15  1  0
  7 16  1  0
  8 28  2  0
  8 34  1  0
  9 10  2  0
  9 18  1  0
  9 24  1  0
 10 11  1  0
 10 35  1  0
 11 19  2  0
 12 13  1  0
 14 25  1  0
 15 26  2  0
 16 17  2  0
 16 34  1  0
 17 28  1  0
 18 21  2  0
 19 21  1  0
 20 27  2  0
 21 29  1  0
 22 29  1  0
 22 30  2  0
 25 26  1  0
 27 33  1  0
 29 32  1  0
 30 31  1  0
 31 32  2  0
  2 36  1  0
  3 37  1  0
  5 38  1  6
  6 39  1  6
  8 40  1  0
 11 41  1  0
 12 42  1  0
 12 43  1  0
 13 44  1  0
 13 45  1  0
 14 46  1  0
 15 47  1  0
 17 48  1  0
 19 49  1  0
 20 50  1  0
 22 51  1  0
 23 52  1  0
 23 53  1  0
M  CHG  2  27   1  33  -1
M  END
>  <filename_input>  (18) 
7V14_ORU_docked.sdf

>  <pdb_id>  (18) 
7V14_ORU

>  <pose_rank>  (18) 
17

>  <num_atoms_heavy>  (18) 
35

>  <num_torsions>  (18) 
7

>  <pose>  (18) 
[33.550921660296275, 9.73648965042124, -8.5504857636923, 2.7570448381171158, -2.1570174611167308, 3.2598371518930835, 0.24539031232745698, -0.4403922462341909, -3.390769928140067, -1.7688024656329429, 1.7768639238644093, 0.846470446619227, 1.098535624562311]

>  <energy>  (18) 
-472.16871916084017

>  <inter_energy>  (18) 
-536.9631927627547

>  <intra_energy>  (18) 
80.07930725306143

>  <rmsd>  (18) 
7.86377

>  <sdf_rank>  (18) 
0

$$$$

     RDKit          3D

 53 58  0  0  0  0  0  0  0  0999 V2000
   34.8634    2.7072   -6.1537 C   0  0  0  0  0  0  0  0  0  0  0  0
   33.5988    2.3962   -6.6551 C   0  0  0  0  0  0  0  0  0  0  0  0
   32.5413    3.2996   -6.5228 C   0  0  0  0  0  0  0  0  0  0  0  0
   32.7731    4.5115   -5.8845 C   0  0  0  0  0  0  0  0  0  0  0  0
   31.7320    5.5672   -5.6888 C   0  0  1  0  0  0  0  0  0  0  0  0
   29.9356    6.0339   -4.0992 C   0  0  1  0  0  0  0  0  0  0  0  0
   32.6590    8.2958   -7.8063 C   0  0  0  0  0  0  0  0  0  0  0  0
   33.8658   10.3260  -10.8550 C   0  0  0  0  0  0  0  0  0  0  0  0
   36.4641    1.5136   -7.5677 C   0  0  0  0  0  0  0  0  0  0  0  0
   37.5582    0.6696   -7.7636 C   0  0  0  0  0  0  0  0  0  0  0  0
   38.2228    0.0930   -6.6803 C   0  0  0  0  0  0  0  0  0  0  0  0
   29.0402    5.7886   -5.2840 C   0  0  0  0  0  0  0  0  0  0  0  0
   29.0071    4.8458   -4.1109 C   0  0  0  0  0  0  0  0  0  0  0  0
   32.4624    6.9418   -7.6192 C   0  0  0  0  0  0  0  0  0  0  0  0
   32.3537    8.8816   -6.5622 C   0  0  0  0  0  0  0  0  0  0  0  0
   33.1270    8.9119   -9.0428 C   0  0  0  0  0  0  0  0  0  0  0  0
   33.5538    8.2575  -10.1783 C   0  0  0  0  0  0  0  0  0  0  0  0
   36.0100    1.8101   -6.2832 C   0  0  0  0  0  0  0  0  0  0  0  0
   37.7692    0.3739   -5.3887 C   0  0  0  0  0  0  0  0  0  0  0  0
   35.0175    3.9391   -5.5310 C   0  0  0  0  0  0  0  0  0  0  0  0
   36.6739    1.2245   -5.1991 C   0  0  0  0  0  0  0  0  0  0  0  0
   36.8477    2.1960   -2.9463 C   0  0  0  0  0  0  0  0  0  0  0  0
   31.3948    5.7916   -4.2339 C   0  0  0  0  0  0  0  0  0  0  0  0
   35.8308    2.0729   -8.6131 F   0  0  0  0  0  0  0  0  0  0  0  0
   32.0598    6.8248   -6.3237 N   0  0  0  0  0  0  0  0  0  0  0  0
   31.9863    7.9799   -5.6449 N   0  0  0  0  0  0  0  0  0  0  0  0
   33.9930    4.7984   -5.4050 N   0  0  0  0  0  0  0  0  0  0  0  0
   33.9688    9.0666  -11.2175 N   0  0  0  0  0  0  0  0  0  0  0  0
   36.2455    1.4251   -3.8879 N   0  0  0  0  0  0  0  0  0  0  0  0
   36.1493    2.1103   -1.8353 N   0  0  0  0  0  0  0  0  0  0  0  0
   35.1039    1.2653   -2.1252 N   0  0  0  0  0  0  0  0  0  0  0  0
   35.1571    0.8372   -3.3811 N   0  0  0  0  0  0  0  0  0  0  0  0
   34.1897    5.9042   -4.8433 O   0  0  0  0  0  0  0  0  0  0  0  0
   33.2592   10.6100   -9.2735 S   0  0  0  0  0  0  0  0  0  0  0  0
   38.1092    0.3184   -9.3589 Cl  0  0  0  0  0  0  0  0  0  0  0  0
   33.4333    1.4322   -7.1584 H   0  0  0  0  0  0  0  0  0  0  0  0
   31.5436    3.0558   -6.9167 H   0  0  0  0  0  0  0  0  0  0  0  0
   30.8386    5.1683   -6.1916 H   0  0  0  0  0  0  0  0  0  0  0  0
   30.1098    6.8842   -3.4234 H   0  0  0  0  0  0  0  0  0  0  0  0
   34.1514   11.1499  -11.5256 H   0  0  0  0  0  0  0  0  0  0  0  0
   39.0864   -0.5693   -6.8399 H   0  0  0  0  0  0  0  0  0  0  0  0
   28.1877    6.4567   -5.4765 H   0  0  0  0  0  0  0  0  0  0  0  0
   29.1974    5.6765   -6.3670 H   0  0  0  0  0  0  0  0  0  0  0  0
   29.4156    3.8293   -4.2103 H   0  0  0  0  0  0  0  0  0  0  0  0
   28.2226    4.4646   -3.4406 H   0  0  0  0  0  0  0  0  0  0  0  0
   32.6006    6.1355   -8.3546 H   0  0  0  0  0  0  0  0  0  0  0  0
   32.4111    9.9625   -6.3663 H   0  0  0  0  0  0  0  0  0  0  0  0
   33.5633    7.1600  -10.2520 H   0  0  0  0  0  0  0  0  0  0  0  0
   38.2736   -0.0740   -4.5198 H   0  0  0  0  0  0  0  0  0  0  0  0
   36.0035    4.2180   -5.1309 H   0  0  0  0  0  0  0  0  0  0  0  0
   37.7626    2.7900   -3.0884 H   0  0  0  0  0  0  0  0  0  0  0  0
   31.6748    4.9021   -3.6505 H   0  0  0  0  0  0  0  0  0  0  0  0
   31.9492    6.6641   -3.8578 H   0  0  0  0  0  0  0  0  0  0  0  0
  1  2  2  0
  1 18  1  0
  1 20  1  0
  2  3  1  0
  3  4  2  0
  4  5  1  0
  4 27  1  0
  5 23  1  0
  5 25  1  0
  6 12  1  0
  6 13  1  0
  6 23  1  0
  7 14  2  0
  7 15  1  0
  7 16  1  0
  8 28  2  0
  8 34  1  0
  9 10  2  0
  9 18  1  0
  9 24  1  0
 10 11  1  0
 10 35  1  0
 11 19  2  0
 12 13  1  0
 14 25  1  0
 15 26  2  0
 16 17  2  0
 16 34  1  0
 17 28  1  0
 18 21  2  0
 19 21  1  0
 20 27  2  0
 21 29  1  0
 22 29  1  0
 22 30  2  0
 25 26  1  0
 27 33  1  0
 29 32  1  0
 30 31  1  0
 31 32  2  0
  2 36  1  0
  3 37  1  0
  5 38  1  6
  6 39  1  1
  8 40  1  0
 11 41  1  0
 12 42  1  0
 12 43  1  0
 13 44  1  0
 13 45  1  0
 14 46  1  0
 15 47  1  0
 17 48  1  0
 19 49  1  0
 20 50  1  0
 22 51  1  0
 23 52  1  0
 23 53  1  0
M  CHG  2  27   1  33  -1
M  END
>  <filename_input>  (19) 
7V14_ORU_docked.sdf

>  <pdb_id>  (19) 
7V14_ORU

>  <pose_rank>  (19) 
18

>  <num_atoms_heavy>  (19) 
35

>  <num_torsions>  (19) 
7

>  <pose>  (19) 
[34.863404319835446, 2.707154396771733, -6.1537321624973895, 0.8472214703242911, 0.4098986779125732, 2.985989374345102, 5.483196140097532, 2.2723818965036156, 8.75907717337938, -1.207214672893347, -0.4746395806041575, 0.6967406957790411, -1.1612118606970898]

>  <energy>  (19) 
-530.7581375998918

>  <inter_energy>  (19) 
-581.4608720220953

>  <intra_energy>  (19) 
66.29829765049557

>  <rmsd>  (19) 
8.96217

>  <sdf_rank>  (19) 
0

$$$$

     RDKit          3D

 53 58  0  0  0  0  0  0  0  0999 V2000
   32.6844    6.5193   -4.4200 C   0  0  0  0  0  0  0  0  0  0  0  0
   33.8743    6.4809   -5.1479 C   0  0  0  0  0  0  0  0  0  0  0  0
   34.5748    5.2817   -5.2998 C   0  0  0  0  0  0  0  0  0  0  0  0
   34.0641    4.1302   -4.7141 C   0  0  0  0  0  0  0  0  0  0  0  0
   34.7094    2.7846   -4.8114 C   0  0  1  0  0  0  0  0  0  0  0  0
   34.8419    0.9297   -6.3968 C   0  0  1  0  0  0  0  0  0  0  0  0
   37.1719    2.4581   -2.2389 C   0  0  0  0  0  0  0  0  0  0  0  0
   38.8487    2.2912    1.2300 C   0  0  0  0  0  0  0  0  0  0  0  0
   32.5682    8.9613   -4.3252 C   0  0  0  0  0  0  0  0  0  0  0  0
   31.8792   10.1659   -4.1764 C   0  0  0  0  0  0  0  0  0  0  0  0
   30.5043   10.1814   -3.9379 C   0  0  0  0  0  0  0  0  0  0  0  0
   33.4800    0.4046   -6.7645 C   0  0  0  0  0  0  0  0  0  0  0  0
   34.5898    0.3886   -7.7816 C   0  0  0  0  0  0  0  0  0  0  0  0
   35.8514    2.5984   -2.6181 C   0  0  0  0  0  0  0  0  0  0  0  0
   37.8963    2.4435   -3.4469 C   0  0  0  0  0  0  0  0  0  0  0  0
   37.6456    2.3907   -0.8610 C   0  0  0  0  0  0  0  0  0  0  0  0
   36.8724    2.4456    0.2788 C   0  0  0  0  0  0  0  0  0  0  0  0
   31.8997    7.7402   -4.2474 C   0  0  0  0  0  0  0  0  0  0  0  0
   29.8258    8.9631   -3.8466 C   0  0  0  0  0  0  0  0  0  0  0  0
   32.2363    5.3266   -3.8668 C   0  0  0  0  0  0  0  0  0  0  0  0
   30.5222    7.7588   -4.0009 C   0  0  0  0  0  0  0  0  0  0  0  0
   29.5589    5.9114   -2.6939 C   0  0  0  0  0  0  0  0  0  0  0  0
   35.0321    2.3937   -6.2341 C   0  0  0  0  0  0  0  0  0  0  0  0
   33.8914    8.9503   -4.5618 F   0  0  0  0  0  0  0  0  0  0  0  0
   35.8839    2.6469   -3.9786 N   0  0  0  0  0  0  0  0  0  0  0  0
   37.1082    2.5619   -4.5213 N   0  0  0  0  0  0  0  0  0  0  0  0
   32.9199    4.1800   -4.0151 N   0  0  0  0  0  0  0  0  0  0  0  0
   37.5602    2.3806    1.4745 N   0  0  0  0  0  0  0  0  0  0  0  0
   29.7927    6.5803   -3.8521 N   0  0  0  0  0  0  0  0  0  0  0  0
   28.8491    4.8400   -2.9730 N   0  0  0  0  0  0  0  0  0  0  0  0
   28.6565    4.8737   -4.3342 N   0  0  0  0  0  0  0  0  0  0  0  0
   29.2351    5.9359   -4.8821 N   0  0  0  0  0  0  0  0  0  0  0  0
   32.4641    3.1275   -3.5037 O   0  0  0  0  0  0  0  0  0  0  0  0
   39.3036    2.2649   -0.4259 S   0  0  0  0  0  0  0  0  0  0  0  0
   32.7214   11.6665   -4.2807 Cl  0  0  0  0  0  0  0  0  0  0  0  0
   34.2638    7.4022   -5.6057 H   0  0  0  0  0  0  0  0  0  0  0  0
   35.5134    5.2499   -5.8726 H   0  0  0  0  0  0  0  0  0  0  0  0
   33.9503    2.0875   -4.4268 H   0  0  0  0  0  0  0  0  0  0  0  0
   35.5623    0.7174   -5.5931 H   0  0  0  0  0  0  0  0  0  0  0  0
   39.5922    2.2363    2.0388 H   0  0  0  0  0  0  0  0  0  0  0  0
   29.9654   11.1335   -3.8241 H   0  0  0  0  0  0  0  0  0  0  0  0
   33.1190   -0.5393   -6.3299 H   0  0  0  0  0  0  0  0  0  0  0  0
   32.4574    0.8091   -6.7363 H   0  0  0  0  0  0  0  0  0  0  0  0
   34.5572    1.0730   -8.6422 H   0  0  0  0  0  0  0  0  0  0  0  0
   35.0560   -0.3824   -8.4127 H   0  0  0  0  0  0  0  0  0  0  0  0
   34.9682    2.6578   -1.9652 H   0  0  0  0  0  0  0  0  0  0  0  0
   38.9906    2.3456   -3.5008 H   0  0  0  0  0  0  0  0  0  0  0  0
   35.7769    2.5355    0.2385 H   0  0  0  0  0  0  0  0  0  0  0  0
   28.7430    8.9505   -3.6532 H   0  0  0  0  0  0  0  0  0  0  0  0
   31.2979    5.3209   -3.2929 H   0  0  0  0  0  0  0  0  0  0  0  0
   29.9038    6.2136   -1.6941 H   0  0  0  0  0  0  0  0  0  0  0  0
   34.3630    2.9298   -6.9232 H   0  0  0  0  0  0  0  0  0  0  0  0
   36.0759    2.6568   -6.4605 H   0  0  0  0  0  0  0  0  0  0  0  0
  1  2  2  0
  1 18  1  0
  1 20  1  0
  2  3  1  0
  3  4  2  0
  4  5  1  0
  4 27  1  0
  5 23  1  0
  5 25  1  0
  6 12  1  0
  6 13  1  0
  6 23  1  0
  7 14  2  0
  7 15  1  0
  7 16  1  0
  8 28  2  0
  8 34  1  0
  9 10  2  0
  9 18  1  0
  9 24  1  0
 10 11  1  0
 10 35  1  0
 11 19  2  0
 12 13  1  0
 14 25  1  0
 15 26  2  0
 16 17  2  0
 16 34  1  0
 17 28  1  0
 18 21  2  0
 19 21  1  0
 20 27  2  0
 21 29  1  0
 22 29  1  0
 22 30  2  0
 25 26  1  0
 27 33  1  0
 29 32  1  0
 30 31  1  0
 31 32  2  0
  2 36  1  0
  3 37  1  0
  5 38  1  1
  6 39  1  1
  8 40  1  0
 11 41  1  0
 12 42  1  0
 12 43  1  0
 13 44  1  0
 13 45  1  0
 14 46  1  0
 15 47  1  0
 17 48  1  0
 19 49  1  0
 20 50  1  0
 22 51  1  0
 23 52  1  0
 23 53  1  0
M  CHG  2  27   1  33  -1
M  END
>  <filename_input>  (20) 
7V14_ORU_docked.sdf

>  <pdb_id>  (20) 
7V14_ORU

>  <pose_rank>  (20) 
19

>  <num_atoms_heavy>  (20) 
35

>  <num_torsions>  (20) 
7

>  <pose>  (20) 
[32.68439157472155, 6.519263626642836, -4.420024863583492, -2.4840993539162515, 3.6492985926139356, 3.5555049529630667, -8.637039855055745, -0.5747235916003774, -0.42104005450265014, -0.8599737910241807, -0.365079158230607, 0.6433222720164259, 0.18521604416953463]

>  <energy>  (20) 
-631.7178721384814

>  <inter_energy>  (20) 
-727.7580107056084

>  <intra_energy>  (20) 
82.89546816688276

>  <rmsd>  (20) 
3.58164

>  <sdf_rank>  (20) 
0

$$$$

     RDKit          3D

 53 58  0  0  0  0  0  0  0  0999 V2000
   34.3230    9.0528   -8.6304 C   0  0  0  0  0  0  0  0  0  0  0  0
   34.0248    7.8560   -9.2831 C   0  0  0  0  0  0  0  0  0  0  0  0
   33.7045    6.7096   -8.5516 C   0  0  0  0  0  0  0  0  0  0  0  0
   33.6877    6.7845   -7.1645 C   0  0  0  0  0  0  0  0  0  0  0  0
   33.3505    5.6359   -6.2682 C   0  0  1  0  0  0  0  0  0  0  0  0
   31.3098    4.5984   -5.4132 C   0  0  1  0  0  0  0  0  0  0  0  0
   35.5068    2.7830   -6.2584 C   0  0  0  0  0  0  0  0  0  0  0  0
   36.8219   -0.8205   -6.6567 C   0  0  0  0  0  0  0  0  0  0  0  0
   33.8973   11.4261   -9.0452 C   0  0  0  0  0  0  0  0  0  0  0  0
   34.1543   12.6395   -9.6851 C   0  0  0  0  0  0  0  0  0  0  0  0
   35.1592   12.7443  -10.6478 C   0  0  0  0  0  0  0  0  0  0  0  0
   31.4448    5.4702   -4.1935 C   0  0  0  0  0  0  0  0  0  0  0  0
   30.1625    5.4771   -4.9824 C   0  0  0  0  0  0  0  0  0  0  0  0
   34.2699    3.3450   -6.5058 C   0  0  0  0  0  0  0  0  0  0  0  0
   36.2948    3.8425   -5.7677 C   0  0  0  0  0  0  0  0  0  0  0  0
   35.8407    1.3756   -6.4463 C   0  0  0  0  0  0  0  0  0  0  0  0
   34.9558    0.3422   -6.6675 C   0  0  0  0  0  0  0  0  0  0  0  0
   34.6432   10.2869   -9.3449 C   0  0  0  0  0  0  0  0  0  0  0  0
   35.9056   11.6061  -10.9646 C   0  0  0  0  0  0  0  0  0  0  0  0
   34.2826    9.0495   -7.2420 C   0  0  0  0  0  0  0  0  0  0  0  0
   35.6453   10.3934  -10.3161 C   0  0  0  0  0  0  0  0  0  0  0  0
   37.5634    8.8610  -10.1672 C   0  0  0  0  0  0  0  0  0  0  0  0
   32.0533    4.9615   -6.6467 C   0  0  0  0  0  0  0  0  0  0  0  0
   32.9333   11.3305   -8.1133 F   0  0  0  0  0  0  0  0  0  0  0  0
   34.4092    4.6558   -6.1641 N   0  0  0  0  0  0  0  0  0  0  0  0
   35.6230    4.9976   -5.7054 N   0  0  0  0  0  0  0  0  0  0  0  0
   33.9780    7.9405   -6.5483 N   0  0  0  0  0  0  0  0  0  0  0  0
   35.5180   -0.9126   -6.7957 N   0  0  0  0  0  0  0  0  0  0  0  0
   36.3956    9.2876  -10.7130 N   0  0  0  0  0  0  0  0  0  0  0  0
   37.9651    7.7996  -10.8316 N   0  0  0  0  0  0  0  0  0  0  0  0
   37.0098    7.5904  -11.7983 N   0  0  0  0  0  0  0  0  0  0  0  0
   36.0452    8.5008  -11.7354 N   0  0  0  0  0  0  0  0  0  0  0  0
   33.9445    7.9954   -5.2941 O   0  0  0  0  0  0  0  0  0  0  0  0
   37.4431    0.7572   -6.3829 S   0  0  0  0  0  0  0  0  0  0  0  0
   33.2253   14.0392   -9.2980 Cl  0  0  0  0  0  0  0  0  0  0  0  0
   34.0420    7.8149  -10.3822 H   0  0  0  0  0  0  0  0  0  0  0  0
   33.4700    5.7651   -9.0644 H   0  0  0  0  0  0  0  0  0  0  0  0
   33.2248    6.0906   -5.2745 H   0  0  0  0  0  0  0  0  0  0  0  0
   31.4401    3.5251   -5.6158 H   0  0  0  0  0  0  0  0  0  0  0  0
   37.4770   -1.7023   -6.7126 H   0  0  0  0  0  0  0  0  0  0  0  0
   35.3597   13.7036  -11.1473 H   0  0  0  0  0  0  0  0  0  0  0  0
   31.4720    5.0147   -3.1926 H   0  0  0  0  0  0  0  0  0  0  0  0
   32.1582    6.2396   -3.8633 H   0  0  0  0  0  0  0  0  0  0  0  0
   29.8897    6.3586   -5.5811 H   0  0  0  0  0  0  0  0  0  0  0  0
   29.1016    5.3106   -4.7444 H   0  0  0  0  0  0  0  0  0  0  0  0
   33.3704    2.8443   -6.8934 H   0  0  0  0  0  0  0  0  0  0  0  0
   37.3475    3.7321   -5.4685 H   0  0  0  0  0  0  0  0  0  0  0  0
   33.8704    0.5065   -6.7374 H   0  0  0  0  0  0  0  0  0  0  0  0
   36.6988   11.6634  -11.7247 H   0  0  0  0  0  0  0  0  0  0  0  0
   34.5057    9.9785   -6.6969 H   0  0  0  0  0  0  0  0  0  0  0  0
   38.0839    9.3237   -9.3157 H   0  0  0  0  0  0  0  0  0  0  0  0
   31.4452    5.6489   -7.2531 H   0  0  0  0  0  0  0  0  0  0  0  0
   32.2668    4.0529   -7.2288 H   0  0  0  0  0  0  0  0  0  0  0  0
  1  2  2  0
  1 18  1  0
  1 20  1  0
  2  3  1  0
  3  4  2  0
  4  5  1  0
  4 27  1  0
  5 23  1  0
  5 25  1  0
  6 12  1  0
  6 13  1  0
  6 23  1  0
  7 14  2  0
  7 15  1  0
  7 16  1  0
  8 28  2  0
  8 34  1  0
  9 10  2  0
  9 18  1  0
  9 24  1  0
 10 11  1  0
 10 35  1  0
 11 19  2  0
 12 13  1  0
 14 25  1  0
 15 26  2  0
 16 17  2  0
 16 34  1  0
 17 28  1  0
 18 21  2  0
 19 21  1  0
 20 27  2  0
 21 29  1  0
 22 29  1  0
 22 30  2  0
 25 26  1  0
 27 33  1  0
 29 32  1  0
 30 31  1  0
 31 32  2  0
  2 36  1  0
  3 37  1  0
  5 38  1  1
  6 39  1  1
  8 40  1  0
 11 41  1  0
 12 42  1  0
 12 43  1  0
 13 44  1  0
 13 45  1  0
 14 46  1  0
 15 47  1  0
 17 48  1  0
 19 49  1  0
 20 50  1  0
 22 51  1  0
 23 52  1  0
 23 53  1  0
M  CHG  2  27   1  33  -1
M  END
>  <filename_input>  (21) 
7V14_ORU_docked.sdf

>  <pdb_id>  (21) 
7V14_ORU

>  <pose_rank>  (21) 
20

>  <num_atoms_heavy>  (21) 
35

>  <num_torsions>  (21) 
7

>  <pose>  (21) 
[34.32298125715748, 9.052807656240967, -8.630426259964862, 2.8076968416406936, -0.9365264855129221, 3.8020636452252767, 0.2938161064489171, 2.564731503506393, -0.41643994210853624, 2.101975548881912, -0.5849843533536102, 0.7197357005520805, -0.7869933941625714]

>  <energy>  (21) 
-332.6827621150262

>  <inter_energy>  (21) 
-373.5149629836517

>  <intra_energy>  (21) 
34.83023375442841

>  <rmsd>  (21) 
7.03953

>  <sdf_rank>  (21) 
0

$$$$

     RDKit          3D

 53 58  0  0  0  0  0  0  0  0999 V2000
   33.5836    9.4775   -7.5859 C   0  0  0  0  0  0  0  0  0  0  0  0
   32.8300    8.5881   -8.3530 C   0  0  0  0  0  0  0  0  0  0  0  0
   32.0432    7.6111   -7.7381 C   0  0  0  0  0  0  0  0  0  0  0  0
   32.0248    7.5431   -6.3507 C   0  0  0  0  0  0  0  0  0  0  0  0
   31.2176    6.5540   -5.5717 C   0  0  1  0  0  0  0  0  0  0  0  0
   29.3367    7.2595   -4.1801 C   0  0  1  0  0  0  0  0  0  0  0  0
   32.3281    3.2457   -6.3530 C   0  0  0  0  0  0  0  0  0  0  0  0
   34.8397    0.3877   -6.9823 C   0  0  0  0  0  0  0  0  0  0  0  0
   33.7836   11.7326   -8.5135 C   0  0  0  0  0  0  0  0  0  0  0  0
   34.5109   12.7839   -9.0735 C   0  0  0  0  0  0  0  0  0  0  0  0
   35.8795   12.6599   -9.3172 C   0  0  0  0  0  0  0  0  0  0  0  0
   28.9251    8.6798   -3.8988 C   0  0  0  0  0  0  0  0  0  0  0  0
   27.8876    7.5893   -3.9251 C   0  0  0  0  0  0  0  0  0  0  0  0
   32.5746    4.4926   -5.8129 C   0  0  0  0  0  0  0  0  0  0  0  0
   31.0051    3.3134   -6.8321 C   0  0  0  0  0  0  0  0  0  0  0  0
   33.2940    2.1547   -6.4185 C   0  0  0  0  0  0  0  0  0  0  0  0
   33.9840    1.6018   -5.3612 C   0  0  0  0  0  0  0  0  0  0  0  0
   34.4065   10.5320   -8.1749 C   0  0  0  0  0  0  0  0  0  0  0  0
   36.5121   11.4569   -8.9924 C   0  0  0  0  0  0  0  0  0  0  0  0
   33.5111    9.3484   -6.2048 C   0  0  0  0  0  0  0  0  0  0  0  0
   35.7775   10.4081   -8.4272 C   0  0  0  0  0  0  0  0  0  0  0  0
   36.6225    8.1766   -9.0234 C   0  0  0  0  0  0  0  0  0  0  0  0
   29.7440    6.8848   -5.5584 C   0  0  0  0  0  0  0  0  0  0  0  0
   32.4669   11.8580   -8.2736 F   0  0  0  0  0  0  0  0  0  0  0  0
   31.4168    5.1856   -5.9958 N   0  0  0  0  0  0  0  0  0  0  0  0
   30.4401    4.5067   -6.6167 N   0  0  0  0  0  0  0  0  0  0  0  0
   32.7550    8.4026   -5.6239 N   0  0  0  0  0  0  0  0  0  0  0  0
   34.8622    0.5858   -5.6830 N   0  0  0  0  0  0  0  0  0  0  0  0
   36.4611    9.2207   -8.1705 N   0  0  0  0  0  0  0  0  0  0  0  0
   37.3085    7.2410   -8.4040 N   0  0  0  0  0  0  0  0  0  0  0  0
   37.5611    7.7433   -7.1491 N   0  0  0  0  0  0  0  0  0  0  0  0
   37.0417    8.9558   -6.9959 N   0  0  0  0  0  0  0  0  0  0  0  0
   32.7164    8.3370   -4.3703 O   0  0  0  0  0  0  0  0  0  0  0  0
   33.7676    1.3846   -7.8803 S   0  0  0  0  0  0  0  0  0  0  0  0
   33.7250   14.2631   -9.4812 Cl  0  0  0  0  0  0  0  0  0  0  0  0
   32.8558    8.6569   -9.4506 H   0  0  0  0  0  0  0  0  0  0  0  0
   31.4492    6.9087   -8.3413 H   0  0  0  0  0  0  0  0  0  0  0  0
   31.5984    6.6380   -4.5431 H   0  0  0  0  0  0  0  0  0  0  0  0
   30.0696    6.5650   -3.7436 H   0  0  0  0  0  0  0  0  0  0  0  0
   35.4709   -0.3722   -7.4662 H   0  0  0  0  0  0  0  0  0  0  0  0
   36.4488   13.4925   -9.7562 H   0  0  0  0  0  0  0  0  0  0  0  0
   29.2009    9.1534   -2.9450 H   0  0  0  0  0  0  0  0  0  0  0  0
   29.0536    9.6429   -4.4146 H   0  0  0  0  0  0  0  0  0  0  0  0
   27.1595    7.5424   -4.7483 H   0  0  0  0  0  0  0  0  0  0  0  0
   27.1191    7.2294   -3.2252 H   0  0  0  0  0  0  0  0  0  0  0  0
   33.5018    4.8476   -5.3393 H   0  0  0  0  0  0  0  0  0  0  0  0
   30.4927    2.4765   -7.3289 H   0  0  0  0  0  0  0  0  0  0  0  0
   33.8441    1.9480   -4.3265 H   0  0  0  0  0  0  0  0  0  0  0  0
   37.5888   11.3341   -9.1811 H   0  0  0  0  0  0  0  0  0  0  0  0
   34.0875   10.0383   -5.5709 H   0  0  0  0  0  0  0  0  0  0  0  0
   36.2445    8.1226  -10.0549 H   0  0  0  0  0  0  0  0  0  0  0  0
   29.5502    7.7260   -6.2402 H   0  0  0  0  0  0  0  0  0  0  0  0
   29.1668    6.0080   -5.8874 H   0  0  0  0  0  0  0  0  0  0  0  0
  1  2  2  0
  1 18  1  0
  1 20  1  0
  2  3  1  0
  3  4  2  0
  4  5  1  0
  4 27  1  0
  5 23  1  0
  5 25  1  0
  6 12  1  0
  6 13  1  0
  6 23  1  0
  7 14  2  0
  7 15  1  0
  7 16  1  0
  8 28  2  0
  8 34  1  0
  9 10  2  0
  9 18  1  0
  9 24  1  0
 10 11  1  0
 10 35  1  0
 11 19  2  0
 12 13  1  0
 14 25  1  0
 15 26  2  0
 16 17  2  0
 16 34  1  0
 17 28  1  0
 18 21  2  0
 19 21  1  0
 20 27  2  0
 21 29  1  0
 22 29  1  0
 22 30  2  0
 25 26  1  0
 27 33  1  0
 29 32  1  0
 30 31  1  0
 31 32  2  0
  2 36  1  0
  3 37  1  0
  5 38  1  1
  6 39  1  1
  8 40  1  0
 11 41  1  0
 12 42  1  0
 12 43  1  0
 13 44  1  0
 13 45  1  0
 14 46  1  0
 15 47  1  0
 17 48  1  0
 19 49  1  0
 20 50  1  0
 22 51  1  0
 23 52  1  0
 23 53  1  0
M  CHG  2  27   1  33  -1
M  END
>  <filename_input>  (22) 
7V14_ORU_docked.sdf

>  <pdb_id>  (22) 
7V14_ORU

>  <pose_rank>  (22) 
21

>  <num_atoms_heavy>  (22) 
35

>  <num_torsions>  (22) 
7

>  <pose>  (22) 
[33.58355848919371, 9.477482909387348, -7.585913741745092, 1.8218002205470065, -1.3833036850692115, 3.890736705245396, -0.43668624722453325, -0.5972660205431335, -0.8238433224524351, -0.8728634767204666, -5.684661018091185, -5.081186794954331, 0.6172472558350534]

>  <energy>  (22) 
-532.3826623926494

>  <inter_energy>  (22) 
-531.4126030915468

>  <intra_energy>  (22) 
3.612725045515969

>  <rmsd>  (22) 
7.1917

>  <sdf_rank>  (22) 
0

$$$$

     RDKit          3D

 53 58  0  0  0  0  0  0  0  0999 V2000
   33.0743    8.0017   -7.3477 C   0  0  0  0  0  0  0  0  0  0  0  0
   33.2023    8.3284   -5.9972 C   0  0  0  0  0  0  0  0  0  0  0  0
   32.7807    7.4360   -5.0083 C   0  0  0  0  0  0  0  0  0  0  0  0
   32.2337    6.2191   -5.3951 C   0  0  0  0  0  0  0  0  0  0  0  0
   31.7559    5.1740   -4.4378 C   0  0  1  0  0  0  0  0  0  0  0  0
   29.3569    5.6364   -4.3882 C   0  0  1  0  0  0  0  0  0  0  0  0
   34.4303    2.9217   -3.6873 C   0  0  0  0  0  0  0  0  0  0  0  0
   37.7790    2.2047   -1.9139 C   0  0  0  0  0  0  0  0  0  0  0  0
   32.6890    9.9510   -8.7752 C   0  0  0  0  0  0  0  0  0  0  0  0
   33.0543   10.8386   -9.7884 C   0  0  0  0  0  0  0  0  0  0  0  0
   34.2551   10.6810  -10.4820 C   0  0  0  0  0  0  0  0  0  0  0  0
   28.8195    6.5914   -5.4203 C   0  0  0  0  0  0  0  0  0  0  0  0
   27.9541    5.4679   -4.9151 C   0  0  0  0  0  0  0  0  0  0  0  0
   33.8782    4.1858   -3.6201 C   0  0  0  0  0  0  0  0  0  0  0  0
   33.4897    2.1529   -4.4002 C   0  0  0  0  0  0  0  0  0  0  0  0
   35.7338    2.5468   -3.1507 C   0  0  0  0  0  0  0  0  0  0  0  0
   36.5964    1.6041   -3.6675 C   0  0  0  0  0  0  0  0  0  0  0  0
   33.5180    8.8867   -8.4229 C   0  0  0  0  0  0  0  0  0  0  0  0
   35.0886    9.6111  -10.1451 C   0  0  0  0  0  0  0  0  0  0  0  0
   32.5205    6.7656   -7.6553 C   0  0  0  0  0  0  0  0  0  0  0  0
   34.7181    8.7271   -9.1252 C   0  0  0  0  0  0  0  0  0  0  0  0
   35.6042    6.4689   -9.5308 C   0  0  0  0  0  0  0  0  0  0  0  0
   30.3862    4.6435   -4.7889 C   0  0  0  0  0  0  0  0  0  0  0  0
   31.5350   10.1099   -8.1044 F   0  0  0  0  0  0  0  0  0  0  0  0
   32.6857    4.0790   -4.2687 N   0  0  0  0  0  0  0  0  0  0  0  0
   32.4144    2.8613   -4.7627 N   0  0  0  0  0  0  0  0  0  0  0  0
   32.1142    5.9170   -6.6968 N   0  0  0  0  0  0  0  0  0  0  0  0
   37.7697    1.4143   -2.9643 N   0  0  0  0  0  0  0  0  0  0  0  0
   35.5733    7.6558   -8.8721 N   0  0  0  0  0  0  0  0  0  0  0  0
   36.5354    5.7184   -8.9838 N   0  0  0  0  0  0  0  0  0  0  0  0
   37.0718    6.4805   -7.9726 N   0  0  0  0  0  0  0  0  0  0  0  0
   36.4850    7.6691   -7.8945 N   0  0  0  0  0  0  0  0  0  0  0  0
   31.6306    4.8068   -7.0298 O   0  0  0  0  0  0  0  0  0  0  0  0
   36.4067    3.2188   -1.7190 S   0  0  0  0  0  0  0  0  0  0  0  0
   32.0191   12.1520  -10.2071 Cl  0  0  0  0  0  0  0  0  0  0  0  0
   33.6386    9.2962   -5.7088 H   0  0  0  0  0  0  0  0  0  0  0  0
   32.8801    7.6923   -3.9432 H   0  0  0  0  0  0  0  0  0  0  0  0
   31.6853    5.6972   -3.4728 H   0  0  0  0  0  0  0  0  0  0  0  0
   29.8104    5.7478   -3.3922 H   0  0  0  0  0  0  0  0  0  0  0  0
   38.6170    2.2158   -1.2014 H   0  0  0  0  0  0  0  0  0  0  0  0
   34.5397   11.3850  -11.2779 H   0  0  0  0  0  0  0  0  0  0  0  0
   28.5899    7.6303   -5.1412 H   0  0  0  0  0  0  0  0  0  0  0  0
   29.1516    6.9308   -6.4125 H   0  0  0  0  0  0  0  0  0  0  0  0
   27.7119    4.6209   -5.5739 H   0  0  0  0  0  0  0  0  0  0  0  0
   26.9549    5.3994   -4.4602 H   0  0  0  0  0  0  0  0  0  0  0  0
   34.3073    5.0814   -3.1471 H   0  0  0  0  0  0  0  0  0  0  0  0
   33.6247    1.0864   -4.6335 H   0  0  0  0  0  0  0  0  0  0  0  0
   36.3649    1.0387   -4.5822 H   0  0  0  0  0  0  0  0  0  0  0  0
   36.0371    9.4635  -10.6823 H   0  0  0  0  0  0  0  0  0  0  0  0
   32.4119    6.4743   -8.7105 H   0  0  0  0  0  0  0  0  0  0  0  0
   34.9611    6.1842  -10.3765 H   0  0  0  0  0  0  0  0  0  0  0  0
   30.3264    4.4698   -5.8735 H   0  0  0  0  0  0  0  0  0  0  0  0
   30.2108    3.6965   -4.2575 H   0  0  0  0  0  0  0  0  0  0  0  0
  1  2  2  0
  1 18  1  0
  1 20  1  0
  2  3  1  0
  3  4  2  0
  4  5  1  0
  4 27  1  0
  5 23  1  0
  5 25  1  0
  6 12  1  0
  6 13  1  0
  6 23  1  0
  7 14  2  0
  7 15  1  0
  7 16  1  0
  8 28  2  0
  8 34  1  0
  9 10  2  0
  9 18  1  0
  9 24  1  0
 10 11  1  0
 10 35  1  0
 11 19  2  0
 12 13  1  0
 14 25  1  0
 15 26  2  0
 16 17  2  0
 16 34  1  0
 17 28  1  0
 18 21  2  0
 19 21  1  0
 20 27  2  0
 21 29  1  0
 22 29  1  0
 22 30  2  0
 25 26  1  0
 27 33  1  0
 29 32  1  0
 30 31  1  0
 31 32  2  0
  2 36  1  0
  3 37  1  0
  5 38  1  1
  6 39  1  1
  8 40  1  0
 11 41  1  0
 12 42  1  0
 12 43  1  0
 13 44  1  0
 13 45  1  0
 14 46  1  0
 15 47  1  0
 17 48  1  0
 19 49  1  0
 20 50  1  0
 22 51  1  0
 23 52  1  0
 23 53  1  0
M  CHG  2  27   1  33  -1
M  END
>  <filename_input>  (23) 
7V14_ORU_docked.sdf

>  <pdb_id>  (23) 
7V14_ORU

>  <pose_rank>  (23) 
22

>  <num_atoms_heavy>  (23) 
35

>  <num_torsions>  (23) 
7

>  <pose>  (23) 
[33.074331495082816, 8.001694089384298, -7.3477478319329625, 0.2097956254375552, -2.387398854450005, 0.27624269493594256, -15.856876624587628, 5.780949200402602, 27.914900910558305, -7.1242910120308585, -2.9405220092441122, -29.58380628356796, 0.34717178956875694]

>  <energy>  (23) 
-500.7260353805704

>  <inter_energy>  (23) 
-542.004146618253

>  <intra_energy>  (23) 
54.668183728624

>  <rmsd>  (23) 
5.80966

>  <sdf_rank>  (23) 
0

$$$$

     RDKit          3D

 53 58  0  0  0  0  0  0  0  0999 V2000
   34.4234    5.5143   -6.3215 C   0  0  0  0  0  0  0  0  0  0  0  0
   35.3514    5.8164   -5.3241 C   0  0  0  0  0  0  0  0  0  0  0  0
   36.0858    4.8006   -4.7071 C   0  0  0  0  0  0  0  0  0  0  0  0
   35.8754    3.4866   -5.1060 C   0  0  0  0  0  0  0  0  0  0  0  0
   36.6031    2.3117   -4.5346 C   0  0  1  0  0  0  0  0  0  0  0  0
   36.4263    0.6854   -2.7192 C   0  0  1  0  0  0  0  0  0  0  0  0
   38.9606    1.1447   -6.9572 C   0  0  0  0  0  0  0  0  0  0  0  0
   41.8928    1.0248   -9.4594 C   0  0  0  0  0  0  0  0  0  0  0  0
   34.2646    7.2427   -8.0458 C   0  0  0  0  0  0  0  0  0  0  0  0
   33.5767    8.2288   -8.7547 C   0  0  0  0  0  0  0  0  0  0  0  0
   32.2520    8.5418   -8.4466 C   0  0  0  0  0  0  0  0  0  0  0  0
   36.5915    1.4119   -1.4112 C   0  0  0  0  0  0  0  0  0  0  0  0
   35.6538    0.2378   -1.5040 C   0  0  0  0  0  0  0  0  0  0  0  0
   38.4900    2.1499   -6.1356 C   0  0  0  0  0  0  0  0  0  0  0  0
   38.0870    0.0611   -6.7410 C   0  0  0  0  0  0  0  0  0  0  0  0
   40.0982    1.2654   -7.8622 C   0  0  0  0  0  0  0  0  0  0  0  0
   40.7981    2.4160   -8.1554 C   0  0  0  0  0  0  0  0  0  0  0  0
   33.6440    6.5377   -7.0153 C   0  0  0  0  0  0  0  0  0  0  0  0
   31.6235    7.8496   -7.4079 C   0  0  0  0  0  0  0  0  0  0  0  0
   34.2712    4.1778   -6.6676 C   0  0  0  0  0  0  0  0  0  0  0  0
   32.3179    6.8590   -6.7039 C   0  0  0  0  0  0  0  0  0  0  0  0
   32.2093    5.5828   -4.6042 C   0  0  0  0  0  0  0  0  0  0  0  0
   35.6850    1.3458   -3.8239 C   0  0  0  0  0  0  0  0  0  0  0  0
   35.5382    6.9389   -8.3499 F   0  0  0  0  0  0  0  0  0  0  0  0
   37.4121    1.6071   -5.5049 N   0  0  0  0  0  0  0  0  0  0  0  0
   37.1301    0.3413   -5.8492 N   0  0  0  0  0  0  0  0  0  0  0  0
   34.9791    3.2085   -6.0648 N   0  0  0  0  0  0  0  0  0  0  0  0
   41.8296    2.2765   -9.0629 N   0  0  0  0  0  0  0  0  0  0  0  0
   31.6466    6.2404   -5.6504 N   0  0  0  0  0  0  0  0  0  0  0  0
   31.2435    5.1267   -3.8369 N   0  0  0  0  0  0  0  0  0  0  0  0
   30.0756    5.5242   -4.4443 N   0  0  0  0  0  0  0  0  0  0  0  0
   30.3134    6.2048   -5.5594 N   0  0  0  0  0  0  0  0  0  0  0  0
   34.8108    2.0169   -6.4240 O   0  0  0  0  0  0  0  0  0  0  0  0
   40.7441   -0.0467   -8.7651 S   0  0  0  0  0  0  0  0  0  0  0  0
   34.3583    9.0867  -10.0294 Cl  0  0  0  0  0  0  0  0  0  0  0  0
   35.5059    6.8626   -5.0212 H   0  0  0  0  0  0  0  0  0  0  0  0
   36.8172    5.0369   -3.9201 H   0  0  0  0  0  0  0  0  0  0  0  0
   37.2868    2.7471   -3.7910 H   0  0  0  0  0  0  0  0  0  0  0  0
   37.1145    0.2043   -3.4297 H   0  0  0  0  0  0  0  0  0  0  0  0
   42.6380    0.6835  -10.1930 H   0  0  0  0  0  0  0  0  0  0  0  0
   31.7133    9.3179   -9.0101 H   0  0  0  0  0  0  0  0  0  0  0  0
   37.5315    1.3214   -0.8471 H   0  0  0  0  0  0  0  0  0  0  0  0
   36.4966    2.4585   -1.0861 H   0  0  0  0  0  0  0  0  0  0  0  0
   34.5665    0.3968   -1.4539 H   0  0  0  0  0  0  0  0  0  0  0  0
   35.5397   -0.7118   -0.9606 H   0  0  0  0  0  0  0  0  0  0  0  0
   38.8964    3.1652   -6.0167 H   0  0  0  0  0  0  0  0  0  0  0  0
   38.1814   -0.9096   -7.2499 H   0  0  0  0  0  0  0  0  0  0  0  0
   40.5508    3.3842   -7.6956 H   0  0  0  0  0  0  0  0  0  0  0  0
   30.5818    8.0835   -7.1433 H   0  0  0  0  0  0  0  0  0  0  0  0
   33.5528    3.9063   -7.4551 H   0  0  0  0  0  0  0  0  0  0  0  0
   33.2875    5.4538   -4.4286 H   0  0  0  0  0  0  0  0  0  0  0  0
   34.8237    1.8927   -3.4128 H   0  0  0  0  0  0  0  0  0  0  0  0
   35.3291    0.5854   -4.5346 H   0  0  0  0  0  0  0  0  0  0  0  0
  1  2  2  0
  1 18  1  0
  1 20  1  0
  2  3  1  0
  3  4  2  0
  4  5  1  0
  4 27  1  0
  5 23  1  0
  5 25  1  0
  6 12  1  0
  6 13  1  0
  6 23  1  0
  7 14  2  0
  7 15  1  0
  7 16  1  0
  8 28  2  0
  8 34  1  0
  9 10  2  0
  9 18  1  0
  9 24  1  0
 10 11  1  0
 10 35  1  0
 11 19  2  0
 12 13  1  0
 14 25  1  0
 15 26  2  0
 16 17  2  0
 16 34  1  0
 17 28  1  0
 18 21  2  0
 19 21  1  0
 20 27  2  0
 21 29  1  0
 22 29  1  0
 22 30  2  0
 25 26  1  0
 27 33  1  0
 29 32  1  0
 30 31  1  0
 31 32  2  0
  2 36  1  0
  3 37  1  0
  5 38  1  1
  6 39  1  6
  8 40  1  0
 11 41  1  0
 12 42  1  0
 12 43  1  0
 13 44  1  0
 13 45  1  0
 14 46  1  0
 15 47  1  0
 17 48  1  0
 19 49  1  0
 20 50  1  0
 22 51  1  0
 23 52  1  0
 23 53  1  0
M  CHG  2  27   1  33  -1
M  END
>  <filename_input>  (24) 
7V14_ORU_docked.sdf

>  <pdb_id>  (24) 
7V14_ORU

>  <pose_rank>  (24) 
23

>  <num_atoms_heavy>  (24) 
35

>  <num_torsions>  (24) 
7

>  <pose>  (24) 
[34.423394228419305, 5.514344825830301, -6.321491481062545, -2.110227083318275, 3.9531512212496587, -0.24873460032848782, -6.789443441155497, -1.808162356357611, -3.768239447690388, -0.9480641867120114, -0.49994502754952086, 0.564002862722229, 0.0712468740548558]

>  <energy>  (24) 
-362.6485398331339

>  <inter_energy>  (24) 
-474.5425120165427

>  <intra_energy>  (24) 
101.28555985737705

>  <rmsd>  (24) 
6.04443

>  <sdf_rank>  (24) 
0

$$$$

     RDKit          3D

 53 58  0  0  0  0  0  0  0  0999 V2000
   34.5053    7.6416   -8.6409 C   0  0  0  0  0  0  0  0  0  0  0  0
   33.8736    6.4537   -9.0108 C   0  0  0  0  0  0  0  0  0  0  0  0
   33.2811    5.6349   -8.0462 C   0  0  0  0  0  0  0  0  0  0  0  0
   33.3322    6.0263   -6.7143 C   0  0  0  0  0  0  0  0  0  0  0  0
   32.7284    5.2476   -5.5893 C   0  0  1  0  0  0  0  0  0  0  0  0
   30.3217    5.6286   -5.7745 C   0  0  1  0  0  0  0  0  0  0  0  0
   35.1862    3.2832   -3.8895 C   0  0  0  0  0  0  0  0  0  0  0  0
   37.8815    2.6928   -1.1951 C   0  0  0  0  0  0  0  0  0  0  0  0
   34.3862    9.6550  -10.0259 C   0  0  0  0  0  0  0  0  0  0  0  0
   34.9169   10.5631  -10.9432 C   0  0  0  0  0  0  0  0  0  0  0  0
   36.1947   10.3827  -11.4744 C   0  0  0  0  0  0  0  0  0  0  0  0
   29.0263    5.2026   -5.1371 C   0  0  0  0  0  0  0  0  0  0  0  0
   29.9862    6.0760   -4.3741 C   0  0  0  0  0  0  0  0  0  0  0  0
   34.6007    4.5084   -4.1409 C   0  0  0  0  0  0  0  0  0  0  0  0
   34.4783    2.3709   -4.6962 C   0  0  0  0  0  0  0  0  0  0  0  0
   36.3211    3.0634   -3.0000 C   0  0  0  0  0  0  0  0  0  0  0  0
   37.6315    2.8557   -3.3735 C   0  0  0  0  0  0  0  0  0  0  0  0
   35.1219    8.5464   -9.6090 C   0  0  0  0  0  0  0  0  0  0  0  0
   36.9368    9.2688  -11.0725 C   0  0  0  0  0  0  0  0  0  0  0  0
   34.5126    7.9665   -7.2904 C   0  0  0  0  0  0  0  0  0  0  0  0
   36.4002    8.3642  -10.1490 C   0  0  0  0  0  0  0  0  0  0  0  0
   37.2545    6.0885  -10.5240 C   0  0  0  0  0  0  0  0  0  0  0  0
   31.4019    4.6255   -5.9559 C   0  0  0  0  0  0  0  0  0  0  0  0
   33.1578    9.8357   -9.5109 F   0  0  0  0  0  0  0  0  0  0  0  0
   33.6147    4.2439   -5.0420 N   0  0  0  0  0  0  0  0  0  0  0  0
   33.5109    2.9577   -5.4098 N   0  0  0  0  0  0  0  0  0  0  0  0
   33.9440    7.1699   -6.3707 N   0  0  0  0  0  0  0  0  0  0  0  0
   38.5251    2.6517   -2.3406 N   0  0  0  0  0  0  0  0  0  0  0  0
   37.1752    7.2511   -9.8271 N   0  0  0  0  0  0  0  0  0  0  0  0
   38.0756    5.2820   -9.8877 N   0  0  0  0  0  0  0  0  0  0  0  0
   38.4952    5.9850   -8.7828 N   0  0  0  0  0  0  0  0  0  0  0  0
   37.9449    7.1926   -8.7357 N   0  0  0  0  0  0  0  0  0  0  0  0
   33.9691    7.5166   -5.1639 O   0  0  0  0  0  0  0  0  0  0  0  0
   36.1924    2.9894   -1.2876 S   0  0  0  0  0  0  0  0  0  0  0  0
   33.9947   11.9312  -11.4433 Cl  0  0  0  0  0  0  0  0  0  0  0  0
   33.8419    6.1595  -10.0703 H   0  0  0  0  0  0  0  0  0  0  0  0
   32.7835    4.6977   -8.3360 H   0  0  0  0  0  0  0  0  0  0  0  0
   32.5520    5.9948   -4.8016 H   0  0  0  0  0  0  0  0  0  0  0  0
   30.5933    6.1336   -6.7132 H   0  0  0  0  0  0  0  0  0  0  0  0
   38.3949    2.5457   -0.2334 H   0  0  0  0  0  0  0  0  0  0  0  0
   36.6096   11.1029  -12.1950 H   0  0  0  0  0  0  0  0  0  0  0  0
   28.0736    5.6174   -5.4980 H   0  0  0  0  0  0  0  0  0  0  0  0
   28.5344    4.2373   -4.9467 H   0  0  0  0  0  0  0  0  0  0  0  0
   30.5414    5.6659   -3.5176 H   0  0  0  0  0  0  0  0  0  0  0  0
   29.9165    7.0477   -3.8633 H   0  0  0  0  0  0  0  0  0  0  0  0
   34.8712    5.4830   -3.7086 H   0  0  0  0  0  0  0  0  0  0  0  0
   34.6972    1.2936   -4.7350 H   0  0  0  0  0  0  0  0  0  0  0  0
   37.9456    2.8528   -4.4277 H   0  0  0  0  0  0  0  0  0  0  0  0
   37.9440    9.1028  -11.4824 H   0  0  0  0  0  0  0  0  0  0  0  0
   34.9962    8.8997   -6.9661 H   0  0  0  0  0  0  0  0  0  0  0  0
   36.7232    5.8604  -11.4598 H   0  0  0  0  0  0  0  0  0  0  0  0
   31.4272    4.2988   -7.0060 H   0  0  0  0  0  0  0  0  0  0  0  0
   31.2108    3.7573   -5.3081 H   0  0  0  0  0  0  0  0  0  0  0  0
  1  2  2  0
  1 18  1  0
  1 20  1  0
  2  3  1  0
  3  4  2  0
  4  5  1  0
  4 27  1  0
  5 23  1  0
  5 25  1  0
  6 12  1  0
  6 13  1  0
  6 23  1  0
  7 14  2  0
  7 15  1  0
  7 16  1  0
  8 28  2  0
  8 34  1  0
  9 10  2  0
  9 18  1  0
  9 24  1  0
 10 11  1  0
 10 35  1  0
 11 19  2  0
 12 13  1  0
 14 25  1  0
 15 26  2  0
 16 17  2  0
 16 34  1  0
 17 28  1  0
 18 21  2  0
 19 21  1  0
 20 27  2  0
 21 29  1  0
 22 29  1  0
 22 30  2  0
 25 26  1  0
 27 33  1  0
 29 32  1  0
 30 31  1  0
 31 32  2  0
  2 36  1  0
  3 37  1  0
  5 38  1  1
  6 39  1  6
  8 40  1  0
 11 41  1  0
 12 42  1  0
 12 43  1  0
 13 44  1  0
 13 45  1  0
 14 46  1  0
 15 47  1  0
 17 48  1  0
 19 49  1  0
 20 50  1  0
 22 51  1  0
 23 52  1  0
 23 53  1  0
M  CHG  2  27   1  33  -1
M  END
>  <filename_input>  (25) 
7V14_ORU_docked.sdf

>  <pdb_id>  (25) 
7V14_ORU

>  <pose_rank>  (25) 
24

>  <num_atoms_heavy>  (25) 
35

>  <num_torsions>  (25) 
7

>  <pose>  (25) 
[34.505315811137315, 7.6416438293587925, -8.640879277517323, 2.5573231026576755, -0.6823868368754346, 3.5933794240611148, 6.095964836509869, -0.502068593498441, -0.19862327183098197, -0.6589615998415792, -2.1651370657707107, 1.7073726199284274, 2.5376484521666756]

>  <energy>  (25) 
-431.30251879174267

>  <inter_energy>  (25) 
-423.2093501148207

>  <intra_energy>  (25) 
10.813887806884804

>  <rmsd>  (25) 
6.74813

>  <sdf_rank>  (25) 
0

$$$$

     RDKit          3D

 53 58  0  0  0  0  0  0  0  0999 V2000
   30.1090    6.0950   -4.9870 C   0  0  0  0  0  0  0  0  0  0  0  0
   30.9050    6.1920   -6.1290 C   0  0  0  0  0  0  0  0  0  0  0  0
   31.9490    5.2890   -6.3450 C   0  0  0  0  0  0  0  0  0  0  0  0
   32.1780    4.2940   -5.4030 C   0  0  0  0  0  0  0  0  0  0  0  0
   33.2530    3.2610   -5.5210 C   0  0  1  0  0  0  0  0  0  0  0  0
   34.7200    1.9640   -6.9830 C   0  0  1  0  0  0  0  0  0  0  0  0
   36.0500    3.4530   -3.3010 C   0  0  0  0  0  0  0  0  0  0  0  0
   38.3970    2.7320   -0.3270 C   0  0  0  0  0  0  0  0  0  0  0  0
   27.6990    6.4840   -4.8240 C   0  0  0  0  0  0  0  0  0  0  0  0
   26.5860    7.2890   -4.5770 C   0  0  0  0  0  0  0  0  0  0  0  0
   26.7350    8.6320   -4.2280 C   0  0  0  0  0  0  0  0  0  0  0  0
   34.3950    0.5160   -6.7310 C   0  0  0  0  0  0  0  0  0  0  0  0
   34.7570    0.9730   -8.1190 C   0  0  0  0  0  0  0  0  0  0  0  0
   34.9190    2.7960   -3.7440 C   0  0  0  0  0  0  0  0  0  0  0  0
   36.1400    4.6040   -4.1080 C   0  0  0  0  0  0  0  0  0  0  0  0
   36.8970    3.0130   -2.1980 C   0  0  0  0  0  0  0  0  0  0  0  0
   36.9890    1.7350   -1.6900 C   0  0  0  0  0  0  0  0  0  0  0  0
   28.9910    6.9980   -4.7210 C   0  0  0  0  0  0  0  0  0  0  0  0
   28.0250    9.1610   -4.1330 C   0  0  0  0  0  0  0  0  0  0  0  0
   30.3980    5.0720   -4.0930 C   0  0  0  0  0  0  0  0  0  0  0  0
   29.1370    8.3470   -4.3780 C   0  0  0  0  0  0  0  0  0  0  0  0
   30.8040   10.0450   -5.0000 C   0  0  0  0  0  0  0  0  0  0  0  0
   33.6240    2.9660   -6.9550 C   0  0  0  0  0  0  0  0  0  0  0  0
   27.5520    5.1890   -5.1530 F   0  0  0  0  0  0  0  0  0  0  0  0
   34.4390    3.5730   -4.7540 N   0  0  0  0  0  0  0  0  0  0  0  0
   35.1490    4.6840   -5.0030 N   0  0  0  0  0  0  0  0  0  0  0  0
   31.4070    4.2120   -4.3080 N   0  0  0  0  0  0  0  0  0  0  0  0
   37.8530    1.5730   -0.6250 N   0  0  0  0  0  0  0  0  0  0  0  0
   30.3920    8.9500   -4.3110 N   0  0  0  0  0  0  0  0  0  0  0  0
   32.0550   10.2890   -4.6760 N   0  0  0  0  0  0  0  0  0  0  0  0
   32.3950    9.3120   -3.7700 N   0  0  0  0  0  0  0  0  0  0  0  0
   31.3820    8.4840   -3.5430 N   0  0  0  0  0  0  0  0  0  0  0  0
   31.6180    3.2980   -3.4730 O   0  0  0  0  0  0  0  0  0  0  0  0
   37.9220    4.0630   -1.3030 S   0  0  0  0  0  0  0  0  0  0  0  0
   24.9960    6.6350   -4.7040 Cl  0  0  0  0  0  0  0  0  0  0  0  0
   30.7090    6.9857   -6.8650 H   0  0  0  0  0  0  0  0  0  0  0  0
   32.5780    5.3645   -7.2443 H   0  0  0  0  0  0  0  0  0  0  0  0
   32.8101    2.3528   -5.0863 H   0  0  0  0  0  0  0  0  0  0  0  0
   35.4293    2.6849   -6.5502 H   0  0  0  0  0  0  0  0  0  0  0  0
   39.1146    2.8429    0.4993 H   0  0  0  0  0  0  0  0  0  0  0  0
   25.8546    9.2616   -4.0316 H   0  0  0  0  0  0  0  0  0  0  0  0
   35.0937   -0.1128   -6.1596 H   0  0  0  0  0  0  0  0  0  0  0  0
   33.5455   -0.0240   -6.2874 H   0  0  0  0  0  0  0  0  0  0  0  0
   33.9880    1.0079   -8.9048 H   0  0  0  0  0  0  0  0  0  0  0  0
   35.5066    0.6734   -8.8662 H   0  0  0  0  0  0  0  0  0  0  0  0
   34.4986    1.8530   -3.3646 H   0  0  0  0  0  0  0  0  0  0  0  0
   36.9380    5.3550   -4.0127 H   0  0  0  0  0  0  0  0  0  0  0  0
   36.4108    0.8971   -2.1066 H   0  0  0  0  0  0  0  0  0  0  0  0
   28.1667   10.2185   -3.8653 H   0  0  0  0  0  0  0  0  0  0  0  0
   29.7851    4.9634   -3.1861 H   0  0  0  0  0  0  0  0  0  0  0  0
   30.1960   10.6278   -5.7075 H   0  0  0  0  0  0  0  0  0  0  0  0
   32.7476    2.5667   -7.4865 H   0  0  0  0  0  0  0  0  0  0  0  0
   33.9585    3.8914   -7.4466 H   0  0  0  0  0  0  0  0  0  0  0  0
  1  2  2  0
  1 18  1  0
  1 20  1  0
  2  3  1  0
  3  4  2  0
  4  5  1  0
  4 27  1  0
  5 23  1  0
  5 25  1  0
  6 12  1  0
  6 13  1  0
  6 23  1  0
  7 14  2  0
  7 15  1  0
  7 16  1  0
  8 28  2  0
  8 34  1  0
  9 10  2  0
  9 18  1  0
  9 24  1  0
 10 11  1  0
 10 35  1  0
 11 19  2  0
 12 13  1  0
 14 25  1  0
 15 26  2  0
 16 17  2  0
 16 34  1  0
 17 28  1  0
 18 21  2  0
 19 21  1  0
 20 27  2  0
 21 29  1  0
 22 29  1  0
 22 30  2  0
 25 26  1  0
 27 33  1  0
 29 32  1  0
 30 31  1  0
 31 32  2  0
  2 36  1  0
  3 37  1  0
  5 38  1  1
  6 39  1  1
  8 40  1  0
 11 41  1  0
 12 42  1  0
 12 43  1  0
 13 44  1  0
 13 45  1  0
 14 46  1  0
 15 47  1  0
 17 48  1  0
 19 49  1  0
 20 50  1  0
 22 51  1  0
 23 52  1  0
 23 53  1  0
M  CHG  2  27   1  33  -1
M  END
>  <filename_input>  (26) 
7V14_ORU_docked.sdf

>  <pdb_id>  (26) 
7V14_ORU

>  <pose_rank>  (26) 
25

>  <num_atoms_heavy>  (26) 
35

>  <num_torsions>  (26) 
7

>  <pose>  (26) 
[30.109, 6.095, -4.987, 1e-06, 1e-06, 1e-06, 0.0, 0.0, 0.0, 0.0, 0.0, 0.0, 0.0]

>  <energy>  (26) 
-1849.103180355185

>  <inter_energy>  (26) 
-1904.6247047085017

>  <intra_energy>  (26) 
37.805461908522304

>  <rmsd>  (26) 
0.0

>  <sdf_rank>  (26) 
0

$$$$
