
     RDKit          3D

 14 13  0  0  0  0  0  0  0  0999 V2000
  130.4246   83.6684   -7.3581 C   0  0  0  0  0  0  0  0  0  0  0  0
  131.4189   82.9114   -7.4138 O   0  0  0  0  0  0  0  0  0  0  0  0
  130.4134   84.7499   -7.9779 O   0  0  0  0  0  0  0  0  0  0  0  0
  129.2720   83.2640   -6.5593 C   0  0  0  0  0  0  0  0  0  0  0  0
  128.1270   83.5547   -6.8756 O   0  0  0  0  0  0  0  0  0  0  0  0
  129.5101   82.4739   -5.2959 C   0  0  0  0  0  0  0  0  0  0  0  0
  128.2892   81.6165   -5.0327 C   0  0  0  0  0  0  0  0  0  0  0  0
  128.2965   81.0869   -3.6193 C   0  0  0  0  0  0  0  0  0  0  0  0
  129.3859   81.0822   -3.0059 O   0  0  0  0  0  0  0  0  0  0  0  0
  127.2384   80.6371   -3.1276 O   0  0  0  0  0  0  0  0  0  0  0  0
  130.3951   81.8325   -5.4198 H   0  0  0  0  0  0  0  0  0  0  0  0
  129.6834   83.1555   -4.4501 H   0  0  0  0  0  0  0  0  0  0  0  0
  127.3840   82.2225   -5.1854 H   0  0  0  0  0  0  0  0  0  0  0  0
  128.3028   80.7636   -5.7273 H   0  0  0  0  0  0  0  0  0  0  0  0
  1  2  2  0
  1  3  1  0
  1  4  1  0
  4  5  2  0
  4  6  1  0
  6  7  1  0
  7  8  1  0
  8  9  2  0
  8 10  1  0
  6 11  1  0
  6 12  1  0
  7 13  1  0
  7 14  1  0
M  CHG  2   3  -1  10  -1
M  END
>  <filename_input>  (1) 
7V3N_AKG_docked.sdf

>  <pdb_id>  (1) 
7V3N_AKG

>  <pose_rank>  (1) 
0

>  <num_atoms_heavy>  (1) 
10

>  <num_torsions>  (1) 
4

>  <pose>  (1) 
[129.27204548261517, 83.26404929529579, -6.559265314260755, -3.081779616458615, 0.8929526787064033, -1.020396890812542, 0.8348917229538237, 13.10138202364858, -12.327895481345992, -4.061179567556132]

>  <energy>  (1) 
-554.5969230178641

>  <inter_energy>  (1) 
-565.6400464228518

>  <intra_energy>  (1) 
0.0

>  <rmsd>  (1) 
4.69902

>  <sdf_rank>  (1) 
0

$$$$

     RDKit          3D

 14 13  0  0  0  0  0  0  0  0999 V2000
  127.6910   83.2332   -6.8523 C   0  0  0  0  0  0  0  0  0  0  0  0
  126.9406   84.1622   -6.4798 O   0  0  0  0  0  0  0  0  0  0  0  0
  127.2488   82.3001   -7.5507 O   0  0  0  0  0  0  0  0  0  0  0  0
  129.0968   83.2598   -6.4612 C   0  0  0  0  0  0  0  0  0  0  0  0
  129.8568   84.1458   -6.8258 O   0  0  0  0  0  0  0  0  0  0  0  0
  129.6254   82.1468   -5.5900 C   0  0  0  0  0  0  0  0  0  0  0  0
  128.9036   82.1994   -4.2592 C   0  0  0  0  0  0  0  0  0  0  0  0
  128.7463   80.8161   -3.6759 C   0  0  0  0  0  0  0  0  0  0  0  0
  127.6978   80.1891   -3.9411 O   0  0  0  0  0  0  0  0  0  0  0  0
  129.6362   80.3634   -2.9229 O   0  0  0  0  0  0  0  0  0  0  0  0
  129.4419   81.1764   -6.0744 H   0  0  0  0  0  0  0  0  0  0  0  0
  130.7083   82.2667   -5.4383 H   0  0  0  0  0  0  0  0  0  0  0  0
  129.4821   82.8212   -3.5602 H   0  0  0  0  0  0  0  0  0  0  0  0
  127.9035   82.6288   -4.4189 H   0  0  0  0  0  0  0  0  0  0  0  0
  1  2  2  0
  1  3  1  0
  1  4  1  0
  4  5  2  0
  4  6  1  0
  6  7  1  0
  7  8  1  0
  8  9  2  0
  8 10  1  0
  6 11  1  0
  6 12  1  0
  7 13  1  0
  7 14  1  0
M  CHG  2   3  -1  10  -1
M  END
>  <filename_input>  (2) 
7V3N_AKG_docked.sdf

>  <pdb_id>  (2) 
7V3N_AKG

>  <pose_rank>  (2) 
1

>  <num_atoms_heavy>  (2) 
10

>  <num_torsions>  (2) 
4

>  <pose>  (2) 
[129.09675653841344, 83.25975070127862, -6.46121887236224, 0.3887620319273086, -1.2691162901579907, -1.2765013803601721, -3.9914218391836958, 2.0867034366223525, -6.870051874986481, 0.9497852225665067]

>  <energy>  (2) 
-420.747510244076

>  <inter_energy>  (2) 
-413.5371820998635

>  <intra_energy>  (2) 
0.061170409569269814

>  <rmsd>  (2) 
4.38255

>  <sdf_rank>  (2) 
0

$$$$

     RDKit          3D

 14 13  0  0  0  0  0  0  0  0999 V2000
  130.2863   84.3052   -7.1871 C   0  0  0  0  0  0  0  0  0  0  0  0
  129.5640   84.6483   -8.1491 O   0  0  0  0  0  0  0  0  0  0  0  0
  131.2633   85.0003   -6.8461 O   0  0  0  0  0  0  0  0  0  0  0  0
  129.9652   83.0789   -6.4640 C   0  0  0  0  0  0  0  0  0  0  0  0
  130.7623   82.5420   -5.7076 O   0  0  0  0  0  0  0  0  0  0  0  0
  128.6088   82.4514   -6.6724 C   0  0  0  0  0  0  0  0  0  0  0  0
  128.2467   81.6732   -5.4241 C   0  0  0  0  0  0  0  0  0  0  0  0
  127.3361   82.4800   -4.5306 C   0  0  0  0  0  0  0  0  0  0  0  0
  127.4374   82.3142   -3.2957 O   0  0  0  0  0  0  0  0  0  0  0  0
  126.4928   83.2460   -5.0461 O   0  0  0  0  0  0  0  0  0  0  0  0
  127.8595   83.2365   -6.8514 H   0  0  0  0  0  0  0  0  0  0  0  0
  128.6321   81.7801   -7.5435 H   0  0  0  0  0  0  0  0  0  0  0  0
  127.7348   80.7440   -5.7150 H   0  0  0  0  0  0  0  0  0  0  0  0
  129.1704   81.4465   -4.8714 H   0  0  0  0  0  0  0  0  0  0  0  0
  1  2  2  0
  1  3  1  0
  1  4  1  0
  4  5  2  0
  4  6  1  0
  6  7  1  0
  7  8  1  0
  8  9  2  0
  8 10  1  0
  6 11  1  0
  6 12  1  0
  7 13  1  0
  7 14  1  0
M  CHG  2   3  -1  10  -1
M  END
>  <filename_input>  (3) 
7V3N_AKG_docked.sdf

>  <pdb_id>  (3) 
7V3N_AKG

>  <pose_rank>  (3) 
2

>  <num_atoms_heavy>  (3) 
10

>  <num_torsions>  (3) 
4

>  <pose>  (3) 
[129.96523712808312, 83.07888413972853, -6.463983782764071, -0.48771814717177375, 1.7304794297520263, 2.1256801786837864, -0.013510599051069029, -18.325550320159927, -14.01941718367536, 6.267090294747492]

>  <energy>  (3) 
-457.9867104433743

>  <inter_energy>  (3) 
-448.24401332798766

>  <intra_energy>  (3) 
0.0

>  <rmsd>  (3) 
4.62077

>  <sdf_rank>  (3) 
0

$$$$

     RDKit          3D

 14 13  0  0  0  0  0  0  0  0999 V2000
  128.3771   80.9131   -4.1275 C   0  0  0  0  0  0  0  0  0  0  0  0
  129.5493   80.5859   -3.8383 O   0  0  0  0  0  0  0  0  0  0  0  0
  127.4072   80.3464   -3.5872 O   0  0  0  0  0  0  0  0  0  0  0  0
  128.1602   81.9745   -5.1055 C   0  0  0  0  0  0  0  0  0  0  0  0
  127.0394   82.3381   -5.4331 O   0  0  0  0  0  0  0  0  0  0  0  0
  129.3628   82.6299   -5.7389 C   0  0  0  0  0  0  0  0  0  0  0  0
  128.8741   83.6722   -6.7237 C   0  0  0  0  0  0  0  0  0  0  0  0
  129.9786   84.0826   -7.6672 C   0  0  0  0  0  0  0  0  0  0  0  0
  129.8310   85.1463   -8.3073 O   0  0  0  0  0  0  0  0  0  0  0  0
  130.9722   83.3368   -7.8093 O   0  0  0  0  0  0  0  0  0  0  0  0
  129.9762   83.1107   -4.9626 H   0  0  0  0  0  0  0  0  0  0  0  0
  129.9751   81.8773   -6.2571 H   0  0  0  0  0  0  0  0  0  0  0  0
  128.0399   83.2541   -7.3062 H   0  0  0  0  0  0  0  0  0  0  0  0
  128.5447   84.5588   -6.1620 H   0  0  0  0  0  0  0  0  0  0  0  0
  1  2  2  0
  1  3  1  0
  1  4  1  0
  4  5  2  0
  4  6  1  0
  6  7  1  0
  7  8  1  0
  8  9  2  0
  8 10  1  0
  6 11  1  0
  6 12  1  0
  7 13  1  0
  7 14  1  0
M  CHG  2   3  -1  10  -1
M  END
>  <filename_input>  (4) 
7V3N_AKG_docked.sdf

>  <pdb_id>  (4) 
7V3N_AKG

>  <pose_rank>  (4) 
3

>  <num_atoms_heavy>  (4) 
10

>  <num_torsions>  (4) 
4

>  <pose>  (4) 
[128.16020674893605, 81.97447319431569, -5.105492634392851, -4.2517688736599295, -4.1450802484687665, -1.7696149748096253, 0.2500480075483269, 0.0355646435664522, 0.2588538639813345, -0.2858681471956412]

>  <energy>  (4) 
-472.2926444252343

>  <inter_energy>  (4) 
-446.18692060148686

>  <intra_energy>  (4) 
0.0

>  <rmsd>  (4) 
0.45389

>  <sdf_rank>  (4) 
0

$$$$

     RDKit          3D

 14 13  0  0  0  0  0  0  0  0999 V2000
  129.9304   83.9447   -7.4380 C   0  0  0  0  0  0  0  0  0  0  0  0
  130.9801   84.4448   -7.8996 O   0  0  0  0  0  0  0  0  0  0  0  0
  128.8138   84.3674   -7.7964 O   0  0  0  0  0  0  0  0  0  0  0  0
  130.0315   82.8527   -6.4752 C   0  0  0  0  0  0  0  0  0  0  0  0
  131.1050   82.3544   -6.1670 O   0  0  0  0  0  0  0  0  0  0  0  0
  128.7646   82.3171   -5.8546 C   0  0  0  0  0  0  0  0  0  0  0  0
  129.1337   81.1822   -4.9214 C   0  0  0  0  0  0  0  0  0  0  0  0
  129.0864   81.6312   -3.4811 C   0  0  0  0  0  0  0  0  0  0  0  0
  130.1554   81.6189   -2.8329 O   0  0  0  0  0  0  0  0  0  0  0  0
  127.9897   81.9562   -2.9759 O   0  0  0  0  0  0  0  0  0  0  0  0
  128.2617   83.1150   -5.2887 H   0  0  0  0  0  0  0  0  0  0  0  0
  128.0824   81.9560   -6.6384 H   0  0  0  0  0  0  0  0  0  0  0  0
  128.4242   80.3538   -5.0638 H   0  0  0  0  0  0  0  0  0  0  0  0
  130.1580   80.8555   -5.1539 H   0  0  0  0  0  0  0  0  0  0  0  0
  1  2  2  0
  1  3  1  0
  1  4  1  0
  4  5  2  0
  4  6  1  0
  6  7  1  0
  7  8  1  0
  8  9  2  0
  8 10  1  0
  6 11  1  0
  6 12  1  0
  7 13  1  0
  7 14  1  0
M  CHG  2   3  -1  10  -1
M  END
>  <filename_input>  (5) 
7V3N_AKG_docked.sdf

>  <pdb_id>  (5) 
7V3N_AKG

>  <pose_rank>  (5) 
4

>  <num_atoms_heavy>  (5) 
10

>  <num_torsions>  (5) 
4

>  <pose>  (5) 
[130.03153047150178, 82.85265250058312, -6.475196784503859, -0.12113092249323125, -2.1933044778776303, -2.27105521112177, 3.313576010221573, 0.031618951365730716, -1.3670010504207821, -5.759886707360587]

>  <energy>  (5) 
-478.0459298090159

>  <inter_energy>  (5) 
-470.3238094289615

>  <intra_energy>  (5) 
0.7980434168241428

>  <rmsd>  (5) 
4.648

>  <sdf_rank>  (5) 
0

$$$$

     RDKit          3D

 14 13  0  0  0  0  0  0  0  0999 V2000
  127.6417   81.8257   -4.4391 C   0  0  0  0  0  0  0  0  0  0  0  0
  126.7923   82.1457   -3.5784 O   0  0  0  0  0  0  0  0  0  0  0  0
  128.1517   80.6882   -4.4370 O   0  0  0  0  0  0  0  0  0  0  0  0
  128.0248   82.8040   -5.4522 C   0  0  0  0  0  0  0  0  0  0  0  0
  127.8445   84.0038   -5.2989 O   0  0  0  0  0  0  0  0  0  0  0  0
  128.6503   82.3100   -6.7335 C   0  0  0  0  0  0  0  0  0  0  0  0
  129.1541   83.5085   -7.5110 C   0  0  0  0  0  0  0  0  0  0  0  0
  130.6476   83.6631   -7.3560 C   0  0  0  0  0  0  0  0  0  0  0  0
  131.2295   82.9071   -6.5480 O   0  0  0  0  0  0  0  0  0  0  0  0
  131.2415   84.5563   -7.9988 O   0  0  0  0  0  0  0  0  0  0  0  0
  129.4894   81.6373   -6.5023 H   0  0  0  0  0  0  0  0  0  0  0  0
  127.9083   81.7574   -7.3285 H   0  0  0  0  0  0  0  0  0  0  0  0
  128.9148   83.3732   -8.5761 H   0  0  0  0  0  0  0  0  0  0  0  0
  128.6650   84.4124   -7.1188 H   0  0  0  0  0  0  0  0  0  0  0  0
  1  2  2  0
  1  3  1  0
  1  4  1  0
  4  5  2  0
  4  6  1  0
  6  7  1  0
  7  8  1  0
  8  9  2  0
  8 10  1  0
  6 11  1  0
  6 12  1  0
  7 13  1  0
  7 14  1  0
M  CHG  2   3  -1  10  -1
M  END
>  <filename_input>  (6) 
7V3N_AKG_docked.sdf

>  <pdb_id>  (6) 
7V3N_AKG

>  <pose_rank>  (6) 
5

>  <num_atoms_heavy>  (6) 
10

>  <num_torsions>  (6) 
4

>  <pose>  (6) 
[128.024784294566, 82.80397213207357, -5.452157865594863, -0.43943423555298433, -2.4758039931642735, 4.33088502857659, -2.5350214953688, 0.20704032921279675, 4.888798602689814, -3.840557487110445]

>  <energy>  (6) 
-331.05606036619076

>  <inter_energy>  (6) 
-335.9556853291361

>  <intra_energy>  (6) 
1.6814498862920848

>  <rmsd>  (6) 
1.37095

>  <sdf_rank>  (6) 
0

$$$$

     RDKit          3D

 14 13  0  0  0  0  0  0  0  0999 V2000
  129.9868   83.8794   -6.8422 C   0  0  0  0  0  0  0  0  0  0  0  0
  131.1344   83.4707   -6.5578 O   0  0  0  0  0  0  0  0  0  0  0  0
  129.8153   84.7049   -7.7605 O   0  0  0  0  0  0  0  0  0  0  0  0
  128.8474   83.3710   -6.0850 C   0  0  0  0  0  0  0  0  0  0  0  0
  128.1180   84.1065   -5.4349 O   0  0  0  0  0  0  0  0  0  0  0  0
  128.5754   81.8868   -6.0985 C   0  0  0  0  0  0  0  0  0  0  0  0
  129.4875   81.2257   -5.0856 C   0  0  0  0  0  0  0  0  0  0  0  0
  128.7594   80.9738   -3.7876 C   0  0  0  0  0  0  0  0  0  0  0  0
  128.2645   79.8397   -3.6094 O   0  0  0  0  0  0  0  0  0  0  0  0
  128.6388   81.9048   -2.9616 O   0  0  0  0  0  0  0  0  0  0  0  0
  127.5250   81.6989   -5.8313 H   0  0  0  0  0  0  0  0  0  0  0  0
  128.7633   81.4766   -7.1017 H   0  0  0  0  0  0  0  0  0  0  0  0
  129.8415   80.2667   -5.4919 H   0  0  0  0  0  0  0  0  0  0  0  0
  130.3366   81.8964   -4.8875 H   0  0  0  0  0  0  0  0  0  0  0  0
  1  2  2  0
  1  3  1  0
  1  4  1  0
  4  5  2  0
  4  6  1  0
  6  7  1  0
  7  8  1  0
  8  9  2  0
  8 10  1  0
  6 11  1  0
  6 12  1  0
  7 13  1  0
  7 14  1  0
M  CHG  2   3  -1  10  -1
M  END
>  <filename_input>  (7) 
7V3N_AKG_docked.sdf

>  <pdb_id>  (7) 
7V3N_AKG

>  <pose_rank>  (7) 
6

>  <num_atoms_heavy>  (7) 
10

>  <num_torsions>  (7) 
4

>  <pose>  (7) 
[128.84743809092498, 83.37101088808129, -6.0850495324567975, 2.821164946963659, -2.1395573580276595, -0.21915718296269143, -0.8024386390069788, -7.949618191190176, -1.4470940056545412, -2.0508707193064843]

>  <energy>  (7) 
-449.35184604295307

>  <inter_energy>  (7) 
-452.595776853182

>  <intra_energy>  (7) 
6.773647487060763

>  <rmsd>  (7) 
4.45976

>  <sdf_rank>  (7) 
0

$$$$

     RDKit          3D

 14 13  0  0  0  0  0  0  0  0999 V2000
  130.2747   80.6484   -2.8272 C   0  0  0  0  0  0  0  0  0  0  0  0
  130.0045   79.6547   -2.1169 O   0  0  0  0  0  0  0  0  0  0  0  0
  131.2481   81.3782   -2.5557 O   0  0  0  0  0  0  0  0  0  0  0  0
  129.4348   80.9393   -3.9848 C   0  0  0  0  0  0  0  0  0  0  0  0
  128.5167   80.2057   -4.3232 O   0  0  0  0  0  0  0  0  0  0  0  0
  129.7238   82.1801   -4.7934 C   0  0  0  0  0  0  0  0  0  0  0  0
  128.4602   83.0134   -4.8560 C   0  0  0  0  0  0  0  0  0  0  0  0
  128.1365   83.3963   -6.2797 C   0  0  0  0  0  0  0  0  0  0  0  0
  126.9499   83.2832   -6.6567 O   0  0  0  0  0  0  0  0  0  0  0  0
  129.0577   83.7689   -7.0389 O   0  0  0  0  0  0  0  0  0  0  0  0
  130.5270   82.7583   -4.3131 H   0  0  0  0  0  0  0  0  0  0  0  0
  130.0459   81.9041   -5.8084 H   0  0  0  0  0  0  0  0  0  0  0  0
  127.6242   82.4313   -4.4408 H   0  0  0  0  0  0  0  0  0  0  0  0
  128.6164   83.9324   -4.2720 H   0  0  0  0  0  0  0  0  0  0  0  0
  1  2  2  0
  1  3  1  0
  1  4  1  0
  4  5  2  0
  4  6  1  0
  6  7  1  0
  7  8  1  0
  8  9  2  0
  8 10  1  0
  6 11  1  0
  6 12  1  0
  7 13  1  0
  7 14  1  0
M  CHG  2   3  -1  10  -1
M  END
>  <filename_input>  (8) 
7V3N_AKG_docked.sdf

>  <pdb_id>  (8) 
7V3N_AKG

>  <pose_rank>  (8) 
7

>  <num_atoms_heavy>  (8) 
10

>  <num_torsions>  (8) 
4

>  <pose>  (8) 
[129.43483771649443, 80.93933040122604, -3.9847753124608265, 0.997807791900081, -0.20232010664038466, -5.222625443203954, -2.955025709267002, 7.303314482243767, 0.8616510039191283, 4.91878641278775]

>  <energy>  (8) 
-347.49850549628394

>  <inter_energy>  (8) 
-354.69665117688794

>  <intra_energy>  (8) 
0.0

>  <rmsd>  (8) 
2.44551

>  <sdf_rank>  (8) 
0

$$$$

     RDKit          3D

 14 13  0  0  0  0  0  0  0  0999 V2000
  129.9920   83.5086   -5.8948 C   0  0  0  0  0  0  0  0  0  0  0  0
  130.9104   82.9941   -5.2190 O   0  0  0  0  0  0  0  0  0  0  0  0
  130.2532   84.2391   -6.8705 O   0  0  0  0  0  0  0  0  0  0  0  0
  128.6061   83.2365   -5.5271 C   0  0  0  0  0  0  0  0  0  0  0  0
  128.0386   83.8470   -4.6322 O   0  0  0  0  0  0  0  0  0  0  0  0
  127.8603   82.1557   -6.2705 C   0  0  0  0  0  0  0  0  0  0  0  0
  128.3735   80.8109   -5.7980 C   0  0  0  0  0  0  0  0  0  0  0  0
  128.3335   80.7172   -4.2919 C   0  0  0  0  0  0  0  0  0  0  0  0
  127.2196   80.8148   -3.7328 O   0  0  0  0  0  0  0  0  0  0  0  0
  129.4032   80.5892   -3.6570 O   0  0  0  0  0  0  0  0  0  0  0  0
  126.7832   82.2366   -6.0622 H   0  0  0  0  0  0  0  0  0  0  0  0
  128.0195   82.2623   -7.3537 H   0  0  0  0  0  0  0  0  0  0  0  0
  127.7450   80.0155   -6.2249 H   0  0  0  0  0  0  0  0  0  0  0  0
  129.4162   80.6969   -6.1293 H   0  0  0  0  0  0  0  0  0  0  0  0
  1  2  2  0
  1  3  1  0
  1  4  1  0
  4  5  2  0
  4  6  1  0
  6  7  1  0
  7  8  1  0
  8  9  2  0
  8 10  1  0
  6 11  1  0
  6 12  1  0
  7 13  1  0
  7 14  1  0
M  CHG  2   3  -1  10  -1
M  END
>  <filename_input>  (9) 
7V3N_AKG_docked.sdf

>  <pdb_id>  (9) 
7V3N_AKG

>  <pose_rank>  (9) 
8

>  <num_atoms_heavy>  (9) 
10

>  <num_torsions>  (9) 
4

>  <pose>  (9) 
[128.6060879198934, 83.23645885423258, -5.5270760750562244, 2.5892572987057267, -3.0623023543188284, -0.4685164846859594, -1.4627793383113523, -8.080367222359621, -2.259553021632953, -2.657758094650934]

>  <energy>  (9) 
-421.7189104216416

>  <inter_energy>  (9) 
-436.33437403941304

>  <intra_energy>  (9) 
13.76122252044559

>  <rmsd>  (9) 
4.14048

>  <sdf_rank>  (9) 
0

$$$$

     RDKit          3D

 14 13  0  0  0  0  0  0  0  0999 V2000
  129.7319   80.8741   -3.3217 C   0  0  0  0  0  0  0  0  0  0  0  0
  128.7992   80.0475   -3.4298 O   0  0  0  0  0  0  0  0  0  0  0  0
  130.8821   80.4991   -3.0212 O   0  0  0  0  0  0  0  0  0  0  0  0
  129.4550   82.2874   -3.5581 C   0  0  0  0  0  0  0  0  0  0  0  0
  129.5314   83.1230   -2.6684 O   0  0  0  0  0  0  0  0  0  0  0  0
  129.0484   82.7218   -4.9448 C   0  0  0  0  0  0  0  0  0  0  0  0
  130.2560   82.6102   -5.8526 C   0  0  0  0  0  0  0  0  0  0  0  0
  130.0973   83.4861   -7.0717 C   0  0  0  0  0  0  0  0  0  0  0  0
  128.9409   83.6668   -7.5110 O   0  0  0  0  0  0  0  0  0  0  0  0
  131.1146   83.9622   -7.6212 O   0  0  0  0  0  0  0  0  0  0  0  0
  128.2425   82.0719   -5.3166 H   0  0  0  0  0  0  0  0  0  0  0  0
  128.6844   83.7596   -4.9249 H   0  0  0  0  0  0  0  0  0  0  0  0
  131.1531   82.9236   -5.2985 H   0  0  0  0  0  0  0  0  0  0  0  0
  130.3527   81.5649   -6.1815 H   0  0  0  0  0  0  0  0  0  0  0  0
  1  2  2  0
  1  3  1  0
  1  4  1  0
  4  5  2  0
  4  6  1  0
  6  7  1  0
  7  8  1  0
  8  9  2  0
  8 10  1  0
  6 11  1  0
  6 12  1  0
  7 13  1  0
  7 14  1  0
M  CHG  2   3  -1  10  -1
M  END
>  <filename_input>  (10) 
7V3N_AKG_docked.sdf

>  <pdb_id>  (10) 
7V3N_AKG

>  <pose_rank>  (10) 
9

>  <num_atoms_heavy>  (10) 
10

>  <num_torsions>  (10) 
4

>  <pose>  (10) 
[129.45504249002997, 82.28740400317173, -3.558105194232612, 0.969723196363008, 7.2248738878999585, -3.4532083435345555, 5.387007082090635, 8.242799953868555, 0.349820439681958, -4.279697506058425]

>  <energy>  (10) 
-356.2241018874164

>  <inter_energy>  (10) 
-356.14384602312344

>  <intra_energy>  (10) 
0.005130413042768805

>  <rmsd>  (10) 
1.77113

>  <sdf_rank>  (10) 
0

$$$$

     RDKit          3D

 14 13  0  0  0  0  0  0  0  0999 V2000
  128.9742   81.0466   -4.0277 C   0  0  0  0  0  0  0  0  0  0  0  0
  129.1255   79.8132   -4.1709 O   0  0  0  0  0  0  0  0  0  0  0  0
  129.0959   81.5761   -2.9058 O   0  0  0  0  0  0  0  0  0  0  0  0
  128.6572   81.8605   -5.1970 C   0  0  0  0  0  0  0  0  0  0  0  0
  127.5080   82.0302   -5.5793 O   0  0  0  0  0  0  0  0  0  0  0  0
  129.7907   82.4984   -5.9620 C   0  0  0  0  0  0  0  0  0  0  0  0
  129.2831   83.7837   -6.5827 C   0  0  0  0  0  0  0  0  0  0  0  0
  130.4239   84.6029   -7.1359 C   0  0  0  0  0  0  0  0  0  0  0  0
  131.5461   84.0576   -7.2152 O   0  0  0  0  0  0  0  0  0  0  0  0
  130.2245   85.7958   -7.4535 O   0  0  0  0  0  0  0  0  0  0  0  0
  130.6231   82.7194   -5.2777 H   0  0  0  0  0  0  0  0  0  0  0  0
  130.1499   81.8155   -6.7460 H   0  0  0  0  0  0  0  0  0  0  0  0
  128.5868   83.5391   -7.3984 H   0  0  0  0  0  0  0  0  0  0  0  0
  128.7733   84.3716   -5.8053 H   0  0  0  0  0  0  0  0  0  0  0  0
  1  2  2  0
  1  3  1  0
  1  4  1  0
  4  5  2  0
  4  6  1  0
  6  7  1  0
  7  8  1  0
  8  9  2  0
  8 10  1  0
  6 11  1  0
  6 12  1  0
  7 13  1  0
  7 14  1  0
M  CHG  2   3  -1  10  -1
M  END
>  <filename_input>  (11) 
7V3N_AKG_docked.sdf

>  <pdb_id>  (11) 
7V3N_AKG

>  <pose_rank>  (11) 
10

>  <num_atoms_heavy>  (11) 
10

>  <num_torsions>  (11) 
4

>  <pose>  (11) 
[128.6571910234468, 81.86045249111581, -5.197020203948596, 4.387357823075162, -1.9014122366681645, -3.755837571226694, -1.3757199101382884, 13.136729004305101, -0.21515095237511894, -3.530413874969839]

>  <energy>  (11) 
-397.5609476056503

>  <inter_energy>  (11) 
-400.2634703367502

>  <intra_energy>  (11) 
0.0

>  <rmsd>  (11) 
0.881677

>  <sdf_rank>  (11) 
0

$$$$

     RDKit          3D

 14 13  0  0  0  0  0  0  0  0999 V2000
  128.2317   82.6934   -7.3061 C   0  0  0  0  0  0  0  0  0  0  0  0
  128.9261   82.2601   -8.2521 O   0  0  0  0  0  0  0  0  0  0  0  0
  127.0312   82.9814   -7.4786 O   0  0  0  0  0  0  0  0  0  0  0  0
  128.8471   82.8525   -5.9924 C   0  0  0  0  0  0  0  0  0  0  0  0
  129.9960   82.5003   -5.7652 O   0  0  0  0  0  0  0  0  0  0  0  0
  128.0281   83.4592   -4.8796 C   0  0  0  0  0  0  0  0  0  0  0  0
  127.4763   82.3355   -4.0266 C   0  0  0  0  0  0  0  0  0  0  0  0
  127.8569   80.9899   -4.5950 C   0  0  0  0  0  0  0  0  0  0  0  0
  128.9034   80.4542   -4.1697 O   0  0  0  0  0  0  0  0  0  0  0  0
  127.1481   80.4797   -5.4899 O   0  0  0  0  0  0  0  0  0  0  0  0
  128.6631   84.1148   -4.2656 H   0  0  0  0  0  0  0  0  0  0  0  0
  127.2045   84.0563   -5.2980 H   0  0  0  0  0  0  0  0  0  0  0  0
  127.8824   82.4239   -3.0081 H   0  0  0  0  0  0  0  0  0  0  0  0
  126.3791   82.4125   -4.0112 H   0  0  0  0  0  0  0  0  0  0  0  0
  1  2  2  0
  1  3  1  0
  1  4  1  0
  4  5  2  0
  4  6  1  0
  6  7  1  0
  7  8  1  0
  8  9  2  0
  8 10  1  0
  6 11  1  0
  6 12  1  0
  7 13  1  0
  7 14  1  0
M  CHG  2   3  -1  10  -1
M  END
>  <filename_input>  (12) 
7V3N_AKG_docked.sdf

>  <pdb_id>  (12) 
7V3N_AKG

>  <pose_rank>  (12) 
11

>  <num_atoms_heavy>  (12) 
10

>  <num_torsions>  (12) 
4

>  <pose>  (12) 
[128.84709685237482, 82.85247981941322, -5.992359047433889, -0.6750249504377298, -2.795375383308247, -0.7868988702916107, -2.9678332704221293, -7.656253232843995, -3.2167015617480303, -2.1093969156077]

>  <energy>  (12) 
-288.90244855067164

>  <inter_energy>  (12) 
-341.8380401573114

>  <intra_energy>  (12) 
68.89535221294155

>  <rmsd>  (12) 
4.1664

>  <sdf_rank>  (12) 
0

$$$$

     RDKit          3D

 14 13  0  0  0  0  0  0  0  0999 V2000
  129.7372   83.8793   -7.7534 C   0  0  0  0  0  0  0  0  0  0  0  0
  130.9873   83.8486   -7.7184 O   0  0  0  0  0  0  0  0  0  0  0  0
  129.1399   84.3166   -8.7564 O   0  0  0  0  0  0  0  0  0  0  0  0
  128.9855   83.3898   -6.6023 C   0  0  0  0  0  0  0  0  0  0  0  0
  128.0707   84.0296   -6.1028 O   0  0  0  0  0  0  0  0  0  0  0  0
  129.3644   82.0564   -6.0059 C   0  0  0  0  0  0  0  0  0  0  0  0
  130.2980   82.3042   -4.8389 C   0  0  0  0  0  0  0  0  0  0  0  0
  129.5875   82.0889   -3.5246 C   0  0  0  0  0  0  0  0  0  0  0  0
  130.0188   81.1893   -2.7712 O   0  0  0  0  0  0  0  0  0  0  0  0
  128.5797   82.7773   -3.2525 O   0  0  0  0  0  0  0  0  0  0  0  0
  128.4611   81.5358   -5.6554 H   0  0  0  0  0  0  0  0  0  0  0  0
  129.8615   81.4310   -6.7622 H   0  0  0  0  0  0  0  0  0  0  0  0
  131.1495   81.6110   -4.9056 H   0  0  0  0  0  0  0  0  0  0  0  0
  130.6463   83.3467   -4.8831 H   0  0  0  0  0  0  0  0  0  0  0  0
  1  2  2  0
  1  3  1  0
  1  4  1  0
  4  5  2  0
  4  6  1  0
  6  7  1  0
  7  8  1  0
  8  9  2  0
  8 10  1  0
  6 11  1  0
  6 12  1  0
  7 13  1  0
  7 14  1  0
M  CHG  2   3  -1  10  -1
M  END
>  <filename_input>  (13) 
7V3N_AKG_docked.sdf

>  <pdb_id>  (13) 
7V3N_AKG

>  <pose_rank>  (13) 
12

>  <num_atoms_heavy>  (13) 
10

>  <num_torsions>  (13) 
4

>  <pose>  (13) 
[128.98549571130556, 83.38977830517369, -6.6022721750189195, 2.7602279009431157, -1.339411276799475, -0.13229730009487836, -0.5928177095964767, -7.701092314020347, -1.3218874760054724, -1.660602026330358]

>  <energy>  (13) 
-448.03185589823056

>  <inter_energy>  (13) 
-457.26748604167767

>  <intra_energy>  (13) 
4.751701815093286

>  <rmsd>  (13) 
4.44382

>  <sdf_rank>  (13) 
0

$$$$

     RDKit          3D

 14 13  0  0  0  0  0  0  0  0999 V2000
  129.2933   83.7475   -6.2834 C   0  0  0  0  0  0  0  0  0  0  0  0
  130.3845   83.5757   -5.6963 O   0  0  0  0  0  0  0  0  0  0  0  0
  129.2407   84.3835   -7.3542 O   0  0  0  0  0  0  0  0  0  0  0  0
  128.0797   83.1868   -5.6980 C   0  0  0  0  0  0  0  0  0  0  0  0
  127.2611   83.8793   -5.1098 O   0  0  0  0  0  0  0  0  0  0  0  0
  127.8410   81.7013   -5.8146 C   0  0  0  0  0  0  0  0  0  0  0  0
  128.8270   80.9879   -4.9124 C   0  0  0  0  0  0  0  0  0  0  0  0
  128.7913   81.5593   -3.5157 C   0  0  0  0  0  0  0  0  0  0  0  0
  127.7493   81.3915   -2.8456 O   0  0  0  0  0  0  0  0  0  0  0  0
  129.7729   82.2088   -3.0937 O   0  0  0  0  0  0  0  0  0  0  0  0
  126.8131   81.4643   -5.5028 H   0  0  0  0  0  0  0  0  0  0  0  0
  127.9778   81.3765   -6.8566 H   0  0  0  0  0  0  0  0  0  0  0  0
  128.5691   79.9194   -4.8710 H   0  0  0  0  0  0  0  0  0  0  0  0
  129.8391   81.1237   -5.3215 H   0  0  0  0  0  0  0  0  0  0  0  0
  1  2  2  0
  1  3  1  0
  1  4  1  0
  4  5  2  0
  4  6  1  0
  6  7  1  0
  7  8  1  0
  8  9  2  0
  8 10  1  0
  6 11  1  0
  6 12  1  0
  7 13  1  0
  7 14  1  0
M  CHG  2   3  -1  10  -1
M  END
>  <filename_input>  (14) 
7V3N_AKG_docked.sdf

>  <pdb_id>  (14) 
7V3N_AKG

>  <pose_rank>  (14) 
13

>  <num_atoms_heavy>  (14) 
10

>  <num_torsions>  (14) 
4

>  <pose>  (14) 
[128.079655501069, 83.18676865498502, -5.69804988133363, 2.956669773911437, -2.153068321720301, -0.10585758890495957, -1.0749195630442108, -8.135551373298762, -2.2686030035818714, -2.561453834192277]

>  <energy>  (14) 
-403.0226502964503

>  <inter_energy>  (14) 
-424.5798210180335

>  <intra_energy>  (14) 
24.522211394050842

>  <rmsd>  (14) 
4.1666

>  <sdf_rank>  (14) 
0

$$$$

     RDKit          3D

 14 13  0  0  0  0  0  0  0  0999 V2000
  128.6666   80.8305   -3.7166 C   0  0  0  0  0  0  0  0  0  0  0  0
  127.6173   80.2469   -3.3653 O   0  0  0  0  0  0  0  0  0  0  0  0
  129.7835   80.3708   -3.4082 O   0  0  0  0  0  0  0  0  0  0  0  0
  128.5646   82.0580   -4.4994 C   0  0  0  0  0  0  0  0  0  0  0  0
  127.8982   83.0135   -4.1271 O   0  0  0  0  0  0  0  0  0  0  0  0
  129.2968   82.1379   -5.8164 C   0  0  0  0  0  0  0  0  0  0  0  0
  128.6889   83.2602   -6.6325 C   0  0  0  0  0  0  0  0  0  0  0  0
  129.7637   84.1277   -7.2414 C   0  0  0  0  0  0  0  0  0  0  0  0
  130.9425   83.9396   -6.8698 O   0  0  0  0  0  0  0  0  0  0  0  0
  129.4424   85.0219   -8.0543 O   0  0  0  0  0  0  0  0  0  0  0  0
  130.3625   82.3434   -5.6374 H   0  0  0  0  0  0  0  0  0  0  0  0
  129.2070   81.1846   -6.3579 H   0  0  0  0  0  0  0  0  0  0  0  0
  128.0756   82.8288   -7.4372 H   0  0  0  0  0  0  0  0  0  0  0  0
  128.0702   83.8818   -5.9685 H   0  0  0  0  0  0  0  0  0  0  0  0
  1  2  2  0
  1  3  1  0
  1  4  1  0
  4  5  2  0
  4  6  1  0
  6  7  1  0
  7  8  1  0
  8  9  2  0
  8 10  1  0
  6 11  1  0
  6 12  1  0
  7 13  1  0
  7 14  1  0
M  CHG  2   3  -1  10  -1
M  END
>  <filename_input>  (15) 
7V3N_AKG_docked.sdf

>  <pdb_id>  (15) 
7V3N_AKG

>  <pose_rank>  (15) 
14

>  <num_atoms_heavy>  (15) 
10

>  <num_torsions>  (15) 
4

>  <pose>  (15) 
[128.56459244637463, 82.05803366664853, -4.499380860910125, -0.8148067625642467, -4.001622112207962, 3.42386198059661, -1.9465715903424936, -6.558273718254928, -0.8279109021272296, 2.3947722040189245]

>  <energy>  (15) 
-382.70014990299865

>  <inter_energy>  (15) 
-369.5225070369636

>  <intra_energy>  (15) 
0.0

>  <rmsd>  (15) 
0.777917

>  <sdf_rank>  (15) 
0

$$$$

     RDKit          3D

 14 13  0  0  0  0  0  0  0  0999 V2000
  128.5805   81.1560   -3.6668 C   0  0  0  0  0  0  0  0  0  0  0  0
  127.5487   80.5509   -3.3007 O   0  0  0  0  0  0  0  0  0  0  0  0
  129.7075   80.7713   -3.2985 O   0  0  0  0  0  0  0  0  0  0  0  0
  128.4463   82.3191   -4.5382 C   0  0  0  0  0  0  0  0  0  0  0  0
  127.5033   83.0927   -4.4499 O   0  0  0  0  0  0  0  0  0  0  0  0
  129.5023   82.5603   -5.5888 C   0  0  0  0  0  0  0  0  0  0  0  0
  128.9002   83.4200   -6.6812 C   0  0  0  0  0  0  0  0  0  0  0  0
  129.9580   84.2680   -7.3449 C   0  0  0  0  0  0  0  0  0  0  0  0
  131.0884   83.7613   -7.5126 O   0  0  0  0  0  0  0  0  0  0  0  0
  129.6881   85.4467   -7.6634 O   0  0  0  0  0  0  0  0  0  0  0  0
  130.3622   83.0784   -5.1395 H   0  0  0  0  0  0  0  0  0  0  0  0
  129.8460   81.6027   -6.0070 H   0  0  0  0  0  0  0  0  0  0  0  0
  128.4346   82.7692   -7.4360 H   0  0  0  0  0  0  0  0  0  0  0  0
  128.1487   84.0850   -6.2306 H   0  0  0  0  0  0  0  0  0  0  0  0
  1  2  2  0
  1  3  1  0
  1  4  1  0
  4  5  2  0
  4  6  1  0
  6  7  1  0
  7  8  1  0
  8  9  2  0
  8 10  1  0
  6 11  1  0
  6 12  1  0
  7 13  1  0
  7 14  1  0
M  CHG  2   3  -1  10  -1
M  END
>  <filename_input>  (16) 
7V3N_AKG_docked.sdf

>  <pdb_id>  (16) 
7V3N_AKG

>  <pose_rank>  (16) 
15

>  <num_atoms_heavy>  (16) 
10

>  <num_torsions>  (16) 
4

>  <pose>  (16) 
[128.44631024840126, 82.31905306505104, -4.538183094436713, -1.0914002282990396, -4.206929749466273, 3.7087036829238347, -2.2825108813374166, -6.6286862412955285, -0.5342616684792738, 3.20534188247016]

>  <energy>  (16) 
-424.17267183816455

>  <inter_energy>  (16) 
-423.0351996576092

>  <intra_energy>  (16) 
0.0

>  <rmsd>  (16) 
0.647478

>  <sdf_rank>  (16) 
0

$$$$

     RDKit          3D

 14 13  0  0  0  0  0  0  0  0999 V2000
  129.7330   83.7088   -6.7256 C   0  0  0  0  0  0  0  0  0  0  0  0
  130.8898   83.6681   -7.2001 O   0  0  0  0  0  0  0  0  0  0  0  0
  128.8338   84.3556   -7.2973 O   0  0  0  0  0  0  0  0  0  0  0  0
  129.4488   82.9819   -5.4924 C   0  0  0  0  0  0  0  0  0  0  0  0
  130.2939   82.8196   -4.6233 O   0  0  0  0  0  0  0  0  0  0  0  0
  128.0692   82.4027   -5.2967 C   0  0  0  0  0  0  0  0  0  0  0  0
  128.2141   80.9419   -4.9226 C   0  0  0  0  0  0  0  0  0  0  0  0
  128.6006   80.7927   -3.4711 C   0  0  0  0  0  0  0  0  0  0  0  0
  127.6818   80.6347   -2.6382 O   0  0  0  0  0  0  0  0  0  0  0  0
  129.8055   80.8725   -3.1461 O   0  0  0  0  0  0  0  0  0  0  0  0
  127.5499   82.9430   -4.4915 H   0  0  0  0  0  0  0  0  0  0  0  0
  127.4830   82.5000   -6.2224 H   0  0  0  0  0  0  0  0  0  0  0  0
  127.2561   80.4295   -5.0945 H   0  0  0  0  0  0  0  0  0  0  0  0
  129.0052   80.4971   -5.5441 H   0  0  0  0  0  0  0  0  0  0  0  0
  1  2  2  0
  1  3  1  0
  1  4  1  0
  4  5  2  0
  4  6  1  0
  6  7  1  0
  7  8  1  0
  8  9  2  0
  8 10  1  0
  6 11  1  0
  6 12  1  0
  7 13  1  0
  7 14  1  0
M  CHG  2   3  -1  10  -1
M  END
>  <filename_input>  (17) 
7V3N_AKG_docked.sdf

>  <pdb_id>  (17) 
7V3N_AKG

>  <pose_rank>  (17) 
16

>  <num_atoms_heavy>  (17) 
10

>  <num_torsions>  (17) 
4

>  <pose>  (17) 
[129.44881423062344, 82.9818914927952, -5.492363641354188, 0.585310607046161, -2.676096214442084, -1.990855293748357, -2.3383003152483486, -7.1295481392798346, -1.8043997761932347, -2.095444422152367]

>  <energy>  (17) 
-410.19894059376963

>  <inter_energy>  (17) 
-463.2259663279669

>  <intra_energy>  (17) 
45.60997549886973

>  <rmsd>  (17) 
4.58422

>  <sdf_rank>  (17) 
0

$$$$

     RDKit          3D

 14 13  0  0  0  0  0  0  0  0999 V2000
  127.7535   84.0887   -3.2593 C   0  0  0  0  0  0  0  0  0  0  0  0
  127.1250   83.3715   -2.4497 O   0  0  0  0  0  0  0  0  0  0  0  0
  127.8423   85.3195   -3.0823 O   0  0  0  0  0  0  0  0  0  0  0  0
  128.3878   83.4620   -4.4146 C   0  0  0  0  0  0  0  0  0  0  0  0
  127.9022   83.5218   -5.5354 O   0  0  0  0  0  0  0  0  0  0  0  0
  129.6772   82.7056   -4.2090 C   0  0  0  0  0  0  0  0  0  0  0  0
  129.4659   81.2732   -4.6547 C   0  0  0  0  0  0  0  0  0  0  0  0
  128.6642   80.5032   -3.6336 C   0  0  0  0  0  0  0  0  0  0  0  0
  129.1525   80.3714   -2.4903 O   0  0  0  0  0  0  0  0  0  0  0  0
  127.5730   79.9928   -3.9689 O   0  0  0  0  0  0  0  0  0  0  0  0
  130.4779   83.1665   -4.8061 H   0  0  0  0  0  0  0  0  0  0  0  0
  129.9672   82.7331   -3.1483 H   0  0  0  0  0  0  0  0  0  0  0  0
  128.9259   81.2704   -5.6130 H   0  0  0  0  0  0  0  0  0  0  0  0
  130.4486   80.7914   -4.7656 H   0  0  0  0  0  0  0  0  0  0  0  0
  1  2  2  0
  1  3  1  0
  1  4  1  0
  4  5  2  0
  4  6  1  0
  6  7  1  0
  7  8  1  0
  8  9  2  0
  8 10  1  0
  6 11  1  0
  6 12  1  0
  7 13  1  0
  7 14  1  0
M  CHG  2   3  -1  10  -1
M  END
>  <filename_input>  (18) 
7V3N_AKG_docked.sdf

>  <pdb_id>  (18) 
7V3N_AKG

>  <pose_rank>  (18) 
17

>  <num_atoms_heavy>  (18) 
10

>  <num_torsions>  (18) 
4

>  <pose>  (18) 
[128.38779564793896, 83.46199734953208, -4.41462458286691, 8.770683732248271, 3.740234118990323, 5.863122558687215, -13.661067984960338, -0.9807738573010393, 1.795117862775146, -4.8062672139861755]

>  <energy>  (18) 
-319.6229230021644

>  <inter_energy>  (18) 
-328.068668429435

>  <intra_energy>  (18) 
0.7599530966278801

>  <rmsd>  (18) 
4.22536

>  <sdf_rank>  (18) 
0

$$$$

     RDKit          3D

 14 13  0  0  0  0  0  0  0  0999 V2000
  128.4666   82.1541   -4.6293 C   0  0  0  0  0  0  0  0  0  0  0  0
  129.1294   81.1152   -4.4142 O   0  0  0  0  0  0  0  0  0  0  0  0
  128.4732   83.0935   -3.8099 O   0  0  0  0  0  0  0  0  0  0  0  0
  127.6871   82.2534   -5.8592 C   0  0  0  0  0  0  0  0  0  0  0  0
  126.5342   81.8522   -5.9329 O   0  0  0  0  0  0  0  0  0  0  0  0
  128.3365   82.8593   -7.0791 C   0  0  0  0  0  0  0  0  0  0  0  0
  128.8680   84.2280   -6.7060 C   0  0  0  0  0  0  0  0  0  0  0  0
  130.3774   84.2352   -6.6924 C   0  0  0  0  0  0  0  0  0  0  0  0
  130.9585   85.2228   -7.1924 O   0  0  0  0  0  0  0  0  0  0  0  0
  130.9910   83.2500   -6.2271 O   0  0  0  0  0  0  0  0  0  0  0  0
  129.1643   82.2184   -7.4166 H   0  0  0  0  0  0  0  0  0  0  0  0
  127.6030   82.9473   -7.8941 H   0  0  0  0  0  0  0  0  0  0  0  0
  128.5110   84.9652   -7.4403 H   0  0  0  0  0  0  0  0  0  0  0  0
  128.5065   84.4824   -5.6987 H   0  0  0  0  0  0  0  0  0  0  0  0
  1  2  2  0
  1  3  1  0
  1  4  1  0
  4  5  2  0
  4  6  1  0
  6  7  1  0
  7  8  1  0
  8  9  2  0
  8 10  1  0
  6 11  1  0
  6 12  1  0
  7 13  1  0
  7 14  1  0
M  CHG  2   3  -1  10  -1
M  END
>  <filename_input>  (19) 
7V3N_AKG_docked.sdf

>  <pdb_id>  (19) 
7V3N_AKG

>  <pose_rank>  (19) 
18

>  <num_atoms_heavy>  (19) 
10

>  <num_torsions>  (19) 
4

>  <pose>  (19) 
[127.68711717726039, 82.25338812701915, -5.8591726269893885, -4.730349811447954, 2.4528128932028386, 4.6769193649914085, -1.345155433732097, 14.808034192503762, -1.235164673007647, -1.3223921237004652]

>  <energy>  (19) 
-337.3156607139861

>  <inter_energy>  (19) 
-342.4206204522333

>  <intra_energy>  (19) 
14.985515074403306

>  <rmsd>  (19) 
1.50029

>  <sdf_rank>  (19) 
0

$$$$

     RDKit          3D

 14 13  0  0  0  0  0  0  0  0999 V2000
  128.1751   81.3754   -3.6248 C   0  0  0  0  0  0  0  0  0  0  0  0
  127.9024   80.2441   -3.1657 O   0  0  0  0  0  0  0  0  0  0  0  0
  128.4510   82.3215   -2.8616 O   0  0  0  0  0  0  0  0  0  0  0  0
  128.1709   81.5713   -5.0710 C   0  0  0  0  0  0  0  0  0  0  0  0
  127.1479   81.4871   -5.7359 O   0  0  0  0  0  0  0  0  0  0  0  0
  129.4774   81.8735   -5.7629 C   0  0  0  0  0  0  0  0  0  0  0  0
  129.1754   82.6154   -7.0488 C   0  0  0  0  0  0  0  0  0  0  0  0
  129.9435   83.9131   -7.1159 C   0  0  0  0  0  0  0  0  0  0  0  0
  129.6277   84.7300   -8.0079 O   0  0  0  0  0  0  0  0  0  0  0  0
  130.8850   84.1103   -6.3169 O   0  0  0  0  0  0  0  0  0  0  0  0
  130.1069   82.4983   -5.1122 H   0  0  0  0  0  0  0  0  0  0  0  0
  130.0146   80.9390   -5.9823 H   0  0  0  0  0  0  0  0  0  0  0  0
  129.4595   81.9843   -7.9037 H   0  0  0  0  0  0  0  0  0  0  0  0
  128.0995   82.8422   -7.0789 H   0  0  0  0  0  0  0  0  0  0  0  0
  1  2  2  0
  1  3  1  0
  1  4  1  0
  4  5  2  0
  4  6  1  0
  6  7  1  0
  7  8  1  0
  8  9  2  0
  8 10  1  0
  6 11  1  0
  6 12  1  0
  7 13  1  0
  7 14  1  0
M  CHG  2   3  -1  10  -1
M  END
>  <filename_input>  (20) 
7V3N_AKG_docked.sdf

>  <pdb_id>  (20) 
7V3N_AKG

>  <pose_rank>  (20) 
19

>  <num_atoms_heavy>  (20) 
10

>  <num_torsions>  (20) 
4

>  <pose>  (20) 
[128.17088625201052, 81.57130512655269, -5.071001860701192, 5.4265814866848805, 1.273754861993164, -0.850853511727704, -14.305277915186041, -5.800063228255765, -0.9676841671185535, -6.665191526061771]

>  <energy>  (20) 
-363.9533923132631

>  <inter_energy>  (20) 
-350.62770183320725

>  <intra_energy>  (20) 
0.0

>  <rmsd>  (20) 
1.08295

>  <sdf_rank>  (20) 
0

$$$$

     RDKit          3D

 14 13  0  0  0  0  0  0  0  0999 V2000
  128.6083   80.8327   -3.9176 C   0  0  0  0  0  0  0  0  0  0  0  0
  127.8041   80.6681   -2.9737 O   0  0  0  0  0  0  0  0  0  0  0  0
  129.2300   79.8654   -4.3990 O   0  0  0  0  0  0  0  0  0  0  0  0
  128.8054   82.1762   -4.4525 C   0  0  0  0  0  0  0  0  0  0  0  0
  128.6912   83.1762   -3.7577 O   0  0  0  0  0  0  0  0  0  0  0  0
  129.1471   82.3289   -5.9143 C   0  0  0  0  0  0  0  0  0  0  0  0
  128.8213   83.7474   -6.3344 C   0  0  0  0  0  0  0  0  0  0  0  0
  129.7376   84.2057   -7.4429 C   0  0  0  0  0  0  0  0  0  0  0  0
  130.7849   83.5518   -7.6390 O   0  0  0  0  0  0  0  0  0  0  0  0
  129.4469   85.2335   -8.0932 O   0  0  0  0  0  0  0  0  0  0  0  0
  130.2184   82.1324   -6.0681 H   0  0  0  0  0  0  0  0  0  0  0  0
  128.5669   81.6133   -6.5155 H   0  0  0  0  0  0  0  0  0  0  0  0
  127.7804   83.7882   -6.6878 H   0  0  0  0  0  0  0  0  0  0  0  0
  128.9595   84.4108   -5.4679 H   0  0  0  0  0  0  0  0  0  0  0  0
  1  2  2  0
  1  3  1  0
  1  4  1  0
  4  5  2  0
  4  6  1  0
  6  7  1  0
  7  8  1  0
  8  9  2  0
  8 10  1  0
  6 11  1  0
  6 12  1  0
  7 13  1  0
  7 14  1  0
M  CHG  2   3  -1  10  -1
M  END
>  <filename_input>  (21) 
7V3N_AKG_docked.sdf

>  <pdb_id>  (21) 
7V3N_AKG

>  <pose_rank>  (21) 
20

>  <num_atoms_heavy>  (21) 
10

>  <num_torsions>  (21) 
4

>  <pose>  (21) 
[128.80536150329482, 82.17618834527357, -4.4524790917638, -1.2652903854512738, -3.4695289243586727, 3.0881920573880643, -2.35758837052081, -6.578108194945714, -0.5494827939969782, 2.2676527410298766]

>  <energy>  (21) 
-385.77809523394086

>  <inter_energy>  (21) 
-378.5356023034537

>  <intra_energy>  (21) 
0.0

>  <rmsd>  (21) 
0.997398

>  <sdf_rank>  (21) 
0

$$$$

     RDKit          3D

 14 13  0  0  0  0  0  0  0  0999 V2000
  129.9948   84.2130   -7.2936 C   0  0  0  0  0  0  0  0  0  0  0  0
  129.1595   84.8853   -7.9380 O   0  0  0  0  0  0  0  0  0  0  0  0
  131.1786   84.5918   -7.1986 O   0  0  0  0  0  0  0  0  0  0  0  0
  129.5616   82.9777   -6.6484 C   0  0  0  0  0  0  0  0  0  0  0  0
  128.6618   82.2863   -7.1046 O   0  0  0  0  0  0  0  0  0  0  0  0
  130.2412   82.5538   -5.3695 C   0  0  0  0  0  0  0  0  0  0  0  0
  129.1946   82.4739   -4.2772 C   0  0  0  0  0  0  0  0  0  0  0  0
  128.8943   81.0379   -3.9219 C   0  0  0  0  0  0  0  0  0  0  0  0
  127.8603   80.5244   -4.4015 O   0  0  0  0  0  0  0  0  0  0  0  0
  129.6542   80.4287   -3.1375 O   0  0  0  0  0  0  0  0  0  0  0  0
  130.7110   81.5687   -5.5071 H   0  0  0  0  0  0  0  0  0  0  0  0
  131.0196   83.2811   -5.0955 H   0  0  0  0  0  0  0  0  0  0  0  0
  129.5666   82.9958   -3.3833 H   0  0  0  0  0  0  0  0  0  0  0  0
  128.2703   82.9461   -4.6414 H   0  0  0  0  0  0  0  0  0  0  0  0
  1  2  2  0
  1  3  1  0
  1  4  1  0
  4  5  2  0
  4  6  1  0
  6  7  1  0
  7  8  1  0
  8  9  2  0
  8 10  1  0
  6 11  1  0
  6 12  1  0
  7 13  1  0
  7 14  1  0
M  CHG  2   3  -1  10  -1
M  END
>  <filename_input>  (22) 
7V3N_AKG_docked.sdf

>  <pdb_id>  (22) 
7V3N_AKG

>  <pose_rank>  (22) 
21

>  <num_atoms_heavy>  (22) 
10

>  <num_torsions>  (22) 
4

>  <pose>  (22) 
[129.56155718208143, 82.97770113220372, -6.64836563924178, 3.0266562726681996, 0.4955991037343747, 1.1927522211903765, -14.919873196374382, -7.277623462444104, -1.292184177857868, -5.480329132685041]

>  <energy>  (22) 
-497.9324268981306

>  <inter_energy>  (22) 
-505.85421835251753

>  <intra_energy>  (22) 
1.070961009309283

>  <rmsd>  (22) 
4.60493

>  <sdf_rank>  (22) 
0

$$$$

     RDKit          3D

 14 13  0  0  0  0  0  0  0  0999 V2000
  127.1707   83.7977   -5.1916 C   0  0  0  0  0  0  0  0  0  0  0  0
  126.6498   83.7092   -4.0577 O   0  0  0  0  0  0  0  0  0  0  0  0
  126.8559   84.7230   -5.9653 O   0  0  0  0  0  0  0  0  0  0  0  0
  128.1589   82.8025   -5.5953 C   0  0  0  0  0  0  0  0  0  0  0  0
  127.8411   81.7511   -6.1330 O   0  0  0  0  0  0  0  0  0  0  0  0
  129.6170   83.0810   -5.3242 C   0  0  0  0  0  0  0  0  0  0  0  0
  130.2820   81.7831   -4.9143 C   0  0  0  0  0  0  0  0  0  0  0  0
  129.7701   81.3145   -3.5738 C   0  0  0  0  0  0  0  0  0  0  0  0
  129.2256   82.1604   -2.8315 O   0  0  0  0  0  0  0  0  0  0  0  0
  129.9410   80.1232   -3.2346 O   0  0  0  0  0  0  0  0  0  0  0  0
  130.0959   83.4731   -6.2336 H   0  0  0  0  0  0  0  0  0  0  0  0
  129.7171   83.8274   -4.5224 H   0  0  0  0  0  0  0  0  0  0  0  0
  130.0671   81.0139   -5.6707 H   0  0  0  0  0  0  0  0  0  0  0  0
  131.3660   81.9534   -4.8361 H   0  0  0  0  0  0  0  0  0  0  0  0
  1  2  2  0
  1  3  1  0
  1  4  1  0
  4  5  2  0
  4  6  1  0
  6  7  1  0
  7  8  1  0
  8  9  2  0
  8 10  1  0
  6 11  1  0
  6 12  1  0
  7 13  1  0
  7 14  1  0
M  CHG  2   3  -1  10  -1
M  END
>  <filename_input>  (23) 
7V3N_AKG_docked.sdf

>  <pdb_id>  (23) 
7V3N_AKG

>  <pose_rank>  (23) 
22

>  <num_atoms_heavy>  (23) 
10

>  <num_torsions>  (23) 
4

>  <pose>  (23) 
[128.15889030351548, 82.80250630474697, -5.595256097175792, 14.747526496200628, 8.069277791737104, -0.5890831715974564, -13.922129593863085, -6.896677088122499, 1.9373339538644223, -4.078041882668412]

>  <energy>  (23) 
-338.0429853236105

>  <inter_energy>  (23) 
-338.19673366588427

>  <intra_energy>  (23) 
14.566798109246088

>  <rmsd>  (23) 
3.88204

>  <sdf_rank>  (23) 
0

$$$$

     RDKit          3D

 14 13  0  0  0  0  0  0  0  0999 V2000
  138.5242   89.1371   -7.2899 C   0  0  0  0  0  0  0  0  0  0  0  0
  139.3543   88.2087   -7.4071 O   0  0  0  0  0  0  0  0  0  0  0  0
  138.6874   90.2157   -7.8931 O   0  0  0  0  0  0  0  0  0  0  0  0
  137.3557   88.9374   -6.4385 C   0  0  0  0  0  0  0  0  0  0  0  0
  136.4714   88.1423   -6.7236 O   0  0  0  0  0  0  0  0  0  0  0  0
  137.2353   89.7524   -5.1743 C   0  0  0  0  0  0  0  0  0  0  0  0
  138.2504   89.2357   -4.1755 C   0  0  0  0  0  0  0  0  0  0  0  0
  137.6898   88.0771   -3.3869 C   0  0  0  0  0  0  0  0  0  0  0  0
  136.6875   88.2919   -2.6712 O   0  0  0  0  0  0  0  0  0  0  0  0
  138.2610   86.9660   -3.4398 O   0  0  0  0  0  0  0  0  0  0  0  0
  137.4358   90.8114   -5.3941 H   0  0  0  0  0  0  0  0  0  0  0  0
  136.2194   89.6635   -4.7619 H   0  0  0  0  0  0  0  0  0  0  0  0
  139.1491   88.9025   -4.7153 H   0  0  0  0  0  0  0  0  0  0  0  0
  138.5003   90.0478   -3.4769 H   0  0  0  0  0  0  0  0  0  0  0  0
  1  2  2  0
  1  3  1  0
  1  4  1  0
  4  5  2  0
  4  6  1  0
  6  7  1  0
  7  8  1  0
  8  9  2  0
  8 10  1  0
  6 11  1  0
  6 12  1  0
  7 13  1  0
  7 14  1  0
M  CHG  2   3  -1  10  -1
M  END
>  <filename_input>  (24) 
7V3N_AKG_docked.sdf

>  <pdb_id>  (24) 
7V3N_AKG

>  <pose_rank>  (24) 
23

>  <num_atoms_heavy>  (24) 
10

>  <num_torsions>  (24) 
4

>  <pose>  (24) 
[137.35574025506583, 88.93743996815017, -6.438536555458447, 1.7987681986082702, 0.45846652330033605, 1.2710378028410716, 2.2145831489981957, 1.934007645028883, -4.6696976524679945, 1.4694289073405828]

>  <energy>  (24) 
-117.54955628174642

>  <inter_energy>  (24) 
-102.95854633631092

>  <intra_energy>  (24) 
0.10141750696563931

>  <rmsd>  (24) 
11.5716

>  <sdf_rank>  (24) 
0

$$$$

     RDKit          3D

 14 13  0  0  0  0  0  0  0  0999 V2000
  122.2806   76.8467  -14.0740 C   0  0  0  0  0  0  0  0  0  0  0  0
  121.7847   76.1948  -13.1284 O   0  0  0  0  0  0  0  0  0  0  0  0
  122.3719   76.3464  -15.2121 O   0  0  0  0  0  0  0  0  0  0  0  0
  122.7474   78.2071  -13.8267 C   0  0  0  0  0  0  0  0  0  0  0  0
  123.2874   78.5290  -12.7776 O   0  0  0  0  0  0  0  0  0  0  0  0
  122.5409   79.2481  -14.8995 C   0  0  0  0  0  0  0  0  0  0  0  0
  121.7113   80.3742  -14.3176 C   0  0  0  0  0  0  0  0  0  0  0  0
  120.2518   80.2030  -14.6629 C   0  0  0  0  0  0  0  0  0  0  0  0
  119.9466   79.2917  -15.4624 O   0  0  0  0  0  0  0  0  0  0  0  0
  119.4108   80.9921  -14.1794 O   0  0  0  0  0  0  0  0  0  0  0  0
  123.5145   79.6371  -15.2323 H   0  0  0  0  0  0  0  0  0  0  0  0
  122.0240   78.8042  -15.7631 H   0  0  0  0  0  0  0  0  0  0  0  0
  121.8245   80.3766  -13.2235 H   0  0  0  0  0  0  0  0  0  0  0  0
  122.0634   81.3256  -14.7428 H   0  0  0  0  0  0  0  0  0  0  0  0
  1  2  2  0
  1  3  1  0
  1  4  1  0
  4  5  2  0
  4  6  1  0
  6  7  1  0
  7  8  1  0
  8  9  2  0
  8 10  1  0
  6 11  1  0
  6 12  1  0
  7 13  1  0
  7 14  1  0
M  CHG  2   3  -1  10  -1
M  END
>  <filename_input>  (25) 
7V3N_AKG_docked.sdf

>  <pdb_id>  (25) 
7V3N_AKG

>  <pose_rank>  (25) 
24

>  <num_atoms_heavy>  (25) 
10

>  <num_torsions>  (25) 
4

>  <pose>  (25) 
[122.74741661548592, 78.20714077690431, -13.826654800633733, -1.5761898982479836, -3.358936037467716, 1.6478539629167337, -2.247971795166012, -0.9744485247353553, 1.4282770038153902, 2.4273934256202936]

>  <energy>  (25) 
-115.14579711321419

>  <inter_energy>  (25) 
-97.31524639994065

>  <intra_energy>  (25) 
0.9721658064739792

>  <rmsd>  (25) 
12.404

>  <sdf_rank>  (25) 
0

$$$$

     RDKit          3D

 14 13  0  0  0  0  0  0  0  0999 V2000
  128.4210   80.7770   -3.8790 C   0  0  0  0  0  0  0  0  0  0  0  0
  129.5360   80.2430   -3.6880 O   0  0  0  0  0  0  0  0  0  0  0  0
  127.4370   80.4610   -3.1820 O   0  0  0  0  0  0  0  0  0  0  0  0
  128.2890   81.7820   -4.9290 C   0  0  0  0  0  0  0  0  0  0  0  0
  127.1990   82.1510   -5.3430 O   0  0  0  0  0  0  0  0  0  0  0  0
  129.5430   82.3700   -5.5280 C   0  0  0  0  0  0  0  0  0  0  0  0
  129.1410   83.3240   -6.6340 C   0  0  0  0  0  0  0  0  0  0  0  0
  130.3570   83.9220   -7.2990 C   0  0  0  0  0  0  0  0  0  0  0  0
  130.2710   85.0960   -7.7200 O   0  0  0  0  0  0  0  0  0  0  0  0
  131.3830   83.2220   -7.4440 O   0  0  0  0  0  0  0  0  0  0  0  0
  130.1051   82.9135   -4.7543 H   0  0  0  0  0  0  0  0  0  0  0  0
  130.1810   81.5699   -5.9315 H   0  0  0  0  0  0  0  0  0  0  0  0
  128.5524   82.7768   -7.3851 H   0  0  0  0  0  0  0  0  0  0  0  0
  128.5444   84.1378   -6.1961 H   0  0  0  0  0  0  0  0  0  0  0  0
  1  2  2  0
  1  3  1  0
  1  4  1  0
  4  5  2  0
  4  6  1  0
  6  7  1  0
  7  8  1  0
  8  9  2  0
  8 10  1  0
  6 11  1  0
  6 12  1  0
  7 13  1  0
  7 14  1  0
M  CHG  2   3  -1  10  -1
M  END
>  <filename_input>  (26) 
7V3N_AKG_docked.sdf

>  <pdb_id>  (26) 
7V3N_AKG

>  <pose_rank>  (26) 
25

>  <num_atoms_heavy>  (26) 
10

>  <num_torsions>  (26) 
4

>  <pose>  (26) 
[128.289, 81.782, -4.929, 1e-06, 1e-06, 1e-06, 0.0, 0.0, 0.0, 0.0]

>  <energy>  (26) 
-421.1616319547147

>  <inter_energy>  (26) 
-427.85288441396847

>  <intra_energy>  (26) 
0.0

>  <rmsd>  (26) 
0.0

>  <sdf_rank>  (26) 
0

$$$$
