
     RDKit          3D

 58 63  0  0  0  0  0  0  0  0999 V2000
  -10.7470  -23.4226   30.9459 N   0  0  0  0  0  0  0  0  0  0  0  0
  -10.1028  -13.7255   29.0716 N   0  0  0  0  0  0  0  0  0  0  0  0
   -9.0509  -25.1394   30.7981 C   0  0  0  0  0  0  0  0  0  0  0  0
   -9.4197  -23.7956   30.9058 C   0  0  0  0  0  0  0  0  0  0  0  0
   -8.4187  -22.8206   30.9837 C   0  0  0  0  0  0  0  0  0  0  0  0
  -10.9989  -22.0461   30.5950 C   0  0  0  0  0  0  0  0  0  0  0  0
  -10.0827  -21.1617   31.4041 C   0  0  0  0  0  0  0  0  0  0  0  0
  -11.6329  -19.3582   30.6593 C   0  0  0  0  0  0  0  0  0  0  0  0
   -9.5651  -17.3649   29.2660 C   0  0  0  0  0  0  0  0  0  0  0  0
   -9.8838  -15.0099   29.6427 C   0  0  0  0  0  0  0  0  0  0  0  0
   -9.6053  -16.5003   31.4802 C   0  0  0  0  0  0  0  0  0  0  0  0
   -9.4595  -10.0688   29.0963 C   0  0  0  0  0  0  0  0  0  0  0  0
  -10.6927  -11.5867   27.3806 C   0  0  0  0  0  0  0  0  0  0  0  0
  -10.8623  -10.1660   29.5720 C   0  0  0  0  0  0  0  0  0  0  0  0
  -11.1880  -11.9097   24.5889 C   0  0  0  0  0  0  0  0  0  0  0  0
  -11.3493  -10.9286   22.4482 C   0  0  0  0  0  0  0  0  0  0  0  0
  -10.7109   -9.5806   24.2878 C   0  0  0  0  0  0  0  0  0  0  0  0
   -7.0773  -23.1778   30.9481 C   0  0  0  0  0  0  0  0  0  0  0  0
  -10.3775  -19.7393   31.0333 C   0  0  0  0  0  0  0  0  0  0  0  0
   -9.4710  -17.5739   30.6295 C   0  0  0  0  0  0  0  0  0  0  0  0
   -9.7718  -16.0874   28.7737 C   0  0  0  0  0  0  0  0  0  0  0  0
   -9.8073  -15.2253   31.0157 C   0  0  0  0  0  0  0  0  0  0  0  0
   -9.8376  -12.5304   29.6273 C   0  0  0  0  0  0  0  0  0  0  0  0
  -10.2567  -11.3440   28.8046 C   0  0  2  0  0  0  0  0  0  0  0  0
   -6.7407  -24.5122   30.8276 C   0  0  0  0  0  0  0  0  0  0  0  0
  -10.8405  -10.6784   25.1269 C   0  0  0  0  0  0  0  0  0  0  0  0
  -11.4634  -12.0353   23.2380 C   0  0  0  0  0  0  0  0  0  0  0  0
  -10.9799   -9.7050   22.9335 C   0  0  0  0  0  0  0  0  0  0  0  0
   -7.7231  -25.4812   30.7533 C   0  0  0  0  0  0  0  0  0  0  0  0
  -12.6512  -20.3401   30.5669 C   0  0  0  0  0  0  0  0  0  0  0  0
   -9.5319  -16.7152   32.8132 F   0  0  0  0  0  0  0  0  0  0  0  0
  -11.6081  -11.0533   21.1194 F   0  0  0  0  0  0  0  0  0  0  0  0
  -12.4068  -21.6247   30.6991 N   0  0  0  0  0  0  0  0  0  0  0  0
  -10.5195  -10.5800   26.5101 N   0  0  0  0  0  0  0  0  0  0  0  0
   -8.7055  -21.4775   31.0987 O   0  0  0  0  0  0  0  0  0  0  0  0
   -9.2968  -18.8603   31.1308 O   0  0  0  0  0  0  0  0  0  0  0  0
   -9.2849  -12.3827   30.7046 O   0  0  0  0  0  0  0  0  0  0  0  0
  -11.1462  -12.6679   27.0443 O   0  0  0  0  0  0  0  0  0  0  0  0
  -11.4996  -24.0759   31.2061 H   0  0  0  0  0  0  0  0  0  0  0  0
  -10.5104  -13.7094   28.1258 H   0  0  0  0  0  0  0  0  0  0  0  0
   -9.8234  -25.9209   30.7495 H   0  0  0  0  0  0  0  0  0  0  0  0
  -11.8518  -18.3043   30.4328 H   0  0  0  0  0  0  0  0  0  0  0  0
   -9.4756  -18.2137   28.5722 H   0  0  0  0  0  0  0  0  0  0  0  0
   -9.2063   -9.3818   28.2754 H   0  0  0  0  0  0  0  0  0  0  0  0
   -8.4940   -9.8551   29.5781 H   0  0  0  0  0  0  0  0  0  0  0  0
  -11.0697  -10.2626   30.6479 H   0  0  0  0  0  0  0  0  0  0  0  0
  -11.7632   -9.5468   29.4496 H   0  0  0  0  0  0  0  0  0  0  0  0
  -11.2451  -12.7933   25.2415 H   0  0  0  0  0  0  0  0  0  0  0  0
  -10.3943   -8.6103   24.6979 H   0  0  0  0  0  0  0  0  0  0  0  0
   -6.2935  -22.4089   31.0150 H   0  0  0  0  0  0  0  0  0  0  0  0
   -9.8478  -15.9250   27.6884 H   0  0  0  0  0  0  0  0  0  0  0  0
   -9.9074  -14.3851   31.7185 H   0  0  0  0  0  0  0  0  0  0  0  0
   -5.6813  -24.8059   30.7904 H   0  0  0  0  0  0  0  0  0  0  0  0
  -11.7665  -13.0031   22.8120 H   0  0  0  0  0  0  0  0  0  0  0  0
  -10.8977   -8.8368   22.2630 H   0  0  0  0  0  0  0  0  0  0  0  0
   -7.4371  -26.5390   30.6571 H   0  0  0  0  0  0  0  0  0  0  0  0
  -13.6847  -20.0147   30.3774 H   0  0  0  0  0  0  0  0  0  0  0  0
  -10.1349   -9.6911   26.8607 H   0  0  0  0  0  0  0  0  0  0  0  0
  1  4  1  0
  1  6  1  0
  2 10  1  0
  2 23  1  0
  3  4  1  0
  3 29  2  0
  4  5  2  0
  5 18  1  0
  5 35  1  0
  6  7  2  0
  6 33  1  0
  7 19  1  0
  7 35  1  0
  8 19  2  0
  8 30  1  0
  9 20  2  0
  9 21  1  0
 10 21  2  0
 10 22  1  0
 11 20  1  0
 11 22  2  0
 11 31  1  0
 12 14  1  0
 12 24  1  0
 24 13  1  6
 13 34  1  0
 13 38  2  0
 14 24  1  0
 15 26  2  0
 15 27  1  0
 16 27  2  0
 16 28  1  0
 16 32  1  0
 17 26  1  0
 17 28  2  0
 18 25  2  0
 19 36  1  0
 20 36  1  0
 23 24  1  0
 23 37  2  0
 25 29  1  0
 26 34  1  0
 30 33  2  0
  1 39  1  0
  2 40  1  0
  3 41  1  0
  8 42  1  0
  9 43  1  0
 12 44  1  0
 12 45  1  0
 14 46  1  0
 14 47  1  0
 15 48  1  0
 17 49  1  0
 18 50  1  0
 21 51  1  0
 22 52  1  0
 25 53  1  0
 27 54  1  0
 28 55  1  0
 29 56  1  0
 30 57  1  0
 34 58  1  0
M  END
>  <filename_input>  (1) 
7V3S_5I9_docked.sdf

>  <pdb_id>  (1) 
7V3S_5I9

>  <pose_rank>  (1) 
0

>  <num_atoms_heavy>  (1) 
38

>  <num_torsions>  (1) 
6

>  <pose>  (1) 
[-9.565057908782132, -17.364884263861438, 29.266019165347487, -0.010919661874508102, 0.025619647260486413, 0.02826479713118608, 0.24166726158892132, 6.040730876318767, 0.41503915732601837, -7.237628514811767, -12.499129855852008, 6.270720194488403]

>  <energy>  (1) 
-2109.4085377445517

>  <inter_energy>  (1) 
-2154.2646559662858

>  <intra_energy>  (1) 
87.72493275005503

>  <rmsd>  (1) 
0.411965

>  <sdf_rank>  (1) 
0

$$$$

     RDKit          3D

 58 63  0  0  0  0  0  0  0  0999 V2000
  -10.7129  -23.3339   31.0159 N   0  0  0  0  0  0  0  0  0  0  0  0
  -10.4410  -13.7772   28.5043 N   0  0  0  0  0  0  0  0  0  0  0  0
   -8.9581  -24.9941   30.9152 C   0  0  0  0  0  0  0  0  0  0  0  0
   -9.3740  -23.6606   30.9601 C   0  0  0  0  0  0  0  0  0  0  0  0
   -8.4085  -22.6474   30.9580 C   0  0  0  0  0  0  0  0  0  0  0  0
  -11.0247  -21.9887   30.5981 C   0  0  0  0  0  0  0  0  0  0  0  0
  -10.1222  -21.0288   31.3331 C   0  0  0  0  0  0  0  0  0  0  0  0
  -11.7568  -19.3259   30.5343 C   0  0  0  0  0  0  0  0  0  0  0  0
   -9.7275  -17.3638   28.9500 C   0  0  0  0  0  0  0  0  0  0  0  0
  -10.1720  -15.0088   29.1635 C   0  0  0  0  0  0  0  0  0  0  0  0
   -9.8639  -16.3604   31.1008 C   0  0  0  0  0  0  0  0  0  0  0  0
  -11.9023  -11.3972   27.8901 C   0  0  0  0  0  0  0  0  0  0  0  0
   -9.6195  -10.1492   27.8985 C   0  0  0  0  0  0  0  0  0  0  0  0
  -11.1999  -11.8229   26.6534 C   0  0  0  0  0  0  0  0  0  0  0  0
   -8.5610   -7.6932   25.8678 C   0  0  0  0  0  0  0  0  0  0  0  0
   -6.6341   -6.4004   26.3003 C   0  0  0  0  0  0  0  0  0  0  0  0
   -6.8367   -8.5365   27.3025 C   0  0  0  0  0  0  0  0  0  0  0  0
   -7.0560  -22.9577   30.9054 C   0  0  0  0  0  0  0  0  0  0  0  0
  -10.4791  -19.6404   30.8941 C   0  0  0  0  0  0  0  0  0  0  0  0
   -9.6558  -17.4787   30.3260 C   0  0  0  0  0  0  0  0  0  0  0  0
   -9.9857  -16.1333   28.3701 C   0  0  0  0  0  0  0  0  0  0  0  0
  -10.1179  -15.1303   30.5491 C   0  0  0  0  0  0  0  0  0  0  0  0
   -9.8020  -12.6063   28.6723 C   0  0  0  0  0  0  0  0  0  0  0  0
  -10.3715  -11.4573   27.8877 C   0  0  2  0  0  0  0  0  0  0  0  0
   -6.6729  -24.2837   30.8481 C   0  0  0  0  0  0  0  0  0  0  0  0
   -8.0794   -8.6905   26.7043 C   0  0  0  0  0  0  0  0  0  0  0  0
   -7.8407   -6.5265   25.6760 C   0  0  0  0  0  0  0  0  0  0  0  0
   -6.1104   -7.3719   27.1071 C   0  0  0  0  0  0  0  0  0  0  0  0
   -7.6200  -25.2901   30.8529 C   0  0  0  0  0  0  0  0  0  0  0  0
  -12.7398  -20.3473   30.5227 C   0  0  0  0  0  0  0  0  0  0  0  0
   -9.8118  -16.4842   32.4464 F   0  0  0  0  0  0  0  0  0  0  0  0
   -5.9205   -5.2600   26.1033 F   0  0  0  0  0  0  0  0  0  0  0  0
  -12.4443  -21.6130   30.7174 N   0  0  0  0  0  0  0  0  0  0  0  0
   -8.8150   -9.8999   26.8537 N   0  0  0  0  0  0  0  0  0  0  0  0
   -8.7423  -21.3112   31.0081 O   0  0  0  0  0  0  0  0  0  0  0  0
   -9.4298  -18.7191   30.9147 O   0  0  0  0  0  0  0  0  0  0  0  0
   -8.8225  -12.4556   29.3835 O   0  0  0  0  0  0  0  0  0  0  0  0
   -9.7757   -9.3491   28.8059 O   0  0  0  0  0  0  0  0  0  0  0  0
  -11.4339  -23.9985   31.3313 H   0  0  0  0  0  0  0  0  0  0  0  0
  -11.2120  -13.7831   27.8215 H   0  0  0  0  0  0  0  0  0  0  0  0
   -9.7019  -25.8044   30.9298 H   0  0  0  0  0  0  0  0  0  0  0  0
  -12.0206  -18.2945   30.2571 H   0  0  0  0  0  0  0  0  0  0  0  0
   -9.5792  -18.2503   28.3158 H   0  0  0  0  0  0  0  0  0  0  0  0
  -12.4117  -10.4228   27.9223 H   0  0  0  0  0  0  0  0  0  0  0  0
  -12.6911  -11.8348   28.5195 H   0  0  0  0  0  0  0  0  0  0  0  0
  -11.2581  -12.8709   26.3244 H   0  0  0  0  0  0  0  0  0  0  0  0
  -11.2118  -11.4889   25.6054 H   0  0  0  0  0  0  0  0  0  0  0  0
   -9.5232   -7.8309   25.3529 H   0  0  0  0  0  0  0  0  0  0  0  0
   -6.4273   -9.3397   27.9328 H   0  0  0  0  0  0  0  0  0  0  0  0
   -6.3001  -22.1586   30.9094 H   0  0  0  0  0  0  0  0  0  0  0  0
  -10.0436  -16.0459   27.2751 H   0  0  0  0  0  0  0  0  0  0  0  0
  -10.2765  -14.2524   31.1926 H   0  0  0  0  0  0  0  0  0  0  0  0
   -5.6046  -24.5409   30.7981 H   0  0  0  0  0  0  0  0  0  0  0  0
   -8.2315   -5.7215   25.0364 H   0  0  0  0  0  0  0  0  0  0  0  0
   -5.1326   -7.2324   27.5913 H   0  0  0  0  0  0  0  0  0  0  0  0
   -7.2972  -26.3406   30.8062 H   0  0  0  0  0  0  0  0  0  0  0  0
  -13.7891  -20.0700   30.3439 H   0  0  0  0  0  0  0  0  0  0  0  0
   -8.7252  -10.6202   26.1229 H   0  0  0  0  0  0  0  0  0  0  0  0
  1  4  1  0
  1  6  1  0
  2 10  1  0
  2 23  1  0
  3  4  1  0
  3 29  2  0
  4  5  2  0
  5 18  1  0
  5 35  1  0
  6  7  2  0
  6 33  1  0
  7 19  1  0
  7 35  1  0
  8 19  2  0
  8 30  1  0
  9 20  2  0
  9 21  1  0
 10 21  2  0
 10 22  1  0
 11 20  1  0
 11 22  2  0
 11 31  1  0
 12 14  1  0
 12 24  1  0
 24 13  1  6
 13 34  1  0
 13 38  2  0
 14 24  1  0
 15 26  2  0
 15 27  1  0
 16 27  2  0
 16 28  1  0
 16 32  1  0
 17 26  1  0
 17 28  2  0
 18 25  2  0
 19 36  1  0
 20 36  1  0
 23 24  1  0
 23 37  2  0
 25 29  1  0
 26 34  1  0
 30 33  2  0
  1 39  1  0
  2 40  1  0
  3 41  1  0
  8 42  1  0
  9 43  1  0
 12 44  1  0
 12 45  1  0
 14 46  1  0
 14 47  1  0
 15 48  1  0
 17 49  1  0
 18 50  1  0
 21 51  1  0
 22 52  1  0
 25 53  1  0
 27 54  1  0
 28 55  1  0
 29 56  1  0
 30 57  1  0
 34 58  1  0
M  END
>  <filename_input>  (2) 
7V3S_5I9_docked.sdf

>  <pdb_id>  (2) 
7V3S_5I9

>  <pose_rank>  (2) 
1

>  <num_atoms_heavy>  (2) 
38

>  <num_torsions>  (2) 
6

>  <pose>  (2) 
[-9.727454346605017, -17.363810244306006, 28.949996358838348, 4.351415781955739, -0.2186831339469193, -4.373351603008779, 0.76206289994019, -3.0832303886451276, -1.4984430169201974, -2.5442118963854576, 0.029303018336486804, -0.03415348854430422]

>  <energy>  (2) 
-1730.77733222589

>  <inter_energy>  (2) 
-1702.6605305512287

>  <intra_energy>  (2) 
17.682958178781174

>  <rmsd>  (2) 
3.10384

>  <sdf_rank>  (2) 
0

$$$$

     RDKit          3D

 58 63  0  0  0  0  0  0  0  0999 V2000
  -10.7213  -23.4386   30.9623 N   0  0  0  0  0  0  0  0  0  0  0  0
   -9.9182  -13.7324   29.0886 N   0  0  0  0  0  0  0  0  0  0  0  0
   -9.0730  -25.2011   30.8121 C   0  0  0  0  0  0  0  0  0  0  0  0
   -9.4050  -23.8466   30.9041 C   0  0  0  0  0  0  0  0  0  0  0  0
   -8.3779  -22.8969   30.9473 C   0  0  0  0  0  0  0  0  0  0  0  0
  -10.9441  -22.0619   30.5932 C   0  0  0  0  0  0  0  0  0  0  0  0
   -9.9905  -21.1886   31.3705 C   0  0  0  0  0  0  0  0  0  0  0  0
  -11.5074  -19.3577   30.6243 C   0  0  0  0  0  0  0  0  0  0  0  0
   -9.3864  -17.3758   29.2098 C   0  0  0  0  0  0  0  0  0  0  0  0
   -9.7099  -15.0295   29.6342 C   0  0  0  0  0  0  0  0  0  0  0  0
   -9.4637  -16.5614   31.4419 C   0  0  0  0  0  0  0  0  0  0  0  0
  -11.2813  -11.6261   26.2930 C   0  0  0  0  0  0  0  0  0  0  0  0
  -10.6264  -10.9563   28.7201 C   0  0  0  0  0  0  0  0  0  0  0  0
   -9.7978  -11.5791   26.3171 C   0  0  0  0  0  0  0  0  0  0  0  0
   -9.2132   -9.7495   31.3480 C   0  0  0  0  0  0  0  0  0  0  0  0
  -10.2020   -9.0160   33.3618 C   0  0  0  0  0  0  0  0  0  0  0  0
  -11.3427  -10.6096   32.0322 C   0  0  0  0  0  0  0  0  0  0  0  0
   -7.0471  -23.2895   30.8931 C   0  0  0  0  0  0  0  0  0  0  0  0
  -10.2554  -19.7652   30.9815 C   0  0  0  0  0  0  0  0  0  0  0  0
   -9.3156  -17.6157   30.5696 C   0  0  0  0  0  0  0  0  0  0  0  0
   -9.5839  -16.0872   28.7430 C   0  0  0  0  0  0  0  0  0  0  0  0
   -9.6569  -15.2760   31.0031 C   0  0  0  0  0  0  0  0  0  0  0  0
  -10.5623  -13.4207   27.9505 C   0  0  0  0  0  0  0  0  0  0  0  0
  -10.5480  -11.9598   27.5960 C   0  0  2  0  0  0  0  0  0  0  0  0
   -6.7472  -24.6340   30.7887 C   0  0  0  0  0  0  0  0  0  0  0  0
  -10.3150  -10.5566   31.1012 C   0  0  0  0  0  0  0  0  0  0  0  0
   -9.1616   -8.9559   32.4812 C   0  0  0  0  0  0  0  0  0  0  0  0
  -11.2907   -9.8207   33.1710 C   0  0  0  0  0  0  0  0  0  0  0  0
   -7.7555  -25.5782   30.7486 C   0  0  0  0  0  0  0  0  0  0  0  0
  -12.5522  -20.3141   30.5669 C   0  0  0  0  0  0  0  0  0  0  0  0
   -9.4130  -16.8065   32.7708 F   0  0  0  0  0  0  0  0  0  0  0  0
  -10.1470   -8.2458   34.4808 F   0  0  0  0  0  0  0  0  0  0  0  0
  -12.3385  -21.6023   30.7160 N   0  0  0  0  0  0  0  0  0  0  0  0
  -10.3286  -11.3969   29.9524 N   0  0  0  0  0  0  0  0  0  0  0  0
   -8.6278  -21.5451   31.0452 O   0  0  0  0  0  0  0  0  0  0  0  0
   -9.1508  -18.9132   31.0445 O   0  0  0  0  0  0  0  0  0  0  0  0
  -11.1397  -14.2314   27.2453 O   0  0  0  0  0  0  0  0  0  0  0  0
  -10.9133   -9.7921   28.4963 O   0  0  0  0  0  0  0  0  0  0  0  0
  -11.4854  -24.0678   31.2470 H   0  0  0  0  0  0  0  0  0  0  0  0
   -9.5322  -12.9431   29.6262 H   0  0  0  0  0  0  0  0  0  0  0  0
   -9.8661  -25.9630   30.7906 H   0  0  0  0  0  0  0  0  0  0  0  0
  -11.7034  -18.3023   30.3843 H   0  0  0  0  0  0  0  0  0  0  0  0
   -9.2858  -18.2088   28.4985 H   0  0  0  0  0  0  0  0  0  0  0  0
  -11.8572  -10.6923   26.2128 H   0  0  0  0  0  0  0  0  0  0  0  0
  -12.0274  -12.1441   25.6725 H   0  0  0  0  0  0  0  0  0  0  0  0
   -9.2174  -12.3410   25.7759 H   0  0  0  0  0  0  0  0  0  0  0  0
   -9.0456  -10.8184   26.0612 H   0  0  0  0  0  0  0  0  0  0  0  0
   -8.3738   -9.7403   30.6371 H   0  0  0  0  0  0  0  0  0  0  0  0
  -12.2000  -11.2786   31.8663 H   0  0  0  0  0  0  0  0  0  0  0  0
   -6.2427  -22.5402   30.9328 H   0  0  0  0  0  0  0  0  0  0  0  0
   -9.6413  -15.9003   27.6606 H   0  0  0  0  0  0  0  0  0  0  0  0
   -9.7683  -14.4518   31.7229 H   0  0  0  0  0  0  0  0  0  0  0  0
   -5.6966  -24.9558   30.7370 H   0  0  0  0  0  0  0  0  0  0  0  0
   -8.3033   -8.2935   32.6670 H   0  0  0  0  0  0  0  0  0  0  0  0
  -12.1087   -9.8418   33.9062 H   0  0  0  0  0  0  0  0  0  0  0  0
   -7.4986  -26.6445   30.6647 H   0  0  0  0  0  0  0  0  0  0  0  0
  -13.5804  -19.9650   30.3910 H   0  0  0  0  0  0  0  0  0  0  0  0
  -10.0984  -12.3936   30.0729 H   0  0  0  0  0  0  0  0  0  0  0  0
  1  4  1  0
  1  6  1  0
  2 10  1  0
  2 23  1  0
  3  4  1  0
  3 29  2  0
  4  5  2  0
  5 18  1  0
  5 35  1  0
  6  7  2  0
  6 33  1  0
  7 19  1  0
  7 35  1  0
  8 19  2  0
  8 30  1  0
  9 20  2  0
  9 21  1  0
 10 21  2  0
 10 22  1  0
 11 20  1  0
 11 22  2  0
 11 31  1  0
 12 14  1  0
 12 24  1  0
 24 13  1  1
 13 34  1  0
 13 38  2  0
 14 24  1  0
 15 26  2  0
 15 27  1  0
 16 27  2  0
 16 28  1  0
 16 32  1  0
 17 26  1  0
 17 28  2  0
 18 25  2  0
 19 36  1  0
 20 36  1  0
 23 24  1  0
 23 37  2  0
 25 29  1  0
 26 34  1  0
 30 33  2  0
  1 39  1  0
  2 40  1  0
  3 41  1  0
  8 42  1  0
  9 43  1  0
 12 44  1  0
 12 45  1  0
 14 46  1  0
 14 47  1  0
 15 48  1  0
 17 49  1  0
 18 50  1  0
 21 51  1  0
 22 52  1  0
 25 53  1  0
 27 54  1  0
 28 55  1  0
 29 56  1  0
 30 57  1  0
 34 58  1  0
M  END
>  <filename_input>  (3) 
7V3S_5I9_docked.sdf

>  <pdb_id>  (3) 
7V3S_5I9

>  <pose_rank>  (3) 
2

>  <num_atoms_heavy>  (3) 
38

>  <num_torsions>  (3) 
6

>  <pose>  (3) 
[-9.386392269903158, -17.375764734499498, 29.20979092670821, -2.3119122516008885, -1.679532134355921, -5.560929386147241, -9.02741240502362, -6.969262443602167, -2.888587123952231, -2.203677360119907, 0.0024324664606273794, -6.255869320682831]

>  <energy>  (3) 
-1664.6211531511656

>  <inter_energy>  (3) 
-1705.3418498994718

>  <intra_energy>  (3) 
65.61405293105304

>  <rmsd>  (3) 
4.32513

>  <sdf_rank>  (3) 
0

$$$$

     RDKit          3D

 58 63  0  0  0  0  0  0  0  0999 V2000
  -10.7925  -22.4143   31.2109 N   0  0  0  0  0  0  0  0  0  0  0  0
  -10.1522  -13.0756   27.8038 N   0  0  0  0  0  0  0  0  0  0  0  0
   -9.2165  -24.2475   31.1724 C   0  0  0  0  0  0  0  0  0  0  0  0
   -9.5071  -22.8863   31.0455 C   0  0  0  0  0  0  0  0  0  0  0  0
   -8.4685  -21.9941   30.7555 C   0  0  0  0  0  0  0  0  0  0  0  0
  -11.0437  -21.1239   30.6166 C   0  0  0  0  0  0  0  0  0  0  0  0
   -9.9693  -20.1639   31.0643 C   0  0  0  0  0  0  0  0  0  0  0  0
  -11.5482  -18.4400   30.2009 C   0  0  0  0  0  0  0  0  0  0  0  0
   -9.4580  -16.6686   28.2285 C   0  0  0  0  0  0  0  0  0  0  0  0
   -9.8843  -14.3114   28.4555 C   0  0  0  0  0  0  0  0  0  0  0  0
   -9.5638  -15.6722   30.3843 C   0  0  0  0  0  0  0  0  0  0  0  0
  -12.3812  -10.9883   25.7249 C   0  0  0  0  0  0  0  0  0  0  0  0
  -10.1636  -10.4232   26.9625 C   0  0  0  0  0  0  0  0  0  0  0  0
  -11.2895  -11.2971   24.7675 C   0  0  0  0  0  0  0  0  0  0  0  0
   -9.2195   -7.1478   26.6516 C   0  0  0  0  0  0  0  0  0  0  0  0
   -7.1875   -6.3880   27.5816 C   0  0  0  0  0  0  0  0  0  0  0  0
   -7.4703   -8.7025   27.1676 C   0  0  0  0  0  0  0  0  0  0  0  0
   -7.1678  -22.4509   30.5889 C   0  0  0  0  0  0  0  0  0  0  0  0
  -10.2643  -18.8297   30.4476 C   0  0  0  0  0  0  0  0  0  0  0  0
   -9.3719  -16.7891   29.6032 C   0  0  0  0  0  0  0  0  0  0  0  0
   -9.7144  -15.4342   27.6560 C   0  0  0  0  0  0  0  0  0  0  0  0
   -9.8156  -14.4385   29.8399 C   0  0  0  0  0  0  0  0  0  0  0  0
  -11.0245  -12.8530   26.8053 C   0  0  0  0  0  0  0  0  0  0  0  0
  -11.0247  -11.4491   26.2676 C   0  0  2  0  0  0  0  0  0  0  0  0
   -6.9107  -23.8032   30.7064 C   0  0  0  0  0  0  0  0  0  0  0  0
   -8.7551   -8.4545   26.7049 C   0  0  0  0  0  0  0  0  0  0  0  0
   -8.4360   -6.1029   27.1109 C   0  0  0  0  0  0  0  0  0  0  0  0
   -6.6812   -7.6573   27.6222 C   0  0  0  0  0  0  0  0  0  0  0  0
   -7.9302  -24.6902   30.9956 C   0  0  0  0  0  0  0  0  0  0  0  0
  -12.6065  -19.3405   30.4810 C   0  0  0  0  0  0  0  0  0  0  0  0
   -9.4976  -15.8014   31.7288 F   0  0  0  0  0  0  0  0  0  0  0  0
   -6.4127   -5.3612   28.0220 F   0  0  0  0  0  0  0  0  0  0  0  0
  -12.3957  -20.5854   30.8459 N   0  0  0  0  0  0  0  0  0  0  0  0
   -9.5593   -9.5090   26.1878 N   0  0  0  0  0  0  0  0  0  0  0  0
   -8.6771  -20.6383   30.6231 O   0  0  0  0  0  0  0  0  0  0  0  0
   -9.1478  -18.0332   30.1848 O   0  0  0  0  0  0  0  0  0  0  0  0
  -11.7844  -13.6959   26.3581 O   0  0  0  0  0  0  0  0  0  0  0  0
  -10.0617  -10.4168   28.1781 O   0  0  0  0  0  0  0  0  0  0  0  0
  -11.5166  -22.9419   31.7191 H   0  0  0  0  0  0  0  0  0  0  0  0
   -9.6177  -12.2594   28.1342 H   0  0  0  0  0  0  0  0  0  0  0  0
  -10.0173  -24.9621   31.4135 H   0  0  0  0  0  0  0  0  0  0  0  0
  -11.7591  -17.4415   29.7905 H   0  0  0  0  0  0  0  0  0  0  0  0
   -9.3229  -17.5536   27.5894 H   0  0  0  0  0  0  0  0  0  0  0  0
  -12.7035   -9.9467   25.8701 H   0  0  0  0  0  0  0  0  0  0  0  0
  -13.4191  -11.3309   25.8490 H   0  0  0  0  0  0  0  0  0  0  0  0
  -11.3571  -12.1913   24.1306 H   0  0  0  0  0  0  0  0  0  0  0  0
  -10.8017  -10.7463   23.9498 H   0  0  0  0  0  0  0  0  0  0  0  0
  -10.2187   -6.9405   26.2409 H   0  0  0  0  0  0  0  0  0  0  0  0
   -7.0776   -9.7299   27.1735 H   0  0  0  0  0  0  0  0  0  0  0  0
   -6.3534  -21.7458   30.3664 H   0  0  0  0  0  0  0  0  0  0  0  0
   -9.7839  -15.3423   26.5620 H   0  0  0  0  0  0  0  0  0  0  0  0
   -9.9611  -13.5619   30.4883 H   0  0  0  0  0  0  0  0  0  0  0  0
   -5.8855  -24.1772   30.5685 H   0  0  0  0  0  0  0  0  0  0  0  0
   -8.8107   -5.0688   27.0967 H   0  0  0  0  0  0  0  0  0  0  0  0
   -5.6683   -7.8453   28.0077 H   0  0  0  0  0  0  0  0  0  0  0  0
   -7.7076  -25.7637   31.0852 H   0  0  0  0  0  0  0  0  0  0  0  0
  -13.6431  -18.9840   30.3895 H   0  0  0  0  0  0  0  0  0  0  0  0
   -9.6837   -9.5737   25.1674 H   0  0  0  0  0  0  0  0  0  0  0  0
  1  4  1  0
  1  6  1  0
  2 10  1  0
  2 23  1  0
  3  4  1  0
  3 29  2  0
  4  5  2  0
  5 18  1  0
  5 35  1  0
  6  7  2  0
  6 33  1  0
  7 19  1  0
  7 35  1  0
  8 19  2  0
  8 30  1  0
  9 20  2  0
  9 21  1  0
 10 21  2  0
 10 22  1  0
 11 20  1  0
 11 22  2  0
 11 31  1  0
 12 14  1  0
 12 24  1  0
 24 13  1  1
 13 34  1  0
 13 38  2  0
 14 24  1  0
 15 26  2  0
 15 27  1  0
 16 27  2  0
 16 28  1  0
 16 32  1  0
 17 26  1  0
 17 28  2  0
 18 25  2  0
 19 36  1  0
 20 36  1  0
 23 24  1  0
 23 37  2  0
 25 29  1  0
 26 34  1  0
 30 33  2  0
  1 39  1  0
  2 40  1  0
  3 41  1  0
  8 42  1  0
  9 43  1  0
 12 44  1  0
 12 45  1  0
 14 46  1  0
 14 47  1  0
 15 48  1  0
 17 49  1  0
 18 50  1  0
 21 51  1  0
 22 52  1  0
 25 53  1  0
 27 54  1  0
 28 55  1  0
 29 56  1  0
 30 57  1  0
 34 58  1  0
M  END
>  <filename_input>  (4) 
7V3S_5I9_docked.sdf

>  <pdb_id>  (4) 
7V3S_5I9

>  <pose_rank>  (4) 
3

>  <num_atoms_heavy>  (4) 
38

>  <num_torsions>  (4) 
6

>  <pose>  (4) 
[-9.458044463934035, -16.66857550555899, 28.228484560138984, 4.37559215750147, -0.9021301584694598, -4.2693400991713535, -2.4950200658116795, -6.437396807392173, -6.99177846702254, 3.5705531307148917, -19.067087107695293, 0.1259295225111983]

>  <energy>  (4) 
-1187.4249349443492

>  <inter_energy>  (4) 
-1252.3389918142095

>  <intra_energy>  (4) 
43.98770659073947

>  <rmsd>  (4) 
3.54612

>  <sdf_rank>  (4) 
0

$$$$

     RDKit          3D

 58 63  0  0  0  0  0  0  0  0999 V2000
   -6.8462  -23.6064   31.2452 N   0  0  0  0  0  0  0  0  0  0  0  0
   -9.7968  -14.3624   29.4340 N   0  0  0  0  0  0  0  0  0  0  0  0
   -8.0058  -25.7048   30.9321 C   0  0  0  0  0  0  0  0  0  0  0  0
   -8.0135  -24.3111   31.0370 C   0  0  0  0  0  0  0  0  0  0  0  0
   -9.2289  -23.6276   30.9176 C   0  0  0  0  0  0  0  0  0  0  0  0
   -7.0285  -22.2813   31.7858 C   0  0  0  0  0  0  0  0  0  0  0  0
   -8.0519  -21.5513   30.9515 C   0  0  0  0  0  0  0  0  0  0  0  0
   -7.1605  -19.5434   32.1278 C   0  0  0  0  0  0  0  0  0  0  0  0
   -9.8107  -18.0442   29.5590 C   0  0  0  0  0  0  0  0  0  0  0  0
   -9.6889  -15.6763   29.9684 C   0  0  0  0  0  0  0  0  0  0  0  0
   -9.3429  -17.2283   31.7423 C   0  0  0  0  0  0  0  0  0  0  0  0
   -9.2259  -10.9297   29.5660 C   0  0  0  0  0  0  0  0  0  0  0  0
  -10.6344  -12.1912   27.7790 C   0  0  0  0  0  0  0  0  0  0  0  0
  -10.6462  -10.7175   29.9417 C   0  0  0  0  0  0  0  0  0  0  0  0
  -11.7477  -12.0731   25.0988 C   0  0  0  0  0  0  0  0  0  0  0  0
  -11.3528  -11.2751   22.9128 C   0  0  0  0  0  0  0  0  0  0  0  0
  -10.2039  -10.2781   24.7278 C   0  0  0  0  0  0  0  0  0  0  0  0
  -10.4134  -24.3203   30.7046 C   0  0  0  0  0  0  0  0  0  0  0  0
   -8.2083  -20.1744   31.5235 C   0  0  0  0  0  0  0  0  0  0  0  0
   -9.5230  -18.2926   30.8883 C   0  0  0  0  0  0  0  0  0  0  0  0
   -9.8945  -16.7405   29.1001 C   0  0  0  0  0  0  0  0  0  0  0  0
   -9.4178  -15.9284   31.3102 C   0  0  0  0  0  0  0  0  0  0  0  0
  -10.1533  -13.2432   30.0879 C   0  0  0  0  0  0  0  0  0  0  0  0
  -10.2541  -12.0139   29.2284 C   0  0  2  0  0  0  0  0  0  0  0  0
  -10.3792  -25.6987   30.6184 C   0  0  0  0  0  0  0  0  0  0  0  0
  -10.8696  -11.1242   25.6036 C   0  0  0  0  0  0  0  0  0  0  0  0
  -12.0076  -12.1397   23.7406 C   0  0  0  0  0  0  0  0  0  0  0  0
  -10.4575  -10.3469   23.3667 C   0  0  0  0  0  0  0  0  0  0  0  0
   -9.1827  -26.3807   30.7321 C   0  0  0  0  0  0  0  0  0  0  0  0
   -5.9284  -20.2312   32.2635 C   0  0  0  0  0  0  0  0  0  0  0  0
   -9.0814  -17.4786   33.0452 F   0  0  0  0  0  0  0  0  0  0  0  0
  -11.5985  -11.3474   21.5776 F   0  0  0  0  0  0  0  0  0  0  0  0
   -5.7903  -21.4998   31.9491 N   0  0  0  0  0  0  0  0  0  0  0  0
  -10.5837  -11.1011   26.9978 N   0  0  0  0  0  0  0  0  0  0  0  0
   -9.3137  -22.2547   31.0025 O   0  0  0  0  0  0  0  0  0  0  0  0
   -9.4708  -19.6001   31.3615 O   0  0  0  0  0  0  0  0  0  0  0  0
  -10.3679  -13.1889   31.2875 O   0  0  0  0  0  0  0  0  0  0  0  0
  -10.9364  -13.2903   27.3447 O   0  0  0  0  0  0  0  0  0  0  0  0
   -5.9170  -23.9958   31.0313 H   0  0  0  0  0  0  0  0  0  0  0  0
   -9.5770  -14.2566   28.4333 H   0  0  0  0  0  0  0  0  0  0  0  0
   -7.0584  -26.2583   31.0098 H   0  0  0  0  0  0  0  0  0  0  0  0
   -7.2702  -18.5157   32.5045 H   0  0  0  0  0  0  0  0  0  0  0  0
   -9.9730  -18.8826   28.8656 H   0  0  0  0  0  0  0  0  0  0  0  0
   -8.7776  -10.3305   28.7597 H   0  0  0  0  0  0  0  0  0  0  0  0
   -8.2718  -10.9140   30.1133 H   0  0  0  0  0  0  0  0  0  0  0  0
  -10.9417  -10.7436   31.0009 H   0  0  0  0  0  0  0  0  0  0  0  0
  -11.3847   -9.9248   29.7510 H   0  0  0  0  0  0  0  0  0  0  0  0
  -12.2414  -12.7782   25.7837 H   0  0  0  0  0  0  0  0  0  0  0  0
   -9.4740   -9.5516   25.1144 H   0  0  0  0  0  0  0  0  0  0  0  0
  -11.3659  -23.7790   30.6059 H   0  0  0  0  0  0  0  0  0  0  0  0
  -10.1252  -16.5467   28.0422 H   0  0  0  0  0  0  0  0  0  0  0  0
   -9.2657  -15.0970   32.0142 H   0  0  0  0  0  0  0  0  0  0  0  0
  -11.3125  -26.2582   30.4578 H   0  0  0  0  0  0  0  0  0  0  0  0
  -12.7240  -12.8714   23.3389 H   0  0  0  0  0  0  0  0  0  0  0  0
   -9.9487   -9.6685   22.6660 H   0  0  0  0  0  0  0  0  0  0  0  0
   -9.1739  -27.4784   30.6615 H   0  0  0  0  0  0  0  0  0  0  0  0
   -5.0552  -19.6825   32.6461 H   0  0  0  0  0  0  0  0  0  0  0  0
  -10.3247  -10.2022   27.4289 H   0  0  0  0  0  0  0  0  0  0  0  0
  1  4  1  0
  1  6  1  0
  2 10  1  0
  2 23  1  0
  3  4  1  0
  3 29  2  0
  4  5  2  0
  5 18  1  0
  5 35  1  0
  6  7  2  0
  6 33  1  0
  7 19  1  0
  7 35  1  0
  8 19  2  0
  8 30  1  0
  9 20  2  0
  9 21  1  0
 10 21  2  0
 10 22  1  0
 11 20  1  0
 11 22  2  0
 11 31  1  0
 12 14  1  0
 12 24  1  0
 24 13  1  6
 13 34  1  0
 13 38  2  0
 14 24  1  0
 15 26  2  0
 15 27  1  0
 16 27  2  0
 16 28  1  0
 16 32  1  0
 17 26  1  0
 17 28  2  0
 18 25  2  0
 19 36  1  0
 20 36  1  0
 23 24  1  0
 23 37  2  0
 25 29  1  0
 26 34  1  0
 30 33  2  0
  1 39  1  0
  2 40  1  0
  3 41  1  0
  8 42  1  0
  9 43  1  0
 12 44  1  0
 12 45  1  0
 14 46  1  0
 14 47  1  0
 15 48  1  0
 17 49  1  0
 18 50  1  0
 21 51  1  0
 22 52  1  0
 25 53  1  0
 27 54  1  0
 28 55  1  0
 29 56  1  0
 30 57  1  0
 34 58  1  0
M  END
>  <filename_input>  (5) 
7V3S_5I9_docked.sdf

>  <pdb_id>  (5) 
7V3S_5I9

>  <pose_rank>  (5) 
4

>  <num_atoms_heavy>  (5) 
38

>  <num_torsions>  (5) 
6

>  <pose>  (5) 
[-9.810695215156967, -18.044237629246773, 29.558969393895993, -0.007037571482506632, -5.062313401387099, 3.31082712668413, -6.919717700999467, -5.826003884765504, 0.05234566943245182, -0.308295704324545, 9.335304006885568, 7.249097147447629]

>  <energy>  (5) 
-1116.0947406743105

>  <inter_energy>  (5) 
-1203.4151221659374

>  <intra_energy>  (5) 
81.13973835304526

>  <rmsd>  (5) 
2.26501

>  <sdf_rank>  (5) 
0

$$$$

     RDKit          3D

 58 63  0  0  0  0  0  0  0  0999 V2000
  -10.7587  -22.9075   31.9076 N   0  0  0  0  0  0  0  0  0  0  0  0
  -10.0613  -14.0322   27.4138 N   0  0  0  0  0  0  0  0  0  0  0  0
   -9.1859  -24.6913   32.3439 C   0  0  0  0  0  0  0  0  0  0  0  0
   -9.5082  -23.4678   31.7501 C   0  0  0  0  0  0  0  0  0  0  0  0
   -8.5364  -22.8029   30.9936 C   0  0  0  0  0  0  0  0  0  0  0  0
  -11.1126  -21.9287   30.9087 C   0  0  0  0  0  0  0  0  0  0  0  0
   -9.9937  -20.9230   30.7943 C   0  0  0  0  0  0  0  0  0  0  0  0
  -11.7057  -19.5822   29.5771 C   0  0  0  0  0  0  0  0  0  0  0  0
   -9.6440  -17.6913   27.3206 C   0  0  0  0  0  0  0  0  0  0  0  0
   -9.8610  -15.3612   27.8801 C   0  0  0  0  0  0  0  0  0  0  0  0
   -9.5488  -16.9901   29.5901 C   0  0  0  0  0  0  0  0  0  0  0  0
  -12.2617  -11.3385   26.4317 C   0  0  0  0  0  0  0  0  0  0  0  0
   -9.6629  -11.4192   26.5211 C   0  0  0  0  0  0  0  0  0  0  0  0
  -11.8172  -11.6937   25.0606 C   0  0  0  0  0  0  0  0  0  0  0  0
   -8.1392   -8.6394   27.2412 C   0  0  0  0  0  0  0  0  0  0  0  0
   -6.1967   -8.4604   28.5701 C   0  0  0  0  0  0  0  0  0  0  0  0
   -7.6478  -10.3037   28.8939 C   0  0  0  0  0  0  0  0  0  0  0  0
   -7.2711  -23.3503   30.8270 C   0  0  0  0  0  0  0  0  0  0  0  0
  -10.3947  -19.9099   29.7645 C   0  0  0  0  0  0  0  0  0  0  0  0
   -9.4929  -18.0024   28.6592 C   0  0  0  0  0  0  0  0  0  0  0  0
   -9.8285  -16.3753   26.9317 C   0  0  0  0  0  0  0  0  0  0  0  0
   -9.7273  -15.6788   29.2287 C   0  0  0  0  0  0  0  0  0  0  0  0
  -11.0722  -13.5793   26.6521 C   0  0  0  0  0  0  0  0  0  0  0  0
  -10.9646  -12.1338   26.2534 C   0  0  2  0  0  0  0  0  0  0  0  0
   -6.9834  -24.5675   31.4136 C   0  0  0  0  0  0  0  0  0  0  0  0
   -8.4914   -9.8017   27.9129 C   0  0  0  0  0  0  0  0  0  0  0  0
   -6.9889   -7.9494   27.5837 C   0  0  0  0  0  0  0  0  0  0  0  0
   -6.4920   -9.6182   29.2344 C   0  0  0  0  0  0  0  0  0  0  0  0
   -7.9365  -25.2288   32.1647 C   0  0  0  0  0  0  0  0  0  0  0  0
  -12.6984  -20.2576   30.3307 C   0  0  0  0  0  0  0  0  0  0  0  0
   -9.4199  -17.3042   30.8991 F   0  0  0  0  0  0  0  0  0  0  0  0
   -5.0607   -7.7899   28.8992 F   0  0  0  0  0  0  0  0  0  0  0  0
  -12.4199  -21.2796   31.1088 N   0  0  0  0  0  0  0  0  0  0  0  0
   -9.6553  -10.5187   27.5161 N   0  0  0  0  0  0  0  0  0  0  0  0
   -8.7785  -21.5903   30.3850 O   0  0  0  0  0  0  0  0  0  0  0  0
   -9.3407  -19.3269   29.0579 O   0  0  0  0  0  0  0  0  0  0  0  0
  -12.0275  -14.2553   26.3079 O   0  0  0  0  0  0  0  0  0  0  0  0
   -8.6622  -11.6866   25.8768 O   0  0  0  0  0  0  0  0  0  0  0  0
  -11.3906  -23.1678   32.6783 H   0  0  0  0  0  0  0  0  0  0  0  0
   -9.3518  -13.3389   27.6911 H   0  0  0  0  0  0  0  0  0  0  0  0
   -9.9321  -25.2220   32.9533 H   0  0  0  0  0  0  0  0  0  0  0  0
  -11.9884  -18.8051   28.8517 H   0  0  0  0  0  0  0  0  0  0  0  0
   -9.6175  -18.4896   26.5642 H   0  0  0  0  0  0  0  0  0  0  0  0
  -12.2202  -10.2915   26.7666 H   0  0  0  0  0  0  0  0  0  0  0  0
  -13.1872  -11.4897   27.0067 H   0  0  0  0  0  0  0  0  0  0  0  0
  -12.3761  -12.4434   24.4813 H   0  0  0  0  0  0  0  0  0  0  0  0
  -11.6213  -11.1229   24.1409 H   0  0  0  0  0  0  0  0  0  0  0  0
   -8.7795   -8.2631   26.4298 H   0  0  0  0  0  0  0  0  0  0  0  0
   -7.8967  -11.2471   29.4020 H   0  0  0  0  0  0  0  0  0  0  0  0
   -6.5085  -22.8219   30.2361 H   0  0  0  0  0  0  0  0  0  0  0  0
   -9.9500  -16.1317   25.8659 H   0  0  0  0  0  0  0  0  0  0  0  0
   -9.7642  -14.8895   29.9939 H   0  0  0  0  0  0  0  0  0  0  0  0
   -5.9870  -25.0143   31.2816 H   0  0  0  0  0  0  0  0  0  0  0  0
   -6.7202   -7.0127   27.0734 H   0  0  0  0  0  0  0  0  0  0  0  0
   -5.8259   -9.9982   30.0231 H   0  0  0  0  0  0  0  0  0  0  0  0
   -7.6904  -26.1974   32.6242 H   0  0  0  0  0  0  0  0  0  0  0  0
  -13.7409  -19.9134   30.2616 H   0  0  0  0  0  0  0  0  0  0  0  0
  -10.5361  -10.3373   28.0182 H   0  0  0  0  0  0  0  0  0  0  0  0
  1  4  1  0
  1  6  1  0
  2 10  1  0
  2 23  1  0
  3  4  1  0
  3 29  2  0
  4  5  2  0
  5 18  1  0
  5 35  1  0
  6  7  2  0
  6 33  1  0
  7 19  1  0
  7 35  1  0
  8 19  2  0
  8 30  1  0
  9 20  2  0
  9 21  1  0
 10 21  2  0
 10 22  1  0
 11 20  1  0
 11 22  2  0
 11 31  1  0
 12 14  1  0
 12 24  1  0
 24 13  1  6
 13 34  1  0
 13 38  2  0
 14 24  1  0
 15 26  2  0
 15 27  1  0
 16 27  2  0
 16 28  1  0
 16 32  1  0
 17 26  1  0
 17 28  2  0
 18 25  2  0
 19 36  1  0
 20 36  1  0
 23 24  1  0
 23 37  2  0
 25 29  1  0
 26 34  1  0
 30 33  2  0
  1 39  1  0
  2 40  1  0
  3 41  1  0
  8 42  1  0
  9 43  1  0
 12 44  1  0
 12 45  1  0
 14 46  1  0
 14 47  1  0
 15 48  1  0
 17 49  1  0
 18 50  1  0
 21 51  1  0
 22 52  1  0
 25 53  1  0
 27 54  1  0
 28 55  1  0
 29 56  1  0
 30 57  1  0
 34 58  1  0
M  END
>  <filename_input>  (6) 
7V3S_5I9_docked.sdf

>  <pdb_id>  (6) 
7V3S_5I9

>  <pose_rank>  (6) 
5

>  <num_atoms_heavy>  (6) 
38

>  <num_torsions>  (6) 
6

>  <pose>  (6) 
[-9.643958671949871, -17.691340649962335, 27.32055333489569, -4.011936889735282, -4.701691730101615, 0.2697972595093267, -2.327143660707725, -6.159686511317616, -5.081419090706167, 0.6749898410009169, -13.201301377146647, -5.571942684599407]

>  <energy>  (6) 
-1027.1417402484717

>  <inter_energy>  (6) 
-1068.5590247727205

>  <intra_energy>  (6) 
24.53325820798898

>  <rmsd>  (6) 
3.63302

>  <sdf_rank>  (6) 
0

$$$$

     RDKit          3D

 58 63  0  0  0  0  0  0  0  0999 V2000
  -10.7927  -23.5342   30.9619 N   0  0  0  0  0  0  0  0  0  0  0  0
   -9.7812  -13.7479   29.4668 N   0  0  0  0  0  0  0  0  0  0  0  0
   -9.1809  -25.3351   30.8966 C   0  0  0  0  0  0  0  0  0  0  0  0
   -9.4852  -23.9731   30.9712 C   0  0  0  0  0  0  0  0  0  0  0  0
   -8.4396  -23.0477   31.0667 C   0  0  0  0  0  0  0  0  0  0  0  0
  -10.9640  -22.1531   30.5815 C   0  0  0  0  0  0  0  0  0  0  0  0
  -10.0310  -21.3014   31.4063 C   0  0  0  0  0  0  0  0  0  0  0  0
  -11.4643  -19.4364   30.5830 C   0  0  0  0  0  0  0  0  0  0  0  0
   -9.4091  -17.4121   29.3821 C   0  0  0  0  0  0  0  0  0  0  0  0
   -9.5964  -15.0781   29.9361 C   0  0  0  0  0  0  0  0  0  0  0  0
   -9.3007  -16.7063   31.6497 C   0  0  0  0  0  0  0  0  0  0  0  0
  -11.5756  -11.4517   27.1531 C   0  0  0  0  0  0  0  0  0  0  0  0
  -10.4889  -10.7871   29.4216 C   0  0  0  0  0  0  0  0  0  0  0  0
  -10.1101  -11.5872   26.9587 C   0  0  0  0  0  0  0  0  0  0  0  0
   -9.7292  -10.1603   32.4607 C   0  0  0  0  0  0  0  0  0  0  0  0
  -10.6329   -8.5730   33.9557 C   0  0  0  0  0  0  0  0  0  0  0  0
  -11.9679   -9.3582   32.1642 C   0  0  0  0  0  0  0  0  0  0  0  0
   -7.1173  -23.4715   31.0807 C   0  0  0  0  0  0  0  0  0  0  0  0
  -10.2421  -19.8727   31.0039 C   0  0  0  0  0  0  0  0  0  0  0  0
   -9.2591  -17.7216   30.7213 C   0  0  0  0  0  0  0  0  0  0  0  0
   -9.5782  -16.0949   28.9903 C   0  0  0  0  0  0  0  0  0  0  0  0
   -9.4639  -15.3938   31.2852 C   0  0  0  0  0  0  0  0  0  0  0  0
  -10.8301  -13.2649   28.7784 C   0  0  0  0  0  0  0  0  0  0  0  0
  -10.6986  -11.8295   28.3510 C   0  0  2  0  0  0  0  0  0  0  0  0
   -6.8443  -24.8228   30.9921 C   0  0  0  0  0  0  0  0  0  0  0  0
  -10.9102  -10.1459   31.7319 C   0  0  0  0  0  0  0  0  0  0  0  0
   -9.5798   -9.3525   33.5751 C   0  0  0  0  0  0  0  0  0  0  0  0
  -11.8232   -8.5531   33.2835 C   0  0  0  0  0  0  0  0  0  0  0  0
   -7.8711  -25.7431   30.9007 C   0  0  0  0  0  0  0  0  0  0  0  0
  -12.5270  -20.3681   30.4725 C   0  0  0  0  0  0  0  0  0  0  0  0
   -9.1731  -17.0186   32.9592 F   0  0  0  0  0  0  0  0  0  0  0  0
  -10.4914   -7.7881   35.0568 F   0  0  0  0  0  0  0  0  0  0  0  0
  -12.3516  -21.6607   30.6327 N   0  0  0  0  0  0  0  0  0  0  0  0
  -11.0587  -11.0157   30.6150 N   0  0  0  0  0  0  0  0  0  0  0  0
   -8.6623  -21.6902   31.1513 O   0  0  0  0  0  0  0  0  0  0  0  0
   -9.1225  -19.0468   31.1231 O   0  0  0  0  0  0  0  0  0  0  0  0
  -11.8342  -13.9070   28.5187 O   0  0  0  0  0  0  0  0  0  0  0  0
   -9.7990   -9.8043   29.2067 O   0  0  0  0  0  0  0  0  0  0  0  0
  -11.5851  -24.1448   31.2073 H   0  0  0  0  0  0  0  0  0  0  0  0
   -9.0265  -13.0797   29.6783 H   0  0  0  0  0  0  0  0  0  0  0  0
   -9.9896  -26.0782   30.8348 H   0  0  0  0  0  0  0  0  0  0  0  0
  -11.6228  -18.3770   30.3330 H   0  0  0  0  0  0  0  0  0  0  0  0
   -9.3940  -18.2125   28.6278 H   0  0  0  0  0  0  0  0  0  0  0  0
  -12.0437  -10.4572   27.1096 H   0  0  0  0  0  0  0  0  0  0  0  0
  -12.4620  -11.8942   26.6751 H   0  0  0  0  0  0  0  0  0  0  0  0
   -9.7110  -12.4325   26.3788 H   0  0  0  0  0  0  0  0  0  0  0  0
   -9.3213  -10.9340   26.5574 H   0  0  0  0  0  0  0  0  0  0  0  0
   -8.9049  -10.8191   32.1503 H   0  0  0  0  0  0  0  0  0  0  0  0
  -12.9225   -9.3726   31.6178 H   0  0  0  0  0  0  0  0  0  0  0  0
   -6.2986  -22.7413   31.1613 H   0  0  0  0  0  0  0  0  0  0  0  0
   -9.6988  -15.8525   27.9241 H   0  0  0  0  0  0  0  0  0  0  0  0
   -9.4896  -14.6021   32.0484 H   0  0  0  0  0  0  0  0  0  0  0  0
   -5.8003  -25.1693   30.9943 H   0  0  0  0  0  0  0  0  0  0  0  0
   -8.6358   -9.3395   34.1395 H   0  0  0  0  0  0  0  0  0  0  0  0
  -12.6493   -7.9114   33.6238 H   0  0  0  0  0  0  0  0  0  0  0  0
   -7.6355  -26.8153   30.8304 H   0  0  0  0  0  0  0  0  0  0  0  0
  -13.5363  -19.9951   30.2442 H   0  0  0  0  0  0  0  0  0  0  0  0
  -11.6324  -11.8636   30.7284 H   0  0  0  0  0  0  0  0  0  0  0  0
  1  4  1  0
  1  6  1  0
  2 10  1  0
  2 23  1  0
  3  4  1  0
  3 29  2  0
  4  5  2  0
  5 18  1  0
  5 35  1  0
  6  7  2  0
  6 33  1  0
  7 19  1  0
  7 35  1  0
  8 19  2  0
  8 30  1  0
  9 20  2  0
  9 21  1  0
 10 21  2  0
 10 22  1  0
 11 20  1  0
 11 22  2  0
 11 31  1  0
 12 14  1  0
 12 24  1  0
 24 13  1  1
 13 34  1  0
 13 38  2  0
 14 24  1  0
 15 26  2  0
 15 27  1  0
 16 27  2  0
 16 28  1  0
 16 32  1  0
 17 26  1  0
 17 28  2  0
 18 25  2  0
 19 36  1  0
 20 36  1  0
 23 24  1  0
 23 37  2  0
 25 29  1  0
 26 34  1  0
 30 33  2  0
  1 39  1  0
  2 40  1  0
  3 41  1  0
  8 42  1  0
  9 43  1  0
 12 44  1  0
 12 45  1  0
 14 46  1  0
 14 47  1  0
 15 48  1  0
 17 49  1  0
 18 50  1  0
 21 51  1  0
 22 52  1  0
 25 53  1  0
 27 54  1  0
 28 55  1  0
 29 56  1  0
 30 57  1  0
 34 58  1  0
M  END
>  <filename_input>  (7) 
7V3S_5I9_docked.sdf

>  <pdb_id>  (7) 
7V3S_5I9

>  <pose_rank>  (7) 
6

>  <num_atoms_heavy>  (7) 
38

>  <num_torsions>  (7) 
6

>  <pose>  (7) 
[-9.409081603210426, -17.41207708332481, 29.382118248217118, -3.8274505958083775, -4.74369556710864, 1.052246509082804, -2.246700046609584, -7.360989005968617, -3.7669176110368494, -2.1460628892907634, -12.483999497784884, -6.183700309101639]

>  <energy>  (7) 
-1623.8424928661755

>  <inter_energy>  (7) 
-1643.876371468093

>  <intra_energy>  (7) 
27.117360363286274

>  <rmsd>  (7) 
4.56936

>  <sdf_rank>  (7) 
0

$$$$

     RDKit          3D

 58 63  0  0  0  0  0  0  0  0999 V2000
  -12.1896  -20.6197   28.1702 N   0  0  0  0  0  0  0  0  0  0  0  0
  -10.3150  -13.2614   29.7961 N   0  0  0  0  0  0  0  0  0  0  0  0
  -12.4168  -19.7342   25.9319 C   0  0  0  0  0  0  0  0  0  0  0  0
  -11.8049  -19.7306   27.1884 C   0  0  0  0  0  0  0  0  0  0  0  0
  -10.7791  -18.8127   27.4418 C   0  0  0  0  0  0  0  0  0  0  0  0
  -11.8361  -20.2276   29.5128 C   0  0  0  0  0  0  0  0  0  0  0  0
  -10.3718  -19.8655   29.5450 C   0  0  0  0  0  0  0  0  0  0  0  0
  -10.6730  -20.0481   32.0120 C   0  0  0  0  0  0  0  0  0  0  0  0
   -9.4952  -16.8370   29.4574 C   0  0  0  0  0  0  0  0  0  0  0  0
   -9.9659  -14.5882   30.1722 C   0  0  0  0  0  0  0  0  0  0  0  0
   -9.4648  -16.2834   31.7691 C   0  0  0  0  0  0  0  0  0  0  0  0
   -9.7136   -9.7748   30.1593 C   0  0  0  0  0  0  0  0  0  0  0  0
  -10.4692  -10.6050   27.8123 C   0  0  0  0  0  0  0  0  0  0  0  0
  -11.0622  -10.3654   30.3501 C   0  0  0  0  0  0  0  0  0  0  0  0
  -11.9427  -12.1421   25.0589 C   0  0  0  0  0  0  0  0  0  0  0  0
  -11.4238  -11.3287   22.9047 C   0  0  0  0  0  0  0  0  0  0  0  0
   -9.9967  -10.7864   24.7152 C   0  0  0  0  0  0  0  0  0  0  0  0
  -10.3764  -17.9124   26.4643 C   0  0  0  0  0  0  0  0  0  0  0  0
  -10.0282  -19.4800   30.9524 C   0  0  0  0  0  0  0  0  0  0  0  0
   -9.3026  -17.2185   30.7723 C   0  0  0  0  0  0  0  0  0  0  0  0
   -9.8268  -15.5265   29.1578 C   0  0  0  0  0  0  0  0  0  0  0  0
   -9.7898  -14.9787   31.4965 C   0  0  0  0  0  0  0  0  0  0  0  0
   -9.4795  -12.2368   29.5522 C   0  0  0  0  0  0  0  0  0  0  0  0
  -10.1554  -10.9278   29.2525 C   0  0  2  0  0  0  0  0  0  0  0  0
  -11.0074  -17.9286   25.2355 C   0  0  0  0  0  0  0  0  0  0  0  0
  -10.8316  -11.4885   25.5731 C   0  0  0  0  0  0  0  0  0  0  0  0
  -12.2545  -12.0482   23.7133 C   0  0  0  0  0  0  0  0  0  0  0  0
  -10.3031  -10.6960   23.3662 C   0  0  0  0  0  0  0  0  0  0  0  0
  -12.0189  -18.8338   24.9763 C   0  0  0  0  0  0  0  0  0  0  0  0
  -11.7207  -20.9708   31.7658 C   0  0  0  0  0  0  0  0  0  0  0  0
   -9.2942  -16.6683   33.0542 F   0  0  0  0  0  0  0  0  0  0  0  0
  -11.7227  -11.2455   21.5810 F   0  0  0  0  0  0  0  0  0  0  0  0
  -12.1864  -21.2039   30.5591 N   0  0  0  0  0  0  0  0  0  0  0  0
  -10.5048  -11.6335   26.9509 N   0  0  0  0  0  0  0  0  0  0  0  0
  -10.1247  -18.7549   28.6533 O   0  0  0  0  0  0  0  0  0  0  0  0
   -9.0021  -18.5416   31.0812 O   0  0  0  0  0  0  0  0  0  0  0  0
   -8.2633  -12.3300   29.5479 O   0  0  0  0  0  0  0  0  0  0  0  0
  -10.7135   -9.4599   27.4702 O   0  0  0  0  0  0  0  0  0  0  0  0
  -12.6902  -21.4952   27.9611 H   0  0  0  0  0  0  0  0  0  0  0  0
  -11.3212  -13.0634   29.7000 H   0  0  0  0  0  0  0  0  0  0  0  0
  -13.2154  -20.4573   25.7096 H   0  0  0  0  0  0  0  0  0  0  0  0
  -10.3841  -19.7940   33.0425 H   0  0  0  0  0  0  0  0  0  0  0  0
   -9.3849  -17.5749   28.6491 H   0  0  0  0  0  0  0  0  0  0  0  0
   -9.6139   -8.7605   29.7456 H   0  0  0  0  0  0  0  0  0  0  0  0
   -8.8490   -9.5964   30.8156 H   0  0  0  0  0  0  0  0  0  0  0  0
  -11.2741  -10.9670   31.2462 H   0  0  0  0  0  0  0  0  0  0  0  0
  -12.0850   -9.9615   30.3742 H   0  0  0  0  0  0  0  0  0  0  0  0
  -12.5809  -12.7399   25.7261 H   0  0  0  0  0  0  0  0  0  0  0  0
   -9.0904  -10.3009   25.1061 H   0  0  0  0  0  0  0  0  0  0  0  0
   -9.5662  -17.1962   26.6657 H   0  0  0  0  0  0  0  0  0  0  0  0
   -9.9808  -15.2269   28.1106 H   0  0  0  0  0  0  0  0  0  0  0  0
   -9.9095  -14.2515   32.3131 H   0  0  0  0  0  0  0  0  0  0  0  0
  -10.7020  -17.2146   24.4564 H   0  0  0  0  0  0  0  0  0  0  0  0
  -13.1497  -12.5412   23.3063 H   0  0  0  0  0  0  0  0  0  0  0  0
   -9.6578  -10.1268   22.6810 H   0  0  0  0  0  0  0  0  0  0  0  0
  -12.5108  -18.8324   23.9925 H   0  0  0  0  0  0  0  0  0  0  0  0
  -12.1603  -21.5119   32.6166 H   0  0  0  0  0  0  0  0  0  0  0  0
  -10.2844  -12.5754   27.3046 H   0  0  0  0  0  0  0  0  0  0  0  0
  1  4  1  0
  1  6  1  0
  2 10  1  0
  2 23  1  0
  3  4  1  0
  3 29  2  0
  4  5  2  0
  5 18  1  0
  5 35  1  0
  6  7  2  0
  6 33  1  0
  7 19  1  0
  7 35  1  0
  8 19  2  0
  8 30  1  0
  9 20  2  0
  9 21  1  0
 10 21  2  0
 10 22  1  0
 11 20  1  0
 11 22  2  0
 11 31  1  0
 12 14  1  0
 12 24  1  0
 24 13  1  6
 13 34  1  0
 13 38  2  0
 14 24  1  0
 15 26  2  0
 15 27  1  0
 16 27  2  0
 16 28  1  0
 16 32  1  0
 17 26  1  0
 17 28  2  0
 18 25  2  0
 19 36  1  0
 20 36  1  0
 23 24  1  0
 23 37  2  0
 25 29  1  0
 26 34  1  0
 30 33  2  0
  1 39  1  0
  2 40  1  0
  3 41  1  0
  8 42  1  0
  9 43  1  0
 12 44  1  0
 12 45  1  0
 14 46  1  0
 14 47  1  0
 15 48  1  0
 17 49  1  0
 18 50  1  0
 21 51  1  0
 22 52  1  0
 25 53  1  0
 27 54  1  0
 28 55  1  0
 29 56  1  0
 30 57  1  0
 34 58  1  0
M  END
>  <filename_input>  (8) 
7V3S_5I9_docked.sdf

>  <pdb_id>  (8) 
7V3S_5I9

>  <pose_rank>  (8) 
7

>  <num_atoms_heavy>  (8) 
38

>  <num_torsions>  (8) 
6

>  <pose>  (8) 
[-9.495151440322964, -16.837003166217954, 29.457401767904834, -4.1574292594330275, -2.614813321334244, -3.615489248489455, 1.3657633555053568, -1.643190719629617, 3.418175418270414, -2.8742280363081307, 0.03736578425561255, -1.701737549340252]

>  <energy>  (8) 
-957.5003673270653

>  <inter_energy>  (8) 
-1102.748678015755

>  <intra_energy>  (8) 
130.95276125232022

>  <rmsd>  (8) 
3.56237

>  <sdf_rank>  (8) 
0

$$$$

     RDKit          3D

 58 63  0  0  0  0  0  0  0  0999 V2000
   -6.4914  -23.7854   31.0041 N   0  0  0  0  0  0  0  0  0  0  0  0
  -10.7446  -15.4875   29.1078 N   0  0  0  0  0  0  0  0  0  0  0  0
   -7.5044  -25.9383   30.5740 C   0  0  0  0  0  0  0  0  0  0  0  0
   -7.6135  -24.5739   30.8568 C   0  0  0  0  0  0  0  0  0  0  0  0
   -8.8864  -24.0056   30.9810 C   0  0  0  0  0  0  0  0  0  0  0  0
   -6.7070  -22.5567   31.7288 C   0  0  0  0  0  0  0  0  0  0  0  0
   -7.8929  -21.8405   31.1314 C   0  0  0  0  0  0  0  0  0  0  0  0
   -7.0180  -19.9038   32.4330 C   0  0  0  0  0  0  0  0  0  0  0  0
   -9.6797  -18.9279   29.8836 C   0  0  0  0  0  0  0  0  0  0  0  0
  -10.3974  -16.6313   29.8792 C   0  0  0  0  0  0  0  0  0  0  0  0
  -10.1045  -17.8013   31.9335 C   0  0  0  0  0  0  0  0  0  0  0  0
  -12.2386  -13.3287   28.1990 C   0  0  0  0  0  0  0  0  0  0  0  0
  -10.0474  -11.9323   28.0681 C   0  0  0  0  0  0  0  0  0  0  0  0
  -11.5463  -13.7708   26.9625 C   0  0  0  0  0  0  0  0  0  0  0  0
   -9.8306   -8.9755   27.6990 C   0  0  0  0  0  0  0  0  0  0  0  0
   -8.7716   -7.3880   26.3100 C   0  0  0  0  0  0  0  0  0  0  0  0
   -9.0833   -9.5942   25.5078 C   0  0  0  0  0  0  0  0  0  0  0  0
  -10.0272  -24.7834   30.8328 C   0  0  0  0  0  0  0  0  0  0  0  0
   -8.0830  -20.5616   31.8904 C   0  0  0  0  0  0  0  0  0  0  0  0
   -9.7106  -18.9387   31.2659 C   0  0  0  0  0  0  0  0  0  0  0  0
  -10.0228  -17.7785   29.1920 C   0  0  0  0  0  0  0  0  0  0  0  0
  -10.4457  -16.6500   31.2702 C   0  0  0  0  0  0  0  0  0  0  0  0
  -10.0380  -14.3521   28.9703 C   0  0  0  0  0  0  0  0  0  0  0  0
  -10.7081  -13.2864   28.1484 C   0  0  2  0  0  0  0  0  0  0  0  0
   -9.8905  -26.1321   30.5669 C   0  0  0  0  0  0  0  0  0  0  0  0
   -9.6673   -9.9430   26.7174 C   0  0  0  0  0  0  0  0  0  0  0  0
   -9.3625   -7.6875   27.5028 C   0  0  0  0  0  0  0  0  0  0  0  0
   -8.6194   -8.3035   25.3062 C   0  0  0  0  0  0  0  0  0  0  0  0
   -8.6372  -26.7002   30.4398 C   0  0  0  0  0  0  0  0  0  0  0  0
   -5.7261  -20.4766   32.3221 C   0  0  0  0  0  0  0  0  0  0  0  0
  -10.1513  -17.8253   33.2848 F   0  0  0  0  0  0  0  0  0  0  0  0
   -8.3220   -6.1203   26.1117 F   0  0  0  0  0  0  0  0  0  0  0  0
   -5.5275  -21.6801   31.8327 N   0  0  0  0  0  0  0  0  0  0  0  0
  -10.1942  -11.2493   26.9222 N   0  0  0  0  0  0  0  0  0  0  0  0
   -9.0727  -22.6671   31.2513 O   0  0  0  0  0  0  0  0  0  0  0  0
   -9.3991  -20.1010   31.9647 O   0  0  0  0  0  0  0  0  0  0  0  0
   -8.9292  -14.1726   29.4460 O   0  0  0  0  0  0  0  0  0  0  0  0
   -9.4418  -11.4777   29.0243 O   0  0  0  0  0  0  0  0  0  0  0  0
   -5.5714  -24.0529   30.6261 H   0  0  0  0  0  0  0  0  0  0  0  0
  -11.6378  -15.5347   28.5972 H   0  0  0  0  0  0  0  0  0  0  0  0
   -6.5125  -26.4000   30.4594 H   0  0  0  0  0  0  0  0  0  0  0  0
   -7.1599  -18.9428   32.9491 H   0  0  0  0  0  0  0  0  0  0  0  0
   -9.3824  -19.8327   29.3333 H   0  0  0  0  0  0  0  0  0  0  0  0
  -12.8123  -12.3901   28.1992 H   0  0  0  0  0  0  0  0  0  0  0  0
  -12.9765  -13.7843   28.8758 H   0  0  0  0  0  0  0  0  0  0  0  0
  -11.5425  -14.8362   26.6888 H   0  0  0  0  0  0  0  0  0  0  0  0
  -11.6125  -13.4938   25.9001 H   0  0  0  0  0  0  0  0  0  0  0  0
  -10.3363   -9.2343   28.6410 H   0  0  0  0  0  0  0  0  0  0  0  0
   -8.9883  -10.3431   24.7077 H   0  0  0  0  0  0  0  0  0  0  0  0
  -11.0259  -24.3318   30.9258 H   0  0  0  0  0  0  0  0  0  0  0  0
   -9.9987  -17.7741   28.0923 H   0  0  0  0  0  0  0  0  0  0  0  0
  -10.7531  -15.7542   31.8297 H   0  0  0  0  0  0  0  0  0  0  0  0
  -10.7872  -26.7594   30.4555 H   0  0  0  0  0  0  0  0  0  0  0  0
   -9.4644   -6.9247   28.2887 H   0  0  0  0  0  0  0  0  0  0  0  0
   -8.1386   -8.0217   24.3578 H   0  0  0  0  0  0  0  0  0  0  0  0
   -8.5469  -27.7760   30.2284 H   0  0  0  0  0  0  0  0  0  0  0  0
   -4.8572  -19.8918   32.6582 H   0  0  0  0  0  0  0  0  0  0  0  0
  -10.7145  -11.6929   26.1518 H   0  0  0  0  0  0  0  0  0  0  0  0
  1  4  1  0
  1  6  1  0
  2 10  1  0
  2 23  1  0
  3  4  1  0
  3 29  2  0
  4  5  2  0
  5 18  1  0
  5 35  1  0
  6  7  2  0
  6 33  1  0
  7 19  1  0
  7 35  1  0
  8 19  2  0
  8 30  1  0
  9 20  2  0
  9 21  1  0
 10 21  2  0
 10 22  1  0
 11 20  1  0
 11 22  2  0
 11 31  1  0
 12 14  1  0
 12 24  1  0
 24 13  1  6
 13 34  1  0
 13 38  2  0
 14 24  1  0
 15 26  2  0
 15 27  1  0
 16 27  2  0
 16 28  1  0
 16 32  1  0
 17 26  1  0
 17 28  2  0
 18 25  2  0
 19 36  1  0
 20 36  1  0
 23 24  1  0
 23 37  2  0
 25 29  1  0
 26 34  1  0
 30 33  2  0
  1 39  1  0
  2 40  1  0
  3 41  1  0
  8 42  1  0
  9 43  1  0
 12 44  1  0
 12 45  1  0
 14 46  1  0
 14 47  1  0
 15 48  1  0
 17 49  1  0
 18 50  1  0
 21 51  1  0
 22 52  1  0
 25 53  1  0
 27 54  1  0
 28 55  1  0
 29 56  1  0
 30 57  1  0
 34 58  1  0
M  END
>  <filename_input>  (9) 
7V3S_5I9_docked.sdf

>  <pdb_id>  (9) 
7V3S_5I9

>  <pose_rank>  (9) 
8

>  <num_atoms_heavy>  (9) 
38

>  <num_torsions>  (9) 
6

>  <pose>  (9) 
[-9.679719556016508, -18.9279024281792, 29.88364416830344, -0.1544395696431601, -0.07704510106174649, 0.18821079980238364, 1.097438689374189, 2.9701593717478416, 5.6499984364233224, 4.683638951265221, -3.823473018981282, 13.901452361453075]

>  <energy>  (9) 
-820.688176244476

>  <inter_energy>  (9) 
-835.9448803041104

>  <intra_energy>  (9) 
29.9050370551349

>  <rmsd>  (9) 
3.44957

>  <sdf_rank>  (9) 
0

$$$$

     RDKit          3D

 58 63  0  0  0  0  0  0  0  0999 V2000
   -6.6144  -25.3614   30.4613 N   0  0  0  0  0  0  0  0  0  0  0  0
  -10.6567  -16.1516   30.2306 N   0  0  0  0  0  0  0  0  0  0  0  0
   -6.8299  -27.2064   32.0090 C   0  0  0  0  0  0  0  0  0  0  0  0
   -7.2146  -25.9399   31.5601 C   0  0  0  0  0  0  0  0  0  0  0  0
   -8.2333  -25.2597   32.2372 C   0  0  0  0  0  0  0  0  0  0  0  0
   -6.7530  -23.9276   30.3819 C   0  0  0  0  0  0  0  0  0  0  0  0
   -8.2084  -23.5687   30.5528 C   0  0  0  0  0  0  0  0  0  0  0  0
   -7.4751  -21.3614   29.6579 C   0  0  0  0  0  0  0  0  0  0  0  0
  -10.3066  -19.7915   29.7834 C   0  0  0  0  0  0  0  0  0  0  0  0
  -10.2949  -17.4983   30.5118 C   0  0  0  0  0  0  0  0  0  0  0  0
   -9.3577  -19.2061   31.8830 C   0  0  0  0  0  0  0  0  0  0  0  0
  -10.5435  -13.0955   30.8548 C   0  0  0  0  0  0  0  0  0  0  0  0
  -10.3521  -13.0601   28.2604 C   0  0  0  0  0  0  0  0  0  0  0  0
  -11.8209  -13.6530   30.3437 C   0  0  0  0  0  0  0  0  0  0  0  0
  -10.6148  -11.1466   26.0889 C   0  0  0  0  0  0  0  0  0  0  0  0
  -11.3808  -10.8106   23.8818 C   0  0  0  0  0  0  0  0  0  0  0  0
  -12.1285  -12.7091   25.0839 C   0  0  0  0  0  0  0  0  0  0  0  0
   -8.8512  -25.8280   33.3433 C   0  0  0  0  0  0  0  0  0  0  0  0
   -8.3256  -22.0777   30.4484 C   0  0  0  0  0  0  0  0  0  0  0  0
   -9.6592  -20.1678   30.9457 C   0  0  0  0  0  0  0  0  0  0  0  0
  -10.6246  -18.4614   29.5671 C   0  0  0  0  0  0  0  0  0  0  0  0
   -9.6597  -17.8819   31.6895 C   0  0  0  0  0  0  0  0  0  0  0  0
   -9.9150  -15.2223   29.6032 C   0  0  0  0  0  0  0  0  0  0  0  0
  -10.5430  -13.8586   29.5264 C   0  0  2  0  0  0  0  0  0  0  0  0
   -8.4422  -27.0754   33.7739 C   0  0  0  0  0  0  0  0  0  0  0  0
  -11.3444  -12.3249   26.1626 C   0  0  0  0  0  0  0  0  0  0  0  0
  -10.6171  -10.3884   24.9306 C   0  0  0  0  0  0  0  0  0  0  0  0
  -12.1376  -11.9483   23.9250 C   0  0  0  0  0  0  0  0  0  0  0  0
   -7.4392  -27.7548   33.1090 C   0  0  0  0  0  0  0  0  0  0  0  0
   -6.4333  -22.0396   28.9766 C   0  0  0  0  0  0  0  0  0  0  0  0
   -8.7421  -19.5843   33.0261 F   0  0  0  0  0  0  0  0  0  0  0  0
  -11.3930  -10.0605   22.7479 F   0  0  0  0  0  0  0  0  0  0  0  0
   -6.1702  -23.3116   29.1771 N   0  0  0  0  0  0  0  0  0  0  0  0
  -11.3625  -13.0668   27.3772 N   0  0  0  0  0  0  0  0  0  0  0  0
   -8.6708  -24.0119   31.8486 O   0  0  0  0  0  0  0  0  0  0  0  0
   -9.3674  -21.5075   31.1830 O   0  0  0  0  0  0  0  0  0  0  0  0
   -8.8217  -15.4381   29.1070 O   0  0  0  0  0  0  0  0  0  0  0  0
   -9.3337  -12.4132   28.0802 O   0  0  0  0  0  0  0  0  0  0  0  0
   -6.1068  -25.9102   29.7527 H   0  0  0  0  0  0  0  0  0  0  0  0
  -11.5924  -15.8550   30.5429 H   0  0  0  0  0  0  0  0  0  0  0  0
   -6.0406  -27.7620   31.4816 H   0  0  0  0  0  0  0  0  0  0  0  0
   -7.5961  -20.2734   29.5508 H   0  0  0  0  0  0  0  0  0  0  0  0
  -10.5692  -20.5491   29.0304 H   0  0  0  0  0  0  0  0  0  0  0  0
  -10.3849  -12.0070   30.8607 H   0  0  0  0  0  0  0  0  0  0  0  0
   -9.9839  -13.1861   31.7974 H   0  0  0  0  0  0  0  0  0  0  0  0
  -12.2875  -14.5085   30.8541 H   0  0  0  0  0  0  0  0  0  0  0  0
  -12.8149  -13.2335   30.1293 H   0  0  0  0  0  0  0  0  0  0  0  0
  -10.0297  -10.8123   26.9584 H   0  0  0  0  0  0  0  0  0  0  0  0
  -12.7437  -13.6187   25.1485 H   0  0  0  0  0  0  0  0  0  0  0  0
   -9.6551  -25.2925   33.8693 H   0  0  0  0  0  0  0  0  0  0  0  0
  -11.1411  -18.1659   28.6420 H   0  0  0  0  0  0  0  0  0  0  0  0
   -9.4035  -17.1339   32.4542 H   0  0  0  0  0  0  0  0  0  0  0  0
   -8.9191  -27.5317   34.6538 H   0  0  0  0  0  0  0  0  0  0  0  0
  -10.0182   -9.4686   24.8577 H   0  0  0  0  0  0  0  0  0  0  0  0
  -12.7416  -12.2538   23.0579 H   0  0  0  0  0  0  0  0  0  0  0  0
   -7.1257  -28.7469   33.4659 H   0  0  0  0  0  0  0  0  0  0  0  0
   -5.8221  -21.4803   28.2530 H   0  0  0  0  0  0  0  0  0  0  0  0
  -12.1933  -13.6377   27.5891 H   0  0  0  0  0  0  0  0  0  0  0  0
  1  4  1  0
  1  6  1  0
  2 10  1  0
  2 23  1  0
  3  4  1  0
  3 29  2  0
  4  5  2  0
  5 18  1  0
  5 35  1  0
  6  7  2  0
  6 33  1  0
  7 19  1  0
  7 35  1  0
  8 19  2  0
  8 30  1  0
  9 20  2  0
  9 21  1  0
 10 21  2  0
 10 22  1  0
 11 20  1  0
 11 22  2  0
 11 31  1  0
 12 14  1  0
 12 24  1  0
 24 13  1  6
 13 34  1  0
 13 38  2  0
 14 24  1  0
 15 26  2  0
 15 27  1  0
 16 27  2  0
 16 28  1  0
 16 32  1  0
 17 26  1  0
 17 28  2  0
 18 25  2  0
 19 36  1  0
 20 36  1  0
 23 24  1  0
 23 37  2  0
 25 29  1  0
 26 34  1  0
 30 33  2  0
  1 39  1  0
  2 40  1  0
  3 41  1  0
  8 42  1  0
  9 43  1  0
 12 44  1  0
 12 45  1  0
 14 46  1  0
 14 47  1  0
 15 48  1  0
 17 49  1  0
 18 50  1  0
 21 51  1  0
 22 52  1  0
 25 53  1  0
 27 54  1  0
 28 55  1  0
 29 56  1  0
 30 57  1  0
 34 58  1  0
M  END
>  <filename_input>  (10) 
7V3S_5I9_docked.sdf

>  <pdb_id>  (10) 
7V3S_5I9

>  <pose_rank>  (10) 
9

>  <num_atoms_heavy>  (10) 
38

>  <num_torsions>  (10) 
6

>  <pose>  (10) 
[-10.306605870171593, -19.79152642740814, 29.783421237593814, 0.11571078415466579, 0.46270768920697614, -0.0037085947125171104, 1.4044023508378496, 3.7471808006421075, -1.469597725632601, -1.3049275119186554, 2.584296876759414, 0.3181875519241616]

>  <energy>  (10) 
-731.3774753904819

>  <inter_energy>  (10) 
-773.0691091860434

>  <intra_energy>  (10) 
36.31860834546167

>  <rmsd>  (10) 
3.12794

>  <sdf_rank>  (10) 
0

$$$$

     RDKit          3D

 58 63  0  0  0  0  0  0  0  0999 V2000
   -6.3726  -26.0331   30.8427 N   0  0  0  0  0  0  0  0  0  0  0  0
   -9.7025  -16.6489   31.4098 N   0  0  0  0  0  0  0  0  0  0  0  0
   -6.8725  -27.9176   32.2726 C   0  0  0  0  0  0  0  0  0  0  0  0
   -7.1731  -26.6422   31.7864 C   0  0  0  0  0  0  0  0  0  0  0  0
   -8.3125  -25.9844   32.2637 C   0  0  0  0  0  0  0  0  0  0  0  0
   -6.5069  -24.5985   30.7713 C   0  0  0  0  0  0  0  0  0  0  0  0
   -7.9708  -24.2513   30.6584 C   0  0  0  0  0  0  0  0  0  0  0  0
   -7.0965  -22.0185   29.9796 C   0  0  0  0  0  0  0  0  0  0  0  0
  -10.0693  -20.1207   30.2332 C   0  0  0  0  0  0  0  0  0  0  0  0
   -9.5465  -18.0622   31.3641 C   0  0  0  0  0  0  0  0  0  0  0  0
   -8.7340  -20.1397   32.2000 C   0  0  0  0  0  0  0  0  0  0  0  0
   -9.3571  -14.0349   32.0658 C   0  0  0  0  0  0  0  0  0  0  0  0
   -9.9089  -13.3757   29.6103 C   0  0  0  0  0  0  0  0  0  0  0  0
  -10.8378  -13.9677   31.9843 C   0  0  0  0  0  0  0  0  0  0  0  0
  -11.2160  -12.7465   26.4313 C   0  0  0  0  0  0  0  0  0  0  0  0
  -10.9607  -10.5458   25.6172 C   0  0  0  0  0  0  0  0  0  0  0  0
  -10.7271  -10.9492   27.9391 C   0  0  0  0  0  0  0  0  0  0  0  0
   -9.1318  -26.5835   33.2113 C   0  0  0  0  0  0  0  0  0  0  0  0
   -8.0797  -22.7587   30.5682 C   0  0  0  0  0  0  0  0  0  0  0  0
   -9.3347  -20.8254   31.1689 C   0  0  0  0  0  0  0  0  0  0  0  0
  -10.1760  -18.7436   30.3306 C   0  0  0  0  0  0  0  0  0  0  0  0
   -8.8229  -18.7756   32.3154 C   0  0  0  0  0  0  0  0  0  0  0  0
  -10.0373  -15.8327   30.3954 C   0  0  0  0  0  0  0  0  0  0  0  0
  -10.0445  -14.3689   30.7381 C   0  0  2  0  0  0  0  0  0  0  0  0
   -8.8040  -27.8392   33.6849 C   0  0  0  0  0  0  0  0  0  0  0  0
  -11.0042  -12.2922   27.7255 C   0  0  0  0  0  0  0  0  0  0  0  0
  -11.2125  -11.8629   25.3656 C   0  0  0  0  0  0  0  0  0  0  0  0
  -10.7167  -10.0632   26.8729 C   0  0  0  0  0  0  0  0  0  0  0  0
   -7.6824  -28.4966   33.2164 C   0  0  0  0  0  0  0  0  0  0  0  0
   -5.9336  -22.6741   29.5027 C   0  0  0  0  0  0  0  0  0  0  0  0
   -8.0337  -20.8377   33.1225 F   0  0  0  0  0  0  0  0  0  0  0  0
  -10.9454   -9.6790   24.5699 F   0  0  0  0  0  0  0  0  0  0  0  0
   -5.7029  -23.9494   29.7212 N   0  0  0  0  0  0  0  0  0  0  0  0
  -10.9690  -13.2234   28.8014 N   0  0  0  0  0  0  0  0  0  0  0  0
   -8.6766  -24.7294   31.8257 O   0  0  0  0  0  0  0  0  0  0  0  0
   -9.2521  -22.2125   31.0947 O   0  0  0  0  0  0  0  0  0  0  0  0
  -10.3357  -16.2162   29.2765 O   0  0  0  0  0  0  0  0  0  0  0  0
   -8.8879  -12.7220   29.4761 O   0  0  0  0  0  0  0  0  0  0  0  0
   -5.7291  -26.5613   30.2362 H   0  0  0  0  0  0  0  0  0  0  0  0
   -9.5407  -16.2006   32.3228 H   0  0  0  0  0  0  0  0  0  0  0  0
   -5.9888  -28.4558   31.8993 H   0  0  0  0  0  0  0  0  0  0  0  0
   -7.2046  -20.9287   29.8764 H   0  0  0  0  0  0  0  0  0  0  0  0
  -10.5690  -20.6542   29.4112 H   0  0  0  0  0  0  0  0  0  0  0  0
   -8.7716  -13.1086   32.1611 H   0  0  0  0  0  0  0  0  0  0  0  0
   -8.6427  -14.5581   32.7184 H   0  0  0  0  0  0  0  0  0  0  0  0
  -11.4492  -14.7170   32.5084 H   0  0  0  0  0  0  0  0  0  0  0  0
  -11.5885  -13.1946   32.2054 H   0  0  0  0  0  0  0  0  0  0  0  0
  -11.3881  -13.8178   26.2508 H   0  0  0  0  0  0  0  0  0  0  0  0
  -10.5155  -10.5871   28.9560 H   0  0  0  0  0  0  0  0  0  0  0  0
  -10.0294  -26.0654   33.5799 H   0  0  0  0  0  0  0  0  0  0  0  0
  -10.7625  -18.1863   29.5853 H   0  0  0  0  0  0  0  0  0  0  0  0
   -8.3294  -18.2529   33.1480 H   0  0  0  0  0  0  0  0  0  0  0  0
   -9.4414  -28.3200   34.4415 H   0  0  0  0  0  0  0  0  0  0  0  0
  -11.4078  -12.2139   24.3415 H   0  0  0  0  0  0  0  0  0  0  0  0
  -10.5161   -8.9937   27.0339 H   0  0  0  0  0  0  0  0  0  0  0  0
   -7.4361  -29.4959   33.6048 H   0  0  0  0  0  0  0  0  0  0  0  0
   -5.1967  -22.0936   28.9283 H   0  0  0  0  0  0  0  0  0  0  0  0
  -11.7992  -13.8100   28.9677 H   0  0  0  0  0  0  0  0  0  0  0  0
  1  4  1  0
  1  6  1  0
  2 10  1  0
  2 23  1  0
  3  4  1  0
  3 29  2  0
  4  5  2  0
  5 18  1  0
  5 35  1  0
  6  7  2  0
  6 33  1  0
  7 19  1  0
  7 35  1  0
  8 19  2  0
  8 30  1  0
  9 20  2  0
  9 21  1  0
 10 21  2  0
 10 22  1  0
 11 20  1  0
 11 22  2  0
 11 31  1  0
 12 14  1  0
 12 24  1  0
 24 13  1  6
 13 34  1  0
 13 38  2  0
 14 24  1  0
 15 26  2  0
 15 27  1  0
 16 27  2  0
 16 28  1  0
 16 32  1  0
 17 26  1  0
 17 28  2  0
 18 25  2  0
 19 36  1  0
 20 36  1  0
 23 24  1  0
 23 37  2  0
 25 29  1  0
 26 34  1  0
 30 33  2  0
  1 39  1  0
  2 40  1  0
  3 41  1  0
  8 42  1  0
  9 43  1  0
 12 44  1  0
 12 45  1  0
 14 46  1  0
 14 47  1  0
 15 48  1  0
 17 49  1  0
 18 50  1  0
 21 51  1  0
 22 52  1  0
 25 53  1  0
 27 54  1  0
 28 55  1  0
 29 56  1  0
 30 57  1  0
 34 58  1  0
M  END
>  <filename_input>  (11) 
7V3S_5I9_docked.sdf

>  <pdb_id>  (11) 
7V3S_5I9

>  <pose_rank>  (11) 
10

>  <num_atoms_heavy>  (11) 
38

>  <num_torsions>  (11) 
6

>  <pose>  (11) 
[-10.069258416339151, -20.120685953411627, 30.23322768957069, -2.7265771578909113, -4.7469071280697275, 0.9695267378489467, -3.6649068414528605, -3.5825993592411645, 4.341803799887484, 1.3080699418348336, -3.2087634010896924, -18.836882749017423]

>  <energy>  (11) 
-628.9363263587252

>  <inter_energy>  (11) 
-678.6476691808124

>  <intra_energy>  (11) 
48.157245228570446

>  <rmsd>  (11) 
3.89322

>  <sdf_rank>  (11) 
0

$$$$

     RDKit          3D

 58 63  0  0  0  0  0  0  0  0999 V2000
  -10.4073   -9.6079   28.5770 N   0  0  0  0  0  0  0  0  0  0  0  0
   -9.8213  -19.3917   30.7321 N   0  0  0  0  0  0  0  0  0  0  0  0
  -10.1961   -8.3439   26.5267 C   0  0  0  0  0  0  0  0  0  0  0  0
  -10.2732   -9.5635   27.2049 C   0  0  0  0  0  0  0  0  0  0  0  0
  -10.2226  -10.7537   26.4703 C   0  0  0  0  0  0  0  0  0  0  0  0
  -10.0166  -10.8578   29.1823 C   0  0  0  0  0  0  0  0  0  0  0  0
  -10.7051  -11.9870   28.4562 C   0  0  0  0  0  0  0  0  0  0  0  0
  -10.0116  -13.3125   30.4492 C   0  0  0  0  0  0  0  0  0  0  0  0
  -10.3168  -15.7740   30.2437 C   0  0  0  0  0  0  0  0  0  0  0  0
   -9.9085  -18.1384   30.0646 C   0  0  0  0  0  0  0  0  0  0  0  0
   -9.8466  -16.7519   28.1285 C   0  0  0  0  0  0  0  0  0  0  0  0
  -11.5110  -22.1097   32.2179 C   0  0  0  0  0  0  0  0  0  0  0  0
   -9.2956  -22.6934   30.9851 C   0  0  0  0  0  0  0  0  0  0  0  0
  -10.4418  -21.3589   32.9228 C   0  0  0  0  0  0  0  0  0  0  0  0
   -9.2067  -26.1711   30.5733 C   0  0  0  0  0  0  0  0  0  0  0  0
   -7.0899  -27.2140   30.5219 C   0  0  0  0  0  0  0  0  0  0  0  0
   -7.2728  -25.0222   31.3999 C   0  0  0  0  0  0  0  0  0  0  0  0
  -10.0911  -10.7282   25.0882 C   0  0  0  0  0  0  0  0  0  0  0  0
  -10.2961  -13.2697   29.1157 C   0  0  0  0  0  0  0  0  0  0  0  0
  -10.1240  -15.6339   28.8818 C   0  0  0  0  0  0  0  0  0  0  0  0
  -10.2105  -17.0221   30.8336 C   0  0  0  0  0  0  0  0  0  0  0  0
   -9.7331  -17.9980   28.6910 C   0  0  0  0  0  0  0  0  0  0  0  0
  -10.5562  -20.4927   30.4978 C   0  0  0  0  0  0  0  0  0  0  0  0
  -10.2849  -21.6432   31.4268 C   0  0  2  0  0  0  0  0  0  0  0  0
  -10.0035   -9.5091   24.4443 C   0  0  0  0  0  0  0  0  0  0  0  0
   -8.6318  -25.0317   31.1189 C   0  0  0  0  0  0  0  0  0  0  0  0
   -8.4265  -27.2692   30.2538 C   0  0  0  0  0  0  0  0  0  0  0  0
   -6.4903  -26.1229   31.0869 C   0  0  0  0  0  0  0  0  0  0  0  0
  -10.0558   -8.3294   25.1621 C   0  0  0  0  0  0  0  0  0  0  0  0
  -10.0495  -12.1106   31.1999 C   0  0  0  0  0  0  0  0  0  0  0  0
   -9.6787  -16.6102   26.7942 F   0  0  0  0  0  0  0  0  0  0  0  0
   -6.3247  -28.2964   30.2194 F   0  0  0  0  0  0  0  0  0  0  0  0
  -10.2190  -10.9339   30.6396 N   0  0  0  0  0  0  0  0  0  0  0  0
   -9.4581  -23.9303   31.4799 N   0  0  0  0  0  0  0  0  0  0  0  0
  -10.3002  -11.9928   27.0685 O   0  0  0  0  0  0  0  0  0  0  0  0
  -10.2627  -14.3873   28.2791 O   0  0  0  0  0  0  0  0  0  0  0  0
  -11.3751  -20.5922   29.5991 O   0  0  0  0  0  0  0  0  0  0  0  0
   -8.4158  -22.4223   30.1850 O   0  0  0  0  0  0  0  0  0  0  0  0
  -10.7590   -8.8109   29.1265 H   0  0  0  0  0  0  0  0  0  0  0  0
   -9.1157  -19.4636   31.4790 H   0  0  0  0  0  0  0  0  0  0  0  0
  -10.2479   -7.3980   27.0857 H   0  0  0  0  0  0  0  0  0  0  0  0
   -9.7566  -14.2659   30.9350 H   0  0  0  0  0  0  0  0  0  0  0  0
  -10.5547  -14.8936   30.8588 H   0  0  0  0  0  0  0  0  0  0  0  0
  -11.6545  -23.1806   32.4238 H   0  0  0  0  0  0  0  0  0  0  0  0
  -12.5976  -21.9820   32.1042 H   0  0  0  0  0  0  0  0  0  0  0  0
  -10.6309  -20.3315   33.2675 H   0  0  0  0  0  0  0  0  0  0  0  0
   -9.8243  -21.5484   33.8132 H   0  0  0  0  0  0  0  0  0  0  0  0
  -10.2914  -26.2018   30.3933 H   0  0  0  0  0  0  0  0  0  0  0  0
   -6.8158  -24.1399   31.8719 H   0  0  0  0  0  0  0  0  0  0  0  0
  -10.0572  -11.6658   24.5139 H   0  0  0  0  0  0  0  0  0  0  0  0
  -10.3662  -17.1301   31.9172 H   0  0  0  0  0  0  0  0  0  0  0  0
   -9.5068  -18.8738   28.0652 H   0  0  0  0  0  0  0  0  0  0  0  0
   -9.8911   -9.4772   23.3505 H   0  0  0  0  0  0  0  0  0  0  0  0
   -8.8731  -28.1638   29.7953 H   0  0  0  0  0  0  0  0  0  0  0  0
   -5.4091  -26.1185   31.2889 H   0  0  0  0  0  0  0  0  0  0  0  0
   -9.9841   -7.3676   24.6332 H   0  0  0  0  0  0  0  0  0  0  0  0
   -9.9326  -12.1649   32.2923 H   0  0  0  0  0  0  0  0  0  0  0  0
  -10.2193  -24.0908   32.1550 H   0  0  0  0  0  0  0  0  0  0  0  0
  1  4  1  0
  1  6  1  0
  2 10  1  0
  2 23  1  0
  3  4  1  0
  3 29  2  0
  4  5  2  0
  5 18  1  0
  5 35  1  0
  6  7  2  0
  6 33  1  0
  7 19  1  0
  7 35  1  0
  8 19  2  0
  8 30  1  0
  9 20  2  0
  9 21  1  0
 10 21  2  0
 10 22  1  0
 11 20  1  0
 11 22  2  0
 11 31  1  0
 12 14  1  0
 12 24  1  0
 24 13  1  1
 13 34  1  0
 13 38  2  0
 14 24  1  0
 15 26  2  0
 15 27  1  0
 16 27  2  0
 16 28  1  0
 16 32  1  0
 17 26  1  0
 17 28  2  0
 18 25  2  0
 19 36  1  0
 20 36  1  0
 23 24  1  0
 23 37  2  0
 25 29  1  0
 26 34  1  0
 30 33  2  0
  1 39  1  0
  2 40  1  0
  3 41  1  0
  8 42  1  0
  9 43  1  0
 12 44  1  0
 12 45  1  0
 14 46  1  0
 14 47  1  0
 15 48  1  0
 17 49  1  0
 18 50  1  0
 21 51  1  0
 22 52  1  0
 25 53  1  0
 27 54  1  0
 28 55  1  0
 29 56  1  0
 30 57  1  0
 34 58  1  0
M  END
>  <filename_input>  (12) 
7V3S_5I9_docked.sdf

>  <pdb_id>  (12) 
7V3S_5I9

>  <pose_rank>  (12) 
11

>  <num_atoms_heavy>  (12) 
38

>  <num_torsions>  (12) 
6

>  <pose>  (12) 
[-10.316824893855763, -15.773957271254925, 30.24372573614637, -3.1918095105118964, -0.4260896628895923, -0.22098651228129088, 5.093465091776114, 4.570315311513861, 0.41431518960365404, -2.9412431186705703, 1.5424770209773775, -5.954496938601953]

>  <energy>  (12) 
-698.7936779918906

>  <inter_energy>  (12) 
-766.7738266242528

>  <intra_energy>  (12) 
64.69623633485328

>  <rmsd>  (12) 
12.184

>  <sdf_rank>  (12) 
0

$$$$

     RDKit          3D

 58 63  0  0  0  0  0  0  0  0999 V2000
  -11.2467  -21.9343   30.8207 N   0  0  0  0  0  0  0  0  0  0  0  0
   -9.7948  -12.2712   28.8815 N   0  0  0  0  0  0  0  0  0  0  0  0
   -9.7183  -23.8060   30.8996 C   0  0  0  0  0  0  0  0  0  0  0  0
   -9.9611  -22.4297   30.8852 C   0  0  0  0  0  0  0  0  0  0  0  0
   -8.8761  -21.5478   30.9475 C   0  0  0  0  0  0  0  0  0  0  0  0
  -11.3471  -20.5729   30.3540 C   0  0  0  0  0  0  0  0  0  0  0  0
  -10.3920  -19.7147   31.1462 C   0  0  0  0  0  0  0  0  0  0  0  0
  -11.7221  -17.8416   30.1806 C   0  0  0  0  0  0  0  0  0  0  0  0
   -9.4791  -15.9411   28.9398 C   0  0  0  0  0  0  0  0  0  0  0  0
   -9.6749  -13.5885   29.4049 C   0  0  0  0  0  0  0  0  0  0  0  0
   -9.5599  -15.1664   31.1859 C   0  0  0  0  0  0  0  0  0  0  0  0
  -11.3624   -9.6599   27.8759 C   0  0  0  0  0  0  0  0  0  0  0  0
   -8.8029   -9.7608   27.4208 C   0  0  0  0  0  0  0  0  0  0  0  0
  -11.2163   -9.8927   26.4171 C   0  0  0  0  0  0  0  0  0  0  0  0
   -7.2462   -6.9734   25.6031 C   0  0  0  0  0  0  0  0  0  0  0  0
   -5.0829   -6.5236   26.4329 C   0  0  0  0  0  0  0  0  0  0  0  0
   -6.3838   -8.2125   27.4642 C   0  0  0  0  0  0  0  0  0  0  0  0
   -7.5753  -22.0286   31.0162 C   0  0  0  0  0  0  0  0  0  0  0  0
  -10.5295  -18.3054   30.6538 C   0  0  0  0  0  0  0  0  0  0  0  0
   -9.4536  -16.2107   30.2956 C   0  0  0  0  0  0  0  0  0  0  0  0
   -9.5905  -14.6345   28.4953 C   0  0  0  0  0  0  0  0  0  0  0  0
   -9.6677  -13.8638   30.7693 C   0  0  0  0  0  0  0  0  0  0  0  0
  -10.2052  -11.9172   27.6512 C   0  0  0  0  0  0  0  0  0  0  0  0
  -10.1481  -10.4422   27.3659 C   0  0  2  0  0  0  0  0  0  0  0  0
   -7.3629  -23.3937   31.0153 C   0  0  0  0  0  0  0  0  0  0  0  0
   -7.4217   -7.9391   26.5844 C   0  0  0  0  0  0  0  0  0  0  0  0
   -6.0717   -6.2438   25.5354 C   0  0  0  0  0  0  0  0  0  0  0  0
   -5.2041   -7.4877   27.3946 C   0  0  0  0  0  0  0  0  0  0  0  0
   -8.4290  -24.2711   30.9571 C   0  0  0  0  0  0  0  0  0  0  0  0
  -12.8241  -18.7298   30.1033 C   0  0  0  0  0  0  0  0  0  0  0  0
   -9.5540  -15.4394   32.5103 F   0  0  0  0  0  0  0  0  0  0  0  0
   -3.9244   -5.8157   26.3599 F   0  0  0  0  0  0  0  0  0  0  0  0
  -12.7113  -20.0168   30.3450 N   0  0  0  0  0  0  0  0  0  0  0  0
   -8.6195   -8.7076   26.6094 N   0  0  0  0  0  0  0  0  0  0  0  0
   -9.0379  -20.1792   30.9452 O   0  0  0  0  0  0  0  0  0  0  0  0
   -9.3756  -17.5245   30.7475 O   0  0  0  0  0  0  0  0  0  0  0  0
  -10.6155  -12.7025   26.8128 O   0  0  0  0  0  0  0  0  0  0  0  0
   -7.9445  -10.1400   28.2001 O   0  0  0  0  0  0  0  0  0  0  0  0
  -12.0708  -22.4927   31.0851 H   0  0  0  0  0  0  0  0  0  0  0  0
   -9.5383  -11.5020   29.5166 H   0  0  0  0  0  0  0  0  0  0  0  0
  -10.5590  -24.5146   30.8651 H   0  0  0  0  0  0  0  0  0  0  0  0
  -11.8270  -16.7934   29.8637 H   0  0  0  0  0  0  0  0  0  0  0  0
   -9.4110  -16.7649   28.2140 H   0  0  0  0  0  0  0  0  0  0  0  0
  -11.2290   -8.6474   28.2847 H   0  0  0  0  0  0  0  0  0  0  0  0
  -12.1539   -9.8577   28.6139 H   0  0  0  0  0  0  0  0  0  0  0  0
  -11.8991  -10.5847   25.9024 H   0  0  0  0  0  0  0  0  0  0  0  0
  -11.1996   -9.2426   25.5299 H   0  0  0  0  0  0  0  0  0  0  0  0
   -8.0473   -6.7863   24.8728 H   0  0  0  0  0  0  0  0  0  0  0  0
   -6.4974   -9.0056   28.2179 H   0  0  0  0  0  0  0  0  0  0  0  0
   -6.7256  -21.3322   31.0705 H   0  0  0  0  0  0  0  0  0  0  0  0
   -9.6121  -14.4239   27.4158 H   0  0  0  0  0  0  0  0  0  0  0  0
   -9.7474  -13.0483   31.5032 H   0  0  0  0  0  0  0  0  0  0  0  0
   -6.3361  -23.7857   31.0612 H   0  0  0  0  0  0  0  0  0  0  0  0
   -5.9390   -5.4580   24.7771 H   0  0  0  0  0  0  0  0  0  0  0  0
   -4.3823   -7.6842   28.0990 H   0  0  0  0  0  0  0  0  0  0  0  0
   -8.2415  -25.3550   30.9568 H   0  0  0  0  0  0  0  0  0  0  0  0
  -13.8107  -18.3269   29.8307 H   0  0  0  0  0  0  0  0  0  0  0  0
   -9.3842   -8.4420   25.9726 H   0  0  0  0  0  0  0  0  0  0  0  0
  1  4  1  0
  1  6  1  0
  2 10  1  0
  2 23  1  0
  3  4  1  0
  3 29  2  0
  4  5  2  0
  5 18  1  0
  5 35  1  0
  6  7  2  0
  6 33  1  0
  7 19  1  0
  7 35  1  0
  8 19  2  0
  8 30  1  0
  9 20  2  0
  9 21  1  0
 10 21  2  0
 10 22  1  0
 11 20  1  0
 11 22  2  0
 11 31  1  0
 12 14  1  0
 12 24  1  0
 24 13  1  6
 13 34  1  0
 13 38  2  0
 14 24  1  0
 15 26  2  0
 15 27  1  0
 16 27  2  0
 16 28  1  0
 16 32  1  0
 17 26  1  0
 17 28  2  0
 18 25  2  0
 19 36  1  0
 20 36  1  0
 23 24  1  0
 23 37  2  0
 25 29  1  0
 26 34  1  0
 30 33  2  0
  1 39  1  0
  2 40  1  0
  3 41  1  0
  8 42  1  0
  9 43  1  0
 12 44  1  0
 12 45  1  0
 14 46  1  0
 14 47  1  0
 15 48  1  0
 17 49  1  0
 18 50  1  0
 21 51  1  0
 22 52  1  0
 25 53  1  0
 27 54  1  0
 28 55  1  0
 29 56  1  0
 30 57  1  0
 34 58  1  0
M  END
>  <filename_input>  (13) 
7V3S_5I9_docked.sdf

>  <pdb_id>  (13) 
7V3S_5I9

>  <pose_rank>  (13) 
12

>  <num_atoms_heavy>  (13) 
38

>  <num_torsions>  (13) 
6

>  <pose>  (13) 
[-9.479141191947933, -15.941139552215764, 28.939789156225128, 4.273506928523207, -2.0007769134554363, -4.218347905331332, -2.9382949087520593, -5.27333300528289, -6.88358415996714, 2.19748951696558, -18.856554946751334, 0.1281373188323175]

>  <energy>  (13) 
-1057.9413873307246

>  <inter_energy>  (13) 
-1140.9949332197066

>  <intra_energy>  (13) 
75.19740375134434

>  <rmsd>  (13) 
3.79502

>  <sdf_rank>  (13) 
0

$$$$

     RDKit          3D

 58 63  0  0  0  0  0  0  0  0999 V2000
  -11.2648  -16.8077   29.1772 N   0  0  0  0  0  0  0  0  0  0  0  0
   -4.6913  -22.0055   31.1987 N   0  0  0  0  0  0  0  0  0  0  0  0
  -10.4167  -14.5439   29.1352 C   0  0  0  0  0  0  0  0  0  0  0  0
  -10.4339  -15.8296   29.6828 C   0  0  0  0  0  0  0  0  0  0  0  0
   -9.5834  -16.1228   30.7549 C   0  0  0  0  0  0  0  0  0  0  0  0
  -11.5305  -17.9010   30.0801 C   0  0  0  0  0  0  0  0  0  0  0  0
  -10.2191  -18.4194   30.6166 C   0  0  0  0  0  0  0  0  0  0  0  0
  -11.6038  -20.3681   31.3206 C   0  0  0  0  0  0  0  0  0  0  0  0
   -8.3134  -21.5753   31.7149 C   0  0  0  0  0  0  0  0  0  0  0  0
   -5.9179  -21.3943   31.5800 C   0  0  0  0  0  0  0  0  0  0  0  0
   -7.2183  -19.5962   32.4466 C   0  0  0  0  0  0  0  0  0  0  0  0
   -2.2678  -23.7519   31.3744 C   0  0  0  0  0  0  0  0  0  0  0  0
   -2.0455  -22.2164   29.2860 C   0  0  0  0  0  0  0  0  0  0  0  0
   -1.2309  -22.7459   31.7161 C   0  0  0  0  0  0  0  0  0  0  0  0
   -0.2185  -20.4962   27.1092 C   0  0  0  0  0  0  0  0  0  0  0  0
   -0.8663  -20.0294   24.8881 C   0  0  0  0  0  0  0  0  0  0  0  0
   -2.5359  -20.5038   26.4991 C   0  0  0  0  0  0  0  0  0  0  0  0
   -8.7379  -15.1517   31.2747 C   0  0  0  0  0  0  0  0  0  0  0  0
  -10.5231  -19.5638   31.5362 C   0  0  0  0  0  0  0  0  0  0  0  0
   -8.3817  -20.3091   32.2659 C   0  0  0  0  0  0  0  0  0  0  0  0
   -7.0859  -22.1163   31.3719 C   0  0  0  0  0  0  0  0  0  0  0  0
   -5.9906  -20.1124   32.1176 C   0  0  0  0  0  0  0  0  0  0  0  0
   -3.4530  -21.4984   31.3287 C   0  0  0  0  0  0  0  0  0  0  0  0
   -2.3567  -22.3531   30.7560 C   0  0  2  0  0  0  0  0  0  0  0  0
   -8.7508  -13.8851   30.7233 C   0  0  0  0  0  0  0  0  0  0  0  0
   -1.5483  -20.6897   27.4562 C   0  0  0  0  0  0  0  0  0  0  0  0
    0.1306  -20.1800   25.8074 C   0  0  0  0  0  0  0  0  0  0  0  0
   -2.1896  -20.1809   25.1962 C   0  0  0  0  0  0  0  0  0  0  0  0
   -9.5853  -13.5885   29.6626 C   0  0  0  0  0  0  0  0  0  0  0  0
  -12.4773  -20.0731   30.2439 C   0  0  0  0  0  0  0  0  0  0  0  0
   -7.2945  -18.3507   32.9677 F   0  0  0  0  0  0  0  0  0  0  0  0
   -0.5254  -19.7073   23.6119 F   0  0  0  0  0  0  0  0  0  0  0  0
  -12.3642  -18.9802   29.5227 N   0  0  0  0  0  0  0  0  0  0  0  0
   -1.8888  -20.9717   28.8092 N   0  0  0  0  0  0  0  0  0  0  0  0
   -9.5396  -17.3693   31.3412 O   0  0  0  0  0  0  0  0  0  0  0  0
   -9.6153  -19.7478   32.5813 O   0  0  0  0  0  0  0  0  0  0  0  0
   -3.2000  -20.4395   31.8789 O   0  0  0  0  0  0  0  0  0  0  0  0
   -1.9093  -23.2048   28.5841 O   0  0  0  0  0  0  0  0  0  0  0  0
  -11.6644  -16.7610   28.2290 H   0  0  0  0  0  0  0  0  0  0  0  0
   -4.7595  -22.9419   30.7752 H   0  0  0  0  0  0  0  0  0  0  0  0
  -11.0681  -14.2985   28.2835 H   0  0  0  0  0  0  0  0  0  0  0  0
  -11.7945  -21.2330   31.9730 H   0  0  0  0  0  0  0  0  0  0  0  0
   -9.2346  -22.1532   31.5490 H   0  0  0  0  0  0  0  0  0  0  0  0
   -2.0069  -24.6139   30.7428 H   0  0  0  0  0  0  0  0  0  0  0  0
   -2.9537  -24.3827   31.9587 H   0  0  0  0  0  0  0  0  0  0  0  0
   -1.1992  -22.3149   32.7276 H   0  0  0  0  0  0  0  0  0  0  0  0
   -0.1322  -22.7231   31.6674 H   0  0  0  0  0  0  0  0  0  0  0  0
    0.5649  -20.5949   27.8752 H   0  0  0  0  0  0  0  0  0  0  0  0
   -3.5952  -20.6129   26.7748 H   0  0  0  0  0  0  0  0  0  0  0  0
   -8.0671  -15.3878   32.1139 H   0  0  0  0  0  0  0  0  0  0  0  0
   -7.0355  -23.1234   30.9323 H   0  0  0  0  0  0  0  0  0  0  0  0
   -5.0764  -19.5216   32.2764 H   0  0  0  0  0  0  0  0  0  0  0  0
   -8.0909  -13.1058   31.1323 H   0  0  0  0  0  0  0  0  0  0  0  0
    1.1852  -20.0533   25.5214 H   0  0  0  0  0  0  0  0  0  0  0  0
   -2.9638  -20.0492   24.4259 H   0  0  0  0  0  0  0  0  0  0  0  0
   -9.5829  -12.5746   29.2361 H   0  0  0  0  0  0  0  0  0  0  0  0
  -13.2799  -20.7857   30.0029 H   0  0  0  0  0  0  0  0  0  0  0  0
   -2.0217  -20.1804   29.4550 H   0  0  0  0  0  0  0  0  0  0  0  0
  1  4  1  0
  1  6  1  0
  2 10  1  0
  2 23  1  0
  3  4  1  0
  3 29  2  0
  4  5  2  0
  5 18  1  0
  5 35  1  0
  6  7  2  0
  6 33  1  0
  7 19  1  0
  7 35  1  0
  8 19  2  0
  8 30  1  0
  9 20  2  0
  9 21  1  0
 10 21  2  0
 10 22  1  0
 11 20  1  0
 11 22  2  0
 11 31  1  0
 12 14  1  0
 12 24  1  0
 24 13  1  6
 13 34  1  0
 13 38  2  0
 14 24  1  0
 15 26  2  0
 15 27  1  0
 16 27  2  0
 16 28  1  0
 16 32  1  0
 17 26  1  0
 17 28  2  0
 18 25  2  0
 19 36  1  0
 20 36  1  0
 23 24  1  0
 23 37  2  0
 25 29  1  0
 26 34  1  0
 30 33  2  0
  1 39  1  0
  2 40  1  0
  3 41  1  0
  8 42  1  0
  9 43  1  0
 12 44  1  0
 12 45  1  0
 14 46  1  0
 14 47  1  0
 15 48  1  0
 17 49  1  0
 18 50  1  0
 21 51  1  0
 22 52  1  0
 25 53  1  0
 27 54  1  0
 28 55  1  0
 29 56  1  0
 30 57  1  0
 34 58  1  0
M  END
>  <filename_input>  (14) 
7V3S_5I9_docked.sdf

>  <pdb_id>  (14) 
7V3S_5I9

>  <pose_rank>  (14) 
13

>  <num_atoms_heavy>  (14) 
38

>  <num_torsions>  (14) 
6

>  <pose>  (14) 
[-8.313448161719686, -21.575343601719354, 31.714944959437773, -1.0059164829851364, -0.8734152190957288, -1.4548307087822776, -0.12862995519260445, 1.425466349297344, -2.3588599760052893, -2.4545185002219334, 0.23812404939707066, -4.316949377897704]

>  <energy>  (14) 
-620.0474150769169

>  <inter_energy>  (14) 
-649.5372736893328

>  <intra_energy>  (14) 
27.9498128136093

>  <rmsd>  (14) 
9.96876

>  <sdf_rank>  (14) 
0

$$$$

     RDKit          3D

 58 63  0  0  0  0  0  0  0  0999 V2000
   -6.4419  -24.4512   30.5549 N   0  0  0  0  0  0  0  0  0  0  0  0
  -10.8042  -15.9902   29.4781 N   0  0  0  0  0  0  0  0  0  0  0  0
   -7.4174  -26.6377   30.2185 C   0  0  0  0  0  0  0  0  0  0  0  0
   -7.5453  -25.2778   30.5143 C   0  0  0  0  0  0  0  0  0  0  0  0
   -8.8190  -24.7534   30.7621 C   0  0  0  0  0  0  0  0  0  0  0  0
   -6.6285  -23.2303   31.3005 C   0  0  0  0  0  0  0  0  0  0  0  0
   -7.8902  -22.5554   30.8221 C   0  0  0  0  0  0  0  0  0  0  0  0
   -6.9606  -20.5892   32.0387 C   0  0  0  0  0  0  0  0  0  0  0  0
   -9.4853  -18.4665   31.8656 C   0  0  0  0  0  0  0  0  0  0  0  0
  -10.4715  -17.2564   30.0346 C   0  0  0  0  0  0  0  0  0  0  0  0
  -10.3590  -19.6355   29.9890 C   0  0  0  0  0  0  0  0  0  0  0  0
  -11.9427  -13.9821   27.9195 C   0  0  0  0  0  0  0  0  0  0  0  0
  -10.5147  -12.4960   29.5072 C   0  0  0  0  0  0  0  0  0  0  0  0
  -10.7410  -13.5906   27.1409 C   0  0  0  0  0  0  0  0  0  0  0  0
  -10.0122  -10.3270   31.2952 C   0  0  0  0  0  0  0  0  0  0  0  0
   -9.9419   -9.5282   33.5151 C   0  0  0  0  0  0  0  0  0  0  0  0
  -10.4306  -11.8128   33.1282 C   0  0  0  0  0  0  0  0  0  0  0  0
   -9.9415  -25.5698   30.7223 C   0  0  0  0  0  0  0  0  0  0  0  0
   -8.0498  -21.2834   31.5995 C   0  0  0  0  0  0  0  0  0  0  0  0
   -9.7539  -19.6620   31.2250 C   0  0  0  0  0  0  0  0  0  0  0  0
   -9.8418  -17.2673   31.2724 C   0  0  0  0  0  0  0  0  0  0  0  0
  -10.7242  -18.4602   29.3831 C   0  0  0  0  0  0  0  0  0  0  0  0
   -9.9605  -14.9940   29.1571 C   0  0  0  0  0  0  0  0  0  0  0  0
  -10.6236  -13.7397   28.6599 C   0  0  2  0  0  0  0  0  0  0  0  0
   -9.7851  -26.9133   30.4407 C   0  0  0  0  0  0  0  0  0  0  0  0
  -10.3452  -11.5913   31.7609 C   0  0  0  0  0  0  0  0  0  0  0  0
   -9.8255   -9.2779   32.1789 C   0  0  0  0  0  0  0  0  0  0  0  0
  -10.2378  -10.7655   34.0157 C   0  0  0  0  0  0  0  0  0  0  0  0
   -8.5312  -27.4381   30.1918 C   0  0  0  0  0  0  0  0  0  0  0  0
   -5.6666  -21.1174   31.8023 C   0  0  0  0  0  0  0  0  0  0  0  0
  -10.6008  -20.8077   29.3595 F   0  0  0  0  0  0  0  0  0  0  0  0
   -9.7471   -8.5012   34.3845 F   0  0  0  0  0  0  0  0  0  0  0  0
   -5.4751  -22.3136   31.2927 N   0  0  0  0  0  0  0  0  0  0  0  0
  -10.4903  -12.6655   30.8383 N   0  0  0  0  0  0  0  0  0  0  0  0
   -9.0240  -23.4219   31.0528 O   0  0  0  0  0  0  0  0  0  0  0  0
   -9.3676  -20.8681   31.8014 O   0  0  0  0  0  0  0  0  0  0  0  0
   -8.7456  -15.0730   29.2335 O   0  0  0  0  0  0  0  0  0  0  0  0
  -10.4170  -11.3962   28.9887 O   0  0  0  0  0  0  0  0  0  0  0  0
   -5.5540  -24.6872   30.0893 H   0  0  0  0  0  0  0  0  0  0  0  0
  -11.8040  -15.8172   29.3011 H   0  0  0  0  0  0  0  0  0  0  0  0
   -6.4261  -27.0652   30.0075 H   0  0  0  0  0  0  0  0  0  0  0  0
   -7.0848  -19.6333   32.5688 H   0  0  0  0  0  0  0  0  0  0  0  0
   -8.9882  -18.4682   32.8469 H   0  0  0  0  0  0  0  0  0  0  0  0
  -12.7744  -13.2717   28.0364 H   0  0  0  0  0  0  0  0  0  0  0  0
  -12.6575  -14.8166   27.8687 H   0  0  0  0  0  0  0  0  0  0  0  0
  -10.2547  -14.3234   26.4801 H   0  0  0  0  0  0  0  0  0  0  0  0
  -10.5136  -12.7874   26.4245 H   0  0  0  0  0  0  0  0  0  0  0  0
   -9.8957  -10.1571   30.2146 H   0  0  0  0  0  0  0  0  0  0  0  0
  -10.6517  -12.8211   33.5084 H   0  0  0  0  0  0  0  0  0  0  0  0
  -10.9414  -25.1527   30.9123 H   0  0  0  0  0  0  0  0  0  0  0  0
   -9.6251  -16.3181   31.7842 H   0  0  0  0  0  0  0  0  0  0  0  0
  -11.2100  -18.4690   28.3962 H   0  0  0  0  0  0  0  0  0  0  0  0
  -10.6664  -27.5709   30.4145 H   0  0  0  0  0  0  0  0  0  0  0  0
   -9.5891   -8.2678   31.8131 H   0  0  0  0  0  0  0  0  0  0  0  0
  -10.3213  -10.9266   35.1007 H   0  0  0  0  0  0  0  0  0  0  0  0
   -8.4250  -28.5102   29.9698 H   0  0  0  0  0  0  0  0  0  0  0  0
   -4.7898  -20.5030   32.0548 H   0  0  0  0  0  0  0  0  0  0  0  0
  -10.5812  -13.6213   31.2113 H   0  0  0  0  0  0  0  0  0  0  0  0
  1  4  1  0
  1  6  1  0
  2 10  1  0
  2 23  1  0
  3  4  1  0
  3 29  2  0
  4  5  2  0
  5 18  1  0
  5 35  1  0
  6  7  2  0
  6 33  1  0
  7 19  1  0
  7 35  1  0
  8 19  2  0
  8 30  1  0
  9 20  2  0
  9 21  1  0
 10 21  2  0
 10 22  1  0
 11 20  1  0
 11 22  2  0
 11 31  1  0
 12 14  1  0
 12 24  1  0
 24 13  1  1
 13 34  1  0
 13 38  2  0
 14 24  1  0
 15 26  2  0
 15 27  1  0
 16 27  2  0
 16 28  1  0
 16 32  1  0
 17 26  1  0
 17 28  2  0
 18 25  2  0
 19 36  1  0
 20 36  1  0
 23 24  1  0
 23 37  2  0
 25 29  1  0
 26 34  1  0
 30 33  2  0
  1 39  1  0
  2 40  1  0
  3 41  1  0
  8 42  1  0
  9 43  1  0
 12 44  1  0
 12 45  1  0
 14 46  1  0
 14 47  1  0
 15 48  1  0
 17 49  1  0
 18 50  1  0
 21 51  1  0
 22 52  1  0
 25 53  1  0
 27 54  1  0
 28 55  1  0
 29 56  1  0
 30 57  1  0
 34 58  1  0
M  END
>  <filename_input>  (15) 
7V3S_5I9_docked.sdf

>  <pdb_id>  (15) 
7V3S_5I9

>  <pose_rank>  (15) 
14

>  <num_atoms_heavy>  (15) 
38

>  <num_torsions>  (15) 
6

>  <pose>  (15) 
[-9.485321653779891, -18.466531660889277, 31.865610353778372, 0.4755578027945963, -2.4272932465975514, 1.0980656949444123, -2.231209196169207, -4.356005008651746, -3.793007016423977, -0.9786818402055327, -0.15703245199779722, 1.2487129215269464]

>  <energy>  (15) 
-620.0293077430362

>  <inter_energy>  (15) 
-677.0488178490823

>  <intra_energy>  (15) 
44.46904546203668

>  <rmsd>  (15) 
5.27937

>  <sdf_rank>  (15) 
0

$$$$

     RDKit          3D

 58 63  0  0  0  0  0  0  0  0999 V2000
   -7.7708  -22.7640   31.6227 N   0  0  0  0  0  0  0  0  0  0  0  0
   -9.4194  -13.2628   29.4698 N   0  0  0  0  0  0  0  0  0  0  0  0
   -9.1211  -24.7243   31.1991 C   0  0  0  0  0  0  0  0  0  0  0  0
   -8.9805  -23.3368   31.2896 C   0  0  0  0  0  0  0  0  0  0  0  0
  -10.0884  -22.5231   31.0263 C   0  0  0  0  0  0  0  0  0  0  0  0
   -7.8591  -21.4152   32.1268 C   0  0  0  0  0  0  0  0  0  0  0  0
   -8.6921  -20.5929   31.1748 C   0  0  0  0  0  0  0  0  0  0  0  0
   -7.7135  -18.6729   32.4264 C   0  0  0  0  0  0  0  0  0  0  0  0
   -9.7902  -16.9265   29.5750 C   0  0  0  0  0  0  0  0  0  0  0  0
   -9.5269  -14.5746   30.0094 C   0  0  0  0  0  0  0  0  0  0  0  0
   -9.6399  -16.1303   31.8100 C   0  0  0  0  0  0  0  0  0  0  0  0
   -8.9451  -10.1452   29.5275 C   0  0  0  0  0  0  0  0  0  0  0  0
   -9.8731  -11.0854   27.2862 C   0  0  0  0  0  0  0  0  0  0  0  0
  -10.3604   -9.7031   29.4544 C   0  0  0  0  0  0  0  0  0  0  0  0
  -11.9035  -12.0154   24.5434 C   0  0  0  0  0  0  0  0  0  0  0  0
  -11.1752  -11.2018   22.4508 C   0  0  0  0  0  0  0  0  0  0  0  0
  -10.3041  -10.2345   24.4291 C   0  0  0  0  0  0  0  0  0  0  0  0
  -11.3132  -23.0820   30.6864 C   0  0  0  0  0  0  0  0  0  0  0  0
   -8.7524  -19.1948   31.7126 C   0  0  0  0  0  0  0  0  0  0  0  0
   -9.7638  -17.1840   30.9332 C   0  0  0  0  0  0  0  0  0  0  0  0
   -9.6732  -15.6261   29.1141 C   0  0  0  0  0  0  0  0  0  0  0  0
   -9.5192  -14.8342   31.3769 C   0  0  0  0  0  0  0  0  0  0  0  0
  -10.3342  -12.2795   29.5292 C   0  0  0  0  0  0  0  0  0  0  0  0
   -9.9613  -11.0239   28.7912 C   0  0  2  0  0  0  0  0  0  0  0  0
  -11.4280  -24.4570   30.6174 C   0  0  0  0  0  0  0  0  0  0  0  0
  -11.1026  -11.0811   25.1851 C   0  0  0  0  0  0  0  0  0  0  0  0
  -11.9559  -12.0666   23.1609 C   0  0  0  0  0  0  0  0  0  0  0  0
  -10.3498  -10.2879   23.0446 C   0  0  0  0  0  0  0  0  0  0  0  0
  -10.3380  -25.2672   30.8727 C   0  0  0  0  0  0  0  0  0  0  0  0
   -6.5914  -19.4924   32.7076 C   0  0  0  0  0  0  0  0  0  0  0  0
   -9.6347  -16.3877   33.1375 F   0  0  0  0  0  0  0  0  0  0  0  0
  -11.2170  -11.2591   21.0931 F   0  0  0  0  0  0  0  0  0  0  0  0
   -6.5655  -20.7752   32.4227 N   0  0  0  0  0  0  0  0  0  0  0  0
  -11.0304  -11.0740   26.6067 N   0  0  0  0  0  0  0  0  0  0  0  0
  -10.0240  -21.1478   31.0884 O   0  0  0  0  0  0  0  0  0  0  0  0
   -9.9146  -18.4852   31.4028 O   0  0  0  0  0  0  0  0  0  0  0  0
  -11.3871  -12.3586   30.1400 O   0  0  0  0  0  0  0  0  0  0  0  0
   -8.7894  -11.1069   26.7267 O   0  0  0  0  0  0  0  0  0  0  0  0
   -6.8743  -23.2605   31.5195 H   0  0  0  0  0  0  0  0  0  0  0  0
   -8.5417  -13.0413   28.9782 H   0  0  0  0  0  0  0  0  0  0  0  0
   -8.2582  -25.3795   31.3891 H   0  0  0  0  0  0  0  0  0  0  0  0
   -7.7459  -17.6314   32.7786 H   0  0  0  0  0  0  0  0  0  0  0  0
   -9.9042  -17.7550   28.8605 H   0  0  0  0  0  0  0  0  0  0  0  0
   -8.1734   -9.6065   28.9581 H   0  0  0  0  0  0  0  0  0  0  0  0
   -8.2298  -10.3124   30.3462 H   0  0  0  0  0  0  0  0  0  0  0  0
  -10.9839   -9.7124   30.3606 H   0  0  0  0  0  0  0  0  0  0  0  0
  -10.8664   -8.7890   29.1105 H   0  0  0  0  0  0  0  0  0  0  0  0
  -12.5018  -12.7212   25.1383 H   0  0  0  0  0  0  0  0  0  0  0  0
   -9.6339   -9.5199   24.9293 H   0  0  0  0  0  0  0  0  0  0  0  0
  -12.1802  -22.4388   30.4750 H   0  0  0  0  0  0  0  0  0  0  0  0
   -9.6963  -15.4249   28.0329 H   0  0  0  0  0  0  0  0  0  0  0  0
   -9.4178  -14.0116   32.1001 H   0  0  0  0  0  0  0  0  0  0  0  0
  -12.3955  -24.9109   30.3568 H   0  0  0  0  0  0  0  0  0  0  0  0
  -12.6105  -12.7865   22.6478 H   0  0  0  0  0  0  0  0  0  0  0  0
   -9.7344   -9.6089   22.4361 H   0  0  0  0  0  0  0  0  0  0  0  0
  -10.4474  -26.3602   30.8137 H   0  0  0  0  0  0  0  0  0  0  0  0
   -5.7094  -19.0376   33.1820 H   0  0  0  0  0  0  0  0  0  0  0  0
  -11.9109  -11.0593   27.1409 H   0  0  0  0  0  0  0  0  0  0  0  0
  1  4  1  0
  1  6  1  0
  2 10  1  0
  2 23  1  0
  3  4  1  0
  3 29  2  0
  4  5  2  0
  5 18  1  0
  5 35  1  0
  6  7  2  0
  6 33  1  0
  7 19  1  0
  7 35  1  0
  8 19  2  0
  8 30  1  0
  9 20  2  0
  9 21  1  0
 10 21  2  0
 10 22  1  0
 11 20  1  0
 11 22  2  0
 11 31  1  0
 12 14  1  0
 12 24  1  0
 24 13  1  6
 13 34  1  0
 13 38  2  0
 14 24  1  0
 15 26  2  0
 15 27  1  0
 16 27  2  0
 16 28  1  0
 16 32  1  0
 17 26  1  0
 17 28  2  0
 18 25  2  0
 19 36  1  0
 20 36  1  0
 23 24  1  0
 23 37  2  0
 25 29  1  0
 26 34  1  0
 30 33  2  0
  1 39  1  0
  2 40  1  0
  3 41  1  0
  8 42  1  0
  9 43  1  0
 12 44  1  0
 12 45  1  0
 14 46  1  0
 14 47  1  0
 15 48  1  0
 17 49  1  0
 18 50  1  0
 21 51  1  0
 22 52  1  0
 25 53  1  0
 27 54  1  0
 28 55  1  0
 29 56  1  0
 30 57  1  0
 34 58  1  0
M  END
>  <filename_input>  (16) 
7V3S_5I9_docked.sdf

>  <pdb_id>  (16) 
7V3S_5I9

>  <pose_rank>  (16) 
15

>  <num_atoms_heavy>  (16) 
38

>  <num_torsions>  (16) 
6

>  <pose>  (16) 
[-9.790201138225665, -16.926534315622856, 29.575038085216878, -0.4583912575565001, -0.5342318235815232, 6.022012502626962, -1.3856577924786757, -5.17229792021744, 4.427133707110883, 1.4434742556267006, -3.2904749984588775, -17.8996675443289]

>  <energy>  (16) 
-1117.2613844915961

>  <inter_energy>  (16) 
-1118.8722072689213

>  <intra_energy>  (16) 
30.205887804884924

>  <rmsd>  (16) 
2.29034

>  <sdf_rank>  (16) 
0

$$$$

     RDKit          3D

 58 63  0  0  0  0  0  0  0  0999 V2000
  -12.3354  -18.8496   31.9392 N   0  0  0  0  0  0  0  0  0  0  0  0
  -10.6438  -12.5104   27.5389 N   0  0  0  0  0  0  0  0  0  0  0  0
  -13.8038  -19.4572   30.1169 C   0  0  0  0  0  0  0  0  0  0  0  0
  -12.6309  -18.8640   30.5920 C   0  0  0  0  0  0  0  0  0  0  0  0
  -11.7430  -18.2866   29.6771 C   0  0  0  0  0  0  0  0  0  0  0  0
  -11.3822  -17.8428   32.3381 C   0  0  0  0  0  0  0  0  0  0  0  0
  -10.1732  -17.9337   31.4402 C   0  0  0  0  0  0  0  0  0  0  0  0
   -9.1155  -16.5183   33.1975 C   0  0  0  0  0  0  0  0  0  0  0  0
   -9.1111  -15.6485   28.7115 C   0  0  0  0  0  0  0  0  0  0  0  0
  -10.0571  -13.4546   28.4266 C   0  0  0  0  0  0  0  0  0  0  0  0
   -9.3117  -14.1796   30.5699 C   0  0  0  0  0  0  0  0  0  0  0  0
  -13.3055  -11.0807   25.9470 C   0  0  0  0  0  0  0  0  0  0  0  0
  -10.8175  -10.5084   25.4462 C   0  0  0  0  0  0  0  0  0  0  0  0
  -12.9780  -11.7658   24.6714 C   0  0  0  0  0  0  0  0  0  0  0  0
   -9.5551   -7.7369   25.4094 C   0  0  0  0  0  0  0  0  0  0  0  0
   -7.4925   -6.8406   26.1261 C   0  0  0  0  0  0  0  0  0  0  0  0
   -8.3541   -8.7601   27.2132 C   0  0  0  0  0  0  0  0  0  0  0  0
  -12.0224  -18.2946   28.3169 C   0  0  0  0  0  0  0  0  0  0  0  0
   -9.1936  -16.8906   31.8874 C   0  0  0  0  0  0  0  0  0  0  0  0
   -8.9148  -15.3932   30.0561 C   0  0  0  0  0  0  0  0  0  0  0  0
   -9.6813  -14.6830   27.8991 C   0  0  0  0  0  0  0  0  0  0  0  0
   -9.8757  -13.2066   29.7842 C   0  0  0  0  0  0  0  0  0  0  0  0
  -11.4807  -12.7628   26.5175 C   0  0  0  0  0  0  0  0  0  0  0  0
  -11.8698  -11.5580   25.7068 C   0  0  2  0  0  0  0  0  0  0  0  0
  -13.1954  -18.8758   27.8757 C   0  0  0  0  0  0  0  0  0  0  0  0
   -9.4718   -8.7137   26.3918 C   0  0  0  0  0  0  0  0  0  0  0  0
   -8.5646   -6.7778   25.2845 C   0  0  0  0  0  0  0  0  0  0  0  0
   -7.3577   -7.8046   27.0861 C   0  0  0  0  0  0  0  0  0  0  0  0
  -14.0758  -19.4508   28.7724 C   0  0  0  0  0  0  0  0  0  0  0  0
  -10.0176  -17.0893   34.1302 C   0  0  0  0  0  0  0  0  0  0  0  0
   -9.1347  -13.9444   31.8898 F   0  0  0  0  0  0  0  0  0  0  0  0
   -6.5135   -5.9062   25.9967 F   0  0  0  0  0  0  0  0  0  0  0  0
  -11.0136  -17.8649   33.7644 N   0  0  0  0  0  0  0  0  0  0  0  0
  -10.4791   -9.7159   26.4751 N   0  0  0  0  0  0  0  0  0  0  0  0
  -10.5642  -17.6904   30.0700 O   0  0  0  0  0  0  0  0  0  0  0  0
   -8.3731  -16.3722   30.8834 O   0  0  0  0  0  0  0  0  0  0  0  0
  -11.9241  -13.8675   26.2513 O   0  0  0  0  0  0  0  0  0  0  0  0
  -10.2820  -10.4219   24.3537 O   0  0  0  0  0  0  0  0  0  0  0  0
  -12.7621  -19.5063   32.6082 H   0  0  0  0  0  0  0  0  0  0  0  0
  -10.3998  -11.5222   27.6964 H   0  0  0  0  0  0  0  0  0  0  0  0
  -14.5072  -19.9281   30.8195 H   0  0  0  0  0  0  0  0  0  0  0  0
   -8.3634  -15.7857   33.5255 H   0  0  0  0  0  0  0  0  0  0  0  0
   -8.8141  -16.6189   28.2871 H   0  0  0  0  0  0  0  0  0  0  0  0
  -13.5315  -10.0042   25.9477 H   0  0  0  0  0  0  0  0  0  0  0  0
  -14.0499  -11.2414   26.7407 H   0  0  0  0  0  0  0  0  0  0  0  0
  -13.3642  -12.7777   24.4791 H   0  0  0  0  0  0  0  0  0  0  0  0
  -13.0971  -11.5136   23.6074 H   0  0  0  0  0  0  0  0  0  0  0  0
  -10.4155   -7.7247   24.7241 H   0  0  0  0  0  0  0  0  0  0  0  0
   -8.2587   -9.5562   27.9662 H   0  0  0  0  0  0  0  0  0  0  0  0
  -11.3193  -17.8445   27.6006 H   0  0  0  0  0  0  0  0  0  0  0  0
   -9.8374  -14.8902   26.8302 H   0  0  0  0  0  0  0  0  0  0  0  0
  -10.1801  -12.2440   30.2210 H   0  0  0  0  0  0  0  0  0  0  0  0
  -13.4308  -18.8808   26.8012 H   0  0  0  0  0  0  0  0  0  0  0  0
   -8.6400   -5.9848   24.5259 H   0  0  0  0  0  0  0  0  0  0  0  0
   -6.4765   -7.8218   27.7443 H   0  0  0  0  0  0  0  0  0  0  0  0
  -15.0055  -19.9087   28.4036 H   0  0  0  0  0  0  0  0  0  0  0  0
   -9.8788  -16.8751   35.2001 H   0  0  0  0  0  0  0  0  0  0  0  0
  -10.9734   -9.8391   27.3703 H   0  0  0  0  0  0  0  0  0  0  0  0
  1  4  1  0
  1  6  1  0
  2 10  1  0
  2 23  1  0
  3  4  1  0
  3 29  2  0
  4  5  2  0
  5 18  1  0
  5 35  1  0
  6  7  2  0
  6 33  1  0
  7 19  1  0
  7 35  1  0
  8 19  2  0
  8 30  1  0
  9 20  2  0
  9 21  1  0
 10 21  2  0
 10 22  1  0
 11 20  1  0
 11 22  2  0
 11 31  1  0
 12 14  1  0
 12 24  1  0
 24 13  1  6
 13 34  1  0
 13 38  2  0
 14 24  1  0
 15 26  2  0
 15 27  1  0
 16 27  2  0
 16 28  1  0
 16 32  1  0
 17 26  1  0
 17 28  2  0
 18 25  2  0
 19 36  1  0
 20 36  1  0
 23 24  1  0
 23 37  2  0
 25 29  1  0
 26 34  1  0
 30 33  2  0
  1 39  1  0
  2 40  1  0
  3 41  1  0
  8 42  1  0
  9 43  1  0
 12 44  1  0
 12 45  1  0
 14 46  1  0
 14 47  1  0
 15 48  1  0
 17 49  1  0
 18 50  1  0
 21 51  1  0
 22 52  1  0
 25 53  1  0
 27 54  1  0
 28 55  1  0
 29 56  1  0
 30 57  1  0
 34 58  1  0
M  END
>  <filename_input>  (17) 
7V3S_5I9_docked.sdf

>  <pdb_id>  (17) 
7V3S_5I9

>  <pose_rank>  (17) 
16

>  <num_atoms_heavy>  (17) 
38

>  <num_torsions>  (17) 
6

>  <pose>  (17) 
[-9.111054572698254, -15.648474822770952, 28.711537516306425, 4.157841736072548, -1.3845708488228912, -3.847360125422815, -2.6500745667541588, -5.680714922098578, -4.495279570775234, 0.16136822929288033, -19.54920992802445, -1.610829597439009]

>  <energy>  (17) 
-568.8239459433136

>  <inter_energy>  (17) 
-657.1218076125774

>  <intra_energy>  (17) 
88.68874907705035

>  <rmsd>  (17) 
5.01304

>  <sdf_rank>  (17) 
0

$$$$

     RDKit          3D

 58 63  0  0  0  0  0  0  0  0999 V2000
  -10.0283  -12.6475   28.7318 N   0  0  0  0  0  0  0  0  0  0  0  0
   -8.9671  -22.0215   32.0191 N   0  0  0  0  0  0  0  0  0  0  0  0
  -10.4024  -10.5212   29.8202 C   0  0  0  0  0  0  0  0  0  0  0  0
  -10.2723  -11.9118   29.8726 C   0  0  0  0  0  0  0  0  0  0  0  0
  -10.3831  -12.5582   31.1090 C   0  0  0  0  0  0  0  0  0  0  0  0
  -10.3703  -14.0456   28.8296 C   0  0  0  0  0  0  0  0  0  0  0  0
   -9.7436  -14.6142   30.0787 C   0  0  0  0  0  0  0  0  0  0  0  0
  -10.2758  -16.8006   29.0079 C   0  0  0  0  0  0  0  0  0  0  0  0
  -10.8126  -18.8337   32.0843 C   0  0  0  0  0  0  0  0  0  0  0  0
   -9.2284  -20.6316   31.8657 C   0  0  0  0  0  0  0  0  0  0  0  0
   -8.6322  -18.4130   31.2353 C   0  0  0  0  0  0  0  0  0  0  0  0
   -9.9687  -25.4595   31.2441 C   0  0  0  0  0  0  0  0  0  0  0  0
   -7.4906  -24.7977   31.6792 C   0  0  0  0  0  0  0  0  0  0  0  0
   -9.9082  -25.0122   32.6583 C   0  0  0  0  0  0  0  0  0  0  0  0
   -4.7706  -25.4480   29.9910 C   0  0  0  0  0  0  0  0  0  0  0  0
   -2.5840  -24.9898   30.7526 C   0  0  0  0  0  0  0  0  0  0  0  0
   -4.3879  -23.7032   31.5885 C   0  0  0  0  0  0  0  0  0  0  0  0
  -10.6254  -11.8335   32.2684 C   0  0  0  0  0  0  0  0  0  0  0  0
  -10.0996  -16.0690   30.1458 C   0  0  0  0  0  0  0  0  0  0  0  0
   -9.8734  -17.9424   31.5993 C   0  0  0  0  0  0  0  0  0  0  0  0
  -10.4920  -20.1742   32.2163 C   0  0  0  0  0  0  0  0  0  0  0  0
   -8.2907  -19.7357   31.3602 C   0  0  0  0  0  0  0  0  0  0  0  0
   -9.2804  -23.0091   31.1625 C   0  0  0  0  0  0  0  0  0  0  0  0
   -8.9438  -24.3932   31.6433 C   0  0  2  0  0  0  0  0  0  0  0  0
  -10.7632  -10.4613   32.1861 C   0  0  0  0  0  0  0  0  0  0  0  0
   -5.2611  -24.4163   30.7791 C   0  0  0  0  0  0  0  0  0  0  0  0
   -3.4152  -25.7284   29.9619 C   0  0  0  0  0  0  0  0  0  0  0  0
   -3.0310  -23.9861   31.5661 C   0  0  0  0  0  0  0  0  0  0  0  0
  -10.6521   -9.8152   30.9696 C   0  0  0  0  0  0  0  0  0  0  0  0
  -10.1765  -16.1528   27.7509 C   0  0  0  0  0  0  0  0  0  0  0  0
   -7.7253  -17.5388   30.7433 F   0  0  0  0  0  0  0  0  0  0  0  0
   -1.2542  -25.2721   30.7336 F   0  0  0  0  0  0  0  0  0  0  0  0
  -10.0514  -14.8495   27.6368 N   0  0  0  0  0  0  0  0  0  0  0  0
   -6.6627  -24.1728   30.8275 N   0  0  0  0  0  0  0  0  0  0  0  0
  -10.2589  -13.9246   31.2399 O   0  0  0  0  0  0  0  0  0  0  0  0
  -10.2013  -16.6003   31.4332 O   0  0  0  0  0  0  0  0  0  0  0  0
   -9.7825  -22.8313   30.0651 O   0  0  0  0  0  0  0  0  0  0  0  0
   -7.0960  -25.6306   32.4781 O   0  0  0  0  0  0  0  0  0  0  0  0
   -9.6327  -12.2312   27.8767 H   0  0  0  0  0  0  0  0  0  0  0  0
   -8.4834  -22.3029   32.8838 H   0  0  0  0  0  0  0  0  0  0  0  0
  -10.3049   -9.9941   28.8596 H   0  0  0  0  0  0  0  0  0  0  0  0
  -10.4920  -17.8777   29.0649 H   0  0  0  0  0  0  0  0  0  0  0  0
  -11.8147  -18.4777   32.3654 H   0  0  0  0  0  0  0  0  0  0  0  0
   -9.6298  -26.4708   30.9749 H   0  0  0  0  0  0  0  0  0  0  0  0
  -10.7644  -25.5205   30.4870 H   0  0  0  0  0  0  0  0  0  0  0  0
  -10.7258  -24.4064   33.0759 H   0  0  0  0  0  0  0  0  0  0  0  0
   -9.7876  -25.5234   33.6248 H   0  0  0  0  0  0  0  0  0  0  0  0
   -5.4647  -26.0481   29.3842 H   0  0  0  0  0  0  0  0  0  0  0  0
   -4.7732  -22.9122   32.2487 H   0  0  0  0  0  0  0  0  0  0  0  0
  -10.7064  -12.3448   33.2389 H   0  0  0  0  0  0  0  0  0  0  0  0
  -11.2422  -20.8807   32.6010 H   0  0  0  0  0  0  0  0  0  0  0  0
   -7.2897  -20.0836   31.0650 H   0  0  0  0  0  0  0  0  0  0  0  0
  -10.9633   -9.8780   33.0970 H   0  0  0  0  0  0  0  0  0  0  0  0
   -3.0183  -26.5266   29.3174 H   0  0  0  0  0  0  0  0  0  0  0  0
   -2.3282  -23.4146   32.1902 H   0  0  0  0  0  0  0  0  0  0  0  0
  -10.7651   -8.7220   30.9224 H   0  0  0  0  0  0  0  0  0  0  0  0
  -10.2051  -16.7639   26.8367 H   0  0  0  0  0  0  0  0  0  0  0  0
   -7.0617  -23.4821   30.1759 H   0  0  0  0  0  0  0  0  0  0  0  0
  1  4  1  0
  1  6  1  0
  2 10  1  0
  2 23  1  0
  3  4  1  0
  3 29  2  0
  4  5  2  0
  5 18  1  0
  5 35  1  0
  6  7  2  0
  6 33  1  0
  7 19  1  0
  7 35  1  0
  8 19  2  0
  8 30  1  0
  9 20  2  0
  9 21  1  0
 10 21  2  0
 10 22  1  0
 11 20  1  0
 11 22  2  0
 11 31  1  0
 12 14  1  0
 12 24  1  0
 24 13  1  1
 13 34  1  0
 13 38  2  0
 14 24  1  0
 15 26  2  0
 15 27  1  0
 16 27  2  0
 16 28  1  0
 16 32  1  0
 17 26  1  0
 17 28  2  0
 18 25  2  0
 19 36  1  0
 20 36  1  0
 23 24  1  0
 23 37  2  0
 25 29  1  0
 26 34  1  0
 30 33  2  0
  1 39  1  0
  2 40  1  0
  3 41  1  0
  8 42  1  0
  9 43  1  0
 12 44  1  0
 12 45  1  0
 14 46  1  0
 14 47  1  0
 15 48  1  0
 17 49  1  0
 18 50  1  0
 21 51  1  0
 22 52  1  0
 25 53  1  0
 27 54  1  0
 28 55  1  0
 29 56  1  0
 30 57  1  0
 34 58  1  0
M  END
>  <filename_input>  (18) 
7V3S_5I9_docked.sdf

>  <pdb_id>  (18) 
7V3S_5I9

>  <pose_rank>  (18) 
17

>  <num_atoms_heavy>  (18) 
38

>  <num_torsions>  (18) 
6

>  <pose>  (18) 
[-10.812554240639832, -18.833687257755393, 32.08429101949773, 2.7122325471277495, 0.9296010196635331, 1.8625950896552406, -1.8454915011481625, -1.326753765416426, 2.62338864623894, 0.7133318267508857, -0.8036964790260805, 0.673541425954897]

>  <energy>  (18) 
-630.656093271424

>  <inter_energy>  (18) 
-633.3410956632965

>  <intra_energy>  (18) 
25.07668752467681

>  <rmsd>  (18) 
11.8699

>  <sdf_rank>  (18) 
0

$$$$

     RDKit          3D

 58 63  0  0  0  0  0  0  0  0999 V2000
  -12.5051  -21.9133   32.5104 N   0  0  0  0  0  0  0  0  0  0  0  0
   -9.6444  -13.3607   29.9154 N   0  0  0  0  0  0  0  0  0  0  0  0
  -12.7470  -22.5731   34.8238 C   0  0  0  0  0  0  0  0  0  0  0  0
  -12.1302  -21.8039   33.8332 C   0  0  0  0  0  0  0  0  0  0  0  0
  -11.1235  -20.9037   34.2007 C   0  0  0  0  0  0  0  0  0  0  0  0
  -11.5233  -21.4441   31.5632 C   0  0  0  0  0  0  0  0  0  0  0  0
  -11.0780  -20.0606   31.9680 C   0  0  0  0  0  0  0  0  0  0  0  0
  -10.1473  -19.9933   29.6573 C   0  0  0  0  0  0  0  0  0  0  0  0
   -9.4009  -17.0328   29.7475 C   0  0  0  0  0  0  0  0  0  0  0  0
   -9.4875  -14.7055   30.3521 C   0  0  0  0  0  0  0  0  0  0  0  0
   -9.1832  -16.3768   32.0221 C   0  0  0  0  0  0  0  0  0  0  0  0
   -9.6802  -10.5533   29.8469 C   0  0  0  0  0  0  0  0  0  0  0  0
  -10.4711  -11.0811   27.4253 C   0  0  0  0  0  0  0  0  0  0  0  0
  -11.1475  -10.3285   29.8388 C   0  0  0  0  0  0  0  0  0  0  0  0
  -11.8951  -12.5555   24.3934 C   0  0  0  0  0  0  0  0  0  0  0  0
  -11.3754  -11.2656   22.4862 C   0  0  0  0  0  0  0  0  0  0  0  0
  -10.7644  -10.4554   24.6259 C   0  0  0  0  0  0  0  0  0  0  0  0
  -10.7353  -20.7779   35.5279 C   0  0  0  0  0  0  0  0  0  0  0  0
  -10.0734  -19.5914   30.9589 C   0  0  0  0  0  0  0  0  0  0  0  0
   -9.2113  -17.3740   31.0739 C   0  0  0  0  0  0  0  0  0  0  0  0
   -9.5397  -15.7031   29.3873 C   0  0  0  0  0  0  0  0  0  0  0  0
   -9.3151  -15.0526   31.6889 C   0  0  0  0  0  0  0  0  0  0  0  0
  -10.7207  -12.8172   29.3208 C   0  0  0  0  0  0  0  0  0  0  0  0
  -10.5541  -11.3832   28.9012 C   0  0  2  0  0  0  0  0  0  0  0  0
  -11.3522  -21.5601   36.4851 C   0  0  0  0  0  0  0  0  0  0  0  0
  -11.3408  -11.5765   25.2062 C   0  0  0  0  0  0  0  0  0  0  0  0
  -11.9301  -12.3925   23.0190 C   0  0  0  0  0  0  0  0  0  0  0  0
  -10.7924  -10.2927   23.2495 C   0  0  0  0  0  0  0  0  0  0  0  0
  -12.3492  -22.4491   36.1309 C   0  0  0  0  0  0  0  0  0  0  0  0
  -11.1566  -20.9133   29.2773 C   0  0  0  0  0  0  0  0  0  0  0  0
   -9.0170  -16.7195   33.3197 F   0  0  0  0  0  0  0  0  0  0  0  0
  -11.3988  -11.1101   21.1357 F   0  0  0  0  0  0  0  0  0  0  0  0
  -11.9441  -21.4979   30.1523 N   0  0  0  0  0  0  0  0  0  0  0  0
  -11.2762  -11.7834   26.6130 N   0  0  0  0  0  0  0  0  0  0  0  0
  -10.4757  -20.1072   33.2812 O   0  0  0  0  0  0  0  0  0  0  0  0
   -9.1048  -18.7109   31.4451 O   0  0  0  0  0  0  0  0  0  0  0  0
  -11.7728  -13.4063   29.1364 O   0  0  0  0  0  0  0  0  0  0  0  0
   -9.7267  -10.2087   27.0095 O   0  0  0  0  0  0  0  0  0  0  0  0
  -13.4151  -22.2997   32.2214 H   0  0  0  0  0  0  0  0  0  0  0  0
   -8.8432  -12.7328   30.0724 H   0  0  0  0  0  0  0  0  0  0  0  0
  -13.5496  -23.2761   34.5561 H   0  0  0  0  0  0  0  0  0  0  0  0
   -9.4340  -19.6089   28.9134 H   0  0  0  0  0  0  0  0  0  0  0  0
   -9.4416  -17.8180   28.9782 H   0  0  0  0  0  0  0  0  0  0  0  0
   -9.0067   -9.7858   29.4376 H   0  0  0  0  0  0  0  0  0  0  0  0
   -8.9402  -10.7934   30.6245 H   0  0  0  0  0  0  0  0  0  0  0  0
  -11.7538  -10.6424   30.7014 H   0  0  0  0  0  0  0  0  0  0  0  0
  -11.7926   -9.4484   29.7004 H   0  0  0  0  0  0  0  0  0  0  0  0
  -12.3101  -13.4686   24.8450 H   0  0  0  0  0  0  0  0  0  0  0  0
  -10.2846   -9.6946   25.2592 H   0  0  0  0  0  0  0  0  0  0  0  0
   -9.9474  -20.0653   35.8133 H   0  0  0  0  0  0  0  0  0  0  0  0
   -9.6921  -15.4354   28.3313 H   0  0  0  0  0  0  0  0  0  0  0  0
   -9.2849  -14.2760   32.4674 H   0  0  0  0  0  0  0  0  0  0  0  0
  -11.0471  -21.4745   37.5384 H   0  0  0  0  0  0  0  0  0  0  0  0
  -12.3935  -13.1526   22.3728 H   0  0  0  0  0  0  0  0  0  0  0  0
  -10.3544   -9.3990   22.7810 H   0  0  0  0  0  0  0  0  0  0  0  0
  -12.8294  -23.0644   36.9060 H   0  0  0  0  0  0  0  0  0  0  0  0
  -11.2856  -21.1467   28.2101 H   0  0  0  0  0  0  0  0  0  0  0  0
  -11.8778  -12.5088   27.0287 H   0  0  0  0  0  0  0  0  0  0  0  0
  1  4  1  0
  1  6  1  0
  2 10  1  0
  2 23  1  0
  3  4  1  0
  3 29  2  0
  4  5  2  0
  5 18  1  0
  5 35  1  0
  6  7  2  0
  6 33  1  0
  7 19  1  0
  7 35  1  0
  8 19  2  0
  8 30  1  0
  9 20  2  0
  9 21  1  0
 10 21  2  0
 10 22  1  0
 11 20  1  0
 11 22  2  0
 11 31  1  0
 12 14  1  0
 12 24  1  0
 24 13  1  6
 13 34  1  0
 13 38  2  0
 14 24  1  0
 15 26  2  0
 15 27  1  0
 16 27  2  0
 16 28  1  0
 16 32  1  0
 17 26  1  0
 17 28  2  0
 18 25  2  0
 19 36  1  0
 20 36  1  0
 23 24  1  0
 23 37  2  0
 25 29  1  0
 26 34  1  0
 30 33  2  0
  1 39  1  0
  2 40  1  0
  3 41  1  0
  8 42  1  0
  9 43  1  0
 12 44  1  0
 12 45  1  0
 14 46  1  0
 14 47  1  0
 15 48  1  0
 17 49  1  0
 18 50  1  0
 21 51  1  0
 22 52  1  0
 25 53  1  0
 27 54  1  0
 28 55  1  0
 29 56  1  0
 30 57  1  0
 34 58  1  0
M  END
>  <filename_input>  (19) 
7V3S_5I9_docked.sdf

>  <pdb_id>  (19) 
7V3S_5I9

>  <pose_rank>  (19) 
18

>  <num_atoms_heavy>  (19) 
38

>  <num_torsions>  (19) 
6

>  <pose>  (19) 
[-9.400927600929288, -17.032816855905896, 29.74750420577959, -3.37023222357708, -4.670659201848112, 2.115398150169186, -2.200439625817681, -4.426694747413383, 3.759006929959713, 2.02749667373989, -5.840130097567992, -17.438471397656656]

>  <energy>  (19) 
-1037.3688131732665

>  <inter_energy>  (19) 
-1091.1507737686836

>  <intra_energy>  (19) 
56.808611216229906

>  <rmsd>  (19) 
2.84431

>  <sdf_rank>  (19) 
0

$$$$

     RDKit          3D

 58 63  0  0  0  0  0  0  0  0999 V2000
  -10.6183  -16.0958   28.9776 N   0  0  0  0  0  0  0  0  0  0  0  0
   -8.7710  -25.1051   31.3047 N   0  0  0  0  0  0  0  0  0  0  0  0
   -9.2873  -14.1908   29.6451 C   0  0  0  0  0  0  0  0  0  0  0  0
   -9.7545  -15.4895   29.8656 C   0  0  0  0  0  0  0  0  0  0  0  0
   -9.3254  -16.1816   31.0039 C   0  0  0  0  0  0  0  0  0  0  0  0
  -11.3702  -17.1993   29.5236 C   0  0  0  0  0  0  0  0  0  0  0  0
  -10.4162  -18.1488   30.2054 C   0  0  0  0  0  0  0  0  0  0  0  0
  -12.3564  -19.7103   30.1179 C   0  0  0  0  0  0  0  0  0  0  0  0
  -11.0751  -22.2651   31.7486 C   0  0  0  0  0  0  0  0  0  0  0  0
   -9.2130  -23.7628   31.4677 C   0  0  0  0  0  0  0  0  0  0  0  0
   -8.8593  -21.4125   31.6280 C   0  0  0  0  0  0  0  0  0  0  0  0
   -8.7532  -27.8983   30.8744 C   0  0  0  0  0  0  0  0  0  0  0  0
   -6.2187  -27.4306   31.2297 C   0  0  0  0  0  0  0  0  0  0  0  0
   -8.4411  -28.3642   32.2489 C   0  0  0  0  0  0  0  0  0  0  0  0
   -3.4044  -25.4508   30.2393 C   0  0  0  0  0  0  0  0  0  0  0  0
   -1.3719  -26.6506   30.2150 C   0  0  0  0  0  0  0  0  0  0  0  0
   -3.2590  -27.6034   31.2825 C   0  0  0  0  0  0  0  0  0  0  0  0
   -8.4534  -15.5883   31.9072 C   0  0  0  0  0  0  0  0  0  0  0  0
  -11.2203  -19.2923   30.7470 C   0  0  0  0  0  0  0  0  0  0  0  0
  -10.2091  -21.1877   31.7759 C   0  0  0  0  0  0  0  0  0  0  0  0
  -10.5794  -23.5486   31.5941 C   0  0  0  0  0  0  0  0  0  0  0  0
   -8.3446  -22.6751   31.4768 C   0  0  0  0  0  0  0  0  0  0  0  0
   -8.0165  -25.8236   32.1543 C   0  0  0  0  0  0  0  0  0  0  0  0
   -7.6445  -27.1952   31.6639 C   0  0  2  0  0  0  0  0  0  0  0  0
   -8.0178  -14.2986   31.6719 C   0  0  0  0  0  0  0  0  0  0  0  0
   -3.9969  -26.4697   30.9721 C   0  0  0  0  0  0  0  0  0  0  0  0
   -2.0724  -25.5315   29.8708 C   0  0  0  0  0  0  0  0  0  0  0  0
   -1.9267  -27.6896   30.9091 C   0  0  0  0  0  0  0  0  0  0  0  0
   -8.4344  -13.6096   30.5487 C   0  0  0  0  0  0  0  0  0  0  0  0
  -12.8053  -19.0092   28.9705 C   0  0  0  0  0  0  0  0  0  0  0  0
   -8.0200  -20.3522   31.6359 F   0  0  0  0  0  0  0  0  0  0  0  0
   -0.0669  -26.7361   29.8434 F   0  0  0  0  0  0  0  0  0  0  0  0
  -12.2460  -17.8921   28.5625 N   0  0  0  0  0  0  0  0  0  0  0  0
   -5.3787  -26.3866   31.3035 N   0  0  0  0  0  0  0  0  0  0  0  0
   -9.7371  -17.4667   31.2838 O   0  0  0  0  0  0  0  0  0  0  0  0
  -10.7048  -19.8931   31.8974 O   0  0  0  0  0  0  0  0  0  0  0  0
   -7.6588  -25.4320   33.2528 O   0  0  0  0  0  0  0  0  0  0  0  0
   -5.8535  -28.5360   30.8655 O   0  0  0  0  0  0  0  0  0  0  0  0
  -10.7187  -15.7849   28.0007 H   0  0  0  0  0  0  0  0  0  0  0  0
   -9.0617  -25.5799   30.4381 H   0  0  0  0  0  0  0  0  0  0  0  0
   -9.6028  -13.6362   28.7490 H   0  0  0  0  0  0  0  0  0  0  0  0
  -12.9159  -20.5788   30.4955 H   0  0  0  0  0  0  0  0  0  0  0  0
  -12.1584  -22.1025   31.8498 H   0  0  0  0  0  0  0  0  0  0  0  0
   -8.4947  -28.5287   30.0109 H   0  0  0  0  0  0  0  0  0  0  0  0
   -9.6669  -27.5636   30.3614 H   0  0  0  0  0  0  0  0  0  0  0  0
   -9.1581  -28.1844   33.0635 H   0  0  0  0  0  0  0  0  0  0  0  0
   -8.1739  -29.3347   32.6926 H   0  0  0  0  0  0  0  0  0  0  0  0
   -3.9982  -24.5716   29.9489 H   0  0  0  0  0  0  0  0  0  0  0  0
   -3.7321  -28.4348   31.8256 H   0  0  0  0  0  0  0  0  0  0  0  0
   -8.1143  -16.1376   32.7978 H   0  0  0  0  0  0  0  0  0  0  0  0
  -11.2715  -24.4033   31.5712 H   0  0  0  0  0  0  0  0  0  0  0  0
   -7.2608  -22.8258   31.3644 H   0  0  0  0  0  0  0  0  0  0  0  0
   -7.3332  -13.8158   32.3849 H   0  0  0  0  0  0  0  0  0  0  0  0
   -1.5908  -24.7139   29.3144 H   0  0  0  0  0  0  0  0  0  0  0  0
   -1.3282  -28.5760   31.1661 H   0  0  0  0  0  0  0  0  0  0  0  0
   -8.0779  -12.5832   30.3773 H   0  0  0  0  0  0  0  0  0  0  0  0
  -13.6537  -19.4155   28.4002 H   0  0  0  0  0  0  0  0  0  0  0  0
   -5.7529  -25.4791   31.6158 H   0  0  0  0  0  0  0  0  0  0  0  0
  1  4  1  0
  1  6  1  0
  2 10  1  0
  2 23  1  0
  3  4  1  0
  3 29  2  0
  4  5  2  0
  5 18  1  0
  5 35  1  0
  6  7  2  0
  6 33  1  0
  7 19  1  0
  7 35  1  0
  8 19  2  0
  8 30  1  0
  9 20  2  0
  9 21  1  0
 10 21  2  0
 10 22  1  0
 11 20  1  0
 11 22  2  0
 11 31  1  0
 12 14  1  0
 12 24  1  0
 24 13  1  6
 13 34  1  0
 13 38  2  0
 14 24  1  0
 15 26  2  0
 15 27  1  0
 16 27  2  0
 16 28  1  0
 16 32  1  0
 17 26  1  0
 17 28  2  0
 18 25  2  0
 19 36  1  0
 20 36  1  0
 23 24  1  0
 23 37  2  0
 25 29  1  0
 26 34  1  0
 30 33  2  0
  1 39  1  0
  2 40  1  0
  3 41  1  0
  8 42  1  0
  9 43  1  0
 12 44  1  0
 12 45  1  0
 14 46  1  0
 14 47  1  0
 15 48  1  0
 17 49  1  0
 18 50  1  0
 21 51  1  0
 22 52  1  0
 25 53  1  0
 27 54  1  0
 28 55  1  0
 29 56  1  0
 30 57  1  0
 34 58  1  0
M  END
>  <filename_input>  (20) 
7V3S_5I9_docked.sdf

>  <pdb_id>  (20) 
7V3S_5I9

>  <pose_rank>  (20) 
19

>  <num_atoms_heavy>  (20) 
38

>  <num_torsions>  (20) 
6

>  <pose>  (20) 
[-11.07514540035233, -22.26507698992737, 31.74864461021131, 2.5175164547136353, 0.9546991612948968, 2.4640082101345384, 0.987927493068331, 1.8068929639210902, 3.068141714394825, 1.6010904961431616, -0.08706929173631349, 1.334609123975181]

>  <energy>  (20) 
-573.4483066962547

>  <inter_energy>  (20) 
-604.1921748079408

>  <intra_energy>  (20) 
33.13495192705802

>  <rmsd>  (20) 
12.4203

>  <sdf_rank>  (20) 
0

$$$$

     RDKit          3D

 58 63  0  0  0  0  0  0  0  0999 V2000
   -7.6695  -23.9267   30.4207 N   0  0  0  0  0  0  0  0  0  0  0  0
   -9.8710  -15.1580   29.6191 N   0  0  0  0  0  0  0  0  0  0  0  0
   -5.2765  -24.1935   30.2009 C   0  0  0  0  0  0  0  0  0  0  0  0
   -6.3875  -23.4650   30.6348 C   0  0  0  0  0  0  0  0  0  0  0  0
   -6.1856  -22.2532   31.3054 C   0  0  0  0  0  0  0  0  0  0  0  0
   -8.6951  -22.9141   30.4844 C   0  0  0  0  0  0  0  0  0  0  0  0
   -8.5253  -22.1284   31.7612 C   0  0  0  0  0  0  0  0  0  0  0  0
  -10.8309  -21.3360   31.2450 C   0  0  0  0  0  0  0  0  0  0  0  0
   -9.2568  -18.7021   30.4154 C   0  0  0  0  0  0  0  0  0  0  0  0
   -9.7189  -16.3408   30.3947 C   0  0  0  0  0  0  0  0  0  0  0  0
   -9.7366  -17.5572   32.4429 C   0  0  0  0  0  0  0  0  0  0  0  0
  -11.5978  -13.4223   26.7803 C   0  0  0  0  0  0  0  0  0  0  0  0
  -10.3688  -12.3610   28.8129 C   0  0  0  0  0  0  0  0  0  0  0  0
  -10.1500  -13.6535   26.5478 C   0  0  0  0  0  0  0  0  0  0  0  0
  -10.3738  -11.5160   32.2777 C   0  0  0  0  0  0  0  0  0  0  0  0
  -10.3370   -9.2045   32.7539 C   0  0  0  0  0  0  0  0  0  0  0  0
  -10.8424   -9.9192   30.5534 C   0  0  0  0  0  0  0  0  0  0  0  0
   -4.9021  -21.7745   31.5326 C   0  0  0  0  0  0  0  0  0  0  0  0
   -9.6123  -21.0971   31.8099 C   0  0  0  0  0  0  0  0  0  0  0  0
   -9.4106  -18.7238   31.7893 C   0  0  0  0  0  0  0  0  0  0  0  0
   -9.4113  -17.5149   29.7197 C   0  0  0  0  0  0  0  0  0  0  0  0
   -9.8915  -16.3686   31.7756 C   0  0  0  0  0  0  0  0  0  0  0  0
  -10.8194  -14.9015   28.7015 C   0  0  0  0  0  0  0  0  0  0  0  0
  -10.6683  -13.5875   27.9867 C   0  0  2  0  0  0  0  0  0  0  0  0
   -3.8220  -22.5080   31.0812 C   0  0  0  0  0  0  0  0  0  0  0  0
  -10.6725  -11.2378   30.9512 C   0  0  0  0  0  0  0  0  0  0  0  0
  -10.1859  -10.4894   33.1873 C   0  0  0  0  0  0  0  0  0  0  0  0
  -10.6611   -8.8894   31.4636 C   0  0  0  0  0  0  0  0  0  0  0  0
   -4.0129  -23.7070   30.4210 C   0  0  0  0  0  0  0  0  0  0  0  0
  -11.0420  -22.5557   30.5542 C   0  0  0  0  0  0  0  0  0  0  0  0
   -9.9048  -17.5900   33.7842 F   0  0  0  0  0  0  0  0  0  0  0  0
  -10.1643   -8.1959   33.6490 F   0  0  0  0  0  0  0  0  0  0  0  0
  -10.0722  -23.4116   30.3213 N   0  0  0  0  0  0  0  0  0  0  0  0
  -10.9042  -12.3086   30.0424 N   0  0  0  0  0  0  0  0  0  0  0  0
   -7.2313  -21.4843   31.7687 O   0  0  0  0  0  0  0  0  0  0  0  0
   -9.2894  -19.9204   32.4890 O   0  0  0  0  0  0  0  0  0  0  0  0
  -11.7542  -15.6454   28.4551 O   0  0  0  0  0  0  0  0  0  0  0  0
   -9.6407  -11.4825   28.3815 O   0  0  0  0  0  0  0  0  0  0  0  0
   -7.8783  -24.9172   30.2302 H   0  0  0  0  0  0  0  0  0  0  0  0
   -9.1763  -14.4145   29.7786 H   0  0  0  0  0  0  0  0  0  0  0  0
   -5.4150  -25.1547   29.6842 H   0  0  0  0  0  0  0  0  0  0  0  0
  -11.6381  -20.5929   31.3245 H   0  0  0  0  0  0  0  0  0  0  0  0
   -9.0116  -19.6282   29.8749 H   0  0  0  0  0  0  0  0  0  0  0  0
  -12.0374  -12.4386   26.5587 H   0  0  0  0  0  0  0  0  0  0  0  0
  -12.5220  -13.9152   26.4445 H   0  0  0  0  0  0  0  0  0  0  0  0
   -9.8090  -14.6134   26.1326 H   0  0  0  0  0  0  0  0  0  0  0  0
   -9.3649  -13.1267   25.9855 H   0  0  0  0  0  0  0  0  0  0  0  0
  -10.2857  -12.5612   32.6092 H   0  0  0  0  0  0  0  0  0  0  0  0
  -11.1214   -9.6908   29.5142 H   0  0  0  0  0  0  0  0  0  0  0  0
   -4.7476  -20.8243   32.0648 H   0  0  0  0  0  0  0  0  0  0  0  0
   -9.2898  -17.5017   28.6265 H   0  0  0  0  0  0  0  0  0  0  0  0
  -10.1485  -15.4505   32.3241 H   0  0  0  0  0  0  0  0  0  0  0  0
   -2.8011  -22.1344   31.2487 H   0  0  0  0  0  0  0  0  0  0  0  0
   -9.9214  -10.7042   34.2332 H   0  0  0  0  0  0  0  0  0  0  0  0
  -10.7756   -7.8401   31.1540 H   0  0  0  0  0  0  0  0  0  0  0  0
   -3.1414  -24.2779   30.0680 H   0  0  0  0  0  0  0  0  0  0  0  0
  -12.0556  -22.7948   30.1999 H   0  0  0  0  0  0  0  0  0  0  0  0
  -11.5137  -13.0824   30.3437 H   0  0  0  0  0  0  0  0  0  0  0  0
  1  4  1  0
  1  6  1  0
  2 10  1  0
  2 23  1  0
  3  4  1  0
  3 29  2  0
  4  5  2  0
  5 18  1  0
  5 35  1  0
  6  7  2  0
  6 33  1  0
  7 19  1  0
  7 35  1  0
  8 19  2  0
  8 30  1  0
  9 20  2  0
  9 21  1  0
 10 21  2  0
 10 22  1  0
 11 20  1  0
 11 22  2  0
 11 31  1  0
 12 14  1  0
 12 24  1  0
 24 13  1  1
 13 34  1  0
 13 38  2  0
 14 24  1  0
 15 26  2  0
 15 27  1  0
 16 27  2  0
 16 28  1  0
 16 32  1  0
 17 26  1  0
 17 28  2  0
 18 25  2  0
 19 36  1  0
 20 36  1  0
 23 24  1  0
 23 37  2  0
 25 29  1  0
 26 34  1  0
 30 33  2  0
  1 39  1  0
  2 40  1  0
  3 41  1  0
  8 42  1  0
  9 43  1  0
 12 44  1  0
 12 45  1  0
 14 46  1  0
 14 47  1  0
 15 48  1  0
 17 49  1  0
 18 50  1  0
 21 51  1  0
 22 52  1  0
 25 53  1  0
 27 54  1  0
 28 55  1  0
 29 56  1  0
 30 57  1  0
 34 58  1  0
M  END
>  <filename_input>  (21) 
7V3S_5I9_docked.sdf

>  <pdb_id>  (21) 
7V3S_5I9

>  <pose_rank>  (21) 
20

>  <num_atoms_heavy>  (21) 
38

>  <num_torsions>  (21) 
6

>  <pose>  (21) 
[-9.256802422004771, -18.70209684189712, 30.415386099078166, 3.9892043516316855, 4.139073207195997, -1.8975104686599435, -2.148755382779592, -7.146909758846996, -3.792717334447537, -3.1531338813580927, -11.764061978364408, -7.13740392795894]

>  <energy>  (21) 
-655.1421418007101

>  <inter_energy>  (21) 
-666.77044898735

>  <intra_energy>  (21) 
37.52720755929016

>  <rmsd>  (21) 
4.59879

>  <sdf_rank>  (21) 
0

$$$$

     RDKit          3D

 58 63  0  0  0  0  0  0  0  0999 V2000
   -6.6823  -23.2746   31.4834 N   0  0  0  0  0  0  0  0  0  0  0  0
   -9.7622  -14.1597   29.5570 N   0  0  0  0  0  0  0  0  0  0  0  0
   -7.7646  -25.3844   31.0105 C   0  0  0  0  0  0  0  0  0  0  0  0
   -7.8161  -23.9975   31.1762 C   0  0  0  0  0  0  0  0  0  0  0  0
   -9.0408  -23.3393   31.0160 C   0  0  0  0  0  0  0  0  0  0  0  0
   -6.9312  -21.9805   32.0704 C   0  0  0  0  0  0  0  0  0  0  0  0
   -7.9244  -21.2385   31.2105 C   0  0  0  0  0  0  0  0  0  0  0  0
   -7.1569  -19.2651   32.5247 C   0  0  0  0  0  0  0  0  0  0  0  0
   -9.5204  -17.8304   29.7554 C   0  0  0  0  0  0  0  0  0  0  0  0
   -9.6599  -15.4577   30.1301 C   0  0  0  0  0  0  0  0  0  0  0  0
   -9.5453  -16.9665   31.9701 C   0  0  0  0  0  0  0  0  0  0  0  0
   -9.7348  -11.2750   29.2974 C   0  0  0  0  0  0  0  0  0  0  0  0
  -10.5699  -12.1312   26.9870 C   0  0  0  0  0  0  0  0  0  0  0  0
  -11.1911  -10.9894   29.2586 C   0  0  0  0  0  0  0  0  0  0  0  0
  -12.3843  -11.8342   24.1718 C   0  0  0  0  0  0  0  0  0  0  0  0
  -11.4504  -10.8717   22.2295 C   0  0  0  0  0  0  0  0  0  0  0  0
  -10.5177  -10.3409   24.3406 C   0  0  0  0  0  0  0  0  0  0  0  0
  -10.1918  -24.0504   30.7036 C   0  0  0  0  0  0  0  0  0  0  0  0
   -8.1507  -19.8934   31.8327 C   0  0  0  0  0  0  0  0  0  0  0  0
   -9.4762  -18.0470   31.1203 C   0  0  0  0  0  0  0  0  0  0  0  0
   -9.6130  -16.5402   29.2614 C   0  0  0  0  0  0  0  0  0  0  0  0
   -9.6339  -15.6793   31.5041 C   0  0  0  0  0  0  0  0  0  0  0  0
  -10.8773  -13.5444   29.1266 C   0  0  0  0  0  0  0  0  0  0  0  0
  -10.6525  -12.2002   28.4921 C   0  0  2  0  0  0  0  0  0  0  0  0
  -10.1153  -25.4221   30.5587 C   0  0  0  0  0  0  0  0  0  0  0  0
  -11.4715  -11.1408   24.9542 C   0  0  0  0  0  0  0  0  0  0  0  0
  -12.3876  -11.6860   22.7954 C   0  0  0  0  0  0  0  0  0  0  0  0
  -10.5146  -10.1957   22.9619 C   0  0  0  0  0  0  0  0  0  0  0  0
   -8.9092  -26.0791   30.7122 C   0  0  0  0  0  0  0  0  0  0  0  0
   -5.9165  -19.9279   32.7018 C   0  0  0  0  0  0  0  0  0  0  0  0
   -9.5214  -17.1873   33.3040 F   0  0  0  0  0  0  0  0  0  0  0  0
  -11.4452  -10.7346   20.8769 F   0  0  0  0  0  0  0  0  0  0  0  0
   -5.7261  -21.1771   32.3404 N   0  0  0  0  0  0  0  0  0  0  0  0
  -11.4573  -11.3407   26.3634 N   0  0  0  0  0  0  0  0  0  0  0  0
   -9.1675  -21.9742   31.1564 O   0  0  0  0  0  0  0  0  0  0  0  0
   -9.4169  -19.3434   31.6225 O   0  0  0  0  0  0  0  0  0  0  0  0
  -12.0016  -14.0033   29.2419 O   0  0  0  0  0  0  0  0  0  0  0  0
   -9.7057  -12.7439   26.3824 O   0  0  0  0  0  0  0  0  0  0  0  0
   -5.7320  -23.6309   31.3074 H   0  0  0  0  0  0  0  0  0  0  0  0
   -8.8829  -13.6319   29.4611 H   0  0  0  0  0  0  0  0  0  0  0  0
   -6.8085  -25.9175   31.1191 H   0  0  0  0  0  0  0  0  0  0  0  0
   -7.3159  -18.2587   32.9392 H   0  0  0  0  0  0  0  0  0  0  0  0
   -9.4820  -18.6833   29.0619 H   0  0  0  0  0  0  0  0  0  0  0  0
   -9.0325  -10.6097   28.7739 H   0  0  0  0  0  0  0  0  0  0  0  0
   -8.9989  -11.4260   30.1009 H   0  0  0  0  0  0  0  0  0  0  0  0
  -11.8025  -11.1406   30.1604 H   0  0  0  0  0  0  0  0  0  0  0  0
  -11.7986  -10.1131   28.9885 H   0  0  0  0  0  0  0  0  0  0  0  0
  -13.1115  -12.5073   24.6495 H   0  0  0  0  0  0  0  0  0  0  0  0
   -9.7630   -9.8212   24.9492 H   0  0  0  0  0  0  0  0  0  0  0  0
  -11.1514  -23.5286   30.5732 H   0  0  0  0  0  0  0  0  0  0  0  0
   -9.6495  -16.3718   28.1750 H   0  0  0  0  0  0  0  0  0  0  0  0
   -9.6839  -14.8341   32.2063 H   0  0  0  0  0  0  0  0  0  0  0  0
  -11.0223  -25.9964   30.3191 H   0  0  0  0  0  0  0  0  0  0  0  0
  -13.1272  -12.2116   22.1735 H   0  0  0  0  0  0  0  0  0  0  0  0
   -9.7743   -9.5496   22.4673 H   0  0  0  0  0  0  0  0  0  0  0  0
   -8.8666  -27.1719   30.5938 H   0  0  0  0  0  0  0  0  0  0  0  0
   -5.0819  -19.3761   33.1589 H   0  0  0  0  0  0  0  0  0  0  0  0
  -12.1638  -10.8540   26.9334 H   0  0  0  0  0  0  0  0  0  0  0  0
  1  4  1  0
  1  6  1  0
  2 10  1  0
  2 23  1  0
  3  4  1  0
  3 29  2  0
  4  5  2  0
  5 18  1  0
  5 35  1  0
  6  7  2  0
  6 33  1  0
  7 19  1  0
  7 35  1  0
  8 19  2  0
  8 30  1  0
  9 20  2  0
  9 21  1  0
 10 21  2  0
 10 22  1  0
 11 20  1  0
 11 22  2  0
 11 31  1  0
 12 14  1  0
 12 24  1  0
 24 13  1  6
 13 34  1  0
 13 38  2  0
 14 24  1  0
 15 26  2  0
 15 27  1  0
 16 27  2  0
 16 28  1  0
 16 32  1  0
 17 26  1  0
 17 28  2  0
 18 25  2  0
 19 36  1  0
 20 36  1  0
 23 24  1  0
 23 37  2  0
 25 29  1  0
 26 34  1  0
 30 33  2  0
  1 39  1  0
  2 40  1  0
  3 41  1  0
  8 42  1  0
  9 43  1  0
 12 44  1  0
 12 45  1  0
 14 46  1  0
 14 47  1  0
 15 48  1  0
 17 49  1  0
 18 50  1  0
 21 51  1  0
 22 52  1  0
 25 53  1  0
 27 54  1  0
 28 55  1  0
 29 56  1  0
 30 57  1  0
 34 58  1  0
M  END
>  <filename_input>  (22) 
7V3S_5I9_docked.sdf

>  <pdb_id>  (22) 
7V3S_5I9

>  <pose_rank>  (22) 
21

>  <num_atoms_heavy>  (22) 
38

>  <num_torsions>  (22) 
6

>  <pose>  (22) 
[-9.520376107926769, -17.830424099532262, 29.755442517485815, 1.0434411056022097, -0.22651159331249116, 6.138789338307691, -1.8544530799746652, -4.651326910610188, 5.196480666831567, 0.9488345293384766, -3.4070722632086565, -17.810795558412394]

>  <energy>  (22) 
-1076.2726566263468

>  <inter_energy>  (22) 
-1101.667336062079

>  <intra_energy>  (22) 
10.516753772526998

>  <rmsd>  (22) 
2.38789

>  <sdf_rank>  (22) 
0

$$$$

     RDKit          3D

 58 63  0  0  0  0  0  0  0  0999 V2000
   -1.4405  -19.8937   21.1009 N   0  0  0  0  0  0  0  0  0  0  0  0
   -8.5789  -16.1313   26.9554 N   0  0  0  0  0  0  0  0  0  0  0  0
   -0.0862  -21.8885   21.2809 C   0  0  0  0  0  0  0  0  0  0  0  0
   -1.1927  -21.1269   21.6669 C   0  0  0  0  0  0  0  0  0  0  0  0
   -2.0632  -21.6366   22.6370 C   0  0  0  0  0  0  0  0  0  0  0  0
   -2.2984  -19.0332   21.8786 C   0  0  0  0  0  0  0  0  0  0  0  0
   -3.5404  -19.7999   22.2605 C   0  0  0  0  0  0  0  0  0  0  0  0
   -4.4247  -17.5357   22.8098 C   0  0  0  0  0  0  0  0  0  0  0  0
   -5.5492  -17.6569   25.5183 C   0  0  0  0  0  0  0  0  0  0  0  0
   -7.7681  -17.0227   26.1992 C   0  0  0  0  0  0  0  0  0  0  0  0
   -7.4383  -18.8516   24.7088 C   0  0  0  0  0  0  0  0  0  0  0  0
   -9.7183  -14.8828   30.2757 C   0  0  0  0  0  0  0  0  0  0  0  0
  -10.1059  -13.9717   27.8698 C   0  0  0  0  0  0  0  0  0  0  0  0
  -10.8865  -15.6265   29.7411 C   0  0  0  0  0  0  0  0  0  0  0  0
  -10.5857  -11.6153   26.3434 C   0  0  0  0  0  0  0  0  0  0  0  0
  -10.6279   -9.2575   26.2428 C   0  0  0  0  0  0  0  0  0  0  0  0
  -10.1650  -10.3139   28.3112 C   0  0  0  0  0  0  0  0  0  0  0  0
   -1.8314  -22.8776   23.2152 C   0  0  0  0  0  0  0  0  0  0  0  0
   -4.4201  -18.8785   23.0509 C   0  0  0  0  0  0  0  0  0  0  0  0
   -6.0730  -18.6837   24.7548 C   0  0  0  0  0  0  0  0  0  0  0  0
   -6.3935  -16.8282   26.2376 C   0  0  0  0  0  0  0  0  0  0  0  0
   -8.2944  -18.0454   25.4153 C   0  0  0  0  0  0  0  0  0  0  0  0
   -8.8448  -16.1893   28.2719 C   0  0  0  0  0  0  0  0  0  0  0  0
   -9.8061  -15.1457   28.7690 C   0  0  2  0  0  0  0  0  0  0  0  0
   -0.7227  -23.6037   22.8251 C   0  0  0  0  0  0  0  0  0  0  0  0
  -10.3174  -11.5523   27.7036 C   0  0  0  0  0  0  0  0  0  0  0  0
  -10.7610  -10.4567   25.6060 C   0  0  0  0  0  0  0  0  0  0  0  0
  -10.3337   -9.1521   27.5738 C   0  0  0  0  0  0  0  0  0  0  0  0
    0.1400  -23.1087   21.8656 C   0  0  0  0  0  0  0  0  0  0  0  0
   -3.5389  -17.0082   21.8369 C   0  0  0  0  0  0  0  0  0  0  0  0
   -7.9447  -19.8456   23.9444 F   0  0  0  0  0  0  0  0  0  0  0  0
  -10.7883   -8.1190   25.5172 F   0  0  0  0  0  0  0  0  0  0  0  0
   -2.6193  -17.7404   21.2491 N   0  0  0  0  0  0  0  0  0  0  0  0
  -10.0980  -12.7541   28.4341 N   0  0  0  0  0  0  0  0  0  0  0  0
   -3.1781  -20.9469   23.0621 O   0  0  0  0  0  0  0  0  0  0  0  0
   -5.2312  -19.4983   24.0038 O   0  0  0  0  0  0  0  0  0  0  0  0
   -8.3488  -17.0000   29.0365 O   0  0  0  0  0  0  0  0  0  0  0  0
  -10.3079  -14.1362   26.6782 O   0  0  0  0  0  0  0  0  0  0  0  0
   -1.0440  -19.6093   20.1938 H   0  0  0  0  0  0  0  0  0  0  0  0
   -9.0109  -15.3540   26.4357 H   0  0  0  0  0  0  0  0  0  0  0  0
    0.6016  -21.5105   20.5102 H   0  0  0  0  0  0  0  0  0  0  0  0
   -5.1060  -16.8720   23.3624 H   0  0  0  0  0  0  0  0  0  0  0  0
   -4.4612  -17.4984   25.5543 H   0  0  0  0  0  0  0  0  0  0  0  0
   -9.8498  -13.8612   30.6616 H   0  0  0  0  0  0  0  0  0  0  0  0
   -8.9649  -15.0831   31.0517 H   0  0  0  0  0  0  0  0  0  0  0  0
  -10.9942  -16.7008   29.9516 H   0  0  0  0  0  0  0  0  0  0  0  0
  -11.9773  -15.5002   29.8063 H   0  0  0  0  0  0  0  0  0  0  0  0
  -10.6596  -12.5941   25.8469 H   0  0  0  0  0  0  0  0  0  0  0  0
   -9.9099  -10.2540   29.3795 H   0  0  0  0  0  0  0  0  0  0  0  0
   -2.5210  -23.2771   23.9734 H   0  0  0  0  0  0  0  0  0  0  0  0
   -5.9734  -16.0112   26.8426 H   0  0  0  0  0  0  0  0  0  0  0  0
   -9.3815  -18.2049   25.3629 H   0  0  0  0  0  0  0  0  0  0  0  0
   -0.5248  -24.5844   23.2823 H   0  0  0  0  0  0  0  0  0  0  0  0
  -11.0016  -10.5020   24.5336 H   0  0  0  0  0  0  0  0  0  0  0  0
  -10.2330   -8.1656   28.0499 H   0  0  0  0  0  0  0  0  0  0  0  0
    1.0182  -23.7000   21.5673 H   0  0  0  0  0  0  0  0  0  0  0  0
   -3.6244  -15.9461   21.5637 H   0  0  0  0  0  0  0  0  0  0  0  0
   -9.9243  -12.6857   29.4471 H   0  0  0  0  0  0  0  0  0  0  0  0
  1  4  1  0
  1  6  1  0
  2 10  1  0
  2 23  1  0
  3  4  1  0
  3 29  2  0
  4  5  2  0
  5 18  1  0
  5 35  1  0
  6  7  2  0
  6 33  1  0
  7 19  1  0
  7 35  1  0
  8 19  2  0
  8 30  1  0
  9 20  2  0
  9 21  1  0
 10 21  2  0
 10 22  1  0
 11 20  1  0
 11 22  2  0
 11 31  1  0
 12 14  1  0
 12 24  1  0
 24 13  1  6
 13 34  1  0
 13 38  2  0
 14 24  1  0
 15 26  2  0
 15 27  1  0
 16 27  2  0
 16 28  1  0
 16 32  1  0
 17 26  1  0
 17 28  2  0
 18 25  2  0
 19 36  1  0
 20 36  1  0
 23 24  1  0
 23 37  2  0
 25 29  1  0
 26 34  1  0
 30 33  2  0
  1 39  1  0
  2 40  1  0
  3 41  1  0
  8 42  1  0
  9 43  1  0
 12 44  1  0
 12 45  1  0
 14 46  1  0
 14 47  1  0
 15 48  1  0
 17 49  1  0
 18 50  1  0
 21 51  1  0
 22 52  1  0
 25 53  1  0
 27 54  1  0
 28 55  1  0
 29 56  1  0
 30 57  1  0
 34 58  1  0
M  END
>  <filename_input>  (23) 
7V3S_5I9_docked.sdf

>  <pdb_id>  (23) 
7V3S_5I9

>  <pose_rank>  (23) 
22

>  <num_atoms_heavy>  (23) 
38

>  <num_torsions>  (23) 
6

>  <pose>  (23) 
[-5.549166462824507, -17.656943252300433, 25.51832100419637, -2.768493227654739, 3.073780398937237, -0.4064925260585682, 1.5723847215770057, -0.31335784486999063, 0.7284334317537722, -0.7764503581088725, 0.2796870103476908, 0.14258501779558044]

>  <energy>  (23) 
-260.2930483348232

>  <inter_energy>  (23) 
-330.90150457951296

>  <intra_energy>  (23) 
77.43112889620338

>  <rmsd>  (23) 
8.23094

>  <sdf_rank>  (23) 
0

$$$$

     RDKit          3D

 58 63  0  0  0  0  0  0  0  0999 V2000
   -0.3008  -17.7431   28.4258 N   0  0  0  0  0  0  0  0  0  0  0  0
   -5.0484  -24.2347   30.8833 N   0  0  0  0  0  0  0  0  0  0  0  0
   -0.6999  -16.4260   30.4137 C   0  0  0  0  0  0  0  0  0  0  0  0
   -0.5028  -17.6599   29.7876 C   0  0  0  0  0  0  0  0  0  0  0  0
   -0.5023  -18.8237   30.5651 C   0  0  0  0  0  0  0  0  0  0  0  0
   -0.5710  -19.0392   27.8527 C   0  0  0  0  0  0  0  0  0  0  0  0
    0.1619  -20.0878   28.6525 C   0  0  0  0  0  0  0  0  0  0  0  0
   -0.3385  -21.5311   26.6835 C   0  0  0  0  0  0  0  0  0  0  0  0
   -2.5124  -22.6164   28.7568 C   0  0  0  0  0  0  0  0  0  0  0  0
   -3.7709  -23.8059   30.4274 C   0  0  0  0  0  0  0  0  0  0  0  0
   -1.3961  -23.6795   30.5666 C   0  0  0  0  0  0  0  0  0  0  0  0
   -7.1111  -25.7461   32.0195 C   0  0  0  0  0  0  0  0  0  0  0  0
   -8.4529  -23.6231   31.3406 C   0  0  0  0  0  0  0  0  0  0  0  0
   -7.8484  -26.1076   30.7829 C   0  0  0  0  0  0  0  0  0  0  0  0
  -10.2085  -21.1427   30.4792 C   0  0  0  0  0  0  0  0  0  0  0  0
  -10.7765  -19.1516   31.6122 C   0  0  0  0  0  0  0  0  0  0  0  0
   -8.7896  -20.2918   32.2128 C   0  0  0  0  0  0  0  0  0  0  0  0
   -0.7009  -18.7588   31.9379 C   0  0  0  0  0  0  0  0  0  0  0  0
   -0.1217  -21.4200   28.0258 C   0  0  0  0  0  0  0  0  0  0  0  0
   -1.3380  -22.9199   29.4203 C   0  0  0  0  0  0  0  0  0  0  0  0
   -3.7252  -23.0586   29.2577 C   0  0  0  0  0  0  0  0  0  0  0  0
   -2.5858  -24.1259   31.0836 C   0  0  0  0  0  0  0  0  0  0  0  0
   -6.2082  -24.2054   30.2040 C   0  0  0  0  0  0  0  0  0  0  0  0
   -7.4105  -24.6550   30.9867 C   0  0  2  0  0  0  0  0  0  0  0  0
   -0.9068  -17.5273   32.5292 C   0  0  0  0  0  0  0  0  0  0  0  0
   -9.0769  -21.2710   31.2723 C   0  0  0  0  0  0  0  0  0  0  0  0
  -11.0791  -20.0818   30.6611 C   0  0  0  0  0  0  0  0  0  0  0  0
   -9.6564  -19.2249   32.3927 C   0  0  0  0  0  0  0  0  0  0  0  0
   -0.9056  -16.3733   31.7690 C   0  0  0  0  0  0  0  0  0  0  0  0
   -0.3518  -20.3572   25.8890 C   0  0  0  0  0  0  0  0  0  0  0  0
   -0.2417  -23.9890   31.1993 F   0  0  0  0  0  0  0  0  0  0  0  0
  -11.6246  -18.1029   31.7837 F   0  0  0  0  0  0  0  0  0  0  0  0
   -0.2946  -19.1520   26.4100 N   0  0  0  0  0  0  0  0  0  0  0  0
   -8.1726  -22.3455   31.0400 N   0  0  0  0  0  0  0  0  0  0  0  0
   -0.3072  -20.0742   30.0197 O   0  0  0  0  0  0  0  0  0  0  0  0
   -0.1141  -22.5065   28.9030 O   0  0  0  0  0  0  0  0  0  0  0  0
   -6.3112  -23.8638   29.0375 O   0  0  0  0  0  0  0  0  0  0  0  0
   -9.5130  -23.9565   31.8435 O   0  0  0  0  0  0  0  0  0  0  0  0
    0.0182  -16.9424   27.8619 H   0  0  0  0  0  0  0  0  0  0  0  0
   -5.0894  -24.6100   31.8416 H   0  0  0  0  0  0  0  0  0  0  0  0
   -0.6900  -15.4993   29.8211 H   0  0  0  0  0  0  0  0  0  0  0  0
   -0.5007  -22.5175   26.2244 H   0  0  0  0  0  0  0  0  0  0  0  0
   -2.4834  -22.0235   27.8307 H   0  0  0  0  0  0  0  0  0  0  0  0
   -7.6341  -25.7420   32.9872 H   0  0  0  0  0  0  0  0  0  0  0  0
   -6.1983  -26.1153   32.5100 H   0  0  0  0  0  0  0  0  0  0  0  0
   -7.3588  -26.7239   30.0144 H   0  0  0  0  0  0  0  0  0  0  0  0
   -8.8085  -26.6019   30.5736 H   0  0  0  0  0  0  0  0  0  0  0  0
  -10.4155  -21.8904   29.6993 H   0  0  0  0  0  0  0  0  0  0  0  0
   -7.8728  -20.3622   32.8165 H   0  0  0  0  0  0  0  0  0  0  0  0
   -0.6944  -19.6753   32.5462 H   0  0  0  0  0  0  0  0  0  0  0  0
   -4.6574  -22.8166   28.7264 H   0  0  0  0  0  0  0  0  0  0  0  0
   -2.6029  -24.7283   32.0038 H   0  0  0  0  0  0  0  0  0  0  0  0
   -1.0731  -17.4648   33.6148 H   0  0  0  0  0  0  0  0  0  0  0  0
  -11.9918  -19.9910   30.0540 H   0  0  0  0  0  0  0  0  0  0  0  0
   -9.4472  -18.4530   33.1480 H   0  0  0  0  0  0  0  0  0  0  0  0
   -1.0716  -15.4012   32.2562 H   0  0  0  0  0  0  0  0  0  0  0  0
   -0.4124  -20.4588   24.7954 H   0  0  0  0  0  0  0  0  0  0  0  0
   -7.2568  -22.1317   30.6198 H   0  0  0  0  0  0  0  0  0  0  0  0
  1  4  1  0
  1  6  1  0
  2 10  1  0
  2 23  1  0
  3  4  1  0
  3 29  2  0
  4  5  2  0
  5 18  1  0
  5 35  1  0
  6  7  2  0
  6 33  1  0
  7 19  1  0
  7 35  1  0
  8 19  2  0
  8 30  1  0
  9 20  2  0
  9 21  1  0
 10 21  2  0
 10 22  1  0
 11 20  1  0
 11 22  2  0
 11 31  1  0
 12 14  1  0
 12 24  1  0
 24 13  1  1
 13 34  1  0
 13 38  2  0
 14 24  1  0
 15 26  2  0
 15 27  1  0
 16 27  2  0
 16 28  1  0
 16 32  1  0
 17 26  1  0
 17 28  2  0
 18 25  2  0
 19 36  1  0
 20 36  1  0
 23 24  1  0
 23 37  2  0
 25 29  1  0
 26 34  1  0
 30 33  2  0
  1 39  1  0
  2 40  1  0
  3 41  1  0
  8 42  1  0
  9 43  1  0
 12 44  1  0
 12 45  1  0
 14 46  1  0
 14 47  1  0
 15 48  1  0
 17 49  1  0
 18 50  1  0
 21 51  1  0
 22 52  1  0
 25 53  1  0
 27 54  1  0
 28 55  1  0
 29 56  1  0
 30 57  1  0
 34 58  1  0
M  END
>  <filename_input>  (24) 
7V3S_5I9_docked.sdf

>  <pdb_id>  (24) 
7V3S_5I9

>  <pose_rank>  (24) 
23

>  <num_atoms_heavy>  (24) 
38

>  <num_torsions>  (24) 
6

>  <pose>  (24) 
[-2.5124214146751433, -22.61641390856939, 28.75679691812744, -2.290963839196602, -0.6510767532749111, -3.6006652228076526, 3.2115018547489322, 1.8871136423081953, 2.9695771231080816, -2.0578144317178486, 1.6893562480963122, -1.3392812896566229]

>  <energy>  (24) 
-352.16646909928846

>  <inter_energy>  (24) 
-405.5240337106151

>  <intra_energy>  (24) 
51.63084893347614

>  <rmsd>  (24) 
11.6456

>  <sdf_rank>  (24) 
0

$$$$

     RDKit          3D

 58 63  0  0  0  0  0  0  0  0999 V2000
  -11.3370  -13.4171   27.2384 N   0  0  0  0  0  0  0  0  0  0  0  0
   -5.3399   -7.2222   25.5664 N   0  0  0  0  0  0  0  0  0  0  0  0
  -10.7922  -14.1069   29.4908 C   0  0  0  0  0  0  0  0  0  0  0  0
  -10.9029  -13.1151   28.5123 C   0  0  0  0  0  0  0  0  0  0  0  0
  -10.5752  -11.7952   28.8428 C   0  0  0  0  0  0  0  0  0  0  0  0
  -10.9748  -12.4498   26.2312 C   0  0  0  0  0  0  0  0  0  0  0  0
  -11.3716  -11.0754   26.7109 C   0  0  0  0  0  0  0  0  0  0  0  0
  -11.0203  -10.4523   24.3237 C   0  0  0  0  0  0  0  0  0  0  0  0
   -8.7040   -7.7508   26.9718 C   0  0  0  0  0  0  0  0  0  0  0  0
   -6.6994   -7.6335   25.6462 C   0  0  0  0  0  0  0  0  0  0  0  0
   -8.6605   -8.6728   24.7811 C   0  0  0  0  0  0  0  0  0  0  0  0
   -2.8466   -5.3889   26.1121 C   0  0  0  0  0  0  0  0  0  0  0  0
   -2.4691   -7.2426   24.3262 C   0  0  0  0  0  0  0  0  0  0  0  0
   -2.7875   -4.6893   24.8042 C   0  0  0  0  0  0  0  0  0  0  0  0
   -2.1644  -10.3204   23.4493 C   0  0  0  0  0  0  0  0  0  0  0  0
   -0.8669  -11.1543   21.6626 C   0  0  0  0  0  0  0  0  0  0  0  0
   -1.6867   -8.9352   21.5530 C   0  0  0  0  0  0  0  0  0  0  0  0
  -10.1396  -11.4721   30.1211 C   0  0  0  0  0  0  0  0  0  0  0  0
  -11.0006  -10.0940   25.6399 C   0  0  0  0  0  0  0  0  0  0  0  0
   -9.3541   -8.3989   25.9379 C   0  0  0  0  0  0  0  0  0  0  0  0
   -7.3806   -7.3700   26.8274 C   0  0  0  0  0  0  0  0  0  0  0  0
   -7.3503   -8.3025   24.6137 C   0  0  0  0  0  0  0  0  0  0  0  0
   -4.8212   -6.2725   24.7686 C   0  0  0  0  0  0  0  0  0  0  0  0
   -3.3280   -6.1206   24.8553 C   0  0  2  0  0  0  0  0  0  0  0  0
  -10.0263  -12.4742   31.0653 C   0  0  0  0  0  0  0  0  0  0  0  0
   -2.3136   -9.1148   22.7781 C   0  0  0  0  0  0  0  0  0  0  0  0
   -1.4486  -11.3595   22.8796 C   0  0  0  0  0  0  0  0  0  0  0  0
   -0.9640   -9.9719   20.9831 C   0  0  0  0  0  0  0  0  0  0  0  0
  -10.3509  -13.7794   30.7477 C   0  0  0  0  0  0  0  0  0  0  0  0
  -11.3404  -11.7896   23.9792 C   0  0  0  0  0  0  0  0  0  0  0  0
   -9.2970   -9.3245   23.7816 F   0  0  0  0  0  0  0  0  0  0  0  0
   -0.1539  -12.1701   21.1075 F   0  0  0  0  0  0  0  0  0  0  0  0
  -11.4912  -12.7337   24.8810 N   0  0  0  0  0  0  0  0  0  0  0  0
   -3.0168   -8.0451   23.4004 N   0  0  0  0  0  0  0  0  0  0  0  0
  -10.6665  -10.7635   27.9336 O   0  0  0  0  0  0  0  0  0  0  0  0
  -10.6737   -8.8134   26.0905 O   0  0  0  0  0  0  0  0  0  0  0  0
   -5.4825   -5.5587   24.0329 O   0  0  0  0  0  0  0  0  0  0  0  0
   -1.3180   -7.3778   24.7066 O   0  0  0  0  0  0  0  0  0  0  0  0
  -11.8775  -14.2670   27.0230 H   0  0  0  0  0  0  0  0  0  0  0  0
   -4.6785   -7.7065   26.1900 H   0  0  0  0  0  0  0  0  0  0  0  0
  -11.0583  -15.1476   29.2536 H   0  0  0  0  0  0  0  0  0  0  0  0
  -10.7911   -9.7141   23.5410 H   0  0  0  0  0  0  0  0  0  0  0  0
   -9.2383   -7.5376   27.9094 H   0  0  0  0  0  0  0  0  0  0  0  0
   -1.9160   -5.7045   26.6065 H   0  0  0  0  0  0  0  0  0  0  0  0
   -3.2933   -5.1596   27.0908 H   0  0  0  0  0  0  0  0  0  0  0  0
   -3.4720   -3.8529   24.5996 H   0  0  0  0  0  0  0  0  0  0  0  0
   -1.9935   -4.1842   24.2344 H   0  0  0  0  0  0  0  0  0  0  0  0
   -2.6188  -10.4514   24.4425 H   0  0  0  0  0  0  0  0  0  0  0  0
   -1.7635   -7.9687   21.0334 H   0  0  0  0  0  0  0  0  0  0  0  0
   -9.8881  -10.4326   30.3784 H   0  0  0  0  0  0  0  0  0  0  0  0
   -6.8661   -6.8560   27.6527 H   0  0  0  0  0  0  0  0  0  0  0  0
   -6.8214   -8.5311   23.6766 H   0  0  0  0  0  0  0  0  0  0  0  0
   -9.6746  -12.2311   32.0788 H   0  0  0  0  0  0  0  0  0  0  0  0
   -1.3513  -12.3263   23.3952 H   0  0  0  0  0  0  0  0  0  0  0  0
   -0.4785   -9.8458   20.0041 H   0  0  0  0  0  0  0  0  0  0  0  0
  -10.2544  -14.5649   31.5118 H   0  0  0  0  0  0  0  0  0  0  0  0
  -11.4673  -12.0468   22.9172 H   0  0  0  0  0  0  0  0  0  0  0  0
   -3.9956   -7.8784   23.1262 H   0  0  0  0  0  0  0  0  0  0  0  0
  1  4  1  0
  1  6  1  0
  2 10  1  0
  2 23  1  0
  3  4  1  0
  3 29  2  0
  4  5  2  0
  5 18  1  0
  5 35  1  0
  6  7  2  0
  6 33  1  0
  7 19  1  0
  7 35  1  0
  8 19  2  0
  8 30  1  0
  9 20  2  0
  9 21  1  0
 10 21  2  0
 10 22  1  0
 11 20  1  0
 11 22  2  0
 11 31  1  0
 12 14  1  0
 12 24  1  0
 24 13  1  6
 13 34  1  0
 13 38  2  0
 14 24  1  0
 15 26  2  0
 15 27  1  0
 16 27  2  0
 16 28  1  0
 16 32  1  0
 17 26  1  0
 17 28  2  0
 18 25  2  0
 19 36  1  0
 20 36  1  0
 23 24  1  0
 23 37  2  0
 25 29  1  0
 26 34  1  0
 30 33  2  0
  1 39  1  0
  2 40  1  0
  3 41  1  0
  8 42  1  0
  9 43  1  0
 12 44  1  0
 12 45  1  0
 14 46  1  0
 14 47  1  0
 15 48  1  0
 17 49  1  0
 18 50  1  0
 21 51  1  0
 22 52  1  0
 25 53  1  0
 27 54  1  0
 28 55  1  0
 29 56  1  0
 30 57  1  0
 34 58  1  0
M  END
>  <filename_input>  (25) 
7V3S_5I9_docked.sdf

>  <pdb_id>  (25) 
7V3S_5I9

>  <pose_rank>  (25) 
24

>  <num_atoms_heavy>  (25) 
38

>  <num_torsions>  (25) 
6

>  <pose>  (25) 
[-8.704011504509065, -7.750759714272944, 26.971830640818695, 1.7137311715386205, 2.4497472874186728, -0.9340945106538979, 1.01456386922569, 1.1325843777252653, -2.789831929037724, 0.5878942443584394, 5.208828235608692, 5.24443057562364]

>  <energy>  (25) 
-407.50878307286075

>  <inter_energy>  (25) 
-490.2559788512886

>  <intra_energy>  (25) 
95.68004776147167

>  <rmsd>  (25) 
10.6468

>  <sdf_rank>  (25) 
0

$$$$

     RDKit          3D

 58 63  0  0  0  0  0  0  0  0999 V2000
  -10.8590  -23.6360   31.0060 N   0  0  0  0  0  0  0  0  0  0  0  0
   -9.7730  -13.9790   29.0960 N   0  0  0  0  0  0  0  0  0  0  0  0
   -9.2610  -25.4410   30.8210 C   0  0  0  0  0  0  0  0  0  0  0  0
   -9.5550  -24.0790   30.9300 C   0  0  0  0  0  0  0  0  0  0  0  0
   -8.5020  -23.1580   30.9720 C   0  0  0  0  0  0  0  0  0  0  0  0
  -11.0480  -22.2500   30.6530 C   0  0  0  0  0  0  0  0  0  0  0  0
  -10.0630  -21.4110   31.4290 C   0  0  0  0  0  0  0  0  0  0  0  0
  -11.5370  -19.5320   30.7170 C   0  0  0  0  0  0  0  0  0  0  0  0
   -9.3430  -17.6340   29.2630 C   0  0  0  0  0  0  0  0  0  0  0  0
   -9.6050  -15.2750   29.6580 C   0  0  0  0  0  0  0  0  0  0  0  0
   -9.4160  -16.7920   31.4850 C   0  0  0  0  0  0  0  0  0  0  0  0
   -9.1650  -10.3780   29.2010 C   0  0  0  0  0  0  0  0  0  0  0  0
  -10.4080  -11.8360   27.4410 C   0  0  0  0  0  0  0  0  0  0  0  0
  -10.5940  -10.3730   29.6030 C   0  0  0  0  0  0  0  0  0  0  0  0
  -11.8860  -11.6920   24.8460 C   0  0  0  0  0  0  0  0  0  0  0  0
  -11.4510  -11.0560   22.6150 C   0  0  0  0  0  0  0  0  0  0  0  0
  -10.1700  -10.0920   24.3580 C   0  0  0  0  0  0  0  0  0  0  0  0
   -7.1830  -23.5860   30.9000 C   0  0  0  0  0  0  0  0  0  0  0  0
  -10.2930  -19.9770   31.0570 C   0  0  0  0  0  0  0  0  0  0  0  0
   -9.2900  -17.8600   30.6260 C   0  0  0  0  0  0  0  0  0  0  0  0
   -9.5010  -16.3460   28.7800 C   0  0  0  0  0  0  0  0  0  0  0  0
   -9.5700  -15.5070   31.0300 C   0  0  0  0  0  0  0  0  0  0  0  0
   -9.7370  -12.8000   29.7410 C   0  0  0  0  0  0  0  0  0  0  0  0
  -10.0310  -11.6010   28.8830 C   0  0  2  0  0  0  0  0  0  0  0  0
   -6.9210  -24.9370   30.7790 C   0  0  0  0  0  0  0  0  0  0  0  0
  -10.9040  -10.8160   25.2870 C   0  0  0  0  0  0  0  0  0  0  0  0
  -12.1770  -11.8020   23.4970 C   0  0  0  0  0  0  0  0  0  0  0  0
  -10.4550  -10.2050   23.0060 C   0  0  0  0  0  0  0  0  0  0  0  0
   -7.9550  -25.8530   30.7400 C   0  0  0  0  0  0  0  0  0  0  0  0
  -12.6080  -20.4590   30.6610 C   0  0  0  0  0  0  0  0  0  0  0  0
   -9.3830  -17.0230   32.8170 F   0  0  0  0  0  0  0  0  0  0  0  0
  -11.7280  -11.1720   21.2890 F   0  0  0  0  0  0  0  0  0  0  0  0
  -12.4280  -21.7540   30.7950 N   0  0  0  0  0  0  0  0  0  0  0  0
  -10.5910  -10.7500   26.6740 N   0  0  0  0  0  0  0  0  0  0  0  0
   -8.7140  -21.8010   31.0860 O   0  0  0  0  0  0  0  0  0  0  0  0
   -9.1650  -19.1560   31.1170 O   0  0  0  0  0  0  0  0  0  0  0  0
   -9.4720  -12.6740   30.9250 O   0  0  0  0  0  0  0  0  0  0  0  0
  -10.5020  -12.9690   26.9990 O   0  0  0  0  0  0  0  0  0  0  0  0
  -11.6371  -24.2470   31.2924 H   0  0  0  0  0  0  0  0  0  0  0  0
   -9.9412  -13.9395   28.0806 H   0  0  0  0  0  0  0  0  0  0  0  0
  -10.0748  -26.1808   30.8002 H   0  0  0  0  0  0  0  0  0  0  0  0
  -11.7065  -18.4692   30.4896 H   0  0  0  0  0  0  0  0  0  0  0  0
   -9.2596  -18.4777   28.5621 H   0  0  0  0  0  0  0  0  0  0  0  0
   -8.8234   -9.7226   28.3863 H   0  0  0  0  0  0  0  0  0  0  0  0
   -8.2135  -10.2224   29.7305 H   0  0  0  0  0  0  0  0  0  0  0  0
  -10.8631  -10.4386   30.6676 H   0  0  0  0  0  0  0  0  0  0  0  0
  -11.4431   -9.6965   29.4258 H   0  0  0  0  0  0  0  0  0  0  0  0
  -12.4378  -12.3041   25.5746 H   0  0  0  0  0  0  0  0  0  0  0  0
   -9.3608   -9.4274   24.6950 H   0  0  0  0  0  0  0  0  0  0  0  0
   -6.3581  -22.8593   30.9388 H   0  0  0  0  0  0  0  0  0  0  0  0
   -9.5444  -16.1701   27.6950 H   0  0  0  0  0  0  0  0  0  0  0  0
   -9.6645  -14.6717   31.7395 H   0  0  0  0  0  0  0  0  0  0  0  0
   -5.8801  -25.2867   30.7131 H   0  0  0  0  0  0  0  0  0  0  0  0
  -12.9736  -12.4740   23.1451 H   0  0  0  0  0  0  0  0  0  0  0  0
   -9.8913   -9.6218   22.2630 H   0  0  0  0  0  0  0  0  0  0  0  0
   -7.7282  -26.9250   30.6429 H   0  0  0  0  0  0  0  0  0  0  0  0
  -13.6280  -20.0803   30.4993 H   0  0  0  0  0  0  0  0  0  0  0  0
  -10.5004   -9.8218   27.1111 H   0  0  0  0  0  0  0  0  0  0  0  0
  1  4  1  0
  1  6  1  0
  2 10  1  0
  2 23  1  0
  3  4  1  0
  3 29  2  0
  4  5  2  0
  5 18  1  0
  5 35  1  0
  6  7  2  0
  6 33  1  0
  7 19  1  0
  7 35  1  0
  8 19  2  0
  8 30  1  0
  9 20  2  0
  9 21  1  0
 10 21  2  0
 10 22  1  0
 11 20  1  0
 11 22  2  0
 11 31  1  0
 12 14  1  0
 12 24  1  0
 24 13  1  6
 13 34  1  0
 13 38  2  0
 14 24  1  0
 15 26  2  0
 15 27  1  0
 16 27  2  0
 16 28  1  0
 16 32  1  0
 17 26  1  0
 17 28  2  0
 18 25  2  0
 19 36  1  0
 20 36  1  0
 23 24  1  0
 23 37  2  0
 25 29  1  0
 26 34  1  0
 30 33  2  0
  1 39  1  0
  2 40  1  0
  3 41  1  0
  8 42  1  0
  9 43  1  0
 12 44  1  0
 12 45  1  0
 14 46  1  0
 14 47  1  0
 15 48  1  0
 17 49  1  0
 18 50  1  0
 21 51  1  0
 22 52  1  0
 25 53  1  0
 27 54  1  0
 28 55  1  0
 29 56  1  0
 30 57  1  0
 34 58  1  0
M  END
>  <filename_input>  (26) 
7V3S_5I9_docked.sdf

>  <pdb_id>  (26) 
7V3S_5I9

>  <pose_rank>  (26) 
25

>  <num_atoms_heavy>  (26) 
38

>  <num_torsions>  (26) 
6

>  <pose>  (26) 
[-9.343, -17.634, 29.263, 1e-06, 1e-06, 1e-06, 0.0, 0.0, 0.0, 0.0, 0.0, 0.0]

>  <energy>  (26) 
-1983.2634980948358

>  <inter_energy>  (26) 
-2066.14151546449

>  <intra_energy>  (26) 
78.79149165405656

>  <rmsd>  (26) 
0.0

>  <sdf_rank>  (26) 
0

$$$$
