
     RDKit          3D

 15 15  0  0  0  0  0  0  0  0999 V2000
  -42.8680   25.4903  -12.1263 C   0  0  0  0  0  0  0  0  0  0  0  0
  -42.2299   25.0931  -10.8338 C   0  0  0  0  0  0  0  0  0  0  0  0
  -40.9420   25.5409  -10.4354 C   0  0  0  0  0  0  0  0  0  0  0  0
  -40.3219   25.1879   -9.2541 C   0  0  0  0  0  0  0  0  0  0  0  0
  -40.9947   24.3048   -8.4896 C   0  0  0  0  0  0  0  0  0  0  0  0
  -40.2183   23.8707   -6.9765 Cl  0  0  0  0  0  0  0  0  0  0  0  0
  -42.2284   23.7707   -8.8027 C   0  0  0  0  0  0  0  0  0  0  0  0
  -42.8292   24.1882  -10.0026 C   0  0  0  0  0  0  0  0  0  0  0  0
  -43.7855   26.0615  -11.9219 H   0  0  0  0  0  0  0  0  0  0  0  0
  -42.1692   26.1133  -12.7039 H   0  0  0  0  0  0  0  0  0  0  0  0
  -43.1186   24.5884  -12.7039 H   0  0  0  0  0  0  0  0  0  0  0  0
  -40.4015   26.2156  -11.1156 H   0  0  0  0  0  0  0  0  0  0  0  0
  -39.3458   25.5988   -8.9568 H   0  0  0  0  0  0  0  0  0  0  0  0
  -42.7224   23.0462   -8.1386 H   0  0  0  0  0  0  0  0  0  0  0  0
  -43.8098   23.7749  -10.2811 H   0  0  0  0  0  0  0  0  0  0  0  0
  1  2  1  0
  2  3  2  0
  2  8  1  0
  3  4  1  0
  4  5  2  0
  5  6  1  0
  5  7  1  0
  7  8  2  0
  1  9  1  0
  1 10  1  0
  1 11  1  0
  3 12  1  0
  4 13  1  0
  7 14  1  0
  8 15  1  0
M  END
>  <filename_input>  (1) 
7V43_C4O_docked.sdf

>  <pdb_id>  (1) 
7V43_C4O

>  <pose_rank>  (1) 
0

>  <num_atoms_heavy>  (1) 
8

>  <num_torsions>  (1) 
0

>  <pose>  (1) 
[-42.86796831141691, 25.490322783506837, -12.12626755969806, 1.1893206603026585, -2.61221440358292, -1.4266774174649182]

>  <energy>  (1) 
-482.6716803316301

>  <inter_energy>  (1) 
-466.461040440685

>  <intra_energy>  (1) 
0.0

>  <rmsd>  (1) 
3.45978

>  <sdf_rank>  (1) 
0

$$$$

     RDKit          3D

 15 15  0  0  0  0  0  0  0  0999 V2000
  -40.8448   23.5530   -7.2710 C   0  0  0  0  0  0  0  0  0  0  0  0
  -41.3878   24.0847   -8.5586 C   0  0  0  0  0  0  0  0  0  0  0  0
  -42.6876   23.7727   -9.0393 C   0  0  0  0  0  0  0  0  0  0  0  0
  -43.2160   24.2401  -10.2255 C   0  0  0  0  0  0  0  0  0  0  0  0
  -42.3811   24.9864  -10.9757 C   0  0  0  0  0  0  0  0  0  0  0  0
  -43.0576   25.6000  -12.4746 Cl  0  0  0  0  0  0  0  0  0  0  0  0
  -41.0854   25.3106  -10.6273 C   0  0  0  0  0  0  0  0  0  0  0  0
  -40.6080   24.8347   -9.3942 C   0  0  0  0  0  0  0  0  0  0  0  0
  -41.3498   24.0475   -6.4281 H   0  0  0  0  0  0  0  0  0  0  0  0
  -41.0210   22.4685   -7.2188 H   0  0  0  0  0  0  0  0  0  0  0  0
  -39.7642   23.7519   -7.2188 H   0  0  0  0  0  0  0  0  0  0  0  0
  -43.3165   23.1128   -8.4235 H   0  0  0  0  0  0  0  0  0  0  0  0
  -44.2475   24.0189  -10.5372 H   0  0  0  0  0  0  0  0  0  0  0  0
  -40.4510   25.9182  -11.2893 H   0  0  0  0  0  0  0  0  0  0  0  0
  -39.5772   25.0725   -9.0928 H   0  0  0  0  0  0  0  0  0  0  0  0
  1  2  1  0
  2  3  2  0
  2  8  1  0
  3  4  1  0
  4  5  2  0
  5  6  1  0
  5  7  1  0
  7  8  2  0
  1  9  1  0
  1 10  1  0
  1 11  1  0
  3 12  1  0
  4 13  1  0
  7 14  1  0
  8 15  1  0
M  END
>  <filename_input>  (2) 
7V43_C4O_docked.sdf

>  <pdb_id>  (2) 
7V43_C4O

>  <pose_rank>  (2) 
1

>  <num_atoms_heavy>  (2) 
8

>  <num_torsions>  (2) 
0

>  <pose>  (2) 
[-40.84484549245365, 23.553010441598826, -7.2709915329465025, -3.87597272607509, 4.634365226602758, 0.883744065917311]

>  <energy>  (2) 
-426.37143567053596

>  <inter_energy>  (2) 
-425.89695914273307

>  <intra_energy>  (2) 
0.0

>  <rmsd>  (2) 
0.538878

>  <sdf_rank>  (2) 
0

$$$$

     RDKit          3D

 15 15  0  0  0  0  0  0  0  0999 V2000
  -43.6840   24.5058  -11.1602 C   0  0  0  0  0  0  0  0  0  0  0  0
  -42.7374   24.2353  -10.0350 C   0  0  0  0  0  0  0  0  0  0  0  0
  -42.9215   23.1779   -9.1045 C   0  0  0  0  0  0  0  0  0  0  0  0
  -42.0717   22.9057   -8.0516 C   0  0  0  0  0  0  0  0  0  0  0  0
  -41.0478   23.7685   -7.8974 C   0  0  0  0  0  0  0  0  0  0  0  0
  -39.9533   23.4123   -6.5721 Cl  0  0  0  0  0  0  0  0  0  0  0  0
  -40.8024   24.8544   -8.7135 C   0  0  0  0  0  0  0  0  0  0  0  0
  -41.6809   25.0674   -9.7895 C   0  0  0  0  0  0  0  0  0  0  0  0
  -44.6667   24.7865  -10.7533 H   0  0  0  0  0  0  0  0  0  0  0  0
  -43.2942   25.3285  -11.7777 H   0  0  0  0  0  0  0  0  0  0  0  0
  -43.7877   23.6013  -11.7777 H   0  0  0  0  0  0  0  0  0  0  0  0
  -43.8022   22.5313   -9.2319 H   0  0  0  0  0  0  0  0  0  0  0  0
  -42.2199   22.0439   -7.3842 H   0  0  0  0  0  0  0  0  0  0  0  0
  -39.9520   25.5272   -8.5287 H   0  0  0  0  0  0  0  0  0  0  0  0
  -41.5136   25.9284  -10.4534 H   0  0  0  0  0  0  0  0  0  0  0  0
  1  2  1  0
  2  3  2  0
  2  8  1  0
  3  4  1  0
  4  5  2  0
  5  6  1  0
  5  7  1  0
  7  8  2  0
  1  9  1  0
  1 10  1  0
  1 11  1  0
  3 12  1  0
  4 13  1  0
  7 14  1  0
  8 15  1  0
M  END
>  <filename_input>  (3) 
7V43_C4O_docked.sdf

>  <pdb_id>  (3) 
7V43_C4O

>  <pose_rank>  (3) 
2

>  <num_atoms_heavy>  (3) 
8

>  <num_torsions>  (3) 
0

>  <pose>  (3) 
[-43.68403466182136, 24.505755888667053, -11.16024927327149, -2.1556943695345705, -1.9718833959578763, 0.9834649392646949]

>  <energy>  (3) 
-409.7583493221107

>  <inter_energy>  (3) 
-416.8117110700398

>  <intra_energy>  (3) 
0.0

>  <rmsd>  (3) 
3.6565

>  <sdf_rank>  (3) 
0

$$$$

     RDKit          3D

 15 15  0  0  0  0  0  0  0  0999 V2000
  -43.2294   25.5937  -13.2570 C   0  0  0  0  0  0  0  0  0  0  0  0
  -42.4048   25.3984  -12.0252 C   0  0  0  0  0  0  0  0  0  0  0  0
  -42.7827   24.5257  -10.9699 C   0  0  0  0  0  0  0  0  0  0  0  0
  -42.0491   24.3281   -9.8177 C   0  0  0  0  0  0  0  0  0  0  0  0
  -40.9402   25.0854   -9.7016 C   0  0  0  0  0  0  0  0  0  0  0  0
  -39.9939   24.8206   -8.2471 Cl  0  0  0  0  0  0  0  0  0  0  0  0
  -40.5063   25.9971  -10.6429 C   0  0  0  0  0  0  0  0  0  0  0  0
  -41.2739   26.1361  -11.8118 C   0  0  0  0  0  0  0  0  0  0  0  0
  -44.2630   25.8386  -12.9713 H   0  0  0  0  0  0  0  0  0  0  0  0
  -42.8088   26.4171  -13.8530 H   0  0  0  0  0  0  0  0  0  0  0  0
  -43.2230   24.6692  -13.8530 H   0  0  0  0  0  0  0  0  0  0  0  0
  -43.7251   23.9689  -11.0787 H   0  0  0  0  0  0  0  0  0  0  0  0
  -42.3488   23.6025   -9.0472 H   0  0  0  0  0  0  0  0  0  0  0  0
  -39.5947   26.5919  -10.4841 H   0  0  0  0  0  0  0  0  0  0  0  0
  -40.9555   26.8594  -12.5770 H   0  0  0  0  0  0  0  0  0  0  0  0
  1  2  1  0
  2  3  2  0
  2  8  1  0
  3  4  1  0
  4  5  2  0
  5  6  1  0
  5  7  1  0
  7  8  2  0
  1  9  1  0
  1 10  1  0
  1 11  1  0
  3 12  1  0
  4 13  1  0
  7 14  1  0
  8 15  1  0
M  END
>  <filename_input>  (4) 
7V43_C4O_docked.sdf

>  <pdb_id>  (4) 
7V43_C4O

>  <pose_rank>  (4) 
3

>  <num_atoms_heavy>  (4) 
8

>  <num_torsions>  (4) 
0

>  <pose>  (4) 
[-43.229364152223695, 25.593739777538453, -13.257008030072292, -2.3958851374346883, -1.8320697613175732, 1.076780703110191]

>  <energy>  (4) 
-396.72752677132814

>  <inter_energy>  (4) 
-403.2146486694444

>  <intra_energy>  (4) 
0.0

>  <rmsd>  (4) 
3.66004

>  <sdf_rank>  (4) 
0

$$$$

     RDKit          3D

 15 15  0  0  0  0  0  0  0  0999 V2000
  -40.7300   24.1678   -8.0981 C   0  0  0  0  0  0  0  0  0  0  0  0
  -41.2860   24.4963   -9.4466 C   0  0  0  0  0  0  0  0  0  0  0  0
  -40.5181   25.1075  -10.4736 C   0  0  0  0  0  0  0  0  0  0  0  0
  -41.0019   25.4303  -11.7252 C   0  0  0  0  0  0  0  0  0  0  0  0
  -42.3144   25.1906  -11.9169 C   0  0  0  0  0  0  0  0  0  0  0  0
  -42.9275   25.5801  -13.5148 Cl  0  0  0  0  0  0  0  0  0  0  0  0
  -43.1618   24.6447  -10.9739 C   0  0  0  0  0  0  0  0  0  0  0  0
  -42.6103   24.3055   -9.7267 C   0  0  0  0  0  0  0  0  0  0  0  0
  -41.3989   24.5631   -7.3194 H   0  0  0  0  0  0  0  0  0  0  0  0
  -40.6479   23.0761   -7.9914 H   0  0  0  0  0  0  0  0  0  0  0  0
  -39.7341   24.6226   -7.9914 H   0  0  0  0  0  0  0  0  0  0  0  0
  -39.4650   25.3395  -10.2563 H   0  0  0  0  0  0  0  0  0  0  0  0
  -40.3606   25.8539  -12.5121 H   0  0  0  0  0  0  0  0  0  0  0  0
  -44.2279   24.4815  -11.1904 H   0  0  0  0  0  0  0  0  0  0  0  0
  -43.2631   23.8741   -8.9535 H   0  0  0  0  0  0  0  0  0  0  0  0
  1  2  1  0
  2  3  2  0
  2  8  1  0
  3  4  1  0
  4  5  2  0
  5  6  1  0
  5  7  1  0
  7  8  2  0
  1  9  1  0
  1 10  1  0
  1 11  1  0
  3 12  1  0
  4 13  1  0
  7 14  1  0
  8 15  1  0
M  END
>  <filename_input>  (5) 
7V43_C4O_docked.sdf

>  <pdb_id>  (5) 
7V43_C4O

>  <pose_rank>  (5) 
4

>  <num_atoms_heavy>  (5) 
8

>  <num_torsions>  (5) 
0

>  <pose>  (5) 
[-40.72998715919839, 24.167814537265226, -8.098084565216476, 1.3006630595717261, -0.7228199606090043, 2.6449013909891543]

>  <energy>  (5) 
-365.538436122819

>  <inter_energy>  (5) 
-353.3770402037399

>  <intra_energy>  (5) 
0.0

>  <rmsd>  (5) 
1.10134

>  <sdf_rank>  (5) 
0

$$$$

     RDKit          3D

 15 15  0  0  0  0  0  0  0  0999 V2000
  -40.7544   24.0793   -6.6855 C   0  0  0  0  0  0  0  0  0  0  0  0
  -40.8455   24.6835   -8.0500 C   0  0  0  0  0  0  0  0  0  0  0  0
  -39.7074   25.1024   -8.7898 C   0  0  0  0  0  0  0  0  0  0  0  0
  -39.7570   25.6698  -10.0469 C   0  0  0  0  0  0  0  0  0  0  0  0
  -40.9947   25.8808  -10.5373 C   0  0  0  0  0  0  0  0  0  0  0  0
  -41.0604   26.5824  -12.1449 Cl  0  0  0  0  0  0  0  0  0  0  0  0
  -42.1669   25.5562   -9.8847 C   0  0  0  0  0  0  0  0  0  0  0  0
  -42.0585   24.9521   -8.6206 C   0  0  0  0  0  0  0  0  0  0  0  0
  -40.8732   24.8671   -5.9270 H   0  0  0  0  0  0  0  0  0  0  0  0
  -41.5495   23.3292   -6.5627 H   0  0  0  0  0  0  0  0  0  0  0  0
  -39.7733   23.5971   -6.5627 H   0  0  0  0  0  0  0  0  0  0  0  0
  -38.7182   24.9651   -8.3287 H   0  0  0  0  0  0  0  0  0  0  0  0
  -38.8491   25.9317  -10.6099 H   0  0  0  0  0  0  0  0  0  0  0  0
  -43.1483   25.7625  -10.3368 H   0  0  0  0  0  0  0  0  0  0  0  0
  -42.9759   24.6876   -8.0744 H   0  0  0  0  0  0  0  0  0  0  0  0
  1  2  1  0
  2  3  2  0
  2  8  1  0
  3  4  1  0
  4  5  2  0
  5  6  1  0
  5  7  1  0
  7  8  2  0
  1  9  1  0
  1 10  1  0
  1 11  1  0
  3 12  1  0
  4 13  1  0
  7 14  1  0
  8 15  1  0
M  END
>  <filename_input>  (6) 
7V43_C4O_docked.sdf

>  <pdb_id>  (6) 
7V43_C4O

>  <pose_rank>  (6) 
5

>  <num_atoms_heavy>  (6) 
8

>  <num_torsions>  (6) 
0

>  <pose>  (6) 
[-40.75437491336221, 24.07930652424437, -6.685465581645086, 0.8286869535648971, -1.0432925760697982, 2.543591317663172]

>  <energy>  (6) 
-371.2642688969661

>  <inter_energy>  (6) 
-351.3973273981317

>  <intra_energy>  (6) 
0.0

>  <rmsd>  (6) 
1.29743

>  <sdf_rank>  (6) 
0

$$$$

     RDKit          3D

 15 15  0  0  0  0  0  0  0  0999 V2000
  -40.8458   22.9867   -7.0934 C   0  0  0  0  0  0  0  0  0  0  0  0
  -41.5577   23.7187   -8.1856 C   0  0  0  0  0  0  0  0  0  0  0  0
  -41.4764   25.1266   -8.3560 C   0  0  0  0  0  0  0  0  0  0  0  0
  -42.1258   25.8333   -9.3477 C   0  0  0  0  0  0  0  0  0  0  0  0
  -42.9320   25.1035  -10.1441 C   0  0  0  0  0  0  0  0  0  0  0  0
  -43.7424   25.9962  -11.4197 Cl  0  0  0  0  0  0  0  0  0  0  0  0
  -43.1209   23.7403  -10.0375 C   0  0  0  0  0  0  0  0  0  0  0  0
  -42.4112   23.0650   -9.0300 C   0  0  0  0  0  0  0  0  0  0  0  0
  -41.1994   23.3503   -6.1173 H   0  0  0  0  0  0  0  0  0  0  0  0
  -41.0510   21.9094   -7.1797 H   0  0  0  0  0  0  0  0  0  0  0  0
  -39.7633   23.1618   -7.1797 H   0  0  0  0  0  0  0  0  0  0  0  0
  -40.8527   25.6928   -7.6485 H   0  0  0  0  0  0  0  0  0  0  0  0
  -41.9945   26.9175   -9.4792 H   0  0  0  0  0  0  0  0  0  0  0  0
  -43.8009   23.2032  -10.7152 H   0  0  0  0  0  0  0  0  0  0  0  0
  -42.5464   21.9791   -8.9175 H   0  0  0  0  0  0  0  0  0  0  0  0
  1  2  1  0
  2  3  2  0
  2  8  1  0
  3  4  1  0
  4  5  2  0
  5  6  1  0
  5  7  1  0
  7  8  2  0
  1  9  1  0
  1 10  1  0
  1 11  1  0
  3 12  1  0
  4 13  1  0
  7 14  1  0
  8 15  1  0
M  END
>  <filename_input>  (7) 
7V43_C4O_docked.sdf

>  <pdb_id>  (7) 
7V43_C4O

>  <pose_rank>  (7) 
6

>  <num_atoms_heavy>  (7) 
8

>  <num_torsions>  (7) 
0

>  <pose>  (7) 
[-40.8458039919443, 22.98668635571451, -7.093440370852512, -3.6699909315711503, 3.2671757810632758, -6.991768798404602]

>  <energy>  (7) 
-306.3536373622551

>  <inter_energy>  (7) 
-304.6756532606789

>  <intra_energy>  (7) 
0.0

>  <rmsd>  (7) 
1.27765

>  <sdf_rank>  (7) 
0

$$$$

     RDKit          3D

 15 15  0  0  0  0  0  0  0  0999 V2000
  -42.2762   25.0703  -12.5886 C   0  0  0  0  0  0  0  0  0  0  0  0
  -41.8135   24.8497  -11.1841 C   0  0  0  0  0  0  0  0  0  0  0  0
  -42.5498   24.0904  -10.2358 C   0  0  0  0  0  0  0  0  0  0  0  0
  -42.1552   23.8738   -8.9312 C   0  0  0  0  0  0  0  0  0  0  0  0
  -41.0207   24.4993   -8.5591 C   0  0  0  0  0  0  0  0  0  0  0  0
  -40.5050   24.2082   -6.9067 Cl  0  0  0  0  0  0  0  0  0  0  0  0
  -40.2536   25.2971   -9.3841 C   0  0  0  0  0  0  0  0  0  0  0  0
  -40.6844   25.4587  -10.7119 C   0  0  0  0  0  0  0  0  0  0  0  0
  -43.2690   25.5438  -12.5775 H   0  0  0  0  0  0  0  0  0  0  0  0
  -41.5634   25.7254  -13.1109 H   0  0  0  0  0  0  0  0  0  0  0  0
  -42.3366   24.1041  -13.1109 H   0  0  0  0  0  0  0  0  0  0  0  0
  -43.5003   23.6444  -10.5640 H   0  0  0  0  0  0  0  0  0  0  0  0
  -42.7271   23.2347   -8.2424 H   0  0  0  0  0  0  0  0  0  0  0  0
  -39.3402   25.7874   -9.0162 H   0  0  0  0  0  0  0  0  0  0  0  0
  -40.0962   26.0936  -11.3908 H   0  0  0  0  0  0  0  0  0  0  0  0
  1  2  1  0
  2  3  2  0
  2  8  1  0
  3  4  1  0
  4  5  2  0
  5  6  1  0
  5  7  1  0
  7  8  2  0
  1  9  1  0
  1 10  1  0
  1 11  1  0
  3 12  1  0
  4 13  1  0
  7 14  1  0
  8 15  1  0
M  END
>  <filename_input>  (8) 
7V43_C4O_docked.sdf

>  <pdb_id>  (8) 
7V43_C4O

>  <pose_rank>  (8) 
7

>  <num_atoms_heavy>  (8) 
8

>  <num_torsions>  (8) 
0

>  <pose>  (8) 
[-42.276214732410125, 25.07033998862547, -12.58864841051525, -2.7406354167865197, -1.7028715152149285, 0.8461415789299401]

>  <energy>  (8) 
-443.71721790217634

>  <inter_energy>  (8) 
-442.62762757914874

>  <intra_energy>  (8) 
0.0

>  <rmsd>  (8) 
3.44397

>  <sdf_rank>  (8) 
0

$$$$

     RDKit          3D

 15 15  0  0  0  0  0  0  0  0999 V2000
  -41.1677   24.3156   -7.7126 C   0  0  0  0  0  0  0  0  0  0  0  0
  -41.5934   24.5914   -9.1191 C   0  0  0  0  0  0  0  0  0  0  0  0
  -42.7642   24.0329   -9.6982 C   0  0  0  0  0  0  0  0  0  0  0  0
  -43.1811   24.2609  -10.9939 C   0  0  0  0  0  0  0  0  0  0  0  0
  -42.3546   25.0184  -11.7422 C   0  0  0  0  0  0  0  0  0  0  0  0
  -42.8932   25.3278  -13.3839 Cl  0  0  0  0  0  0  0  0  0  0  0  0
  -41.1714   25.5712  -11.2953 C   0  0  0  0  0  0  0  0  0  0  0  0
  -40.8098   25.3334   -9.9583 C   0  0  0  0  0  0  0  0  0  0  0  0
  -41.8820   24.7784   -7.0159 H   0  0  0  0  0  0  0  0  0  0  0  0
  -41.1423   23.2289   -7.5436 H   0  0  0  0  0  0  0  0  0  0  0  0
  -40.1655   24.7364   -7.5436 H   0  0  0  0  0  0  0  0  0  0  0  0
  -43.3810   23.3730   -9.0705 H   0  0  0  0  0  0  0  0  0  0  0  0
  -44.1232   23.8526  -11.3887 H   0  0  0  0  0  0  0  0  0  0  0  0
  -40.5359   26.1746  -11.9601 H   0  0  0  0  0  0  0  0  0  0  0  0
  -39.8691   25.7565   -9.5760 H   0  0  0  0  0  0  0  0  0  0  0  0
  1  2  1  0
  2  3  2  0
  2  8  1  0
  3  4  1  0
  4  5  2  0
  5  6  1  0
  5  7  1  0
  7  8  2  0
  1  9  1  0
  1 10  1  0
  1 11  1  0
  3 12  1  0
  4 13  1  0
  7 14  1  0
  8 15  1  0
M  END
>  <filename_input>  (9) 
7V43_C4O_docked.sdf

>  <pdb_id>  (9) 
7V43_C4O

>  <pose_rank>  (9) 
8

>  <num_atoms_heavy>  (9) 
8

>  <num_torsions>  (9) 
0

>  <pose>  (9) 
[-41.167678742723346, 24.315557137027973, -7.71264949672866, -0.3596256520959474, -5.8527779810430465, 2.964087613742626]

>  <energy>  (9) 
-340.92937298972674

>  <inter_energy>  (9) 
-340.53847905541

>  <intra_energy>  (9) 
0.0

>  <rmsd>  (9) 
1.00169

>  <sdf_rank>  (9) 
0

$$$$

     RDKit          3D

 15 15  0  0  0  0  0  0  0  0999 V2000
  -39.6970   23.8390   -8.2841 C   0  0  0  0  0  0  0  0  0  0  0  0
  -40.9318   24.2500   -9.0203 C   0  0  0  0  0  0  0  0  0  0  0  0
  -41.4563   25.5694   -8.9779 C   0  0  0  0  0  0  0  0  0  0  0  0
  -42.5964   25.9795   -9.6389 C   0  0  0  0  0  0  0  0  0  0  0  0
  -43.2590   25.0118  -10.3033 C   0  0  0  0  0  0  0  0  0  0  0  0
  -44.6974   25.5349  -11.1625 Cl  0  0  0  0  0  0  0  0  0  0  0  0
  -42.8648   23.6907  -10.3710 C   0  0  0  0  0  0  0  0  0  0  0  0
  -41.6795   23.3336   -9.7057 C   0  0  0  0  0  0  0  0  0  0  0  0
  -39.8787   23.8995   -7.2009 H   0  0  0  0  0  0  0  0  0  0  0  0
  -39.4355   22.8054   -8.5549 H   0  0  0  0  0  0  0  0  0  0  0  0
  -38.8683   24.5098   -8.5549 H   0  0  0  0  0  0  0  0  0  0  0  0
  -40.9166   26.3159   -8.3767 H   0  0  0  0  0  0  0  0  0  0  0  0
  -42.9406   27.0242   -9.6245 H   0  0  0  0  0  0  0  0  0  0  0  0
  -43.4557   22.9460  -10.9244 H   0  0  0  0  0  0  0  0  0  0  0  0
  -41.3438   22.2865   -9.7375 H   0  0  0  0  0  0  0  0  0  0  0  0
  1  2  1  0
  2  3  2  0
  2  8  1  0
  3  4  1  0
  4  5  2  0
  5  6  1  0
  5  7  1  0
  7  8  2  0
  1  9  1  0
  1 10  1  0
  1 11  1  0
  3 12  1  0
  4 13  1  0
  7 14  1  0
  8 15  1  0
M  END
>  <filename_input>  (10) 
7V43_C4O_docked.sdf

>  <pdb_id>  (10) 
7V43_C4O

>  <pose_rank>  (10) 
9

>  <num_atoms_heavy>  (10) 
8

>  <num_torsions>  (10) 
0

>  <pose>  (10) 
[-39.69699373964608, 23.839024129635334, -8.284141022826589, 2.6944923087412667, -1.7868153715591912, 2.787052834521612]

>  <energy>  (10) 
-300.44569520991035

>  <inter_energy>  (10) 
-296.0347441630049

>  <intra_energy>  (10) 
0.0

>  <rmsd>  (10) 
1.39416

>  <sdf_rank>  (10) 
0

$$$$

     RDKit          3D

 15 15  0  0  0  0  0  0  0  0999 V2000
  -43.1842   26.4102  -12.0915 C   0  0  0  0  0  0  0  0  0  0  0  0
  -42.5931   25.8751  -10.8266 C   0  0  0  0  0  0  0  0  0  0  0  0
  -43.1518   24.7820  -10.1118 C   0  0  0  0  0  0  0  0  0  0  0  0
  -42.6360   24.2688   -8.9391 C   0  0  0  0  0  0  0  0  0  0  0  0
  -41.5677   24.9235   -8.4423 C   0  0  0  0  0  0  0  0  0  0  0  0
  -40.8967   24.2599   -6.9623 Cl  0  0  0  0  0  0  0  0  0  0  0  0
  -40.9744   26.0232   -9.0289 C   0  0  0  0  0  0  0  0  0  0  0  0
  -41.5206   26.4854  -10.2385 C   0  0  0  0  0  0  0  0  0  0  0  0
  -43.9796   27.1302  -11.8486 H   0  0  0  0  0  0  0  0  0  0  0  0
  -42.4012   26.9128  -12.6782 H   0  0  0  0  0  0  0  0  0  0  0  0
  -43.6067   25.5811  -12.6782 H   0  0  0  0  0  0  0  0  0  0  0  0
  -44.0581   24.3120  -10.5214 H   0  0  0  0  0  0  0  0  0  0  0  0
  -43.0671   23.3862   -8.4439 H   0  0  0  0  0  0  0  0  0  0  0  0
  -40.1075   26.5186   -8.5674 H   0  0  0  0  0  0  0  0  0  0  0  0
  -41.0721   27.3636  -10.7260 H   0  0  0  0  0  0  0  0  0  0  0  0
  1  2  1  0
  2  3  2  0
  2  8  1  0
  3  4  1  0
  4  5  2  0
  5  6  1  0
  5  7  1  0
  7  8  2  0
  1  9  1  0
  1 10  1  0
  1 11  1  0
  3 12  1  0
  4 13  1  0
  7 14  1  0
  8 15  1  0
M  END
>  <filename_input>  (11) 
7V43_C4O_docked.sdf

>  <pdb_id>  (11) 
7V43_C4O

>  <pose_rank>  (11) 
10

>  <num_atoms_heavy>  (11) 
8

>  <num_torsions>  (11) 
0

>  <pose>  (11) 
[-43.184180407464346, 26.410169830979605, -12.09146760738115, -7.30878832003882, -5.609602697522289, 1.8023018394379513]

>  <energy>  (11) 
-364.7201111815702

>  <inter_energy>  (11) 
-357.21910039159485

>  <intra_energy>  (11) 
0.0

>  <rmsd>  (11) 
3.53891

>  <sdf_rank>  (11) 
0

$$$$

     RDKit          3D

 15 15  0  0  0  0  0  0  0  0999 V2000
  -35.3731   33.1032   -9.5038 C   0  0  0  0  0  0  0  0  0  0  0  0
  -34.7764   32.7284  -10.8225 C   0  0  0  0  0  0  0  0  0  0  0  0
  -34.8268   31.4101  -11.3493 C   0  0  0  0  0  0  0  0  0  0  0  0
  -34.2805   31.0294  -12.5582 C   0  0  0  0  0  0  0  0  0  0  0  0
  -33.6070   31.9933  -13.2171 C   0  0  0  0  0  0  0  0  0  0  0  0
  -32.9296   31.5176  -14.7650 Cl  0  0  0  0  0  0  0  0  0  0  0  0
  -33.4562   33.2922  -12.7751 C   0  0  0  0  0  0  0  0  0  0  0  0
  -34.0592   33.6345  -11.5528 C   0  0  0  0  0  0  0  0  0  0  0  0
  -34.7449   32.7086   -8.6916 H   0  0  0  0  0  0  0  0  0  0  0  0
  -35.4289   34.1990   -9.4248 H   0  0  0  0  0  0  0  0  0  0  0  0
  -36.3845   32.6779   -9.4248 H   0  0  0  0  0  0  0  0  0  0  0  0
  -35.3364   30.6393  -10.7524 H   0  0  0  0  0  0  0  0  0  0  0  0
  -34.3874   30.0097  -12.9565 H   0  0  0  0  0  0  0  0  0  0  0  0
  -32.8860   34.0311  -13.3574 H   0  0  0  0  0  0  0  0  0  0  0  0
  -33.9508   34.6610  -11.1726 H   0  0  0  0  0  0  0  0  0  0  0  0
  1  2  1  0
  2  3  2  0
  2  8  1  0
  3  4  1  0
  4  5  2  0
  5  6  1  0
  5  7  1  0
  7  8  2  0
  1  9  1  0
  1 10  1  0
  1 11  1  0
  3 12  1  0
  4 13  1  0
  7 14  1  0
  8 15  1  0
M  END
>  <filename_input>  (12) 
7V43_C4O_docked.sdf

>  <pdb_id>  (12) 
7V43_C4O

>  <pose_rank>  (12) 
11

>  <num_atoms_heavy>  (12) 
8

>  <num_torsions>  (12) 
0

>  <pose>  (12) 
[-35.373075027876965, 33.10322647802195, -9.503789581725238, 1.689626893749021, 3.2839798203331365, -3.3152032752198997]

>  <energy>  (12) 
-116.36063924277786

>  <inter_energy>  (12) 
-98.46343860475348

>  <intra_energy>  (12) 
0.0

>  <rmsd>  (12) 
11.0001

>  <sdf_rank>  (12) 
0

$$$$

     RDKit          3D

 15 15  0  0  0  0  0  0  0  0999 V2000
  -48.8394   30.9814   -1.9426 C   0  0  0  0  0  0  0  0  0  0  0  0
  -48.3540   31.8638   -3.0477 C   0  0  0  0  0  0  0  0  0  0  0  0
  -49.0794   32.0680   -4.2519 C   0  0  0  0  0  0  0  0  0  0  0  0
  -48.6569   32.8691   -5.2932 C   0  0  0  0  0  0  0  0  0  0  0  0
  -47.4373   33.4221   -5.1390 C   0  0  0  0  0  0  0  0  0  0  0  0
  -46.9067   34.4586   -6.4524 Cl  0  0  0  0  0  0  0  0  0  0  0  0
  -46.6292   33.2524   -4.0329 C   0  0  0  0  0  0  0  0  0  0  0  0
  -47.1214   32.4519   -2.9879 C   0  0  0  0  0  0  0  0  0  0  0  0
  -48.5890   31.4365   -0.9730 H   0  0  0  0  0  0  0  0  0  0  0  0
  -49.9302   30.8621   -2.0209 H   0  0  0  0  0  0  0  0  0  0  0  0
  -48.3563   29.9963   -2.0209 H   0  0  0  0  0  0  0  0  0  0  0  0
  -50.0446   31.5520   -4.3619 H   0  0  0  0  0  0  0  0  0  0  0  0
  -49.2730   33.0443   -6.1875 H   0  0  0  0  0  0  0  0  0  0  0  0
  -45.6381   33.7255   -3.9717 H   0  0  0  0  0  0  0  0  0  0  0  0
  -46.4969   32.2941   -2.0962 H   0  0  0  0  0  0  0  0  0  0  0  0
  1  2  1  0
  2  3  2  0
  2  8  1  0
  3  4  1  0
  4  5  2  0
  5  6  1  0
  5  7  1  0
  7  8  2  0
  1  9  1  0
  1 10  1  0
  1 11  1  0
  3 12  1  0
  4 13  1  0
  7 14  1  0
  8 15  1  0
M  END
>  <filename_input>  (13) 
7V43_C4O_docked.sdf

>  <pdb_id>  (13) 
7V43_C4O

>  <pose_rank>  (13) 
12

>  <num_atoms_heavy>  (13) 
8

>  <num_torsions>  (13) 
0

>  <pose>  (13) 
[-48.83944921489635, 30.981353903030502, -1.942606984910351, 0.37407041071440966, -0.8108336231767346, -0.2655149407838446]

>  <energy>  (13) 
-114.08576171547612

>  <inter_energy>  (13) 
-100.03664257154308

>  <intra_energy>  (13) 
0.0

>  <rmsd>  (13) 
11.6113

>  <sdf_rank>  (13) 
0

$$$$

     RDKit          3D

 15 15  0  0  0  0  0  0  0  0999 V2000
  -34.7655   15.9316  -10.0269 C   0  0  0  0  0  0  0  0  0  0  0  0
  -35.8107   15.8332  -11.0916 C   0  0  0  0  0  0  0  0  0  0  0  0
  -36.9692   15.0205  -10.9676 C   0  0  0  0  0  0  0  0  0  0  0  0
  -37.9483   14.9017  -11.9330 C   0  0  0  0  0  0  0  0  0  0  0  0
  -37.7128   15.5692  -13.0801 C   0  0  0  0  0  0  0  0  0  0  0  0
  -38.9665   15.4371  -14.3015 Cl  0  0  0  0  0  0  0  0  0  0  0  0
  -36.6000   16.3484  -13.3244 C   0  0  0  0  0  0  0  0  0  0  0  0
  -35.6492   16.4603  -12.2955 C   0  0  0  0  0  0  0  0  0  0  0  0
  -35.2445   15.8865   -9.0377 H   0  0  0  0  0  0  0  0  0  0  0  0
  -34.0575   15.0961  -10.1299 H   0  0  0  0  0  0  0  0  0  0  0  0
  -34.2258   16.8845  -10.1299 H   0  0  0  0  0  0  0  0  0  0  0  0
  -37.0947   14.4463  -10.0377 H   0  0  0  0  0  0  0  0  0  0  0  0
  -38.8581   14.3034  -11.7771 H   0  0  0  0  0  0  0  0  0  0  0  0
  -36.4625   16.8621  -14.2873 H   0  0  0  0  0  0  0  0  0  0  0  0
  -34.7493   17.0700  -12.4638 H   0  0  0  0  0  0  0  0  0  0  0  0
  1  2  1  0
  2  3  2  0
  2  8  1  0
  3  4  1  0
  4  5  2  0
  5  6  1  0
  5  7  1  0
  7  8  2  0
  1  9  1  0
  1 10  1  0
  1 11  1  0
  3 12  1  0
  4 13  1  0
  7 14  1  0
  8 15  1  0
M  END
>  <filename_input>  (14) 
7V43_C4O_docked.sdf

>  <pdb_id>  (14) 
7V43_C4O

>  <pose_rank>  (14) 
13

>  <num_atoms_heavy>  (14) 
8

>  <num_torsions>  (14) 
0

>  <pose>  (14) 
[-34.765548356087, 15.931559380026185, -10.026922363321995, -0.15040849628448225, 0.23267627060250115, 0.32621307959865614]

>  <energy>  (14) 
-109.6111769182517

>  <inter_energy>  (14) 
-99.42645831141793

>  <intra_energy>  (14) 
0.0

>  <rmsd>  (14) 
10.6233

>  <sdf_rank>  (14) 
0

$$$$

     RDKit          3D

 15 15  0  0  0  0  0  0  0  0999 V2000
  -47.5830   27.8302   -3.3121 C   0  0  0  0  0  0  0  0  0  0  0  0
  -47.8193   29.2796   -3.0313 C   0  0  0  0  0  0  0  0  0  0  0  0
  -48.3716   29.7526   -1.8109 C   0  0  0  0  0  0  0  0  0  0  0  0
  -48.6090   31.0813   -1.5229 C   0  0  0  0  0  0  0  0  0  0  0  0
  -48.3443   31.9456   -2.5227 C   0  0  0  0  0  0  0  0  0  0  0  0
  -48.6251   33.6381   -2.1517 Cl  0  0  0  0  0  0  0  0  0  0  0  0
  -47.8511   31.5902   -3.7620 C   0  0  0  0  0  0  0  0  0  0  0  0
  -47.5977   30.2271   -3.9914 C   0  0  0  0  0  0  0  0  0  0  0  0
  -47.4937   27.2825   -2.3623 H   0  0  0  0  0  0  0  0  0  0  0  0
  -48.4272   27.4263   -3.8903 H   0  0  0  0  0  0  0  0  0  0  0  0
  -46.6543   27.7154   -3.8903 H   0  0  0  0  0  0  0  0  0  0  0  0
  -48.6276   29.0084   -1.0424 H   0  0  0  0  0  0  0  0  0  0  0  0
  -48.9882   31.4121   -0.5448 H   0  0  0  0  0  0  0  0  0  0  0  0
  -47.6636   32.3448   -4.5400 H   0  0  0  0  0  0  0  0  0  0  0  0
  -47.2097   29.9135   -4.9718 H   0  0  0  0  0  0  0  0  0  0  0  0
  1  2  1  0
  2  3  2  0
  2  8  1  0
  3  4  1  0
  4  5  2  0
  5  6  1  0
  5  7  1  0
  7  8  2  0
  1  9  1  0
  1 10  1  0
  1 11  1  0
  3 12  1  0
  4 13  1  0
  7 14  1  0
  8 15  1  0
M  END
>  <filename_input>  (15) 
7V43_C4O_docked.sdf

>  <pdb_id>  (15) 
7V43_C4O

>  <pose_rank>  (15) 
14

>  <num_atoms_heavy>  (15) 
8

>  <num_torsions>  (15) 
0

>  <pose>  (15) 
[-47.58302535872052, 27.83018024644369, -3.3120986608556144, -1.8194556384026195, -3.168892917676675, 2.80683968344983]

>  <energy>  (15) 
-109.19327410893743

>  <inter_energy>  (15) 
-83.23207752524934

>  <intra_energy>  (15) 
0.0

>  <rmsd>  (15) 
11.405

>  <sdf_rank>  (15) 
0

$$$$

     RDKit          3D

 15 15  0  0  0  0  0  0  0  0999 V2000
  -35.9569   21.1019  -17.1140 C   0  0  0  0  0  0  0  0  0  0  0  0
  -35.1701   20.1810  -16.2374 C   0  0  0  0  0  0  0  0  0  0  0  0
  -34.9322   18.8183  -16.5605 C   0  0  0  0  0  0  0  0  0  0  0  0
  -34.2173   17.9405  -15.7711 C   0  0  0  0  0  0  0  0  0  0  0  0
  -33.7919   18.4380  -14.5928 C   0  0  0  0  0  0  0  0  0  0  0  0
  -32.8640   17.3302  -13.5964 Cl  0  0  0  0  0  0  0  0  0  0  0  0
  -34.0077   19.7305  -14.1590 C   0  0  0  0  0  0  0  0  0  0  0  0
  -34.7144   20.5917  -15.0157 C   0  0  0  0  0  0  0  0  0  0  0  0
  -36.5448   21.7900  -16.4888 H   0  0  0  0  0  0  0  0  0  0  0  0
  -35.2695   21.6800  -17.7490 H   0  0  0  0  0  0  0  0  0  0  0  0
  -36.6352   20.5131  -17.7490 H   0  0  0  0  0  0  0  0  0  0  0  0
  -35.3464   18.4363  -17.5053 H   0  0  0  0  0  0  0  0  0  0  0  0
  -34.0090   16.9062  -16.0821 H   0  0  0  0  0  0  0  0  0  0  0  0
  -33.6406   20.0733  -13.1804 H   0  0  0  0  0  0  0  0  0  0  0  0
  -34.9064   21.6259  -14.6940 H   0  0  0  0  0  0  0  0  0  0  0  0
  1  2  1  0
  2  3  2  0
  2  8  1  0
  3  4  1  0
  4  5  2  0
  5  6  1  0
  5  7  1  0
  7  8  2  0
  1  9  1  0
  1 10  1  0
  1 11  1  0
  3 12  1  0
  4 13  1  0
  7 14  1  0
  8 15  1  0
M  END
>  <filename_input>  (16) 
7V43_C4O_docked.sdf

>  <pdb_id>  (16) 
7V43_C4O

>  <pose_rank>  (16) 
15

>  <num_atoms_heavy>  (16) 
8

>  <num_torsions>  (16) 
0

>  <pose>  (16) 
[-35.95687064137611, 21.101866396809854, -17.113990143710506, -1.4810978826414718, -2.3751462354876582, -0.38979853123528374]

>  <energy>  (16) 
-104.21408090205192

>  <inter_energy>  (16) 
-82.82032639349805

>  <intra_energy>  (16) 
0.0

>  <rmsd>  (16) 
11.2515

>  <sdf_rank>  (16) 
0

$$$$

     RDKit          3D

 15 15  0  0  0  0  0  0  0  0999 V2000
  -43.5148   17.2387    0.0637 C   0  0  0  0  0  0  0  0  0  0  0  0
  -42.0921   16.8063   -0.0923 C   0  0  0  0  0  0  0  0  0  0  0  0
  -41.5543   15.6621    0.5554 C   0  0  0  0  0  0  0  0  0  0  0  0
  -40.2455   15.2402    0.4387 C   0  0  0  0  0  0  0  0  0  0  0  0
  -39.4450   16.0364   -0.2976 C   0  0  0  0  0  0  0  0  0  0  0  0
  -37.7852   15.4907   -0.4654 Cl  0  0  0  0  0  0  0  0  0  0  0  0
  -39.8514   17.1937   -0.9307 C   0  0  0  0  0  0  0  0  0  0  0  0
  -41.2021   17.5606   -0.8049 C   0  0  0  0  0  0  0  0  0  0  0  0
  -43.7602   17.3132    1.1334 H   0  0  0  0  0  0  0  0  0  0  0  0
  -43.6544   18.2198   -0.4138 H   0  0  0  0  0  0  0  0  0  0  0  0
  -44.1766   16.5011   -0.4138 H   0  0  0  0  0  0  0  0  0  0  0  0
  -42.2276   15.0716    1.1942 H   0  0  0  0  0  0  0  0  0  0  0  0
  -39.8807   14.3176    0.9138 H   0  0  0  0  0  0  0  0  0  0  0  0
  -39.1451   17.8053   -1.5113 H   0  0  0  0  0  0  0  0  0  0  0  0
  -41.5533   18.4813   -1.2938 H   0  0  0  0  0  0  0  0  0  0  0  0
  1  2  1  0
  2  3  2  0
  2  8  1  0
  3  4  1  0
  4  5  2  0
  5  6  1  0
  5  7  1  0
  7  8  2  0
  1  9  1  0
  1 10  1  0
  1 11  1  0
  3 12  1  0
  4 13  1  0
  7 14  1  0
  8 15  1  0
M  END
>  <filename_input>  (17) 
7V43_C4O_docked.sdf

>  <pdb_id>  (17) 
7V43_C4O

>  <pose_rank>  (17) 
16

>  <num_atoms_heavy>  (17) 
8

>  <num_torsions>  (17) 
0

>  <pose>  (17) 
[-43.51483574324976, 17.238666434976945, 0.06369643130932404, 2.0714701370760227, 2.222096195355689, -2.4282664086931316]

>  <energy>  (17) 
-100.30889335128965

>  <inter_energy>  (17) 
-81.47591637745998

>  <intra_energy>  (17) 
0.0

>  <rmsd>  (17) 
13.0743

>  <sdf_rank>  (17) 
0

$$$$

     RDKit          3D

 15 15  0  0  0  0  0  0  0  0999 V2000
  -32.3484   18.0619  -12.9398 C   0  0  0  0  0  0  0  0  0  0  0  0
  -32.6702   19.0529  -14.0121 C   0  0  0  0  0  0  0  0  0  0  0  0
  -33.9826   19.5449  -14.2442 C   0  0  0  0  0  0  0  0  0  0  0  0
  -34.3146   20.4532  -15.2287 C   0  0  0  0  0  0  0  0  0  0  0  0
  -33.3040   20.8194  -16.0419 C   0  0  0  0  0  0  0  0  0  0  0  0
  -33.7188   21.9909  -17.2814 Cl  0  0  0  0  0  0  0  0  0  0  0  0
  -32.0039   20.3678  -15.9359 C   0  0  0  0  0  0  0  0  0  0  0  0
  -31.7137   19.4679  -14.8962 C   0  0  0  0  0  0  0  0  0  0  0  0
  -32.4992   18.5262  -11.9541 H   0  0  0  0  0  0  0  0  0  0  0  0
  -33.0088   17.1877  -13.0383 H   0  0  0  0  0  0  0  0  0  0  0  0
  -31.3003   17.7426  -13.0383 H   0  0  0  0  0  0  0  0  0  0  0  0
  -34.7899   19.1763  -13.5942 H   0  0  0  0  0  0  0  0  0  0  0  0
  -35.3339   20.8510  -15.3420 H   0  0  0  0  0  0  0  0  0  0  0  0
  -31.2249   20.6995  -16.6382 H   0  0  0  0  0  0  0  0  0  0  0  0
  -30.6873   19.0866  -14.7907 H   0  0  0  0  0  0  0  0  0  0  0  0
  1  2  1  0
  2  3  2  0
  2  8  1  0
  3  4  1  0
  4  5  2  0
  5  6  1  0
  5  7  1  0
  7  8  2  0
  1  9  1  0
  1 10  1  0
  1 11  1  0
  3 12  1  0
  4 13  1  0
  7 14  1  0
  8 15  1  0
M  END
>  <filename_input>  (18) 
7V43_C4O_docked.sdf

>  <pdb_id>  (18) 
7V43_C4O

>  <pose_rank>  (18) 
17

>  <num_atoms_heavy>  (18) 
8

>  <num_torsions>  (18) 
0

>  <pose>  (18) 
[-32.34835847847081, 18.061894438180904, -12.93984084074345, -2.1573933718025997, -0.11277359996530593, 5.209633148479543]

>  <energy>  (18) 
-95.12892610118735

>  <inter_energy>  (18) 
-81.10249183683663

>  <intra_energy>  (18) 
0.0

>  <rmsd>  (18) 
11.2778

>  <sdf_rank>  (18) 
0

$$$$

     RDKit          3D

 15 15  0  0  0  0  0  0  0  0999 V2000
  -33.4046   31.3918  -17.5623 C   0  0  0  0  0  0  0  0  0  0  0  0
  -33.8580   31.6768  -16.1664 C   0  0  0  0  0  0  0  0  0  0  0  0
  -33.0863   31.3511  -15.0190 C   0  0  0  0  0  0  0  0  0  0  0  0
  -33.4783   31.5936  -13.7181 C   0  0  0  0  0  0  0  0  0  0  0  0
  -34.7123   32.1162  -13.5742 C   0  0  0  0  0  0  0  0  0  0  0  0
  -35.2048   32.4456  -11.9219 Cl  0  0  0  0  0  0  0  0  0  0  0  0
  -35.5632   32.4267  -14.6159 C   0  0  0  0  0  0  0  0  0  0  0  0
  -35.1018   32.1887  -15.9218 C   0  0  0  0  0  0  0  0  0  0  0  0
  -32.4736   30.8065  -17.5331 H   0  0  0  0  0  0  0  0  0  0  0  0
  -34.1812   30.8191  -18.0904 H   0  0  0  0  0  0  0  0  0  0  0  0
  -33.2252   32.3399  -18.0904 H   0  0  0  0  0  0  0  0  0  0  0  0
  -32.1088   30.8725  -15.1785 H   0  0  0  0  0  0  0  0  0  0  0  0
  -32.8283   31.3754  -12.8580 H   0  0  0  0  0  0  0  0  0  0  0  0
  -36.5639   32.8443  -14.4309 H   0  0  0  0  0  0  0  0  0  0  0  0
  -35.7604   32.4210  -16.7716 H   0  0  0  0  0  0  0  0  0  0  0  0
  1  2  1  0
  2  3  2  0
  2  8  1  0
  3  4  1  0
  4  5  2  0
  5  6  1  0
  5  7  1  0
  7  8  2  0
  1  9  1  0
  1 10  1  0
  1 11  1  0
  3 12  1  0
  4 13  1  0
  7 14  1  0
  8 15  1  0
M  END
>  <filename_input>  (19) 
7V43_C4O_docked.sdf

>  <pdb_id>  (19) 
7V43_C4O

>  <pose_rank>  (19) 
18

>  <num_atoms_heavy>  (19) 
8

>  <num_torsions>  (19) 
0

>  <pose>  (19) 
[-33.40455608441098, 31.391752491316083, -17.5622633276935, 0.21770622342667353, -3.945898540312154, -0.15189767994993902]

>  <energy>  (19) 
-90.51999405790544

>  <inter_energy>  (19) 
-75.10974151439929

>  <intra_energy>  (19) 
0.0

>  <rmsd>  (19) 
11.8307

>  <sdf_rank>  (19) 
0

$$$$

     RDKit          3D

 15 15  0  0  0  0  0  0  0  0999 V2000
  -48.1470   27.2247   -2.8400 C   0  0  0  0  0  0  0  0  0  0  0  0
  -48.6010   28.5335   -3.4024 C   0  0  0  0  0  0  0  0  0  0  0  0
  -49.8372   29.1401   -3.0533 C   0  0  0  0  0  0  0  0  0  0  0  0
  -50.2890   30.3422   -3.5588 C   0  0  0  0  0  0  0  0  0  0  0  0
  -49.5000   30.9094   -4.4930 C   0  0  0  0  0  0  0  0  0  0  0  0
  -50.0615   32.4489   -5.1219 Cl  0  0  0  0  0  0  0  0  0  0  0  0
  -48.3043   30.3837   -4.9395 C   0  0  0  0  0  0  0  0  0  0  0  0
  -47.8757   29.1732   -4.3687 C   0  0  0  0  0  0  0  0  0  0  0  0
  -48.1635   27.2722   -1.7412 H   0  0  0  0  0  0  0  0  0  0  0  0
  -48.8203   26.4251   -3.1826 H   0  0  0  0  0  0  0  0  0  0  0  0
  -47.1232   27.0138   -3.1826 H   0  0  0  0  0  0  0  0  0  0  0  0
  -50.4787   28.6154   -2.3300 H   0  0  0  0  0  0  0  0  0  0  0  0
  -51.2282   30.8055   -3.2226 H   0  0  0  0  0  0  0  0  0  0  0  0
  -47.7097   30.8928   -5.7123 H   0  0  0  0  0  0  0  0  0  0  0  0
  -46.9294   28.7275   -4.7091 H   0  0  0  0  0  0  0  0  0  0  0  0
  1  2  1  0
  2  3  2  0
  2  8  1  0
  3  4  1  0
  4  5  2  0
  5  6  1  0
  5  7  1  0
  7  8  2  0
  1  9  1  0
  1 10  1  0
  1 11  1  0
  3 12  1  0
  4 13  1  0
  7 14  1  0
  8 15  1  0
M  END
>  <filename_input>  (20) 
7V43_C4O_docked.sdf

>  <pdb_id>  (20) 
7V43_C4O

>  <pose_rank>  (20) 
19

>  <num_atoms_heavy>  (20) 
8

>  <num_torsions>  (20) 
0

>  <pose>  (20) 
[-48.1469846205255, 27.224663561952987, -2.8400410101267815, -5.804025515753581, -4.8191430891602165, 8.823274082924668]

>  <energy>  (20) 
-66.59616593600524

>  <inter_energy>  (20) 
-64.10745864973174

>  <intra_energy>  (20) 
0.0

>  <rmsd>  (20) 
10.7363

>  <sdf_rank>  (20) 
0

$$$$

     RDKit          3D

 15 15  0  0  0  0  0  0  0  0999 V2000
  -36.2085   15.9961   -9.1207 C   0  0  0  0  0  0  0  0  0  0  0  0
  -35.5761   16.0020  -10.4755 C   0  0  0  0  0  0  0  0  0  0  0  0
  -35.5164   14.8525  -11.3080 C   0  0  0  0  0  0  0  0  0  0  0  0
  -34.9343   14.8221  -12.5590 C   0  0  0  0  0  0  0  0  0  0  0  0
  -34.3375   15.9668  -12.9467 C   0  0  0  0  0  0  0  0  0  0  0  0
  -33.6152   15.9375  -14.5462 Cl  0  0  0  0  0  0  0  0  0  0  0  0
  -34.2951   17.1261  -12.1986 C   0  0  0  0  0  0  0  0  0  0  0  0
  -34.9306   17.1117  -10.9453 C   0  0  0  0  0  0  0  0  0  0  0  0
  -35.4239   16.0034   -8.3498 H   0  0  0  0  0  0  0  0  0  0  0  0
  -36.8419   16.8883   -9.0078 H   0  0  0  0  0  0  0  0  0  0  0  0
  -36.8250   15.0921   -9.0078 H   0  0  0  0  0  0  0  0  0  0  0  0
  -35.9651   13.9223  -10.9293 H   0  0  0  0  0  0  0  0  0  0  0  0
  -34.9559   13.9254  -13.1958 H   0  0  0  0  0  0  0  0  0  0  0  0
  -33.7834   18.0266  -12.5693 H   0  0  0  0  0  0  0  0  0  0  0  0
  -34.9081   18.0195  -10.3245 H   0  0  0  0  0  0  0  0  0  0  0  0
  1  2  1  0
  2  3  2  0
  2  8  1  0
  3  4  1  0
  4  5  2  0
  5  6  1  0
  5  7  1  0
  7  8  2  0
  1  9  1  0
  1 10  1  0
  1 11  1  0
  3 12  1  0
  4 13  1  0
  7 14  1  0
  8 15  1  0
M  END
>  <filename_input>  (21) 
7V43_C4O_docked.sdf

>  <pdb_id>  (21) 
7V43_C4O

>  <pose_rank>  (21) 
20

>  <num_atoms_heavy>  (21) 
8

>  <num_torsions>  (21) 
0

>  <pose>  (21) 
[-36.208521643163465, 15.996074698770919, -9.120710535672282, 0.7834823817981718, 3.775539666159394, -3.1216935487918147]

>  <energy>  (21) 
-83.79850503243372

>  <inter_energy>  (21) 
-67.95545081704338

>  <intra_energy>  (21) 
0.0

>  <rmsd>  (21) 
11.4122

>  <sdf_rank>  (21) 
0

$$$$

     RDKit          3D

 15 15  0  0  0  0  0  0  0  0999 V2000
  -47.6658   27.9237   -3.0415 C   0  0  0  0  0  0  0  0  0  0  0  0
  -46.9635   29.2401   -2.9447 C   0  0  0  0  0  0  0  0  0  0  0  0
  -46.7066   29.8924   -1.7091 C   0  0  0  0  0  0  0  0  0  0  0  0
  -46.0682   31.1097   -1.5853 C   0  0  0  0  0  0  0  0  0  0  0  0
  -45.7436   31.7129   -2.7462 C   0  0  0  0  0  0  0  0  0  0  0  0
  -44.9122   33.2510   -2.5912 Cl  0  0  0  0  0  0  0  0  0  0  0  0
  -45.9884   31.1915   -4.0006 C   0  0  0  0  0  0  0  0  0  0  0  0
  -46.6130   29.9345   -4.0688 C   0  0  0  0  0  0  0  0  0  0  0  0
  -47.8696   27.5416   -2.0303 H   0  0  0  0  0  0  0  0  0  0  0  0
  -48.6146   28.0533   -3.5827 H   0  0  0  0  0  0  0  0  0  0  0  0
  -47.0298   27.2078   -3.5827 H   0  0  0  0  0  0  0  0  0  0  0  0
  -47.0396   29.3928   -0.7875 H   0  0  0  0  0  0  0  0  0  0  0  0
  -45.8399   31.5569   -0.6065 H   0  0  0  0  0  0  0  0  0  0  0  0
  -45.7055   31.7389   -4.9118 H   0  0  0  0  0  0  0  0  0  0  0  0
  -46.8260   29.4966   -5.0552 H   0  0  0  0  0  0  0  0  0  0  0  0
  1  2  1  0
  2  3  2  0
  2  8  1  0
  3  4  1  0
  4  5  2  0
  5  6  1  0
  5  7  1  0
  7  8  2  0
  1  9  1  0
  1 10  1  0
  1 11  1  0
  3 12  1  0
  4 13  1  0
  7 14  1  0
  8 15  1  0
M  END
>  <filename_input>  (22) 
7V43_C4O_docked.sdf

>  <pdb_id>  (22) 
7V43_C4O

>  <pose_rank>  (22) 
21

>  <num_atoms_heavy>  (22) 
8

>  <num_torsions>  (22) 
0

>  <pose>  (22) 
[-47.66578379617756, 27.923712049910428, -3.04149540325089, -1.4295488259638145, -2.1757664087800683, 3.034857171909959]

>  <energy>  (22) 
-71.13419757592673

>  <inter_energy>  (22) 
-69.7484659951973

>  <intra_energy>  (22) 
0.0

>  <rmsd>  (22) 
10.4597

>  <sdf_rank>  (22) 
0

$$$$

     RDKit          3D

 15 15  0  0  0  0  0  0  0  0999 V2000
  -47.8546   28.9771   -1.9864 C   0  0  0  0  0  0  0  0  0  0  0  0
  -47.4797   30.3111   -1.4248 C   0  0  0  0  0  0  0  0  0  0  0  0
  -47.4044   30.5716   -0.0304 C   0  0  0  0  0  0  0  0  0  0  0  0
  -47.0690   31.7918    0.5204 C   0  0  0  0  0  0  0  0  0  0  0  0
  -46.8722   32.7903   -0.3634 C   0  0  0  0  0  0  0  0  0  0  0  0
  -46.4245   34.3379    0.3334 Cl  0  0  0  0  0  0  0  0  0  0  0  0
  -46.9659   32.6593   -1.7343 C   0  0  0  0  0  0  0  0  0  0  0  0
  -47.2796   31.3876   -2.2434 C   0  0  0  0  0  0  0  0  0  0  0  0
  -48.0519   28.2750   -1.1630 H   0  0  0  0  0  0  0  0  0  0  0  0
  -48.7585   29.0805   -2.6047 H   0  0  0  0  0  0  0  0  0  0  0  0
  -47.0292   28.5945   -2.6047 H   0  0  0  0  0  0  0  0  0  0  0  0
  -47.6290   29.7435    0.6580 H   0  0  0  0  0  0  0  0  0  0  0  0
  -46.9692   31.9393    1.6059 H   0  0  0  0  0  0  0  0  0  0  0  0
  -46.8013   33.5174   -2.4026 H   0  0  0  0  0  0  0  0  0  0  0  0
  -47.3667   31.2545   -3.3318 H   0  0  0  0  0  0  0  0  0  0  0  0
  1  2  1  0
  2  3  2  0
  2  8  1  0
  3  4  1  0
  4  5  2  0
  5  6  1  0
  5  7  1  0
  7  8  2  0
  1  9  1  0
  1 10  1  0
  1 11  1  0
  3 12  1  0
  4 13  1  0
  7 14  1  0
  8 15  1  0
M  END
>  <filename_input>  (23) 
7V43_C4O_docked.sdf

>  <pdb_id>  (23) 
7V43_C4O

>  <pose_rank>  (23) 
22

>  <num_atoms_heavy>  (23) 
8

>  <num_torsions>  (23) 
0

>  <pose>  (23) 
[-47.85459013781666, 28.97712073015994, -1.9864073979655192, -1.5852252719341595, -2.8275859983772875, 2.4608279712746493]

>  <energy>  (23) 
-70.82804669612679

>  <inter_energy>  (23) 
-60.33581837450472

>  <intra_energy>  (23) 
0.0

>  <rmsd>  (23) 
12.7679

>  <sdf_rank>  (23) 
0

$$$$

     RDKit          3D

 15 15  0  0  0  0  0  0  0  0999 V2000
  -46.1164   31.9150   -5.6546 C   0  0  0  0  0  0  0  0  0  0  0  0
  -47.0386   31.6368   -4.5111 C   0  0  0  0  0  0  0  0  0  0  0  0
  -47.8743   32.6281   -3.9306 C   0  0  0  0  0  0  0  0  0  0  0  0
  -48.7305   32.4066   -2.8711 C   0  0  0  0  0  0  0  0  0  0  0  0
  -48.6879   31.1673   -2.3428 C   0  0  0  0  0  0  0  0  0  0  0  0
  -49.7914   30.8767   -1.0091 Cl  0  0  0  0  0  0  0  0  0  0  0  0
  -47.8808   30.1440   -2.7976 C   0  0  0  0  0  0  0  0  0  0  0  0
  -47.0510   30.4145   -3.8991 C   0  0  0  0  0  0  0  0  0  0  0  0
  -45.1309   32.2123   -5.2669 H   0  0  0  0  0  0  0  0  0  0  0  0
  -46.0106   31.0088   -6.2691 H   0  0  0  0  0  0  0  0  0  0  0  0
  -46.5293   32.7286   -6.2691 H   0  0  0  0  0  0  0  0  0  0  0  0
  -47.8363   33.6423   -4.3548 H   0  0  0  0  0  0  0  0  0  0  0  0
  -49.4016   33.1878   -2.4843 H   0  0  0  0  0  0  0  0  0  0  0  0
  -47.8868   29.1549   -2.3163 H   0  0  0  0  0  0  0  0  0  0  0  0
  -46.3926   29.6198   -4.2797 H   0  0  0  0  0  0  0  0  0  0  0  0
  1  2  1  0
  2  3  2  0
  2  8  1  0
  3  4  1  0
  4  5  2  0
  5  6  1  0
  5  7  1  0
  7  8  2  0
  1  9  1  0
  1 10  1  0
  1 11  1  0
  3 12  1  0
  4 13  1  0
  7 14  1  0
  8 15  1  0
M  END
>  <filename_input>  (24) 
7V43_C4O_docked.sdf

>  <pdb_id>  (24) 
7V43_C4O

>  <pose_rank>  (24) 
23

>  <num_atoms_heavy>  (24) 
8

>  <num_torsions>  (24) 
0

>  <pose>  (24) 
[-46.116405693430444, 31.914985605750303, -5.654596913566104, -2.596498268005847, 0.9274684409114526, 0.03900966046052552]

>  <energy>  (24) 
-64.76348453117737

>  <inter_energy>  (24) 
-67.2564672486442

>  <intra_energy>  (24) 
0.0

>  <rmsd>  (24) 
11.5072

>  <sdf_rank>  (24) 
0

$$$$

     RDKit          3D

 15 15  0  0  0  0  0  0  0  0999 V2000
  -51.5658   31.1382  -18.3765 C   0  0  0  0  0  0  0  0  0  0  0  0
  -50.4386   32.0444  -17.9972 C   0  0  0  0  0  0  0  0  0  0  0  0
  -50.2056   32.4752  -16.6637 C   0  0  0  0  0  0  0  0  0  0  0  0
  -49.1802   33.3160  -16.2813 C   0  0  0  0  0  0  0  0  0  0  0  0
  -48.4137   33.7866  -17.2852 C   0  0  0  0  0  0  0  0  0  0  0  0
  -47.0957   34.8390  -16.7994 Cl  0  0  0  0  0  0  0  0  0  0  0  0
  -48.5806   33.4710  -18.6186 C   0  0  0  0  0  0  0  0  0  0  0  0
  -49.6206   32.5857  -18.9494 C   0  0  0  0  0  0  0  0  0  0  0  0
  -52.0472   30.7512  -17.4664 H   0  0  0  0  0  0  0  0  0  0  0  0
  -52.3024   31.6984  -18.9711 H   0  0  0  0  0  0  0  0  0  0  0  0
  -51.1769   30.2985  -18.9711 H   0  0  0  0  0  0  0  0  0  0  0  0
  -50.8898   32.1136  -15.8820 H   0  0  0  0  0  0  0  0  0  0  0  0
  -49.0008   33.5838  -15.2296 H   0  0  0  0  0  0  0  0  0  0  0  0
  -47.9247   33.8962  -19.3926 H   0  0  0  0  0  0  0  0  0  0  0  0
  -49.7811   32.3206  -20.0048 H   0  0  0  0  0  0  0  0  0  0  0  0
  1  2  1  0
  2  3  2  0
  2  8  1  0
  3  4  1  0
  4  5  2  0
  5  6  1  0
  5  7  1  0
  7  8  2  0
  1  9  1  0
  1 10  1  0
  1 11  1  0
  3 12  1  0
  4 13  1  0
  7 14  1  0
  8 15  1  0
M  END
>  <filename_input>  (25) 
7V43_C4O_docked.sdf

>  <pdb_id>  (25) 
7V43_C4O

>  <pose_rank>  (25) 
24

>  <num_atoms_heavy>  (25) 
8

>  <num_torsions>  (25) 
0

>  <pose>  (25) 
[-51.5657675628541, 31.138246448422084, -18.37650682980725, 1.339833724352773, 1.0781398641175628, -1.873921347418019]

>  <energy>  (25) 
-60.788946805809374

>  <inter_energy>  (25) 
-56.06101246472916

>  <intra_energy>  (25) 
0.0

>  <rmsd>  (25) 
14.1119

>  <sdf_rank>  (25) 
0

$$$$

     RDKit          3D

 15 15  0  0  0  0  0  0  0  0999 V2000
  -40.1710   24.1380   -7.2120 C   0  0  0  0  0  0  0  0  0  0  0  0
  -40.8970   24.5100   -8.4650 C   0  0  0  0  0  0  0  0  0  0  0  0
  -42.2380   24.1220   -8.7280 C   0  0  0  0  0  0  0  0  0  0  0  0
  -42.9340   24.4420   -9.8760 C   0  0  0  0  0  0  0  0  0  0  0  0
  -42.2310   25.1130  -10.8100 C   0  0  0  0  0  0  0  0  0  0  0  0
  -43.1200   25.5400  -12.2620 Cl  0  0  0  0  0  0  0  0  0  0  0  0
  -40.9120   25.4980  -10.6780 C   0  0  0  0  0  0  0  0  0  0  0  0
  -40.2600   25.1740   -9.4760 C   0  0  0  0  0  0  0  0  0  0  0  0
  -40.7665   24.4431   -6.3389 H   0  0  0  0  0  0  0  0  0  0  0  0
  -40.0158   23.0493   -7.1876 H   0  0  0  0  0  0  0  0  0  0  0  0
  -39.1966   24.6479   -7.1876 H   0  0  0  0  0  0  0  0  0  0  0  0
  -42.7576   23.5253   -7.9638 H   0  0  0  0  0  0  0  0  0  0  0  0
  -43.9898   24.1683  -10.0189 H   0  0  0  0  0  0  0  0  0  0  0  0
  -40.3913   26.0377  -11.4827 H   0  0  0  0  0  0  0  0  0  0  0  0
  -39.2068   25.4630   -9.3449 H   0  0  0  0  0  0  0  0  0  0  0  0
  1  2  1  0
  2  3  2  0
  2  8  1  0
  3  4  1  0
  4  5  2  0
  5  6  1  0
  5  7  1  0
  7  8  2  0
  1  9  1  0
  1 10  1  0
  1 11  1  0
  3 12  1  0
  4 13  1  0
  7 14  1  0
  8 15  1  0
M  END
>  <filename_input>  (26) 
7V43_C4O_docked.sdf

>  <pdb_id>  (26) 
7V43_C4O

>  <pose_rank>  (26) 
25

>  <num_atoms_heavy>  (26) 
8

>  <num_torsions>  (26) 
0

>  <pose>  (26) 
[-40.171, 24.138, -7.212, 1e-06, 1e-06, 1e-06]

>  <energy>  (26) 
-379.9412686717645

>  <inter_energy>  (26) 
-373.8977488300331

>  <intra_energy>  (26) 
0.0

>  <rmsd>  (26) 
0.0

>  <sdf_rank>  (26) 
0

$$$$
