
     RDKit          3D

 29 30  0  0  0  0  0  0  0  0999 V2000
    8.0064   16.7938  -32.2544 C   0  0  0  0  0  0  0  0  0  0  0  0
    7.9112   15.9939  -31.1320 C   0  0  0  0  0  0  0  0  0  0  0  0
    6.9684   16.3031  -30.1535 C   0  0  0  0  0  0  0  0  0  0  0  0
    6.1303   17.4133  -30.2858 C   0  0  0  0  0  0  0  0  0  0  0  0
    6.2030   18.1859  -31.4518 C   0  0  0  0  0  0  0  0  0  0  0  0
    7.1435   17.8699  -32.4172 C   0  0  0  0  0  0  0  0  0  0  0  0
    5.3847   19.3890  -31.6684 C   0  0  0  0  0  0  0  0  0  0  0  0
    4.4765   19.8826  -30.8634 C   0  0  0  0  0  0  0  0  0  0  0  0
    3.6672   21.0826  -31.0800 C   0  0  0  0  0  0  0  0  0  0  0  0
    2.7326   21.5008  -30.1351 C   0  0  0  0  0  0  0  0  0  0  0  0
    1.9964   22.6622  -30.3162 C   0  0  0  0  0  0  0  0  0  0  0  0
    2.1294   23.4000  -31.4873 C   0  0  0  0  0  0  0  0  0  0  0  0
    3.0652   23.0159  -32.4206 C   0  0  0  0  0  0  0  0  0  0  0  0
    3.8108   21.8779  -32.2190 C   0  0  0  0  0  0  0  0  0  0  0  0
    1.4059   24.5468  -31.6806 O   0  0  0  0  0  0  0  0  0  0  0  0
    6.9827   15.5566  -28.9942 O   0  0  0  0  0  0  0  0  0  0  0  0
    8.8940   16.5096  -33.2805 O   0  0  0  0  0  0  0  0  0  0  0  0
    8.5721   15.1228  -31.0121 H   0  0  0  0  0  0  0  0  0  0  0  0
    5.4233   17.6768  -29.4854 H   0  0  0  0  0  0  0  0  0  0  0  0
    7.2085   18.4817  -33.3290 H   0  0  0  0  0  0  0  0  0  0  0  0
    5.5537   19.9336  -32.6090 H   0  0  0  0  0  0  0  0  0  0  0  0
    4.3038   19.3367  -29.9241 H   0  0  0  0  0  0  0  0  0  0  0  0
    2.5756   20.8984  -29.2282 H   0  0  0  0  0  0  0  0  0  0  0  0
    1.3049   23.0009  -29.5307 H   0  0  0  0  0  0  0  0  0  0  0  0
    3.2168   23.6191  -33.3279 H   0  0  0  0  0  0  0  0  0  0  0  0
    4.5465   21.5837  -32.9820 H   0  0  0  0  0  0  0  0  0  0  0  0
    1.5103   25.0625  -32.5192 H   0  0  0  0  0  0  0  0  0  0  0  0
    6.3287   15.7458  -28.2754 H   0  0  0  0  0  0  0  0  0  0  0  0
    8.9402   17.1010  -34.0730 H   0  0  0  0  0  0  0  0  0  0  0  0
  1  2  2  0
  1  6  1  0
  1 17  1  0
  2  3  1  0
  3  4  2  0
  3 16  1  0
  4  5  1  0
  5  6  2  0
  5  7  1  0
  7  8  2  3
  8  9  1  0
  9 10  2  0
  9 14  1  0
 10 11  1  0
 11 12  2  0
 12 13  1  0
 12 15  1  0
 13 14  2  0
  2 18  1  0
  4 19  1  0
  6 20  1  0
  7 21  1  0
  8 22  1  0
 10 23  1  0
 11 24  1  0
 13 25  1  0
 14 26  1  0
 15 27  1  0
 16 28  1  0
 17 29  1  0
M  END
>  <filename_input>  (1) 
7VB8_STL_docked.sdf

>  <pdb_id>  (1) 
7VB8_STL

>  <pose_rank>  (1) 
0

>  <num_atoms_heavy>  (1) 
17

>  <num_torsions>  (1) 
2

>  <pose>  (1) 
[5.3846975166057485, 19.38895497266916, -31.66836228386217, -6.110485900849094, -1.3620210377106108, 0.17257947601106555, -6.339738409028654, -0.1392267350977461]

>  <energy>  (1) 
-745.6188607656852

>  <inter_energy>  (1) 
-727.4555103393923

>  <intra_energy>  (1) 
0.0

>  <rmsd>  (1) 
0.49029

>  <sdf_rank>  (1) 
0

$$$$

     RDKit          3D

 29 30  0  0  0  0  0  0  0  0999 V2000
    6.9002   16.1577  -30.3175 C   0  0  0  0  0  0  0  0  0  0  0  0
    7.8837   15.8167  -31.2259 C   0  0  0  0  0  0  0  0  0  0  0  0
    8.1495   16.6709  -32.2944 C   0  0  0  0  0  0  0  0  0  0  0  0
    7.4295   17.8561  -32.4655 C   0  0  0  0  0  0  0  0  0  0  0  0
    6.4704   18.2140  -31.5095 C   0  0  0  0  0  0  0  0  0  0  0  0
    6.2144   17.3579  -30.4524 C   0  0  0  0  0  0  0  0  0  0  0  0
    5.6422   19.4247  -31.6195 C   0  0  0  0  0  0  0  0  0  0  0  0
    4.4661   19.6297  -31.0797 C   0  0  0  0  0  0  0  0  0  0  0  0
    3.6467   20.8375  -31.1875 C   0  0  0  0  0  0  0  0  0  0  0  0
    2.8345   21.2527  -30.1344 C   0  0  0  0  0  0  0  0  0  0  0  0
    2.0916   22.4211  -30.2161 C   0  0  0  0  0  0  0  0  0  0  0  0
    2.0906   23.1697  -31.3878 C   0  0  0  0  0  0  0  0  0  0  0  0
    2.9057   22.7885  -32.4292 C   0  0  0  0  0  0  0  0  0  0  0  0
    3.6606   21.6432  -32.3281 C   0  0  0  0  0  0  0  0  0  0  0  0
    1.3587   24.3235  -31.4832 O   0  0  0  0  0  0  0  0  0  0  0  0
    9.0511   16.2424  -33.2458 O   0  0  0  0  0  0  0  0  0  0  0  0
    6.6230   15.3697  -29.2114 O   0  0  0  0  0  0  0  0  0  0  0  0
    8.4506   14.8815  -31.1071 H   0  0  0  0  0  0  0  0  0  0  0  0
    7.6133   18.4991  -33.3389 H   0  0  0  0  0  0  0  0  0  0  0  0
    5.4545   17.6329  -29.7061 H   0  0  0  0  0  0  0  0  0  0  0  0
    6.0554   20.2479  -32.2208 H   0  0  0  0  0  0  0  0  0  0  0  0
    4.0501   18.8058  -30.4813 H   0  0  0  0  0  0  0  0  0  0  0  0
    2.7814   20.6423  -29.2209 H   0  0  0  0  0  0  0  0  0  0  0  0
    1.5010   22.7567  -29.3508 H   0  0  0  0  0  0  0  0  0  0  0  0
    2.9533   23.3997  -33.3425 H   0  0  0  0  0  0  0  0  0  0  0  0
    4.2979   21.3515  -33.1759 H   0  0  0  0  0  0  0  0  0  0  0  0
    1.3670   24.8469  -32.3235 H   0  0  0  0  0  0  0  0  0  0  0  0
    9.2662   16.8209  -34.0199 H   0  0  0  0  0  0  0  0  0  0  0  0
    5.9122   15.6392  -28.5772 H   0  0  0  0  0  0  0  0  0  0  0  0
  1  2  2  0
  1  6  1  0
  1 17  1  0
  2  3  1  0
  3  4  2  0
  3 16  1  0
  4  5  1  0
  5  6  2  0
  5  7  1  0
  7  8  2  3
  8  9  1  0
  9 10  2  0
  9 14  1  0
 10 11  1  0
 11 12  2  0
 12 13  1  0
 12 15  1  0
 13 14  2  0
  2 18  1  0
  4 19  1  0
  6 20  1  0
  7 21  1  0
  8 22  1  0
 10 23  1  0
 11 24  1  0
 13 25  1  0
 14 26  1  0
 15 27  1  0
 16 28  1  0
 17 29  1  0
M  END
>  <filename_input>  (2) 
7VB8_STL_docked.sdf

>  <pdb_id>  (2) 
7VB8_STL

>  <pose_rank>  (2) 
1

>  <num_atoms_heavy>  (2) 
17

>  <num_torsions>  (2) 
2

>  <pose>  (2) 
[5.642167551611476, 19.42470354321873, -31.619548573304076, 0.35205273370573403, -0.3558026852015668, 0.06061066556515888, -9.878511255004932, 0.44248112079077884]

>  <energy>  (2) 
-742.2411910232519

>  <inter_energy>  (2) 
-728.0113019091331

>  <intra_energy>  (2) 
0.0

>  <rmsd>  (2) 
0.673141

>  <sdf_rank>  (2) 
0

$$$$

     RDKit          3D

 29 30  0  0  0  0  0  0  0  0999 V2000
    7.8038   16.9725  -32.1208 C   0  0  0  0  0  0  0  0  0  0  0  0
    7.7113   16.2295  -30.9597 C   0  0  0  0  0  0  0  0  0  0  0  0
    6.7240   16.5430  -30.0275 C   0  0  0  0  0  0  0  0  0  0  0  0
    5.8384   17.6017  -30.2447 C   0  0  0  0  0  0  0  0  0  0  0  0
    5.9111   18.3140  -31.4485 C   0  0  0  0  0  0  0  0  0  0  0  0
    6.8959   17.9943  -32.3672 C   0  0  0  0  0  0  0  0  0  0  0  0
    5.0433   19.4618  -31.7542 C   0  0  0  0  0  0  0  0  0  0  0  0
    4.5337   20.3165  -30.9021 C   0  0  0  0  0  0  0  0  0  0  0  0
    3.6741   21.4603  -31.2103 C   0  0  0  0  0  0  0  0  0  0  0  0
    3.6723   22.0385  -32.4779 C   0  0  0  0  0  0  0  0  0  0  0  0
    2.8263   23.0933  -32.7865 C   0  0  0  0  0  0  0  0  0  0  0  0
    2.0064   23.6428  -31.8070 C   0  0  0  0  0  0  0  0  0  0  0  0
    1.9768   23.0692  -30.5563 C   0  0  0  0  0  0  0  0  0  0  0  0
    2.7991   22.0051  -30.2680 C   0  0  0  0  0  0  0  0  0  0  0  0
    1.1688   24.6869  -32.0973 O   0  0  0  0  0  0  0  0  0  0  0  0
    6.7371   15.8607  -28.8293 O   0  0  0  0  0  0  0  0  0  0  0  0
    8.7363   16.6786  -33.1034 O   0  0  0  0  0  0  0  0  0  0  0  0
    8.4091   15.3999  -30.7732 H   0  0  0  0  0  0  0  0  0  0  0  0
    5.0943   17.8720  -29.4809 H   0  0  0  0  0  0  0  0  0  0  0  0
    6.9606   18.5593  -33.3088 H   0  0  0  0  0  0  0  0  0  0  0  0
    4.7952   19.6198  -32.8142 H   0  0  0  0  0  0  0  0  0  0  0  0
    4.7779   20.1575  -29.8414 H   0  0  0  0  0  0  0  0  0  0  0  0
    4.3549   21.6511  -33.2486 H   0  0  0  0  0  0  0  0  0  0  0  0
    2.8037   23.4965  -33.8097 H   0  0  0  0  0  0  0  0  0  0  0  0
    1.2953   23.4617  -29.7873 H   0  0  0  0  0  0  0  0  0  0  0  0
    2.7665   21.5677  -29.2592 H   0  0  0  0  0  0  0  0  0  0  0  0
    0.5903   25.0687  -31.3904 H   0  0  0  0  0  0  0  0  0  0  0  0
    6.0522   16.0551  -28.1414 H   0  0  0  0  0  0  0  0  0  0  0  0
    8.7795   17.2288  -33.9254 H   0  0  0  0  0  0  0  0  0  0  0  0
  1  2  2  0
  1  6  1  0
  1 17  1  0
  2  3  1  0
  3  4  2  0
  3 16  1  0
  4  5  1  0
  5  6  2  0
  5  7  1  0
  7  8  2  3
  8  9  1  0
  9 10  2  0
  9 14  1  0
 10 11  1  0
 11 12  2  0
 12 13  1  0
 12 15  1  0
 13 14  2  0
  2 18  1  0
  4 19  1  0
  6 20  1  0
  7 21  1  0
  8 22  1  0
 10 23  1  0
 11 24  1  0
 13 25  1  0
 14 26  1  0
 15 27  1  0
 16 28  1  0
 17 29  1  0
M  END
>  <filename_input>  (3) 
7VB8_STL_docked.sdf

>  <pdb_id>  (3) 
7VB8_STL

>  <pose_rank>  (3) 
2

>  <num_atoms_heavy>  (3) 
17

>  <num_torsions>  (3) 
2

>  <pose>  (3) 
[5.043344306164781, 19.461822515865098, -31.754226275184553, 3.655609345836538, -4.360525802018802, 0.6007585247809022, 0.5113645320135262, -3.6787911151176598]

>  <energy>  (3) 
-742.1807160680559

>  <inter_energy>  (3) 
-724.2342062038988

>  <intra_energy>  (3) 
0.0

>  <rmsd>  (3) 
0.270584

>  <sdf_rank>  (3) 
0

$$$$

     RDKit          3D

 29 30  0  0  0  0  0  0  0  0999 V2000
    6.6975   16.2916  -30.3038 C   0  0  0  0  0  0  0  0  0  0  0  0
    7.7394   15.9605  -31.1485 C   0  0  0  0  0  0  0  0  0  0  0  0
    8.0290   16.7900  -32.2302 C   0  0  0  0  0  0  0  0  0  0  0  0
    7.2753   17.9403  -32.4779 C   0  0  0  0  0  0  0  0  0  0  0  0
    6.2547   18.2908  -31.5850 C   0  0  0  0  0  0  0  0  0  0  0  0
    5.9755   17.4594  -30.5141 C   0  0  0  0  0  0  0  0  0  0  0  0
    5.3890   19.4643  -31.7781 C   0  0  0  0  0  0  0  0  0  0  0  0
    4.5151   19.9498  -30.9313 C   0  0  0  0  0  0  0  0  0  0  0  0
    3.6584   21.1205  -31.1250 C   0  0  0  0  0  0  0  0  0  0  0  0
    3.6577   21.8206  -32.3296 C   0  0  0  0  0  0  0  0  0  0  0  0
    2.8142   22.9027  -32.5325 C   0  0  0  0  0  0  0  0  0  0  0  0
    1.9961   23.3553  -31.5033 C   0  0  0  0  0  0  0  0  0  0  0  0
    1.9653   22.6615  -30.3151 C   0  0  0  0  0  0  0  0  0  0  0  0
    2.7851   21.5722  -30.1332 C   0  0  0  0  0  0  0  0  0  0  0  0
    1.1610   24.4250  -31.6890 O   0  0  0  0  0  0  0  0  0  0  0  0
    8.9946   16.3669  -33.1190 O   0  0  0  0  0  0  0  0  0  0  0  0
    6.3920   15.5290  -29.1873 O   0  0  0  0  0  0  0  0  0  0  0  0
    8.3336   15.0523  -30.9693 H   0  0  0  0  0  0  0  0  0  0  0  0
    7.4807   18.5619  -33.3619 H   0  0  0  0  0  0  0  0  0  0  0  0
    5.1678   17.7282  -29.8174 H   0  0  0  0  0  0  0  0  0  0  0  0
    5.4859   19.9918  -32.7385 H   0  0  0  0  0  0  0  0  0  0  0  0
    4.4145   19.4210  -29.9721 H   0  0  0  0  0  0  0  0  0  0  0  0
    4.3390   21.5091  -33.1351 H   0  0  0  0  0  0  0  0  0  0  0  0
    2.7924   23.4047  -33.5111 H   0  0  0  0  0  0  0  0  0  0  0  0
    1.2851   22.9782  -29.5107 H   0  0  0  0  0  0  0  0  0  0  0  0
    2.7516   21.0377  -29.1724 H   0  0  0  0  0  0  0  0  0  0  0  0
    0.5838   24.7369  -30.9476 H   0  0  0  0  0  0  0  0  0  0  0  0
    9.2285   16.9284  -33.9002 H   0  0  0  0  0  0  0  0  0  0  0  0
    5.6394   15.7907  -28.5999 H   0  0  0  0  0  0  0  0  0  0  0  0
  1  2  2  0
  1  6  1  0
  1 17  1  0
  2  3  1  0
  3  4  2  0
  3 16  1  0
  4  5  1  0
  5  6  2  0
  5  7  1  0
  7  8  2  3
  8  9  1  0
  9 10  2  0
  9 14  1  0
 10 11  1  0
 11 12  2  0
 12 13  1  0
 12 15  1  0
 13 14  2  0
  2 18  1  0
  4 19  1  0
  6 20  1  0
  7 21  1  0
  8 22  1  0
 10 23  1  0
 11 24  1  0
 13 25  1  0
 14 26  1  0
 15 27  1  0
 16 28  1  0
 17 29  1  0
M  END
>  <filename_input>  (4) 
7VB8_STL_docked.sdf

>  <pdb_id>  (4) 
7VB8_STL

>  <pose_rank>  (4) 
3

>  <num_atoms_heavy>  (4) 
17

>  <num_torsions>  (4) 
2

>  <pose>  (4) 
[5.388978258076425, 19.46426526548659, -31.778127208961113, 0.21752174148271344, -5.670018851691886, -2.531392147341289, 53.52672444491889, -3.225230028236431]

>  <energy>  (4) 
-736.0728980372722

>  <inter_energy>  (4) 
-717.4636002705187

>  <intra_energy>  (4) 
0.0

>  <rmsd>  (4) 
0.471162

>  <sdf_rank>  (4) 
0

$$$$

     RDKit          3D

 29 30  0  0  0  0  0  0  0  0999 V2000
    6.0765   16.9436  -30.2068 C   0  0  0  0  0  0  0  0  0  0  0  0
    7.2141   16.6539  -30.9353 C   0  0  0  0  0  0  0  0  0  0  0  0
    7.6099   17.5197  -31.9530 C   0  0  0  0  0  0  0  0  0  0  0  0
    6.8683   18.6652  -32.2533 C   0  0  0  0  0  0  0  0  0  0  0  0
    5.7459   18.9732  -31.4740 C   0  0  0  0  0  0  0  0  0  0  0  0
    5.3617   18.1059  -30.4659 C   0  0  0  0  0  0  0  0  0  0  0  0
    4.8862   20.1385  -31.7324 C   0  0  0  0  0  0  0  0  0  0  0  0
    3.9522   20.6207  -30.9503 C   0  0  0  0  0  0  0  0  0  0  0  0
    3.1016   21.7834  -31.2086 C   0  0  0  0  0  0  0  0  0  0  0  0
    2.4719   22.4604  -30.1664 C   0  0  0  0  0  0  0  0  0  0  0  0
    1.7019   23.5894  -30.4030 C   0  0  0  0  0  0  0  0  0  0  0  0
    1.4863   24.0296  -31.7043 C   0  0  0  0  0  0  0  0  0  0  0  0
    2.1201   23.3883  -32.7441 C   0  0  0  0  0  0  0  0  0  0  0  0
    2.9047   22.2862  -32.4965 C   0  0  0  0  0  0  0  0  0  0  0  0
    0.7251   25.1410  -31.9524 O   0  0  0  0  0  0  0  0  0  0  0  0
    8.6786   17.1382  -32.7365 O   0  0  0  0  0  0  0  0  0  0  0  0
    5.6597   16.1434  -29.1545 O   0  0  0  0  0  0  0  0  0  0  0  0
    7.8008   15.7500  -30.7144 H   0  0  0  0  0  0  0  0  0  0  0  0
    7.1617   19.3160  -33.0901 H   0  0  0  0  0  0  0  0  0  0  0  0
    4.4747   18.3414  -29.8593 H   0  0  0  0  0  0  0  0  0  0  0  0
    5.0448   20.6623  -32.6866 H   0  0  0  0  0  0  0  0  0  0  0  0
    3.7900   20.0955  -29.9975 H   0  0  0  0  0  0  0  0  0  0  0  0
    2.5875   22.0924  -29.1362 H   0  0  0  0  0  0  0  0  0  0  0  0
    1.2603   24.1386  -29.5584 H   0  0  0  0  0  0  0  0  0  0  0  0
    1.9991   23.7573  -33.7733 H   0  0  0  0  0  0  0  0  0  0  0  0
    3.3945   21.7828  -33.3431 H   0  0  0  0  0  0  0  0  0  0  0  0
    0.5796   25.4435  -32.8837 H   0  0  0  0  0  0  0  0  0  0  0  0
    8.9897   17.7263  -33.4697 H   0  0  0  0  0  0  0  0  0  0  0  0
    4.8401   16.3759  -28.6503 H   0  0  0  0  0  0  0  0  0  0  0  0
  1  2  2  0
  1  6  1  0
  1 17  1  0
  2  3  1  0
  3  4  2  0
  3 16  1  0
  4  5  1  0
  5  6  2  0
  5  7  1  0
  7  8  2  3
  8  9  1  0
  9 10  2  0
  9 14  1  0
 10 11  1  0
 11 12  2  0
 12 13  1  0
 12 15  1  0
 13 14  2  0
  2 18  1  0
  4 19  1  0
  6 20  1  0
  7 21  1  0
  8 22  1  0
 10 23  1  0
 11 24  1  0
 13 25  1  0
 14 26  1  0
 15 27  1  0
 16 28  1  0
 17 29  1  0
M  END
>  <filename_input>  (5) 
7VB8_STL_docked.sdf

>  <pdb_id>  (5) 
7VB8_STL

>  <pose_rank>  (5) 
4

>  <num_atoms_heavy>  (5) 
17

>  <num_torsions>  (5) 
2

>  <pose>  (5) 
[4.88618784496828, 20.13851341113304, -31.732384885065713, 1.4288955723755912, 0.8285265557812582, -6.023098945057198, -9.247347949804341, -6.0512283016955175]

>  <energy>  (5) 
-684.7384690902387

>  <inter_energy>  (5) 
-677.1974887254913

>  <intra_energy>  (5) 
0.0

>  <rmsd>  (5) 
0.532343

>  <sdf_rank>  (5) 
0

$$$$

     RDKit          3D

 29 30  0  0  0  0  0  0  0  0999 V2000
    7.4363   17.1584  -31.5553 C   0  0  0  0  0  0  0  0  0  0  0  0
    7.1748   16.3791  -30.4449 C   0  0  0  0  0  0  0  0  0  0  0  0
    6.1307   16.7355  -29.5935 C   0  0  0  0  0  0  0  0  0  0  0  0
    5.3563   17.8721  -29.8399 C   0  0  0  0  0  0  0  0  0  0  0  0
    5.5999   18.6243  -30.9960 C   0  0  0  0  0  0  0  0  0  0  0  0
    6.6397   18.2614  -31.8346 C   0  0  0  0  0  0  0  0  0  0  0  0
    4.8587   19.8518  -31.3245 C   0  0  0  0  0  0  0  0  0  0  0  0
    3.7515   20.2791  -30.7694 C   0  0  0  0  0  0  0  0  0  0  0  0
    3.0191   21.5034  -31.0957 C   0  0  0  0  0  0  0  0  0  0  0  0
    2.5754   22.3652  -30.0948 C   0  0  0  0  0  0  0  0  0  0  0  0
    1.9210   23.5487  -30.4023 C   0  0  0  0  0  0  0  0  0  0  0  0
    1.6321   23.8658  -31.7249 C   0  0  0  0  0  0  0  0  0  0  0  0
    2.0841   23.0391  -32.7281 C   0  0  0  0  0  0  0  0  0  0  0  0
    2.7572   21.8814  -32.4143 C   0  0  0  0  0  0  0  0  0  0  0  0
    0.9832   25.0296  -32.0422 O   0  0  0  0  0  0  0  0  0  0  0  0
    5.9752   16.0062  -28.4336 O   0  0  0  0  0  0  0  0  0  0  0  0
    8.4324   16.8282  -32.4610 O   0  0  0  0  0  0  0  0  0  0  0  0
    7.7838   15.4874  -30.2353 H   0  0  0  0  0  0  0  0  0  0  0  0
    4.5663   18.1720  -29.1357 H   0  0  0  0  0  0  0  0  0  0  0  0
    6.8386   18.8569  -32.7378 H   0  0  0  0  0  0  0  0  0  0  0  0
    5.2802   20.4795  -32.1234 H   0  0  0  0  0  0  0  0  0  0  0  0
    3.3270   19.6503  -29.9730 H   0  0  0  0  0  0  0  0  0  0  0  0
    2.7474   22.1018  -29.0408 H   0  0  0  0  0  0  0  0  0  0  0  0
    1.6294   24.2390  -29.5969 H   0  0  0  0  0  0  0  0  0  0  0  0
    1.9071   23.3042  -33.7809 H   0  0  0  0  0  0  0  0  0  0  0  0
    3.1015   21.2301  -33.2312 H   0  0  0  0  0  0  0  0  0  0  0  0
    0.7837   25.2430  -32.9881 H   0  0  0  0  0  0  0  0  0  0  0  0
    5.2451   16.2288  -27.8031 H   0  0  0  0  0  0  0  0  0  0  0  0
    8.5973   17.4059  -33.2479 H   0  0  0  0  0  0  0  0  0  0  0  0
  1  2  2  0
  1  6  1  0
  1 17  1  0
  2  3  1  0
  3  4  2  0
  3 16  1  0
  4  5  1  0
  5  6  2  0
  5  7  1  0
  7  8  2  3
  8  9  1  0
  9 10  2  0
  9 14  1  0
 10 11  1  0
 11 12  2  0
 12 13  1  0
 12 15  1  0
 13 14  2  0
  2 18  1  0
  4 19  1  0
  6 20  1  0
  7 21  1  0
  8 22  1  0
 10 23  1  0
 11 24  1  0
 13 25  1  0
 14 26  1  0
 15 27  1  0
 16 28  1  0
 17 29  1  0
M  END
>  <filename_input>  (6) 
7VB8_STL_docked.sdf

>  <pdb_id>  (6) 
7VB8_STL

>  <pose_rank>  (6) 
5

>  <num_atoms_heavy>  (6) 
17

>  <num_torsions>  (6) 
2

>  <pose>  (6) 
[4.85873928751575, 19.851779494831348, -31.32447152393201, -2.220529968804234, 5.547994658520931, -0.08442467993898584, -12.823508831229574, -11.883478930718265]

>  <energy>  (6) 
-671.1112952092795

>  <inter_energy>  (6) 
-667.7621131191454

>  <intra_energy>  (6) 
0.0

>  <rmsd>  (6) 
0.596966

>  <sdf_rank>  (6) 
0

$$$$

     RDKit          3D

 29 30  0  0  0  0  0  0  0  0999 V2000
    2.1351   23.2440  -32.4614 C   0  0  0  0  0  0  0  0  0  0  0  0
    1.5917   23.7442  -31.2938 C   0  0  0  0  0  0  0  0  0  0  0  0
    1.8705   23.1077  -30.0858 C   0  0  0  0  0  0  0  0  0  0  0  0
    2.6783   21.9686  -30.0413 C   0  0  0  0  0  0  0  0  0  0  0  0
    3.2633   21.5023  -31.2255 C   0  0  0  0  0  0  0  0  0  0  0  0
    2.9794   22.1419  -32.4197 C   0  0  0  0  0  0  0  0  0  0  0  0
    4.1023   20.2953  -31.2836 C   0  0  0  0  0  0  0  0  0  0  0  0
    4.5919   19.6234  -30.2711 C   0  0  0  0  0  0  0  0  0  0  0  0
    5.4226   18.4200  -30.3326 C   0  0  0  0  0  0  0  0  0  0  0  0
    6.0653   18.0485  -31.5116 C   0  0  0  0  0  0  0  0  0  0  0  0
    6.8895   16.9341  -31.5615 C   0  0  0  0  0  0  0  0  0  0  0  0
    7.0359   16.1209  -30.4431 C   0  0  0  0  0  0  0  0  0  0  0  0
    6.4286   16.4858  -29.2631 C   0  0  0  0  0  0  0  0  0  0  0  0
    5.6356   17.6085  -29.2161 C   0  0  0  0  0  0  0  0  0  0  0  0
    7.8439   15.0156  -30.4797 O   0  0  0  0  0  0  0  0  0  0  0  0
    1.2163   23.5606  -28.9595 O   0  0  0  0  0  0  0  0  0  0  0  0
    1.9291   23.8609  -33.6855 O   0  0  0  0  0  0  0  0  0  0  0  0
    0.9464   24.6347  -31.3174 H   0  0  0  0  0  0  0  0  0  0  0  0
    2.8525   21.4452  -29.0896 H   0  0  0  0  0  0  0  0  0  0  0  0
    3.4302   21.7710  -33.3520 H   0  0  0  0  0  0  0  0  0  0  0  0
    4.3451   19.9154  -32.2870 H   0  0  0  0  0  0  0  0  0  0  0  0
    4.3529   20.0045  -29.2672 H   0  0  0  0  0  0  0  0  0  0  0  0
    5.9160   18.6503  -32.4202 H   0  0  0  0  0  0  0  0  0  0  0  0
    7.4294   16.6929  -32.4890 H   0  0  0  0  0  0  0  0  0  0  0  0
    6.5775   15.8794  -28.3575 H   0  0  0  0  0  0  0  0  0  0  0  0
    5.1519   17.8768  -28.2653 H   0  0  0  0  0  0  0  0  0  0  0  0
    7.9390   14.4452  -29.6761 H   0  0  0  0  0  0  0  0  0  0  0  0
    1.3876   23.1342  -28.0826 H   0  0  0  0  0  0  0  0  0  0  0  0
    2.3312   23.4796  -34.5059 H   0  0  0  0  0  0  0  0  0  0  0  0
  1  2  2  0
  1  6  1  0
  1 17  1  0
  2  3  1  0
  3  4  2  0
  3 16  1  0
  4  5  1  0
  5  6  2  0
  5  7  1  0
  7  8  2  3
  8  9  1  0
  9 10  2  0
  9 14  1  0
 10 11  1  0
 11 12  2  0
 12 13  1  0
 12 15  1  0
 13 14  2  0
  2 18  1  0
  4 19  1  0
  6 20  1  0
  7 21  1  0
  8 22  1  0
 10 23  1  0
 11 24  1  0
 13 25  1  0
 14 26  1  0
 15 27  1  0
 16 28  1  0
 17 29  1  0
M  END
>  <filename_input>  (7) 
7VB8_STL_docked.sdf

>  <pdb_id>  (7) 
7VB8_STL

>  <pose_rank>  (7) 
6

>  <num_atoms_heavy>  (7) 
17

>  <num_torsions>  (7) 
2

>  <pose>  (7) 
[4.102264493819433, 20.29533849917368, -31.2836443317636, 0.686100377898709, 0.23356592272343626, -3.0951614774726623, -0.2223155251137841, -2.993344957435567]

>  <energy>  (7) 
-664.2240237855411

>  <inter_energy>  (7) 
-649.364216232584

>  <intra_energy>  (7) 
0.0

>  <rmsd>  (7) 
7.30594

>  <sdf_rank>  (7) 
0

$$$$

     RDKit          3D

 29 30  0  0  0  0  0  0  0  0999 V2000
    1.8414   23.6713  -30.6719 C   0  0  0  0  0  0  0  0  0  0  0  0
    1.6056   24.1486  -31.9468 C   0  0  0  0  0  0  0  0  0  0  0  0
    1.9682   23.3691  -33.0436 C   0  0  0  0  0  0  0  0  0  0  0  0
    2.5755   22.1225  -32.8721 C   0  0  0  0  0  0  0  0  0  0  0  0
    2.7625   21.6291  -31.5747 C   0  0  0  0  0  0  0  0  0  0  0  0
    2.3989   22.4119  -30.4925 C   0  0  0  0  0  0  0  0  0  0  0  0
    3.4194   20.3433  -31.2932 C   0  0  0  0  0  0  0  0  0  0  0  0
    4.5062   20.1486  -30.5878 C   0  0  0  0  0  0  0  0  0  0  0  0
    5.1546   18.8672  -30.3059 C   0  0  0  0  0  0  0  0  0  0  0  0
    5.1045   18.2993  -29.0347 C   0  0  0  0  0  0  0  0  0  0  0  0
    5.6789   17.0638  -28.7753 C   0  0  0  0  0  0  0  0  0  0  0  0
    6.3814   16.3953  -29.7717 C   0  0  0  0  0  0  0  0  0  0  0  0
    6.4204   16.9290  -31.0397 C   0  0  0  0  0  0  0  0  0  0  0  0
    5.8235   18.1417  -31.2942 C   0  0  0  0  0  0  0  0  0  0  0  0
    6.9566   15.1763  -29.5281 O   0  0  0  0  0  0  0  0  0  0  0  0
    1.8291   23.9265  -34.2972 O   0  0  0  0  0  0  0  0  0  0  0  0
    1.4617   24.3823  -29.5442 O   0  0  0  0  0  0  0  0  0  0  0  0
    1.1369   25.1328  -32.0944 H   0  0  0  0  0  0  0  0  0  0  0  0
    2.9022   21.5367  -33.7440 H   0  0  0  0  0  0  0  0  0  0  0  0
    2.5542   22.0299  -29.4727 H   0  0  0  0  0  0  0  0  0  0  0  0
    2.9465   19.4474  -31.7217 H   0  0  0  0  0  0  0  0  0  0  0  0
    4.9823   21.0441  -30.1619 H   0  0  0  0  0  0  0  0  0  0  0  0
    4.5999   18.8412  -28.2212 H   0  0  0  0  0  0  0  0  0  0  0  0
    5.5783   16.6113  -27.7777 H   0  0  0  0  0  0  0  0  0  0  0  0
    6.9291   16.3857  -31.8497 H   0  0  0  0  0  0  0  0  0  0  0  0
    5.8746   18.5548  -32.3124 H   0  0  0  0  0  0  0  0  0  0  0  0
    7.4540   14.7112  -30.2466 H   0  0  0  0  0  0  0  0  0  0  0  0
    2.0761   23.4043  -35.1012 H   0  0  0  0  0  0  0  0  0  0  0  0
    1.6439   24.0152  -28.6430 H   0  0  0  0  0  0  0  0  0  0  0  0
  1  2  2  0
  1  6  1  0
  1 17  1  0
  2  3  1  0
  3  4  2  0
  3 16  1  0
  4  5  1  0
  5  6  2  0
  5  7  1  0
  7  8  2  3
  8  9  1  0
  9 10  2  0
  9 14  1  0
 10 11  1  0
 11 12  2  0
 12 13  1  0
 12 15  1  0
 13 14  2  0
  2 18  1  0
  4 19  1  0
  6 20  1  0
  7 21  1  0
  8 22  1  0
 10 23  1  0
 11 24  1  0
 13 25  1  0
 14 26  1  0
 15 27  1  0
 16 28  1  0
 17 29  1  0
M  END
>  <filename_input>  (8) 
7VB8_STL_docked.sdf

>  <pdb_id>  (8) 
7VB8_STL

>  <pose_rank>  (8) 
7

>  <num_atoms_heavy>  (8) 
17

>  <num_torsions>  (8) 
2

>  <pose>  (8) 
[3.4194061401819718, 20.343320097879076, -31.293160676072752, -0.45995031089974414, -0.9289974125973545, -3.099966323586905, -4.212212739662441, 1.1152681523528367]

>  <energy>  (8) 
-662.8445695611015

>  <inter_energy>  (8) 
-648.1642819592128

>  <intra_energy>  (8) 
0.0

>  <rmsd>  (8) 
7.30544

>  <sdf_rank>  (8) 
0

$$$$

     RDKit          3D

 29 30  0  0  0  0  0  0  0  0999 V2000
    7.4076   17.2761  -32.0706 C   0  0  0  0  0  0  0  0  0  0  0  0
    7.1172   16.4849  -30.9759 C   0  0  0  0  0  0  0  0  0  0  0  0
    6.0235   16.8063  -30.1743 C   0  0  0  0  0  0  0  0  0  0  0  0
    5.2276   17.9201  -30.4545 C   0  0  0  0  0  0  0  0  0  0  0  0
    5.5031   18.6838  -31.5959 C   0  0  0  0  0  0  0  0  0  0  0  0
    6.5922   18.3557  -32.3848 C   0  0  0  0  0  0  0  0  0  0  0  0
    4.7416   19.8897  -31.9562 C   0  0  0  0  0  0  0  0  0  0  0  0
    3.9268   20.5691  -31.1875 C   0  0  0  0  0  0  0  0  0  0  0  0
    3.1740   21.7714  -31.5480 C   0  0  0  0  0  0  0  0  0  0  0  0
    1.8029   21.7169  -31.7894 C   0  0  0  0  0  0  0  0  0  0  0  0
    1.0786   22.8616  -32.0867 C   0  0  0  0  0  0  0  0  0  0  0  0
    1.7258   24.0852  -32.2184 C   0  0  0  0  0  0  0  0  0  0  0  0
    3.0753   24.1626  -31.9595 C   0  0  0  0  0  0  0  0  0  0  0  0
    3.7802   23.0263  -31.6376 C   0  0  0  0  0  0  0  0  0  0  0  0
    1.0231   25.2228  -32.5153 O   0  0  0  0  0  0  0  0  0  0  0  0
    5.8351   16.0682  -29.0249 O   0  0  0  0  0  0  0  0  0  0  0  0
    8.4552   16.9796  -32.9286 O   0  0  0  0  0  0  0  0  0  0  0  0
    7.7423   15.6111  -30.7397 H   0  0  0  0  0  0  0  0  0  0  0  0
    4.3963   18.1933  -29.7880 H   0  0  0  0  0  0  0  0  0  0  0  0
    6.8157   18.9604  -33.2760 H   0  0  0  0  0  0  0  0  0  0  0  0
    4.8704   20.2616  -32.9834 H   0  0  0  0  0  0  0  0  0  0  0  0
    3.7942   20.1960  -30.1612 H   0  0  0  0  0  0  0  0  0  0  0  0
    1.2851   20.7475  -31.7432 H   0  0  0  0  0  0  0  0  0  0  0  0
   -0.0118   22.8014  -32.2187 H   0  0  0  0  0  0  0  0  0  0  0  0
    3.5902   25.1334  -32.0101 H   0  0  0  0  0  0  0  0  0  0  0  0
    4.8598   23.1089  -31.4438 H   0  0  0  0  0  0  0  0  0  0  0  0
    1.4965   26.0875  -32.6062 H   0  0  0  0  0  0  0  0  0  0  0  0
    5.0694   16.2662  -28.4294 H   0  0  0  0  0  0  0  0  0  0  0  0
    8.6397   17.5650  -33.7053 H   0  0  0  0  0  0  0  0  0  0  0  0
  1  2  2  0
  1  6  1  0
  1 17  1  0
  2  3  1  0
  3  4  2  0
  3 16  1  0
  4  5  1  0
  5  6  2  0
  5  7  1  0
  7  8  2  3
  8  9  1  0
  9 10  2  0
  9 14  1  0
 10 11  1  0
 11 12  2  0
 12 13  1  0
 12 15  1  0
 13 14  2  0
  2 18  1  0
  4 19  1  0
  6 20  1  0
  7 21  1  0
  8 22  1  0
 10 23  1  0
 11 24  1  0
 13 25  1  0
 14 26  1  0
 15 27  1  0
 16 28  1  0
 17 29  1  0
M  END
>  <filename_input>  (9) 
7VB8_STL_docked.sdf

>  <pdb_id>  (9) 
7VB8_STL

>  <pose_rank>  (9) 
8

>  <num_atoms_heavy>  (9) 
17

>  <num_torsions>  (9) 
2

>  <pose>  (9) 
[4.741598480919304, 19.88968201753768, -31.956216858718747, 5.046255009500326, -2.5795491349442545, 2.275891732306468, 0.23827500203605265, -1.4469455825567838]

>  <energy>  (9) 
-660.199725258416

>  <inter_energy>  (9) 
-643.2749367698887

>  <intra_energy>  (9) 
0.0

>  <rmsd>  (9) 
0.903623

>  <sdf_rank>  (9) 
0

$$$$

     RDKit          3D

 29 30  0  0  0  0  0  0  0  0999 V2000
    1.8701   22.9896  -29.8420 C   0  0  0  0  0  0  0  0  0  0  0  0
    1.6611   23.7840  -30.9529 C   0  0  0  0  0  0  0  0  0  0  0  0
    2.2470   23.4262  -32.1657 C   0  0  0  0  0  0  0  0  0  0  0  0
    3.0492   22.2870  -32.2698 C   0  0  0  0  0  0  0  0  0  0  0  0
    3.2112   21.4636  -31.1484 C   0  0  0  0  0  0  0  0  0  0  0  0
    2.6250   21.8287  -29.9487 C   0  0  0  0  0  0  0  0  0  0  0  0
    4.0597   20.2620  -31.1522 C   0  0  0  0  0  0  0  0  0  0  0  0
    4.4370   19.5574  -30.1141 C   0  0  0  0  0  0  0  0  0  0  0  0
    5.2778   18.3594  -30.1221 C   0  0  0  0  0  0  0  0  0  0  0  0
    6.0476   18.0277  -31.2349 C   0  0  0  0  0  0  0  0  0  0  0  0
    6.8800   16.9183  -31.2293 C   0  0  0  0  0  0  0  0  0  0  0  0
    6.9093   16.0706  -30.1275 C   0  0  0  0  0  0  0  0  0  0  0  0
    6.1746   16.3957  -29.0100 C   0  0  0  0  0  0  0  0  0  0  0  0
    5.3735   17.5137  -29.0149 C   0  0  0  0  0  0  0  0  0  0  0  0
    7.7241   14.9697  -30.1101 O   0  0  0  0  0  0  0  0  0  0  0  0
    2.1169   24.3038  -33.2213 O   0  0  0  0  0  0  0  0  0  0  0  0
    1.2771   23.2711  -28.6211 O   0  0  0  0  0  0  0  0  0  0  0  0
    1.0394   24.6886  -30.8809 H   0  0  0  0  0  0  0  0  0  0  0  0
    3.5466   22.0401  -33.2194 H   0  0  0  0  0  0  0  0  0  0  0  0
    2.7595   21.1883  -29.0645 H   0  0  0  0  0  0  0  0  0  0  0  0
    4.4165   19.9174  -32.1340 H   0  0  0  0  0  0  0  0  0  0  0  0
    4.0841   19.9031  -29.1313 H   0  0  0  0  0  0  0  0  0  0  0  0
    5.9941   18.6575  -32.1352 H   0  0  0  0  0  0  0  0  0  0  0  0
    7.5194   16.7084  -32.0994 H   0  0  0  0  0  0  0  0  0  0  0  0
    6.2282   15.7614  -28.1129 H   0  0  0  0  0  0  0  0  0  0  0  0
    4.7873   17.7501  -28.1146 H   0  0  0  0  0  0  0  0  0  0  0  0
    7.7351   14.3745  -29.3192 H   0  0  0  0  0  0  0  0  0  0  0  0
    2.5191   24.0854  -34.0991 H   0  0  0  0  0  0  0  0  0  0  0  0
    1.4451   22.6838  -27.8420 H   0  0  0  0  0  0  0  0  0  0  0  0
  1  2  2  0
  1  6  1  0
  1 17  1  0
  2  3  1  0
  3  4  2  0
  3 16  1  0
  4  5  1  0
  5  6  2  0
  5  7  1  0
  7  8  2  3
  8  9  1  0
  9 10  2  0
  9 14  1  0
 10 11  1  0
 11 12  2  0
 12 13  1  0
 12 15  1  0
 13 14  2  0
  2 18  1  0
  4 19  1  0
  6 20  1  0
  7 21  1  0
  8 22  1  0
 10 23  1  0
 11 24  1  0
 13 25  1  0
 14 26  1  0
 15 27  1  0
 16 28  1  0
 17 29  1  0
M  END
>  <filename_input>  (10) 
7VB8_STL_docked.sdf

>  <pdb_id>  (10) 
7VB8_STL

>  <pose_rank>  (10) 
9

>  <num_atoms_heavy>  (10) 
17

>  <num_torsions>  (10) 
2

>  <pose>  (10) 
[4.059739569665736, 20.26200034936209, -31.152230878962616, -0.839230965344037, -0.28450902593324306, 2.9813488223953253, -3.3645774668624706, -2.9977047953592875]

>  <energy>  (10) 
-649.776094139576

>  <inter_energy>  (10) 
-653.1236723951743

>  <intra_energy>  (10) 
0.0

>  <rmsd>  (10) 
7.30603

>  <sdf_rank>  (10) 
0

$$$$

     RDKit          3D

 29 30  0  0  0  0  0  0  0  0999 V2000
    7.3090   17.2611  -30.2788 C   0  0  0  0  0  0  0  0  0  0  0  0
    8.0647   16.6598  -31.2668 C   0  0  0  0  0  0  0  0  0  0  0  0
    7.9966   17.1501  -32.5695 C   0  0  0  0  0  0  0  0  0  0  0  0
    7.1686   18.2289  -32.8908 C   0  0  0  0  0  0  0  0  0  0  0  0
    6.4469   18.8607  -31.8701 C   0  0  0  0  0  0  0  0  0  0  0  0
    6.5219   18.3651  -30.5798 C   0  0  0  0  0  0  0  0  0  0  0  0
    5.5273   19.9824  -32.1149 C   0  0  0  0  0  0  0  0  0  0  0  0
    4.5860   20.4215  -31.3165 C   0  0  0  0  0  0  0  0  0  0  0  0
    3.6756   21.5410  -31.5615 C   0  0  0  0  0  0  0  0  0  0  0  0
    2.7272   21.9184  -30.6131 C   0  0  0  0  0  0  0  0  0  0  0  0
    1.8936   23.0069  -30.8227 C   0  0  0  0  0  0  0  0  0  0  0  0
    1.9428   23.7053  -32.0240 C   0  0  0  0  0  0  0  0  0  0  0  0
    2.8898   23.3625  -32.9621 C   0  0  0  0  0  0  0  0  0  0  0  0
    3.7312   22.2989  -32.7331 C   0  0  0  0  0  0  0  0  0  0  0  0
    1.1228   24.7798  -32.2455 O   0  0  0  0  0  0  0  0  0  0  0  0
    8.6692   16.4525  -33.5505 O   0  0  0  0  0  0  0  0  0  0  0  0
    7.3703   16.8453  -28.9579 O   0  0  0  0  0  0  0  0  0  0  0  0
    8.7128   15.8037  -31.0279 H   0  0  0  0  0  0  0  0  0  0  0  0
    7.0848   18.5771  -33.9308 H   0  0  0  0  0  0  0  0  0  0  0  0
    5.9480   18.8541  -29.7788 H   0  0  0  0  0  0  0  0  0  0  0  0
    5.6426   20.5102  -33.0731 H   0  0  0  0  0  0  0  0  0  0  0  0
    4.4671   19.8922  -30.3596 H   0  0  0  0  0  0  0  0  0  0  0  0
    2.6379   21.3421  -29.6805 H   0  0  0  0  0  0  0  0  0  0  0  0
    1.1910   23.3187  -30.0359 H   0  0  0  0  0  0  0  0  0  0  0  0
    2.9736   23.9391  -33.8951 H   0  0  0  0  0  0  0  0  0  0  0  0
    4.4745   22.0359  -33.5002 H   0  0  0  0  0  0  0  0  0  0  0  0
    1.1682   25.2682  -33.1055 H   0  0  0  0  0  0  0  0  0  0  0  0
    8.6448   16.7692  -34.4882 H   0  0  0  0  0  0  0  0  0  0  0  0
    6.8170   17.2951  -28.2712 H   0  0  0  0  0  0  0  0  0  0  0  0
  1  2  2  0
  1  6  1  0
  1 17  1  0
  2  3  1  0
  3  4  2  0
  3 16  1  0
  4  5  1  0
  5  6  2  0
  5  7  1  0
  7  8  2  3
  8  9  1  0
  9 10  2  0
  9 14  1  0
 10 11  1  0
 11 12  2  0
 12 13  1  0
 12 15  1  0
 13 14  2  0
  2 18  1  0
  4 19  1  0
  6 20  1  0
  7 21  1  0
  8 22  1  0
 10 23  1  0
 11 24  1  0
 13 25  1  0
 14 26  1  0
 15 27  1  0
 16 28  1  0
 17 29  1  0
M  END
>  <filename_input>  (11) 
7VB8_STL_docked.sdf

>  <pdb_id>  (11) 
7VB8_STL

>  <pose_rank>  (11) 
10

>  <num_atoms_heavy>  (11) 
17

>  <num_torsions>  (11) 
2

>  <pose>  (11) 
[5.527323738046779, 19.982385274940487, -32.11493216199766, 0.782567371343046, -0.973807459947919, -6.069487614455475, -9.756236868444983, -6.407295705604503]

>  <energy>  (11) 
-637.1018500384602

>  <inter_energy>  (11) 
-635.6722889536046

>  <intra_energy>  (11) 
0.0

>  <rmsd>  (11) 
0.649782

>  <sdf_rank>  (11) 
0

$$$$

     RDKit          3D

 29 30  0  0  0  0  0  0  0  0999 V2000
    3.0692   22.5114  -31.5708 C   0  0  0  0  0  0  0  0  0  0  0  0
    2.3661   22.5783  -30.3834 C   0  0  0  0  0  0  0  0  0  0  0  0
    2.5839   21.6078  -29.4074 C   0  0  0  0  0  0  0  0  0  0  0  0
    3.4906   20.5656  -29.6175 C   0  0  0  0  0  0  0  0  0  0  0  0
    4.2333   20.5385  -30.8047 C   0  0  0  0  0  0  0  0  0  0  0  0
    4.0086   21.5074  -31.7674 C   0  0  0  0  0  0  0  0  0  0  0  0
    5.1876   19.4669  -31.1287 C   0  0  0  0  0  0  0  0  0  0  0  0
    5.4848   18.4241  -30.3934 C   0  0  0  0  0  0  0  0  0  0  0  0
    6.4316   17.3572  -30.7209 C   0  0  0  0  0  0  0  0  0  0  0  0
    6.8629   16.4547  -29.7511 C   0  0  0  0  0  0  0  0  0  0  0  0
    7.7246   15.4152  -30.0679 C   0  0  0  0  0  0  0  0  0  0  0  0
    8.2328   15.2952  -31.3566 C   0  0  0  0  0  0  0  0  0  0  0  0
    7.7990   16.1624  -32.3333 C   0  0  0  0  0  0  0  0  0  0  0  0
    6.9221   17.1732  -32.0155 C   0  0  0  0  0  0  0  0  0  0  0  0
    9.0875   14.2755  -31.6821 O   0  0  0  0  0  0  0  0  0  0  0  0
    1.7798   21.6364  -28.2875 O   0  0  0  0  0  0  0  0  0  0  0  0
    2.9270   23.4731  -32.5588 O   0  0  0  0  0  0  0  0  0  0  0  0
    1.6425   23.3886  -30.2104 H   0  0  0  0  0  0  0  0  0  0  0  0
    3.6193   19.7774  -28.8611 H   0  0  0  0  0  0  0  0  0  0  0  0
    4.5841   21.4818  -32.7045 H   0  0  0  0  0  0  0  0  0  0  0  0
    5.7086   19.5503  -32.0939 H   0  0  0  0  0  0  0  0  0  0  0  0
    4.9672   18.3416  -29.4262 H   0  0  0  0  0  0  0  0  0  0  0  0
    6.5132   16.5688  -28.7144 H   0  0  0  0  0  0  0  0  0  0  0  0
    8.0070   14.6831  -29.2970 H   0  0  0  0  0  0  0  0  0  0  0  0
    8.1537   16.0472  -33.3681 H   0  0  0  0  0  0  0  0  0  0  0  0
    6.5955   17.8612  -32.8092 H   0  0  0  0  0  0  0  0  0  0  0  0
    9.4419   14.2019  -32.6036 H   0  0  0  0  0  0  0  0  0  0  0  0
    1.9036   20.9636  -27.5719 H   0  0  0  0  0  0  0  0  0  0  0  0
    3.4441   23.3990  -33.3998 H   0  0  0  0  0  0  0  0  0  0  0  0
  1  2  2  0
  1  6  1  0
  1 17  1  0
  2  3  1  0
  3  4  2  0
  3 16  1  0
  4  5  1  0
  5  6  2  0
  5  7  1  0
  7  8  2  3
  8  9  1  0
  9 10  2  0
  9 14  1  0
 10 11  1  0
 11 12  2  0
 12 13  1  0
 12 15  1  0
 13 14  2  0
  2 18  1  0
  4 19  1  0
  6 20  1  0
  7 21  1  0
  8 22  1  0
 10 23  1  0
 11 24  1  0
 13 25  1  0
 14 26  1  0
 15 27  1  0
 16 28  1  0
 17 29  1  0
M  END
>  <filename_input>  (12) 
7VB8_STL_docked.sdf

>  <pdb_id>  (12) 
7VB8_STL

>  <pose_rank>  (12) 
11

>  <num_atoms_heavy>  (12) 
17

>  <num_torsions>  (12) 
2

>  <pose>  (12) 
[5.187585205399804, 19.46691639528237, -31.12870756023208, 1.0618362122937888, 0.9303744486564903, -2.8716188326119867, -0.027385248921400002, -0.3731246052952175]

>  <energy>  (12) 
-627.1284538837726

>  <inter_energy>  (12) 
-613.1197342751159

>  <intra_energy>  (12) 
0.0

>  <rmsd>  (12) 
7.32307

>  <sdf_rank>  (12) 
0

$$$$

     RDKit          3D

 29 30  0  0  0  0  0  0  0  0999 V2000
    1.6642   23.6791  -29.5044 C   0  0  0  0  0  0  0  0  0  0  0  0
    1.5322   24.4384  -30.6511 C   0  0  0  0  0  0  0  0  0  0  0  0
    2.1800   24.0310  -31.8158 C   0  0  0  0  0  0  0  0  0  0  0  0
    2.9675   22.8770  -31.8361 C   0  0  0  0  0  0  0  0  0  0  0  0
    3.0515   22.0898  -30.6806 C   0  0  0  0  0  0  0  0  0  0  0  0
    2.4043   22.5041  -29.5293 C   0  0  0  0  0  0  0  0  0  0  0  0
    3.8786   20.8762  -30.5961 C   0  0  0  0  0  0  0  0  0  0  0  0
    3.7710   19.9056  -29.7228 C   0  0  0  0  0  0  0  0  0  0  0  0
    4.5928   18.6971  -29.6444 C   0  0  0  0  0  0  0  0  0  0  0  0
    4.7031   17.9773  -28.4566 C   0  0  0  0  0  0  0  0  0  0  0  0
    5.4444   16.8069  -28.3906 C   0  0  0  0  0  0  0  0  0  0  0  0
    6.1537   16.3639  -29.5014 C   0  0  0  0  0  0  0  0  0  0  0  0
    6.0369   17.0482  -30.6898 C   0  0  0  0  0  0  0  0  0  0  0  0
    5.2765   18.1925  -30.7527 C   0  0  0  0  0  0  0  0  0  0  0  0
    6.8925   15.2117  -29.4489 O   0  0  0  0  0  0  0  0  0  0  0  0
    2.1250   24.8742  -32.9055 O   0  0  0  0  0  0  0  0  0  0  0  0
    1.0075   24.0106  -28.3295 O   0  0  0  0  0  0  0  0  0  0  0  0
    0.9227   25.3541  -30.6448 H   0  0  0  0  0  0  0  0  0  0  0  0
    3.5139   22.5907  -32.7468 H   0  0  0  0  0  0  0  0  0  0  0  0
    2.4774   21.8921  -28.6182 H   0  0  0  0  0  0  0  0  0  0  0  0
    4.6743   20.7724  -31.3484 H   0  0  0  0  0  0  0  0  0  0  0  0
    2.9780   20.0101  -28.9676 H   0  0  0  0  0  0  0  0  0  0  0  0
    4.1927   18.3443  -27.5540 H   0  0  0  0  0  0  0  0  0  0  0  0
    5.4712   16.2271  -27.4562 H   0  0  0  0  0  0  0  0  0  0  0  0
    6.5518   16.6799  -31.5894 H   0  0  0  0  0  0  0  0  0  0  0  0
    5.2043   18.7294  -31.7100 H   0  0  0  0  0  0  0  0  0  0  0  0
    7.3929   14.9077  -30.2472 H   0  0  0  0  0  0  0  0  0  0  0  0
    2.5728   24.6201  -33.7511 H   0  0  0  0  0  0  0  0  0  0  0  0
    1.1211   23.4476  -27.5232 H   0  0  0  0  0  0  0  0  0  0  0  0
  1  2  2  0
  1  6  1  0
  1 17  1  0
  2  3  1  0
  3  4  2  0
  3 16  1  0
  4  5  1  0
  5  6  2  0
  5  7  1  0
  7  8  2  3
  8  9  1  0
  9 10  2  0
  9 14  1  0
 10 11  1  0
 11 12  2  0
 12 13  1  0
 12 15  1  0
 13 14  2  0
  2 18  1  0
  4 19  1  0
  6 20  1  0
  7 21  1  0
  8 22  1  0
 10 23  1  0
 11 24  1  0
 13 25  1  0
 14 26  1  0
 15 27  1  0
 16 28  1  0
 17 29  1  0
M  END
>  <filename_input>  (13) 
7VB8_STL_docked.sdf

>  <pdb_id>  (13) 
7VB8_STL

>  <pose_rank>  (13) 
12

>  <num_atoms_heavy>  (13) 
17

>  <num_torsions>  (13) 
2

>  <pose>  (13) 
[3.8785615769255157, 20.876239636979992, -30.596108711123485, 1.5698170405833587, 0.7032479069820117, -2.6985416430941433, 3.450350023234269, -0.5271601863870458]

>  <energy>  (13) 
-625.277953505831

>  <inter_energy>  (13) 
-617.028646697809

>  <intra_energy>  (13) 
0.0

>  <rmsd>  (13) 
7.42017

>  <sdf_rank>  (13) 
0

$$$$

     RDKit          3D

 29 30  0  0  0  0  0  0  0  0999 V2000
    2.4319   23.6937  -32.9253 C   0  0  0  0  0  0  0  0  0  0  0  0
    1.5498   24.3555  -32.0931 C   0  0  0  0  0  0  0  0  0  0  0  0
    1.4854   23.9988  -30.7475 C   0  0  0  0  0  0  0  0  0  0  0  0
    2.2884   22.9772  -30.2338 C   0  0  0  0  0  0  0  0  0  0  0  0
    3.2138   22.3494  -31.0772 C   0  0  0  0  0  0  0  0  0  0  0  0
    3.2690   22.7114  -32.4121 C   0  0  0  0  0  0  0  0  0  0  0  0
    4.0793   21.2448  -30.6362 C   0  0  0  0  0  0  0  0  0  0  0  0
    4.0781   20.0130  -31.0825 C   0  0  0  0  0  0  0  0  0  0  0  0
    4.9440   18.9173  -30.6445 C   0  0  0  0  0  0  0  0  0  0  0  0
    5.8588   18.3304  -31.5161 C   0  0  0  0  0  0  0  0  0  0  0  0
    6.7123   17.3228  -31.0919 C   0  0  0  0  0  0  0  0  0  0  0  0
    6.6218   16.8282  -29.7955 C   0  0  0  0  0  0  0  0  0  0  0  0
    5.7414   17.4123  -28.9136 C   0  0  0  0  0  0  0  0  0  0  0  0
    4.9186   18.4303  -29.3359 C   0  0  0  0  0  0  0  0  0  0  0  0
    7.4561   15.8310  -29.3647 O   0  0  0  0  0  0  0  0  0  0  0  0
    0.5115   24.5951  -29.9745 O   0  0  0  0  0  0  0  0  0  0  0  0
    2.5714   24.0356  -34.2614 O   0  0  0  0  0  0  0  0  0  0  0  0
    0.9056   25.1548  -32.4881 H   0  0  0  0  0  0  0  0  0  0  0  0
    2.1950   22.6702  -29.1816 H   0  0  0  0  0  0  0  0  0  0  0  0
    3.9885   22.2125  -33.0780 H   0  0  0  0  0  0  0  0  0  0  0  0
    4.8071   21.4785  -29.8452 H   0  0  0  0  0  0  0  0  0  0  0  0
    3.3481   19.7770  -31.8709 H   0  0  0  0  0  0  0  0  0  0  0  0
    5.9050   18.6725  -32.5605 H   0  0  0  0  0  0  0  0  0  0  0  0
    7.4635   16.9136  -31.7835 H   0  0  0  0  0  0  0  0  0  0  0  0
    5.6957   17.0650  -27.8709 H   0  0  0  0  0  0  0  0  0  0  0  0
    4.2155   18.8768  -28.6173 H   0  0  0  0  0  0  0  0  0  0  0  0
    7.3809   15.4880  -28.4391 H   0  0  0  0  0  0  0  0  0  0  0  0
    0.4336   24.3678  -29.0141 H   0  0  0  0  0  0  0  0  0  0  0  0
    3.2117   23.5435  -34.8341 H   0  0  0  0  0  0  0  0  0  0  0  0
  1  2  2  0
  1  6  1  0
  1 17  1  0
  2  3  1  0
  3  4  2  0
  3 16  1  0
  4  5  1  0
  5  6  2  0
  5  7  1  0
  7  8  2  3
  8  9  1  0
  9 10  2  0
  9 14  1  0
 10 11  1  0
 11 12  2  0
 12 13  1  0
 12 15  1  0
 13 14  2  0
  2 18  1  0
  4 19  1  0
  6 20  1  0
  7 21  1  0
  8 22  1  0
 10 23  1  0
 11 24  1  0
 13 25  1  0
 14 26  1  0
 15 27  1  0
 16 28  1  0
 17 29  1  0
M  END
>  <filename_input>  (14) 
7VB8_STL_docked.sdf

>  <pdb_id>  (14) 
7VB8_STL

>  <pose_rank>  (14) 
13

>  <num_atoms_heavy>  (14) 
17

>  <num_torsions>  (14) 
2

>  <pose>  (14) 
[4.079314410418268, 21.24478324640097, -30.63620208282373, 2.4524768594006274, 1.6426104301383058, -0.50577020674507, -4.273077262430646, 0.9786885704778183]

>  <energy>  (14) 
-621.400401147703

>  <inter_energy>  (14) 
-614.2899381940952

>  <intra_energy>  (14) 
0.0

>  <rmsd>  (14) 
7.32463

>  <sdf_rank>  (14) 
0

$$$$

     RDKit          3D

 29 30  0  0  0  0  0  0  0  0999 V2000
    7.0917   15.6954  -29.4259 C   0  0  0  0  0  0  0  0  0  0  0  0
    7.8404   15.0594  -30.3973 C   0  0  0  0  0  0  0  0  0  0  0  0
    7.8892   15.5989  -31.6813 C   0  0  0  0  0  0  0  0  0  0  0  0
    7.1843   16.7621  -32.0012 C   0  0  0  0  0  0  0  0  0  0  0  0
    6.4704   17.4241  -30.9942 C   0  0  0  0  0  0  0  0  0  0  0  0
    6.4286   16.8792  -29.7224 C   0  0  0  0  0  0  0  0  0  0  0  0
    5.6743   18.6362  -31.2407 C   0  0  0  0  0  0  0  0  0  0  0  0
    4.7599   19.1541  -30.4583 C   0  0  0  0  0  0  0  0  0  0  0  0
    3.9727   20.3630  -30.7048 C   0  0  0  0  0  0  0  0  0  0  0  0
    3.1052   20.8668  -29.7378 C   0  0  0  0  0  0  0  0  0  0  0  0
    2.3920   22.0371  -29.9505 C   0  0  0  0  0  0  0  0  0  0  0  0
    2.4783   22.6975  -31.1711 C   0  0  0  0  0  0  0  0  0  0  0  0
    3.3485   22.2285  -32.1287 C   0  0  0  0  0  0  0  0  0  0  0  0
    4.0729   21.0825  -31.8976 C   0  0  0  0  0  0  0  0  0  0  0  0
    1.7766   23.8522  -31.3957 O   0  0  0  0  0  0  0  0  0  0  0  0
    8.5459   14.8748  -32.6538 O   0  0  0  0  0  0  0  0  0  0  0  0
    7.0420   15.2301  -28.1211 O   0  0  0  0  0  0  0  0  0  0  0  0
    8.3918   14.1376  -30.1599 H   0  0  0  0  0  0  0  0  0  0  0  0
    7.1899   17.1526  -33.0295 H   0  0  0  0  0  0  0  0  0  0  0  0
    5.8603   17.3927  -28.9329 H   0  0  0  0  0  0  0  0  0  0  0  0
    5.8678   19.1657  -32.1853 H   0  0  0  0  0  0  0  0  0  0  0  0
    4.5626   18.6234  -29.5152 H   0  0  0  0  0  0  0  0  0  0  0  0
    2.9837   20.3260  -28.7877 H   0  0  0  0  0  0  0  0  0  0  0  0
    1.7559   22.4443  -29.1508 H   0  0  0  0  0  0  0  0  0  0  0  0
    3.4646   22.7702  -33.0790 H   0  0  0  0  0  0  0  0  0  0  0  0
    4.7556   20.7196  -32.6801 H   0  0  0  0  0  0  0  0  0  0  0  0
    1.8471   24.3123  -32.2695 H   0  0  0  0  0  0  0  0  0  0  0  0
    8.6021   15.2246  -33.5782 H   0  0  0  0  0  0  0  0  0  0  0  0
    6.4967   15.7066  -27.4460 H   0  0  0  0  0  0  0  0  0  0  0  0
  1  2  2  0
  1  6  1  0
  1 17  1  0
  2  3  1  0
  3  4  2  0
  3 16  1  0
  4  5  1  0
  5  6  2  0
  5  7  1  0
  7  8  2  3
  8  9  1  0
  9 10  2  0
  9 14  1  0
 10 11  1  0
 11 12  2  0
 12 13  1  0
 12 15  1  0
 13 14  2  0
  2 18  1  0
  4 19  1  0
  6 20  1  0
  7 21  1  0
  8 22  1  0
 10 23  1  0
 11 24  1  0
 13 25  1  0
 14 26  1  0
 15 27  1  0
 16 28  1  0
 17 29  1  0
M  END
>  <filename_input>  (15) 
7VB8_STL_docked.sdf

>  <pdb_id>  (15) 
7VB8_STL

>  <pose_rank>  (15) 
14

>  <num_atoms_heavy>  (15) 
17

>  <num_torsions>  (15) 
2

>  <pose>  (15) 
[5.674278932339688, 18.636234141353665, -31.24073142559433, 1.9746492282761874, -3.883217746450899, -4.557280435399476, -9.723411725791728, -6.333029452422742]

>  <energy>  (15) 
-663.6339629168695

>  <inter_energy>  (15) 
-643.2869302525376

>  <intra_energy>  (15) 
0.0

>  <rmsd>  (15) 
1.42391

>  <sdf_rank>  (15) 
0

$$$$

     RDKit          3D

 29 30  0  0  0  0  0  0  0  0999 V2000
    7.7565   16.7094  -31.9178 C   0  0  0  0  0  0  0  0  0  0  0  0
    7.5083   15.9168  -30.8137 C   0  0  0  0  0  0  0  0  0  0  0  0
    6.4350   16.2265  -29.9806 C   0  0  0  0  0  0  0  0  0  0  0  0
    5.6178   17.3301  -30.2387 C   0  0  0  0  0  0  0  0  0  0  0  0
    5.8500   18.0949  -31.3889 C   0  0  0  0  0  0  0  0  0  0  0  0
    6.9191   17.7784  -32.2093 C   0  0  0  0  0  0  0  0  0  0  0  0
    5.0636   19.2908  -31.7283 C   0  0  0  0  0  0  0  0  0  0  0  0
    4.2228   19.9302  -30.9533 C   0  0  0  0  0  0  0  0  0  0  0  0
    3.4452   21.1228  -31.2928 C   0  0  0  0  0  0  0  0  0  0  0  0
    2.1748   21.3296  -30.7597 C   0  0  0  0  0  0  0  0  0  0  0  0
    1.4539   22.4801  -31.0435 C   0  0  0  0  0  0  0  0  0  0  0  0
    1.9624   23.4244  -31.9284 C   0  0  0  0  0  0  0  0  0  0  0  0
    3.2258   23.2490  -32.4453 C   0  0  0  0  0  0  0  0  0  0  0  0
    3.9447   22.1181  -32.1356 C   0  0  0  0  0  0  0  0  0  0  0  0
    1.2594   24.5632  -32.2202 O   0  0  0  0  0  0  0  0  0  0  0  0
    6.2897   15.4883  -28.8250 O   0  0  0  0  0  0  0  0  0  0  0  0
    8.7817   16.4239  -32.8060 O   0  0  0  0  0  0  0  0  0  0  0  0
    8.1506   15.0510  -30.5948 H   0  0  0  0  0  0  0  0  0  0  0  0
    4.8033   17.5945  -29.5483 H   0  0  0  0  0  0  0  0  0  0  0  0
    7.1088   18.3842  -33.1076 H   0  0  0  0  0  0  0  0  0  0  0  0
    5.1960   19.6922  -32.7439 H   0  0  0  0  0  0  0  0  0  0  0  0
    4.0866   19.5276  -29.9387 H   0  0  0  0  0  0  0  0  0  0  0  0
    1.7350   20.5660  -30.1013 H   0  0  0  0  0  0  0  0  0  0  0  0
    0.4765   22.6460  -30.5668 H   0  0  0  0  0  0  0  0  0  0  0  0
    3.6607   24.0133  -33.1061 H   0  0  0  0  0  0  0  0  0  0  0  0
    4.9487   21.9931  -32.5671 H   0  0  0  0  0  0  0  0  0  0  0  0
    1.6332   25.2274  -32.8520 H   0  0  0  0  0  0  0  0  0  0  0  0
    5.5397   15.6782  -28.2073 H   0  0  0  0  0  0  0  0  0  0  0  0
    8.9360   17.0101  -33.5888 H   0  0  0  0  0  0  0  0  0  0  0  0
  1  2  2  0
  1  6  1  0
  1 17  1  0
  2  3  1  0
  3  4  2  0
  3 16  1  0
  4  5  1  0
  5  6  2  0
  5  7  1  0
  7  8  2  3
  8  9  1  0
  9 10  2  0
  9 14  1  0
 10 11  1  0
 11 12  2  0
 12 13  1  0
 12 15  1  0
 13 14  2  0
  2 18  1  0
  4 19  1  0
  6 20  1  0
  7 21  1  0
  8 22  1  0
 10 23  1  0
 11 24  1  0
 13 25  1  0
 14 26  1  0
 15 27  1  0
 16 28  1  0
 17 29  1  0
M  END
>  <filename_input>  (16) 
7VB8_STL_docked.sdf

>  <pdb_id>  (16) 
7VB8_STL

>  <pose_rank>  (16) 
15

>  <num_atoms_heavy>  (16) 
17

>  <num_torsions>  (16) 
2

>  <pose>  (16) 
[5.063601500384699, 19.29084439211477, -31.728315036008386, 5.245634278180859, -2.644106386497394, 1.79492717398055, 0.18627606964009374, -0.7184816881196248]

>  <energy>  (16) 
-672.3544812824266

>  <inter_energy>  (16) 
-672.2975361881995

>  <intra_energy>  (16) 
0.0

>  <rmsd>  (16) 
0.598776

>  <sdf_rank>  (16) 
0

$$$$

     RDKit          3D

 29 30  0  0  0  0  0  0  0  0999 V2000
    2.2166   22.2171  -30.1509 C   0  0  0  0  0  0  0  0  0  0  0  0
    2.2901   23.1246  -31.1901 C   0  0  0  0  0  0  0  0  0  0  0  0
    3.0957   22.8363  -32.2901 C   0  0  0  0  0  0  0  0  0  0  0  0
    3.8363   21.6529  -32.3502 C   0  0  0  0  0  0  0  0  0  0  0  0
    3.7131   20.7194  -31.3133 C   0  0  0  0  0  0  0  0  0  0  0  0
    2.9104   21.0162  -30.2254 C   0  0  0  0  0  0  0  0  0  0  0  0
    4.4744   19.4613  -31.2731 C   0  0  0  0  0  0  0  0  0  0  0  0
    5.7692   19.3162  -31.4108 C   0  0  0  0  0  0  0  0  0  0  0  0
    6.5241   18.0631  -31.3657 C   0  0  0  0  0  0  0  0  0  0  0  0
    6.8775   17.3931  -32.5350 C   0  0  0  0  0  0  0  0  0  0  0  0
    7.6317   16.2297  -32.4978 C   0  0  0  0  0  0  0  0  0  0  0  0
    7.9931   15.6684  -31.2782 C   0  0  0  0  0  0  0  0  0  0  0  0
    7.6741   16.3290  -30.1137 C   0  0  0  0  0  0  0  0  0  0  0  0
    6.9501   17.4974  -30.1620 C   0  0  0  0  0  0  0  0  0  0  0  0
    8.7346   14.5179  -31.2270 O   0  0  0  0  0  0  0  0  0  0  0  0
    3.2393   23.8151  -33.2507 O   0  0  0  0  0  0  0  0  0  0  0  0
    1.3980   22.4295  -29.0526 O   0  0  0  0  0  0  0  0  0  0  0  0
    1.7192   24.0639  -31.1497 H   0  0  0  0  0  0  0  0  0  0  0  0
    4.5067   21.4573  -33.2001 H   0  0  0  0  0  0  0  0  0  0  0  0
    2.8204   20.2884  -29.4056 H   0  0  0  0  0  0  0  0  0  0  0  0
    3.8931   18.5420  -31.1094 H   0  0  0  0  0  0  0  0  0  0  0  0
    6.3513   20.2344  -31.5784 H   0  0  0  0  0  0  0  0  0  0  0  0
    6.5523   17.7945  -33.5061 H   0  0  0  0  0  0  0  0  0  0  0  0
    7.9449   15.7494  -33.4366 H   0  0  0  0  0  0  0  0  0  0  0  0
    7.9982   15.9226  -29.1443 H   0  0  0  0  0  0  0  0  0  0  0  0
    6.6976   18.0043  -29.2190 H   0  0  0  0  0  0  0  0  0  0  0  0
    8.9851   14.1289  -30.3518 H   0  0  0  0  0  0  0  0  0  0  0  0
    3.8034   23.6483  -34.0469 H   0  0  0  0  0  0  0  0  0  0  0  0
    1.3658   21.7615  -28.3227 H   0  0  0  0  0  0  0  0  0  0  0  0
  1  2  2  0
  1  6  1  0
  1 17  1  0
  2  3  1  0
  3  4  2  0
  3 16  1  0
  4  5  1  0
  5  6  2  0
  5  7  1  0
  7  8  2  3
  8  9  1  0
  9 10  2  0
  9 14  1  0
 10 11  1  0
 11 12  2  0
 12 13  1  0
 12 15  1  0
 13 14  2  0
  2 18  1  0
  4 19  1  0
  6 20  1  0
  7 21  1  0
  8 22  1  0
 10 23  1  0
 11 24  1  0
 13 25  1  0
 14 26  1  0
 15 27  1  0
 16 28  1  0
 17 29  1  0
M  END
>  <filename_input>  (17) 
7VB8_STL_docked.sdf

>  <pdb_id>  (17) 
7VB8_STL

>  <pose_rank>  (17) 
16

>  <num_atoms_heavy>  (17) 
17

>  <num_torsions>  (17) 
2

>  <pose>  (17) 
[4.474426154761372, 19.461345517934078, -31.273055880549478, -1.404638339004775, -1.1923101931532767, -2.497636914215105, 0.8713930454029816, -1.5928214879721199]

>  <energy>  (17) 
-618.9817589973536

>  <inter_energy>  (17) 
-602.4349295304831

>  <intra_energy>  (17) 
0.0

>  <rmsd>  (17) 
7.27306

>  <sdf_rank>  (17) 
0

$$$$

     RDKit          3D

 29 30  0  0  0  0  0  0  0  0999 V2000
    1.9401   22.4264  -29.6802 C   0  0  0  0  0  0  0  0  0  0  0  0
    1.5994   23.2744  -30.7164 C   0  0  0  0  0  0  0  0  0  0  0  0
    2.2238   23.1235  -31.9531 C   0  0  0  0  0  0  0  0  0  0  0  0
    3.1943   22.1386  -32.1547 C   0  0  0  0  0  0  0  0  0  0  0  0
    3.4933   21.2539  -31.1108 C   0  0  0  0  0  0  0  0  0  0  0  0
    2.8672   21.4131  -29.8866 C   0  0  0  0  0  0  0  0  0  0  0  0
    4.5202   20.2060  -31.2178 C   0  0  0  0  0  0  0  0  0  0  0  0
    4.6140   19.1148  -30.4988 C   0  0  0  0  0  0  0  0  0  0  0  0
    5.6347   18.0720  -30.6110 C   0  0  0  0  0  0  0  0  0  0  0  0
    5.9546   17.2581  -29.5264 C   0  0  0  0  0  0  0  0  0  0  0  0
    6.8886   16.2394  -29.6419 C   0  0  0  0  0  0  0  0  0  0  0  0
    7.5793   16.0548  -30.8346 C   0  0  0  0  0  0  0  0  0  0  0  0
    7.2591   16.8329  -31.9237 C   0  0  0  0  0  0  0  0  0  0  0  0
    6.3109   17.8223  -31.8072 C   0  0  0  0  0  0  0  0  0  0  0  0
    8.5069   15.0549  -30.9612 O   0  0  0  0  0  0  0  0  0  0  0  0
    1.9484   24.0608  -32.9263 O   0  0  0  0  0  0  0  0  0  0  0  0
    1.3206   22.5005  -28.4424 O   0  0  0  0  0  0  0  0  0  0  0  0
    0.8438   24.0597  -30.5670 H   0  0  0  0  0  0  0  0  0  0  0  0
    3.7162   22.0593  -33.1197 H   0  0  0  0  0  0  0  0  0  0  0  0
    3.1083   20.7252  -29.0628 H   0  0  0  0  0  0  0  0  0  0  0  0
    5.2938   20.3549  -31.9855 H   0  0  0  0  0  0  0  0  0  0  0  0
    3.8431   18.9667  -29.7282 H   0  0  0  0  0  0  0  0  0  0  0  0
    5.4570   17.4268  -28.5600 H   0  0  0  0  0  0  0  0  0  0  0  0
    7.0837   15.5751  -28.7871 H   0  0  0  0  0  0  0  0  0  0  0  0
    7.7615   16.6634  -32.8875 H   0  0  0  0  0  0  0  0  0  0  0  0
    6.0769   18.4390  -32.6874 H   0  0  0  0  0  0  0  0  0  0  0  0
    8.9915   14.9346  -31.8160 H   0  0  0  0  0  0  0  0  0  0  0  0
    2.3725   23.9879  -33.8179 H   0  0  0  0  0  0  0  0  0  0  0  0
    1.5856   21.8795  -27.7183 H   0  0  0  0  0  0  0  0  0  0  0  0
  1  2  2  0
  1  6  1  0
  1 17  1  0
  2  3  1  0
  3  4  2  0
  3 16  1  0
  4  5  1  0
  5  6  2  0
  5  7  1  0
  7  8  2  3
  8  9  1  0
  9 10  2  0
  9 14  1  0
 10 11  1  0
 11 12  2  0
 12 13  1  0
 12 15  1  0
 13 14  2  0
  2 18  1  0
  4 19  1  0
  6 20  1  0
  7 21  1  0
  8 22  1  0
 10 23  1  0
 11 24  1  0
 13 25  1  0
 14 26  1  0
 15 27  1  0
 16 28  1  0
 17 29  1  0
M  END
>  <filename_input>  (18) 
7VB8_STL_docked.sdf

>  <pdb_id>  (18) 
7VB8_STL

>  <pose_rank>  (18) 
17

>  <num_atoms_heavy>  (18) 
17

>  <num_torsions>  (18) 
2

>  <pose>  (18) 
[4.520165896157351, 20.206028125684238, -31.217831294672436, 1.4258556310141683, 1.0129748368138944, -2.595400755427976, 3.4976523191667113, -0.5795190125839942]

>  <energy>  (18) 
-613.4645577154097

>  <inter_energy>  (18) 
-605.4943192469999

>  <intra_energy>  (18) 
0.0

>  <rmsd>  (18) 
7.28203

>  <sdf_rank>  (18) 
0

$$$$

     RDKit          3D

 29 30  0  0  0  0  0  0  0  0999 V2000
    7.3982   16.6987  -31.1705 C   0  0  0  0  0  0  0  0  0  0  0  0
    7.2659   16.2480  -29.8712 C   0  0  0  0  0  0  0  0  0  0  0  0
    6.3227   16.8443  -29.0364 C   0  0  0  0  0  0  0  0  0  0  0  0
    5.5214   17.8953  -29.4900 C   0  0  0  0  0  0  0  0  0  0  0  0
    5.6309   18.3081  -30.8239 C   0  0  0  0  0  0  0  0  0  0  0  0
    6.5713   17.7090  -31.6442 C   0  0  0  0  0  0  0  0  0  0  0  0
    4.8530   19.4241  -31.3839 C   0  0  0  0  0  0  0  0  0  0  0  0
    4.1498   20.3085  -30.7208 C   0  0  0  0  0  0  0  0  0  0  0  0
    3.3805   21.4205  -31.2810 C   0  0  0  0  0  0  0  0  0  0  0  0
    2.2167   21.8739  -30.6636 C   0  0  0  0  0  0  0  0  0  0  0  0
    1.5102   22.9564  -31.1664 C   0  0  0  0  0  0  0  0  0  0  0  0
    1.9165   23.5707  -32.3458 C   0  0  0  0  0  0  0  0  0  0  0  0
    3.0771   23.1525  -32.9559 C   0  0  0  0  0  0  0  0  0  0  0  0
    3.7865   22.0961  -32.4339 C   0  0  0  0  0  0  0  0  0  0  0  0
    1.2260   24.6383  -32.8553 O   0  0  0  0  0  0  0  0  0  0  0  0
    6.3012   16.4523  -27.7146 O   0  0  0  0  0  0  0  0  0  0  0  0
    8.2875   16.1145  -32.0590 O   0  0  0  0  0  0  0  0  0  0  0  0
    7.8979   15.4278  -29.4999 H   0  0  0  0  0  0  0  0  0  0  0  0
    4.8144   18.3915  -28.8089 H   0  0  0  0  0  0  0  0  0  0  0  0
    6.6653   18.0389  -32.6893 H   0  0  0  0  0  0  0  0  0  0  0  0
    4.8629   19.5272  -32.4790 H   0  0  0  0  0  0  0  0  0  0  0  0
    4.1360   20.2042  -29.6259 H   0  0  0  0  0  0  0  0  0  0  0  0
    1.8512   21.3636  -29.7603 H   0  0  0  0  0  0  0  0  0  0  0  0
    0.6255   23.3301  -30.6303 H   0  0  0  0  0  0  0  0  0  0  0  0
    3.4375   23.6632  -33.8611 H   0  0  0  0  0  0  0  0  0  0  0  0
    4.7063   21.7718  -32.9426 H   0  0  0  0  0  0  0  0  0  0  0  0
    1.5262   25.0664  -33.6959 H   0  0  0  0  0  0  0  0  0  0  0  0
    5.6457   16.8529  -27.0901 H   0  0  0  0  0  0  0  0  0  0  0  0
    8.3608   16.4588  -32.9843 H   0  0  0  0  0  0  0  0  0  0  0  0
  1  2  2  0
  1  6  1  0
  1 17  1  0
  2  3  1  0
  3  4  2  0
  3 16  1  0
  4  5  1  0
  5  6  2  0
  5  7  1  0
  7  8  2  3
  8  9  1  0
  9 10  2  0
  9 14  1  0
 10 11  1  0
 11 12  2  0
 12 13  1  0
 12 15  1  0
 13 14  2  0
  2 18  1  0
  4 19  1  0
  6 20  1  0
  7 21  1  0
  8 22  1  0
 10 23  1  0
 11 24  1  0
 13 25  1  0
 14 26  1  0
 15 27  1  0
 16 28  1  0
 17 29  1  0
M  END
>  <filename_input>  (19) 
7VB8_STL_docked.sdf

>  <pdb_id>  (19) 
7VB8_STL

>  <pose_rank>  (19) 
18

>  <num_atoms_heavy>  (19) 
17

>  <num_torsions>  (19) 
2

>  <pose>  (19) 
[4.853008610782303, 19.42405288430461, -31.38385203275343, 5.147408871938056, -2.424110216316441, 1.2838810977644648, 0.1917952986009129, -0.6959532818413732]

>  <energy>  (19) 
-635.9628670207832

>  <inter_energy>  (19) 
-622.6080045904789

>  <intra_energy>  (19) 
0.0

>  <rmsd>  (19) 
0.920916

>  <sdf_rank>  (19) 
0

$$$$

     RDKit          3D

 29 30  0  0  0  0  0  0  0  0999 V2000
    2.6551   21.9735  -30.0241 C   0  0  0  0  0  0  0  0  0  0  0  0
    2.8288   23.0178  -30.9118 C   0  0  0  0  0  0  0  0  0  0  0  0
    3.7300   22.8737  -31.9649 C   0  0  0  0  0  0  0  0  0  0  0  0
    4.4661   21.6971  -32.1271 C   0  0  0  0  0  0  0  0  0  0  0  0
    4.2431   20.6282  -31.2500 C   0  0  0  0  0  0  0  0  0  0  0  0
    3.3458   20.7825  -30.2073 C   0  0  0  0  0  0  0  0  0  0  0  0
    4.9901   19.3630  -31.3221 C   0  0  0  0  0  0  0  0  0  0  0  0
    5.9954   18.9945  -30.5670 C   0  0  0  0  0  0  0  0  0  0  0  0
    6.7336   17.7327  -30.6387 C   0  0  0  0  0  0  0  0  0  0  0  0
    6.9422   16.9553  -29.5015 C   0  0  0  0  0  0  0  0  0  0  0  0
    7.6018   15.7373  -29.5736 C   0  0  0  0  0  0  0  0  0  0  0  0
    8.1322   15.2988  -30.7818 C   0  0  0  0  0  0  0  0  0  0  0  0
    7.9147   16.0414  -31.9199 C   0  0  0  0  0  0  0  0  0  0  0  0
    7.2347   17.2345  -31.8432 C   0  0  0  0  0  0  0  0  0  0  0  0
    8.7890   14.0998  -30.8663 O   0  0  0  0  0  0  0  0  0  0  0  0
    3.9667   23.9762  -32.7585 O   0  0  0  0  0  0  0  0  0  0  0  0
    1.7406   22.0430  -28.9848 O   0  0  0  0  0  0  0  0  0  0  0  0
    2.2621   23.9525  -30.7887 H   0  0  0  0  0  0  0  0  0  0  0  0
    5.2104   21.6116  -32.9325 H   0  0  0  0  0  0  0  0  0  0  0  0
    3.1768   19.9473  -29.5117 H   0  0  0  0  0  0  0  0  0  0  0  0
    4.6697   18.6483  -32.0944 H   0  0  0  0  0  0  0  0  0  0  0  0
    6.3192   19.7099  -29.7968 H   0  0  0  0  0  0  0  0  0  0  0  0
    6.5769   17.3142  -28.5280 H   0  0  0  0  0  0  0  0  0  0  0  0
    7.7056   15.1160  -28.6718 H   0  0  0  0  0  0  0  0  0  0  0  0
    8.2846   15.6807  -32.8910 H   0  0  0  0  0  0  0  0  0  0  0  0
    7.0801   17.8170  -32.7634 H   0  0  0  0  0  0  0  0  0  0  0  0
    9.1619   13.7997  -31.7329 H   0  0  0  0  0  0  0  0  0  0  0  0
    4.6004   23.9137  -33.5165 H   0  0  0  0  0  0  0  0  0  0  0  0
    1.6378   21.2787  -28.3639 H   0  0  0  0  0  0  0  0  0  0  0  0
  1  2  2  0
  1  6  1  0
  1 17  1  0
  2  3  1  0
  3  4  2  0
  3 16  1  0
  4  5  1  0
  5  6  2  0
  5  7  1  0
  7  8  2  3
  8  9  1  0
  9 10  2  0
  9 14  1  0
 10 11  1  0
 11 12  2  0
 12 13  1  0
 12 15  1  0
 13 14  2  0
  2 18  1  0
  4 19  1  0
  6 20  1  0
  7 21  1  0
  8 22  1  0
 10 23  1  0
 11 24  1  0
 13 25  1  0
 14 26  1  0
 15 27  1  0
 16 28  1  0
 17 29  1  0
M  END
>  <filename_input>  (20) 
7VB8_STL_docked.sdf

>  <pdb_id>  (20) 
7VB8_STL

>  <pose_rank>  (20) 
19

>  <num_atoms_heavy>  (20) 
17

>  <num_torsions>  (20) 
2

>  <pose>  (20) 
[4.990129839436235, 19.363027574197865, -31.322110848545357, 0.21970047571492443, 0.35410975049773935, 3.074585187758884, 1.7372338556323232, 0.7465721762084193]

>  <energy>  (20) 
-607.629834634203

>  <inter_energy>  (20) 
-604.7458637259897

>  <intra_energy>  (20) 
0.0

>  <rmsd>  (20) 
7.29995

>  <sdf_rank>  (20) 
0

$$$$

     RDKit          3D

 29 30  0  0  0  0  0  0  0  0999 V2000
    7.5745   17.4263  -32.4986 C   0  0  0  0  0  0  0  0  0  0  0  0
    7.6860   16.7780  -31.2836 C   0  0  0  0  0  0  0  0  0  0  0  0
    6.9313   17.2259  -30.2011 C   0  0  0  0  0  0  0  0  0  0  0  0
    6.0767   18.3245  -30.3241 C   0  0  0  0  0  0  0  0  0  0  0  0
    5.9354   18.9405  -31.5740 C   0  0  0  0  0  0  0  0  0  0  0  0
    6.6901   18.4876  -32.6424 C   0  0  0  0  0  0  0  0  0  0  0  0
    5.0845   20.1200  -31.7946 C   0  0  0  0  0  0  0  0  0  0  0  0
    4.2163   20.6356  -30.9598 C   0  0  0  0  0  0  0  0  0  0  0  0
    3.3745   21.8123  -31.1808 C   0  0  0  0  0  0  0  0  0  0  0  0
    2.9435   22.5995  -30.1152 C   0  0  0  0  0  0  0  0  0  0  0  0
    2.1836   23.7407  -30.3247 C   0  0  0  0  0  0  0  0  0  0  0  0
    1.7763   24.0845  -31.6090 C   0  0  0  0  0  0  0  0  0  0  0  0
    2.2129   23.3328  -32.6760 C   0  0  0  0  0  0  0  0  0  0  0  0
    2.9899   22.2187  -32.4604 C   0  0  0  0  0  0  0  0  0  0  0  0
    1.0227   25.2067  -31.8296 O   0  0  0  0  0  0  0  0  0  0  0  0
    7.1569   16.6335  -28.9765 O   0  0  0  0  0  0  0  0  0  0  0  0
    8.2662   16.9981  -33.6209 O   0  0  0  0  0  0  0  0  0  0  0  0
    8.3628   15.9181  -31.1721 H   0  0  0  0  0  0  0  0  0  0  0  0
    5.5225   18.7003  -29.4514 H   0  0  0  0  0  0  0  0  0  0  0  0
    6.5876   18.9766  -33.6223 H   0  0  0  0  0  0  0  0  0  0  0  0
    5.1886   20.6242  -32.7667 H   0  0  0  0  0  0  0  0  0  0  0  0
    4.1086   20.1301  -29.9888 H   0  0  0  0  0  0  0  0  0  0  0  0
    3.2110   22.3105  -29.0881 H   0  0  0  0  0  0  0  0  0  0  0  0
    1.9022   24.3760  -29.4720 H   0  0  0  0  0  0  0  0  0  0  0  0
    1.9404   23.6232  -33.7014 H   0  0  0  0  0  0  0  0  0  0  0  0
    3.3201   21.6266  -33.3266 H   0  0  0  0  0  0  0  0  0  0  0  0
    0.7394   25.4399  -32.7491 H   0  0  0  0  0  0  0  0  0  0  0  0
    6.6407   16.9242  -28.1834 H   0  0  0  0  0  0  0  0  0  0  0  0
    8.1667   17.4826  -34.4785 H   0  0  0  0  0  0  0  0  0  0  0  0
  1  2  2  0
  1  6  1  0
  1 17  1  0
  2  3  1  0
  3  4  2  0
  3 16  1  0
  4  5  1  0
  5  6  2  0
  5  7  1  0
  7  8  2  3
  8  9  1  0
  9 10  2  0
  9 14  1  0
 10 11  1  0
 11 12  2  0
 12 13  1  0
 12 15  1  0
 13 14  2  0
  2 18  1  0
  4 19  1  0
  6 20  1  0
  7 21  1  0
  8 22  1  0
 10 23  1  0
 11 24  1  0
 13 25  1  0
 14 26  1  0
 15 27  1  0
 16 28  1  0
 17 29  1  0
M  END
>  <filename_input>  (21) 
7VB8_STL_docked.sdf

>  <pdb_id>  (21) 
7VB8_STL

>  <pose_rank>  (21) 
20

>  <num_atoms_heavy>  (21) 
17

>  <num_torsions>  (21) 
2

>  <pose>  (21) 
[5.084538476310947, 20.12000829113624, -31.79458525710244, -2.258912708997836, 5.7737516018242045, 1.3863413096219714, -12.772111460371482, -12.219275076772275]

>  <energy>  (21) 
-632.982532742766

>  <inter_energy>  (21) 
-631.7031912304685

>  <intra_energy>  (21) 
0.0

>  <rmsd>  (21) 
0.523388

>  <sdf_rank>  (21) 
0

$$$$

     RDKit          3D

 29 30  0  0  0  0  0  0  0  0999 V2000
    1.6414   23.7107  -30.1274 C   0  0  0  0  0  0  0  0  0  0  0  0
    1.2972   24.4735  -31.2267 C   0  0  0  0  0  0  0  0  0  0  0  0
    1.8686   24.1818  -32.4638 C   0  0  0  0  0  0  0  0  0  0  0  0
    2.7902   23.1410  -32.6041 C   0  0  0  0  0  0  0  0  0  0  0  0
    3.0916   22.3441  -31.4924 C   0  0  0  0  0  0  0  0  0  0  0  0
    2.5185   22.6430  -30.2684 C   0  0  0  0  0  0  0  0  0  0  0  0
    4.0705   21.2468  -31.5347 C   0  0  0  0  0  0  0  0  0  0  0  0
    4.0372   20.1310  -30.8489 C   0  0  0  0  0  0  0  0  0  0  0  0
    5.0107   19.0392  -30.8968 C   0  0  0  0  0  0  0  0  0  0  0  0
    5.1009   18.1093  -29.8632 C   0  0  0  0  0  0  0  0  0  0  0  0
    5.9909   17.0474  -29.9262 C   0  0  0  0  0  0  0  0  0  0  0  0
    6.8656   16.9298  -31.0007 C   0  0  0  0  0  0  0  0  0  0  0  0
    6.7741   17.8246  -32.0424 C   0  0  0  0  0  0  0  0  0  0  0  0
    5.8687   18.8583  -31.9838 C   0  0  0  0  0  0  0  0  0  0  0  0
    7.7519   15.8881  -31.0737 O   0  0  0  0  0  0  0  0  0  0  0  0
    1.5955   25.0364  -33.5109 O   0  0  0  0  0  0  0  0  0  0  0  0
    1.0719   23.9258  -28.8821 O   0  0  0  0  0  0  0  0  0  0  0  0
    0.5801   25.3016  -31.1265 H   0  0  0  0  0  0  0  0  0  0  0  0
    3.2723   22.9501  -33.5743 H   0  0  0  0  0  0  0  0  0  0  0  0
    2.7618   22.0241  -29.3922 H   0  0  0  0  0  0  0  0  0  0  0  0
    4.9236   21.3774  -32.2166 H   0  0  0  0  0  0  0  0  0  0  0  0
    3.1866   20.0008  -30.1637 H   0  0  0  0  0  0  0  0  0  0  0  0
    4.4541   18.2195  -28.9803 H   0  0  0  0  0  0  0  0  0  0  0  0
    6.0047   16.2956  -29.1234 H   0  0  0  0  0  0  0  0  0  0  0  0
    7.4251   17.7130  -32.9220 H   0  0  0  0  0  0  0  0  0  0  0  0
    5.8186   19.5677  -32.8229 H   0  0  0  0  0  0  0  0  0  0  0  0
    8.3692   15.8165  -31.8444 H   0  0  0  0  0  0  0  0  0  0  0  0
    1.9829   24.8630  -34.4053 H   0  0  0  0  0  0  0  0  0  0  0  0
    1.3381   23.3633  -28.1121 H   0  0  0  0  0  0  0  0  0  0  0  0
  1  2  2  0
  1  6  1  0
  1 17  1  0
  2  3  1  0
  3  4  2  0
  3 16  1  0
  4  5  1  0
  5  6  2  0
  5  7  1  0
  7  8  2  3
  8  9  1  0
  9 10  2  0
  9 14  1  0
 10 11  1  0
 11 12  2  0
 12 13  1  0
 12 15  1  0
 13 14  2  0
  2 18  1  0
  4 19  1  0
  6 20  1  0
  7 21  1  0
  8 22  1  0
 10 23  1  0
 11 24  1  0
 13 25  1  0
 14 26  1  0
 15 27  1  0
 16 28  1  0
 17 29  1  0
M  END
>  <filename_input>  (22) 
7VB8_STL_docked.sdf

>  <pdb_id>  (22) 
7VB8_STL

>  <pose_rank>  (22) 
21

>  <num_atoms_heavy>  (22) 
17

>  <num_torsions>  (22) 
2

>  <pose>  (22) 
[4.070486638782273, 21.246817390422237, -31.534687806757997, 1.5919342793707365, 1.0243853339936693, -2.5243510961316917, 3.682430163780789, -0.4838103884894587]

>  <energy>  (22) 
-601.9288453654098

>  <inter_energy>  (22) 
-581.9783671583027

>  <intra_energy>  (22) 
0.0

>  <rmsd>  (22) 
7.37023

>  <sdf_rank>  (22) 
0

$$$$

     RDKit          3D

 29 30  0  0  0  0  0  0  0  0999 V2000
    7.8925   15.6119  -30.0570 C   0  0  0  0  0  0  0  0  0  0  0  0
    8.6723   15.0508  -31.0500 C   0  0  0  0  0  0  0  0  0  0  0  0
    8.6397   15.5970  -32.3316 C   0  0  0  0  0  0  0  0  0  0  0  0
    7.8233   16.6917  -32.6276 C   0  0  0  0  0  0  0  0  0  0  0  0
    7.0767   17.2817  -31.5999 C   0  0  0  0  0  0  0  0  0  0  0  0
    7.1164   16.7308  -30.3306 C   0  0  0  0  0  0  0  0  0  0  0  0
    6.1668   18.4164  -31.8201 C   0  0  0  0  0  0  0  0  0  0  0  0
    5.2801   18.8928  -30.9816 C   0  0  0  0  0  0  0  0  0  0  0  0
    4.3793   20.0251  -31.2023 C   0  0  0  0  0  0  0  0  0  0  0  0
    3.5934   20.5318  -30.1695 C   0  0  0  0  0  0  0  0  0  0  0  0
    2.7728   21.6329  -30.3634 C   0  0  0  0  0  0  0  0  0  0  0  0
    2.6666   22.2138  -31.6223 C   0  0  0  0  0  0  0  0  0  0  0  0
    3.4536   21.7425  -32.6482 C   0  0  0  0  0  0  0  0  0  0  0  0
    4.2856   20.6675  -32.4388 C   0  0  0  0  0  0  0  0  0  0  0  0
    1.8572   23.2994  -31.8285 O   0  0  0  0  0  0  0  0  0  0  0  0
    9.3360   14.9398  -33.3239 O   0  0  0  0  0  0  0  0  0  0  0  0
    7.9179   15.1394  -28.7541 O   0  0  0  0  0  0  0  0  0  0  0  0
    9.3116   14.1828  -30.8313 H   0  0  0  0  0  0  0  0  0  0  0  0
    7.7677   17.0846  -33.6535 H   0  0  0  0  0  0  0  0  0  0  0  0
    6.5229   17.1871  -29.5246 H   0  0  0  0  0  0  0  0  0  0  0  0
    6.2388   18.9199  -32.7955 H   0  0  0  0  0  0  0  0  0  0  0  0
    5.2044   18.3878  -30.0073 H   0  0  0  0  0  0  0  0  0  0  0  0
    3.6244   20.0493  -29.1814 H   0  0  0  0  0  0  0  0  0  0  0  0
    2.2041   22.0482  -29.5184 H   0  0  0  0  0  0  0  0  0  0  0  0
    3.4173   22.2256  -33.6358 H   0  0  0  0  0  0  0  0  0  0  0  0
    4.8991   20.3008  -33.2749 H   0  0  0  0  0  0  0  0  0  0  0  0
    1.7908   23.7032  -32.7299 H   0  0  0  0  0  0  0  0  0  0  0  0
    9.3370   15.2965  -34.2474 H   0  0  0  0  0  0  0  0  0  0  0  0
    7.3479   15.5614  -28.0634 H   0  0  0  0  0  0  0  0  0  0  0  0
  1  2  2  0
  1  6  1  0
  1 17  1  0
  2  3  1  0
  3  4  2  0
  3 16  1  0
  4  5  1  0
  5  6  2  0
  5  7  1  0
  7  8  2  3
  8  9  1  0
  9 10  2  0
  9 14  1  0
 10 11  1  0
 11 12  2  0
 12 13  1  0
 12 15  1  0
 13 14  2  0
  2 18  1  0
  4 19  1  0
  6 20  1  0
  7 21  1  0
  8 22  1  0
 10 23  1  0
 11 24  1  0
 13 25  1  0
 14 26  1  0
 15 27  1  0
 16 28  1  0
 17 29  1  0
M  END
>  <filename_input>  (23) 
7VB8_STL_docked.sdf

>  <pdb_id>  (23) 
7VB8_STL

>  <pose_rank>  (23) 
22

>  <num_atoms_heavy>  (23) 
17

>  <num_torsions>  (23) 
2

>  <pose>  (23) 
[6.166814916203781, 18.416381844246672, -31.820100773572868, 1.9421719918320781, -4.312092451777967, -3.9823120782026606, -9.649705482819734, -6.289277725498817]

>  <energy>  (23) 
-595.6799833165143

>  <inter_energy>  (23) 
-581.9903439031023

>  <intra_energy>  (23) 
0.0

>  <rmsd>  (23) 
1.7585

>  <sdf_rank>  (23) 
0

$$$$

     RDKit          3D

 29 30  0  0  0  0  0  0  0  0999 V2000
    2.3660   23.0486  -32.3466 C   0  0  0  0  0  0  0  0  0  0  0  0
    1.6948   23.3713  -31.1829 C   0  0  0  0  0  0  0  0  0  0  0  0
    1.9595   22.6483  -30.0213 C   0  0  0  0  0  0  0  0  0  0  0  0
    2.8813   21.5983  -30.0207 C   0  0  0  0  0  0  0  0  0  0  0  0
    3.5913   21.3150  -31.1944 C   0  0  0  0  0  0  0  0  0  0  0  0
    3.3200   22.0392  -32.3425 C   0  0  0  0  0  0  0  0  0  0  0  0
    4.5581   20.2113  -31.2996 C   0  0  0  0  0  0  0  0  0  0  0  0
    4.7346   19.2312  -30.4483 C   0  0  0  0  0  0  0  0  0  0  0  0
    5.6946   18.1320  -30.5584 C   0  0  0  0  0  0  0  0  0  0  0  0
    5.7617   17.1350  -29.5876 C   0  0  0  0  0  0  0  0  0  0  0  0
    6.6387   16.0677  -29.7116 C   0  0  0  0  0  0  0  0  0  0  0  0
    7.5235   16.0095  -30.7827 C   0  0  0  0  0  0  0  0  0  0  0  0
    7.4548   16.9721  -31.7640 C   0  0  0  0  0  0  0  0  0  0  0  0
    6.5620   18.0116  -31.6463 C   0  0  0  0  0  0  0  0  0  0  0  0
    8.3973   14.9631  -30.9154 O   0  0  0  0  0  0  0  0  0  0  0  0
    1.1864   22.9171  -28.9116 O   0  0  0  0  0  0  0  0  0  0  0  0
    2.1766   23.7612  -33.5204 O   0  0  0  0  0  0  0  0  0  0  0  0
    0.9598   24.1896  -31.1734 H   0  0  0  0  0  0  0  0  0  0  0  0
    3.0472   21.0024  -29.1111 H   0  0  0  0  0  0  0  0  0  0  0  0
    3.8697   21.8114  -33.2677 H   0  0  0  0  0  0  0  0  0  0  0  0
    5.2034   20.2086  -32.1904 H   0  0  0  0  0  0  0  0  0  0  0  0
    4.0924   19.2349  -29.5552 H   0  0  0  0  0  0  0  0  0  0  0  0
    5.1067   17.1954  -28.7059 H   0  0  0  0  0  0  0  0  0  0  0  0
    6.6343   15.2644  -28.9601 H   0  0  0  0  0  0  0  0  0  0  0  0
    8.1139   16.9100  -32.6424 H   0  0  0  0  0  0  0  0  0  0  0  0
    6.5300   18.7755  -32.4372 H   0  0  0  0  0  0  0  0  0  0  0  0
    9.0220   14.9341  -31.6829 H   0  0  0  0  0  0  0  0  0  0  0  0
    1.3439   22.4244  -28.0675 H   0  0  0  0  0  0  0  0  0  0  0  0
    2.6716   23.5070  -34.3392 H   0  0  0  0  0  0  0  0  0  0  0  0
  1  2  2  0
  1  6  1  0
  1 17  1  0
  2  3  1  0
  3  4  2  0
  3 16  1  0
  4  5  1  0
  5  6  2  0
  5  7  1  0
  7  8  2  3
  8  9  1  0
  9 10  2  0
  9 14  1  0
 10 11  1  0
 11 12  2  0
 12 13  1  0
 12 15  1  0
 13 14  2  0
  2 18  1  0
  4 19  1  0
  6 20  1  0
  7 21  1  0
  8 22  1  0
 10 23  1  0
 11 24  1  0
 13 25  1  0
 14 26  1  0
 15 27  1  0
 16 28  1  0
 17 29  1  0
M  END
>  <filename_input>  (24) 
7VB8_STL_docked.sdf

>  <pdb_id>  (24) 
7VB8_STL

>  <pose_rank>  (24) 
23

>  <num_atoms_heavy>  (24) 
17

>  <num_torsions>  (24) 
2

>  <pose>  (24) 
[4.558063477284573, 20.211327164409138, -31.29963752502547, 1.2386032768158015, 0.7926877611703764, -2.7819549851314553, 0.19191018912037427, -0.12019738570552352]

>  <energy>  (24) 
-595.4438288059284

>  <inter_energy>  (24) 
-595.6851984036552

>  <intra_energy>  (24) 
0.0

>  <rmsd>  (24) 
7.27827

>  <sdf_rank>  (24) 
0

$$$$

     RDKit          3D

 29 30  0  0  0  0  0  0  0  0999 V2000
    3.0605   22.8110  -32.0644 C   0  0  0  0  0  0  0  0  0  0  0  0
    2.4615   22.7967  -30.8196 C   0  0  0  0  0  0  0  0  0  0  0  0
    2.7828   21.7813  -29.9209 C   0  0  0  0  0  0  0  0  0  0  0  0
    3.6892   20.7751  -30.2649 C   0  0  0  0  0  0  0  0  0  0  0  0
    4.3269   20.8301  -31.5107 C   0  0  0  0  0  0  0  0  0  0  0  0
    3.9999   21.8431  -32.3957 C   0  0  0  0  0  0  0  0  0  0  0  0
    5.2715   19.8019  -31.9737 C   0  0  0  0  0  0  0  0  0  0  0  0
    5.6844   18.7511  -31.3089 C   0  0  0  0  0  0  0  0  0  0  0  0
    6.6211   17.7274  -31.7744 C   0  0  0  0  0  0  0  0  0  0  0  0
    7.1631   16.7937  -30.8937 C   0  0  0  0  0  0  0  0  0  0  0  0
    8.0154   15.7944  -31.3393 C   0  0  0  0  0  0  0  0  0  0  0  0
    8.4025   15.7480  -32.6740 C   0  0  0  0  0  0  0  0  0  0  0  0
    7.8581   16.6467  -33.5630 C   0  0  0  0  0  0  0  0  0  0  0  0
    6.9915   17.6168  -33.1164 C   0  0  0  0  0  0  0  0  0  0  0  0
    9.2464   14.7687  -33.1266 O   0  0  0  0  0  0  0  0  0  0  0  0
    2.0782   21.7297  -28.7367 O   0  0  0  0  0  0  0  0  0  0  0  0
    2.8136   23.8202  -32.9821 O   0  0  0  0  0  0  0  0  0  0  0  0
    1.7390   23.5780  -30.5410 H   0  0  0  0  0  0  0  0  0  0  0  0
    3.8991   19.9512  -29.5669 H   0  0  0  0  0  0  0  0  0  0  0  0
    4.4926   21.8821  -33.3784 H   0  0  0  0  0  0  0  0  0  0  0  0
    5.6753   19.9291  -32.9889 H   0  0  0  0  0  0  0  0  0  0  0  0
    5.2843   18.6248  -30.2921 H   0  0  0  0  0  0  0  0  0  0  0  0
    6.9102   16.8502  -29.8247 H   0  0  0  0  0  0  0  0  0  0  0  0
    8.3864   15.0358  -30.6344 H   0  0  0  0  0  0  0  0  0  0  0  0
    8.1162   16.5891  -34.6307 H   0  0  0  0  0  0  0  0  0  0  0  0
    6.5753   18.3311  -33.8421 H   0  0  0  0  0  0  0  0  0  0  0  0
    9.5140   14.7474  -34.0795 H   0  0  0  0  0  0  0  0  0  0  0  0
    2.2773   21.0231  -28.0726 H   0  0  0  0  0  0  0  0  0  0  0  0
    3.2574   23.8042  -33.8668 H   0  0  0  0  0  0  0  0  0  0  0  0
  1  2  2  0
  1  6  1  0
  1 17  1  0
  2  3  1  0
  3  4  2  0
  3 16  1  0
  4  5  1  0
  5  6  2  0
  5  7  1  0
  7  8  2  3
  8  9  1  0
  9 10  2  0
  9 14  1  0
 10 11  1  0
 11 12  2  0
 12 13  1  0
 12 15  1  0
 13 14  2  0
  2 18  1  0
  4 19  1  0
  6 20  1  0
  7 21  1  0
  8 22  1  0
 10 23  1  0
 11 24  1  0
 13 25  1  0
 14 26  1  0
 15 27  1  0
 16 28  1  0
 17 29  1  0
M  END
>  <filename_input>  (25) 
7VB8_STL_docked.sdf

>  <pdb_id>  (25) 
7VB8_STL

>  <pose_rank>  (25) 
24

>  <num_atoms_heavy>  (25) 
17

>  <num_torsions>  (25) 
2

>  <pose>  (25) 
[5.27151635633122, 19.801890428362878, -31.973653117305997, 0.8818670291650434, 0.9860562456688853, -2.9272399826625697, -0.06749145641445026, -0.34407622713046715]

>  <energy>  (25) 
-594.8938154208612

>  <inter_energy>  (25) 
-600.9069836763449

>  <intra_energy>  (25) 
0.0

>  <rmsd>  (25) 
7.26934

>  <sdf_rank>  (25) 
0

$$$$

     RDKit          3D

 29 30  0  0  0  0  0  0  0  0999 V2000
    7.7860   17.2040  -32.1770 C   0  0  0  0  0  0  0  0  0  0  0  0
    7.6420   16.3900  -31.0700 C   0  0  0  0  0  0  0  0  0  0  0  0
    6.6480   16.6790  -30.1370 C   0  0  0  0  0  0  0  0  0  0  0  0
    5.8070   17.7830  -30.2990 C   0  0  0  0  0  0  0  0  0  0  0  0
    5.9310   18.5700  -31.4510 C   0  0  0  0  0  0  0  0  0  0  0  0
    6.9220   18.2740  -32.3710 C   0  0  0  0  0  0  0  0  0  0  0  0
    5.1130   19.7680  -31.6950 C   0  0  0  0  0  0  0  0  0  0  0  0
    4.2010   20.2770  -30.9040 C   0  0  0  0  0  0  0  0  0  0  0  0
    3.3920   21.4720  -31.1480 C   0  0  0  0  0  0  0  0  0  0  0  0
    2.5740   22.0030  -30.1530 C   0  0  0  0  0  0  0  0  0  0  0  0
    1.8410   23.1610  -30.3660 C   0  0  0  0  0  0  0  0  0  0  0  0
    1.8560   23.7800  -31.6110 C   0  0  0  0  0  0  0  0  0  0  0  0
    2.6770   23.2840  -32.5980 C   0  0  0  0  0  0  0  0  0  0  0  0
    3.4220   22.1510  -32.3680 C   0  0  0  0  0  0  0  0  0  0  0  0
    1.1340   24.9220  -31.8360 O   0  0  0  0  0  0  0  0  0  0  0  0
    6.6110   15.9190  -28.9870 O   0  0  0  0  0  0  0  0  0  0  0  0
    8.7270   16.9400  -33.1600 O   0  0  0  0  0  0  0  0  0  0  0  0
    8.3044   15.5236  -30.9267 H   0  0  0  0  0  0  0  0  0  0  0  0
    5.0579   18.0306  -29.5325 H   0  0  0  0  0  0  0  0  0  0  0  0
    7.0271   18.8971  -33.2714 H   0  0  0  0  0  0  0  0  0  0  0  0
    5.2859   20.2940  -32.6455 H   0  0  0  0  0  0  0  0  0  0  0  0
    4.0244   19.7498  -29.9549 H   0  0  0  0  0  0  0  0  0  0  0  0
    2.5083   21.4941  -29.1800 H   0  0  0  0  0  0  0  0  0  0  0  0
    1.2457   23.5912  -29.5471 H   0  0  0  0  0  0  0  0  0  0  0  0
    2.7373   23.7938  -33.5709 H   0  0  0  0  0  0  0  0  0  0  0  0
    4.0643   21.7659  -33.1737 H   0  0  0  0  0  0  0  0  0  0  0  0
    1.1536   25.3525  -32.7273 H   0  0  0  0  0  0  0  0  0  0  0  0
    5.9197   16.0938  -28.3002 H   0  0  0  0  0  0  0  0  0  0  0  0
    8.8075   17.5412  -33.9424 H   0  0  0  0  0  0  0  0  0  0  0  0
  1  2  2  0
  1  6  1  0
  1 17  1  0
  2  3  1  0
  3  4  2  0
  3 16  1  0
  4  5  1  0
  5  6  2  0
  5  7  1  0
  7  8  2  3
  8  9  1  0
  9 10  2  0
  9 14  1  0
 10 11  1  0
 11 12  2  0
 12 13  1  0
 12 15  1  0
 13 14  2  0
  2 18  1  0
  4 19  1  0
  6 20  1  0
  7 21  1  0
  8 22  1  0
 10 23  1  0
 11 24  1  0
 13 25  1  0
 14 26  1  0
 15 27  1  0
 16 28  1  0
 17 29  1  0
M  END
>  <filename_input>  (26) 
7VB8_STL_docked.sdf

>  <pdb_id>  (26) 
7VB8_STL

>  <pose_rank>  (26) 
25

>  <num_atoms_heavy>  (26) 
17

>  <num_torsions>  (26) 
2

>  <pose>  (26) 
[5.113, 19.768, -31.695, 1e-06, 1e-06, 1e-06, 0.0, 0.0]

>  <energy>  (26) 
-698.4139622316136

>  <inter_energy>  (26) 
-688.8715244338903

>  <intra_energy>  (26) 
0.0

>  <rmsd>  (26) 
0.0

>  <sdf_rank>  (26) 
0

$$$$
