
     RDKit          3D

 31 34  0  0  0  0  0  0  0  0999 V2000
   35.8023   39.5641   62.7156 C   0  0  0  0  0  0  0  0  0  0  0  0
   35.7410   38.8308   63.8949 C   0  0  0  0  0  0  0  0  0  0  0  0
   35.0350   37.6298   63.9594 C   0  0  0  0  0  0  0  0  0  0  0  0
   35.1633   39.1316   61.5373 C   0  0  0  0  0  0  0  0  0  0  0  0
   34.4612   37.9183   61.6374 C   0  0  0  0  0  0  0  0  0  0  0  0
   34.3775   37.1574   62.8059 C   0  0  0  0  0  0  0  0  0  0  0  0
   35.1721   39.8545   60.2224 C   0  0  2  0  0  0  0  0  0  0  0  0
   35.7972   41.2235   60.0702 C   0  0  0  0  0  0  0  0  0  0  0  0
   34.3099   41.0756   60.0096 C   0  0  0  0  0  0  0  0  0  0  0  0
   33.2135   36.0913   61.1894 C   0  0  0  0  0  0  0  0  0  0  0  0
   33.5890   36.0007   62.5214 C   0  0  0  0  0  0  0  0  0  0  0  0
   33.1390   34.8770   63.2293 C   0  0  0  0  0  0  0  0  0  0  0  0
   32.3561   33.9487   62.5359 C   0  0  0  0  0  0  0  0  0  0  0  0
   32.0506   34.1643   61.1891 C   0  0  0  0  0  0  0  0  0  0  0  0
   31.2083   33.1642   60.4495 C   0  0  0  0  0  0  0  0  0  0  0  0
   32.4642   35.2366   60.4759 N   0  0  0  0  0  0  0  0  0  0  0  0
   33.7410   37.2367   60.6844 N   0  0  0  0  0  0  0  0  0  0  0  0
   36.3658   40.5087   62.7023 H   0  0  0  0  0  0  0  0  0  0  0  0
   36.2575   39.2038   64.7916 H   0  0  0  0  0  0  0  0  0  0  0  0
   34.9920   37.0586   64.8984 H   0  0  0  0  0  0  0  0  0  0  0  0
   35.3010   38.8834   59.7221 H   0  0  0  0  0  0  0  0  0  0  0  0
   36.2657   41.7129   60.9368 H   0  0  0  0  0  0  0  0  0  0  0  0
   36.5617   41.6589   59.4099 H   0  0  0  0  0  0  0  0  0  0  0  0
   33.7829   41.2157   59.0542 H   0  0  0  0  0  0  0  0  0  0  0  0
   33.4631   41.5297   60.5451 H   0  0  0  0  0  0  0  0  0  0  0  0
   33.3923   34.7312   64.2898 H   0  0  0  0  0  0  0  0  0  0  0  0
   31.9815   33.0508   63.0492 H   0  0  0  0  0  0  0  0  0  0  0  0
   30.6738   32.5296   61.1718 H   0  0  0  0  0  0  0  0  0  0  0  0
   30.4802   33.6939   59.8177 H   0  0  0  0  0  0  0  0  0  0  0  0
   31.8541   32.5368   59.8177 H   0  0  0  0  0  0  0  0  0  0  0  0
   33.6175   37.5540   59.7123 H   0  0  0  0  0  0  0  0  0  0  0  0
  1  2  2  0
  1  4  1  0
  2  3  1  0
  3  6  2  0
  4  5  2  0
  7  4  1  0
  5  6  1  0
  5 17  1  0
  6 11  1  0
  7  8  1  0
  7  9  1  0
  8  9  1  0
 10 11  2  0
 10 16  1  0
 10 17  1  0
 11 12  1  0
 12 13  2  0
 13 14  1  0
 14 15  1  0
 14 16  2  0
  1 18  1  0
  2 19  1  0
  3 20  1  0
  7 21  1  6
  8 22  1  0
  8 23  1  0
  9 24  1  0
  9 25  1  0
 12 26  1  0
 13 27  1  0
 15 28  1  0
 15 29  1  0
 15 30  1  0
 17 31  1  0
M  END
>  <filename_input>  (1) 
7VBU_6I4_docked.sdf

>  <pdb_id>  (1) 
7VBU_6I4

>  <pose_rank>  (1) 
0

>  <num_atoms_heavy>  (1) 
17

>  <num_torsions>  (1) 
1

>  <pose>  (1) 
[35.80234766633714, 39.56408663285054, 62.71562913777114, -0.2878361419361584, 6.10742049028351, 0.8412873115927264, -0.16255667294330065]

>  <energy>  (1) 
-919.3205534819996

>  <inter_energy>  (1) 
-891.0216514259411

>  <intra_energy>  (1) 
0.0

>  <rmsd>  (1) 
0.502321

>  <sdf_rank>  (1) 
0

$$$$

     RDKit          3D

 31 34  0  0  0  0  0  0  0  0999 V2000
   32.8620   33.7729   63.4065 C   0  0  0  0  0  0  0  0  0  0  0  0
   33.4578   34.4877   64.4390 C   0  0  0  0  0  0  0  0  0  0  0  0
   33.9617   35.7710   64.2284 C   0  0  0  0  0  0  0  0  0  0  0  0
   32.7356   34.3068   62.1092 C   0  0  0  0  0  0  0  0  0  0  0  0
   33.2536   35.6011   61.9320 C   0  0  0  0  0  0  0  0  0  0  0  0
   33.8598   36.3464   62.9461 C   0  0  0  0  0  0  0  0  0  0  0  0
   32.1116   33.6116   60.9349 C   0  0  2  0  0  0  0  0  0  0  0  0
   30.7659   34.0295   60.3848 C   0  0  0  0  0  0  0  0  0  0  0  0
   30.8981   32.7318   61.1170 C   0  0  0  0  0  0  0  0  0  0  0  0
   33.8792   37.5857   61.0572 C   0  0  0  0  0  0  0  0  0  0  0  0
   34.2542   37.6027   62.3923 C   0  0  0  0  0  0  0  0  0  0  0  0
   34.8889   38.7643   62.8552 C   0  0  0  0  0  0  0  0  0  0  0  0
   35.0872   39.8005   61.9373 C   0  0  0  0  0  0  0  0  0  0  0  0
   34.6584   39.6504   60.6154 C   0  0  0  0  0  0  0  0  0  0  0  0
   34.8751   40.7665   59.6335 C   0  0  0  0  0  0  0  0  0  0  0  0
   34.0463   38.5448   60.1334 N   0  0  0  0  0  0  0  0  0  0  0  0
   33.2881   36.3889   60.8051 N   0  0  0  0  0  0  0  0  0  0  0  0
   32.4784   32.7618   63.6082 H   0  0  0  0  0  0  0  0  0  0  0  0
   33.5331   34.0339   65.4382 H   0  0  0  0  0  0  0  0  0  0  0  0
   34.4326   36.3268   65.0527 H   0  0  0  0  0  0  0  0  0  0  0  0
   33.1185   33.4880   60.5096 H   0  0  0  0  0  0  0  0  0  0  0  0
   30.2203   34.8666   60.8447 H   0  0  0  0  0  0  0  0  0  0  0  0
   30.3905   34.3275   59.3947 H   0  0  0  0  0  0  0  0  0  0  0  0
   30.8217   31.7816   60.5680 H   0  0  0  0  0  0  0  0  0  0  0  0
   30.3946   32.2747   61.9816 H   0  0  0  0  0  0  0  0  0  0  0  0
   35.2182   38.8569   63.9006 H   0  0  0  0  0  0  0  0  0  0  0  0
   35.5795   40.7315   62.2548 H   0  0  0  0  0  0  0  0  0  0  0  0
   35.0571   41.7044   60.1787 H   0  0  0  0  0  0  0  0  0  0  0  0
   35.7451   40.5350   59.0013 H   0  0  0  0  0  0  0  0  0  0  0  0
   33.9817   40.8773   59.0013 H   0  0  0  0  0  0  0  0  0  0  0  0
   32.9138   36.1075   59.8878 H   0  0  0  0  0  0  0  0  0  0  0  0
  1  2  2  0
  1  4  1  0
  2  3  1  0
  3  6  2  0
  4  5  2  0
  7  4  1  0
  5  6  1  0
  5 17  1  0
  6 11  1  0
  7  8  1  0
  7  9  1  0
  8  9  1  0
 10 11  2  0
 10 16  1  0
 10 17  1  0
 11 12  1  0
 12 13  2  0
 13 14  1  0
 14 15  1  0
 14 16  2  0
  1 18  1  0
  2 19  1  0
  3 20  1  0
  7 21  1  6
  8 22  1  0
  8 23  1  0
  9 24  1  0
  9 25  1  0
 12 26  1  0
 13 27  1  0
 15 28  1  0
 15 29  1  0
 15 30  1  0
 17 31  1  0
M  END
>  <filename_input>  (2) 
7VBU_6I4_docked.sdf

>  <pdb_id>  (2) 
7VBU_6I4

>  <pose_rank>  (2) 
1

>  <num_atoms_heavy>  (2) 
17

>  <num_torsions>  (2) 
1

>  <pose>  (2) 
[32.86199839633217, 33.772883475904436, 63.406492231081536, 1.0598175455877508, -0.06015178967494494, 3.077400546993329, 1.8150456808729618]

>  <energy>  (2) 
-822.9628690941245

>  <inter_energy>  (2) 
-825.4132085343487

>  <intra_energy>  (2) 
1.4616372224200793

>  <rmsd>  (2) 
5.43046

>  <sdf_rank>  (2) 
0

$$$$

     RDKit          3D

 31 34  0  0  0  0  0  0  0  0999 V2000
   35.7444   39.7367   62.7258 C   0  0  0  0  0  0  0  0  0  0  0  0
   35.6912   38.9850   63.8938 C   0  0  0  0  0  0  0  0  0  0  0  0
   35.0365   37.7540   63.9279 C   0  0  0  0  0  0  0  0  0  0  0  0
   35.1482   39.2938   61.5290 C   0  0  0  0  0  0  0  0  0  0  0  0
   34.4972   38.0502   61.5986 C   0  0  0  0  0  0  0  0  0  0  0  0
   34.4231   37.2701   62.7552 C   0  0  0  0  0  0  0  0  0  0  0  0
   35.1520   40.0348   60.2242 C   0  0  2  0  0  0  0  0  0  0  0  0
   36.3186   39.9523   59.2647 C   0  0  0  0  0  0  0  0  0  0  0  0
   36.0628   41.2208   60.0152 C   0  0  0  0  0  0  0  0  0  0  0  0
   33.3387   36.1779   61.1012 C   0  0  0  0  0  0  0  0  0  0  0  0
   33.6911   36.0848   62.4393 C   0  0  0  0  0  0  0  0  0  0  0  0
   33.2760   34.9330   63.1230 C   0  0  0  0  0  0  0  0  0  0  0  0
   32.5478   33.9818   62.4015 C   0  0  0  0  0  0  0  0  0  0  0  0
   32.2602   34.2031   61.0516 C   0  0  0  0  0  0  0  0  0  0  0  0
   31.4767   33.1782   60.2819 C   0  0  0  0  0  0  0  0  0  0  0  0
   32.6413   35.3020   60.3613 N   0  0  0  0  0  0  0  0  0  0  0  0
   33.8263   37.3518   60.6222 N   0  0  0  0  0  0  0  0  0  0  0  0
   36.2668   40.7047   62.7364 H   0  0  0  0  0  0  0  0  0  0  0  0
   36.1732   39.3671   64.8057 H   0  0  0  0  0  0  0  0  0  0  0  0
   34.9995   37.1684   64.8583 H   0  0  0  0  0  0  0  0  0  0  0  0
   34.0707   39.8478   60.1478 H   0  0  0  0  0  0  0  0  0  0  0  0
   37.1926   39.3329   59.5146 H   0  0  0  0  0  0  0  0  0  0  0  0
   36.4335   39.6879   58.2032 H   0  0  0  0  0  0  0  0  0  0  0  0
   35.6934   42.1091   59.4817 H   0  0  0  0  0  0  0  0  0  0  0  0
   36.6614   41.8646   60.6763 H   0  0  0  0  0  0  0  0  0  0  0  0
   33.5141   34.7834   64.1865 H   0  0  0  0  0  0  0  0  0  0  0  0
   32.2021   33.0616   62.8952 H   0  0  0  0  0  0  0  0  0  0  0  0
   30.9628   32.5059   60.9846 H   0  0  0  0  0  0  0  0  0  0  0  0
   30.7334   33.6846   59.6487 H   0  0  0  0  0  0  0  0  0  0  0  0
   32.1604   32.5937   59.6487 H   0  0  0  0  0  0  0  0  0  0  0  0
   33.7085   37.6771   59.6520 H   0  0  0  0  0  0  0  0  0  0  0  0
  1  2  2  0
  1  4  1  0
  2  3  1  0
  3  6  2  0
  4  5  2  0
  7  4  1  0
  5  6  1  0
  5 17  1  0
  6 11  1  0
  7  8  1  0
  7  9  1  0
  8  9  1  0
 10 11  2  0
 10 16  1  0
 10 17  1  0
 11 12  1  0
 12 13  2  0
 13 14  1  0
 14 15  1  0
 14 16  2  0
  1 18  1  0
  2 19  1  0
  3 20  1  0
  7 21  1  6
  8 22  1  0
  8 23  1  0
  9 24  1  0
  9 25  1  0
 12 26  1  0
 13 27  1  0
 15 28  1  0
 15 29  1  0
 15 30  1  0
 17 31  1  0
M  END
>  <filename_input>  (3) 
7VBU_6I4_docked.sdf

>  <pdb_id>  (3) 
7VBU_6I4

>  <pose_rank>  (3) 
2

>  <num_atoms_heavy>  (3) 
17

>  <num_torsions>  (3) 
1

>  <pose>  (3) 
[35.74437818211693, 39.73668942248522, 62.725777086070075, 0.021301593564617388, -0.13021671062901274, 0.027093444988327286, 1.3902082501752204]

>  <energy>  (3) 
-875.6401699887689

>  <inter_energy>  (3) 
-871.3895909873428

>  <intra_energy>  (3) 
0.0

>  <rmsd>  (3) 
0.879898

>  <sdf_rank>  (3) 
0

$$$$

     RDKit          3D

 31 34  0  0  0  0  0  0  0  0999 V2000
   35.6730   39.2695   63.4821 C   0  0  0  0  0  0  0  0  0  0  0  0
   35.6447   38.4455   64.6012 C   0  0  0  0  0  0  0  0  0  0  0  0
   34.9754   37.2222   64.5772 C   0  0  0  0  0  0  0  0  0  0  0  0
   35.0360   38.9103   62.2783 C   0  0  0  0  0  0  0  0  0  0  0  0
   34.3712   37.6722   62.2888 C   0  0  0  0  0  0  0  0  0  0  0  0
   34.3213   36.8208   63.3953 C   0  0  0  0  0  0  0  0  0  0  0  0
   35.0108   39.7328   61.0235 C   0  0  2  0  0  0  0  0  0  0  0  0
   36.2831   40.1949   60.3483 C   0  0  0  0  0  0  0  0  0  0  0  0
   35.4115   41.1884   61.0491 C   0  0  0  0  0  0  0  0  0  0  0  0
   33.1743   35.8483   61.7091 C   0  0  0  0  0  0  0  0  0  0  0  0
   33.5649   35.6662   63.0274 C   0  0  0  0  0  0  0  0  0  0  0  0
   33.1553   34.4779   63.6490 C   0  0  0  0  0  0  0  0  0  0  0  0
   32.3938   33.5827   62.8912 C   0  0  0  0  0  0  0  0  0  0  0  0
   32.0692   33.8927   61.5674 C   0  0  0  0  0  0  0  0  0  0  0  0
   31.2500   32.9277   60.7584 C   0  0  0  0  0  0  0  0  0  0  0  0
   32.4439   35.0291   60.9368 N   0  0  0  0  0  0  0  0  0  0  0  0
   33.6626   37.0448   61.2909 N   0  0  0  0  0  0  0  0  0  0  0  0
   36.2080   40.2289   63.5382 H   0  0  0  0  0  0  0  0  0  0  0  0
   36.1584   38.7634   65.5204 H   0  0  0  0  0  0  0  0  0  0  0  0
   34.9583   36.5789   65.4693 H   0  0  0  0  0  0  0  0  0  0  0  0
   34.1254   39.1643   60.7029 H   0  0  0  0  0  0  0  0  0  0  0  0
   37.2605   39.9247   60.7745 H   0  0  0  0  0  0  0  0  0  0  0  0
   36.6999   40.1070   59.3342 H   0  0  0  0  0  0  0  0  0  0  0  0
   34.8402   41.9252   60.4655 H   0  0  0  0  0  0  0  0  0  0  0  0
   35.5690   41.9353   61.8411 H   0  0  0  0  0  0  0  0  0  0  0  0
   33.4228   34.2582   64.6931 H   0  0  0  0  0  0  0  0  0  0  0  0
   32.0509   32.6368   63.3358 H   0  0  0  0  0  0  0  0  0  0  0  0
   30.6887   32.2664   61.4348 H   0  0  0  0  0  0  0  0  0  0  0  0
   30.5461   33.4863   60.1240 H   0  0  0  0  0  0  0  0  0  0  0  0
   31.9155   32.3238   60.1240 H   0  0  0  0  0  0  0  0  0  0  0  0
   33.5205   37.4326   60.3473 H   0  0  0  0  0  0  0  0  0  0  0  0
  1  2  2  0
  1  4  1  0
  2  3  1  0
  3  6  2  0
  4  5  2  0
  7  4  1  0
  5  6  1  0
  5 17  1  0
  6 11  1  0
  7  8  1  0
  7  9  1  0
  8  9  1  0
 10 11  2  0
 10 16  1  0
 10 17  1  0
 11 12  1  0
 12 13  2  0
 13 14  1  0
 14 15  1  0
 14 16  2  0
  1 18  1  0
  2 19  1  0
  3 20  1  0
  7 21  1  6
  8 22  1  0
  8 23  1  0
  9 24  1  0
  9 25  1  0
 12 26  1  0
 13 27  1  0
 15 28  1  0
 15 29  1  0
 15 30  1  0
 17 31  1  0
M  END
>  <filename_input>  (4) 
7VBU_6I4_docked.sdf

>  <pdb_id>  (4) 
7VBU_6I4

>  <pose_rank>  (4) 
3

>  <num_atoms_heavy>  (4) 
17

>  <num_torsions>  (4) 
1

>  <pose>  (4) 
[35.673021740224485, 39.2694518098922, 63.482090610403915, -3.9272682341367546, 4.7083829916303905, -0.4928203794094066, 0.9135372443047843]

>  <energy>  (4) 
-688.3290426075346

>  <inter_energy>  (4) 
-683.2124362033147

>  <intra_energy>  (4) 
0.0

>  <rmsd>  (4) 
0.669143

>  <sdf_rank>  (4) 
0

$$$$

     RDKit          3D

 31 34  0  0  0  0  0  0  0  0999 V2000
   35.8685   39.8799   62.3372 C   0  0  0  0  0  0  0  0  0  0  0  0
   35.9499   39.1584   63.5225 C   0  0  0  0  0  0  0  0  0  0  0  0
   35.2756   37.9472   63.6752 C   0  0  0  0  0  0  0  0  0  0  0  0
   35.1106   39.4250   61.2406 C   0  0  0  0  0  0  0  0  0  0  0  0
   34.4443   38.2020   61.4284 C   0  0  0  0  0  0  0  0  0  0  0  0
   34.5027   37.4524   62.6058 C   0  0  0  0  0  0  0  0  0  0  0  0
   34.9622   40.1339   59.9265 C   0  0  2  0  0  0  0  0  0  0  0  0
   34.6103   41.6031   59.8492 C   0  0  0  0  0  0  0  0  0  0  0  0
   33.6030   40.5759   59.4396 C   0  0  0  0  0  0  0  0  0  0  0  0
   33.1855   36.3511   61.1373 C   0  0  0  0  0  0  0  0  0  0  0  0
   33.7071   36.2805   62.4204 C   0  0  0  0  0  0  0  0  0  0  0  0
   33.3569   35.1575   63.1836 C   0  0  0  0  0  0  0  0  0  0  0  0
   32.5178   34.2097   62.5892 C   0  0  0  0  0  0  0  0  0  0  0  0
   32.0620   34.4063   61.2825 C   0  0  0  0  0  0  0  0  0  0  0  0
   31.1601   33.3852   60.6495 C   0  0  0  0  0  0  0  0  0  0  0  0
   32.3763   35.4772   60.5185 N   0  0  0  0  0  0  0  0  0  0  0  0
   33.6348   37.4991   60.5669 N   0  0  0  0  0  0  0  0  0  0  0  0
   36.4112   40.8330   62.2534 H   0  0  0  0  0  0  0  0  0  0  0  0
   36.5560   39.5489   64.3533 H   0  0  0  0  0  0  0  0  0  0  0  0
   35.3460   37.3854   64.6183 H   0  0  0  0  0  0  0  0  0  0  0  0
   35.7770   39.5100   59.5306 H   0  0  0  0  0  0  0  0  0  0  0  0
   34.4607   42.1814   60.7729 H   0  0  0  0  0  0  0  0  0  0  0  0
   35.0595   42.4848   59.3688 H   0  0  0  0  0  0  0  0  0  0  0  0
   33.3362   40.4615   58.3786 H   0  0  0  0  0  0  0  0  0  0  0  0
   32.5654   40.3499   59.7266 H   0  0  0  0  0  0  0  0  0  0  0  0
   33.7281   35.0270   64.2108 H   0  0  0  0  0  0  0  0  0  0  0  0
   32.2172   33.3116   63.1487 H   0  0  0  0  0  0  0  0  0  0  0  0
   30.6506   32.8085   61.4355 H   0  0  0  0  0  0  0  0  0  0  0  0
   30.4115   33.8944   60.0247 H   0  0  0  0  0  0  0  0  0  0  0  0
   31.7577   32.7052   60.0247 H   0  0  0  0  0  0  0  0  0  0  0  0
   33.3994   37.8041   59.6117 H   0  0  0  0  0  0  0  0  0  0  0  0
  1  2  2  0
  1  4  1  0
  2  3  1  0
  3  6  2  0
  4  5  2  0
  7  4  1  0
  5  6  1  0
  5 17  1  0
  6 11  1  0
  7  8  1  0
  7  9  1  0
  8  9  1  0
 10 11  2  0
 10 16  1  0
 10 17  1  0
 11 12  1  0
 12 13  2  0
 13 14  1  0
 14 15  1  0
 14 16  2  0
  1 18  1  0
  2 19  1  0
  3 20  1  0
  7 21  1  6
  8 22  1  0
  8 23  1  0
  9 24  1  0
  9 25  1  0
 12 26  1  0
 13 27  1  0
 15 28  1  0
 15 29  1  0
 15 30  1  0
 17 31  1  0
M  END
>  <filename_input>  (5) 
7VBU_6I4_docked.sdf

>  <pdb_id>  (5) 
7VBU_6I4

>  <pose_rank>  (5) 
4

>  <num_atoms_heavy>  (5) 
17

>  <num_torsions>  (5) 
1

>  <pose>  (5) 
[35.86851346108529, 39.87992369157289, 62.3372433033279, -6.024624557256834, 0.5713781915990981, 1.7073066411862972, 5.363385697907477]

>  <energy>  (5) 
-865.1387865895333

>  <inter_energy>  (5) 
-863.8904007940426

>  <intra_energy>  (5) 
5.368178265102184

>  <rmsd>  (5) 
0.796382

>  <sdf_rank>  (5) 
0

$$$$

     RDKit          3D

 31 34  0  0  0  0  0  0  0  0999 V2000
   35.0759   39.8936   63.0539 C   0  0  0  0  0  0  0  0  0  0  0  0
   35.0786   39.0420   64.1524 C   0  0  0  0  0  0  0  0  0  0  0  0
   34.5322   37.7613   64.0714 C   0  0  0  0  0  0  0  0  0  0  0  0
   34.5295   39.5066   61.8147 C   0  0  0  0  0  0  0  0  0  0  0  0
   33.9876   38.2107   61.7680 C   0  0  0  0  0  0  0  0  0  0  0  0
   33.9720   37.3301   62.8523 C   0  0  0  0  0  0  0  0  0  0  0  0
   34.4796   40.3551   60.5781 C   0  0  2  0  0  0  0  0  0  0  0  0
   35.6125   40.3698   59.5759 C   0  0  0  0  0  0  0  0  0  0  0  0
   35.3699   41.5667   60.4396 C   0  0  0  0  0  0  0  0  0  0  0  0
   32.9988   36.2965   61.0948 C   0  0  0  0  0  0  0  0  0  0  0  0
   33.3474   36.1184   62.4253 C   0  0  0  0  0  0  0  0  0  0  0  0
   33.0278   34.8807   63.0017 C   0  0  0  0  0  0  0  0  0  0  0  0
   32.3900   33.9368   62.1906 C   0  0  0  0  0  0  0  0  0  0  0  0
   32.0950   34.2486   60.8604 C   0  0  0  0  0  0  0  0  0  0  0  0
   31.4088   33.2310   59.9940 C   0  0  0  0  0  0  0  0  0  0  0  0
   32.3853   35.4315   60.2723 N   0  0  0  0  0  0  0  0  0  0  0  0
   33.3870   37.5446   60.7253 N   0  0  0  0  0  0  0  0  0  0  0  0
   35.5127   40.8980   63.1551 H   0  0  0  0  0  0  0  0  0  0  0  0
   35.5187   39.3836   65.1009 H   0  0  0  0  0  0  0  0  0  0  0  0
   34.5385   37.0965   64.9477 H   0  0  0  0  0  0  0  0  0  0  0  0
   33.3983   40.1608   60.5231 H   0  0  0  0  0  0  0  0  0  0  0  0
   36.5012   39.7433   59.7423 H   0  0  0  0  0  0  0  0  0  0  0  0
   35.6928   40.1976   58.4924 H   0  0  0  0  0  0  0  0  0  0  0  0
   34.9727   42.4919   59.9965 H   0  0  0  0  0  0  0  0  0  0  0  0
   35.9845   42.1604   61.1323 H   0  0  0  0  0  0  0  0  0  0  0  0
   33.2696   34.6606   64.0520 H   0  0  0  0  0  0  0  0  0  0  0  0
   32.1211   32.9513   62.5985 H   0  0  0  0  0  0  0  0  0  0  0  0
   30.9070   32.4868   60.6299 H   0  0  0  0  0  0  0  0  0  0  0  0
   30.6639   33.7328   59.3590 H   0  0  0  0  0  0  0  0  0  0  0  0
   32.1532   32.7285   59.3590 H   0  0  0  0  0  0  0  0  0  0  0  0
   33.2493   37.9413   59.7848 H   0  0  0  0  0  0  0  0  0  0  0  0
  1  2  2  0
  1  4  1  0
  2  3  1  0
  3  6  2  0
  4  5  2  0
  7  4  1  0
  5  6  1  0
  5 17  1  0
  6 11  1  0
  7  8  1  0
  7  9  1  0
  8  9  1  0
 10 11  2  0
 10 16  1  0
 10 17  1  0
 11 12  1  0
 12 13  2  0
 13 14  1  0
 14 15  1  0
 14 16  2  0
  1 18  1  0
  2 19  1  0
  3 20  1  0
  7 21  1  6
  8 22  1  0
  8 23  1  0
  9 24  1  0
  9 25  1  0
 12 26  1  0
 13 27  1  0
 15 28  1  0
 15 29  1  0
 15 30  1  0
 17 31  1  0
M  END
>  <filename_input>  (6) 
7VBU_6I4_docked.sdf

>  <pdb_id>  (6) 
7VBU_6I4

>  <pose_rank>  (6) 
5

>  <num_atoms_heavy>  (6) 
17

>  <num_torsions>  (6) 
1

>  <pose>  (6) 
[35.07586556730012, 39.8935729423234, 63.05386474758062, -3.2500818748399136, 4.0896201822126335, -3.096298782231459, 1.4773837300728123]

>  <energy>  (6) 
-782.1949685082719

>  <inter_energy>  (6) 
-786.1718816078493

>  <intra_energy>  (6) 
0.0

>  <rmsd>  (6) 
0.85623

>  <sdf_rank>  (6) 
0

$$$$

     RDKit          3D

 31 34  0  0  0  0  0  0  0  0999 V2000
   35.6424   39.6468   62.9722 C   0  0  0  0  0  0  0  0  0  0  0  0
   35.5833   38.8041   64.0761 C   0  0  0  0  0  0  0  0  0  0  0  0
   34.9163   37.5809   64.0126 C   0  0  0  0  0  0  0  0  0  0  0  0
   35.0400   39.3075   61.7450 C   0  0  0  0  0  0  0  0  0  0  0  0
   34.3767   38.0689   61.7159 C   0  0  0  0  0  0  0  0  0  0  0  0
   34.2963   37.1991   62.8061 C   0  0  0  0  0  0  0  0  0  0  0  0
   35.0495   40.1510   60.5040 C   0  0  2  0  0  0  0  0  0  0  0  0
   36.2900   40.2994   59.6512 C   0  0  0  0  0  0  0  0  0  0  0  0
   35.8067   41.4567   60.4665 C   0  0  0  0  0  0  0  0  0  0  0  0
   33.1986   36.2543   61.0721 C   0  0  0  0  0  0  0  0  0  0  0  0
   33.5520   36.0503   62.3976 C   0  0  0  0  0  0  0  0  0  0  0  0
   33.1262   34.8515   62.9874 C   0  0  0  0  0  0  0  0  0  0  0  0
   32.3875   33.9687   62.1934 C   0  0  0  0  0  0  0  0  0  0  0  0
   32.1002   34.3007   60.8663 C   0  0  0  0  0  0  0  0  0  0  0  0
   31.3053   33.3489   60.0184 C   0  0  0  0  0  0  0  0  0  0  0  0
   32.4913   35.4477   60.2657 N   0  0  0  0  0  0  0  0  0  0  0  0
   33.6973   37.4580   60.6879 N   0  0  0  0  0  0  0  0  0  0  0  0
   36.1745   40.6055   63.0595 H   0  0  0  0  0  0  0  0  0  0  0  0
   36.0704   39.1068   65.0147 H   0  0  0  0  0  0  0  0  0  0  0  0
   34.8747   36.9227   64.8930 H   0  0  0  0  0  0  0  0  0  0  0  0
   34.0127   39.8351   60.3161 H   0  0  0  0  0  0  0  0  0  0  0  0
   37.2162   39.7773   59.9333 H   0  0  0  0  0  0  0  0  0  0  0  0
   36.5244   40.1429   58.5879 H   0  0  0  0  0  0  0  0  0  0  0  0
   35.3658   42.3328   59.9685 H   0  0  0  0  0  0  0  0  0  0  0  0
   36.2584   42.1130   61.2250 H   0  0  0  0  0  0  0  0  0  0  0  0
   33.3644   34.6144   64.0348 H   0  0  0  0  0  0  0  0  0  0  0  0
   32.0332   33.0152   62.6122 H   0  0  0  0  0  0  0  0  0  0  0  0
   30.7360   32.6673   60.6675 H   0  0  0  0  0  0  0  0  0  0  0  0
   30.6095   33.9169   59.3834 H   0  0  0  0  0  0  0  0  0  0  0  0
   31.9882   32.7655   59.3834 H   0  0  0  0  0  0  0  0  0  0  0  0
   33.5815   37.8615   59.7474 H   0  0  0  0  0  0  0  0  0  0  0  0
  1  2  2  0
  1  4  1  0
  2  3  1  0
  3  6  2  0
  4  5  2  0
  7  4  1  0
  5  6  1  0
  5 17  1  0
  6 11  1  0
  7  8  1  0
  7  9  1  0
  8  9  1  0
 10 11  2  0
 10 16  1  0
 10 17  1  0
 11 12  1  0
 12 13  2  0
 13 14  1  0
 14 15  1  0
 14 16  2  0
  1 18  1  0
  2 19  1  0
  3 20  1  0
  7 21  1  6
  8 22  1  0
  8 23  1  0
  9 24  1  0
  9 25  1  0
 12 26  1  0
 13 27  1  0
 15 28  1  0
 15 29  1  0
 15 30  1  0
 17 31  1  0
M  END
>  <filename_input>  (7) 
7VBU_6I4_docked.sdf

>  <pdb_id>  (7) 
7VBU_6I4

>  <pose_rank>  (7) 
6

>  <num_atoms_heavy>  (7) 
17

>  <num_torsions>  (7) 
1

>  <pose>  (7) 
[35.642386152218705, 39.64676049337007, 62.97223008114896, -3.754458247739268, 4.811173360844407, -0.4386026029319585, 1.223693754752005]

>  <energy>  (7) 
-865.8160153184617

>  <inter_energy>  (7) 
-859.8434573778596

>  <intra_energy>  (7) 
0.0

>  <rmsd>  (7) 
0.841565

>  <sdf_rank>  (7) 
0

$$$$

     RDKit          3D

 31 34  0  0  0  0  0  0  0  0999 V2000
   35.0608   38.5115   62.5569 C   0  0  0  0  0  0  0  0  0  0  0  0
   35.1016   37.6420   63.6406 C   0  0  0  0  0  0  0  0  0  0  0  0
   34.3833   36.4466   63.6313 C   0  0  0  0  0  0  0  0  0  0  0  0
   34.3018   38.2282   61.4047 C   0  0  0  0  0  0  0  0  0  0  0  0
   33.5907   37.0162   61.4287 C   0  0  0  0  0  0  0  0  0  0  0  0
   33.6076   36.1208   62.5008 C   0  0  0  0  0  0  0  0  0  0  0  0
   34.1953   39.1040   60.1910 C   0  0  2  0  0  0  0  0  0  0  0  0
   35.1129   40.2879   59.9800 C   0  0  0  0  0  0  0  0  0  0  0  0
   33.6703   40.5152   60.3038 C   0  0  0  0  0  0  0  0  0  0  0  0
   32.2718   35.2646   60.8924 C   0  0  0  0  0  0  0  0  0  0  0  0
   32.7740   35.0119   62.1602 C   0  0  0  0  0  0  0  0  0  0  0  0
   32.3748   33.8141   62.7704 C   0  0  0  0  0  0  0  0  0  0  0  0
   31.5109   32.9811   62.0525 C   0  0  0  0  0  0  0  0  0  0  0  0
   31.0792   33.3593   60.7780 C   0  0  0  0  0  0  0  0  0  0  0  0
   30.1504   32.4609   60.0118 C   0  0  0  0  0  0  0  0  0  0  0  0
   31.4407   34.5069   60.1601 N   0  0  0  0  0  0  0  0  0  0  0  0
   32.7684   36.4589   60.4775 N   0  0  0  0  0  0  0  0  0  0  0  0
   35.6376   39.4472   62.6003 H   0  0  0  0  0  0  0  0  0  0  0  0
   35.7101   37.9010   64.5196 H   0  0  0  0  0  0  0  0  0  0  0  0
   34.4218   35.7668   64.4953 H   0  0  0  0  0  0  0  0  0  0  0  0
   33.9352   38.2105   59.6045 H   0  0  0  0  0  0  0  0  0  0  0  0
   35.8868   40.5228   60.7255 H   0  0  0  0  0  0  0  0  0  0  0  0
   35.7884   40.6128   59.1749 H   0  0  0  0  0  0  0  0  0  0  0  0
   32.9909   40.9111   59.5345 H   0  0  0  0  0  0  0  0  0  0  0  0
   33.1289   41.0816   61.0758 H   0  0  0  0  0  0  0  0  0  0  0  0
   32.7278   33.5401   63.7755 H   0  0  0  0  0  0  0  0  0  0  0  0
   31.1718   32.0304   62.4898 H   0  0  0  0  0  0  0  0  0  0  0  0
   29.5435   31.8740   60.7169 H   0  0  0  0  0  0  0  0  0  0  0  0
   29.4894   33.0711   59.3788 H   0  0  0  0  0  0  0  0  0  0  0  0
   30.7382   31.7799   59.3788 H   0  0  0  0  0  0  0  0  0  0  0  0
   32.5562   36.8918   59.5673 H   0  0  0  0  0  0  0  0  0  0  0  0
  1  2  2  0
  1  4  1  0
  2  3  1  0
  3  6  2  0
  4  5  2  0
  7  4  1  0
  5  6  1  0
  5 17  1  0
  6 11  1  0
  7  8  1  0
  7  9  1  0
  8  9  1  0
 10 11  2  0
 10 16  1  0
 10 17  1  0
 11 12  1  0
 12 13  2  0
 13 14  1  0
 14 15  1  0
 14 16  2  0
  1 18  1  0
  2 19  1  0
  3 20  1  0
  7 21  1  6
  8 22  1  0
  8 23  1  0
  9 24  1  0
  9 25  1  0
 12 26  1  0
 13 27  1  0
 15 28  1  0
 15 29  1  0
 15 30  1  0
 17 31  1  0
M  END
>  <filename_input>  (8) 
7VBU_6I4_docked.sdf

>  <pdb_id>  (8) 
7VBU_6I4

>  <pose_rank>  (8) 
7

>  <num_atoms_heavy>  (8) 
17

>  <num_torsions>  (8) 
1

>  <pose>  (8) 
[35.0608202511704, 38.51151004177639, 62.55689160457255, -5.90946728678965, 0.49148829444620923, 1.6468739555835012, 6.4162032497419865]

>  <energy>  (8) 
-705.5614564790675

>  <inter_energy>  (8) 
-691.9259607776933

>  <intra_energy>  (8) 
0.0

>  <rmsd>  (8) 
1.03992

>  <sdf_rank>  (8) 
0

$$$$

     RDKit          3D

 31 34  0  0  0  0  0  0  0  0999 V2000
   35.6040   39.5996   62.7589 C   0  0  0  0  0  0  0  0  0  0  0  0
   35.6529   38.8301   63.9155 C   0  0  0  0  0  0  0  0  0  0  0  0
   35.0165   37.5909   63.9827 C   0  0  0  0  0  0  0  0  0  0  0  0
   34.9185   39.1672   61.6069 C   0  0  0  0  0  0  0  0  0  0  0  0
   34.2888   37.9150   61.7090 C   0  0  0  0  0  0  0  0  0  0  0  0
   34.3162   37.1171   62.8553 C   0  0  0  0  0  0  0  0  0  0  0  0
   34.8095   39.9273   60.3178 C   0  0  2  0  0  0  0  0  0  0  0  0
   36.0274   40.4923   59.6208 C   0  0  0  0  0  0  0  0  0  0  0  0
   35.0534   41.4169   60.2796 C   0  0  0  0  0  0  0  0  0  0  0  0
   33.1145   36.0363   61.2766 C   0  0  0  0  0  0  0  0  0  0  0  0
   33.5741   35.9278   62.5806 C   0  0  0  0  0  0  0  0  0  0  0  0
   33.2277   34.7611   63.2772 C   0  0  0  0  0  0  0  0  0  0  0  0
   32.4544   33.8119   62.6015 C   0  0  0  0  0  0  0  0  0  0  0  0
   32.0570   34.0496   61.2827 C   0  0  0  0  0  0  0  0  0  0  0  0
   31.2254   33.0268   60.5622 C   0  0  0  0  0  0  0  0  0  0  0  0
   32.3694   35.1631   60.5813 N   0  0  0  0  0  0  0  0  0  0  0  0
   33.5492   37.2230   60.7786 N   0  0  0  0  0  0  0  0  0  0  0  0
   36.1150   40.5735   62.7429 H   0  0  0  0  0  0  0  0  0  0  0  0
   36.2024   39.2045   64.7918 H   0  0  0  0  0  0  0  0  0  0  0  0
   35.0606   36.9912   64.9038 H   0  0  0  0  0  0  0  0  0  0  0  0
   33.9904   39.2546   60.0237 H   0  0  0  0  0  0  0  0  0  0  0  0
   37.0268   40.3461   60.0564 H   0  0  0  0  0  0  0  0  0  0  0  0
   36.4540   40.4053   58.6106 H   0  0  0  0  0  0  0  0  0  0  0  0
   34.4086   42.0630   59.6656 H   0  0  0  0  0  0  0  0  0  0  0  0
   35.1285   42.2099   61.0382 H   0  0  0  0  0  0  0  0  0  0  0  0
   33.5521   34.5987   64.3157 H   0  0  0  0  0  0  0  0  0  0  0  0
   32.1594   32.8804   63.1068 H   0  0  0  0  0  0  0  0  0  0  0  0
   30.7086   32.3912   61.2963 H   0  0  0  0  0  0  0  0  0  0  0  0
   30.4824   33.5367   59.9313 H   0  0  0  0  0  0  0  0  0  0  0  0
   31.8762   32.4035   59.9313 H   0  0  0  0  0  0  0  0  0  0  0  0
   33.3505   37.5611   59.8262 H   0  0  0  0  0  0  0  0  0  0  0  0
  1  2  2  0
  1  4  1  0
  2  3  1  0
  3  6  2  0
  4  5  2  0
  7  4  1  0
  5  6  1  0
  5 17  1  0
  6 11  1  0
  7  8  1  0
  7  9  1  0
  8  9  1  0
 10 11  2  0
 10 16  1  0
 10 17  1  0
 11 12  1  0
 12 13  2  0
 13 14  1  0
 14 15  1  0
 14 16  2  0
  1 18  1  0
  2 19  1  0
  3 20  1  0
  7 21  1  6
  8 22  1  0
  8 23  1  0
  9 24  1  0
  9 25  1  0
 12 26  1  0
 13 27  1  0
 15 28  1  0
 15 29  1  0
 15 30  1  0
 17 31  1  0
M  END
>  <filename_input>  (9) 
7VBU_6I4_docked.sdf

>  <pdb_id>  (9) 
7VBU_6I4

>  <pose_rank>  (9) 
8

>  <num_atoms_heavy>  (9) 
17

>  <num_torsions>  (9) 
1

>  <pose>  (9) 
[35.60399152679765, 39.59955160248587, 62.75891753304429, -3.2627539459947683, 4.262678604903023, -3.1227519898466376, 0.818508672400802]

>  <energy>  (9) 
-827.9104124790751

>  <inter_energy>  (9) 
-835.5207266190766

>  <intra_energy>  (9) 
0.0

>  <rmsd>  (9) 
0.508774

>  <sdf_rank>  (9) 
0

$$$$

     RDKit          3D

 31 34  0  0  0  0  0  0  0  0999 V2000
   35.4199   39.0804   62.3224 C   0  0  0  0  0  0  0  0  0  0  0  0
   35.5167   38.4240   63.5438 C   0  0  0  0  0  0  0  0  0  0  0  0
   34.8610   37.2128   63.7637 C   0  0  0  0  0  0  0  0  0  0  0  0
   34.6645   38.5568   61.2550 C   0  0  0  0  0  0  0  0  0  0  0  0
   34.0172   37.3358   61.5105 C   0  0  0  0  0  0  0  0  0  0  0  0
   34.0915   36.6507   62.7257 C   0  0  0  0  0  0  0  0  0  0  0  0
   34.5003   39.1927   59.9058 C   0  0  2  0  0  0  0  0  0  0  0  0
   35.3170   40.3953   59.4874 C   0  0  0  0  0  0  0  0  0  0  0  0
   33.8561   40.5514   59.7686 C   0  0  0  0  0  0  0  0  0  0  0  0
   32.7850   35.4538   61.3238 C   0  0  0  0  0  0  0  0  0  0  0  0
   33.3127   35.4591   62.6064 C   0  0  0  0  0  0  0  0  0  0  0  0
   32.9822   34.3731   63.4297 C   0  0  0  0  0  0  0  0  0  0  0  0
   32.1551   33.3830   62.8904 C   0  0  0  0  0  0  0  0  0  0  0  0
   31.6912   33.5032   61.5773 C   0  0  0  0  0  0  0  0  0  0  0  0
   30.8021   32.4369   61.0035 C   0  0  0  0  0  0  0  0  0  0  0  0
   31.9865   34.5366   60.7561 N   0  0  0  0  0  0  0  0  0  0  0  0
   33.2149   36.5764   60.6913 N   0  0  0  0  0  0  0  0  0  0  0  0
   35.9480   40.0355   62.1855 H   0  0  0  0  0  0  0  0  0  0  0  0
   36.1201   38.8669   64.3499 H   0  0  0  0  0  0  0  0  0  0  0  0
   34.9436   36.7030   64.7349 H   0  0  0  0  0  0  0  0  0  0  0  0
   34.3249   38.1909   59.4869 H   0  0  0  0  0  0  0  0  0  0  0  0
   36.0582   40.8234   60.1783 H   0  0  0  0  0  0  0  0  0  0  0  0
   35.9732   40.6301   58.6364 H   0  0  0  0  0  0  0  0  0  0  0  0
   33.1559   40.7458   58.9427 H   0  0  0  0  0  0  0  0  0  0  0  0
   33.2583   41.1963   60.4294 H   0  0  0  0  0  0  0  0  0  0  0  0
   33.3593   34.3028   64.4607 H   0  0  0  0  0  0  0  0  0  0  0  0
   31.8701   32.5115   63.4981 H   0  0  0  0  0  0  0  0  0  0  0  0
   30.3314   31.8724   61.8219 H   0  0  0  0  0  0  0  0  0  0  0  0
   30.0221   32.9039   60.3842 H   0  0  0  0  0  0  0  0  0  0  0  0
   31.4017   31.7535   60.3842 H   0  0  0  0  0  0  0  0  0  0  0  0
   32.9713   36.8268   59.7224 H   0  0  0  0  0  0  0  0  0  0  0  0
  1  2  2  0
  1  4  1  0
  2  3  1  0
  3  6  2  0
  4  5  2  0
  7  4  1  0
  5  6  1  0
  5 17  1  0
  6 11  1  0
  7  8  1  0
  7  9  1  0
  8  9  1  0
 10 11  2  0
 10 16  1  0
 10 17  1  0
 11 12  1  0
 12 13  2  0
 13 14  1  0
 14 15  1  0
 14 16  2  0
  1 18  1  0
  2 19  1  0
  3 20  1  0
  7 21  1  6
  8 22  1  0
  8 23  1  0
  9 24  1  0
  9 25  1  0
 12 26  1  0
 13 27  1  0
 15 28  1  0
 15 29  1  0
 15 30  1  0
 17 31  1  0
M  END
>  <filename_input>  (10) 
7VBU_6I4_docked.sdf

>  <pdb_id>  (10) 
7VBU_6I4

>  <pose_rank>  (10) 
9

>  <num_atoms_heavy>  (10) 
17

>  <num_torsions>  (10) 
1

>  <pose>  (10) 
[35.41985718713608, 39.080353703425935, 62.32239936698172, -6.090404937239987, 0.503327459111609, 1.6997331775366527, 6.375055157023688]

>  <energy>  (10) 
-744.8669598400945

>  <inter_energy>  (10) 
-773.5418705227654

>  <intra_energy>  (10) 
0.0

>  <rmsd>  (10) 
0.439079

>  <sdf_rank>  (10) 
0

$$$$

     RDKit          3D

 31 34  0  0  0  0  0  0  0  0999 V2000
   35.8490   39.9855   62.8132 C   0  0  0  0  0  0  0  0  0  0  0  0
   35.8441   39.2061   63.9642 C   0  0  0  0  0  0  0  0  0  0  0  0
   35.2011   37.9688   63.9925 C   0  0  0  0  0  0  0  0  0  0  0  0
   35.2136   39.5655   61.6284 C   0  0  0  0  0  0  0  0  0  0  0  0
   34.5757   38.3148   61.6918 C   0  0  0  0  0  0  0  0  0  0  0  0
   34.5497   37.5071   62.8313 C   0  0  0  0  0  0  0  0  0  0  0  0
   35.1643   40.3369   60.3423 C   0  0  2  0  0  0  0  0  0  0  0  0
   35.0980   41.8479   60.3218 C   0  0  0  0  0  0  0  0  0  0  0  0
   33.9008   41.0468   59.9185 C   0  0  0  0  0  0  0  0  0  0  0  0
   33.4153   36.4443   61.1918 C   0  0  0  0  0  0  0  0  0  0  0  0
   33.8165   36.3230   62.5139 C   0  0  0  0  0  0  0  0  0  0  0  0
   33.4357   35.1518   63.1844 C   0  0  0  0  0  0  0  0  0  0  0  0
   32.6898   34.2113   62.4671 C   0  0  0  0  0  0  0  0  0  0  0  0
   32.3519   34.4616   61.1340 C   0  0  0  0  0  0  0  0  0  0  0  0
   31.5495   33.4480   60.3687 C   0  0  0  0  0  0  0  0  0  0  0  0
   32.6988   35.5798   60.4568 N   0  0  0  0  0  0  0  0  0  0  0  0
   33.8757   37.6334   60.7237 N   0  0  0  0  0  0  0  0  0  0  0  0
   36.3635   40.9576   62.8282 H   0  0  0  0  0  0  0  0  0  0  0  0
   36.3556   39.5710   64.8670 H   0  0  0  0  0  0  0  0  0  0  0  0
   35.2025   37.3612   64.9094 H   0  0  0  0  0  0  0  0  0  0  0  0
   35.8324   39.5841   59.8986 H   0  0  0  0  0  0  0  0  0  0  0  0
   35.0896   42.4103   61.2672 H   0  0  0  0  0  0  0  0  0  0  0  0
   35.6931   42.6449   59.8520 H   0  0  0  0  0  0  0  0  0  0  0  0
   33.5854   41.0238   58.8650 H   0  0  0  0  0  0  0  0  0  0  0  0
   32.8483   41.0121   60.2362 H   0  0  0  0  0  0  0  0  0  0  0  0
   33.7133   34.9794   64.2348 H   0  0  0  0  0  0  0  0  0  0  0  0
   32.3696   33.2766   62.9508 H   0  0  0  0  0  0  0  0  0  0  0  0
   31.0257   32.7864   61.0744 H   0  0  0  0  0  0  0  0  0  0  0  0
   30.8134   33.9653   59.7357 H   0  0  0  0  0  0  0  0  0  0  0  0
   32.2218   32.8503   59.7357 H   0  0  0  0  0  0  0  0  0  0  0  0
   33.7203   37.9804   59.7664 H   0  0  0  0  0  0  0  0  0  0  0  0
  1  2  2  0
  1  4  1  0
  2  3  1  0
  3  6  2  0
  4  5  2  0
  7  4  1  0
  5  6  1  0
  5 17  1  0
  6 11  1  0
  7  8  1  0
  7  9  1  0
  8  9  1  0
 10 11  2  0
 10 16  1  0
 10 17  1  0
 11 12  1  0
 12 13  2  0
 13 14  1  0
 14 15  1  0
 14 16  2  0
  1 18  1  0
  2 19  1  0
  3 20  1  0
  7 21  1  6
  8 22  1  0
  8 23  1  0
  9 24  1  0
  9 25  1  0
 12 26  1  0
 13 27  1  0
 15 28  1  0
 15 29  1  0
 15 30  1  0
 17 31  1  0
M  END
>  <filename_input>  (11) 
7VBU_6I4_docked.sdf

>  <pdb_id>  (11) 
7VBU_6I4

>  <pose_rank>  (11) 
10

>  <num_atoms_heavy>  (11) 
17

>  <num_torsions>  (11) 
1

>  <pose>  (11) 
[35.848952571551244, 39.985459591293534, 62.81323310082409, 2.662629518793159, -5.474253567752273, 1.9543976363007847, -0.660594466439509]

>  <energy>  (11) 
-865.3125032386752

>  <inter_energy>  (11) 
-855.5197435923947

>  <intra_energy>  (11) 
1.1162124782398914

>  <rmsd>  (11) 
0.858312

>  <sdf_rank>  (11) 
0

$$$$

     RDKit          3D

 31 34  0  0  0  0  0  0  0  0999 V2000
   35.7904   40.2361   62.7283 C   0  0  0  0  0  0  0  0  0  0  0  0
   35.8714   39.5240   63.9193 C   0  0  0  0  0  0  0  0  0  0  0  0
   35.1654   38.3342   64.0956 C   0  0  0  0  0  0  0  0  0  0  0  0
   35.0013   39.7925   61.6492 C   0  0  0  0  0  0  0  0  0  0  0  0
   34.3036   38.5910   61.8606 C   0  0  0  0  0  0  0  0  0  0  0  0
   34.3607   37.8515   63.0444 C   0  0  0  0  0  0  0  0  0  0  0  0
   34.8508   40.4926   60.3306 C   0  0  2  0  0  0  0  0  0  0  0  0
   35.6066   41.7639   60.0129 C   0  0  0  0  0  0  0  0  0  0  0  0
   34.1288   41.8156   60.2396 C   0  0  0  0  0  0  0  0  0  0  0  0
   32.9877   36.7743   61.6094 C   0  0  0  0  0  0  0  0  0  0  0  0
   33.5289   36.7012   62.8842 C   0  0  0  0  0  0  0  0  0  0  0  0
   33.1598   35.5961   63.6646 C   0  0  0  0  0  0  0  0  0  0  0  0
   32.2840   34.6672   63.0940 C   0  0  0  0  0  0  0  0  0  0  0  0
   31.8118   34.8640   61.7932 C   0  0  0  0  0  0  0  0  0  0  0  0
   30.8704   33.8633   61.1857 C   0  0  0  0  0  0  0  0  0  0  0  0
   32.1435   35.9181   61.0132 N   0  0  0  0  0  0  0  0  0  0  0  0
   33.4598   37.9033   61.0199 N   0  0  0  0  0  0  0  0  0  0  0  0
   36.3586   41.1724   62.6257 H   0  0  0  0  0  0  0  0  0  0  0  0
   36.5024   39.9050   64.7358 H   0  0  0  0  0  0  0  0  0  0  0  0
   35.2358   37.7798   65.0431 H   0  0  0  0  0  0  0  0  0  0  0  0
   34.7548   39.5073   59.8510 H   0  0  0  0  0  0  0  0  0  0  0  0
   36.2919   42.1960   60.7569 H   0  0  0  0  0  0  0  0  0  0  0  0
   36.2798   42.0855   59.2046 H   0  0  0  0  0  0  0  0  0  0  0  0
   33.4509   42.0140   59.3963 H   0  0  0  0  0  0  0  0  0  0  0  0
   33.4665   42.3850   60.9082 H   0  0  0  0  0  0  0  0  0  0  0  0
   33.5445   35.4650   64.6867 H   0  0  0  0  0  0  0  0  0  0  0  0
   31.9674   33.7835   63.6675 H   0  0  0  0  0  0  0  0  0  0  0  0
   30.3533   33.3136   61.9860 H   0  0  0  0  0  0  0  0  0  0  0  0
   30.1301   34.3871   60.5632 H   0  0  0  0  0  0  0  0  0  0  0  0
   31.4385   33.1563   60.5632 H   0  0  0  0  0  0  0  0  0  0  0  0
   33.2170   38.2057   60.0657 H   0  0  0  0  0  0  0  0  0  0  0  0
  1  2  2  0
  1  4  1  0
  2  3  1  0
  3  6  2  0
  4  5  2  0
  7  4  1  0
  5  6  1  0
  5 17  1  0
  6 11  1  0
  7  8  1  0
  7  9  1  0
  8  9  1  0
 10 11  2  0
 10 16  1  0
 10 17  1  0
 11 12  1  0
 12 13  2  0
 13 14  1  0
 14 15  1  0
 14 16  2  0
  1 18  1  0
  2 19  1  0
  3 20  1  0
  7 21  1  6
  8 22  1  0
  8 23  1  0
  9 24  1  0
  9 25  1  0
 12 26  1  0
 13 27  1  0
 15 28  1  0
 15 29  1  0
 15 30  1  0
 17 31  1  0
M  END
>  <filename_input>  (12) 
7VBU_6I4_docked.sdf

>  <pdb_id>  (12) 
7VBU_6I4

>  <pose_rank>  (12) 
11

>  <num_atoms_heavy>  (12) 
17

>  <num_torsions>  (12) 
1

>  <pose>  (12) 
[35.79042994187864, 40.23608856144676, 62.72834396193555, 2.541105148196827, -3.062118822776948, 4.81668027494898, -0.02647731978541369]

>  <energy>  (12) 
-652.2342042503878

>  <inter_energy>  (12) 
-655.2919544315346

>  <intra_energy>  (12) 
0.0

>  <rmsd>  (12) 
1.01546

>  <sdf_rank>  (12) 
0

$$$$

     RDKit          3D

 31 34  0  0  0  0  0  0  0  0999 V2000
   35.4957   39.5997   62.5380 C   0  0  0  0  0  0  0  0  0  0  0  0
   35.5071   38.8368   63.6999 C   0  0  0  0  0  0  0  0  0  0  0  0
   34.8737   37.5953   63.7516 C   0  0  0  0  0  0  0  0  0  0  0  0
   34.8530   39.1581   61.3651 C   0  0  0  0  0  0  0  0  0  0  0  0
   34.2252   37.9038   61.4520 C   0  0  0  0  0  0  0  0  0  0  0  0
   34.2154   37.1123   62.6030 C   0  0  0  0  0  0  0  0  0  0  0  0
   34.7863   39.9108   60.0686 C   0  0  2  0  0  0  0  0  0  0  0  0
   35.7659   41.0148   59.7373 C   0  0  0  0  0  0  0  0  0  0  0  0
   34.3401   41.3529   60.0379 C   0  0  0  0  0  0  0  0  0  0  0  0
   33.0744   36.0178   60.9891 C   0  0  0  0  0  0  0  0  0  0  0  0
   33.4883   35.9183   62.3090 C   0  0  0  0  0  0  0  0  0  0  0  0
   33.1224   34.7540   62.9995 C   0  0  0  0  0  0  0  0  0  0  0  0
   32.3772   33.7979   62.3024 C   0  0  0  0  0  0  0  0  0  0  0  0
   32.0255   34.0267   60.9691 C   0  0  0  0  0  0  0  0  0  0  0  0
   31.2239   32.9964   60.2255 C   0  0  0  0  0  0  0  0  0  0  0  0
   32.3579   35.1376   60.2729 N   0  0  0  0  0  0  0  0  0  0  0  0
   33.5216   37.2036   60.5000 N   0  0  0  0  0  0  0  0  0  0  0  0
   36.0030   40.5757   62.5345 H   0  0  0  0  0  0  0  0  0  0  0  0
   36.0238   39.2183   64.5928 H   0  0  0  0  0  0  0  0  0  0  0  0
   34.8878   37.0008   64.6770 H   0  0  0  0  0  0  0  0  0  0  0  0
   34.4739   38.9780   59.5764 H   0  0  0  0  0  0  0  0  0  0  0  0
   36.5565   41.2811   60.4542 H   0  0  0  0  0  0  0  0  0  0  0  0
   36.4528   41.2185   58.9026 H   0  0  0  0  0  0  0  0  0  0  0  0
   33.6782   41.7055   59.2332 H   0  0  0  0  0  0  0  0  0  0  0  0
   33.8357   42.0237   60.7490 H   0  0  0  0  0  0  0  0  0  0  0  0
   33.4107   34.5986   64.0497 H   0  0  0  0  0  0  0  0  0  0  0  0
   32.0684   32.8679   62.8022 H   0  0  0  0  0  0  0  0  0  0  0  0
   30.7131   32.3398   60.9451 H   0  0  0  0  0  0  0  0  0  0  0  0
   30.4770   33.4991   59.5934 H   0  0  0  0  0  0  0  0  0  0  0  0
   31.8948   32.3960   59.5934 H   0  0  0  0  0  0  0  0  0  0  0  0
   33.3551   37.5357   59.5393 H   0  0  0  0  0  0  0  0  0  0  0  0
  1  2  2  0
  1  4  1  0
  2  3  1  0
  3  6  2  0
  4  5  2  0
  7  4  1  0
  5  6  1  0
  5 17  1  0
  6 11  1  0
  7  8  1  0
  7  9  1  0
  8  9  1  0
 10 11  2  0
 10 16  1  0
 10 17  1  0
 11 12  1  0
 12 13  2  0
 13 14  1  0
 14 15  1  0
 14 16  2  0
  1 18  1  0
  2 19  1  0
  3 20  1  0
  7 21  1  6
  8 22  1  0
  8 23  1  0
  9 24  1  0
  9 25  1  0
 12 26  1  0
 13 27  1  0
 15 28  1  0
 15 29  1  0
 15 30  1  0
 17 31  1  0
M  END
>  <filename_input>  (13) 
7VBU_6I4_docked.sdf

>  <pdb_id>  (13) 
7VBU_6I4

>  <pose_rank>  (13) 
12

>  <num_atoms_heavy>  (13) 
17

>  <num_torsions>  (13) 
1

>  <pose>  (13) 
[35.49573910117013, 39.59966973727312, 62.538032856361085, 2.057580272885348, -5.426679370990782, 2.6575968341994667, 0.28331620896786]

>  <energy>  (13) 
-873.9615318617131

>  <inter_energy>  (13) 
-866.6194684324047

>  <intra_energy>  (13) 
0.0

>  <rmsd>  (13) 
0.57186

>  <sdf_rank>  (13) 
0

$$$$

     RDKit          3D

 31 34  0  0  0  0  0  0  0  0999 V2000
   32.3607   32.9479   62.2889 C   0  0  0  0  0  0  0  0  0  0  0  0
   31.4763   33.2092   61.2489 C   0  0  0  0  0  0  0  0  0  0  0  0
   31.5549   34.3946   60.5183 C   0  0  0  0  0  0  0  0  0  0  0  0
   33.3733   33.8581   62.6500 C   0  0  0  0  0  0  0  0  0  0  0  0
   33.4239   35.0416   61.8939 C   0  0  0  0  0  0  0  0  0  0  0  0
   32.5506   35.3370   60.8443 C   0  0  0  0  0  0  0  0  0  0  0  0
   34.3691   33.6643   63.7556 C   0  0  2  0  0  0  0  0  0  0  0  0
   34.2975   32.4797   64.6936 C   0  0  0  0  0  0  0  0  0  0  0  0
   33.9629   33.8475   65.1983 C   0  0  0  0  0  0  0  0  0  0  0  0
   33.9910   37.0635   61.0658 C   0  0  0  0  0  0  0  0  0  0  0  0
   32.9109   36.6159   60.3198 C   0  0  0  0  0  0  0  0  0  0  0  0
   32.4548   37.4618   59.2986 C   0  0  0  0  0  0  0  0  0  0  0  0
   33.1245   38.6763   59.1197 C   0  0  0  0  0  0  0  0  0  0  0  0
   34.2029   39.0045   59.9463 C   0  0  0  0  0  0  0  0  0  0  0  0
   34.9179   40.3110   59.7502 C   0  0  0  0  0  0  0  0  0  0  0  0
   34.6678   38.2157   60.9419 N   0  0  0  0  0  0  0  0  0  0  0  0
   34.2783   36.1146   61.9944 N   0  0  0  0  0  0  0  0  0  0  0  0
   32.2673   32.0038   62.8456 H   0  0  0  0  0  0  0  0  0  0  0  0
   30.7021   32.4692   60.9981 H   0  0  0  0  0  0  0  0  0  0  0  0
   30.8486   34.5914   59.6983 H   0  0  0  0  0  0  0  0  0  0  0  0
   35.1415   34.0842   63.0946 H   0  0  0  0  0  0  0  0  0  0  0  0
   33.5023   31.7295   64.5713 H   0  0  0  0  0  0  0  0  0  0  0  0
   34.9978   31.6888   65.0002 H   0  0  0  0  0  0  0  0  0  0  0  0
   34.6417   34.3551   65.8994 H   0  0  0  0  0  0  0  0  0  0  0  0
   33.0977   34.2952   65.7092 H   0  0  0  0  0  0  0  0  0  0  0  0
   31.6026   37.1807   58.6624 H   0  0  0  0  0  0  0  0  0  0  0  0
   32.8035   39.3718   58.3302 H   0  0  0  0  0  0  0  0  0  0  0  0
   35.1574   40.7487   60.7305 H   0  0  0  0  0  0  0  0  0  0  0  0
   35.8478   40.1393   59.1882 H   0  0  0  0  0  0  0  0  0  0  0  0
   34.2720   41.0017   59.1882 H   0  0  0  0  0  0  0  0  0  0  0  0
   35.0387   36.1892   62.6852 H   0  0  0  0  0  0  0  0  0  0  0  0
  1  2  2  0
  1  4  1  0
  2  3  1  0
  3  6  2  0
  4  5  2  0
  7  4  1  0
  5  6  1  0
  5 17  1  0
  6 11  1  0
  7  8  1  0
  7  9  1  0
  8  9  1  0
 10 11  2  0
 10 16  1  0
 10 17  1  0
 11 12  1  0
 12 13  2  0
 13 14  1  0
 14 15  1  0
 14 16  2  0
  1 18  1  0
  2 19  1  0
  3 20  1  0
  7 21  1  6
  8 22  1  0
  8 23  1  0
  9 24  1  0
  9 25  1  0
 12 26  1  0
 13 27  1  0
 15 28  1  0
 15 29  1  0
 15 30  1  0
 17 31  1  0
M  END
>  <filename_input>  (14) 
7VBU_6I4_docked.sdf

>  <pdb_id>  (14) 
7VBU_6I4

>  <pose_rank>  (14) 
13

>  <num_atoms_heavy>  (14) 
17

>  <num_torsions>  (14) 
1

>  <pose>  (14) 
[32.36074288224998, 32.947921952195166, 62.288913088627915, -2.7967250697823065, 1.5828495483487055, 1.917839497896791, -0.16446604452899982]

>  <energy>  (14) 
-512.0703880007314

>  <inter_energy>  (14) 
-482.5072356362206

>  <intra_energy>  (14) 
0.0

>  <rmsd>  (14) 
5.95895

>  <sdf_rank>  (14) 
0

$$$$

     RDKit          3D

 31 34  0  0  0  0  0  0  0  0999 V2000
   35.6523   39.2273   62.3905 C   0  0  0  0  0  0  0  0  0  0  0  0
   35.7442   38.5302   63.5896 C   0  0  0  0  0  0  0  0  0  0  0  0
   35.0787   37.3179   63.7698 C   0  0  0  0  0  0  0  0  0  0  0  0
   34.8922   38.7455   61.3070 C   0  0  0  0  0  0  0  0  0  0  0  0
   34.2350   37.5221   61.5225 C   0  0  0  0  0  0  0  0  0  0  0  0
   34.3041   36.7966   62.7143 C   0  0  0  0  0  0  0  0  0  0  0  0
   34.7327   39.4269   59.9796 C   0  0  2  0  0  0  0  0  0  0  0  0
   35.4589   40.7128   59.6521 C   0  0  0  0  0  0  0  0  0  0  0  0
   33.9790   40.7306   59.8694 C   0  0  0  0  0  0  0  0  0  0  0  0
   32.9873   35.6574   61.2746 C   0  0  0  0  0  0  0  0  0  0  0  0
   33.5156   35.6160   62.5563 C   0  0  0  0  0  0  0  0  0  0  0  0
   33.1765   34.5062   63.3435 C   0  0  0  0  0  0  0  0  0  0  0  0
   32.3410   33.5412   62.7724 C   0  0  0  0  0  0  0  0  0  0  0  0
   31.8777   33.7085   61.4642 C   0  0  0  0  0  0  0  0  0  0  0  0
   30.9796   32.6691   60.8562 C   0  0  0  0  0  0  0  0  0  0  0  0
   32.1811   34.7660   60.6775 N   0  0  0  0  0  0  0  0  0  0  0  0
   33.4262   36.7967   60.6792 N   0  0  0  0  0  0  0  0  0  0  0  0
   36.1882   40.1821   62.2849 H   0  0  0  0  0  0  0  0  0  0  0  0
   36.3516   38.9413   64.4094 H   0  0  0  0  0  0  0  0  0  0  0  0
   35.1574   36.7756   64.7236 H   0  0  0  0  0  0  0  0  0  0  0  0
   34.6640   38.4343   59.5107 H   0  0  0  0  0  0  0  0  0  0  0  0
   36.1288   41.1700   60.3952 H   0  0  0  0  0  0  0  0  0  0  0  0
   36.1290   41.0418   58.8441 H   0  0  0  0  0  0  0  0  0  0  0  0
   33.3016   40.9027   59.0200 H   0  0  0  0  0  0  0  0  0  0  0  0
   33.2988   41.2909   60.5276 H   0  0  0  0  0  0  0  0  0  0  0  0
   33.5534   34.3988   64.3713 H   0  0  0  0  0  0  0  0  0  0  0  0
   32.0491   32.6525   63.3512 H   0  0  0  0  0  0  0  0  0  0  0  0
   30.4859   32.0977   61.6561 H   0  0  0  0  0  0  0  0  0  0  0  0
   30.2180   33.1614   60.2336 H   0  0  0  0  0  0  0  0  0  0  0  0
   31.5772   31.9870   60.2336 H   0  0  0  0  0  0  0  0  0  0  0  0
   33.1842   37.0809   59.7192 H   0  0  0  0  0  0  0  0  0  0  0  0
  1  2  2  0
  1  4  1  0
  2  3  1  0
  3  6  2  0
  4  5  2  0
  7  4  1  0
  5  6  1  0
  5 17  1  0
  6 11  1  0
  7  8  1  0
  7  9  1  0
  8  9  1  0
 10 11  2  0
 10 16  1  0
 10 17  1  0
 11 12  1  0
 12 13  2  0
 13 14  1  0
 14 15  1  0
 14 16  2  0
  1 18  1  0
  2 19  1  0
  3 20  1  0
  7 21  1  6
  8 22  1  0
  8 23  1  0
  9 24  1  0
  9 25  1  0
 12 26  1  0
 13 27  1  0
 15 28  1  0
 15 29  1  0
 15 30  1  0
 17 31  1  0
M  END
>  <filename_input>  (15) 
7VBU_6I4_docked.sdf

>  <pdb_id>  (15) 
7VBU_6I4

>  <pose_rank>  (15) 
14

>  <num_atoms_heavy>  (15) 
17

>  <num_torsions>  (15) 
1

>  <pose>  (15) 
[35.652275827155655, 39.22728899332944, 62.39054841283212, -5.8803554715444575, 1.2631918671663696, 1.906718260986943, 6.268981415547069]

>  <energy>  (15) 
-816.0907226937012

>  <inter_energy>  (15) 
-815.3430258745785

>  <intra_energy>  (15) 
0.0

>  <rmsd>  (15) 
0.294982

>  <sdf_rank>  (15) 
0

$$$$

     RDKit          3D

 31 34  0  0  0  0  0  0  0  0999 V2000
   35.5575   39.7930   63.0816 C   0  0  0  0  0  0  0  0  0  0  0  0
   35.4815   38.9144   64.1560 C   0  0  0  0  0  0  0  0  0  0  0  0
   34.8812   37.6628   64.0208 C   0  0  0  0  0  0  0  0  0  0  0  0
   35.0398   39.4634   61.8137 C   0  0  0  0  0  0  0  0  0  0  0  0
   34.4421   38.1955   61.7127 C   0  0  0  0  0  0  0  0  0  0  0  0
   34.3470   37.2892   62.7715 C   0  0  0  0  0  0  0  0  0  0  0  0
   35.0736   40.3447   60.5998 C   0  0  2  0  0  0  0  0  0  0  0  0
   36.1365   40.1924   59.5343 C   0  0  0  0  0  0  0  0  0  0  0  0
   36.1538   41.3867   60.4349 C   0  0  0  0  0  0  0  0  0  0  0  0
   33.3930   36.3467   60.9532 C   0  0  0  0  0  0  0  0  0  0  0  0
   33.6844   36.1189   62.2898 C   0  0  0  0  0  0  0  0  0  0  0  0
   33.2883   34.8829   62.8207 C   0  0  0  0  0  0  0  0  0  0  0  0
   32.6386   33.9905   61.9622 C   0  0  0  0  0  0  0  0  0  0  0  0
   32.4069   34.3494   60.6313 C   0  0  0  0  0  0  0  0  0  0  0  0
   31.7076   33.3870   59.7139 C   0  0  0  0  0  0  0  0  0  0  0  0
   32.7716   35.5323   60.0862 N   0  0  0  0  0  0  0  0  0  0  0  0
   33.8505   37.5847   60.6317 N   0  0  0  0  0  0  0  0  0  0  0  0
   36.0353   40.7733   63.2255 H   0  0  0  0  0  0  0  0  0  0  0  0
   35.9016   39.2110   65.1284 H   0  0  0  0  0  0  0  0  0  0  0  0
   34.8254   36.9762   64.8784 H   0  0  0  0  0  0  0  0  0  0  0  0
   33.9736   40.3430   60.6033 H   0  0  0  0  0  0  0  0  0  0  0  0
   36.9093   39.4163   59.6362 H   0  0  0  0  0  0  0  0  0  0  0  0
   36.1275   40.0417   58.4447 H   0  0  0  0  0  0  0  0  0  0  0  0
   35.9018   42.3797   60.0344 H   0  0  0  0  0  0  0  0  0  0  0  0
   36.8990   41.8433   61.1028 H   0  0  0  0  0  0  0  0  0  0  0  0
   33.4814   34.6251   63.8725 H   0  0  0  0  0  0  0  0  0  0  0  0
   32.3107   33.0083   62.3334 H   0  0  0  0  0  0  0  0  0  0  0  0
   31.1646   32.6398   60.3112 H   0  0  0  0  0  0  0  0  0  0  0  0
   30.9965   33.9363   59.0794 H   0  0  0  0  0  0  0  0  0  0  0  0
   32.4496   32.8804   59.0794 H   0  0  0  0  0  0  0  0  0  0  0  0
   33.7653   38.0112   59.6981 H   0  0  0  0  0  0  0  0  0  0  0  0
  1  2  2  0
  1  4  1  0
  2  3  1  0
  3  6  2  0
  4  5  2  0
  7  4  1  0
  5  6  1  0
  5 17  1  0
  6 11  1  0
  7  8  1  0
  7  9  1  0
  8  9  1  0
 10 11  2  0
 10 16  1  0
 10 17  1  0
 11 12  1  0
 12 13  2  0
 13 14  1  0
 14 15  1  0
 14 16  2  0
  1 18  1  0
  2 19  1  0
  3 20  1  0
  7 21  1  6
  8 22  1  0
  8 23  1  0
  9 24  1  0
  9 25  1  0
 12 26  1  0
 13 27  1  0
 15 28  1  0
 15 29  1  0
 15 30  1  0
 17 31  1  0
M  END
>  <filename_input>  (16) 
7VBU_6I4_docked.sdf

>  <pdb_id>  (16) 
7VBU_6I4

>  <pose_rank>  (16) 
15

>  <num_atoms_heavy>  (16) 
17

>  <num_torsions>  (16) 
1

>  <pose>  (16) 
[35.55746933385656, 39.79298950408361, 63.08156516797426, -3.459167194582115, 4.69620620508899, -1.6034427754895817, 1.636429520511327]

>  <energy>  (16) 
-845.9690806617145

>  <inter_energy>  (16) 
-840.5804410665896

>  <intra_energy>  (16) 
0.11782672554058929

>  <rmsd>  (16) 
1.05128

>  <sdf_rank>  (16) 
0

$$$$

     RDKit          3D

 31 34  0  0  0  0  0  0  0  0999 V2000
   32.3768   33.2333   62.2632 C   0  0  0  0  0  0  0  0  0  0  0  0
   33.2978   34.0764   62.8740 C   0  0  0  0  0  0  0  0  0  0  0  0
   33.9809   33.6829   64.0245 C   0  0  0  0  0  0  0  0  0  0  0  0
   32.0937   31.9499   62.7699 C   0  0  0  0  0  0  0  0  0  0  0  0
   32.7991   31.5856   63.9296 C   0  0  0  0  0  0  0  0  0  0  0  0
   33.7294   32.4080   64.5697 C   0  0  0  0  0  0  0  0  0  0  0  0
   31.1173   30.9739   62.1821 C   0  0  2  0  0  0  0  0  0  0  0  0
   30.8938   30.8718   60.6895 C   0  0  0  0  0  0  0  0  0  0  0  0
   29.8274   31.4546   61.5618 C   0  0  0  0  0  0  0  0  0  0  0  0
   33.5983   30.4683   65.7207 C   0  0  0  0  0  0  0  0  0  0  0  0
   34.2359   31.6998   65.7022 C   0  0  0  0  0  0  0  0  0  0  0  0
   35.1616   31.9471   66.7261 C   0  0  0  0  0  0  0  0  0  0  0  0
   35.3627   30.9368   67.6718 C   0  0  0  0  0  0  0  0  0  0  0  0
   34.6500   29.7385   67.5719 C   0  0  0  0  0  0  0  0  0  0  0  0
   34.8694   28.6571   68.5913 C   0  0  0  0  0  0  0  0  0  0  0  0
   33.7483   29.4666   66.6011 N   0  0  0  0  0  0  0  0  0  0  0  0
   32.7499   30.4219   64.6609 N   0  0  0  0  0  0  0  0  0  0  0  0
   31.8542   33.5781   61.3588 H   0  0  0  0  0  0  0  0  0  0  0  0
   33.4911   35.0698   62.4429 H   0  0  0  0  0  0  0  0  0  0  0  0
   34.7065   34.3590   64.5002 H   0  0  0  0  0  0  0  0  0  0  0  0
   31.3942   30.2634   62.9749 H   0  0  0  0  0  0  0  0  0  0  0  0
   31.4582   31.5209   60.0039 H   0  0  0  0  0  0  0  0  0  0  0  0
   30.9342   30.0564   59.9524 H   0  0  0  0  0  0  0  0  0  0  0  0
   28.8945   30.8979   61.7344 H   0  0  0  0  0  0  0  0  0  0  0  0
   29.2668   32.4010   61.5738 H   0  0  0  0  0  0  0  0  0  0  0  0
   35.7087   32.8997   66.7831 H   0  0  0  0  0  0  0  0  0  0  0  0
   36.0801   31.0848   68.4924 H   0  0  0  0  0  0  0  0  0  0  0  0
   34.7830   29.0829   69.6019 H   0  0  0  0  0  0  0  0  0  0  0  0
   34.1127   27.8697   68.4592 H   0  0  0  0  0  0  0  0  0  0  0  0
   35.8731   28.2269   68.4592 H   0  0  0  0  0  0  0  0  0  0  0  0
   32.1470   29.6182   64.4341 H   0  0  0  0  0  0  0  0  0  0  0  0
  1  2  2  0
  1  4  1  0
  2  3  1  0
  3  6  2  0
  4  5  2  0
  7  4  1  0
  5  6  1  0
  5 17  1  0
  6 11  1  0
  7  8  1  0
  7  9  1  0
  8  9  1  0
 10 11  2  0
 10 16  1  0
 10 17  1  0
 11 12  1  0
 12 13  2  0
 13 14  1  0
 14 15  1  0
 14 16  2  0
  1 18  1  0
  2 19  1  0
  3 20  1  0
  7 21  1  1
  8 22  1  0
  8 23  1  0
  9 24  1  0
  9 25  1  0
 12 26  1  0
 13 27  1  0
 15 28  1  0
 15 29  1  0
 15 30  1  0
 17 31  1  0
M  END
>  <filename_input>  (17) 
7VBU_6I4_docked.sdf

>  <pdb_id>  (17) 
7VBU_6I4

>  <pose_rank>  (17) 
16

>  <num_atoms_heavy>  (17) 
17

>  <num_torsions>  (17) 
1

>  <pose>  (17) 
[32.376778631092655, 33.23332493449708, 62.26323544714264, 3.2883231353553377, -2.608614496067817, -2.328217648125671, 0.5306687645956166]

>  <energy>  (17) 
-231.29122779586933

>  <inter_energy>  (17) 
-226.81098835283257

>  <intra_energy>  (17) 
0.0

>  <rmsd>  (17) 
7.3928

>  <sdf_rank>  (17) 
0

$$$$

     RDKit          3D

 31 34  0  0  0  0  0  0  0  0999 V2000
   35.7363   39.7741   62.7257 C   0  0  0  0  0  0  0  0  0  0  0  0
   35.8896   39.4204   64.0612 C   0  0  0  0  0  0  0  0  0  0  0  0
   35.3174   38.2533   64.5667 C   0  0  0  0  0  0  0  0  0  0  0  0
   35.0050   38.9758   61.8246 C   0  0  0  0  0  0  0  0  0  0  0  0
   34.4422   37.8077   62.3668 C   0  0  0  0  0  0  0  0  0  0  0  0
   34.5749   37.4233   63.7033 C   0  0  0  0  0  0  0  0  0  0  0  0
   34.7844   39.2762   60.3712 C   0  0  2  0  0  0  0  0  0  0  0  0
   35.7324   40.1562   59.5869 C   0  0  0  0  0  0  0  0  0  0  0  0
   34.3639   40.6563   59.9257 C   0  0  0  0  0  0  0  0  0  0  0  0
   33.3342   35.8606   62.6435 C   0  0  0  0  0  0  0  0  0  0  0  0
   33.8747   36.1904   63.8774 C   0  0  0  0  0  0  0  0  0  0  0  0
   33.6255   35.3024   64.9336 C   0  0  0  0  0  0  0  0  0  0  0  0
   32.8592   34.1665   64.6543 C   0  0  0  0  0  0  0  0  0  0  0  0
   32.3738   33.9557   63.3605 C   0  0  0  0  0  0  0  0  0  0  0  0
   31.5502   32.7342   63.0665 C   0  0  0  0  0  0  0  0  0  0  0  0
   32.5914   34.7910   62.3192 N   0  0  0  0  0  0  0  0  0  0  0  0
   33.6824   36.8338   61.7621 N   0  0  0  0  0  0  0  0  0  0  0  0
   36.1990   40.7035   62.3624 H   0  0  0  0  0  0  0  0  0  0  0  0
   36.4717   40.0715   64.7301 H   0  0  0  0  0  0  0  0  0  0  0  0
   35.4441   37.9842   65.6258 H   0  0  0  0  0  0  0  0  0  0  0  0
   34.3940   38.2551   60.2489 H   0  0  0  0  0  0  0  0  0  0  0  0
   36.6139   40.5909   60.0807 H   0  0  0  0  0  0  0  0  0  0  0  0
   36.3087   40.0412   58.6570 H   0  0  0  0  0  0  0  0  0  0  0  0
   33.6097   40.7711   59.1332 H   0  0  0  0  0  0  0  0  0  0  0  0
   33.9681   41.5480   60.4339 H   0  0  0  0  0  0  0  0  0  0  0  0
   34.0180   35.4921   65.9436 H   0  0  0  0  0  0  0  0  0  0  0  0
   32.6389   33.4406   65.4508 H   0  0  0  0  0  0  0  0  0  0  0  0
   31.2358   32.2677   64.0118 H   0  0  0  0  0  0  0  0  0  0  0  0
   30.6613   33.0223   62.4862 H   0  0  0  0  0  0  0  0  0  0  0  0
   32.1507   32.0181   62.4862 H   0  0  0  0  0  0  0  0  0  0  0  0
   33.4120   36.8414   60.7682 H   0  0  0  0  0  0  0  0  0  0  0  0
  1  2  2  0
  1  4  1  0
  2  3  1  0
  3  6  2  0
  4  5  2  0
  7  4  1  0
  5  6  1  0
  5 17  1  0
  6 11  1  0
  7  8  1  0
  7  9  1  0
  8  9  1  0
 10 11  2  0
 10 16  1  0
 10 17  1  0
 11 12  1  0
 12 13  2  0
 13 14  1  0
 14 15  1  0
 14 16  2  0
  1 18  1  0
  2 19  1  0
  3 20  1  0
  7 21  1  6
  8 22  1  0
  8 23  1  0
  9 24  1  0
  9 25  1  0
 12 26  1  0
 13 27  1  0
 15 28  1  0
 15 29  1  0
 15 30  1  0
 17 31  1  0
M  END
>  <filename_input>  (18) 
7VBU_6I4_docked.sdf

>  <pdb_id>  (18) 
7VBU_6I4

>  <pose_rank>  (18) 
17

>  <num_atoms_heavy>  (18) 
17

>  <num_torsions>  (18) 
1

>  <pose>  (18) 
[35.736263824157255, 39.77406525669236, 62.7257405839124, -6.319665032013702, 0.5161773179096816, 1.7661155774489665, 6.637427228622737]

>  <energy>  (18) 
-624.583759794236

>  <inter_energy>  (18) 
-611.6537560971545

>  <intra_energy>  (18) 
0.0

>  <rmsd>  (18) 
1.21429

>  <sdf_rank>  (18) 
0

$$$$

     RDKit          3D

 31 34  0  0  0  0  0  0  0  0999 V2000
   30.8790   30.5885   61.9424 C   0  0  0  0  0  0  0  0  0  0  0  0
   30.1679   31.4680   61.1345 C   0  0  0  0  0  0  0  0  0  0  0  0
   30.5686   32.7960   60.9895 C   0  0  0  0  0  0  0  0  0  0  0  0
   32.0315   30.9911   62.6450 C   0  0  0  0  0  0  0  0  0  0  0  0
   32.4070   32.3349   62.4767 C   0  0  0  0  0  0  0  0  0  0  0  0
   31.7150   33.2456   61.6747 C   0  0  0  0  0  0  0  0  0  0  0  0
   32.8601   30.1164   63.5394 C   0  0  2  0  0  0  0  0  0  0  0  0
   33.4717   28.8241   63.0454 C   0  0  0  0  0  0  0  0  0  0  0  0
   32.3335   28.7837   64.0152 C   0  0  0  0  0  0  0  0  0  0  0  0
   33.4749   34.3198   62.5983 C   0  0  0  0  0  0  0  0  0  0  0  0
   32.3921   34.5011   61.7509 C   0  0  0  0  0  0  0  0  0  0  0  0
   32.2241   35.7823   61.2062 C   0  0  0  0  0  0  0  0  0  0  0  0
   33.1575   36.7614   61.5604 C   0  0  0  0  0  0  0  0  0  0  0  0
   34.2054   36.4419   62.4286 C   0  0  0  0  0  0  0  0  0  0  0  0
   35.2046   37.4981   62.8065 C   0  0  0  0  0  0  0  0  0  0  0  0
   34.3968   35.2195   62.9750 N   0  0  0  0  0  0  0  0  0  0  0  0
   33.4645   33.0280   63.0180 N   0  0  0  0  0  0  0  0  0  0  0  0
   30.5320   29.5489   62.0358 H   0  0  0  0  0  0  0  0  0  0  0  0
   29.2747   31.1109   60.6008 H   0  0  0  0  0  0  0  0  0  0  0  0
   29.9972   33.4835   60.3485 H   0  0  0  0  0  0  0  0  0  0  0  0
   33.2515   31.0260   64.0184 H   0  0  0  0  0  0  0  0  0  0  0  0
   33.3173   28.5063   62.0037 H   0  0  0  0  0  0  0  0  0  0  0  0
   34.4884   28.4048   63.0236 H   0  0  0  0  0  0  0  0  0  0  0  0
   32.5079   28.4635   65.0530 H   0  0  0  0  0  0  0  0  0  0  0  0
   31.3449   28.3015   64.0308 H   0  0  0  0  0  0  0  0  0  0  0  0
   31.3897   36.0085   60.5260 H   0  0  0  0  0  0  0  0  0  0  0  0
   33.0674   37.7807   61.1567 H   0  0  0  0  0  0  0  0  0  0  0  0
   35.2692   37.5664   63.9025 H   0  0  0  0  0  0  0  0  0  0  0  0
   36.1906   37.2334   62.3968 H   0  0  0  0  0  0  0  0  0  0  0  0
   34.8857   38.4679   62.3968 H   0  0  0  0  0  0  0  0  0  0  0  0
   34.1594   32.6198   63.6593 H   0  0  0  0  0  0  0  0  0  0  0  0
  1  2  2  0
  1  4  1  0
  2  3  1  0
  3  6  2  0
  4  5  2  0
  7  4  1  0
  5  6  1  0
  5 17  1  0
  6 11  1  0
  7  8  1  0
  7  9  1  0
  8  9  1  0
 10 11  2  0
 10 16  1  0
 10 17  1  0
 11 12  1  0
 12 13  2  0
 13 14  1  0
 14 15  1  0
 14 16  2  0
  1 18  1  0
  2 19  1  0
  3 20  1  0
  7 21  1  1
  8 22  1  0
  8 23  1  0
  9 24  1  0
  9 25  1  0
 12 26  1  0
 13 27  1  0
 15 28  1  0
 15 29  1  0
 15 30  1  0
 17 31  1  0
M  END
>  <filename_input>  (19) 
7VBU_6I4_docked.sdf

>  <pdb_id>  (19) 
7VBU_6I4

>  <pose_rank>  (19) 
18

>  <num_atoms_heavy>  (19) 
17

>  <num_torsions>  (19) 
1

>  <pose>  (19) 
[30.879016877424725, 30.588534990122852, 61.942434303744946, -2.349852994556752, 1.2169498227081592, 1.9166507754347752, 7.197683493179321]

>  <energy>  (19) 
-358.3427575616905

>  <inter_energy>  (19) 
-352.78892263943976

>  <intra_energy>  (19) 
0.0

>  <rmsd>  (19) 
7.25913

>  <sdf_rank>  (19) 
0

$$$$

     RDKit          3D

 31 34  0  0  0  0  0  0  0  0999 V2000
   35.9047   39.4188   62.8133 C   0  0  0  0  0  0  0  0  0  0  0  0
   35.9308   38.5061   63.8614 C   0  0  0  0  0  0  0  0  0  0  0  0
   35.1970   37.3215   63.8023 C   0  0  0  0  0  0  0  0  0  0  0  0
   35.1456   39.1918   61.6488 C   0  0  0  0  0  0  0  0  0  0  0  0
   34.4187   37.9893   61.6223 C   0  0  0  0  0  0  0  0  0  0  0  0
   34.4206   37.0515   62.6577 C   0  0  0  0  0  0  0  0  0  0  0  0
   35.0542   40.1169   60.4708 C   0  0  2  0  0  0  0  0  0  0  0  0
   36.0177   41.2683   60.2856 C   0  0  0  0  0  0  0  0  0  0  0  0
   34.5924   41.5436   60.6466 C   0  0  0  0  0  0  0  0  0  0  0  0
   33.0788   36.2781   61.0128 C   0  0  0  0  0  0  0  0  0  0  0  0
   33.5737   35.9682   62.2708 C   0  0  0  0  0  0  0  0  0  0  0  0
   33.1571   34.7523   62.8314 C   0  0  0  0  0  0  0  0  0  0  0  0
   32.2846   33.9601   62.0785 C   0  0  0  0  0  0  0  0  0  0  0  0
   31.8618   34.3947   60.8190 C   0  0  0  0  0  0  0  0  0  0  0  0
   30.9237   33.5401   60.0152 C   0  0  0  0  0  0  0  0  0  0  0  0
   32.2401   35.5613   60.2486 N   0  0  0  0  0  0  0  0  0  0  0  0
   33.5921   37.4815   60.6475 N   0  0  0  0  0  0  0  0  0  0  0  0
   36.4935   40.3443   62.8957 H   0  0  0  0  0  0  0  0  0  0  0  0
   36.5399   38.7216   64.7516 H   0  0  0  0  0  0  0  0  0  0  0  0
   35.2240   36.6072   64.6384 H   0  0  0  0  0  0  0  0  0  0  0  0
   34.7454   39.2581   59.8568 H   0  0  0  0  0  0  0  0  0  0  0  0
   36.8146   41.4418   61.0237 H   0  0  0  0  0  0  0  0  0  0  0  0
   36.6915   41.5948   59.4798 H   0  0  0  0  0  0  0  0  0  0  0  0
   33.9165   41.9968   59.9065 H   0  0  0  0  0  0  0  0  0  0  0  0
   34.0901   42.1025   61.4500 H   0  0  0  0  0  0  0  0  0  0  0  0
   33.5034   34.4336   63.8257 H   0  0  0  0  0  0  0  0  0  0  0  0
   31.9318   32.9972   62.4765 H   0  0  0  0  0  0  0  0  0  0  0  0
   30.2845   32.9577   60.6950 H   0  0  0  0  0  0  0  0  0  0  0  0
   30.2950   34.1823   59.3809 H   0  0  0  0  0  0  0  0  0  0  0  0
   31.5048   32.8544   59.3809 H   0  0  0  0  0  0  0  0  0  0  0  0
   33.3884   37.9531   59.7548 H   0  0  0  0  0  0  0  0  0  0  0  0
  1  2  2  0
  1  4  1  0
  2  3  1  0
  3  6  2  0
  4  5  2  0
  7  4  1  0
  5  6  1  0
  5 17  1  0
  6 11  1  0
  7  8  1  0
  7  9  1  0
  8  9  1  0
 10 11  2  0
 10 16  1  0
 10 17  1  0
 11 12  1  0
 12 13  2  0
 13 14  1  0
 14 15  1  0
 14 16  2  0
  1 18  1  0
  2 19  1  0
  3 20  1  0
  7 21  1  6
  8 22  1  0
  8 23  1  0
  9 24  1  0
  9 25  1  0
 12 26  1  0
 13 27  1  0
 15 28  1  0
 15 29  1  0
 15 30  1  0
 17 31  1  0
M  END
>  <filename_input>  (20) 
7VBU_6I4_docked.sdf

>  <pdb_id>  (20) 
7VBU_6I4

>  <pose_rank>  (20) 
19

>  <num_atoms_heavy>  (20) 
17

>  <num_torsions>  (20) 
1

>  <pose>  (20) 
[35.904716895777604, 39.418766542876476, 62.81331715579013, -5.851658717721071, 0.4727334938019323, 1.7006214764732026, 6.453082959078397]

>  <energy>  (20) 
-835.2354991929137

>  <inter_energy>  (20) 
-842.7084938181926

>  <intra_energy>  (20) 
0.0

>  <rmsd>  (20) 
0.737205

>  <sdf_rank>  (20) 
0

$$$$

     RDKit          3D

 31 34  0  0  0  0  0  0  0  0999 V2000
   35.5193   39.1891   62.8134 C   0  0  0  0  0  0  0  0  0  0  0  0
   35.6175   38.5063   64.0201 C   0  0  0  0  0  0  0  0  0  0  0  0
   34.9543   37.2954   64.2176 C   0  0  0  0  0  0  0  0  0  0  0  0
   34.7550   38.6937   61.7390 C   0  0  0  0  0  0  0  0  0  0  0  0
   34.1002   37.4722   61.9719 C   0  0  0  0  0  0  0  0  0  0  0  0
   34.1755   36.7609   63.1718 C   0  0  0  0  0  0  0  0  0  0  0  0
   34.5887   39.3593   60.4045 C   0  0  2  0  0  0  0  0  0  0  0  0
   35.4534   40.5268   59.9834 C   0  0  0  0  0  0  0  0  0  0  0  0
   34.0097   40.7502   60.3049 C   0  0  0  0  0  0  0  0  0  0  0  0
   32.8536   35.6033   61.7516 C   0  0  0  0  0  0  0  0  0  0  0  0
   33.3877   35.5776   63.0313 C   0  0  0  0  0  0  0  0  0  0  0  0
   33.0535   34.4768   63.8331 C   0  0  0  0  0  0  0  0  0  0  0  0
   32.2166   33.5042   63.2771 C   0  0  0  0  0  0  0  0  0  0  0  0
   31.7472   33.6555   61.9692 C   0  0  0  0  0  0  0  0  0  0  0  0
   30.8476   32.6079   61.3775 C   0  0  0  0  0  0  0  0  0  0  0  0
   32.0458   34.7040   61.1687 N   0  0  0  0  0  0  0  0  0  0  0  0
   33.2884   36.7360   61.1409 N   0  0  0  0  0  0  0  0  0  0  0  0
   36.0536   40.1433   62.6941 H   0  0  0  0  0  0  0  0  0  0  0  0
   36.2280   38.9277   64.8323 H   0  0  0  0  0  0  0  0  0  0  0  0
   35.0379   36.7645   65.1774 H   0  0  0  0  0  0  0  0  0  0  0  0
   34.3529   38.3745   59.9749 H   0  0  0  0  0  0  0  0  0  0  0  0
   36.2323   40.9061   60.6612 H   0  0  0  0  0  0  0  0  0  0  0  0
   36.0989   40.7429   59.1192 H   0  0  0  0  0  0  0  0  0  0  0  0
   33.2995   40.9928   59.5007 H   0  0  0  0  0  0  0  0  0  0  0  0
   33.4618   41.4129   60.9909 H   0  0  0  0  0  0  0  0  0  0  0  0
   33.4352   34.3819   64.8604 H   0  0  0  0  0  0  0  0  0  0  0  0
   31.9284   32.6220   63.8676 H   0  0  0  0  0  0  0  0  0  0  0  0
   30.3619   32.0424   62.1864 H   0  0  0  0  0  0  0  0  0  0  0  0
   30.0797   33.0923   60.7565 H   0  0  0  0  0  0  0  0  0  0  0  0
   31.4424   31.9221   60.7565 H   0  0  0  0  0  0  0  0  0  0  0  0
   33.0418   37.0086   60.1787 H   0  0  0  0  0  0  0  0  0  0  0  0
  1  2  2  0
  1  4  1  0
  2  3  1  0
  3  6  2  0
  4  5  2  0
  7  4  1  0
  5  6  1  0
  5 17  1  0
  6 11  1  0
  7  8  1  0
  7  9  1  0
  8  9  1  0
 10 11  2  0
 10 16  1  0
 10 17  1  0
 11 12  1  0
 12 13  2  0
 13 14  1  0
 14 15  1  0
 14 16  2  0
  1 18  1  0
  2 19  1  0
  3 20  1  0
  7 21  1  6
  8 22  1  0
  8 23  1  0
  9 24  1  0
  9 25  1  0
 12 26  1  0
 13 27  1  0
 15 28  1  0
 15 29  1  0
 15 30  1  0
 17 31  1  0
M  END
>  <filename_input>  (21) 
7VBU_6I4_docked.sdf

>  <pdb_id>  (21) 
7VBU_6I4

>  <pose_rank>  (21) 
20

>  <num_atoms_heavy>  (21) 
17

>  <num_torsions>  (21) 
1

>  <pose>  (21) 
[35.51930516146954, 39.18914091860595, 62.81340409900605, -5.929471370263889, 1.6039816736805248, 1.4948959881532253, 6.422688654608211]

>  <energy>  (21) 
-719.8964165437126

>  <inter_energy>  (21) 
-718.907087233204

>  <intra_energy>  (21) 
0.0

>  <rmsd>  (21) 
0.269081

>  <sdf_rank>  (21) 
0

$$$$

     RDKit          3D

 31 34  0  0  0  0  0  0  0  0999 V2000
   32.4014   33.5548   61.7045 C   0  0  0  0  0  0  0  0  0  0  0  0
   32.4557   34.5180   60.7038 C   0  0  0  0  0  0  0  0  0  0  0  0
   33.0795   35.7464   60.9207 C   0  0  0  0  0  0  0  0  0  0  0  0
   32.9722   33.7691   62.9743 C   0  0  0  0  0  0  0  0  0  0  0  0
   33.5923   35.0167   63.1587 C   0  0  0  0  0  0  0  0  0  0  0  0
   33.6635   36.0074   62.1764 C   0  0  0  0  0  0  0  0  0  0  0  0
   32.9613   32.7926   64.1135 C   0  0  2  0  0  0  0  0  0  0  0  0
   32.8604   31.3010   63.8832 C   0  0  0  0  0  0  0  0  0  0  0  0
   31.7013   32.0414   64.4714 C   0  0  0  0  0  0  0  0  0  0  0  0
   34.6990   36.7808   64.0295 C   0  0  0  0  0  0  0  0  0  0  0  0
   34.3652   37.1229   62.7275 C   0  0  0  0  0  0  0  0  0  0  0  0
   34.7636   38.3929   62.2864 C   0  0  0  0  0  0  0  0  0  0  0  0
   35.4603   39.2007   63.1906 C   0  0  0  0  0  0  0  0  0  0  0  0
   35.7311   38.7298   64.4786 C   0  0  0  0  0  0  0  0  0  0  0  0
   36.4790   39.6024   65.4460 C   0  0  0  0  0  0  0  0  0  0  0  0
   35.3601   37.5134   64.9391 N   0  0  0  0  0  0  0  0  0  0  0  0
   34.2304   35.5277   64.2647 N   0  0  0  0  0  0  0  0  0  0  0  0
   31.8984   32.5984   61.4991 H   0  0  0  0  0  0  0  0  0  0  0  0
   31.9994   34.3080   59.7252 H   0  0  0  0  0  0  0  0  0  0  0  0
   33.1152   36.5018   60.1219 H   0  0  0  0  0  0  0  0  0  0  0  0
   33.6658   33.4491   64.6452 H   0  0  0  0  0  0  0  0  0  0  0  0
   32.7972   30.9064   62.8584 H   0  0  0  0  0  0  0  0  0  0  0  0
   33.4566   30.4269   64.1840 H   0  0  0  0  0  0  0  0  0  0  0  0
   31.4331   31.8913   65.5276 H   0  0  0  0  0  0  0  0  0  0  0  0
   30.6369   32.1459   64.2142 H   0  0  0  0  0  0  0  0  0  0  0  0
   34.5368   38.7406   61.2677 H   0  0  0  0  0  0  0  0  0  0  0  0
   35.7944   40.2044   62.8891 H   0  0  0  0  0  0  0  0  0  0  0  0
   36.2269   39.3083   66.4756 H   0  0  0  0  0  0  0  0  0  0  0  0
   37.5608   39.4845   65.2855 H   0  0  0  0  0  0  0  0  0  0  0  0
   36.1969   40.6534   65.2855 H   0  0  0  0  0  0  0  0  0  0  0  0
   34.3390   35.0248   65.1570 H   0  0  0  0  0  0  0  0  0  0  0  0
  1  2  2  0
  1  4  1  0
  2  3  1  0
  3  6  2  0
  4  5  2  0
  7  4  1  0
  5  6  1  0
  5 17  1  0
  6 11  1  0
  7  8  1  0
  7  9  1  0
  8  9  1  0
 10 11  2  0
 10 16  1  0
 10 17  1  0
 11 12  1  0
 12 13  2  0
 13 14  1  0
 14 15  1  0
 14 16  2  0
  1 18  1  0
  2 19  1  0
  3 20  1  0
  7 21  1  1
  8 22  1  0
  8 23  1  0
  9 24  1  0
  9 25  1  0
 12 26  1  0
 13 27  1  0
 15 28  1  0
 15 29  1  0
 15 30  1  0
 17 31  1  0
M  END
>  <filename_input>  (22) 
7VBU_6I4_docked.sdf

>  <pdb_id>  (22) 
7VBU_6I4

>  <pose_rank>  (22) 
21

>  <num_atoms_heavy>  (22) 
17

>  <num_torsions>  (22) 
1

>  <pose>  (22) 
[32.40135119598406, 33.55483735497797, 61.704527336542625, 2.808062863725405, -1.4628517771320835, -1.1657431808211962, 6.6684631363950855]

>  <energy>  (22) 
-496.43444511632504

>  <inter_energy>  (22) 
-489.0607234142087

>  <intra_energy>  (22) 
0.0

>  <rmsd>  (22) 
6.33022

>  <sdf_rank>  (22) 
0

$$$$

     RDKit          3D

 31 34  0  0  0  0  0  0  0  0999 V2000
   32.0961   33.0941   61.3543 C   0  0  0  0  0  0  0  0  0  0  0  0
   31.7405   34.0908   60.4531 C   0  0  0  0  0  0  0  0  0  0  0  0
   32.1799   35.4036   60.6219 C   0  0  0  0  0  0  0  0  0  0  0  0
   32.9139   33.3583   62.4703 C   0  0  0  0  0  0  0  0  0  0  0  0
   33.3387   34.6907   62.6101 C   0  0  0  0  0  0  0  0  0  0  0  0
   32.9989   35.7167   61.7251 C   0  0  0  0  0  0  0  0  0  0  0  0
   33.3470   32.3510   63.4946 C   0  0  2  0  0  0  0  0  0  0  0  0
   34.7491   31.7834   63.5105 C   0  0  0  0  0  0  0  0  0  0  0  0
   33.6012   30.9152   63.1027 C   0  0  0  0  0  0  0  0  0  0  0  0
   34.3074   36.5923   63.3455 C   0  0  0  0  0  0  0  0  0  0  0  0
   33.6134   36.9195   62.1902 C   0  0  0  0  0  0  0  0  0  0  0  0
   33.6704   38.2583   61.7771 C   0  0  0  0  0  0  0  0  0  0  0  0
   34.4183   39.1436   62.5596 C   0  0  0  0  0  0  0  0  0  0  0  0
   35.0706   38.6788   63.7052 C   0  0  0  0  0  0  0  0  0  0  0  0
   35.8719   39.6346   64.5426 C   0  0  0  0  0  0  0  0  0  0  0  0
   35.0355   37.3969   64.1352 N   0  0  0  0  0  0  0  0  0  0  0  0
   34.1303   35.2655   63.5768 N   0  0  0  0  0  0  0  0  0  0  0  0
   31.7285   32.0703   61.1915 H   0  0  0  0  0  0  0  0  0  0  0  0
   31.1022   33.8401   59.5930 H   0  0  0  0  0  0  0  0  0  0  0  0
   31.8910   36.1846   59.9031 H   0  0  0  0  0  0  0  0  0  0  0  0
   32.7112   32.8672   64.2291 H   0  0  0  0  0  0  0  0  0  0  0  0
   35.4831   32.1118   62.7600 H   0  0  0  0  0  0  0  0  0  0  0  0
   35.5487   31.7107   64.2623 H   0  0  0  0  0  0  0  0  0  0  0  0
   33.2690   30.0994   63.7616 H   0  0  0  0  0  0  0  0  0  0  0  0
   33.3697   30.2996   62.2210 H   0  0  0  0  0  0  0  0  0  0  0  0
   33.1466   38.5993   60.8719 H   0  0  0  0  0  0  0  0  0  0  0  0
   34.4932   40.2033   62.2744 H   0  0  0  0  0  0  0  0  0  0  0  0
   35.6961   39.4249   65.6080 H   0  0  0  0  0  0  0  0  0  0  0  0
   36.9414   39.5124   64.3165 H   0  0  0  0  0  0  0  0  0  0  0  0
   35.5649   40.6664   64.3165 H   0  0  0  0  0  0  0  0  0  0  0  0
   34.5368   34.7553   64.3739 H   0  0  0  0  0  0  0  0  0  0  0  0
  1  2  2  0
  1  4  1  0
  2  3  1  0
  3  6  2  0
  4  5  2  0
  7  4  1  0
  5  6  1  0
  5 17  1  0
  6 11  1  0
  7  8  1  0
  7  9  1  0
  8  9  1  0
 10 11  2  0
 10 16  1  0
 10 17  1  0
 11 12  1  0
 12 13  2  0
 13 14  1  0
 14 15  1  0
 14 16  2  0
  1 18  1  0
  2 19  1  0
  3 20  1  0
  7 21  1  1
  8 22  1  0
  8 23  1  0
  9 24  1  0
  9 25  1  0
 12 26  1  0
 13 27  1  0
 15 28  1  0
 15 29  1  0
 15 30  1  0
 17 31  1  0
M  END
>  <filename_input>  (23) 
7VBU_6I4_docked.sdf

>  <pdb_id>  (23) 
7VBU_6I4

>  <pose_rank>  (23) 
22

>  <num_atoms_heavy>  (23) 
17

>  <num_torsions>  (23) 
1

>  <pose>  (23) 
[32.09607475271722, 33.094137250197114, 61.354348660512485, 2.6452400747651086, -1.1561268144184653, -1.5096956437172666, 1.749618226748527]

>  <energy>  (23) 
-506.4953398430653

>  <inter_energy>  (23) 
-501.21775984799683

>  <intra_energy>  (23) 
0.794866887464242

>  <rmsd>  (23) 
6.21211

>  <sdf_rank>  (23) 
0

$$$$

     RDKit          3D

 31 34  0  0  0  0  0  0  0  0999 V2000
   35.5263   39.7881   62.8395 C   0  0  0  0  0  0  0  0  0  0  0  0
   35.4959   38.9762   63.9673 C   0  0  0  0  0  0  0  0  0  0  0  0
   34.8271   37.7524   63.9550 C   0  0  0  0  0  0  0  0  0  0  0  0
   34.8918   39.4159   61.6383 C   0  0  0  0  0  0  0  0  0  0  0  0
   34.2275   38.1777   61.6607 C   0  0  0  0  0  0  0  0  0  0  0  0
   34.1756   37.3382   62.7761 C   0  0  0  0  0  0  0  0  0  0  0  0
   34.8689   40.2250   60.3748 C   0  0  2  0  0  0  0  0  0  0  0  0
   35.6561   39.8128   59.1506 C   0  0  0  0  0  0  0  0  0  0  0  0
   36.0842   41.0088   59.9405 C   0  0  0  0  0  0  0  0  0  0  0  0
   33.0324   36.3472   61.0981 C   0  0  0  0  0  0  0  0  0  0  0  0
   33.4204   36.1794   62.4190 C   0  0  0  0  0  0  0  0  0  0  0  0
   33.0099   34.9976   63.0524 C   0  0  0  0  0  0  0  0  0  0  0  0
   32.2503   34.0941   62.3026 C   0  0  0  0  0  0  0  0  0  0  0  0
   31.9284   34.3898   60.9749 C   0  0  0  0  0  0  0  0  0  0  0  0
   31.1112   33.4159   60.1746 C   0  0  0  0  0  0  0  0  0  0  0  0
   32.3039   35.5195   60.3330 N   0  0  0  0  0  0  0  0  0  0  0  0
   33.5212   37.5394   60.6680 N   0  0  0  0  0  0  0  0  0  0  0  0
   36.0608   40.7484   62.8864 H   0  0  0  0  0  0  0  0  0  0  0  0
   36.0076   39.3040   64.8841 H   0  0  0  0  0  0  0  0  0  0  0  0
   34.8084   37.1187   64.8539 H   0  0  0  0  0  0  0  0  0  0  0  0
   33.8122   40.4556   60.5756 H   0  0  0  0  0  0  0  0  0  0  0  0
   36.2626   38.8953   59.1708 H   0  0  0  0  0  0  0  0  0  0  0  0
   35.4091   39.6274   58.0948 H   0  0  0  0  0  0  0  0  0  0  0  0
   35.9645   42.0172   59.5178 H   0  0  0  0  0  0  0  0  0  0  0  0
   37.0194   41.3221   60.4276 H   0  0  0  0  0  0  0  0  0  0  0  0
   33.2754   34.7892   64.0994 H   0  0  0  0  0  0  0  0  0  0  0  0
   31.9069   33.1529   62.7567 H   0  0  0  0  0  0  0  0  0  0  0  0
   30.5566   32.7550   60.8570 H   0  0  0  0  0  0  0  0  0  0  0  0
   30.4013   33.9672   59.5405 H   0  0  0  0  0  0  0  0  0  0  0  0
   31.7773   32.8125   59.5405 H   0  0  0  0  0  0  0  0  0  0  0  0
   33.3808   37.9170   59.7201 H   0  0  0  0  0  0  0  0  0  0  0  0
  1  2  2  0
  1  4  1  0
  2  3  1  0
  3  6  2  0
  4  5  2  0
  7  4  1  0
  5  6  1  0
  5 17  1  0
  6 11  1  0
  7  8  1  0
  7  9  1  0
  8  9  1  0
 10 11  2  0
 10 16  1  0
 10 17  1  0
 11 12  1  0
 12 13  2  0
 13 14  1  0
 14 15  1  0
 14 16  2  0
  1 18  1  0
  2 19  1  0
  3 20  1  0
  7 21  1  6
  8 22  1  0
  8 23  1  0
  9 24  1  0
  9 25  1  0
 12 26  1  0
 13 27  1  0
 15 28  1  0
 15 29  1  0
 15 30  1  0
 17 31  1  0
M  END
>  <filename_input>  (24) 
7VBU_6I4_docked.sdf

>  <pdb_id>  (24) 
7VBU_6I4

>  <pose_rank>  (24) 
23

>  <num_atoms_heavy>  (24) 
17

>  <num_torsions>  (24) 
1

>  <pose>  (24) 
[35.5262647556104, 39.78811582993236, 62.83949604435931, 3.7123642702606405, -5.193450642359442, 0.5836596776354784, 1.827546503315114]

>  <energy>  (24) 
-851.8363675251984

>  <inter_energy>  (24) 
-832.9027186702389

>  <intra_energy>  (24) 
1.611683517447623

>  <rmsd>  (24) 
0.873061

>  <sdf_rank>  (24) 
0

$$$$

     RDKit          3D

 31 34  0  0  0  0  0  0  0  0999 V2000
   31.1184   31.5589   61.5882 C   0  0  0  0  0  0  0  0  0  0  0  0
   30.8598   32.5191   60.6171 C   0  0  0  0  0  0  0  0  0  0  0  0
   31.3859   33.8066   60.7204 C   0  0  0  0  0  0  0  0  0  0  0  0
   31.9208   31.8357   62.7123 C   0  0  0  0  0  0  0  0  0  0  0  0
   32.4344   33.1418   62.7850 C   0  0  0  0  0  0  0  0  0  0  0  0
   32.1933   34.1313   61.8288 C   0  0  0  0  0  0  0  0  0  0  0  0
   32.2524   30.8672   63.8094 C   0  0  2  0  0  0  0  0  0  0  0  0
   33.5797   30.9080   64.5337 C   0  0  0  0  0  0  0  0  0  0  0  0
   33.2809   29.7830   63.5942 C   0  0  0  0  0  0  0  0  0  0  0  0
   33.5137   35.0146   63.4353 C   0  0  0  0  0  0  0  0  0  0  0  0
   32.8777   35.3157   62.2401 C   0  0  0  0  0  0  0  0  0  0  0  0
   33.0408   36.6190   61.7489 C   0  0  0  0  0  0  0  0  0  0  0  0
   33.8269   37.4980   62.5004 C   0  0  0  0  0  0  0  0  0  0  0  0
   34.4118   37.0622   63.6928 C   0  0  0  0  0  0  0  0  0  0  0  0
   35.2545   38.0113   64.4965 C   0  0  0  0  0  0  0  0  0  0  0  0
   34.2741   35.8152   64.1982 N   0  0  0  0  0  0  0  0  0  0  0  0
   33.2369   33.7203   63.7405 N   0  0  0  0  0  0  0  0  0  0  0  0
   30.6842   30.5545   61.4757 H   0  0  0  0  0  0  0  0  0  0  0  0
   30.2302   32.2595   59.7534 H   0  0  0  0  0  0  0  0  0  0  0  0
   31.1734   34.5590   59.9466 H   0  0  0  0  0  0  0  0  0  0  0  0
   31.1979   30.9031   64.1206 H   0  0  0  0  0  0  0  0  0  0  0  0
   34.3302   31.6652   64.2629 H   0  0  0  0  0  0  0  0  0  0  0  0
   33.8873   30.9786   65.5875 H   0  0  0  0  0  0  0  0  0  0  0  0
   33.1028   28.7715   63.9881 H   0  0  0  0  0  0  0  0  0  0  0  0
   33.7825   29.3537   62.7142 H   0  0  0  0  0  0  0  0  0  0  0  0
   32.5683   36.9377   60.8080 H   0  0  0  0  0  0  0  0  0  0  0  0
   33.9845   38.5301   62.1541 H   0  0  0  0  0  0  0  0  0  0  0  0
   35.0917   37.8280   65.5689 H   0  0  0  0  0  0  0  0  0  0  0  0
   36.3160   37.8541   64.2546 H   0  0  0  0  0  0  0  0  0  0  0  0
   34.9727   39.0467   64.2546 H   0  0  0  0  0  0  0  0  0  0  0  0
   33.5835   33.2344   64.5799 H   0  0  0  0  0  0  0  0  0  0  0  0
  1  2  2  0
  1  4  1  0
  2  3  1  0
  3  6  2  0
  4  5  2  0
  7  4  1  0
  5  6  1  0
  5 17  1  0
  6 11  1  0
  7  8  1  0
  7  9  1  0
  8  9  1  0
 10 11  2  0
 10 16  1  0
 10 17  1  0
 11 12  1  0
 12 13  2  0
 13 14  1  0
 14 15  1  0
 14 16  2  0
  1 18  1  0
  2 19  1  0
  3 20  1  0
  7 21  1  1
  8 22  1  0
  8 23  1  0
  9 24  1  0
  9 25  1  0
 12 26  1  0
 13 27  1  0
 15 28  1  0
 15 29  1  0
 15 30  1  0
 17 31  1  0
M  END
>  <filename_input>  (25) 
7VBU_6I4_docked.sdf

>  <pdb_id>  (25) 
7VBU_6I4

>  <pose_rank>  (25) 
24

>  <num_atoms_heavy>  (25) 
17

>  <num_torsions>  (25) 
1

>  <pose>  (25) 
[31.118401707646115, 31.558852107040185, 61.588223445688804, 2.624498298969307, -1.2876201337301492, -1.421749979717829, -3.783574826653259]

>  <energy>  (25) 
-396.866294018864

>  <inter_energy>  (25) 
-411.38479722857863

>  <intra_energy>  (25) 
17.2334445235341

>  <rmsd>  (25) 
6.76945

>  <sdf_rank>  (25) 
0

$$$$

     RDKit          3D

 31 34  0  0  0  0  0  0  0  0999 V2000
   35.6240   39.2720   62.7290 C   0  0  0  0  0  0  0  0  0  0  0  0
   35.7040   38.5450   63.9110 C   0  0  0  0  0  0  0  0  0  0  0  0
   35.0280   37.3340   64.0580 C   0  0  0  0  0  0  0  0  0  0  0  0
   34.8660   38.8230   61.6300 C   0  0  0  0  0  0  0  0  0  0  0  0
   34.1980   37.6000   61.8120 C   0  0  0  0  0  0  0  0  0  0  0  0
   34.2550   36.8450   62.9860 C   0  0  0  0  0  0  0  0  0  0  0  0
   34.7190   39.5380   60.3190 C   0  0  2  0  0  0  0  0  0  0  0  0
   35.4710   40.8160   60.0200 C   0  0  0  0  0  0  0  0  0  0  0  0
   33.9920   40.8590   60.2400 C   0  0  0  0  0  0  0  0  0  0  0  0
   32.9370   35.7520   61.5120 C   0  0  0  0  0  0  0  0  0  0  0  0
   33.4580   35.6750   62.7950 C   0  0  0  0  0  0  0  0  0  0  0  0
   33.1060   34.5490   63.5530 C   0  0  0  0  0  0  0  0  0  0  0  0
   32.2660   33.6050   62.9540 C   0  0  0  0  0  0  0  0  0  0  0  0
   31.8110   33.8080   61.6480 C   0  0  0  0  0  0  0  0  0  0  0  0
   30.9080   32.7910   61.0100 C   0  0  0  0  0  0  0  0  0  0  0  0
   32.1270   34.8820   60.8890 N   0  0  0  0  0  0  0  0  0  0  0  0
   33.3880   36.9020   60.9470 N   0  0  0  0  0  0  0  0  0  0  0  0
   36.1680   40.2248   62.6496 H   0  0  0  0  0  0  0  0  0  0  0  0
   36.3102   38.9310   64.7438 H   0  0  0  0  0  0  0  0  0  0  0  0
   35.0973   36.7679   64.9986 H   0  0  0  0  0  0  0  0  0  0  0  0
   34.6294   38.5581   59.8274 H   0  0  0  0  0  0  0  0  0  0  0  0
   36.1509   41.2422   60.7724 H   0  0  0  0  0  0  0  0  0  0  0  0
   36.1468   41.1499   59.2188 H   0  0  0  0  0  0  0  0  0  0  0  0
   33.3173   41.0645   59.3959 H   0  0  0  0  0  0  0  0  0  0  0  0
   33.3241   41.4178   60.9121 H   0  0  0  0  0  0  0  0  0  0  0  0
   33.4766   34.4134   64.5798 H   0  0  0  0  0  0  0  0  0  0  0  0
   31.9640   32.7048   63.5093 H   0  0  0  0  0  0  0  0  0  0  0  0
   30.3952   32.2134   61.7932 H   0  0  0  0  0  0  0  0  0  0  0  0
   30.1622   33.3038   60.3848 H   0  0  0  0  0  0  0  0  0  0  0  0
   31.5054   32.1111   60.3848 H   0  0  0  0  0  0  0  0  0  0  0  0
   33.1534   37.2116   59.9930 H   0  0  0  0  0  0  0  0  0  0  0  0
  1  2  2  0
  1  4  1  0
  2  3  1  0
  3  6  2  0
  4  5  2  0
  7  4  1  0
  5  6  1  0
  5 17  1  0
  6 11  1  0
  7  8  1  0
  7  9  1  0
  8  9  1  0
 10 11  2  0
 10 16  1  0
 10 17  1  0
 11 12  1  0
 12 13  2  0
 13 14  1  0
 14 15  1  0
 14 16  2  0
  1 18  1  0
  2 19  1  0
  3 20  1  0
  7 21  1  6
  8 22  1  0
  8 23  1  0
  9 24  1  0
  9 25  1  0
 12 26  1  0
 13 27  1  0
 15 28  1  0
 15 29  1  0
 15 30  1  0
 17 31  1  0
M  END
>  <filename_input>  (26) 
7VBU_6I4_docked.sdf

>  <pdb_id>  (26) 
7VBU_6I4

>  <pose_rank>  (26) 
25

>  <num_atoms_heavy>  (26) 
17

>  <num_torsions>  (26) 
1

>  <pose>  (26) 
[35.624, 39.272, 62.729, 1e-06, 1e-06, 1e-06, 0.0]

>  <energy>  (26) 
-767.9962654521058

>  <inter_energy>  (26) 
-776.6057787638823

>  <intra_energy>  (26) 
0.0

>  <rmsd>  (26) 
0.0

>  <sdf_rank>  (26) 
0

$$$$
