
     RDKit          3D

 42 44  0  0  0  0  0  0  0  0999 V2000
   15.1002  -14.9565   -0.7481 N   0  0  0  0  0  0  0  0  0  0  0  0
   15.7906  -14.0248   -1.2960 C   0  0  0  0  0  0  0  0  0  0  0  0
   14.5433  -17.0675   -3.7499 C   0  0  0  0  0  0  0  0  0  0  0  0
   13.8260  -18.1043   -3.1801 C   0  0  0  0  0  0  0  0  0  0  0  0
   13.5267  -18.0882   -1.8323 C   0  0  0  0  0  0  0  0  0  0  0  0
   13.9384  -17.0355   -1.0309 C   0  0  0  0  0  0  0  0  0  0  0  0
   14.9712  -16.0071   -2.9511 C   0  0  0  0  0  0  0  0  0  0  0  0
   16.9211  -12.8108   -3.0999 C   0  0  0  0  0  0  0  0  0  0  0  0
   16.2219   -9.2534   -4.4532 C   0  0  2  0  0  0  0  0  0  0  0  0
   16.0402  -11.6534   -3.5589 C   0  0  0  0  0  0  0  0  0  0  0  0
   16.6630  -10.7181   -4.5656 C   0  0  0  0  0  0  0  0  0  0  0  0
   16.4848   -8.6218   -3.0906 C   0  0  2  0  0  0  0  0  0  0  0  0
   15.7686  -14.9234   -3.5315 C   0  0  0  0  0  0  0  0  0  0  0  0
   16.2107   -7.1290   -3.1323 C   0  0  0  0  0  0  0  0  0  0  0  0
   14.7568   -6.8857   -3.5423 C   0  0  0  0  0  0  0  0  0  0  0  0
   14.4287   -7.6453   -4.8251 C   0  0  0  0  0  0  0  0  0  0  0  0
   14.6690  -15.9854   -1.5849 C   0  0  0  0  0  0  0  0  0  0  0  0
   14.7935   -9.0685   -4.7507 N   0  0  0  0  0  0  0  0  0  0  0  0
   16.1429  -13.9458   -2.6168 N   0  0  0  0  0  0  0  0  0  0  0  0
   16.1004  -14.8576   -4.7019 O   0  0  0  0  0  0  0  0  0  0  0  0
   14.9063  -11.5083   -3.1536 O   0  0  0  0  0  0  0  0  0  0  0  0
   17.8280   -8.8817   -2.6836 O   0  0  0  0  0  0  0  0  0  0  0  0
   16.1331  -13.2100   -0.6412 H   0  0  0  0  0  0  0  0  0  0  0  0
   14.7746  -17.0793   -4.8253 H   0  0  0  0  0  0  0  0  0  0  0  0
   13.4922  -18.9462   -3.8044 H   0  0  0  0  0  0  0  0  0  0  0  0
   12.9564  -18.9187   -1.3907 H   0  0  0  0  0  0  0  0  0  0  0  0
   13.6891  -17.0284    0.0404 H   0  0  0  0  0  0  0  0  0  0  0  0
   17.5391  -13.1418   -3.9476 H   0  0  0  0  0  0  0  0  0  0  0  0
   17.5403  -12.4499   -2.2655 H   0  0  0  0  0  0  0  0  0  0  0  0
   16.8446   -8.7480   -5.2061 H   0  0  0  0  0  0  0  0  0  0  0  0
   16.4005  -11.0768   -5.5718 H   0  0  0  0  0  0  0  0  0  0  0  0
   17.7445  -10.7284   -4.3649 H   0  0  0  0  0  0  0  0  0  0  0  0
   15.8030   -9.0703   -2.3531 H   0  0  0  0  0  0  0  0  0  0  0  0
   16.3877   -6.6962   -2.1367 H   0  0  0  0  0  0  0  0  0  0  0  0
   16.8810   -6.6547   -3.8643 H   0  0  0  0  0  0  0  0  0  0  0  0
   14.0912   -7.2304   -2.7373 H   0  0  0  0  0  0  0  0  0  0  0  0
   14.6124   -5.8097   -3.7192 H   0  0  0  0  0  0  0  0  0  0  0  0
   13.3476   -7.5683   -5.0131 H   0  0  0  0  0  0  0  0  0  0  0  0
   15.0159   -7.1937   -5.6383 H   0  0  0  0  0  0  0  0  0  0  0  0
   14.5810   -9.5144   -5.6545 H   0  0  0  0  0  0  0  0  0  0  0  0
   14.2503   -9.4978   -3.9881 H   0  0  0  0  0  0  0  0  0  0  0  0
   17.8772   -8.8912   -1.6949 H   0  0  0  0  0  0  0  0  0  0  0  0
  1  2  2  0
  1 17  1  0
  2 19  1  0
  3  4  1  0
  3  7  2  0
  4  5  2  0
  5  6  1  0
  6 17  2  0
  7 13  1  0
  7 17  1  0
  8 10  1  0
  8 19  1  0
  9 11  1  0
  9 12  1  0
  9 18  1  0
 10 11  1  0
 10 21  2  0
 12 14  1  0
 12 22  1  0
 13 19  1  0
 13 20  2  0
 14 15  1  0
 15 16  1  0
 16 18  1  0
  2 23  1  0
  3 24  1  0
  4 25  1  0
  5 26  1  0
  6 27  1  0
  8 28  1  0
  8 29  1  0
  9 30  1  6
 11 31  1  0
 11 32  1  0
 12 33  1  1
 14 34  1  0
 14 35  1  0
 15 36  1  0
 15 37  1  0
 16 38  1  0
 16 39  1  0
 18 40  1  0
 18 41  1  0
 22 42  1  0
M  CHG  1  18   1
M  END
>  <filename_input>  (1) 
7VC5_9SF_docked.sdf

>  <pdb_id>  (1) 
7VC5_9SF

>  <pose_rank>  (1) 
0

>  <num_atoms_heavy>  (1) 
22

>  <num_torsions>  (1) 
4

>  <pose>  (1) 
[16.921074659796282, -12.810815483623404, -3.0999250660793174, -5.614690416547328, 1.0246756855360897, 2.527981792397462, -6.046171298369653, 0.12131035160304343, -12.338264565796472, -0.008716748628525822]

>  <energy>  (1) 
-1170.8914392296663

>  <inter_energy>  (1) 
-1181.7278794668214

>  <intra_energy>  (1) 
19.01554162817209

>  <rmsd>  (1) 
0.628163

>  <sdf_rank>  (1) 
0

$$$$

     RDKit          3D

 42 44  0  0  0  0  0  0  0  0999 V2000
   16.0888  -14.7066   -5.6105 N   0  0  0  0  0  0  0  0  0  0  0  0
   16.1132  -13.5984   -4.9653 C   0  0  0  0  0  0  0  0  0  0  0  0
   14.6107  -16.8512   -2.9661 C   0  0  0  0  0  0  0  0  0  0  0  0
   14.5398  -18.0528   -3.6482 C   0  0  0  0  0  0  0  0  0  0  0  0
   14.9872  -18.1433   -4.9513 C   0  0  0  0  0  0  0  0  0  0  0  0
   15.5139  -17.0350   -5.5948 C   0  0  0  0  0  0  0  0  0  0  0  0
   15.1302  -15.7265   -3.6068 C   0  0  0  0  0  0  0  0  0  0  0  0
   15.8001  -12.0794   -3.0679 C   0  0  0  0  0  0  0  0  0  0  0  0
   16.4778   -9.1074   -4.3618 C   0  0  2  0  0  0  0  0  0  0  0  0
   17.1242  -11.3940   -3.3887 C   0  0  0  0  0  0  0  0  0  0  0  0
   17.1138  -10.4841   -4.5921 C   0  0  0  0  0  0  0  0  0  0  0  0
   16.5357   -8.6233   -2.9171 C   0  0  2  0  0  0  0  0  0  0  0  0
   15.1719  -14.4371   -2.9120 C   0  0  0  0  0  0  0  0  0  0  0  0
   16.0746   -7.1801   -2.8189 C   0  0  0  0  0  0  0  0  0  0  0  0
   14.6431   -7.0619   -3.3460 C   0  0  0  0  0  0  0  0  0  0  0  0
   14.5304   -7.6897   -4.7328 C   0  0  0  0  0  0  0  0  0  0  0  0
   15.5864  -15.8135   -4.9269 C   0  0  0  0  0  0  0  0  0  0  0  0
   15.0691   -9.0577   -4.7817 N   0  0  0  0  0  0  0  0  0  0  0  0
   15.6945  -13.4004   -3.6768 N   0  0  0  0  0  0  0  0  0  0  0  0
   14.7838  -14.2513   -1.7723 O   0  0  0  0  0  0  0  0  0  0  0  0
   18.1143  -11.5568   -2.7073 O   0  0  0  0  0  0  0  0  0  0  0  0
   17.8603   -8.7706   -2.4062 O   0  0  0  0  0  0  0  0  0  0  0  0
   16.5090  -12.7218   -5.4990 H   0  0  0  0  0  0  0  0  0  0  0  0
   14.2599  -16.7834   -1.9257 H   0  0  0  0  0  0  0  0  0  0  0  0
   14.1246  -18.9410   -3.1496 H   0  0  0  0  0  0  0  0  0  0  0  0
   14.9249  -19.1040   -5.4835 H   0  0  0  0  0  0  0  0  0  0  0  0
   15.8741  -17.1188   -6.6308 H   0  0  0  0  0  0  0  0  0  0  0  0
   15.7129  -12.1857   -1.9765 H   0  0  0  0  0  0  0  0  0  0  0  0
   14.9922  -11.4559   -3.4786 H   0  0  0  0  0  0  0  0  0  0  0  0
   17.0931   -8.4421   -4.9853 H   0  0  0  0  0  0  0  0  0  0  0  0
   16.5552  -10.9874   -5.3950 H   0  0  0  0  0  0  0  0  0  0  0  0
   18.1681  -10.2961   -4.8431 H   0  0  0  0  0  0  0  0  0  0  0  0
   15.8559   -9.2378   -2.3086 H   0  0  0  0  0  0  0  0  0  0  0  0
   16.1057   -6.8565   -1.7680 H   0  0  0  0  0  0  0  0  0  0  0  0
   16.7392   -6.5423   -3.4202 H   0  0  0  0  0  0  0  0  0  0  0  0
   13.9598   -7.5805   -2.6573 H   0  0  0  0  0  0  0  0  0  0  0  0
   14.3761   -5.9970   -3.4148 H   0  0  0  0  0  0  0  0  0  0  0  0
   13.4692   -7.7188   -5.0209 H   0  0  0  0  0  0  0  0  0  0  0  0
   15.1230   -7.0741   -5.4256 H   0  0  0  0  0  0  0  0  0  0  0  0
   14.9966   -9.4099   -5.7468 H   0  0  0  0  0  0  0  0  0  0  0  0
   14.5216   -9.6399   -4.1320 H   0  0  0  0  0  0  0  0  0  0  0  0
   17.8345   -8.7677   -1.4166 H   0  0  0  0  0  0  0  0  0  0  0  0
  1  2  2  0
  1 17  1  0
  2 19  1  0
  3  4  1  0
  3  7  2  0
  4  5  2  0
  5  6  1  0
  6 17  2  0
  7 13  1  0
  7 17  1  0
  8 10  1  0
  8 19  1  0
  9 11  1  0
  9 12  1  0
  9 18  1  0
 10 11  1  0
 10 21  2  0
 12 14  1  0
 12 22  1  0
 13 19  1  0
 13 20  2  0
 14 15  1  0
 15 16  1  0
 16 18  1  0
  2 23  1  0
  3 24  1  0
  4 25  1  0
  5 26  1  0
  6 27  1  0
  8 28  1  0
  8 29  1  0
  9 30  1  6
 11 31  1  0
 11 32  1  0
 12 33  1  1
 14 34  1  0
 14 35  1  0
 15 36  1  0
 15 37  1  0
 16 38  1  0
 16 39  1  0
 18 40  1  0
 18 41  1  0
 22 42  1  0
M  CHG  1  18   1
M  END
>  <filename_input>  (2) 
7VC5_9SF_docked.sdf

>  <pdb_id>  (2) 
7VC5_9SF

>  <pose_rank>  (2) 
1

>  <num_atoms_heavy>  (2) 
22

>  <num_torsions>  (2) 
4

>  <pose>  (2) 
[15.80005391779835, -12.079359531193893, -3.067904185941807, -0.49912242493327186, -2.476135158513347, 0.1324890992614829, 1.0597531132276294, -1.8192558976650008, 4.153368981139201, -0.5520967562056217]

>  <energy>  (2) 
-908.9321243861261

>  <inter_energy>  (2) 
-947.7217702428685

>  <intra_energy>  (2) 
37.70463314857136

>  <rmsd>  (2) 
2.42741

>  <sdf_rank>  (2) 
0

$$$$

     RDKit          3D

 42 44  0  0  0  0  0  0  0  0999 V2000
   15.4624  -15.4642   -4.2315 N   0  0  0  0  0  0  0  0  0  0  0  0
   16.1318  -14.3769   -4.1110 C   0  0  0  0  0  0  0  0  0  0  0  0
   14.9244  -16.1821   -0.6298 C   0  0  0  0  0  0  0  0  0  0  0  0
   14.1709  -17.3382   -0.7291 C   0  0  0  0  0  0  0  0  0  0  0  0
   13.8647  -17.8678   -1.9669 C   0  0  0  0  0  0  0  0  0  0  0  0
   14.3068  -17.2519   -3.1266 C   0  0  0  0  0  0  0  0  0  0  0  0
   15.3669  -15.5480   -1.7907 C   0  0  0  0  0  0  0  0  0  0  0  0
   17.2674  -12.5369   -2.9575 C   0  0  0  0  0  0  0  0  0  0  0  0
   16.2063   -9.0684   -3.3564 C   0  0  2  0  0  0  0  0  0  0  0  0
   16.7173  -11.5145   -3.9466 C   0  0  0  0  0  0  0  0  0  0  0  0
   17.2445  -10.1092   -3.7941 C   0  0  0  0  0  0  0  0  0  0  0  0
   15.7732   -8.1112   -4.4614 C   0  0  2  0  0  0  0  0  0  0  0  0
   16.1289  -14.2996   -1.7027 C   0  0  0  0  0  0  0  0  0  0  0  0
   14.6051   -7.2576   -4.0007 C   0  0  0  0  0  0  0  0  0  0  0  0
   15.0097   -6.4622   -2.7579 C   0  0  0  0  0  0  0  0  0  0  0  0
   15.5980   -7.3896   -1.6976 C   0  0  0  0  0  0  0  0  0  0  0  0
   15.0604  -16.0818   -3.0475 C   0  0  0  0  0  0  0  0  0  0  0  0
   16.6689   -8.2484   -2.2265 N   0  0  0  0  0  0  0  0  0  0  0  0
   16.4863  -13.7683   -2.9367 N   0  0  0  0  0  0  0  0  0  0  0  0
   16.4311  -13.7442   -0.6614 O   0  0  0  0  0  0  0  0  0  0  0  0
   15.9225  -11.8189   -4.8108 O   0  0  0  0  0  0  0  0  0  0  0  0
   15.4346   -8.8454   -5.6376 O   0  0  0  0  0  0  0  0  0  0  0  0
   16.4523  -13.8854   -5.0414 H   0  0  0  0  0  0  0  0  0  0  0  0
   15.1728  -15.7659    0.3577 H   0  0  0  0  0  0  0  0  0  0  0  0
   13.8138  -17.8383    0.1833 H   0  0  0  0  0  0  0  0  0  0  0  0
   13.2643  -18.7872   -2.0329 H   0  0  0  0  0  0  0  0  0  0  0  0
   14.0635  -17.6854   -4.1078 H   0  0  0  0  0  0  0  0  0  0  0  0
   18.3023  -12.7800   -3.2400 H   0  0  0  0  0  0  0  0  0  0  0  0
   17.2171  -12.0915   -1.9529 H   0  0  0  0  0  0  0  0  0  0  0  0
   15.3447   -9.6856   -3.0620 H   0  0  0  0  0  0  0  0  0  0  0  0
   17.6563   -9.7927   -4.7637 H   0  0  0  0  0  0  0  0  0  0  0  0
   17.9952  -10.1492   -2.9911 H   0  0  0  0  0  0  0  0  0  0  0  0
   16.6109   -7.4387   -4.6980 H   0  0  0  0  0  0  0  0  0  0  0  0
   14.3207   -6.5620   -4.8040 H   0  0  0  0  0  0  0  0  0  0  0  0
   13.7515   -7.9072   -3.7570 H   0  0  0  0  0  0  0  0  0  0  0  0
   15.7618   -5.7101   -3.0384 H   0  0  0  0  0  0  0  0  0  0  0  0
   14.1171   -5.9701   -2.3443 H   0  0  0  0  0  0  0  0  0  0  0  0
   16.0091   -6.7761   -0.8823 H   0  0  0  0  0  0  0  0  0  0  0  0
   14.7892   -8.0460   -1.3444 H   0  0  0  0  0  0  0  0  0  0  0  0
   16.9975   -8.8718   -1.4752 H   0  0  0  0  0  0  0  0  0  0  0  0
   17.4289   -7.6404   -2.5633 H   0  0  0  0  0  0  0  0  0  0  0  0
   15.0343   -9.7136   -5.3809 H   0  0  0  0  0  0  0  0  0  0  0  0
  1  2  2  0
  1 17  1  0
  2 19  1  0
  3  4  1  0
  3  7  2  0
  4  5  2  0
  5  6  1  0
  6 17  2  0
  7 13  1  0
  7 17  1  0
  8 10  1  0
  8 19  1  0
  9 11  1  0
  9 12  1  0
  9 18  1  0
 10 11  1  0
 10 21  2  0
 12 14  1  0
 12 22  1  0
 13 19  1  0
 13 20  2  0
 14 15  1  0
 15 16  1  0
 16 18  1  0
  2 23  1  0
  3 24  1  0
  4 25  1  0
  5 26  1  0
  6 27  1  0
  8 28  1  0
  8 29  1  0
  9 30  1  1
 11 31  1  0
 11 32  1  0
 12 33  1  6
 14 34  1  0
 14 35  1  0
 15 36  1  0
 15 37  1  0
 16 38  1  0
 16 39  1  0
 18 40  1  0
 18 41  1  0
 22 42  1  0
M  CHG  1  18   1
M  END
>  <filename_input>  (3) 
7VC5_9SF_docked.sdf

>  <pdb_id>  (3) 
7VC5_9SF

>  <pose_rank>  (3) 
2

>  <num_atoms_heavy>  (3) 
22

>  <num_torsions>  (3) 
4

>  <pose>  (3) 
[17.267385040772034, -12.536856051926911, -2.9574689909153737, 0.04744529886241493, 5.512015205309263, -1.1115102689191492, -3.6596330401916664, -0.5569810376148677, -5.475720219814602, -2.875881779044909]

>  <energy>  (3) 
-751.2564011418503

>  <inter_energy>  (3) 
-777.4338258790848

>  <intra_energy>  (3) 
29.85008957721284

>  <rmsd>  (3) 
2.33

>  <sdf_rank>  (3) 
0

$$$$

     RDKit          3D

 42 44  0  0  0  0  0  0  0  0999 V2000
   18.6940  -12.7365    0.1159 N   0  0  0  0  0  0  0  0  0  0  0  0
   18.2354  -12.5920   -1.0731 C   0  0  0  0  0  0  0  0  0  0  0  0
   16.2710  -15.2695    1.3368 C   0  0  0  0  0  0  0  0  0  0  0  0
   16.7639  -15.4721    2.6135 C   0  0  0  0  0  0  0  0  0  0  0  0
   17.8675  -14.7698    3.0555 C   0  0  0  0  0  0  0  0  0  0  0  0
   18.4969  -13.8524    2.2297 C   0  0  0  0  0  0  0  0  0  0  0  0
   16.9022  -14.3555    0.4932 C   0  0  0  0  0  0  0  0  0  0  0  0
   16.7383  -12.9560   -2.9789 C   0  0  0  0  0  0  0  0  0  0  0  0
   15.7907   -9.2032   -3.6852 C   0  0  2  0  0  0  0  0  0  0  0  0
   16.9146  -11.4875   -3.3510 C   0  0  0  0  0  0  0  0  0  0  0  0
   15.7494  -10.5866   -3.0242 C   0  0  0  0  0  0  0  0  0  0  0  0
   16.1401   -8.0637   -2.7343 C   0  0  2  0  0  0  0  0  0  0  0  0
   16.4181  -14.1618   -0.8762 C   0  0  0  0  0  0  0  0  0  0  0  0
   16.3596   -6.7738   -3.5046 C   0  0  0  0  0  0  0  0  0  0  0  0
   15.0933   -6.4225   -4.2882 C   0  0  0  0  0  0  0  0  0  0  0  0
   14.6357   -7.6132   -5.1266 C   0  0  0  0  0  0  0  0  0  0  0  0
   18.0200  -13.6401    0.9370 C   0  0  0  0  0  0  0  0  0  0  0  0
   14.5216   -8.8507   -4.3396 N   0  0  0  0  0  0  0  0  0  0  0  0
   17.1535  -13.2376   -1.6094 N   0  0  0  0  0  0  0  0  0  0  0  0
   15.4676  -14.7469   -1.3643 O   0  0  0  0  0  0  0  0  0  0  0  0
   17.9342  -11.0707   -3.8588 O   0  0  0  0  0  0  0  0  0  0  0  0
   17.2967   -8.4035   -1.9701 O   0  0  0  0  0  0  0  0  0  0  0  0
   18.7624  -11.8802   -1.7255 H   0  0  0  0  0  0  0  0  0  0  0  0
   15.3876  -15.8253    0.9894 H   0  0  0  0  0  0  0  0  0  0  0  0
   16.2738  -16.1968    3.2803 H   0  0  0  0  0  0  0  0  0  0  0  0
   18.2504  -14.9401    4.0725 H   0  0  0  0  0  0  0  0  0  0  0  0
   19.3712  -13.2927    2.5933 H   0  0  0  0  0  0  0  0  0  0  0  0
   15.6767  -13.2228   -3.0878 H   0  0  0  0  0  0  0  0  0  0  0  0
   17.3749  -13.5504   -3.6507 H   0  0  0  0  0  0  0  0  0  0  0  0
   16.5956   -9.3067   -4.4279 H   0  0  0  0  0  0  0  0  0  0  0  0
   15.7253  -10.4427   -1.9339 H   0  0  0  0  0  0  0  0  0  0  0  0
   14.8540  -11.0884   -3.4199 H   0  0  0  0  0  0  0  0  0  0  0  0
   15.2986   -7.9061   -2.0436 H   0  0  0  0  0  0  0  0  0  0  0  0
   16.5914   -5.9615   -2.8000 H   0  0  0  0  0  0  0  0  0  0  0  0
   17.1981   -6.9044   -4.2046 H   0  0  0  0  0  0  0  0  0  0  0  0
   14.2952   -6.1487   -3.5824 H   0  0  0  0  0  0  0  0  0  0  0  0
   15.3126   -5.5785   -4.9587 H   0  0  0  0  0  0  0  0  0  0  0  0
   13.6523   -7.3805   -5.5612 H   0  0  0  0  0  0  0  0  0  0  0  0
   15.3943   -7.7829   -5.9049 H   0  0  0  0  0  0  0  0  0  0  0  0
   14.2453   -9.6198   -4.9665 H   0  0  0  0  0  0  0  0  0  0  0  0
   13.8154   -8.6983   -3.6054 H   0  0  0  0  0  0  0  0  0  0  0  0
   17.0847   -8.3412   -1.0051 H   0  0  0  0  0  0  0  0  0  0  0  0
  1  2  2  0
  1 17  1  0
  2 19  1  0
  3  4  1  0
  3  7  2  0
  4  5  2  0
  5  6  1  0
  6 17  2  0
  7 13  1  0
  7 17  1  0
  8 10  1  0
  8 19  1  0
  9 11  1  0
  9 12  1  0
  9 18  1  0
 10 11  1  0
 10 21  2  0
 12 14  1  0
 12 22  1  0
 13 19  1  0
 13 20  2  0
 14 15  1  0
 15 16  1  0
 16 18  1  0
  2 23  1  0
  3 24  1  0
  4 25  1  0
  5 26  1  0
  6 27  1  0
  8 28  1  0
  8 29  1  0
  9 30  1  6
 11 31  1  0
 11 32  1  0
 12 33  1  1
 14 34  1  0
 14 35  1  0
 15 36  1  0
 15 37  1  0
 16 38  1  0
 16 39  1  0
 18 40  1  0
 18 41  1  0
 22 42  1  0
M  CHG  1  18   1
M  END
>  <filename_input>  (4) 
7VC5_9SF_docked.sdf

>  <pdb_id>  (4) 
7VC5_9SF

>  <pose_rank>  (4) 
3

>  <num_atoms_heavy>  (4) 
22

>  <num_torsions>  (4) 
4

>  <pose>  (4) 
[16.73827047573663, -12.956028304359615, -2.9788816931196376, -0.3881942683561863, 1.6060249278505194, -1.0797187309770284, 1.1605675460330969, -4.977499304353623, 18.74183172323554, 9.700487424564198]

>  <energy>  (4) 
-767.991270557033

>  <inter_energy>  (4) 
-744.5282457289345

>  <intra_energy>  (4) 
6.525202043886522

>  <rmsd>  (4) 
3.17274

>  <sdf_rank>  (4) 
0

$$$$

     RDKit          3D

 42 44  0  0  0  0  0  0  0  0999 V2000
   18.8398  -12.4283    0.5336 N   0  0  0  0  0  0  0  0  0  0  0  0
   18.4434  -12.3510   -0.6837 C   0  0  0  0  0  0  0  0  0  0  0  0
   16.5351  -15.0963    1.6947 C   0  0  0  0  0  0  0  0  0  0  0  0
   16.9645  -15.2267    3.0034 C   0  0  0  0  0  0  0  0  0  0  0  0
   17.9870  -14.4336    3.4850 C   0  0  0  0  0  0  0  0  0  0  0  0
   18.5974  -13.4962    2.6675 C   0  0  0  0  0  0  0  0  0  0  0  0
   17.1486  -14.1626    0.8596 C   0  0  0  0  0  0  0  0  0  0  0  0
   17.0919  -12.8764   -2.6593 C   0  0  0  0  0  0  0  0  0  0  0  0
   15.7968   -9.3087   -3.7069 C   0  0  2  0  0  0  0  0  0  0  0  0
   17.1301  -11.4034   -3.0529 C   0  0  0  0  0  0  0  0  0  0  0  0
   15.8016  -10.6886   -3.0371 C   0  0  0  0  0  0  0  0  0  0  0  0
   16.0068   -8.1440   -2.7456 C   0  0  2  0  0  0  0  0  0  0  0  0
   16.7341  -14.0431   -0.5407 C   0  0  0  0  0  0  0  0  0  0  0  0
   16.1928   -6.8464   -3.5118 C   0  0  0  0  0  0  0  0  0  0  0  0
   14.9615   -6.5829   -4.3810 C   0  0  0  0  0  0  0  0  0  0  0  0
   14.6395   -7.8053   -5.2367 C   0  0  0  0  0  0  0  0  0  0  0  0
   18.1843  -13.3554    1.3435 C   0  0  0  0  0  0  0  0  0  0  0  0
   14.5540   -9.0437   -4.4473 N   0  0  0  0  0  0  0  0  0  0  0  0
   17.4441  -13.0885   -1.2600 N   0  0  0  0  0  0  0  0  0  0  0  0
   15.8584  -14.7095   -1.0634 O   0  0  0  0  0  0  0  0  0  0  0  0
   18.1657  -10.8413   -3.3407 O   0  0  0  0  0  0  0  0  0  0  0  0
   17.1295   -8.4033   -1.9032 O   0  0  0  0  0  0  0  0  0  0  0  0
   18.9562  -11.6211   -1.3273 H   0  0  0  0  0  0  0  0  0  0  0  0
   15.7158  -15.7246    1.3154 H   0  0  0  0  0  0  0  0  0  0  0  0
   16.4886  -15.9663    3.6640 H   0  0  0  0  0  0  0  0  0  0  0  0
   18.3201  -14.5470    4.5273 H   0  0  0  0  0  0  0  0  0  0  0  0
   19.4065  -12.8642    3.0624 H   0  0  0  0  0  0  0  0  0  0  0  0
   16.0756  -13.2611   -2.8298 H   0  0  0  0  0  0  0  0  0  0  0  0
   17.8330  -13.4069   -3.2752 H   0  0  0  0  0  0  0  0  0  0  0  0
   16.6545   -9.3629   -4.3935 H   0  0  0  0  0  0  0  0  0  0  0  0
   15.4968  -10.5592   -1.9881 H   0  0  0  0  0  0  0  0  0  0  0  0
   15.1102  -11.3145   -3.6204 H   0  0  0  0  0  0  0  0  0  0  0  0
   15.1125   -8.0385   -2.1139 H   0  0  0  0  0  0  0  0  0  0  0  0
   16.3235   -6.0171   -2.8011 H   0  0  0  0  0  0  0  0  0  0  0  0
   17.0829   -6.9252   -4.1533 H   0  0  0  0  0  0  0  0  0  0  0  0
   14.1018   -6.3586   -3.7323 H   0  0  0  0  0  0  0  0  0  0  0  0
   15.1696   -5.7298   -5.0434 H   0  0  0  0  0  0  0  0  0  0  0  0
   13.6743   -7.6399   -5.7378 H   0  0  0  0  0  0  0  0  0  0  0  0
   15.4578   -7.9287   -5.9613 H   0  0  0  0  0  0  0  0  0  0  0  0
   14.3709   -9.8324   -5.0839 H   0  0  0  0  0  0  0  0  0  0  0  0
   13.7918   -8.9343   -3.7632 H   0  0  0  0  0  0  0  0  0  0  0  0
   16.8523   -8.3393   -0.9550 H   0  0  0  0  0  0  0  0  0  0  0  0
  1  2  2  0
  1 17  1  0
  2 19  1  0
  3  4  1  0
  3  7  2  0
  4  5  2  0
  5  6  1  0
  6 17  2  0
  7 13  1  0
  7 17  1  0
  8 10  1  0
  8 19  1  0
  9 11  1  0
  9 12  1  0
  9 18  1  0
 10 11  1  0
 10 21  2  0
 12 14  1  0
 12 22  1  0
 13 19  1  0
 13 20  2  0
 14 15  1  0
 15 16  1  0
 16 18  1  0
  2 23  1  0
  3 24  1  0
  4 25  1  0
  5 26  1  0
  6 27  1  0
  8 28  1  0
  8 29  1  0
  9 30  1  6
 11 31  1  0
 11 32  1  0
 12 33  1  1
 14 34  1  0
 14 35  1  0
 15 36  1  0
 15 37  1  0
 16 38  1  0
 16 39  1  0
 18 40  1  0
 18 41  1  0
 22 42  1  0
M  CHG  1  18   1
M  END
>  <filename_input>  (5) 
7VC5_9SF_docked.sdf

>  <pdb_id>  (5) 
7VC5_9SF

>  <pose_rank>  (5) 
4

>  <num_atoms_heavy>  (5) 
22

>  <num_torsions>  (5) 
4

>  <pose>  (5) 
[17.09191186642132, -12.876369530364027, -2.659302725242935, -0.4453172555413274, 1.499999524668269, -1.014416824468108, 1.1200051213376478, -5.145541671988783, 18.715986530067376, 9.894498680591973]

>  <energy>  (5) 
-743.8145573038631

>  <inter_energy>  (5) 
-757.9236833831951

>  <intra_energy>  (5) 
17.70882870140186

>  <rmsd>  (5) 
3.45224

>  <sdf_rank>  (5) 
0

$$$$

     RDKit          3D

 42 44  0  0  0  0  0  0  0  0999 V2000
   22.7906   -9.9123   -0.5485 N   0  0  0  0  0  0  0  0  0  0  0  0
   21.6255   -9.6714   -1.0276 C   0  0  0  0  0  0  0  0  0  0  0  0
   21.7670  -11.1167    2.8099 C   0  0  0  0  0  0  0  0  0  0  0  0
   23.0082  -11.4185    3.3414 C   0  0  0  0  0  0  0  0  0  0  0  0
   24.1544  -11.2110    2.5999 C   0  0  0  0  0  0  0  0  0  0  0  0
   24.0799  -10.6977    1.3151 C   0  0  0  0  0  0  0  0  0  0  0  0
   21.6791  -10.6084    1.5140 C   0  0  0  0  0  0  0  0  0  0  0  0
   19.1804   -9.5082   -1.0524 C   0  0  0  0  0  0  0  0  0  0  0  0
   16.9270   -9.2478   -3.4236 C   0  0  2  0  0  0  0  0  0  0  0  0
   18.9237  -10.3826   -2.2754 C   0  0  0  0  0  0  0  0  0  0  0  0
   17.4835  -10.4875   -2.7124 C   0  0  0  0  0  0  0  0  0  0  0  0
   16.5485   -8.1048   -2.4881 C   0  0  2  0  0  0  0  0  0  0  0  0
   20.3692  -10.3246    0.9219 C   0  0  0  0  0  0  0  0  0  0  0  0
   16.2055   -6.8567   -3.2817 C   0  0  0  0  0  0  0  0  0  0  0  0
   15.0420   -7.1550   -4.2295 C   0  0  0  0  0  0  0  0  0  0  0  0
   15.3377   -8.3982   -5.0645 C   0  0  0  0  0  0  0  0  0  0  0  0
   22.8379  -10.3948    0.7591 C   0  0  0  0  0  0  0  0  0  0  0  0
   15.7439   -9.5494   -4.2436 N   0  0  0  0  0  0  0  0  0  0  0  0
   20.4309   -9.8429   -0.3807 N   0  0  0  0  0  0  0  0  0  0  0  0
   19.3027  -10.4927    1.4862 O   0  0  0  0  0  0  0  0  0  0  0  0
   19.8235  -10.9402   -2.8675 O   0  0  0  0  0  0  0  0  0  0  0  0
   17.6143   -7.8498   -1.5736 O   0  0  0  0  0  0  0  0  0  0  0  0
   21.5816   -9.2900   -2.0584 H   0  0  0  0  0  0  0  0  0  0  0  0
   20.8559  -11.2765    3.4052 H   0  0  0  0  0  0  0  0  0  0  0  0
   23.0824  -11.8260    4.3604 H   0  0  0  0  0  0  0  0  0  0  0  0
   25.1354  -11.4555    3.0331 H   0  0  0  0  0  0  0  0  0  0  0  0
   24.9992  -10.5295    0.7349 H   0  0  0  0  0  0  0  0  0  0  0  0
   19.2222   -8.4567   -1.3727 H   0  0  0  0  0  0  0  0  0  0  0  0
   18.3607   -9.6808   -0.3394 H   0  0  0  0  0  0  0  0  0  0  0  0
   17.7673   -8.9265   -4.0567 H   0  0  0  0  0  0  0  0  0  0  0  0
   16.8690  -10.6724   -1.8190 H   0  0  0  0  0  0  0  0  0  0  0  0
   17.4454  -11.3051   -3.4474 H   0  0  0  0  0  0  0  0  0  0  0  0
   15.6568   -8.3959   -1.9135 H   0  0  0  0  0  0  0  0  0  0  0  0
   15.9174   -6.0509   -2.5905 H   0  0  0  0  0  0  0  0  0  0  0  0
   17.0825   -6.5433   -3.8672 H   0  0  0  0  0  0  0  0  0  0  0  0
   14.1290   -7.3239   -3.6397 H   0  0  0  0  0  0  0  0  0  0  0  0
   14.9042   -6.2976   -4.9046 H   0  0  0  0  0  0  0  0  0  0  0  0
   14.4315   -8.6687   -5.6263 H   0  0  0  0  0  0  0  0  0  0  0  0
   16.1751   -8.1564   -5.7356 H   0  0  0  0  0  0  0  0  0  0  0  0
   15.9625  -10.3411   -4.8652 H   0  0  0  0  0  0  0  0  0  0  0  0
   14.9659   -9.7795   -3.6091 H   0  0  0  0  0  0  0  0  0  0  0  0
   17.2791   -7.9300   -0.6456 H   0  0  0  0  0  0  0  0  0  0  0  0
  1  2  2  0
  1 17  1  0
  2 19  1  0
  3  4  1  0
  3  7  2  0
  4  5  2  0
  5  6  1  0
  6 17  2  0
  7 13  1  0
  7 17  1  0
  8 10  1  0
  8 19  1  0
  9 11  1  0
  9 12  1  0
  9 18  1  0
 10 11  1  0
 10 21  2  0
 12 14  1  0
 12 22  1  0
 13 19  1  0
 13 20  2  0
 14 15  1  0
 15 16  1  0
 16 18  1  0
  2 23  1  0
  3 24  1  0
  4 25  1  0
  5 26  1  0
  6 27  1  0
  8 28  1  0
  8 29  1  0
  9 30  1  6
 11 31  1  0
 11 32  1  0
 12 33  1  1
 14 34  1  0
 14 35  1  0
 15 36  1  0
 15 37  1  0
 16 38  1  0
 16 39  1  0
 18 40  1  0
 18 41  1  0
 22 42  1  0
M  CHG  1  18   1
M  END
>  <filename_input>  (6) 
7VC5_9SF_docked.sdf

>  <pdb_id>  (6) 
7VC5_9SF

>  <pose_rank>  (6) 
5

>  <num_atoms_heavy>  (6) 
22

>  <num_torsions>  (6) 
4

>  <pose>  (6) 
[19.180392171887963, -9.508210030803733, -1.0524061939846818, 0.13677149552308412, -0.7198668958871032, 2.098498216812178, 2.9150271766510456, -0.6952288583064677, -2.183136045940964, 3.9038765981133703]

>  <energy>  (6) 
-520.276610794059

>  <inter_energy>  (6) 
-591.0457356351853

>  <intra_energy>  (6) 
84.00291426720106

>  <rmsd>  (6) 
6.94381

>  <sdf_rank>  (6) 
0

$$$$

     RDKit          3D

 42 44  0  0  0  0  0  0  0  0999 V2000
   16.9611   -9.0591   -5.2917 N   0  0  0  0  0  0  0  0  0  0  0  0
   16.8749  -10.3384   -5.2645 C   0  0  0  0  0  0  0  0  0  0  0  0
   15.3110   -8.3266   -2.0486 C   0  0  0  0  0  0  0  0  0  0  0  0
   15.4203   -6.9475   -2.0337 C   0  0  0  0  0  0  0  0  0  0  0  0
   16.0174   -6.2831   -3.0866 C   0  0  0  0  0  0  0  0  0  0  0  0
   16.5146   -6.9853   -4.1726 C   0  0  0  0  0  0  0  0  0  0  0  0
   15.8165   -9.0448   -3.1322 C   0  0  0  0  0  0  0  0  0  0  0  0
   16.2677  -12.5456   -4.3896 C   0  0  0  0  0  0  0  0  0  0  0  0
   15.6815  -15.3002   -4.2407 C   0  0  2  0  0  0  0  0  0  0  0  0
   16.7339  -13.2452   -3.1170 C   0  0  0  0  0  0  0  0  0  0  0  0
   16.4019  -14.7138   -3.0201 C   0  0  0  0  0  0  0  0  0  0  0  0
   14.7317  -16.4482   -3.9169 C   0  0  2  0  0  0  0  0  0  0  0  0
   15.7468  -10.5084   -3.1422 C   0  0  0  0  0  0  0  0  0  0  0  0
   13.9154  -16.8267   -5.1399 C   0  0  0  0  0  0  0  0  0  0  0  0
   14.8541  -17.2380   -6.2760 C   0  0  0  0  0  0  0  0  0  0  0  0
   15.9160  -16.1660   -6.5068 C   0  0  0  0  0  0  0  0  0  0  0  0
   16.4211   -8.3759   -4.2024 C   0  0  0  0  0  0  0  0  0  0  0  0
   16.6144  -15.7838   -5.2698 N   0  0  0  0  0  0  0  0  0  0  0  0
   16.3068  -11.0924   -4.2727 N   0  0  0  0  0  0  0  0  0  0  0  0
   15.2591  -11.1849   -2.2541 O   0  0  0  0  0  0  0  0  0  0  0  0
   17.3484  -12.6606   -2.2500 O   0  0  0  0  0  0  0  0  0  0  0  0
   13.8814  -16.0857   -2.8294 O   0  0  0  0  0  0  0  0  0  0  0  0
   17.2985  -10.8830   -6.1212 H   0  0  0  0  0  0  0  0  0  0  0  0
   14.8288   -8.8531   -1.2117 H   0  0  0  0  0  0  0  0  0  0  0  0
   15.0293   -6.3771   -1.1783 H   0  0  0  0  0  0  0  0  0  0  0  0
   16.0990   -5.1864   -3.0630 H   0  0  0  0  0  0  0  0  0  0  0  0
   16.9823   -6.4464   -5.0098 H   0  0  0  0  0  0  0  0  0  0  0  0
   16.9215  -12.8507   -5.2199 H   0  0  0  0  0  0  0  0  0  0  0  0
   15.2230  -12.8391   -4.5695 H   0  0  0  0  0  0  0  0  0  0  0  0
   15.0956  -14.4483   -4.6163 H   0  0  0  0  0  0  0  0  0  0  0  0
   15.7570  -14.8600   -2.1411 H   0  0  0  0  0  0  0  0  0  0  0  0
   17.3646  -15.2413   -2.9501 H   0  0  0  0  0  0  0  0  0  0  0  0
   15.3236  -17.3266   -3.6203 H   0  0  0  0  0  0  0  0  0  0  0  0
   13.2514  -17.6676   -4.8910 H   0  0  0  0  0  0  0  0  0  0  0  0
   13.3126  -15.9635   -5.4584 H   0  0  0  0  0  0  0  0  0  0  0  0
   15.3474  -18.1854   -6.0130 H   0  0  0  0  0  0  0  0  0  0  0  0
   14.2655  -17.3598   -7.1973 H   0  0  0  0  0  0  0  0  0  0  0  0
   16.6557  -16.5518   -7.2238 H   0  0  0  0  0  0  0  0  0  0  0  0
   15.4062  -15.2702   -6.8912 H   0  0  0  0  0  0  0  0  0  0  0  0
   17.2890  -15.0359   -5.4856 H   0  0  0  0  0  0  0  0  0  0  0  0
   17.0914  -16.6190   -4.9013 H   0  0  0  0  0  0  0  0  0  0  0  0
   14.3390  -16.2808   -1.9735 H   0  0  0  0  0  0  0  0  0  0  0  0
  1  2  2  0
  1 17  1  0
  2 19  1  0
  3  4  1  0
  3  7  2  0
  4  5  2  0
  5  6  1  0
  6 17  2  0
  7 13  1  0
  7 17  1  0
  8 10  1  0
  8 19  1  0
  9 11  1  0
  9 12  1  0
  9 18  1  0
 10 11  1  0
 10 21  2  0
 12 14  1  0
 12 22  1  0
 13 19  1  0
 13 20  2  0
 14 15  1  0
 15 16  1  0
 16 18  1  0
  2 23  1  0
  3 24  1  0
  4 25  1  0
  5 26  1  0
  6 27  1  0
  8 28  1  0
  8 29  1  0
  9 30  1  6
 11 31  1  0
 11 32  1  0
 12 33  1  1
 14 34  1  0
 14 35  1  0
 15 36  1  0
 15 37  1  0
 16 38  1  0
 16 39  1  0
 18 40  1  0
 18 41  1  0
 22 42  1  0
M  CHG  1  18   1
M  END
>  <filename_input>  (7) 
7VC5_9SF_docked.sdf

>  <pdb_id>  (7) 
7VC5_9SF

>  <pose_rank>  (7) 
6

>  <num_atoms_heavy>  (7) 
22

>  <num_torsions>  (7) 
4

>  <pose>  (7) 
[16.267733079106428, -12.545619307359104, -4.389554639110467, -1.8955079488657927, 0.9804660196247101, 2.4804465371690045, 4.109834745749878, -0.5645801283806847, 9.11127832405961, 2.6659879139682827]

>  <energy>  (7) 
-521.8458465197868

>  <inter_energy>  (7) 
-580.6258575164243

>  <intra_energy>  (7) 
67.96274806702682

>  <rmsd>  (7) 
7.47831

>  <sdf_rank>  (7) 
0

$$$$

     RDKit          3D

 42 44  0  0  0  0  0  0  0  0999 V2000
   14.8082  -17.1766   -3.8612 N   0  0  0  0  0  0  0  0  0  0  0  0
   15.5692  -16.2352   -4.2847 C   0  0  0  0  0  0  0  0  0  0  0  0
   14.3412  -15.9823   -0.3779 C   0  0  0  0  0  0  0  0  0  0  0  0
   13.4914  -16.9653    0.0972 C   0  0  0  0  0  0  0  0  0  0  0  0
   13.0984  -18.0045   -0.7226 C   0  0  0  0  0  0  0  0  0  0  0  0
   13.5484  -18.0796   -2.0309 C   0  0  0  0  0  0  0  0  0  0  0  0
   14.7930  -16.0424   -1.6962 C   0  0  0  0  0  0  0  0  0  0  0  0
   16.8938  -14.1762   -4.1750 C   0  0  0  0  0  0  0  0  0  0  0  0
   15.4497  -14.7132   -6.8127 C   0  0  2  0  0  0  0  0  0  0  0  0
   16.1220  -13.1001   -4.9315 C   0  0  0  0  0  0  0  0  0  0  0  0
   15.9708  -13.3264   -6.4155 C   0  0  0  0  0  0  0  0  0  0  0  0
   16.1287  -15.3107   -8.0402 C   0  0  2  0  0  0  0  0  0  0  0  0
   15.6586  -14.9857   -2.2265 C   0  0  0  0  0  0  0  0  0  0  0  0
   15.7019  -16.7545   -8.2366 C   0  0  0  0  0  0  0  0  0  0  0  0
   14.1824  -16.8221   -8.4030 C   0  0  0  0  0  0  0  0  0  0  0  0
   13.4862  -16.0857   -7.2615 C   0  0  0  0  0  0  0  0  0  0  0  0
   14.3988  -17.0945   -2.5305 C   0  0  0  0  0  0  0  0  0  0  0  0
   14.0014  -14.7212   -7.0690 N   0  0  0  0  0  0  0  0  0  0  0  0
   16.0146  -15.1632   -3.5586 N   0  0  0  0  0  0  0  0  0  0  0  0
   16.0427  -14.0203   -1.5904 O   0  0  0  0  0  0  0  0  0  0  0  0
   15.6454  -12.1361   -4.3706 O   0  0  0  0  0  0  0  0  0  0  0  0
   17.5466  -15.2122   -7.9094 O   0  0  0  0  0  0  0  0  0  0  0  0
   15.8960  -16.2947   -5.3334 H   0  0  0  0  0  0  0  0  0  0  0  0
   14.6582  -15.1591    0.2793 H   0  0  0  0  0  0  0  0  0  0  0  0
   13.1268  -16.9187    1.1340 H   0  0  0  0  0  0  0  0  0  0  0  0
   12.4219  -18.7797   -0.3336 H   0  0  0  0  0  0  0  0  0  0  0  0
   13.2352  -18.9152   -2.6742 H   0  0  0  0  0  0  0  0  0  0  0  0
   17.5637  -14.6912   -4.8792 H   0  0  0  0  0  0  0  0  0  0  0  0
   17.4573  -13.6810   -3.3705 H   0  0  0  0  0  0  0  0  0  0  0  0
   15.6927  -15.3306   -5.9353 H   0  0  0  0  0  0  0  0  0  0  0  0
   16.9561  -13.1857   -6.8838 H   0  0  0  0  0  0  0  0  0  0  0  0
   15.2149  -12.6052   -6.7597 H   0  0  0  0  0  0  0  0  0  0  0  0
   15.8193  -14.7425   -8.9298 H   0  0  0  0  0  0  0  0  0  0  0  0
   16.1872  -17.1606   -9.1364 H   0  0  0  0  0  0  0  0  0  0  0  0
   16.0000  -17.3464   -7.3587 H   0  0  0  0  0  0  0  0  0  0  0  0
   13.9019  -16.3558   -9.3590 H   0  0  0  0  0  0  0  0  0  0  0  0
   13.8696  -17.8766   -8.3892 H   0  0  0  0  0  0  0  0  0  0  0  0
   12.4106  -16.0276   -7.4843 H   0  0  0  0  0  0  0  0  0  0  0  0
   13.6799  -16.6478   -6.3361 H   0  0  0  0  0  0  0  0  0  0  0  0
   13.5187  -14.2932   -6.2662 H   0  0  0  0  0  0  0  0  0  0  0  0
   13.8272  -14.1892   -7.9336 H   0  0  0  0  0  0  0  0  0  0  0  0
   17.7891  -15.1954   -6.9497 H   0  0  0  0  0  0  0  0  0  0  0  0
  1  2  2  0
  1 17  1  0
  2 19  1  0
  3  4  1  0
  3  7  2  0
  4  5  2  0
  5  6  1  0
  6 17  2  0
  7 13  1  0
  7 17  1  0
  8 10  1  0
  8 19  1  0
  9 11  1  0
  9 12  1  0
  9 18  1  0
 10 11  1  0
 10 21  2  0
 12 14  1  0
 12 22  1  0
 13 19  1  0
 13 20  2  0
 14 15  1  0
 15 16  1  0
 16 18  1  0
  2 23  1  0
  3 24  1  0
  4 25  1  0
  5 26  1  0
  6 27  1  0
  8 28  1  0
  8 29  1  0
  9 30  1  1
 11 31  1  0
 11 32  1  0
 12 33  1  6
 14 34  1  0
 14 35  1  0
 15 36  1  0
 15 37  1  0
 16 38  1  0
 16 39  1  0
 18 40  1  0
 18 41  1  0
 22 42  1  0
M  CHG  1  18   1
M  END
>  <filename_input>  (8) 
7VC5_9SF_docked.sdf

>  <pdb_id>  (8) 
7VC5_9SF

>  <pose_rank>  (8) 
7

>  <num_atoms_heavy>  (8) 
22

>  <num_torsions>  (8) 
4

>  <pose>  (8) 
[16.893805252723876, -14.176226562300533, -4.174974611541263, 4.887925752095936, 3.1021814900213442, 1.8718591859742268, -2.9961729355081888, 1.1590647764196176, 3.67292282133666, 2.8284145731110426]

>  <energy>  (8) 
-531.2561925382226

>  <inter_energy>  (8) 
-552.7399201877391

>  <intra_energy>  (8) 
28.625938853849426

>  <rmsd>  (8) 
5.41007

>  <sdf_rank>  (8) 
0

$$$$

     RDKit          3D

 42 44  0  0  0  0  0  0  0  0999 V2000
   17.0775   -9.3621   -5.2447 N   0  0  0  0  0  0  0  0  0  0  0  0
   17.1420  -10.5323   -4.7239 C   0  0  0  0  0  0  0  0  0  0  0  0
   14.2460   -8.0268   -3.2505 C   0  0  0  0  0  0  0  0  0  0  0  0
   14.1748   -6.7461   -3.7690 C   0  0  0  0  0  0  0  0  0  0  0  0
   15.0418   -6.3477   -4.7670 C   0  0  0  0  0  0  0  0  0  0  0  0
   15.9942   -7.2224   -5.2646 C   0  0  0  0  0  0  0  0  0  0  0  0
   15.2070   -8.9130   -3.7370 C   0  0  0  0  0  0  0  0  0  0  0  0
   16.5188  -12.3891   -3.2509 C   0  0  0  0  0  0  0  0  0  0  0  0
   16.4643  -14.4166   -0.9934 C   0  0  2  0  0  0  0  0  0  0  0  0
   17.6445  -12.4991   -2.2277 C   0  0  0  0  0  0  0  0  0  0  0  0
   17.7742  -13.8361   -1.5409 C   0  0  0  0  0  0  0  0  0  0  0  0
   16.6271  -15.2436    0.2771 C   0  0  2  0  0  0  0  0  0  0  0  0
   15.3229  -10.2582   -3.1678 C   0  0  0  0  0  0  0  0  0  0  0  0
   15.2709  -15.6023    0.8581 C   0  0  0  0  0  0  0  0  0  0  0  0
   14.4642  -16.3937   -0.1733 C   0  0  0  0  0  0  0  0  0  0  0  0
   14.4270  -15.6518   -1.5068 C   0  0  0  0  0  0  0  0  0  0  0  0
   16.0869   -8.5145   -4.7495 C   0  0  0  0  0  0  0  0  0  0  0  0
   15.7652  -15.2595   -1.9752 N   0  0  0  0  0  0  0  0  0  0  0  0
   16.3355  -11.0249   -3.7331 N   0  0  0  0  0  0  0  0  0  0  0  0
   14.6202  -10.6952   -2.2737 O   0  0  0  0  0  0  0  0  0  0  0  0
   18.3969  -11.5761   -1.9977 O   0  0  0  0  0  0  0  0  0  0  0  0
   17.4149  -14.5273    1.2276 O   0  0  0  0  0  0  0  0  0  0  0  0
   17.9209  -11.2057   -5.1108 H   0  0  0  0  0  0  0  0  0  0  0  0
   13.5497   -8.3439   -2.4602 H   0  0  0  0  0  0  0  0  0  0  0  0
   13.4232   -6.0412   -3.3839 H   0  0  0  0  0  0  0  0  0  0  0  0
   14.9758   -5.3266   -5.1707 H   0  0  0  0  0  0  0  0  0  0  0  0
   16.6758   -6.8979   -6.0646 H   0  0  0  0  0  0  0  0  0  0  0  0
   16.7556  -13.0375   -4.1074 H   0  0  0  0  0  0  0  0  0  0  0  0
   15.5858  -12.6978   -2.7567 H   0  0  0  0  0  0  0  0  0  0  0  0
   15.8729  -13.5187   -0.7606 H   0  0  0  0  0  0  0  0  0  0  0  0
   18.4735  -13.7206   -0.6996 H   0  0  0  0  0  0  0  0  0  0  0  0
   18.1247  -14.5419   -2.3083 H   0  0  0  0  0  0  0  0  0  0  0  0
   17.1466  -16.1805    0.0275 H   0  0  0  0  0  0  0  0  0  0  0  0
   15.4098  -16.2138    1.7618 H   0  0  0  0  0  0  0  0  0  0  0  0
   14.7289  -14.6807    1.1169 H   0  0  0  0  0  0  0  0  0  0  0  0
   14.9315  -17.3787   -0.3200 H   0  0  0  0  0  0  0  0  0  0  0  0
   13.4349  -16.5135    0.1960 H   0  0  0  0  0  0  0  0  0  0  0  0
   13.9679  -16.3072   -2.2616 H   0  0  0  0  0  0  0  0  0  0  0  0
   13.8434  -14.7312   -1.3589 H   0  0  0  0  0  0  0  0  0  0  0  0
   15.6691  -14.7348   -2.8563 H   0  0  0  0  0  0  0  0  0  0  0  0
   16.3195  -16.1168   -2.1122 H   0  0  0  0  0  0  0  0  0  0  0  0
   17.1371  -14.7798    2.1437 H   0  0  0  0  0  0  0  0  0  0  0  0
  1  2  2  0
  1 17  1  0
  2 19  1  0
  3  4  1  0
  3  7  2  0
  4  5  2  0
  5  6  1  0
  6 17  2  0
  7 13  1  0
  7 17  1  0
  8 10  1  0
  8 19  1  0
  9 11  1  0
  9 12  1  0
  9 18  1  0
 10 11  1  0
 10 21  2  0
 12 14  1  0
 12 22  1  0
 13 19  1  0
 13 20  2  0
 14 15  1  0
 15 16  1  0
 16 18  1  0
  2 23  1  0
  3 24  1  0
  4 25  1  0
  5 26  1  0
  6 27  1  0
  8 28  1  0
  8 29  1  0
  9 30  1  1
 11 31  1  0
 11 32  1  0
 12 33  1  6
 14 34  1  0
 14 35  1  0
 15 36  1  0
 15 37  1  0
 16 38  1  0
 16 39  1  0
 18 40  1  0
 18 41  1  0
 22 42  1  0
M  CHG  1  18   1
M  END
>  <filename_input>  (9) 
7VC5_9SF_docked.sdf

>  <pdb_id>  (9) 
7VC5_9SF

>  <pose_rank>  (9) 
8

>  <num_atoms_heavy>  (9) 
22

>  <num_torsions>  (9) 
4

>  <pose>  (9) 
[16.518805315741634, -12.389109118459649, -3.250875386528403, -1.363708163406315, 1.5724413297206308, 3.101526875412526, 3.2264492384513064, -0.44600495150279457, 8.242070995156908, 2.6990500947381064]

>  <energy>  (9) 
-551.8428311474394

>  <inter_energy>  (9) 
-546.3536009074344

>  <intra_energy>  (9) 
12.254970561372609

>  <rmsd>  (9) 
7.35889

>  <sdf_rank>  (9) 
0

$$$$

     RDKit          3D

 42 44  0  0  0  0  0  0  0  0999 V2000
   14.2724   -9.2996   -4.0782 N   0  0  0  0  0  0  0  0  0  0  0  0
   14.5370  -10.4801   -3.6523 C   0  0  0  0  0  0  0  0  0  0  0  0
   17.4751   -7.6565   -3.1725 C   0  0  0  0  0  0  0  0  0  0  0  0
   17.2315   -6.3824   -3.6535 C   0  0  0  0  0  0  0  0  0  0  0  0
   16.0239   -6.0808   -4.2512 C   0  0  0  0  0  0  0  0  0  0  0  0
   15.0388   -7.0468   -4.3777 C   0  0  0  0  0  0  0  0  0  0  0  0
   16.4944   -8.6398   -3.3028 C   0  0  0  0  0  0  0  0  0  0  0  0
   15.8483  -12.2632   -2.6001 C   0  0  0  0  0  0  0  0  0  0  0  0
   15.2104  -15.5409   -3.1059 C   0  0  2  0  0  0  0  0  0  0  0  0
   16.1125  -13.2257   -3.7533 C   0  0  0  0  0  0  0  0  0  0  0  0
   16.4307  -14.6466   -3.3580 C   0  0  0  0  0  0  0  0  0  0  0  0
   15.0275  -15.9571   -1.6506 C   0  0  2  0  0  0  0  0  0  0  0  0
   16.7540  -10.0046   -2.8372 C   0  0  0  0  0  0  0  0  0  0  0  0
   13.6958  -16.6611   -1.4600 C   0  0  0  0  0  0  0  0  0  0  0  0
   13.6346  -17.8957   -2.3617 C   0  0  0  0  0  0  0  0  0  0  0  0
   13.9752  -17.5232   -3.8023 C   0  0  0  0  0  0  0  0  0  0  0  0
   15.2682   -8.3386   -3.9064 C   0  0  0  0  0  0  0  0  0  0  0  0
   15.2350  -16.7715   -3.9110 N   0  0  0  0  0  0  0  0  0  0  0  0
   15.6980  -10.8837   -3.0491 N   0  0  0  0  0  0  0  0  0  0  0  0
   17.7918  -10.3735   -2.3167 O   0  0  0  0  0  0  0  0  0  0  0  0
   16.0510  -12.8732   -4.9122 O   0  0  0  0  0  0  0  0  0  0  0  0
   15.1257  -14.8147   -0.8006 O   0  0  0  0  0  0  0  0  0  0  0  0
   13.7551  -11.2425   -3.7844 H   0  0  0  0  0  0  0  0  0  0  0  0
   18.4354   -7.8925   -2.6907 H   0  0  0  0  0  0  0  0  0  0  0  0
   18.0043   -5.6053   -3.5593 H   0  0  0  0  0  0  0  0  0  0  0  0
   15.8424   -5.0643   -4.6304 H   0  0  0  0  0  0  0  0  0  0  0  0
   14.0774   -6.7949   -4.8491 H   0  0  0  0  0  0  0  0  0  0  0  0
   14.9243  -12.5705   -2.0885 H   0  0  0  0  0  0  0  0  0  0  0  0
   16.7159  -12.3030   -1.9251 H   0  0  0  0  0  0  0  0  0  0  0  0
   14.3671  -14.8996   -3.4016 H   0  0  0  0  0  0  0  0  0  0  0  0
   17.0285  -14.6177   -2.4350 H   0  0  0  0  0  0  0  0  0  0  0  0
   16.9640  -15.0898   -4.2119 H   0  0  0  0  0  0  0  0  0  0  0  0
   15.8255  -16.6641   -1.3798 H   0  0  0  0  0  0  0  0  0  0  0  0
   13.5917  -16.9695   -0.4093 H   0  0  0  0  0  0  0  0  0  0  0  0
   12.8782  -15.9744   -1.7247 H   0  0  0  0  0  0  0  0  0  0  0  0
   14.3561  -18.6435   -2.0009 H   0  0  0  0  0  0  0  0  0  0  0  0
   12.6150  -18.3074   -2.3323 H   0  0  0  0  0  0  0  0  0  0  0  0
   14.0642  -18.4468   -4.3930 H   0  0  0  0  0  0  0  0  0  0  0  0
   13.1686  -16.8764   -4.1780 H   0  0  0  0  0  0  0  0  0  0  0  0
   15.3891  -16.5207   -4.8981 H   0  0  0  0  0  0  0  0  0  0  0  0
   15.9952  -17.3695   -3.5570 H   0  0  0  0  0  0  0  0  0  0  0  0
   15.1008  -15.1043    0.1457 H   0  0  0  0  0  0  0  0  0  0  0  0
  1  2  2  0
  1 17  1  0
  2 19  1  0
  3  4  1  0
  3  7  2  0
  4  5  2  0
  5  6  1  0
  6 17  2  0
  7 13  1  0
  7 17  1  0
  8 10  1  0
  8 19  1  0
  9 11  1  0
  9 12  1  0
  9 18  1  0
 10 11  1  0
 10 21  2  0
 12 14  1  0
 12 22  1  0
 13 19  1  0
 13 20  2  0
 14 15  1  0
 15 16  1  0
 16 18  1  0
  2 23  1  0
  3 24  1  0
  4 25  1  0
  5 26  1  0
  6 27  1  0
  8 28  1  0
  8 29  1  0
  9 30  1  6
 11 31  1  0
 11 32  1  0
 12 33  1  1
 14 34  1  0
 14 35  1  0
 15 36  1  0
 15 37  1  0
 16 38  1  0
 16 39  1  0
 18 40  1  0
 18 41  1  0
 22 42  1  0
M  CHG  1  18   1
M  END
>  <filename_input>  (10) 
7VC5_9SF_docked.sdf

>  <pdb_id>  (10) 
7VC5_9SF

>  <pose_rank>  (10) 
9

>  <num_atoms_heavy>  (10) 
22

>  <num_torsions>  (10) 
4

>  <pose>  (10) 
[15.848251308375673, -12.263178581573074, -2.600120131891806, -1.6890423393520313, -0.3401510051813941, -1.9168214607860115, -15.721021593090203, -0.41864157593197693, 4.270097455438316, -2.9651676945298915]

>  <energy>  (10) 
-494.8973833193794

>  <inter_energy>  (10) 
-511.5102718271167

>  <intra_energy>  (10) 
12.533316873664672

>  <rmsd>  (10) 
7.64434

>  <sdf_rank>  (10) 
0

$$$$

     RDKit          3D

 42 44  0  0  0  0  0  0  0  0999 V2000
   15.6416  -14.4035   -1.7497 N   0  0  0  0  0  0  0  0  0  0  0  0
   16.2042  -14.2804   -2.8957 C   0  0  0  0  0  0  0  0  0  0  0  0
   13.9937  -17.6845   -2.2948 C   0  0  0  0  0  0  0  0  0  0  0  0
   13.4034  -17.8613   -1.0561 C   0  0  0  0  0  0  0  0  0  0  0  0
   13.5430  -16.9021   -0.0728 C   0  0  0  0  0  0  0  0  0  0  0  0
   14.2741  -15.7494   -0.3107 C   0  0  0  0  0  0  0  0  0  0  0  0
   14.7400  -16.5324   -2.5426 C   0  0  0  0  0  0  0  0  0  0  0  0
   16.8149  -14.8832   -5.1912 C   0  0  0  0  0  0  0  0  0  0  0  0
   15.6412  -15.5447   -8.0358 C   0  0  2  0  0  0  0  0  0  0  0  0
   16.0258  -13.9268   -6.0794 C   0  0  0  0  0  0  0  0  0  0  0  0
   15.0348  -14.5728   -7.0158 C   0  0  0  0  0  0  0  0  0  0  0  0
   15.2342  -17.0002   -7.8343 C   0  0  2  0  0  0  0  0  0  0  0  0
   15.4068  -16.3511   -3.8347 C   0  0  0  0  0  0  0  0  0  0  0  0
   15.7079  -17.8529   -8.9979 C   0  0  0  0  0  0  0  0  0  0  0  0
   17.2298  -17.7545   -9.1198 C   0  0  0  0  0  0  0  0  0  0  0  0
   17.6697  -16.2933   -9.1605 C   0  0  0  0  0  0  0  0  0  0  0  0
   14.8831  -15.5566   -1.5498 C   0  0  0  0  0  0  0  0  0  0  0  0
   17.1112  -15.5019   -8.0533 N   0  0  0  0  0  0  0  0  0  0  0  0
   16.1314  -15.1689   -3.9349 N   0  0  0  0  0  0  0  0  0  0  0  0
   15.3605  -17.1469   -4.7560 O   0  0  0  0  0  0  0  0  0  0  0  0
   16.1737  -12.7244   -6.0205 O   0  0  0  0  0  0  0  0  0  0  0  0
   13.8186  -17.0936   -7.6777 O   0  0  0  0  0  0  0  0  0  0  0  0
   16.8034  -13.3726   -3.0596 H   0  0  0  0  0  0  0  0  0  0  0  0
   13.8753  -18.4470   -3.0787 H   0  0  0  0  0  0  0  0  0  0  0  0
   12.8196  -18.7713   -0.8534 H   0  0  0  0  0  0  0  0  0  0  0  0
   13.0696  -17.0544    0.9083 H   0  0  0  0  0  0  0  0  0  0  0  0
   14.3738  -14.9878    0.4767 H   0  0  0  0  0  0  0  0  0  0  0  0
   16.9641  -15.8278   -5.7347 H   0  0  0  0  0  0  0  0  0  0  0  0
   17.7734  -14.4011   -4.9488 H   0  0  0  0  0  0  0  0  0  0  0  0
   15.2304  -15.1892   -8.9923 H   0  0  0  0  0  0  0  0  0  0  0  0
   14.5197  -13.7746   -7.5703 H   0  0  0  0  0  0  0  0  0  0  0  0
   14.3624  -15.1720   -6.3843 H   0  0  0  0  0  0  0  0  0  0  0  0
   15.7130  -17.3801   -6.9198 H   0  0  0  0  0  0  0  0  0  0  0  0
   15.4214  -18.9007   -8.8244 H   0  0  0  0  0  0  0  0  0  0  0  0
   15.2428  -17.4933   -9.9276 H   0  0  0  0  0  0  0  0  0  0  0  0
   17.6950  -18.2486   -8.2541 H   0  0  0  0  0  0  0  0  0  0  0  0
   17.5446  -18.2468  -10.0518 H   0  0  0  0  0  0  0  0  0  0  0  0
   18.7674  -16.2544   -9.1023 H   0  0  0  0  0  0  0  0  0  0  0  0
   17.2967  -15.8599  -10.1002 H   0  0  0  0  0  0  0  0  0  0  0  0
   17.4147  -14.5232   -8.1573 H   0  0  0  0  0  0  0  0  0  0  0  0
   17.4529  -15.9045   -7.1689 H   0  0  0  0  0  0  0  0  0  0  0  0
   13.5935  -17.1084   -6.7138 H   0  0  0  0  0  0  0  0  0  0  0  0
  1  2  2  0
  1 17  1  0
  2 19  1  0
  3  4  1  0
  3  7  2  0
  4  5  2  0
  5  6  1  0
  6 17  2  0
  7 13  1  0
  7 17  1  0
  8 10  1  0
  8 19  1  0
  9 11  1  0
  9 12  1  0
  9 18  1  0
 10 11  1  0
 10 21  2  0
 12 14  1  0
 12 22  1  0
 13 19  1  0
 13 20  2  0
 14 15  1  0
 15 16  1  0
 16 18  1  0
  2 23  1  0
  3 24  1  0
  4 25  1  0
  5 26  1  0
  6 27  1  0
  8 28  1  0
  8 29  1  0
  9 30  1  6
 11 31  1  0
 11 32  1  0
 12 33  1  1
 14 34  1  0
 14 35  1  0
 15 36  1  0
 15 37  1  0
 16 38  1  0
 16 39  1  0
 18 40  1  0
 18 41  1  0
 22 42  1  0
M  CHG  1  18   1
M  END
>  <filename_input>  (11) 
7VC5_9SF_docked.sdf

>  <pdb_id>  (11) 
7VC5_9SF

>  <pose_rank>  (11) 
10

>  <num_atoms_heavy>  (11) 
22

>  <num_torsions>  (11) 
4

>  <pose>  (11) 
[16.81486307463563, -14.88316368778241, -5.191217192357875, -0.6313616171396366, 0.336079599655682, -0.32709781142791783, 6.674662794612237, -11.27415771066196, -4.549490733707397, 0.9657714146808973]

>  <energy>  (11) 
-475.38221919159247

>  <inter_energy>  (11) 
-510.7105584838738

>  <intra_energy>  (11) 
27.324101834080526

>  <rmsd>  (11) 
6.13777

>  <sdf_rank>  (11) 
0

$$$$

     RDKit          3D

 42 44  0  0  0  0  0  0  0  0999 V2000
   13.8049  -18.2417   -3.4189 N   0  0  0  0  0  0  0  0  0  0  0  0
   14.3112  -17.8439   -4.5281 C   0  0  0  0  0  0  0  0  0  0  0  0
   14.8488  -15.3912   -1.2830 C   0  0  0  0  0  0  0  0  0  0  0  0
   14.2842  -15.7775   -0.0805 C   0  0  0  0  0  0  0  0  0  0  0  0
   13.5863  -16.9651    0.0135 C   0  0  0  0  0  0  0  0  0  0  0  0
   13.4413  -17.7874   -1.0922 C   0  0  0  0  0  0  0  0  0  0  0  0
   14.7013  -16.2064   -2.4052 C   0  0  0  0  0  0  0  0  0  0  0  0
   15.5484  -16.3759   -6.0513 C   0  0  0  0  0  0  0  0  0  0  0  0
   17.6089  -17.3807   -8.6808 C   0  0  2  0  0  0  0  0  0  0  0  0
   16.9721  -16.8884   -6.2426 C   0  0  0  0  0  0  0  0  0  0  0  0
   17.6743  -16.4149   -7.4911 C   0  0  0  0  0  0  0  0  0  0  0  0
   16.3488  -17.2472   -9.5288 C   0  0  2  0  0  0  0  0  0  0  0  0
   15.2566  -15.7899   -3.6956 C   0  0  0  0  0  0  0  0  0  0  0  0
   16.4616  -18.0873  -10.7885 C   0  0  0  0  0  0  0  0  0  0  0  0
   16.6757  -19.5541  -10.4094 C   0  0  0  0  0  0  0  0  0  0  0  0
   17.8382  -19.6888   -9.4293 C   0  0  0  0  0  0  0  0  0  0  0  0
   13.9962  -17.4117   -2.3146 C   0  0  0  0  0  0  0  0  0  0  0  0
   17.7113  -18.7897   -8.2718 N   0  0  0  0  0  0  0  0  0  0  0  0
   15.0168  -16.6879   -4.7295 N   0  0  0  0  0  0  0  0  0  0  0  0
   15.8691  -14.7539   -3.8845 O   0  0  0  0  0  0  0  0  0  0  0  0
   17.5088  -17.6138   -5.4321 O   0  0  0  0  0  0  0  0  0  0  0  0
   16.1205  -15.8754   -9.8504 O   0  0  0  0  0  0  0  0  0  0  0  0
   14.1643  -18.4946   -5.4027 H   0  0  0  0  0  0  0  0  0  0  0  0
   15.4102  -14.4478   -1.3536 H   0  0  0  0  0  0  0  0  0  0  0  0
   14.3919  -15.1348    0.8057 H   0  0  0  0  0  0  0  0  0  0  0  0
   13.1413  -17.2611    0.9750 H   0  0  0  0  0  0  0  0  0  0  0  0
   12.8894  -18.7350   -1.0055 H   0  0  0  0  0  0  0  0  0  0  0  0
   15.5454  -15.2840   -6.1843 H   0  0  0  0  0  0  0  0  0  0  0  0
   14.9101  -16.8749   -6.7952 H   0  0  0  0  0  0  0  0  0  0  0  0
   18.4788  -17.0875   -9.2869 H   0  0  0  0  0  0  0  0  0  0  0  0
   18.7334  -16.2495   -7.2443 H   0  0  0  0  0  0  0  0  0  0  0  0
   17.1506  -15.5013   -7.8092 H   0  0  0  0  0  0  0  0  0  0  0  0
   15.4899  -17.6184   -8.9505 H   0  0  0  0  0  0  0  0  0  0  0  0
   15.5365  -17.9923  -11.3760 H   0  0  0  0  0  0  0  0  0  0  0  0
   17.3152  -17.7361  -11.3868 H   0  0  0  0  0  0  0  0  0  0  0  0
   15.7601  -19.9442   -9.9408 H   0  0  0  0  0  0  0  0  0  0  0  0
   16.9095  -20.1262  -11.3193 H   0  0  0  0  0  0  0  0  0  0  0  0
   17.8743  -20.7266   -9.0666 H   0  0  0  0  0  0  0  0  0  0  0  0
   18.7585  -19.4132   -9.9651 H   0  0  0  0  0  0  0  0  0  0  0  0
   18.5397  -18.9025   -7.6702 H   0  0  0  0  0  0  0  0  0  0  0  0
   16.8490  -19.0391   -7.7668 H   0  0  0  0  0  0  0  0  0  0  0  0
   16.0332  -15.3509   -9.0153 H   0  0  0  0  0  0  0  0  0  0  0  0
  1  2  2  0
  1 17  1  0
  2 19  1  0
  3  4  1  0
  3  7  2  0
  4  5  2  0
  5  6  1  0
  6 17  2  0
  7 13  1  0
  7 17  1  0
  8 10  1  0
  8 19  1  0
  9 11  1  0
  9 12  1  0
  9 18  1  0
 10 11  1  0
 10 21  2  0
 12 14  1  0
 12 22  1  0
 13 19  1  0
 13 20  2  0
 14 15  1  0
 15 16  1  0
 16 18  1  0
  2 23  1  0
  3 24  1  0
  4 25  1  0
  5 26  1  0
  6 27  1  0
  8 28  1  0
  8 29  1  0
  9 30  1  6
 11 31  1  0
 11 32  1  0
 12 33  1  1
 14 34  1  0
 14 35  1  0
 15 36  1  0
 15 37  1  0
 16 38  1  0
 16 39  1  0
 18 40  1  0
 18 41  1  0
 22 42  1  0
M  CHG  1  18   1
M  END
>  <filename_input>  (12) 
7VC5_9SF_docked.sdf

>  <pdb_id>  (12) 
7VC5_9SF

>  <pose_rank>  (12) 
11

>  <num_atoms_heavy>  (12) 
22

>  <num_torsions>  (12) 
4

>  <pose>  (12) 
[15.548401730432897, -16.375893395796133, -6.051286925428305, -1.5063637653489141, -1.7300467680608431, 2.212083347268312, 0.1991423065628028, -0.13798529692436562, 7.402328766974882, -5.812196318603749]

>  <energy>  (12) 
-473.971297319267

>  <inter_energy>  (12) 
-462.18420228128286

>  <intra_energy>  (12) 
11.047186852476411

>  <rmsd>  (12) 
7.57764

>  <sdf_rank>  (12) 
0

$$$$

     RDKit          3D

 42 44  0  0  0  0  0  0  0  0999 V2000
   15.8703  -14.5896   -2.8955 N   0  0  0  0  0  0  0  0  0  0  0  0
   15.9461  -15.0509   -4.0898 C   0  0  0  0  0  0  0  0  0  0  0  0
   13.6935  -17.2139   -1.4285 C   0  0  0  0  0  0  0  0  0  0  0  0
   13.6216  -16.7594   -0.1238 C   0  0  0  0  0  0  0  0  0  0  0  0
   14.2726  -15.6000    0.2486 C   0  0  0  0  0  0  0  0  0  0  0  0
   15.0059  -14.8747   -0.6765 C   0  0  0  0  0  0  0  0  0  0  0  0
   14.4367  -16.4970   -2.3663 C   0  0  0  0  0  0  0  0  0  0  0  0
   15.5088  -16.5782   -5.9558 C   0  0  0  0  0  0  0  0  0  0  0  0
   18.3720  -18.7229   -7.1548 C   0  0  2  0  0  0  0  0  0  0  0  0
   16.9748  -16.7246   -6.3504 C   0  0  0  0  0  0  0  0  0  0  0  0
   17.6151  -18.0463   -6.0051 C   0  0  0  0  0  0  0  0  0  0  0  0
   17.8410  -20.1022   -7.5298 C   0  0  2  0  0  0  0  0  0  0  0  0
   14.5577  -16.9890   -3.7412 C   0  0  0  0  0  0  0  0  0  0  0  0
   18.5082  -20.6045   -8.7978 C   0  0  0  0  0  0  0  0  0  0  0  0
   20.0222  -20.6737   -8.5879 C   0  0  0  0  0  0  0  0  0  0  0  0
   20.5497  -19.3435   -8.0563 C   0  0  0  0  0  0  0  0  0  0  0  0
   15.0970  -15.3206   -1.9942 C   0  0  0  0  0  0  0  0  0  0  0  0
   19.8087  -18.8702   -6.8769 N   0  0  0  0  0  0  0  0  0  0  0  0
   15.3438  -16.1868   -4.5605 N   0  0  0  0  0  0  0  0  0  0  0  0
   14.0392  -18.0085   -4.1605 O   0  0  0  0  0  0  0  0  0  0  0  0
   17.5782  -15.8412   -6.9219 O   0  0  0  0  0  0  0  0  0  0  0  0
   16.4231  -20.0530   -7.6856 O   0  0  0  0  0  0  0  0  0  0  0  0
   16.5542  -14.4782   -4.8056 H   0  0  0  0  0  0  0  0  0  0  0  0
   13.1684  -18.1341   -1.7242 H   0  0  0  0  0  0  0  0  0  0  0  0
   13.0424  -17.3247    0.6211 H   0  0  0  0  0  0  0  0  0  0  0  0
   14.2084  -15.2491    1.2891 H   0  0  0  0  0  0  0  0  0  0  0  0
   15.5152  -13.9486   -0.3718 H   0  0  0  0  0  0  0  0  0  0  0  0
   15.0462  -15.8114   -6.5946 H   0  0  0  0  0  0  0  0  0  0  0  0
   15.0270  -17.5582   -6.0879 H   0  0  0  0  0  0  0  0  0  0  0  0
   18.2075  -18.0365   -7.9985 H   0  0  0  0  0  0  0  0  0  0  0  0
   16.8227  -18.7313   -5.6692 H   0  0  0  0  0  0  0  0  0  0  0  0
   18.3651  -17.8301   -5.2301 H   0  0  0  0  0  0  0  0  0  0  0  0
   18.0795  -20.8074   -6.7199 H   0  0  0  0  0  0  0  0  0  0  0  0
   18.1260  -21.6070   -9.0402 H   0  0  0  0  0  0  0  0  0  0  0  0
   18.2851  -19.9154   -9.6257 H   0  0  0  0  0  0  0  0  0  0  0  0
   20.2513  -21.4694   -7.8638 H   0  0  0  0  0  0  0  0  0  0  0  0
   20.5056  -20.8880   -9.5525 H   0  0  0  0  0  0  0  0  0  0  0  0
   21.6072  -19.4691   -7.7806 H   0  0  0  0  0  0  0  0  0  0  0  0
   20.4231  -18.5940   -8.8513 H   0  0  0  0  0  0  0  0  0  0  0  0
   20.1878  -17.9565   -6.5900 H   0  0  0  0  0  0  0  0  0  0  0  0
   19.9192  -19.5693   -6.1286 H   0  0  0  0  0  0  0  0  0  0  0  0
   15.9934  -20.0381   -6.7938 H   0  0  0  0  0  0  0  0  0  0  0  0
  1  2  2  0
  1 17  1  0
  2 19  1  0
  3  4  1  0
  3  7  2  0
  4  5  2  0
  5  6  1  0
  6 17  2  0
  7 13  1  0
  7 17  1  0
  8 10  1  0
  8 19  1  0
  9 11  1  0
  9 12  1  0
  9 18  1  0
 10 11  1  0
 10 21  2  0
 12 14  1  0
 12 22  1  0
 13 19  1  0
 13 20  2  0
 14 15  1  0
 15 16  1  0
 16 18  1  0
  2 23  1  0
  3 24  1  0
  4 25  1  0
  5 26  1  0
  6 27  1  0
  8 28  1  0
  8 29  1  0
  9 30  1  6
 11 31  1  0
 11 32  1  0
 12 33  1  1
 14 34  1  0
 14 35  1  0
 15 36  1  0
 15 37  1  0
 16 38  1  0
 16 39  1  0
 18 40  1  0
 18 41  1  0
 22 42  1  0
M  CHG  1  18   1
M  END
>  <filename_input>  (13) 
7VC5_9SF_docked.sdf

>  <pdb_id>  (13) 
7VC5_9SF

>  <pose_rank>  (13) 
12

>  <num_atoms_heavy>  (13) 
22

>  <num_torsions>  (13) 
4

>  <pose>  (13) 
[15.508833789144363, -16.578162148440118, -5.955776385213292, 0.6894672991039693, 1.0954208725312158, -2.395763290470148, 2.7790828943378063, -1.9979073438386197, -1.215874410251369, -3.1089468330931433]

>  <energy>  (13) 
-463.59048851759627

>  <inter_energy>  (13) 
-454.8607966798585

>  <intra_energy>  (13) 
1.6867166440306942

>  <rmsd>  (13) 
8.11344

>  <sdf_rank>  (13) 
0

$$$$

     RDKit          3D

 42 44  0  0  0  0  0  0  0  0999 V2000
   13.9208  -18.2434   -3.4552 N   0  0  0  0  0  0  0  0  0  0  0  0
   14.2737  -17.8438   -4.6217 C   0  0  0  0  0  0  0  0  0  0  0  0
   14.6305  -15.1273   -1.5675 C   0  0  0  0  0  0  0  0  0  0  0  0
   14.2249  -15.5187   -0.3040 C   0  0  0  0  0  0  0  0  0  0  0  0
   13.7410  -16.7940   -0.0898 C   0  0  0  0  0  0  0  0  0  0  0  0
   13.6548  -17.7003   -1.1343 C   0  0  0  0  0  0  0  0  0  0  0  0
   14.5394  -16.0281   -2.6286 C   0  0  0  0  0  0  0  0  0  0  0  0
   15.1394  -16.3006   -6.3172 C   0  0  0  0  0  0  0  0  0  0  0  0
   18.2145  -17.1447   -7.4404 C   0  0  2  0  0  0  0  0  0  0  0  0
   15.7037  -17.5137   -7.0494 C   0  0  0  0  0  0  0  0  0  0  0  0
   16.8048  -17.2248   -8.0395 C   0  0  0  0  0  0  0  0  0  0  0  0
   19.3377  -17.1939   -8.4704 C   0  0  2  0  0  0  0  0  0  0  0  0
   14.9244  -15.6143   -3.9805 C   0  0  0  0  0  0  0  0  0  0  0  0
   20.6761  -16.9036   -7.8150 C   0  0  0  0  0  0  0  0  0  0  0  0
   20.9411  -17.9312   -6.7127 C   0  0  0  0  0  0  0  0  0  0  0  0
   19.7517  -18.0114   -5.7593 C   0  0  0  0  0  0  0  0  0  0  0  0
   14.0511  -17.3222   -2.4163 C   0  0  0  0  0  0  0  0  0  0  0  0
   18.4744  -18.2111   -6.4614 N   0  0  0  0  0  0  0  0  0  0  0  0
   14.7626  -16.6056   -4.9417 N   0  0  0  0  0  0  0  0  0  0  0  0
   15.3425  -14.5083   -4.2739 O   0  0  0  0  0  0  0  0  0  0  0  0
   15.3045  -18.6384   -6.8332 O   0  0  0  0  0  0  0  0  0  0  0  0
   19.0746  -16.2669   -9.5233 O   0  0  0  0  0  0  0  0  0  0  0  0
   14.1738  -18.5662   -5.4453 H   0  0  0  0  0  0  0  0  0  0  0  0
   15.0220  -14.1129   -1.7341 H   0  0  0  0  0  0  0  0  0  0  0  0
   14.2884  -14.8098    0.5348 H   0  0  0  0  0  0  0  0  0  0  0  0
   13.4210  -17.0932    0.9192 H   0  0  0  0  0  0  0  0  0  0  0  0
   13.2745  -18.7162   -0.9523 H   0  0  0  0  0  0  0  0  0  0  0  0
   15.9022  -15.5081   -6.3069 H   0  0  0  0  0  0  0  0  0  0  0  0
   14.2318  -15.9804   -6.8498 H   0  0  0  0  0  0  0  0  0  0  0  0
   18.2215  -16.1588   -6.9526 H   0  0  0  0  0  0  0  0  0  0  0  0
   16.5846  -16.2613   -8.5224 H   0  0  0  0  0  0  0  0  0  0  0  0
   16.8174  -18.0731   -8.7396 H   0  0  0  0  0  0  0  0  0  0  0  0
   19.3833  -18.2060   -8.8989 H   0  0  0  0  0  0  0  0  0  0  0  0
   21.4740  -16.9625   -8.5699 H   0  0  0  0  0  0  0  0  0  0  0  0
   20.6575  -15.8947   -7.3771 H   0  0  0  0  0  0  0  0  0  0  0  0
   21.1057  -18.9180   -7.1699 H   0  0  0  0  0  0  0  0  0  0  0  0
   21.8316  -17.6227   -6.1454 H   0  0  0  0  0  0  0  0  0  0  0  0
   19.9096  -18.8536   -5.0695 H   0  0  0  0  0  0  0  0  0  0  0  0
   19.6901  -17.0529   -5.2232 H   0  0  0  0  0  0  0  0  0  0  0  0
   17.7118  -18.2207   -5.7691 H   0  0  0  0  0  0  0  0  0  0  0  0
   18.5258  -19.1055   -6.9695 H   0  0  0  0  0  0  0  0  0  0  0  0
   18.8259  -15.3901   -9.1366 H   0  0  0  0  0  0  0  0  0  0  0  0
  1  2  2  0
  1 17  1  0
  2 19  1  0
  3  4  1  0
  3  7  2  0
  4  5  2  0
  5  6  1  0
  6 17  2  0
  7 13  1  0
  7 17  1  0
  8 10  1  0
  8 19  1  0
  9 11  1  0
  9 12  1  0
  9 18  1  0
 10 11  1  0
 10 21  2  0
 12 14  1  0
 12 22  1  0
 13 19  1  0
 13 20  2  0
 14 15  1  0
 15 16  1  0
 16 18  1  0
  2 23  1  0
  3 24  1  0
  4 25  1  0
  5 26  1  0
  6 27  1  0
  8 28  1  0
  8 29  1  0
  9 30  1  1
 11 31  1  0
 11 32  1  0
 12 33  1  6
 14 34  1  0
 14 35  1  0
 15 36  1  0
 15 37  1  0
 16 38  1  0
 16 39  1  0
 18 40  1  0
 18 41  1  0
 22 42  1  0
M  CHG  1  18   1
M  END
>  <filename_input>  (14) 
7VC5_9SF_docked.sdf

>  <pdb_id>  (14) 
7VC5_9SF

>  <pose_rank>  (14) 
13

>  <num_atoms_heavy>  (14) 
22

>  <num_torsions>  (14) 
4

>  <pose>  (14) 
[15.139382183890792, -16.30059553260786, -6.317213475592272, 2.2806776511508358, 1.703497969901125, -2.68307659441547, 1.2155373056211907, 0.30594971160867956, -2.006700738724376, 1.8812381049007563]

>  <energy>  (14) 
-452.50156403835695

>  <inter_energy>  (14) 
-459.0658049174837

>  <intra_energy>  (14) 
34.42041487644766

>  <rmsd>  (14) 
7.31113

>  <sdf_rank>  (14) 
0

$$$$

     RDKit          3D

 42 44  0  0  0  0  0  0  0  0999 V2000
   16.9132   -9.8846   -5.2111 N   0  0  0  0  0  0  0  0  0  0  0  0
   16.7626  -11.0995   -4.8285 C   0  0  0  0  0  0  0  0  0  0  0  0
   15.2934   -8.1950   -2.3303 C   0  0  0  0  0  0  0  0  0  0  0  0
   15.4720   -6.8738   -2.7001 C   0  0  0  0  0  0  0  0  0  0  0  0
   16.1045   -6.5603   -3.8867 C   0  0  0  0  0  0  0  0  0  0  0  0
   16.5686   -7.5615   -4.7245 C   0  0  0  0  0  0  0  0  0  0  0  0
   15.7650   -9.2112   -3.1612 C   0  0  0  0  0  0  0  0  0  0  0  0
   16.0428  -12.9415   -3.3812 C   0  0  0  0  0  0  0  0  0  0  0  0
   15.4675  -16.2667   -5.0445 C   0  0  2  0  0  0  0  0  0  0  0  0
   16.0525  -13.7991   -4.6424 C   0  0  0  0  0  0  0  0  0  0  0  0
   16.4415  -15.2436   -4.4468 C   0  0  0  0  0  0  0  0  0  0  0  0
   14.8359  -17.2039   -4.0210 C   0  0  2  0  0  0  0  0  0  0  0  0
   15.6218  -10.6139   -2.7625 C   0  0  0  0  0  0  0  0  0  0  0  0
   13.7418  -18.0374   -4.6642 C   0  0  0  0  0  0  0  0  0  0  0  0
   14.3294  -18.8531   -5.8176 C   0  0  0  0  0  0  0  0  0  0  0  0
   15.1060  -17.9485   -6.7710 C   0  0  0  0  0  0  0  0  0  0  0  0
   16.4053   -8.8986   -4.3656 C   0  0  0  0  0  0  0  0  0  0  0  0
   16.0930  -17.1071   -6.0768 N   0  0  0  0  0  0  0  0  0  0  0  0
   16.1546  -11.5173   -3.6750 N   0  0  0  0  0  0  0  0  0  0  0  0
   15.0984  -10.9904   -1.7288 O   0  0  0  0  0  0  0  0  0  0  0  0
   15.7479  -13.3506   -5.7274 O   0  0  0  0  0  0  0  0  0  0  0  0
   14.3231  -16.4514   -2.9219 O   0  0  0  0  0  0  0  0  0  0  0  0
   17.1605  -11.8818   -5.4915 H   0  0  0  0  0  0  0  0  0  0  0  0
   14.7832   -8.4422   -1.3877 H   0  0  0  0  0  0  0  0  0  0  0  0
   15.1080   -6.0686   -2.0451 H   0  0  0  0  0  0  0  0  0  0  0  0
   16.2412   -5.5061   -4.1695 H   0  0  0  0  0  0  0  0  0  0  0  0
   17.0651   -7.3018   -5.6711 H   0  0  0  0  0  0  0  0  0  0  0  0
   15.1006  -13.1177   -2.8416 H   0  0  0  0  0  0  0  0  0  0  0  0
   16.9149  -13.2278   -2.7749 H   0  0  0  0  0  0  0  0  0  0  0  0
   14.6806  -15.6345   -5.4818 H   0  0  0  0  0  0  0  0  0  0  0  0
   16.5141  -15.4335   -3.3657 H   0  0  0  0  0  0  0  0  0  0  0  0
   17.3937  -15.3792   -4.9805 H   0  0  0  0  0  0  0  0  0  0  0  0
   15.6076  -17.8914   -3.6444 H   0  0  0  0  0  0  0  0  0  0  0  0
   13.3126  -18.7191   -3.9151 H   0  0  0  0  0  0  0  0  0  0  0  0
   12.9552  -17.3725   -5.0504 H   0  0  0  0  0  0  0  0  0  0  0  0
   15.0076  -19.6180   -5.4114 H   0  0  0  0  0  0  0  0  0  0  0  0
   13.5072  -19.3305   -6.3708 H   0  0  0  0  0  0  0  0  0  0  0  0
   15.6330  -18.5783   -7.5029 H   0  0  0  0  0  0  0  0  0  0  0  0
   14.3818  -17.2788   -7.2578 H   0  0  0  0  0  0  0  0  0  0  0  0
   16.5555  -16.4981   -6.7669 H   0  0  0  0  0  0  0  0  0  0  0  0
   16.7729  -17.7276   -5.6147 H   0  0  0  0  0  0  0  0  0  0  0  0
   14.6093  -16.8714   -2.0723 H   0  0  0  0  0  0  0  0  0  0  0  0
  1  2  2  0
  1 17  1  0
  2 19  1  0
  3  4  1  0
  3  7  2  0
  4  5  2  0
  5  6  1  0
  6 17  2  0
  7 13  1  0
  7 17  1  0
  8 10  1  0
  8 19  1  0
  9 11  1  0
  9 12  1  0
  9 18  1  0
 10 11  1  0
 10 21  2  0
 12 14  1  0
 12 22  1  0
 13 19  1  0
 13 20  2  0
 14 15  1  0
 15 16  1  0
 16 18  1  0
  2 23  1  0
  3 24  1  0
  4 25  1  0
  5 26  1  0
  6 27  1  0
  8 28  1  0
  8 29  1  0
  9 30  1  6
 11 31  1  0
 11 32  1  0
 12 33  1  1
 14 34  1  0
 14 35  1  0
 15 36  1  0
 15 37  1  0
 16 38  1  0
 16 39  1  0
 18 40  1  0
 18 41  1  0
 22 42  1  0
M  CHG  1  18   1
M  END
>  <filename_input>  (15) 
7VC5_9SF_docked.sdf

>  <pdb_id>  (15) 
7VC5_9SF

>  <pose_rank>  (15) 
14

>  <num_atoms_heavy>  (15) 
22

>  <num_torsions>  (15) 
4

>  <pose>  (15) 
[16.042827512077803, -12.941494498613256, -3.381206487215969, -1.7581358239734737, -0.04257994410837025, -1.9840945478111034, -17.500366009835815, -0.6780034263186907, 5.039834895483977, -3.081594171675135]

>  <energy>  (15) 
-541.7982682309338

>  <inter_energy>  (15) 
-557.1190813530212

>  <intra_energy>  (15) 
28.354194515597356

>  <rmsd>  (15) 
7.82299

>  <sdf_rank>  (15) 
0

$$$$

     RDKit          3D

 42 44  0  0  0  0  0  0  0  0999 V2000
   14.6999  -16.7578   -1.4606 N   0  0  0  0  0  0  0  0  0  0  0  0
   15.2710  -16.0306   -0.5719 C   0  0  0  0  0  0  0  0  0  0  0  0
   15.9136  -14.9840   -4.4868 C   0  0  0  0  0  0  0  0  0  0  0  0
   15.3385  -15.7708   -5.4688 C   0  0  0  0  0  0  0  0  0  0  0  0
   14.5561  -16.8554   -5.1252 C   0  0  0  0  0  0  0  0  0  0  0  0
   14.3343  -17.1717   -3.7946 C   0  0  0  0  0  0  0  0  0  0  0  0
   15.7050  -15.2985   -3.1440 C   0  0  0  0  0  0  0  0  0  0  0  0
   16.6344  -14.1975    0.3150 C   0  0  0  0  0  0  0  0  0  0  0  0
   18.7179  -13.7467    2.1868 C   0  0  2  0  0  0  0  0  0  0  0  0
   16.5204  -14.9543    1.6342 C   0  0  0  0  0  0  0  0  0  0  0  0
   17.7083  -14.8404    2.5572 C   0  0  0  0  0  0  0  0  0  0  0  0
   20.1343  -14.0043    2.6891 C   0  0  2  0  0  0  0  0  0  0  0  0
   16.3427  -14.5003   -2.0935 C   0  0  0  0  0  0  0  0  0  0  0  0
   21.1002  -12.9873    2.1074 C   0  0  0  0  0  0  0  0  0  0  0  0
   20.6602  -11.5767    2.5043 C   0  0  0  0  0  0  0  0  0  0  0  0
   19.1911  -11.3561    2.1532 C   0  0  0  0  0  0  0  0  0  0  0  0
   14.9116  -16.3957   -2.7906 C   0  0  0  0  0  0  0  0  0  0  0  0
   18.3175  -12.4184    2.6751 N   0  0  0  0  0  0  0  0  0  0  0  0
   16.0646  -14.9393   -0.8040 N   0  0  0  0  0  0  0  0  0  0  0  0
   17.0644  -13.5398   -2.2949 O   0  0  0  0  0  0  0  0  0  0  0  0
   15.5297  -15.5896    1.9275 O   0  0  0  0  0  0  0  0  0  0  0  0
   20.5347  -15.3338    2.3585 O   0  0  0  0  0  0  0  0  0  0  0  0
   15.1073  -16.3109    0.4791 H   0  0  0  0  0  0  0  0  0  0  0  0
   16.5309  -14.1165   -4.7631 H   0  0  0  0  0  0  0  0  0  0  0  0
   15.5055  -15.5310   -6.5293 H   0  0  0  0  0  0  0  0  0  0  0  0
   14.1048  -17.4739   -5.9150 H   0  0  0  0  0  0  0  0  0  0  0  0
   13.7038  -18.0337   -3.5309 H   0  0  0  0  0  0  0  0  0  0  0  0
   16.1028  -13.2393    0.4106 H   0  0  0  0  0  0  0  0  0  0  0  0
   17.7040  -14.0467    0.1068 H   0  0  0  0  0  0  0  0  0  0  0  0
   18.7198  -13.7725    1.0871 H   0  0  0  0  0  0  0  0  0  0  0  0
   18.2356  -15.8058    2.5546 H   0  0  0  0  0  0  0  0  0  0  0  0
   17.3051  -14.5639    3.5425 H   0  0  0  0  0  0  0  0  0  0  0  0
   20.1486  -13.8967    3.7837 H   0  0  0  0  0  0  0  0  0  0  0  0
   22.1112  -13.1785    2.4963 H   0  0  0  0  0  0  0  0  0  0  0  0
   21.1051  -13.0736    1.0108 H   0  0  0  0  0  0  0  0  0  0  0  0
   20.7969  -11.4463    3.5879 H   0  0  0  0  0  0  0  0  0  0  0  0
   21.2710  -10.8456    1.9543 H   0  0  0  0  0  0  0  0  0  0  0  0
   18.8682  -10.3943    2.5781 H   0  0  0  0  0  0  0  0  0  0  0  0
   19.1064  -11.3649    1.0565 H   0  0  0  0  0  0  0  0  0  0  0  0
   17.3500  -12.2312    2.3755 H   0  0  0  0  0  0  0  0  0  0  0  0
   18.3945  -12.4192    3.7022 H   0  0  0  0  0  0  0  0  0  0  0  0
   20.6896  -15.8482    3.1901 H   0  0  0  0  0  0  0  0  0  0  0  0
  1  2  2  0
  1 17  1  0
  2 19  1  0
  3  4  1  0
  3  7  2  0
  4  5  2  0
  5  6  1  0
  6 17  2  0
  7 13  1  0
  7 17  1  0
  8 10  1  0
  8 19  1  0
  9 11  1  0
  9 12  1  0
  9 18  1  0
 10 11  1  0
 10 21  2  0
 12 14  1  0
 12 22  1  0
 13 19  1  0
 13 20  2  0
 14 15  1  0
 15 16  1  0
 16 18  1  0
  2 23  1  0
  3 24  1  0
  4 25  1  0
  5 26  1  0
  6 27  1  0
  8 28  1  0
  8 29  1  0
  9 30  1  6
 11 31  1  0
 11 32  1  0
 12 33  1  1
 14 34  1  0
 14 35  1  0
 15 36  1  0
 15 37  1  0
 16 38  1  0
 16 39  1  0
 18 40  1  0
 18 41  1  0
 22 42  1  0
M  CHG  1  18   1
M  END
>  <filename_input>  (16) 
7VC5_9SF_docked.sdf

>  <pdb_id>  (16) 
7VC5_9SF

>  <pose_rank>  (16) 
15

>  <num_atoms_heavy>  (16) 
22

>  <num_torsions>  (16) 
4

>  <pose>  (16) 
[16.634418564417476, -14.197475774646929, 0.314971238082982, -3.2413848723450562, -2.2127163054678833, -0.8856024824566413, 2.036186568481458, 11.585292585209285, 3.0202397223756554, -3.711574426070876]

>  <energy>  (16) 
-324.079867879785

>  <inter_energy>  (16) 
-361.54769177282054

>  <intra_energy>  (16) 
35.680918261732636

>  <rmsd>  (16) 
6.10674

>  <sdf_rank>  (16) 
0

$$$$

     RDKit          3D

 42 44  0  0  0  0  0  0  0  0999 V2000
   22.4476  -16.6408    4.7150 N   0  0  0  0  0  0  0  0  0  0  0  0
   23.2290  -15.7267    4.2693 C   0  0  0  0  0  0  0  0  0  0  0  0
   21.2427  -17.9682    1.4648 C   0  0  0  0  0  0  0  0  0  0  0  0
   20.4191  -18.9846    1.9152 C   0  0  0  0  0  0  0  0  0  0  0  0
   20.2626  -19.2084    3.2686 C   0  0  0  0  0  0  0  0  0  0  0  0
   20.9255  -18.4200    4.1952 C   0  0  0  0  0  0  0  0  0  0  0  0
   21.9226  -17.1742    2.3883 C   0  0  0  0  0  0  0  0  0  0  0  0
   24.3652  -14.3403    2.5981 C   0  0  0  0  0  0  0  0  0  0  0  0
   23.2763  -11.5289    3.9567 C   0  0  2  0  0  0  0  0  0  0  0  0
   23.6370  -13.1443    1.9937 C   0  0  0  0  0  0  0  0  0  0  0  0
   22.6520  -12.4519    2.9028 C   0  0  0  0  0  0  0  0  0  0  0  0
   22.3026  -11.0512    5.0283 C   0  0  2  0  0  0  0  0  0  0  0  0
   22.8317  -16.1221    1.9260 C   0  0  0  0  0  0  0  0  0  0  0  0
   23.0424  -10.3191    6.1338 C   0  0  0  0  0  0  0  0  0  0  0  0
   23.7901   -9.1212    5.5446 C   0  0  0  0  0  0  0  0  0  0  0  0
   24.6506   -9.5572    4.3616 C   0  0  0  0  0  0  0  0  0  0  0  0
   21.7660  -17.3960    3.7611 C   0  0  0  0  0  0  0  0  0  0  0  0
   23.8948  -10.3325    3.3657 N   0  0  0  0  0  0  0  0  0  0  0  0
   23.4565  -15.4244    2.9534 N   0  0  0  0  0  0  0  0  0  0  0  0
   23.0519  -15.8612    0.7565 O   0  0  0  0  0  0  0  0  0  0  0  0
   23.8524  -12.7650    0.8619 O   0  0  0  0  0  0  0  0  0  0  0  0
   21.5717  -12.1596    5.5521 O   0  0  0  0  0  0  0  0  0  0  0  0
   23.7690  -15.1272    5.0170 H   0  0  0  0  0  0  0  0  0  0  0  0
   21.3605  -17.7876    0.3862 H   0  0  0  0  0  0  0  0  0  0  0  0
   19.8861  -19.6180    1.1909 H   0  0  0  0  0  0  0  0  0  0  0  0
   19.6055  -20.0201    3.6144 H   0  0  0  0  0  0  0  0  0  0  0  0
   20.7889  -18.6017    5.2715 H   0  0  0  0  0  0  0  0  0  0  0  0
   25.0944  -14.7167    1.8656 H   0  0  0  0  0  0  0  0  0  0  0  0
   24.8583  -14.0008    3.5209 H   0  0  0  0  0  0  0  0  0  0  0  0
   24.0379  -12.1683    4.4270 H   0  0  0  0  0  0  0  0  0  0  0  0
   22.0714  -13.2248    3.4278 H   0  0  0  0  0  0  0  0  0  0  0  0
   22.0390  -11.8072    2.2558 H   0  0  0  0  0  0  0  0  0  0  0  0
   21.5908  -10.3465    4.5735 H   0  0  0  0  0  0  0  0  0  0  0  0
   22.3212   -9.9667    6.8859 H   0  0  0  0  0  0  0  0  0  0  0  0
   23.7627  -11.0029    6.6065 H   0  0  0  0  0  0  0  0  0  0  0  0
   23.0610   -8.3709    5.2048 H   0  0  0  0  0  0  0  0  0  0  0  0
   24.4421   -8.6926    6.3199 H   0  0  0  0  0  0  0  0  0  0  0  0
   25.0585   -8.6598    3.8734 H   0  0  0  0  0  0  0  0  0  0  0  0
   25.4486  -10.2058    4.7521 H   0  0  0  0  0  0  0  0  0  0  0  0
   24.5363  -10.6255    2.6150 H   0  0  0  0  0  0  0  0  0  0  0  0
   23.1425   -9.7327    2.9980 H   0  0  0  0  0  0  0  0  0  0  0  0
   21.5913  -12.1299    6.5415 H   0  0  0  0  0  0  0  0  0  0  0  0
  1  2  2  0
  1 17  1  0
  2 19  1  0
  3  4  1  0
  3  7  2  0
  4  5  2  0
  5  6  1  0
  6 17  2  0
  7 13  1  0
  7 17  1  0
  8 10  1  0
  8 19  1  0
  9 11  1  0
  9 12  1  0
  9 18  1  0
 10 11  1  0
 10 21  2  0
 12 14  1  0
 12 22  1  0
 13 19  1  0
 13 20  2  0
 14 15  1  0
 15 16  1  0
 16 18  1  0
  2 23  1  0
  3 24  1  0
  4 25  1  0
  5 26  1  0
  6 27  1  0
  8 28  1  0
  8 29  1  0
  9 30  1  1
 11 31  1  0
 11 32  1  0
 12 33  1  6
 14 34  1  0
 14 35  1  0
 15 36  1  0
 15 37  1  0
 16 38  1  0
 16 39  1  0
 18 40  1  0
 18 41  1  0
 22 42  1  0
M  CHG  1  18   1
M  END
>  <filename_input>  (17) 
7VC5_9SF_docked.sdf

>  <pdb_id>  (17) 
7VC5_9SF

>  <pose_rank>  (17) 
16

>  <num_atoms_heavy>  (17) 
22

>  <num_torsions>  (17) 
4

>  <pose>  (17) 
[24.365153858786417, -14.34034181528843, 2.598091866991412, 0.9451052641146181, -5.952245361093737, -2.3562199826481196, 6.150620045787444, 22.78582237990726, 10.428426153699107, -3.959634292853571]

>  <energy>  (17) 
-76.61294130277703

>  <inter_energy>  (17) 
-90.26823792431846

>  <intra_energy>  (17) 
11.803134286486769

>  <rmsd>  (17) 
9.8242

>  <sdf_rank>  (17) 
0

$$$$

     RDKit          3D

 42 44  0  0  0  0  0  0  0  0999 V2000
   17.8881  -20.1378   -6.0962 N   0  0  0  0  0  0  0  0  0  0  0  0
   17.0382  -19.2063   -6.3307 C   0  0  0  0  0  0  0  0  0  0  0  0
   20.9866  -18.0971   -6.2071 C   0  0  0  0  0  0  0  0  0  0  0  0
   21.9236  -19.0742   -5.9218 C   0  0  0  0  0  0  0  0  0  0  0  0
   21.5285  -20.3805   -5.7123 C   0  0  0  0  0  0  0  0  0  0  0  0
   20.1905  -20.7330   -5.7851 C   0  0  0  0  0  0  0  0  0  0  0  0
   19.6358  -18.4384   -6.2735 C   0  0  0  0  0  0  0  0  0  0  0  0
   16.2455  -16.9399   -6.8217 C   0  0  0  0  0  0  0  0  0  0  0  0
   14.5503  -16.9296   -3.3914 C   0  0  2  0  0  0  0  0  0  0  0  0
   15.7463  -16.2464   -5.5584 C   0  0  0  0  0  0  0  0  0  0  0  0
   14.5189  -16.8513   -4.9229 C   0  0  0  0  0  0  0  0  0  0  0  0
   13.5199  -17.8793   -2.7905 C   0  0  2  0  0  0  0  0  0  0  0  0
   18.6278  -17.4067   -6.5318 C   0  0  0  0  0  0  0  0  0  0  0  0
   13.7565  -18.0503   -1.3005 C   0  0  0  0  0  0  0  0  0  0  0  0
   13.6696  -16.6889   -0.6078 C   0  0  0  0  0  0  0  0  0  0  0  0
   14.5789  -15.6773   -1.3007 C   0  0  0  0  0  0  0  0  0  0  0  0
   19.2305  -19.7613   -6.0635 C   0  0  0  0  0  0  0  0  0  0  0  0
   14.3579  -15.6182   -2.7539 N   0  0  0  0  0  0  0  0  0  0  0  0
   17.3226  -17.8850   -6.5499 N   0  0  0  0  0  0  0  0  0  0  0  0
   18.8737  -16.2268   -6.7092 O   0  0  0  0  0  0  0  0  0  0  0  0
   16.3128  -15.2831   -5.0870 O   0  0  0  0  0  0  0  0  0  0  0  0
   13.5673  -19.1382   -3.4614 O   0  0  0  0  0  0  0  0  0  0  0  0
   15.9778  -19.4971   -6.3584 H   0  0  0  0  0  0  0  0  0  0  0  0
   21.3047  -17.0584   -6.3803 H   0  0  0  0  0  0  0  0  0  0  0  0
   22.9895  -18.8089   -5.8616 H   0  0  0  0  0  0  0  0  0  0  0  0
   22.2828  -21.1484   -5.4856 H   0  0  0  0  0  0  0  0  0  0  0  0
   19.8864  -21.7777   -5.6235 H   0  0  0  0  0  0  0  0  0  0  0  0
   15.4066  -17.4834   -7.2810 H   0  0  0  0  0  0  0  0  0  0  0  0
   16.6416  -16.1653   -7.4947 H   0  0  0  0  0  0  0  0  0  0  0  0
   15.5577  -17.3192   -3.1832 H   0  0  0  0  0  0  0  0  0  0  0  0
   14.4010  -17.8727   -5.3139 H   0  0  0  0  0  0  0  0  0  0  0  0
   13.6819  -16.1849   -5.1783 H   0  0  0  0  0  0  0  0  0  0  0  0
   12.5170  -17.4482   -2.9264 H   0  0  0  0  0  0  0  0  0  0  0  0
   12.9925  -18.7228   -0.8833 H   0  0  0  0  0  0  0  0  0  0  0  0
   14.7552  -18.4809   -1.1362 H   0  0  0  0  0  0  0  0  0  0  0  0
   12.6311  -16.3284   -0.6469 H   0  0  0  0  0  0  0  0  0  0  0  0
   13.9932  -16.8004    0.4376 H   0  0  0  0  0  0  0  0  0  0  0  0
   14.3868  -14.6816   -0.8747 H   0  0  0  0  0  0  0  0  0  0  0  0
   15.6184  -15.9966   -1.1352 H   0  0  0  0  0  0  0  0  0  0  0  0
   15.0227  -14.9474   -3.1649 H   0  0  0  0  0  0  0  0  0  0  0  0
   13.3845  -15.3236   -2.9172 H   0  0  0  0  0  0  0  0  0  0  0  0
   13.5948  -19.8677   -2.7927 H   0  0  0  0  0  0  0  0  0  0  0  0
  1  2  2  0
  1 17  1  0
  2 19  1  0
  3  4  1  0
  3  7  2  0
  4  5  2  0
  5  6  1  0
  6 17  2  0
  7 13  1  0
  7 17  1  0
  8 10  1  0
  8 19  1  0
  9 11  1  0
  9 12  1  0
  9 18  1  0
 10 11  1  0
 10 21  2  0
 12 14  1  0
 12 22  1  0
 13 19  1  0
 13 20  2  0
 14 15  1  0
 15 16  1  0
 16 18  1  0
  2 23  1  0
  3 24  1  0
  4 25  1  0
  5 26  1  0
  6 27  1  0
  8 28  1  0
  8 29  1  0
  9 30  1  6
 11 31  1  0
 11 32  1  0
 12 33  1  1
 14 34  1  0
 14 35  1  0
 15 36  1  0
 15 37  1  0
 16 38  1  0
 16 39  1  0
 18 40  1  0
 18 41  1  0
 22 42  1  0
M  CHG  1  18   1
M  END
>  <filename_input>  (18) 
7VC5_9SF_docked.sdf

>  <pdb_id>  (18) 
7VC5_9SF

>  <pose_rank>  (18) 
17

>  <num_atoms_heavy>  (18) 
22

>  <num_torsions>  (18) 
4

>  <pose>  (18) 
[16.245465588332554, -16.939943894264324, -6.82168176527474, 0.2691771810072767, -4.223233025620142, -1.0981101024626483, 3.429116425766544, 26.28119527389882, 17.782312501311498, -3.864932459419032]

>  <energy>  (18) 
-375.0709032354529

>  <inter_energy>  (18) 
-376.41171524186456

>  <intra_energy>  (18) 
10.189757752326923

>  <rmsd>  (18) 
7.91604

>  <sdf_rank>  (18) 
0

$$$$

     RDKit          3D

 42 44  0  0  0  0  0  0  0  0999 V2000
   13.1036  -17.9414   -4.3376 N   0  0  0  0  0  0  0  0  0  0  0  0
   12.9465  -17.5865   -5.5600 C   0  0  0  0  0  0  0  0  0  0  0  0
   15.3498  -15.1936   -3.2505 C   0  0  0  0  0  0  0  0  0  0  0  0
   15.5101  -15.5321   -1.9187 C   0  0  0  0  0  0  0  0  0  0  0  0
   14.8942  -16.6560   -1.4049 C   0  0  0  0  0  0  0  0  0  0  0  0
   14.1082  -17.4612   -2.2133 C   0  0  0  0  0  0  0  0  0  0  0  0
   14.5530  -15.9915   -4.0716 C   0  0  0  0  0  0  0  0  0  0  0  0
   13.2491  -16.2271   -7.5765 C   0  0  0  0  0  0  0  0  0  0  0  0
    9.4172  -16.1689   -8.5231 C   0  0  2  0  0  0  0  0  0  0  0  0
   11.8407  -15.6947   -7.8199 C   0  0  0  0  0  0  0  0  0  0  0  0
   10.8097  -16.7270   -8.2040 C   0  0  0  0  0  0  0  0  0  0  0  0
    8.9457  -16.4358   -9.9483 C   0  0  2  0  0  0  0  0  0  0  0  0
   14.3388  -15.6219   -5.4732 C   0  0  0  0  0  0  0  0  0  0  0  0
    7.4906  -16.0349  -10.1132 C   0  0  0  0  0  0  0  0  0  0  0  0
    7.3275  -14.5493   -9.7851 C   0  0  0  0  0  0  0  0  0  0  0  0
    7.9415  -14.2317   -8.4241 C   0  0  0  0  0  0  0  0  0  0  0  0
   13.9279  -17.1324   -3.5560 C   0  0  0  0  0  0  0  0  0  0  0  0
    9.3240  -14.7184   -8.2980 N   0  0  0  0  0  0  0  0  0  0  0  0
   13.5077  -16.4946   -6.1663 N   0  0  0  0  0  0  0  0  0  0  0  0
   14.8207  -14.6417   -6.0128 O   0  0  0  0  0  0  0  0  0  0  0  0
   11.5664  -14.5201   -7.6930 O   0  0  0  0  0  0  0  0  0  0  0  0
    9.1347  -17.8124  -10.2747 O   0  0  0  0  0  0  0  0  0  0  0  0
   12.2978  -18.2210   -6.1818 H   0  0  0  0  0  0  0  0  0  0  0  0
   15.8470  -14.3015   -3.6590 H   0  0  0  0  0  0  0  0  0  0  0  0
   16.1319  -14.9024   -1.2654 H   0  0  0  0  0  0  0  0  0  0  0  0
   15.0287  -16.9144   -0.3442 H   0  0  0  0  0  0  0  0  0  0  0  0
   13.6272  -18.3584   -1.7964 H   0  0  0  0  0  0  0  0  0  0  0  0
   13.3757  -17.1620   -8.1421 H   0  0  0  0  0  0  0  0  0  0  0  0
   13.9603  -15.4558   -7.9070 H   0  0  0  0  0  0  0  0  0  0  0  0
    8.7652  -16.7135   -7.8244 H   0  0  0  0  0  0  0  0  0  0  0  0
   10.7095  -17.4358   -7.3688 H   0  0  0  0  0  0  0  0  0  0  0  0
   11.1732  -17.1922   -9.1322 H   0  0  0  0  0  0  0  0  0  0  0  0
    9.5449  -15.8267  -10.6412 H   0  0  0  0  0  0  0  0  0  0  0  0
    7.1759  -16.2173  -11.1513 H   0  0  0  0  0  0  0  0  0  0  0  0
    6.8677  -16.6305   -9.4296 H   0  0  0  0  0  0  0  0  0  0  0  0
    7.8314  -13.9505  -10.5581 H   0  0  0  0  0  0  0  0  0  0  0  0
    6.2549  -14.3069   -9.7568 H   0  0  0  0  0  0  0  0  0  0  0  0
    7.9380  -13.1409   -8.2823 H   0  0  0  0  0  0  0  0  0  0  0  0
    7.3380  -14.7430   -7.6597 H   0  0  0  0  0  0  0  0  0  0  0  0
    9.6668  -14.5057   -7.3503 H   0  0  0  0  0  0  0  0  0  0  0  0
    9.8950  -14.2468   -9.0139 H   0  0  0  0  0  0  0  0  0  0  0  0
    9.2074  -18.3421   -9.4415 H   0  0  0  0  0  0  0  0  0  0  0  0
  1  2  2  0
  1 17  1  0
  2 19  1  0
  3  4  1  0
  3  7  2  0
  4  5  2  0
  5  6  1  0
  6 17  2  0
  7 13  1  0
  7 17  1  0
  8 10  1  0
  8 19  1  0
  9 11  1  0
  9 12  1  0
  9 18  1  0
 10 11  1  0
 10 21  2  0
 12 14  1  0
 12 22  1  0
 13 19  1  0
 13 20  2  0
 14 15  1  0
 15 16  1  0
 16 18  1  0
  2 23  1  0
  3 24  1  0
  4 25  1  0
  5 26  1  0
  6 27  1  0
  8 28  1  0
  8 29  1  0
  9 30  1  1
 11 31  1  0
 11 32  1  0
 12 33  1  6
 14 34  1  0
 14 35  1  0
 15 36  1  0
 15 37  1  0
 16 38  1  0
 16 39  1  0
 18 40  1  0
 18 41  1  0
 22 42  1  0
M  CHG  1  18   1
M  END
>  <filename_input>  (19) 
7VC5_9SF_docked.sdf

>  <pdb_id>  (19) 
7VC5_9SF

>  <pose_rank>  (19) 
18

>  <num_atoms_heavy>  (19) 
22

>  <num_torsions>  (19) 
4

>  <pose>  (19) 
[13.249064474821179, -16.227136182138665, -7.57650818022139, 3.6665670514023088, -3.4764380742368464, -0.823890283761476, 3.0905624702442407, -30.242587804875335, -37.988140767586884, -17.793312110247573]

>  <energy>  (19) 
-223.09520686579597

>  <inter_energy>  (19) 
-255.72780043843687

>  <intra_energy>  (19) 
43.57401646331672

>  <rmsd>  (19) 
8.03812

>  <sdf_rank>  (19) 
0

$$$$

     RDKit          3D

 42 44  0  0  0  0  0  0  0  0999 V2000
   15.9545  -15.5970    1.2784 N   0  0  0  0  0  0  0  0  0  0  0  0
   16.9783  -15.1850    1.9318 C   0  0  0  0  0  0  0  0  0  0  0  0
   16.3839  -13.5332   -1.7767 C   0  0  0  0  0  0  0  0  0  0  0  0
   15.3069  -13.9833   -2.5195 C   0  0  0  0  0  0  0  0  0  0  0  0
   14.4550  -14.9402   -2.0048 C   0  0  0  0  0  0  0  0  0  0  0  0
   14.6641  -15.4632   -0.7389 C   0  0  0  0  0  0  0  0  0  0  0  0
   16.6098  -14.0593   -0.5048 C   0  0  0  0  0  0  0  0  0  0  0  0
   18.9939  -13.8649    2.3794 C   0  0  0  0  0  0  0  0  0  0  0  0
   21.3427  -12.1275    3.0471 C   0  0  2  0  0  0  0  0  0  0  0  0
   18.8006  -12.4868    3.0035 C   0  0  0  0  0  0  0  0  0  0  0  0
   19.9494  -11.5243    2.8296 C   0  0  0  0  0  0  0  0  0  0  0  0
   22.1042  -12.4277    1.7607 C   0  0  2  0  0  0  0  0  0  0  0  0
   17.7707  -13.6241    0.2762 C   0  0  0  0  0  0  0  0  0  0  0  0
   23.5371  -12.8244    2.0688 C   0  0  0  0  0  0  0  0  0  0  0  0
   23.5445  -14.0585    2.9731 C   0  0  0  0  0  0  0  0  0  0  0  0
   22.6535  -13.8337    4.1920 C   0  0  0  0  0  0  0  0  0  0  0  0
   15.7483  -15.0282    0.0218 C   0  0  0  0  0  0  0  0  0  0  0  0
   21.3044  -13.3715    3.8309 N   0  0  0  0  0  0  0  0  0  0  0  0
   17.8829  -14.2457    1.5146 N   0  0  0  0  0  0  0  0  0  0  0  0
   18.5888  -12.8025   -0.0977 O   0  0  0  0  0  0  0  0  0  0  0  0
   17.7807  -12.1812    3.5844 O   0  0  0  0  0  0  0  0  0  0  0  0
   22.0648  -11.2938    0.8948 O   0  0  0  0  0  0  0  0  0  0  0  0
   17.1459  -15.6295    2.9240 H   0  0  0  0  0  0  0  0  0  0  0  0
   17.0572  -12.7658   -2.1863 H   0  0  0  0  0  0  0  0  0  0  0  0
   15.1284  -13.5765   -3.5258 H   0  0  0  0  0  0  0  0  0  0  0  0
   13.6025  -15.2906   -2.6052 H   0  0  0  0  0  0  0  0  0  0  0  0
   13.9758  -16.2201   -0.3348 H   0  0  0  0  0  0  0  0  0  0  0  0
   19.9183  -13.8560    1.7832 H   0  0  0  0  0  0  0  0  0  0  0  0
   19.0481  -14.5983    3.1974 H   0  0  0  0  0  0  0  0  0  0  0  0
   21.8725  -11.3367    3.5984 H   0  0  0  0  0  0  0  0  0  0  0  0
   19.8176  -10.7029    3.5493 H   0  0  0  0  0  0  0  0  0  0  0  0
   19.9181  -11.1966    1.7800 H   0  0  0  0  0  0  0  0  0  0  0  0
   21.6212  -13.2742    1.2507 H   0  0  0  0  0  0  0  0  0  0  0  0
   24.0630  -13.0548    1.1305 H   0  0  0  0  0  0  0  0  0  0  0  0
   24.0444  -11.9932    2.5806 H   0  0  0  0  0  0  0  0  0  0  0  0
   23.1713  -14.9245    2.4068 H   0  0  0  0  0  0  0  0  0  0  0  0
   24.5739  -14.2434    3.3142 H   0  0  0  0  0  0  0  0  0  0  0  0
   22.5651  -14.7816    4.7431 H   0  0  0  0  0  0  0  0  0  0  0  0
   23.1208  -13.0490    4.8052 H   0  0  0  0  0  0  0  0  0  0  0  0
   20.7674  -13.2049    4.6939 H   0  0  0  0  0  0  0  0  0  0  0  0
   20.8615  -14.0997    3.2527 H   0  0  0  0  0  0  0  0  0  0  0  0
   22.0359  -10.4657    1.4366 H   0  0  0  0  0  0  0  0  0  0  0  0
  1  2  2  0
  1 17  1  0
  2 19  1  0
  3  4  1  0
  3  7  2  0
  4  5  2  0
  5  6  1  0
  6 17  2  0
  7 13  1  0
  7 17  1  0
  8 10  1  0
  8 19  1  0
  9 11  1  0
  9 12  1  0
  9 18  1  0
 10 11  1  0
 10 21  2  0
 12 14  1  0
 12 22  1  0
 13 19  1  0
 13 20  2  0
 14 15  1  0
 15 16  1  0
 16 18  1  0
  2 23  1  0
  3 24  1  0
  4 25  1  0
  5 26  1  0
  6 27  1  0
  8 28  1  0
  8 29  1  0
  9 30  1  1
 11 31  1  0
 11 32  1  0
 12 33  1  6
 14 34  1  0
 14 35  1  0
 15 36  1  0
 15 37  1  0
 16 38  1  0
 16 39  1  0
 18 40  1  0
 18 41  1  0
 22 42  1  0
M  CHG  1  18   1
M  END
>  <filename_input>  (20) 
7VC5_9SF_docked.sdf

>  <pdb_id>  (20) 
7VC5_9SF

>  <pose_rank>  (20) 
19

>  <num_atoms_heavy>  (20) 
22

>  <num_torsions>  (20) 
4

>  <pose>  (20) 
[18.993889128976154, -13.864907119965721, 2.3793839688081, -4.100268856849109, 2.0416661033113623, 2.1386879121713744, -0.04927412783399172, 0.602210494559781, 2.0427987269269927, 0.7743738124912398]

>  <energy>  (20) 
-274.3505626200065

>  <inter_energy>  (20) 
-306.4939590367036

>  <intra_energy>  (20) 
36.286456120501086

>  <rmsd>  (20) 
7.19335

>  <sdf_rank>  (20) 
0

$$$$

     RDKit          3D

 42 44  0  0  0  0  0  0  0  0999 V2000
   16.9100  -20.2527   -6.6097 N   0  0  0  0  0  0  0  0  0  0  0  0
   15.8316  -19.5619   -6.6804 C   0  0  0  0  0  0  0  0  0  0  0  0
   19.3475  -17.4566   -6.4781 C   0  0  0  0  0  0  0  0  0  0  0  0
   20.5250  -18.1743   -6.3661 C   0  0  0  0  0  0  0  0  0  0  0  0
   20.5022  -19.5548   -6.3492 C   0  0  0  0  0  0  0  0  0  0  0  0
   19.3027  -20.2416   -6.4447 C   0  0  0  0  0  0  0  0  0  0  0  0
   18.1331  -18.1371   -6.5653 C   0  0  0  0  0  0  0  0  0  0  0  0
   14.4402  -17.5483   -6.8026 C   0  0  0  0  0  0  0  0  0  0  0  0
   14.2428  -16.7151   -3.0014 C   0  0  2  0  0  0  0  0  0  0  0  0
   13.7763  -17.3610   -5.4424 C   0  0  0  0  0  0  0  0  0  0  0  0
   14.6880  -17.4910   -4.2473 C   0  0  0  0  0  0  0  0  0  0  0  0
   15.1877  -15.5909   -2.5915 C   0  0  2  0  0  0  0  0  0  0  0  0
   16.8747  -17.3903   -6.6409 C   0  0  0  0  0  0  0  0  0  0  0  0
   14.5720  -14.7527   -1.4853 C   0  0  0  0  0  0  0  0  0  0  0  0
   14.2707  -15.6406   -0.2762 C   0  0  0  0  0  0  0  0  0  0  0  0
   13.4579  -16.8616   -0.6987 C   0  0  0  0  0  0  0  0  0  0  0  0
   18.1049  -19.5361   -6.5502 C   0  0  0  0  0  0  0  0  0  0  0  0
   14.0642  -17.5836   -1.8280 N   0  0  0  0  0  0  0  0  0  0  0  0
   15.7432  -18.1958   -6.7022 N   0  0  0  0  0  0  0  0  0  0  0  0
   16.7891  -16.1751   -6.6420 O   0  0  0  0  0  0  0  0  0  0  0  0
   12.5958  -17.1050   -5.3327 O   0  0  0  0  0  0  0  0  0  0  0  0
   15.5059  -14.7837   -3.7248 O   0  0  0  0  0  0  0  0  0  0  0  0
   14.8858  -20.1215   -6.7283 H   0  0  0  0  0  0  0  0  0  0  0  0
   19.3690  -16.3569   -6.4982 H   0  0  0  0  0  0  0  0  0  0  0  0
   21.4847  -17.6423   -6.2902 H   0  0  0  0  0  0  0  0  0  0  0  0
   21.4449  -20.1144   -6.2590 H   0  0  0  0  0  0  0  0  0  0  0  0
   19.2954  -21.3416   -6.4373 H   0  0  0  0  0  0  0  0  0  0  0  0
   13.7855  -18.1683   -7.4326 H   0  0  0  0  0  0  0  0  0  0  0  0
   14.5948  -16.5509   -7.2400 H   0  0  0  0  0  0  0  0  0  0  0  0
   13.2822  -16.2777   -3.3113 H   0  0  0  0  0  0  0  0  0  0  0  0
   15.6844  -17.1265   -4.5377 H   0  0  0  0  0  0  0  0  0  0  0  0
   14.6750  -18.5545   -3.9666 H   0  0  0  0  0  0  0  0  0  0  0  0
   16.1180  -16.0317   -2.2039 H   0  0  0  0  0  0  0  0  0  0  0  0
   15.2760  -13.9603   -1.1913 H   0  0  0  0  0  0  0  0  0  0  0  0
   13.6376  -14.2991   -1.8474 H   0  0  0  0  0  0  0  0  0  0  0  0
   15.2178  -15.9740    0.1730 H   0  0  0  0  0  0  0  0  0  0  0  0
   13.6878  -15.0607    0.4545 H   0  0  0  0  0  0  0  0  0  0  0  0
   13.3822  -17.5477    0.1578 H   0  0  0  0  0  0  0  0  0  0  0  0
   12.4688  -16.5064   -1.0237 H   0  0  0  0  0  0  0  0  0  0  0  0
   13.4529  -18.3712   -2.0865 H   0  0  0  0  0  0  0  0  0  0  0  0
   14.9932  -17.9161   -1.5326 H   0  0  0  0  0  0  0  0  0  0  0  0
   15.8514  -13.9076   -3.4194 H   0  0  0  0  0  0  0  0  0  0  0  0
  1  2  2  0
  1 17  1  0
  2 19  1  0
  3  4  1  0
  3  7  2  0
  4  5  2  0
  5  6  1  0
  6 17  2  0
  7 13  1  0
  7 17  1  0
  8 10  1  0
  8 19  1  0
  9 11  1  0
  9 12  1  0
  9 18  1  0
 10 11  1  0
 10 21  2  0
 12 14  1  0
 12 22  1  0
 13 19  1  0
 13 20  2  0
 14 15  1  0
 15 16  1  0
 16 18  1  0
  2 23  1  0
  3 24  1  0
  4 25  1  0
  5 26  1  0
  6 27  1  0
  8 28  1  0
  8 29  1  0
  9 30  1  6
 11 31  1  0
 11 32  1  0
 12 33  1  1
 14 34  1  0
 14 35  1  0
 15 36  1  0
 15 37  1  0
 16 38  1  0
 16 39  1  0
 18 40  1  0
 18 41  1  0
 22 42  1  0
M  CHG  1  18   1
M  END
>  <filename_input>  (21) 
7VC5_9SF_docked.sdf

>  <pdb_id>  (21) 
7VC5_9SF

>  <pose_rank>  (21) 
20

>  <num_atoms_heavy>  (21) 
22

>  <num_torsions>  (21) 
4

>  <pose>  (21) 
[14.440219922820742, -17.54829135024822, -6.802610903671806, 0.47573537794146087, -3.8045216558783297, -1.9842202949187375, 3.3017085111173605, -3.1557047916586414, -7.095912020298267, 3.2624013205668407]

>  <energy>  (21) 
-289.4358371553668

>  <inter_energy>  (21) 
-307.7808419240306

>  <intra_energy>  (21) 
15.679545419595994

>  <rmsd>  (21) 
7.45063

>  <sdf_rank>  (21) 
0

$$$$

     RDKit          3D

 42 44  0  0  0  0  0  0  0  0999 V2000
   15.8073  -15.8114    1.0747 N   0  0  0  0  0  0  0  0  0  0  0  0
   16.8338  -15.2999    1.6488 C   0  0  0  0  0  0  0  0  0  0  0  0
   16.0422  -14.0229   -2.1693 C   0  0  0  0  0  0  0  0  0  0  0  0
   14.9612  -14.5826   -2.8267 C   0  0  0  0  0  0  0  0  0  0  0  0
   14.1697  -15.5215   -2.1953 C   0  0  0  0  0  0  0  0  0  0  0  0
   14.4444  -15.9164   -0.8960 C   0  0  0  0  0  0  0  0  0  0  0  0
   16.3340  -14.4198   -0.8643 C   0  0  0  0  0  0  0  0  0  0  0  0
   18.8041  -13.8640    1.8979 C   0  0  0  0  0  0  0  0  0  0  0  0
   20.4234  -10.9300    1.9137 C   0  0  2  0  0  0  0  0  0  0  0  0
   18.5048  -12.5155    2.5444 C   0  0  0  0  0  0  0  0  0  0  0  0
   18.9438  -11.3036    1.7603 C   0  0  0  0  0  0  0  0  0  0  0  0
   21.0226  -10.2289    0.6995 C   0  0  2  0  0  0  0  0  0  0  0  0
   17.5007  -13.8679   -0.1706 C   0  0  0  0  0  0  0  0  0  0  0  0
   22.4168   -9.7160    1.0133 C   0  0  0  0  0  0  0  0  0  0  0  0
   23.3121  -10.8853    1.4283 C   0  0  0  0  0  0  0  0  0  0  0  0
   22.6507  -11.6974    2.5386 C   0  0  0  0  0  0  0  0  0  0  0  0
   15.5339  -15.3698   -0.2195 C   0  0  0  0  0  0  0  0  0  0  0  0
   21.2732  -12.0939    2.2078 N   0  0  0  0  0  0  0  0  0  0  0  0
   17.6820  -14.3675    1.1140 N   0  0  0  0  0  0  0  0  0  0  0  0
   18.2690  -13.0521   -0.6483 O   0  0  0  0  0  0  0  0  0  0  0  0
   17.9334  -12.4262    3.6106 O   0  0  0  0  0  0  0  0  0  0  0  0
   20.1700   -9.1631    0.2819 O   0  0  0  0  0  0  0  0  0  0  0  0
   17.0543  -15.6438    2.6701 H   0  0  0  0  0  0  0  0  0  0  0  0
   16.6671  -13.2701   -2.6721 H   0  0  0  0  0  0  0  0  0  0  0  0
   14.7309  -14.2780   -3.8583 H   0  0  0  0  0  0  0  0  0  0  0  0
   13.3134  -15.9598   -2.7287 H   0  0  0  0  0  0  0  0  0  0  0  0
   13.8039  -16.6599   -0.3991 H   0  0  0  0  0  0  0  0  0  0  0  0
   19.6754  -13.7524    1.2358 H   0  0  0  0  0  0  0  0  0  0  0  0
   18.9998  -14.5860    2.7045 H   0  0  0  0  0  0  0  0  0  0  0  0
   20.4162  -10.2296    2.7618 H   0  0  0  0  0  0  0  0  0  0  0  0
   18.3397  -10.4462    2.0919 H   0  0  0  0  0  0  0  0  0  0  0  0
   18.8002  -11.5568    0.6995 H   0  0  0  0  0  0  0  0  0  0  0  0
   21.1061  -10.9531   -0.1242 H   0  0  0  0  0  0  0  0  0  0  0  0
   22.8381   -9.2311    0.1204 H   0  0  0  0  0  0  0  0  0  0  0  0
   22.3618   -8.9880    1.8361 H   0  0  0  0  0  0  0  0  0  0  0  0
   23.4849  -11.5355    0.5580 H   0  0  0  0  0  0  0  0  0  0  0  0
   24.2678  -10.4871    1.7999 H   0  0  0  0  0  0  0  0  0  0  0  0
   23.2461  -12.6058    2.7129 H   0  0  0  0  0  0  0  0  0  0  0  0
   22.6074  -11.0615    3.4351 H   0  0  0  0  0  0  0  0  0  0  0  0
   20.8726  -12.6051    3.0072 H   0  0  0  0  0  0  0  0  0  0  0  0
   21.3049  -12.6869    1.3662 H   0  0  0  0  0  0  0  0  0  0  0  0
   19.8023   -8.7034    1.0779 H   0  0  0  0  0  0  0  0  0  0  0  0
  1  2  2  0
  1 17  1  0
  2 19  1  0
  3  4  1  0
  3  7  2  0
  4  5  2  0
  5  6  1  0
  6 17  2  0
  7 13  1  0
  7 17  1  0
  8 10  1  0
  8 19  1  0
  9 11  1  0
  9 12  1  0
  9 18  1  0
 10 11  1  0
 10 21  2  0
 12 14  1  0
 12 22  1  0
 13 19  1  0
 13 20  2  0
 14 15  1  0
 15 16  1  0
 16 18  1  0
  2 23  1  0
  3 24  1  0
  4 25  1  0
  5 26  1  0
  6 27  1  0
  8 28  1  0
  8 29  1  0
  9 30  1  1
 11 31  1  0
 11 32  1  0
 12 33  1  6
 14 34  1  0
 14 35  1  0
 15 36  1  0
 15 37  1  0
 16 38  1  0
 16 39  1  0
 18 40  1  0
 18 41  1  0
 22 42  1  0
M  CHG  1  18   1
M  END
>  <filename_input>  (22) 
7VC5_9SF_docked.sdf

>  <pdb_id>  (22) 
7VC5_9SF

>  <pose_rank>  (22) 
21

>  <num_atoms_heavy>  (22) 
22

>  <num_torsions>  (22) 
4

>  <pose>  (22) 
[18.804105320505702, -13.864025566943411, 1.8979160016280596, -4.416665731375388, 1.644470169153596, 2.013622211338957, 0.07443305774014831, 1.1975434351687375, 1.3656903034237096, 1.6253680891584033]

>  <energy>  (22) 
-330.4676751735675

>  <inter_energy>  (22) 
-362.8280958686322

>  <intra_energy>  (22) 
27.657243725061193

>  <rmsd>  (22) 
6.00106

>  <sdf_rank>  (22) 
0

$$$$

     RDKit          3D

 42 44  0  0  0  0  0  0  0  0999 V2000
   20.3492  -12.1543    4.6158 N   0  0  0  0  0  0  0  0  0  0  0  0
   19.9263  -12.9864    3.7363 C   0  0  0  0  0  0  0  0  0  0  0  0
   23.9056  -12.0012    3.5643 C   0  0  0  0  0  0  0  0  0  0  0  0
   24.3832  -11.0794    4.4787 C   0  0  0  0  0  0  0  0  0  0  0  0
   23.5401  -10.5363    5.4278 C   0  0  0  0  0  0  0  0  0  0  0  0
   22.2057  -10.9057    5.4800 C   0  0  0  0  0  0  0  0  0  0  0  0
   22.5619  -12.3735    3.6011 C   0  0  0  0  0  0  0  0  0  0  0  0
   20.0545  -14.5239    1.8322 C   0  0  0  0  0  0  0  0  0  0  0  0
   17.0652  -14.1804   -0.1276 C   0  0  2  0  0  0  0  0  0  0  0  0
   18.5338  -14.5386    1.9480 C   0  0  0  0  0  0  0  0  0  0  0  0
   17.8022  -13.5581    1.0650 C   0  0  0  0  0  0  0  0  0  0  0  0
   16.6215  -13.1752   -1.1847 C   0  0  2  0  0  0  0  0  0  0  0  0
   22.0319  -13.3159    2.6121 C   0  0  0  0  0  0  0  0  0  0  0  0
   16.0898  -13.8921   -2.4131 C   0  0  0  0  0  0  0  0  0  0  0  0
   14.9087  -14.7805   -2.0174 C   0  0  0  0  0  0  0  0  0  0  0  0
   15.2881  -15.6848   -0.8476 C   0  0  0  0  0  0  0  0  0  0  0  0
   21.7038  -11.8271    4.5621 C   0  0  0  0  0  0  0  0  0  0  0  0
   15.8732  -14.9404    0.2782 N   0  0  0  0  0  0  0  0  0  0  0  0
   20.6744  -13.5799    2.7550 N   0  0  0  0  0  0  0  0  0  0  0  0
   22.6888  -13.8325    1.7258 O   0  0  0  0  0  0  0  0  0  0  0  0
   17.9525  -15.3035    2.6884 O   0  0  0  0  0  0  0  0  0  0  0  0
   17.7084  -12.3160   -1.5273 O   0  0  0  0  0  0  0  0  0  0  0  0
   18.8588  -13.2489    3.7739 H   0  0  0  0  0  0  0  0  0  0  0  0
   24.5809  -12.4375    2.8135 H   0  0  0  0  0  0  0  0  0  0  0  0
   25.4405  -10.7773    4.4495 H   0  0  0  0  0  0  0  0  0  0  0  0
   23.9314   -9.8037    6.1491 H   0  0  0  0  0  0  0  0  0  0  0  0
   21.5436  -10.4727    6.2442 H   0  0  0  0  0  0  0  0  0  0  0  0
   20.4349  -15.5327    2.0507 H   0  0  0  0  0  0  0  0  0  0  0  0
   20.3094  -14.2090    0.8096 H   0  0  0  0  0  0  0  0  0  0  0  0
   17.8214  -14.8481   -0.5661 H   0  0  0  0  0  0  0  0  0  0  0  0
   18.5364  -12.8384    0.6738 H   0  0  0  0  0  0  0  0  0  0  0  0
   17.0286  -13.0961    1.6958 H   0  0  0  0  0  0  0  0  0  0  0  0
   15.8071  -12.5615   -0.7724 H   0  0  0  0  0  0  0  0  0  0  0  0
   15.7580  -13.1506   -3.1548 H   0  0  0  0  0  0  0  0  0  0  0  0
   16.8865  -14.5148   -2.8462 H   0  0  0  0  0  0  0  0  0  0  0  0
   14.0603  -14.1451   -1.7234 H   0  0  0  0  0  0  0  0  0  0  0  0
   14.6321  -15.4084   -2.8773 H   0  0  0  0  0  0  0  0  0  0  0  0
   14.3838  -16.2026   -0.4952 H   0  0  0  0  0  0  0  0  0  0  0  0
   16.0479  -16.3938   -1.2082 H   0  0  0  0  0  0  0  0  0  0  0  0
   16.1390  -15.6077    1.0164 H   0  0  0  0  0  0  0  0  0  0  0  0
   15.1685  -14.2711    0.6191 H   0  0  0  0  0  0  0  0  0  0  0  0
   18.1355  -11.9784   -0.7004 H   0  0  0  0  0  0  0  0  0  0  0  0
  1  2  2  0
  1 17  1  0
  2 19  1  0
  3  4  1  0
  3  7  2  0
  4  5  2  0
  5  6  1  0
  6 17  2  0
  7 13  1  0
  7 17  1  0
  8 10  1  0
  8 19  1  0
  9 11  1  0
  9 12  1  0
  9 18  1  0
 10 11  1  0
 10 21  2  0
 12 14  1  0
 12 22  1  0
 13 19  1  0
 13 20  2  0
 14 15  1  0
 15 16  1  0
 16 18  1  0
  2 23  1  0
  3 24  1  0
  4 25  1  0
  5 26  1  0
  6 27  1  0
  8 28  1  0
  8 29  1  0
  9 30  1  6
 11 31  1  0
 11 32  1  0
 12 33  1  1
 14 34  1  0
 14 35  1  0
 15 36  1  0
 15 37  1  0
 16 38  1  0
 16 39  1  0
 18 40  1  0
 18 41  1  0
 22 42  1  0
M  CHG  1  18   1
M  END
>  <filename_input>  (23) 
7VC5_9SF_docked.sdf

>  <pdb_id>  (23) 
7VC5_9SF

>  <pose_rank>  (23) 
22

>  <num_atoms_heavy>  (23) 
22

>  <num_torsions>  (23) 
4

>  <pose>  (23) 
[20.054490262520485, -14.523945920889231, 1.832240323512642, -1.7529809614640415, 1.107760056503068, 0.2942479109840195, 20.82823205125628, 4.395447171399272, -26.75145171520844, 8.656511991449229]

>  <energy>  (23) 
-194.53155646145896

>  <inter_energy>  (23) 
-208.22862680991915

>  <intra_energy>  (23) 
10.44396039374298

>  <rmsd>  (23) 
8.67281

>  <sdf_rank>  (23) 
0

$$$$

     RDKit          3D

 42 44  0  0  0  0  0  0  0  0999 V2000
   24.0492  -10.6759    2.7324 N   0  0  0  0  0  0  0  0  0  0  0  0
   23.2713  -11.2970    3.5411 C   0  0  0  0  0  0  0  0  0  0  0  0
   21.6413  -10.1324   -0.0396 C   0  0  0  0  0  0  0  0  0  0  0  0
   22.4467   -9.4300   -0.9183 C   0  0  0  0  0  0  0  0  0  0  0  0
   23.7617   -9.1593   -0.5957 C   0  0  0  0  0  0  0  0  0  0  0  0
   24.2945   -9.5864    0.6098 C   0  0  0  0  0  0  0  0  0  0  0  0
   22.1641  -10.5592    1.1811 C   0  0  0  0  0  0  0  0  0  0  0  0
   21.2006  -12.3412    4.3333 C   0  0  0  0  0  0  0  0  0  0  0  0
   19.2497  -14.4908    3.7795 C   0  0  2  0  0  0  0  0  0  0  0  0
   21.6313  -13.8000    4.4457 C   0  0  0  0  0  0  0  0  0  0  0  0
   20.7518  -14.7972    3.7328 C   0  0  0  0  0  0  0  0  0  0  0  0
   18.4346  -15.4729    4.6137 C   0  0  2  0  0  0  0  0  0  0  0  0
   21.3113  -11.2663    2.1401 C   0  0  0  0  0  0  0  0  0  0  0  0
   17.0069  -14.9814    4.7730 C   0  0  0  0  0  0  0  0  0  0  0  0
   16.3640  -14.8174    3.3943 C   0  0  0  0  0  0  0  0  0  0  0  0
   17.2499  -13.9654    2.4891 C   0  0  0  0  0  0  0  0  0  0  0  0
   23.4966  -10.2886    1.5119 C   0  0  0  0  0  0  0  0  0  0  0  0
   18.6399  -14.4447    2.4419 N   0  0  0  0  0  0  0  0  0  0  0  0
   21.9574  -11.6132    3.3212 N   0  0  0  0  0  0  0  0  0  0  0  0
   20.1370  -11.5339    1.9572 O   0  0  0  0  0  0  0  0  0  0  0  0
   22.6273  -14.1315    5.0532 O   0  0  0  0  0  0  0  0  0  0  0  0
   19.0529  -15.6623    5.8861 O   0  0  0  0  0  0  0  0  0  0  0  0
   23.7016  -11.6057    4.5053 H   0  0  0  0  0  0  0  0  0  0  0  0
   20.5959  -10.3527   -0.3019 H   0  0  0  0  0  0  0  0  0  0  0  0
   22.0372   -9.0853   -1.8792 H   0  0  0  0  0  0  0  0  0  0  0  0
   24.3920   -8.5993   -1.3023 H   0  0  0  0  0  0  0  0  0  0  0  0
   25.3452   -9.3718    0.8547 H   0  0  0  0  0  0  0  0  0  0  0  0
   20.1335  -12.3076    4.0683 H   0  0  0  0  0  0  0  0  0  0  0  0
   21.3909  -11.8602    5.3041 H   0  0  0  0  0  0  0  0  0  0  0  0
   19.2129  -13.5009    4.2579 H   0  0  0  0  0  0  0  0  0  0  0  0
   20.9128  -15.7834    4.1927 H   0  0  0  0  0  0  0  0  0  0  0  0
   21.0399  -14.7561    2.6720 H   0  0  0  0  0  0  0  0  0  0  0  0
   18.4028  -16.4412    4.0927 H   0  0  0  0  0  0  0  0  0  0  0  0
   16.4316  -15.7120    5.3606 H   0  0  0  0  0  0  0  0  0  0  0  0
   17.0100  -14.0118    5.2924 H   0  0  0  0  0  0  0  0  0  0  0  0
   16.2279  -15.8090    2.9381 H   0  0  0  0  0  0  0  0  0  0  0  0
   15.3913  -14.3176    3.5126 H   0  0  0  0  0  0  0  0  0  0  0  0
   16.8356  -13.9861    1.4704 H   0  0  0  0  0  0  0  0  0  0  0  0
   17.2637  -12.9457    2.9016 H   0  0  0  0  0  0  0  0  0  0  0  0
   19.1909  -13.8102    1.8463 H   0  0  0  0  0  0  0  0  0  0  0  0
   18.6350  -15.4013    2.0601 H   0  0  0  0  0  0  0  0  0  0  0  0
   18.4002  -15.4624    6.6031 H   0  0  0  0  0  0  0  0  0  0  0  0
  1  2  2  0
  1 17  1  0
  2 19  1  0
  3  4  1  0
  3  7  2  0
  4  5  2  0
  5  6  1  0
  6 17  2  0
  7 13  1  0
  7 17  1  0
  8 10  1  0
  8 19  1  0
  9 11  1  0
  9 12  1  0
  9 18  1  0
 10 11  1  0
 10 21  2  0
 12 14  1  0
 12 22  1  0
 13 19  1  0
 13 20  2  0
 14 15  1  0
 15 16  1  0
 16 18  1  0
  2 23  1  0
  3 24  1  0
  4 25  1  0
  5 26  1  0
  6 27  1  0
  8 28  1  0
  8 29  1  0
  9 30  1  1
 11 31  1  0
 11 32  1  0
 12 33  1  6
 14 34  1  0
 14 35  1  0
 15 36  1  0
 15 37  1  0
 16 38  1  0
 16 39  1  0
 18 40  1  0
 18 41  1  0
 22 42  1  0
M  CHG  1  18   1
M  END
>  <filename_input>  (24) 
7VC5_9SF_docked.sdf

>  <pdb_id>  (24) 
7VC5_9SF

>  <pose_rank>  (24) 
23

>  <num_atoms_heavy>  (24) 
22

>  <num_torsions>  (24) 
4

>  <pose>  (24) 
[21.20061307757978, -12.341218662897266, 4.333298809845942, -1.2539000286351192, -1.306126594840509, -2.8028640761167516, -5.7311291376740625, -5.185601760740452, 2.143352711891121, 3.3218919423953626]

>  <energy>  (24) 
-219.69702021805188

>  <inter_energy>  (24) 
-220.43099937468332

>  <intra_energy>  (24) 
4.59531993023973

>  <rmsd>  (24) 
10.1848

>  <sdf_rank>  (24) 
0

$$$$

     RDKit          3D

 42 44  0  0  0  0  0  0  0  0999 V2000
   16.9377  -15.0838    3.0746 N   0  0  0  0  0  0  0  0  0  0  0  0
   17.8654  -14.4344    3.6766 C   0  0  0  0  0  0  0  0  0  0  0  0
   17.2580  -13.5219   -0.2773 C   0  0  0  0  0  0  0  0  0  0  0  0
   16.2871  -14.2307   -0.9622 C   0  0  0  0  0  0  0  0  0  0  0  0
   15.5386  -15.1937   -0.3150 C   0  0  0  0  0  0  0  0  0  0  0  0
   15.7469  -15.4643    1.0278 C   0  0  0  0  0  0  0  0  0  0  0  0
   17.4830  -13.7925    1.0724 C   0  0  0  0  0  0  0  0  0  0  0  0
   19.6704  -12.7991    3.9480 C   0  0  0  0  0  0  0  0  0  0  0  0
   21.3300  -14.5870    6.2642 C   0  0  2  0  0  0  0  0  0  0  0  0
   19.4582  -13.0346    5.4399 C   0  0  0  0  0  0  0  0  0  0  0  0
   20.7141  -13.1822    6.2628 C   0  0  0  0  0  0  0  0  0  0  0  0
   22.8470  -14.6070    6.1121 C   0  0  2  0  0  0  0  0  0  0  0  0
   18.5370  -13.0805    1.8000 C   0  0  0  0  0  0  0  0  0  0  0  0
   23.3867  -16.0094    6.3295 C   0  0  0  0  0  0  0  0  0  0  0  0
   22.7536  -16.9655    5.3165 C   0  0  0  0  0  0  0  0  0  0  0  0
   21.2324  -16.8408    5.3420 C   0  0  0  0  0  0  0  0  0  0  0  0
   16.7260  -14.7664    1.7332 C   0  0  0  0  0  0  0  0  0  0  0  0
   20.7751  -15.4489    5.2096 N   0  0  0  0  0  0  0  0  0  0  0  0
   18.6633  -13.4652    3.1300 N   0  0  0  0  0  0  0  0  0  0  0  0
   19.2619  -12.2307    1.3138 O   0  0  0  0  0  0  0  0  0  0  0  0
   18.3508  -13.0802    5.9326 O   0  0  0  0  0  0  0  0  0  0  0  0
   23.4409  -13.6855    7.0260 O   0  0  0  0  0  0  0  0  0  0  0  0
   18.0367  -14.6798    4.7351 H   0  0  0  0  0  0  0  0  0  0  0  0
   17.8483  -12.7505   -0.7935 H   0  0  0  0  0  0  0  0  0  0  0  0
   16.1105  -14.0259   -2.0285 H   0  0  0  0  0  0  0  0  0  0  0  0
   14.7700  -15.7511   -0.8705 H   0  0  0  0  0  0  0  0  0  0  0  0
   15.1407  -16.2285    1.5363 H   0  0  0  0  0  0  0  0  0  0  0  0
   19.6260  -11.7177    3.7515 H   0  0  0  0  0  0  0  0  0  0  0  0
   20.6511  -13.2184    3.6790 H   0  0  0  0  0  0  0  0  0  0  0  0
   21.0667  -14.9726    7.2602 H   0  0  0  0  0  0  0  0  0  0  0  0
   20.4737  -12.9146    7.3023 H   0  0  0  0  0  0  0  0  0  0  0  0
   21.4619  -12.5205    5.8015 H   0  0  0  0  0  0  0  0  0  0  0  0
   23.1058  -14.3000    5.0880 H   0  0  0  0  0  0  0  0  0  0  0  0
   24.4787  -16.0061    6.1968 H   0  0  0  0  0  0  0  0  0  0  0  0
   23.1408  -16.3418    7.3488 H   0  0  0  0  0  0  0  0  0  0  0  0
   23.1201  -16.7198    4.3088 H   0  0  0  0  0  0  0  0  0  0  0  0
   23.0304  -17.9970    5.5797 H   0  0  0  0  0  0  0  0  0  0  0  0
   20.8171  -17.4285    4.5100 H   0  0  0  0  0  0  0  0  0  0  0  0
   20.8845  -17.2139    6.3166 H   0  0  0  0  0  0  0  0  0  0  0  0
   19.7470  -15.4290    5.2697 H   0  0  0  0  0  0  0  0  0  0  0  0
   21.1007  -15.0910    4.3003 H   0  0  0  0  0  0  0  0  0  0  0  0
   23.2545  -13.9748    7.9542 H   0  0  0  0  0  0  0  0  0  0  0  0
  1  2  2  0
  1 17  1  0
  2 19  1  0
  3  4  1  0
  3  7  2  0
  4  5  2  0
  5  6  1  0
  6 17  2  0
  7 13  1  0
  7 17  1  0
  8 10  1  0
  8 19  1  0
  9 11  1  0
  9 12  1  0
  9 18  1  0
 10 11  1  0
 10 21  2  0
 12 14  1  0
 12 22  1  0
 13 19  1  0
 13 20  2  0
 14 15  1  0
 15 16  1  0
 16 18  1  0
  2 23  1  0
  3 24  1  0
  4 25  1  0
  5 26  1  0
  6 27  1  0
  8 28  1  0
  8 29  1  0
  9 30  1  1
 11 31  1  0
 11 32  1  0
 12 33  1  6
 14 34  1  0
 14 35  1  0
 15 36  1  0
 15 37  1  0
 16 38  1  0
 16 39  1  0
 18 40  1  0
 18 41  1  0
 22 42  1  0
M  CHG  1  18   1
M  END
>  <filename_input>  (25) 
7VC5_9SF_docked.sdf

>  <pdb_id>  (25) 
7VC5_9SF

>  <pose_rank>  (25) 
24

>  <num_atoms_heavy>  (25) 
22

>  <num_torsions>  (25) 
4

>  <pose>  (25) 
[19.670389187975577, -12.79910062499753, 3.948020777031079, -3.8742947395578526, -1.83212804009277, 0.09251118460884757, -4.74291723488893, -7.223678603890693, 1.3434260411018624, 1.3726122167391932]

>  <energy>  (25) 
-200.74541547913438

>  <inter_energy>  (25) 
-244.8725146029475

>  <intra_energy>  (25) 
37.25553962119955

>  <rmsd>  (25) 
9.49281

>  <sdf_rank>  (25) 
0

$$$$

     RDKit          3D

 42 44  0  0  0  0  0  0  0  0999 V2000
   15.8510  -14.8200   -0.2930 N   0  0  0  0  0  0  0  0  0  0  0  0
   16.4940  -13.8820   -0.8860 C   0  0  0  0  0  0  0  0  0  0  0  0
   14.5910  -16.6060   -3.2930 C   0  0  0  0  0  0  0  0  0  0  0  0
   13.9180  -17.6490   -2.6820 C   0  0  0  0  0  0  0  0  0  0  0  0
   13.8770  -17.7420   -1.3050 C   0  0  0  0  0  0  0  0  0  0  0  0
   14.5070  -16.7940   -0.5150 C   0  0  0  0  0  0  0  0  0  0  0  0
   15.2370  -15.6510   -2.5080 C   0  0  0  0  0  0  0  0  0  0  0  0
   17.3550  -12.5710   -2.7690 C   0  0  0  0  0  0  0  0  0  0  0  0
   16.3780   -9.0960   -4.2960 C   0  0  2  0  0  0  0  0  0  0  0  0
   16.4520  -11.4460   -3.2640 C   0  0  0  0  0  0  0  0  0  0  0  0
   17.1030  -10.4430   -4.1840 C   0  0  0  0  0  0  0  0  0  0  0  0
   16.2020   -8.3660   -2.9690 C   0  0  2  0  0  0  0  0  0  0  0  0
   15.9900  -14.5650   -3.1410 C   0  0  0  0  0  0  0  0  0  0  0  0
   15.6660   -6.9640   -3.1980 C   0  0  0  0  0  0  0  0  0  0  0  0
   14.3230   -7.0410   -3.9270 C   0  0  0  0  0  0  0  0  0  0  0  0
   14.4430   -7.9060   -5.1790 C   0  0  0  0  0  0  0  0  0  0  0  0
   15.1970  -15.7400   -1.1120 C   0  0  0  0  0  0  0  0  0  0  0  0
   15.0450   -9.2200   -4.9050 N   0  0  0  0  0  0  0  0  0  0  0  0
   16.5990  -13.7000   -2.2390 N   0  0  0  0  0  0  0  0  0  0  0  0
   16.1020  -14.4090   -4.3440 O   0  0  0  0  0  0  0  0  0  0  0  0
   15.2820  -11.3760   -2.9520 O   0  0  0  0  0  0  0  0  0  0  0  0
   17.4430   -8.3280   -2.2650 O   0  0  0  0  0  0  0  0  0  0  0  0
   17.0115  -13.1528   -0.2453 H   0  0  0  0  0  0  0  0  0  0  0  0
   14.6165  -16.5304   -4.3901 H   0  0  0  0  0  0  0  0  0  0  0  0
   13.4127  -18.4085   -3.2967 H   0  0  0  0  0  0  0  0  0  0  0  0
   13.3393  -18.5763   -0.8309 H   0  0  0  0  0  0  0  0  0  0  0  0
   14.4628  -16.8729    0.5813 H   0  0  0  0  0  0  0  0  0  0  0  0
   17.9730  -12.9228   -3.6082 H   0  0  0  0  0  0  0  0  0  0  0  0
   17.9734  -12.1694   -1.9527 H   0  0  0  0  0  0  0  0  0  0  0  0
   17.0468   -8.5068   -4.9406 H   0  0  0  0  0  0  0  0  0  0  0  0
   17.1552  -10.8865   -5.1893 H   0  0  0  0  0  0  0  0  0  0  0  0
   18.0897  -10.2245   -3.7497 H   0  0  0  0  0  0  0  0  0  0  0  0
   15.4693   -8.9124   -2.3569 H   0  0  0  0  0  0  0  0  0  0  0  0
   15.5284   -6.4618   -2.2290 H   0  0  0  0  0  0  0  0  0  0  0  0
   16.3815   -6.3945   -3.8093 H   0  0  0  0  0  0  0  0  0  0  0  0
   13.5708   -7.4796   -3.2547 H   0  0  0  0  0  0  0  0  0  0  0  0
   14.0206   -6.0258   -4.2236 H   0  0  0  0  0  0  0  0  0  0  0  0
   13.4377   -8.0599   -5.5982 H   0  0  0  0  0  0  0  0  0  0  0  0
   15.1017   -7.3793   -5.8852 H   0  0  0  0  0  0  0  0  0  0  0  0
   15.1305   -9.7384   -5.7909 H   0  0  0  0  0  0  0  0  0  0  0  0
   14.4355   -9.7182   -4.2407 H   0  0  0  0  0  0  0  0  0  0  0  0
   17.2698   -8.3333   -1.2903 H   0  0  0  0  0  0  0  0  0  0  0  0
  1  2  2  0
  1 17  1  0
  2 19  1  0
  3  4  1  0
  3  7  2  0
  4  5  2  0
  5  6  1  0
  6 17  2  0
  7 13  1  0
  7 17  1  0
  8 10  1  0
  8 19  1  0
  9 11  1  0
  9 12  1  0
  9 18  1  0
 10 11  1  0
 10 21  2  0
 12 14  1  0
 12 22  1  0
 13 19  1  0
 13 20  2  0
 14 15  1  0
 15 16  1  0
 16 18  1  0
  2 23  1  0
  3 24  1  0
  4 25  1  0
  5 26  1  0
  6 27  1  0
  8 28  1  0
  8 29  1  0
  9 30  1  6
 11 31  1  0
 11 32  1  0
 12 33  1  1
 14 34  1  0
 14 35  1  0
 15 36  1  0
 15 37  1  0
 16 38  1  0
 16 39  1  0
 18 40  1  0
 18 41  1  0
 22 42  1  0
M  CHG  1  18   1
M  END
>  <filename_input>  (26) 
7VC5_9SF_docked.sdf

>  <pdb_id>  (26) 
7VC5_9SF

>  <pose_rank>  (26) 
25

>  <num_atoms_heavy>  (26) 
22

>  <num_torsions>  (26) 
4

>  <pose>  (26) 
[17.355, -12.571, -2.769, 1e-06, 1e-06, 1e-06, 0.0, 0.0, 0.0, 0.0]

>  <energy>  (26) 
-1092.7986653276548

>  <inter_energy>  (26) 
-1110.6810568481894

>  <intra_energy>  (26) 
26.471268861053485

>  <rmsd>  (26) 
0.0

>  <sdf_rank>  (26) 
0

$$$$
