
     RDKit          3D

 25 25  0  0  0  0  0  0  0  0999 V2000
   15.6162    3.5023   34.9250 C   0  0  0  0  0  0  0  0  0  0  0  0
   15.4259    4.4396   36.1118 C   0  0  2  0  0  0  0  0  0  0  0  0
   16.6991    4.9136   36.5292 O   0  0  0  0  0  0  0  0  0  0  0  0
   14.7007    3.7364   37.2411 C   0  0  1  0  0  0  0  0  0  0  0  0
   14.4315    4.6745   38.2851 O   0  0  0  0  0  0  0  0  0  0  0  0
   13.3618    3.2128   36.7510 C   0  0  2  0  0  0  0  0  0  0  0  0
   12.6890    2.5138   37.8053 O   0  0  0  0  0  0  0  0  0  0  0  0
   13.5129    2.3241   35.5075 C   0  0  2  0  0  0  0  0  0  0  0  0
   14.3411    2.9590   34.4642 N   0  0  0  0  0  0  0  0  0  0  0  0
   12.1798    2.0128   34.8308 C   0  0  0  0  0  0  0  0  0  0  0  0
   11.4250    3.2236   34.5455 O   0  0  0  0  0  0  0  0  0  0  0  0
   16.0865    4.0591   34.1011 H   0  0  0  0  0  0  0  0  0  0  0  0
   16.2537    2.6647   35.2445 H   0  0  0  0  0  0  0  0  0  0  0  0
   14.8033    5.2958   35.8127 H   0  0  0  0  0  0  0  0  0  0  0  0
   16.7378    4.9280   37.5184 H   0  0  0  0  0  0  0  0  0  0  0  0
   15.3308    2.9096   37.6008 H   0  0  0  0  0  0  0  0  0  0  0  0
   14.5574    4.2357   39.1636 H   0  0  0  0  0  0  0  0  0  0  0  0
   12.7506    4.0774   36.4528 H   0  0  0  0  0  0  0  0  0  0  0  0
   13.0103    2.8477   38.6801 H   0  0  0  0  0  0  0  0  0  0  0  0
   13.9800    1.4069   35.8955 H   0  0  0  0  0  0  0  0  0  0  0  0
   13.7971    3.7301   34.0514 H   0  0  0  0  0  0  0  0  0  0  0  0
   14.5748    2.2137   33.7928 H   0  0  0  0  0  0  0  0  0  0  0  0
   12.3746    1.4834   33.8864 H   0  0  0  0  0  0  0  0  0  0  0  0
   11.5846    1.3912   35.5159 H   0  0  0  0  0  0  0  0  0  0  0  0
   11.1570    3.6535   35.3961 H   0  0  0  0  0  0  0  0  0  0  0  0
  1  2  1  0
  1  9  1  0
  2  3  1  0
  2  4  1  0
  4  5  1  0
  4  6  1  0
  6  7  1  0
  6  8  1  0
  8  9  1  0
  8 10  1  0
 10 11  1  0
  1 12  1  0
  1 13  1  0
  2 14  1  6
  3 15  1  0
  4 16  1  1
  5 17  1  0
  6 18  1  6
  7 19  1  0
  8 20  1  1
  9 21  1  0
  9 22  1  0
 10 23  1  0
 10 24  1  0
 11 25  1  0
M  CHG  1   9   1
M  END
>  <filename_input>  (1) 
7VKZ_NOJ_docked.sdf

>  <pdb_id>  (1) 
7VKZ_NOJ

>  <pose_rank>  (1) 
0

>  <num_atoms_heavy>  (1) 
11

>  <num_torsions>  (1) 
1

>  <pose>  (1) 
[15.61617979073463, 3.50227389195247, 34.9249937914585, -1.262471930181215, 0.10922841852957225, 2.894788654177878, 0.009447313064316062]

>  <energy>  (1) 
-576.4919544963533

>  <inter_energy>  (1) 
-565.1487766386517

>  <intra_energy>  (1) 
0.0

>  <rmsd>  (1) 
3.70532

>  <sdf_rank>  (1) 
0

$$$$

     RDKit          3D

 25 25  0  0  0  0  0  0  0  0999 V2000
   15.7780    3.2680   35.0360 C   0  0  0  0  0  0  0  0  0  0  0  0
   15.5517    3.9231   36.3935 C   0  0  2  0  0  0  0  0  0  0  0  0
   16.8146    4.2044   36.9820 O   0  0  0  0  0  0  0  0  0  0  0  0
   14.7120    3.0328   37.2866 C   0  0  1  0  0  0  0  0  0  0  0  0
   14.4175    3.7262   38.5011 O   0  0  0  0  0  0  0  0  0  0  0  0
   13.3864    2.7242   36.6123 C   0  0  2  0  0  0  0  0  0  0  0  0
   12.6045    1.8513   37.4367 O   0  0  0  0  0  0  0  0  0  0  0  0
   13.5802    2.1316   35.2087 C   0  0  2  0  0  0  0  0  0  0  0  0
   14.5129    2.9294   34.3893 N   0  0  0  0  0  0  0  0  0  0  0  0
   12.2848    2.0712   34.4023 C   0  0  0  0  0  0  0  0  0  0  0  0
   11.6652    3.3820   34.2797 O   0  0  0  0  0  0  0  0  0  0  0  0
   16.3344    3.9641   34.3911 H   0  0  0  0  0  0  0  0  0  0  0  0
   16.3467    2.3392   35.1907 H   0  0  0  0  0  0  0  0  0  0  0  0
   14.9974    4.8644   36.2638 H   0  0  0  0  0  0  0  0  0  0  0  0
   16.7305    4.1856   37.9682 H   0  0  0  0  0  0  0  0  0  0  0  0
   15.2711    2.1059   37.4824 H   0  0  0  0  0  0  0  0  0  0  0  0
   14.6595    3.1563   39.2736 H   0  0  0  0  0  0  0  0  0  0  0  0
   12.8437    3.6726   36.4862 H   0  0  0  0  0  0  0  0  0  0  0  0
   12.7827    2.0502   38.3900 H   0  0  0  0  0  0  0  0  0  0  0  0
   13.9702    1.1214   35.4016 H   0  0  0  0  0  0  0  0  0  0  0  0
   14.0405    3.8084   34.1342 H   0  0  0  0  0  0  0  0  0  0  0  0
   14.7553    2.3413   33.5792 H   0  0  0  0  0  0  0  0  0  0  0  0
   12.5090    1.6874   33.3961 H   0  0  0  0  0  0  0  0  0  0  0  0
   11.5832    1.4084   34.9300 H   0  0  0  0  0  0  0  0  0  0  0  0
   11.4910    3.7504   35.1819 H   0  0  0  0  0  0  0  0  0  0  0  0
  1  2  1  0
  1  9  1  0
  2  3  1  0
  2  4  1  0
  4  5  1  0
  4  6  1  0
  6  7  1  0
  6  8  1  0
  8  9  1  0
  8 10  1  0
 10 11  1  0
  1 12  1  0
  1 13  1  0
  2 14  1  6
  3 15  1  0
  4 16  1  1
  5 17  1  0
  6 18  1  6
  7 19  1  0
  8 20  1  1
  9 21  1  0
  9 22  1  0
 10 23  1  0
 10 24  1  0
 11 25  1  0
M  CHG  1   9   1
M  END
>  <filename_input>  (2) 
7VKZ_NOJ_docked.sdf

>  <pdb_id>  (2) 
7VKZ_NOJ

>  <pose_rank>  (2) 
1

>  <num_atoms_heavy>  (2) 
11

>  <num_torsions>  (2) 
1

>  <pose>  (2) 
[15.77797676730542, 3.2679767454176294, 35.03597690642056, 1.3983663286123482, 0.1927131528795131, -2.952076282572225, 0.08053137053580564]

>  <energy>  (2) 
-477.7210794943604

>  <inter_energy>  (2) 
-482.9559026476369

>  <intra_energy>  (2) 
0.0

>  <rmsd>  (2) 
3.67372

>  <sdf_rank>  (2) 
0

$$$$

     RDKit          3D

 25 25  0  0  0  0  0  0  0  0999 V2000
   15.3035    4.3492   35.8677 C   0  0  0  0  0  0  0  0  0  0  0  0
   14.6843    4.5565   37.2449 C   0  0  2  0  0  0  0  0  0  0  0  0
   15.7211    4.8412   38.1746 O   0  0  0  0  0  0  0  0  0  0  0  0
   13.8856    3.3390   37.6639 C   0  0  1  0  0  0  0  0  0  0  0  0
   13.2214    3.6129   38.8993 O   0  0  0  0  0  0  0  0  0  0  0  0
   12.8113    3.0434   36.6318 C   0  0  2  0  0  0  0  0  0  0  0  0
   12.0780    1.8702   37.0044 O   0  0  0  0  0  0  0  0  0  0  0  0
   13.3956    2.9037   35.2182 C   0  0  2  0  0  0  0  0  0  0  0  0
   14.2878    4.0261   34.8691 N   0  0  0  0  0  0  0  0  0  0  0  0
   12.3253    2.8849   34.1292 C   0  0  0  0  0  0  0  0  0  0  0  0
   12.4221    4.0471   33.2590 O   0  0  0  0  0  0  0  0  0  0  0  0
   15.8214    5.2715   35.5658 H   0  0  0  0  0  0  0  0  0  0  0  0
   16.0087    3.5072   35.9287 H   0  0  0  0  0  0  0  0  0  0  0  0
   13.9855    5.4054   37.2140 H   0  0  0  0  0  0  0  0  0  0  0  0
   15.3731    4.7457   39.0965 H   0  0  0  0  0  0  0  0  0  0  0  0
   14.5731    2.4858   37.7616 H   0  0  0  0  0  0  0  0  0  0  0  0
   13.8139    3.3686   39.6538 H   0  0  0  0  0  0  0  0  0  0  0  0
   12.1214    3.8998   36.6086 H   0  0  0  0  0  0  0  0  0  0  0  0
   12.0378    1.8058   37.9915 H   0  0  0  0  0  0  0  0  0  0  0  0
   13.9386    1.9477   35.2518 H   0  0  0  0  0  0  0  0  0  0  0  0
   13.7051    4.8632   34.7254 H   0  0  0  0  0  0  0  0  0  0  0  0
   14.8006    3.7310   34.0260 H   0  0  0  0  0  0  0  0  0  0  0  0
   12.4490    1.9750   33.5236 H   0  0  0  0  0  0  0  0  0  0  0  0
   11.3396    2.9031   34.6170 H   0  0  0  0  0  0  0  0  0  0  0  0
   12.4903    4.8669   33.8097 H   0  0  0  0  0  0  0  0  0  0  0  0
  1  2  1  0
  1  9  1  0
  2  3  1  0
  2  4  1  0
  4  5  1  0
  4  6  1  0
  6  7  1  0
  6  8  1  0
  8  9  1  0
  8 10  1  0
 10 11  1  0
  1 12  1  0
  1 13  1  0
  2 14  1  6
  3 15  1  0
  4 16  1  1
  5 17  1  0
  6 18  1  6
  7 19  1  0
  8 20  1  1
  9 21  1  0
  9 22  1  0
 10 23  1  0
 10 24  1  0
 11 25  1  0
M  CHG  1   9   1
M  END
>  <filename_input>  (3) 
7VKZ_NOJ_docked.sdf

>  <pdb_id>  (3) 
7VKZ_NOJ

>  <pose_rank>  (3) 
2

>  <num_atoms_heavy>  (3) 
11

>  <num_torsions>  (3) 
1

>  <pose>  (3) 
[15.30349276720456, 4.349212252489632, 35.86768483503018, -1.5556137251358704, -0.6852655299697414, 2.5614445035821385, 1.0934481021354097]

>  <energy>  (3) 
-499.8416688311613

>  <inter_energy>  (3) 
-505.85168434643583

>  <intra_energy>  (3) 
0.0

>  <rmsd>  (3) 
3.6736

>  <sdf_rank>  (3) 
0

$$$$

     RDKit          3D

 25 25  0  0  0  0  0  0  0  0999 V2000
   14.2880    2.8602   34.3735 C   0  0  0  0  0  0  0  0  0  0  0  0
   13.5926    2.0414   35.4548 C   0  0  2  0  0  0  0  0  0  0  0  0
   12.4210    1.4558   34.9029 O   0  0  0  0  0  0  0  0  0  0  0  0
   13.2653    2.9051   36.6559 C   0  0  1  0  0  0  0  0  0  0  0  0
   12.7273    2.0841   37.6947 O   0  0  0  0  0  0  0  0  0  0  0  0
   14.5333    3.5420   37.1976 C   0  0  2  0  0  0  0  0  0  0  0  0
   14.2236    4.3900   38.3102 O   0  0  0  0  0  0  0  0  0  0  0  0
   15.2981    4.3131   36.1115 C   0  0  2  0  0  0  0  0  0  0  0  0
   15.4901    3.5114   34.8875 N   0  0  0  0  0  0  0  0  0  0  0  0
   16.7019    4.7252   36.5485 C   0  0  0  0  0  0  0  0  0  0  0  0
   17.3246    5.6207   35.5854 O   0  0  0  0  0  0  0  0  0  0  0  0
   14.5688    2.1934   33.5449 H   0  0  0  0  0  0  0  0  0  0  0  0
   13.5927    3.6399   34.0292 H   0  0  0  0  0  0  0  0  0  0  0  0
   14.2634    1.2430   35.8051 H   0  0  0  0  0  0  0  0  0  0  0  0
   11.8248    1.1578   35.6349 H   0  0  0  0  0  0  0  0  0  0  0  0
   12.5465    3.6780   36.3460 H   0  0  0  0  0  0  0  0  0  0  0  0
   12.9749    2.4620   38.5756 H   0  0  0  0  0  0  0  0  0  0  0  0
   15.1958    2.7341   37.5416 H   0  0  0  0  0  0  0  0  0  0  0  0
   14.4009    3.9045   39.1545 H   0  0  0  0  0  0  0  0  0  0  0  0
   14.6696    5.1964   35.9247 H   0  0  0  0  0  0  0  0  0  0  0  0
   16.1858    2.7798   35.0920 H   0  0  0  0  0  0  0  0  0  0  0  0
   15.7901    4.1732   34.1574 H   0  0  0  0  0  0  0  0  0  0  0  0
   16.6370    5.2365   37.5203 H   0  0  0  0  0  0  0  0  0  0  0  0
   17.3188    3.8173   36.6209 H   0  0  0  0  0  0  0  0  0  0  0  0
   17.8185    6.3311   36.0667 H   0  0  0  0  0  0  0  0  0  0  0  0
  1  2  1  0
  1  9  1  0
  2  3  1  0
  2  4  1  0
  4  5  1  0
  4  6  1  0
  6  7  1  0
  6  8  1  0
  8  9  1  0
  8 10  1  0
 10 11  1  0
  1 12  1  0
  1 13  1  0
  2 14  1  1
  3 15  1  0
  4 16  1  6
  5 17  1  0
  6 18  1  1
  7 19  1  0
  8 20  1  6
  9 21  1  0
  9 22  1  0
 10 23  1  0
 10 24  1  0
 11 25  1  0
M  CHG  1   9   1
M  END
>  <filename_input>  (4) 
7VKZ_NOJ_docked.sdf

>  <pdb_id>  (4) 
7VKZ_NOJ

>  <pose_rank>  (4) 
3

>  <num_atoms_heavy>  (4) 
11

>  <num_torsions>  (4) 
1

>  <pose>  (4) 
[14.288026021817577, 2.8602105326673835, 34.37353756508074, 4.48832388859853, -1.4537768909814062, -3.9842659367661604, 2.382124730487457]

>  <energy>  (4) 
-510.18967556862214

>  <inter_energy>  (4) 
-499.1859541381376

>  <intra_energy>  (4) 
0.0

>  <rmsd>  (4) 
1.06443

>  <sdf_rank>  (4) 
0

$$$$

     RDKit          3D

 25 25  0  0  0  0  0  0  0  0999 V2000
   13.7965    2.9618   34.2920 C   0  0  0  0  0  0  0  0  0  0  0  0
   13.0266    2.1345   35.3148 C   0  0  2  0  0  0  0  0  0  0  0  0
   11.8142    1.6877   34.7227 O   0  0  0  0  0  0  0  0  0  0  0  0
   12.7640    2.9411   36.5703 C   0  0  1  0  0  0  0  0  0  0  0  0
   12.1511    2.1012   37.5508 O   0  0  0  0  0  0  0  0  0  0  0  0
   14.0769    3.4314   37.1557 C   0  0  2  0  0  0  0  0  0  0  0  0
   13.8312    4.2268   38.3219 O   0  0  0  0  0  0  0  0  0  0  0  0
   14.9119    4.2057   36.1250 C   0  0  2  0  0  0  0  0  0  0  0  0
   15.0452    3.4737   34.8505 N   0  0  0  0  0  0  0  0  0  0  0  0
   16.3421    4.4680   36.5913 C   0  0  0  0  0  0  0  0  0  0  0  0
   16.8912    3.3292   37.3115 O   0  0  0  0  0  0  0  0  0  0  0  0
   14.0265    2.3302   33.4212 H   0  0  0  0  0  0  0  0  0  0  0  0
   13.1717    3.8185   33.9992 H   0  0  0  0  0  0  0  0  0  0  0  0
   13.6253    1.2610   35.6123 H   0  0  0  0  0  0  0  0  0  0  0  0
   11.1679    1.4496   35.4338 H   0  0  0  0  0  0  0  0  0  0  0  0
   12.1150    3.7907   36.3113 H   0  0  0  0  0  0  0  0  0  0  0  0
   12.3871    2.4246   38.4563 H   0  0  0  0  0  0  0  0  0  0  0  0
   14.6666    2.5494   37.4463 H   0  0  0  0  0  0  0  0  0  0  0  0
   13.9989    3.6841   39.1327 H   0  0  0  0  0  0  0  0  0  0  0  0
   14.3613    5.1492   35.9965 H   0  0  0  0  0  0  0  0  0  0  0  0
   15.6753    2.6741   35.0071 H   0  0  0  0  0  0  0  0  0  0  0  0
   15.4052    4.1548   34.1669 H   0  0  0  0  0  0  0  0  0  0  0  0
   16.9718    4.6713   35.7126 H   0  0  0  0  0  0  0  0  0  0  0  0
   16.3273    5.3305   37.2739 H   0  0  0  0  0  0  0  0  0  0  0  0
   16.8151    3.4870   38.2858 H   0  0  0  0  0  0  0  0  0  0  0  0
  1  2  1  0
  1  9  1  0
  2  3  1  0
  2  4  1  0
  4  5  1  0
  4  6  1  0
  6  7  1  0
  6  8  1  0
  8  9  1  0
  8 10  1  0
 10 11  1  0
  1 12  1  0
  1 13  1  0
  2 14  1  1
  3 15  1  0
  4 16  1  6
  5 17  1  0
  6 18  1  1
  7 19  1  0
  8 20  1  6
  9 21  1  0
  9 22  1  0
 10 23  1  0
 10 24  1  0
 11 25  1  0
M  CHG  1   9   1
M  END
>  <filename_input>  (5) 
7VKZ_NOJ_docked.sdf

>  <pdb_id>  (5) 
7VKZ_NOJ

>  <pose_rank>  (5) 
4

>  <num_atoms_heavy>  (5) 
11

>  <num_torsions>  (5) 
1

>  <pose>  (5) 
[13.796490059587159, 2.9617655082114998, 34.29195893864531, 2.4261327735894063, -4.84467439284859, 3.1258806136517387, -6.51552950307275]

>  <energy>  (5) 
-484.9844190707711

>  <inter_energy>  (5) 
-474.43730755252864

>  <intra_energy>  (5) 
0.09018673116605253

>  <rmsd>  (5) 
0.479892

>  <sdf_rank>  (5) 
0

$$$$

     RDKit          3D

 25 25  0  0  0  0  0  0  0  0999 V2000
   13.7701    4.4516   34.6565 C   0  0  0  0  0  0  0  0  0  0  0  0
   13.1138    3.1142   34.9786 C   0  0  2  0  0  0  0  0  0  0  0  0
   12.0201    2.9160   34.0927 O   0  0  0  0  0  0  0  0  0  0  0  0
   12.6676    3.0693   36.4259 C   0  0  1  0  0  0  0  0  0  0  0  0
   12.1696    1.7636   36.7256 O   0  0  0  0  0  0  0  0  0  0  0  0
   13.8530    3.3195   37.3419 C   0  0  2  0  0  0  0  0  0  0  0  0
   13.4290    3.3159   38.7105 O   0  0  0  0  0  0  0  0  0  0  0  0
   14.5829    4.6251   36.9933 C   0  0  2  0  0  0  0  0  0  0  0  0
   14.8896    4.7264   35.5533 N   0  0  0  0  0  0  0  0  0  0  0  0
   15.9275    4.7652   37.7033 C   0  0  0  0  0  0  0  0  0  0  0  0
   17.0379    4.4312   36.8244 O   0  0  0  0  0  0  0  0  0  0  0  0
   14.1390    4.4287   33.6204 H   0  0  0  0  0  0  0  0  0  0  0  0
   13.0197    5.2453   34.7866 H   0  0  0  0  0  0  0  0  0  0  0  0
   13.8411    2.3006   34.8401 H   0  0  0  0  0  0  0  0  0  0  0  0
   11.1937    2.7664   34.6170 H   0  0  0  0  0  0  0  0  0  0  0  0
   11.8933    3.8357   36.5776 H   0  0  0  0  0  0  0  0  0  0  0  0
   12.1244    1.6450   37.7075 H   0  0  0  0  0  0  0  0  0  0  0  0
   14.5732    2.5016   37.1921 H   0  0  0  0  0  0  0  0  0  0  0  0
   14.2228    3.3226   39.3020 H   0  0  0  0  0  0  0  0  0  0  0  0
   13.8842    5.4109   37.3166 H   0  0  0  0  0  0  0  0  0  0  0  0
   15.6408    4.0548   35.3399 H   0  0  0  0  0  0  0  0  0  0  0  0
   15.1542    5.7078   35.3866 H   0  0  0  0  0  0  0  0  0  0  0  0
   16.0435    5.8043   38.0450 H   0  0  0  0  0  0  0  0  0  0  0  0
   15.9408    4.0668   38.5530 H   0  0  0  0  0  0  0  0  0  0  0  0
   17.8297    4.1930   37.3689 H   0  0  0  0  0  0  0  0  0  0  0  0
  1  2  1  0
  1  9  1  0
  2  3  1  0
  2  4  1  0
  4  5  1  0
  4  6  1  0
  6  7  1  0
  6  8  1  0
  8  9  1  0
  8 10  1  0
 10 11  1  0
  1 12  1  0
  1 13  1  0
  2 14  1  1
  3 15  1  0
  4 16  1  6
  5 17  1  0
  6 18  1  1
  7 19  1  0
  8 20  1  1
  9 21  1  0
  9 22  1  0
 10 23  1  0
 10 24  1  0
 11 25  1  0
M  CHG  1   9   1
M  END
>  <filename_input>  (6) 
7VKZ_NOJ_docked.sdf

>  <pdb_id>  (6) 
7VKZ_NOJ

>  <pose_rank>  (6) 
5

>  <num_atoms_heavy>  (6) 
11

>  <num_torsions>  (6) 
1

>  <pose>  (6) 
[13.770099247055327, 4.451563320920097, 34.65645388091447, -5.478091561551696, 0.6234231377696852, -1.455079308768177, 0.8490920988348014]

>  <energy>  (6) 
-442.6367014200372

>  <inter_energy>  (6) 
-440.54738955654256

>  <intra_energy>  (6) 
0.0

>  <rmsd>  (6) 
1.21333

>  <sdf_rank>  (6) 
0

$$$$

     RDKit          3D

 25 25  0  0  0  0  0  0  0  0999 V2000
   14.3383    4.5791   35.1123 C   0  0  0  0  0  0  0  0  0  0  0  0
   13.3501    3.7065   34.3473 C   0  0  2  0  0  0  0  0  0  0  0  0
   12.3429    4.5386   33.7876 O   0  0  0  0  0  0  0  0  0  0  0  0
   12.7528    2.6495   35.2538 C   0  0  1  0  0  0  0  0  0  0  0  0
   11.9274    1.7762   34.4801 O   0  0  0  0  0  0  0  0  0  0  0  0
   13.8578    1.8027   35.8612 C   0  0  2  0  0  0  0  0  0  0  0  0
   13.3001    0.8261   36.7490 O   0  0  0  0  0  0  0  0  0  0  0  0
   14.9121    2.6608   36.5760 C   0  0  2  0  0  0  0  0  0  0  0  0
   15.3876    3.7767   35.7354 N   0  0  0  0  0  0  0  0  0  0  0  0
   16.1666    1.8751   36.9513 C   0  0  0  0  0  0  0  0  0  0  0  0
   16.9020    1.4401   35.7736 O   0  0  0  0  0  0  0  0  0  0  0  0
   14.8005    5.2925   34.4142 H   0  0  0  0  0  0  0  0  0  0  0  0
   13.7902    5.1082   35.9058 H   0  0  0  0  0  0  0  0  0  0  0  0
   13.8721    3.1778   33.5361 H   0  0  0  0  0  0  0  0  0  0  0  0
   11.8256    4.9659   34.5156 H   0  0  0  0  0  0  0  0  0  0  0  0
   12.1728    3.1515   36.0423 H   0  0  0  0  0  0  0  0  0  0  0  0
   11.3897    1.2074   35.0862 H   0  0  0  0  0  0  0  0  0  0  0  0
   14.3730    1.2821   35.0405 H   0  0  0  0  0  0  0  0  0  0  0  0
   13.4585    1.1034   37.6861 H   0  0  0  0  0  0  0  0  0  0  0  0
   14.3912    3.0220   37.4750 H   0  0  0  0  0  0  0  0  0  0  0  0
   15.9747    3.3831   34.9862 H   0  0  0  0  0  0  0  0  0  0  0  0
   15.8958    4.4125   36.3666 H   0  0  0  0  0  0  0  0  0  0  0  0
   16.8190    2.5161   37.5623 H   0  0  0  0  0  0  0  0  0  0  0  0
   15.8560    0.9807   37.5112 H   0  0  0  0  0  0  0  0  0  0  0  0
   17.7191    0.9569   36.0546 H   0  0  0  0  0  0  0  0  0  0  0  0
  1  2  1  0
  1  9  1  0
  2  3  1  0
  2  4  1  0
  4  5  1  0
  4  6  1  0
  6  7  1  0
  6  8  1  0
  8  9  1  0
  8 10  1  0
 10 11  1  0
  1 12  1  0
  1 13  1  0
  2 14  1  6
  3 15  1  0
  4 16  1  1
  5 17  1  0
  6 18  1  6
  7 19  1  0
  8 20  1  1
  9 21  1  0
  9 22  1  0
 10 23  1  0
 10 24  1  0
 11 25  1  0
M  CHG  1   9   1
M  END
>  <filename_input>  (7) 
7VKZ_NOJ_docked.sdf

>  <pdb_id>  (7) 
7VKZ_NOJ

>  <pose_rank>  (7) 
6

>  <num_atoms_heavy>  (7) 
11

>  <num_torsions>  (7) 
1

>  <pose>  (7) 
[14.338296458793542, 4.579089046582448, 35.112288729979745, -4.729256036819194, 0.6544604978733285, 0.5500334963729604, 0.2502716682566388]

>  <energy>  (7) 
-410.0966697862353

>  <inter_energy>  (7) 
-395.7441128090647

>  <intra_energy>  (7) 
0.0

>  <rmsd>  (7) 
2.50187

>  <sdf_rank>  (7) 
0

$$$$

     RDKit          3D

 25 25  0  0  0  0  0  0  0  0999 V2000
   16.5009    2.0437   34.7028 C   0  0  0  0  0  0  0  0  0  0  0  0
   16.4056    1.9832   36.2228 C   0  0  2  0  0  0  0  0  0  0  0  0
   17.2818    0.9690   36.6961 O   0  0  0  0  0  0  0  0  0  0  0  0
   14.9780    1.7290   36.6621 C   0  0  1  0  0  0  0  0  0  0  0  0
   14.9035    1.7997   38.0876 O   0  0  0  0  0  0  0  0  0  0  0  0
   14.0653    2.8104   36.1101 C   0  0  2  0  0  0  0  0  0  0  0  0
   12.7083    2.5533   36.4911 O   0  0  0  0  0  0  0  0  0  0  0  0
   14.1944    2.9481   34.5858 C   0  0  2  0  0  0  0  0  0  0  0  0
   15.6008    3.0532   34.1514 N   0  0  0  0  0  0  0  0  0  0  0  0
   13.5085    4.1981   34.0392 C   0  0  0  0  0  0  0  0  0  0  0  0
   14.4020    5.3465   34.0401 O   0  0  0  0  0  0  0  0  0  0  0  0
   17.5341    2.2922   34.4187 H   0  0  0  0  0  0  0  0  0  0  0  0
   16.2096    1.0629   34.2987 H   0  0  0  0  0  0  0  0  0  0  0  0
   16.7079    2.9495   36.6526 H   0  0  0  0  0  0  0  0  0  0  0  0
   17.2820    0.9688   37.6861 H   0  0  0  0  0  0  0  0  0  0  0  0
   14.6697    0.7388   36.2955 H   0  0  0  0  0  0  0  0  0  0  0  0
   15.5617    1.1753   38.4838 H   0  0  0  0  0  0  0  0  0  0  0  0
   14.3794    3.7708   36.5449 H   0  0  0  0  0  0  0  0  0  0  0  0
   12.6396    2.5402   37.4787 H   0  0  0  0  0  0  0  0  0  0  0  0
   13.7161    2.0364   34.1984 H   0  0  0  0  0  0  0  0  0  0  0  0
   15.9521    3.9800   34.4317 H   0  0  0  0  0  0  0  0  0  0  0  0
   15.5962    2.9049   33.1322 H   0  0  0  0  0  0  0  0  0  0  0  0
   13.1806    4.0025   33.0077 H   0  0  0  0  0  0  0  0  0  0  0  0
   12.6513    4.4303   34.6883 H   0  0  0  0  0  0  0  0  0  0  0  0
   14.6043    5.6066   34.9736 H   0  0  0  0  0  0  0  0  0  0  0  0
  1  2  1  0
  1  9  1  0
  2  3  1  0
  2  4  1  0
  4  5  1  0
  4  6  1  0
  6  7  1  0
  6  8  1  0
  8  9  1  0
  8 10  1  0
 10 11  1  0
  1 12  1  0
  1 13  1  0
  2 14  1  1
  3 15  1  0
  4 16  1  6
  5 17  1  0
  6 18  1  1
  7 19  1  0
  8 20  1  6
  9 21  1  0
  9 22  1  0
 10 23  1  0
 10 24  1  0
 11 25  1  0
M  CHG  1   9   1
M  END
>  <filename_input>  (8) 
7VKZ_NOJ_docked.sdf

>  <pdb_id>  (8) 
7VKZ_NOJ

>  <pose_rank>  (8) 
7

>  <num_atoms_heavy>  (8) 
11

>  <num_torsions>  (8) 
1

>  <pose>  (8) 
[16.500866792251184, 2.0436876654915177, 34.702768521264794, 2.0961902376044375, 0.6012568286976923, -3.65070913004355, 0.6341650853946119]

>  <energy>  (8) 
-306.8344365632752

>  <inter_energy>  (8) 
-298.97310378716077

>  <intra_energy>  (8) 
0.0

>  <rmsd>  (8) 
3.31419

>  <sdf_rank>  (8) 
0

$$$$

     RDKit          3D

 25 25  0  0  0  0  0  0  0  0999 V2000
   14.8631    5.1682   34.5407 C   0  0  0  0  0  0  0  0  0  0  0  0
   13.7105    4.2261   34.2130 C   0  0  2  0  0  0  0  0  0  0  0  0
   12.7045    4.9563   33.5239 O   0  0  0  0  0  0  0  0  0  0  0  0
   13.1639    3.5870   35.4733 C   0  0  1  0  0  0  0  0  0  0  0  0
   12.1708    2.6218   35.1202 O   0  0  0  0  0  0  0  0  0  0  0  0
   14.2720    2.8460   36.2015 C   0  0  2  0  0  0  0  0  0  0  0  0
   13.7684    2.2719   37.4138 O   0  0  0  0  0  0  0  0  0  0  0  0
   15.4816    3.7507   36.4796 C   0  0  2  0  0  0  0  0  0  0  0  0
   15.9220    4.4808   35.2751 N   0  0  0  0  0  0  0  0  0  0  0  0
   16.7094    2.9765   36.9538 C   0  0  0  0  0  0  0  0  0  0  0  0
   16.6241    1.5662   36.6064 O   0  0  0  0  0  0  0  0  0  0  0  0
   15.2781    5.5655   33.6026 H   0  0  0  0  0  0  0  0  0  0  0  0
   14.4761    5.9815   35.1721 H   0  0  0  0  0  0  0  0  0  0  0  0
   14.0694    3.4108   33.5676 H   0  0  0  0  0  0  0  0  0  0  0  0
   12.1047    5.3916   34.1803 H   0  0  0  0  0  0  0  0  0  0  0  0
   12.7426    4.3770   36.1123 H   0  0  0  0  0  0  0  0  0  0  0  0
   11.7761    2.2382   35.9431 H   0  0  0  0  0  0  0  0  0  0  0  0
   14.6235    2.0361   35.5453 H   0  0  0  0  0  0  0  0  0  0  0  0
   14.1732    2.7334   38.1905 H   0  0  0  0  0  0  0  0  0  0  0  0
   15.1228    4.4357   37.2619 H   0  0  0  0  0  0  0  0  0  0  0  0
   16.3645    3.8042   34.6368 H   0  0  0  0  0  0  0  0  0  0  0  0
   16.5631    5.2159   35.6058 H   0  0  0  0  0  0  0  0  0  0  0  0
   17.6056    3.4061   36.4824 H   0  0  0  0  0  0  0  0  0  0  0  0
   16.7632    3.0569   38.0496 H   0  0  0  0  0  0  0  0  0  0  0  0
   16.5913    1.0238   37.4339 H   0  0  0  0  0  0  0  0  0  0  0  0
  1  2  1  0
  1  9  1  0
  2  3  1  0
  2  4  1  0
  4  5  1  0
  4  6  1  0
  6  7  1  0
  6  8  1  0
  8  9  1  0
  8 10  1  0
 10 11  1  0
  1 12  1  0
  1 13  1  0
  2 14  1  6
  3 15  1  0
  4 16  1  1
  5 17  1  0
  6 18  1  6
  7 19  1  0
  8 20  1  1
  9 21  1  0
  9 22  1  0
 10 23  1  0
 10 24  1  0
 11 25  1  0
M  CHG  1   9   1
M  END
>  <filename_input>  (9) 
7VKZ_NOJ_docked.sdf

>  <pdb_id>  (9) 
7VKZ_NOJ

>  <pose_rank>  (9) 
8

>  <num_atoms_heavy>  (9) 
11

>  <num_torsions>  (9) 
1

>  <pose>  (9) 
[14.863073998998782, 5.1681977225447975, 34.54065709695113, -4.88069499682771, 0.8415211796799973, 1.3134220061150963, 5.7171949168922565]

>  <energy>  (9) 
-349.0696319613999

>  <inter_energy>  (9) 
-352.16993105362445

>  <intra_energy>  (9) 
3.6652839606561955

>  <rmsd>  (9) 
2.21415

>  <sdf_rank>  (9) 
0

$$$$

     RDKit          3D

 25 25  0  0  0  0  0  0  0  0999 V2000
   14.1081    2.6556   34.4374 C   0  0  0  0  0  0  0  0  0  0  0  0
   12.8598    2.5775   35.3084 C   0  0  2  0  0  0  0  0  0  0  0  0
   11.7585    3.1003   34.5777 O   0  0  0  0  0  0  0  0  0  0  0  0
   13.0647    3.3261   36.6097 C   0  0  1  0  0  0  0  0  0  0  0  0
   11.9257    3.1309   37.4506 O   0  0  0  0  0  0  0  0  0  0  0  0
   14.2688    2.7654   37.3464 C   0  0  2  0  0  0  0  0  0  0  0  0
   14.4895    3.4953   38.5594 O   0  0  0  0  0  0  0  0  0  0  0  0
   15.5286    2.7603   36.4678 C   0  0  2  0  0  0  0  0  0  0  0  0
   15.2842    2.1552   35.1442 N   0  0  0  0  0  0  0  0  0  0  0  0
   16.6758    1.9552   37.0741 C   0  0  0  0  0  0  0  0  0  0  0  0
   16.9154    0.7222   36.3397 O   0  0  0  0  0  0  0  0  0  0  0  0
   13.9509    2.0512   33.5319 H   0  0  0  0  0  0  0  0  0  0  0  0
   14.2833    3.7101   34.1778 H   0  0  0  0  0  0  0  0  0  0  0  0
   12.6537    1.5288   35.5689 H   0  0  0  0  0  0  0  0  0  0  0  0
   11.0693    3.4275   35.2086 H   0  0  0  0  0  0  0  0  0  0  0  0
   13.2134    4.3918   36.3810 H   0  0  0  0  0  0  0  0  0  0  0  0
   12.2041    3.1786   38.3995 H   0  0  0  0  0  0  0  0  0  0  0  0
   14.0514    1.7169   37.5985 H   0  0  0  0  0  0  0  0  0  0  0  0
   14.3117    2.9071   39.3355 H   0  0  0  0  0  0  0  0  0  0  0  0
   15.7958    3.8242   36.3856 H   0  0  0  0  0  0  0  0  0  0  0  0
   15.1692    1.1400   35.2746 H   0  0  0  0  0  0  0  0  0  0  0  0
   16.0955    2.4069   34.5616 H   0  0  0  0  0  0  0  0  0  0  0  0
   17.5903    2.5662   37.0527 H   0  0  0  0  0  0  0  0  0  0  0  0
   16.4016    1.6917   38.1062 H   0  0  0  0  0  0  0  0  0  0  0  0
   17.0596   -0.0199   36.9789 H   0  0  0  0  0  0  0  0  0  0  0  0
  1  2  1  0
  1  9  1  0
  2  3  1  0
  2  4  1  0
  4  5  1  0
  4  6  1  0
  6  7  1  0
  6  8  1  0
  8  9  1  0
  8 10  1  0
 10 11  1  0
  1 12  1  0
  1 13  1  0
  2 14  1  1
  3 15  1  0
  4 16  1  6
  5 17  1  0
  6 18  1  1
  7 19  1  0
  8 20  1  6
  9 21  1  0
  9 22  1  0
 10 23  1  0
 10 24  1  0
 11 25  1  0
M  CHG  1   9   1
M  END
>  <filename_input>  (10) 
7VKZ_NOJ_docked.sdf

>  <pdb_id>  (10) 
7VKZ_NOJ

>  <pose_rank>  (10) 
9

>  <num_atoms_heavy>  (10) 
11

>  <num_torsions>  (10) 
1

>  <pose>  (10) 
[14.108104015750543, 2.6555894440238683, 34.4373756864515, -0.41461875441518115, 0.637968119839107, 5.447530269971077, 0.9969355679240833]

>  <energy>  (10) 
-455.80699081652074

>  <inter_energy>  (10) 
-458.51359863920095

>  <intra_energy>  (10) 
0.0

>  <rmsd>  (10) 
1.45764

>  <sdf_rank>  (10) 
0

$$$$

     RDKit          3D

 25 25  0  0  0  0  0  0  0  0999 V2000
   15.7857    3.2198   36.6272 C   0  0  0  0  0  0  0  0  0  0  0  0
   16.1366    4.4737   35.8349 C   0  0  2  0  0  0  0  0  0  0  0  0
   17.1013    5.2206   36.5641 O   0  0  0  0  0  0  0  0  0  0  0  0
   14.8961    5.2975   35.5554 C   0  0  1  0  0  0  0  0  0  0  0  0
   15.2409    6.3973   34.7103 O   0  0  0  0  0  0  0  0  0  0  0  0
   13.8744    4.4588   34.8073 C   0  0  2  0  0  0  0  0  0  0  0  0
   12.6844    5.2220   34.5742 O   0  0  0  0  0  0  0  0  0  0  0  0
   13.5554    3.1497   35.5444 C   0  0  2  0  0  0  0  0  0  0  0  0
   14.7754    2.4196   35.9399 N   0  0  0  0  0  0  0  0  0  0  0  0
   12.7541    2.1661   34.6945 C   0  0  0  0  0  0  0  0  0  0  0  0
   11.3263    2.4396   34.7566 O   0  0  0  0  0  0  0  0  0  0  0  0
   16.6941    2.6134   36.7581 H   0  0  0  0  0  0  0  0  0  0  0  0
   15.3784    3.5288   37.6012 H   0  0  0  0  0  0  0  0  0  0  0  0
   16.5618    4.1906   34.8607 H   0  0  0  0  0  0  0  0  0  0  0  0
   16.9467    5.1009   37.5346 H   0  0  0  0  0  0  0  0  0  0  0  0
   14.4834    5.6454   36.5138 H   0  0  0  0  0  0  0  0  0  0  0  0
   15.4855    7.1779   35.2679 H   0  0  0  0  0  0  0  0  0  0  0  0
   14.3123    4.1803   33.8374 H   0  0  0  0  0  0  0  0  0  0  0  0
   12.2825    5.4798   35.4414 H   0  0  0  0  0  0  0  0  0  0  0  0
   12.9748    3.4760   36.4199 H   0  0  0  0  0  0  0  0  0  0  0  0
   15.2034    2.0298   35.0880 H   0  0  0  0  0  0  0  0  0  0  0  0
   14.4724    1.7025   36.6144 H   0  0  0  0  0  0  0  0  0  0  0  0
   13.0869    2.2450   33.6490 H   0  0  0  0  0  0  0  0  0  0  0  0
   12.9266    1.1535   35.0880 H   0  0  0  0  0  0  0  0  0  0  0  0
   11.0417    2.4941   35.7032 H   0  0  0  0  0  0  0  0  0  0  0  0
  1  2  1  0
  1  9  1  0
  2  3  1  0
  2  4  1  0
  4  5  1  0
  4  6  1  0
  6  7  1  0
  6  8  1  0
  8  9  1  0
  8 10  1  0
 10 11  1  0
  1 12  1  0
  1 13  1  0
  2 14  1  6
  3 15  1  0
  4 16  1  1
  5 17  1  0
  6 18  1  6
  7 19  1  0
  8 20  1  1
  9 21  1  0
  9 22  1  0
 10 23  1  0
 10 24  1  0
 11 25  1  0
M  CHG  1   9   1
M  END
>  <filename_input>  (11) 
7VKZ_NOJ_docked.sdf

>  <pdb_id>  (11) 
7VKZ_NOJ

>  <pose_rank>  (11) 
10

>  <num_atoms_heavy>  (11) 
11

>  <num_torsions>  (11) 
1

>  <pose>  (11) 
[15.785673546138087, 3.219778456200117, 36.6271818947716, -1.9859918604411255, 2.1418772954005743, 1.2620368463136007, -2.386302081846325]

>  <energy>  (11) 
-448.4837248117073

>  <inter_energy>  (11) 
-443.34319397648886

>  <intra_energy>  (11) 
2.67171385784163

>  <rmsd>  (11) 
4.42785

>  <sdf_rank>  (11) 
0

$$$$

     RDKit          3D

 25 25  0  0  0  0  0  0  0  0999 V2000
   14.6584    4.7982   35.8266 C   0  0  0  0  0  0  0  0  0  0  0  0
   13.6787    4.1660   34.8449 C   0  0  2  0  0  0  0  0  0  0  0  0
   12.9449    5.1993   34.2014 O   0  0  0  0  0  0  0  0  0  0  0  0
   12.7580    3.1945   35.5550 C   0  0  1  0  0  0  0  0  0  0  0  0
   11.9374    2.5317   34.5907 O   0  0  0  0  0  0  0  0  0  0  0  0
   13.5757    2.1261   36.2598 C   0  0  2  0  0  0  0  0  0  0  0  0
   12.7109    1.2269   36.9644 O   0  0  0  0  0  0  0  0  0  0  0  0
   14.6257    2.7342   37.2014 C   0  0  2  0  0  0  0  0  0  0  0  0
   15.4273    3.7829   36.5416 N   0  0  0  0  0  0  0  0  0  0  0  0
   15.6390    1.7096   37.7068 C   0  0  0  0  0  0  0  0  0  0  0  0
   17.0028    2.0909   37.3725 O   0  0  0  0  0  0  0  0  0  0  0  0
   15.3519    5.4473   35.2719 H   0  0  0  0  0  0  0  0  0  0  0  0
   14.0838    5.3792   36.5629 H   0  0  0  0  0  0  0  0  0  0  0  0
   14.2312    3.5912   34.0870 H   0  0  0  0  0  0  0  0  0  0  0  0
   12.5299    5.7838   34.8843 H   0  0  0  0  0  0  0  0  0  0  0  0
   12.1485    3.7551   36.2790 H   0  0  0  0  0  0  0  0  0  0  0  0
   11.2581    1.9829   35.0569 H   0  0  0  0  0  0  0  0  0  0  0  0
   14.1248    1.5609   35.4922 H   0  0  0  0  0  0  0  0  0  0  0  0
   12.8299    1.3506   37.9394 H   0  0  0  0  0  0  0  0  0  0  0  0
   14.0298    3.1400   38.0322 H   0  0  0  0  0  0  0  0  0  0  0  0
   16.0560    3.3253   35.8661 H   0  0  0  0  0  0  0  0  0  0  0  0
   15.9232    4.2794   37.2956 H   0  0  0  0  0  0  0  0  0  0  0  0
   15.5492    1.6290   38.8001 H   0  0  0  0  0  0  0  0  0  0  0  0
   15.4236    0.7463   37.2213 H   0  0  0  0  0  0  0  0  0  0  0  0
   17.5186    2.2351   38.2051 H   0  0  0  0  0  0  0  0  0  0  0  0
  1  2  1  0
  1  9  1  0
  2  3  1  0
  2  4  1  0
  4  5  1  0
  4  6  1  0
  6  7  1  0
  6  8  1  0
  8  9  1  0
  8 10  1  0
 10 11  1  0
  1 12  1  0
  1 13  1  0
  2 14  1  6
  3 15  1  0
  4 16  1  1
  5 17  1  0
  6 18  1  6
  7 19  1  0
  8 20  1  1
  9 21  1  0
  9 22  1  0
 10 23  1  0
 10 24  1  0
 11 25  1  0
M  CHG  1   9   1
M  END
>  <filename_input>  (12) 
7VKZ_NOJ_docked.sdf

>  <pdb_id>  (12) 
7VKZ_NOJ

>  <pose_rank>  (12) 
11

>  <num_atoms_heavy>  (12) 
11

>  <num_torsions>  (12) 
1

>  <pose>  (12) 
[14.658439193189457, 4.798183747849208, 35.82656265472203, 1.516590267462208, -0.4701332368276184, -0.2046310846968979, 1.227607183142784]

>  <energy>  (12) 
-384.8160659955127

>  <inter_energy>  (12) 
-393.25145119330955

>  <intra_energy>  (12) 
0.0

>  <rmsd>  (12) 
2.51815

>  <sdf_rank>  (12) 
0

$$$$

     RDKit          3D

 25 25  0  0  0  0  0  0  0  0999 V2000
   13.9719    2.9412   34.0743 C   0  0  0  0  0  0  0  0  0  0  0  0
   13.1941    2.2999   35.2175 C   0  0  2  0  0  0  0  0  0  0  0  0
   11.8660    2.0441   34.7805 O   0  0  0  0  0  0  0  0  0  0  0  0
   13.2105    3.1893   36.4441 C   0  0  1  0  0  0  0  0  0  0  0  0
   12.5797    2.5069   37.5299 O   0  0  0  0  0  0  0  0  0  0  0  0
   14.6436    3.4704   36.8615 C   0  0  2  0  0  0  0  0  0  0  0  0
   14.6647    4.3423   37.9984 O   0  0  0  0  0  0  0  0  0  0  0  0
   15.4754    4.0481   35.7069 C   0  0  2  0  0  0  0  0  0  0  0  0
   15.3425    3.2536   34.4704 N   0  0  0  0  0  0  0  0  0  0  0  0
   16.9723    4.0800   36.0073 C   0  0  0  0  0  0  0  0  0  0  0  0
   17.6731    2.9758   35.3696 O   0  0  0  0  0  0  0  0  0  0  0  0
   13.9954    2.2452   33.2228 H   0  0  0  0  0  0  0  0  0  0  0  0
   13.4693    3.8799   33.7978 H   0  0  0  0  0  0  0  0  0  0  0  0
   13.6687    1.3493   35.5023 H   0  0  0  0  0  0  0  0  0  0  0  0
   11.2759    1.9305   35.5673 H   0  0  0  0  0  0  0  0  0  0  0  0
   12.6868    4.1264   36.2042 H   0  0  0  0  0  0  0  0  0  0  0  0
   12.9155    2.8701   38.3875 H   0  0  0  0  0  0  0  0  0  0  0  0
   15.1072    2.5128   37.1409 H   0  0  0  0  0  0  0  0  0  0  0  0
   14.6516    3.8027   38.8283 H   0  0  0  0  0  0  0  0  0  0  0  0
   15.0783    5.0662   35.5808 H   0  0  0  0  0  0  0  0  0  0  0  0
   15.8446    2.3648   34.6077 H   0  0  0  0  0  0  0  0  0  0  0  0
   15.7322    3.8349   33.7148 H   0  0  0  0  0  0  0  0  0  0  0  0
   17.3899    5.0281   35.6377 H   0  0  0  0  0  0  0  0  0  0  0  0
   17.1055    3.9879   37.0953 H   0  0  0  0  0  0  0  0  0  0  0  0
   18.0513    2.3800   36.0640 H   0  0  0  0  0  0  0  0  0  0  0  0
  1  2  1  0
  1  9  1  0
  2  3  1  0
  2  4  1  0
  4  5  1  0
  4  6  1  0
  6  7  1  0
  6  8  1  0
  8  9  1  0
  8 10  1  0
 10 11  1  0
  1 12  1  0
  1 13  1  0
  2 14  1  1
  3 15  1  0
  4 16  1  6
  5 17  1  0
  6 18  1  1
  7 19  1  0
  8 20  1  6
  9 21  1  0
  9 22  1  0
 10 23  1  0
 10 24  1  0
 11 25  1  0
M  CHG  1   9   1
M  END
>  <filename_input>  (13) 
7VKZ_NOJ_docked.sdf

>  <pdb_id>  (13) 
7VKZ_NOJ

>  <pose_rank>  (13) 
12

>  <num_atoms_heavy>  (13) 
11

>  <num_torsions>  (13) 
1

>  <pose>  (13) 
[13.971856231639908, 2.941237521480103, 34.07426187602222, 1.5419793288396508, -3.379691272186753, 4.775501200994091, 0.8494863310509436]

>  <energy>  (13) 
-428.0593568748727

>  <inter_energy>  (13) 
-424.7665100013681

>  <intra_energy>  (13) 
0.0

>  <rmsd>  (13) 
1.04103

>  <sdf_rank>  (13) 
0

$$$$

     RDKit          3D

 25 25  0  0  0  0  0  0  0  0999 V2000
   15.9583    2.5139   35.3727 C   0  0  0  0  0  0  0  0  0  0  0  0
   15.9736    3.7142   36.3120 C   0  0  2  0  0  0  0  0  0  0  0  0
   17.3081    3.9377   36.7471 O   0  0  0  0  0  0  0  0  0  0  0  0
   15.0403    3.4909   37.4846 C   0  0  1  0  0  0  0  0  0  0  0  0
   14.9860    4.6791   38.2769 O   0  0  0  0  0  0  0  0  0  0  0  0
   13.6325    3.2205   36.9826 C   0  0  2  0  0  0  0  0  0  0  0  0
   12.7540    2.9710   38.0866 O   0  0  0  0  0  0  0  0  0  0  0  0
   13.5947    2.0628   35.9741 C   0  0  2  0  0  0  0  0  0  0  0  0
   14.6055    2.2157   34.9098 N   0  0  0  0  0  0  0  0  0  0  0  0
   12.2569    1.9482   35.2468 C   0  0  0  0  0  0  0  0  0  0  0  0
   12.4277    1.9487   33.8018 O   0  0  0  0  0  0  0  0  0  0  0  0
   16.5942    2.7327   34.5022 H   0  0  0  0  0  0  0  0  0  0  0  0
   16.3362    1.6394   35.9228 H   0  0  0  0  0  0  0  0  0  0  0  0
   15.6142    4.6071   35.7795 H   0  0  0  0  0  0  0  0  0  0  0  0
   17.3362    3.9424   37.7367 H   0  0  0  0  0  0  0  0  0  0  0  0
   15.4123    2.6376   38.0707 H   0  0  0  0  0  0  0  0  0  0  0  0
   14.9971    4.4365   39.2367 H   0  0  0  0  0  0  0  0  0  0  0  0
   13.2862    4.1188   36.4503 H   0  0  0  0  0  0  0  0  0  0  0  0
   13.2435    3.1101   38.9358 H   0  0  0  0  0  0  0  0  0  0  0  0
   13.7845    1.1715   36.5902 H   0  0  0  0  0  0  0  0  0  0  0  0
   14.3040    2.9830   34.2923 H   0  0  0  0  0  0  0  0  0  0  0  0
   14.6610    1.3028   34.4360 H   0  0  0  0  0  0  0  0  0  0  0  0
   11.7670    1.0103   35.5474 H   0  0  0  0  0  0  0  0  0  0  0  0
   11.6428    2.8190   35.5196 H   0  0  0  0  0  0  0  0  0  0  0  0
   13.3934    1.9515   33.5837 H   0  0  0  0  0  0  0  0  0  0  0  0
  1  2  1  0
  1  9  1  0
  2  3  1  0
  2  4  1  0
  4  5  1  0
  4  6  1  0
  6  7  1  0
  6  8  1  0
  8  9  1  0
  8 10  1  0
 10 11  1  0
  1 12  1  0
  1 13  1  0
  2 14  1  6
  3 15  1  0
  4 16  1  1
  5 17  1  0
  6 18  1  6
  7 19  1  0
  8 20  1  1
  9 21  1  0
  9 22  1  0
 10 23  1  0
 10 24  1  0
 11 25  1  0
M  CHG  1   9   1
M  END
>  <filename_input>  (14) 
7VKZ_NOJ_docked.sdf

>  <pdb_id>  (14) 
7VKZ_NOJ

>  <pose_rank>  (14) 
13

>  <num_atoms_heavy>  (14) 
11

>  <num_torsions>  (14) 
1

>  <pose>  (14) 
[15.958284232923656, 2.513868731859283, 35.37271228467944, 1.3830024839990502, -0.6185564555515521, -2.905889720614986, 1.2917034440285526]

>  <energy>  (14) 
-483.85113363710906

>  <inter_energy>  (14) 
-480.00726967852216

>  <intra_energy>  (14) 
0.0

>  <rmsd>  (14) 
3.67197

>  <sdf_rank>  (14) 
0

$$$$

     RDKit          3D

 25 25  0  0  0  0  0  0  0  0999 V2000
   13.8830    2.8657   34.1914 C   0  0  0  0  0  0  0  0  0  0  0  0
   13.0469    2.0992   35.2096 C   0  0  2  0  0  0  0  0  0  0  0  0
   11.8236    1.7117   34.5983 O   0  0  0  0  0  0  0  0  0  0  0  0
   12.8044    2.9389   36.4472 C   0  0  1  0  0  0  0  0  0  0  0  0
   12.1252    2.1503   37.4266 O   0  0  0  0  0  0  0  0  0  0  0  0
   14.1306    3.3641   37.0533 C   0  0  2  0  0  0  0  0  0  0  0  0
   13.9062    4.1903   38.2022 O   0  0  0  0  0  0  0  0  0  0  0  0
   15.0288    4.0740   36.0295 C   0  0  2  0  0  0  0  0  0  0  0  0
   15.1468    3.3156   34.7691 N   0  0  0  0  0  0  0  0  0  0  0  0
   16.4617    4.2631   36.5224 C   0  0  0  0  0  0  0  0  0  0  0  0
   16.9102    5.6377   36.3594 O   0  0  0  0  0  0  0  0  0  0  0  0
   14.0949    2.2086   33.3351 H   0  0  0  0  0  0  0  0  0  0  0  0
   13.3136    3.7513   33.8729 H   0  0  0  0  0  0  0  0  0  0  0  0
   13.5892    1.1982   35.5325 H   0  0  0  0  0  0  0  0  0  0  0  0
   11.1569    1.5005   35.2990 H   0  0  0  0  0  0  0  0  0  0  0  0
   12.2098    3.8193   36.1621 H   0  0  0  0  0  0  0  0  0  0  0  0
   12.3858    2.4529   38.3325 H   0  0  0  0  0  0  0  0  0  0  0  0
   14.6635    2.4552   37.3693 H   0  0  0  0  0  0  0  0  0  0  0  0
   14.0507    3.6583   39.0246 H   0  0  0  0  0  0  0  0  0  0  0  0
   14.5351    5.0448   35.8755 H   0  0  0  0  0  0  0  0  0  0  0  0
   15.7275    2.4846   34.9507 H   0  0  0  0  0  0  0  0  0  0  0  0
   15.5586    3.9646   34.0834 H   0  0  0  0  0  0  0  0  0  0  0  0
   16.5100    3.9965   37.5885 H   0  0  0  0  0  0  0  0  0  0  0  0
   17.1185    3.6150   35.9236 H   0  0  0  0  0  0  0  0  0  0  0  0
   17.0444    6.0488   37.2499 H   0  0  0  0  0  0  0  0  0  0  0  0
  1  2  1  0
  1  9  1  0
  2  3  1  0
  2  4  1  0
  4  5  1  0
  4  6  1  0
  6  7  1  0
  6  8  1  0
  8  9  1  0
  8 10  1  0
 10 11  1  0
  1 12  1  0
  1 13  1  0
  2 14  1  1
  3 15  1  0
  4 16  1  6
  5 17  1  0
  6 18  1  1
  7 19  1  0
  8 20  1  6
  9 21  1  0
  9 22  1  0
 10 23  1  0
 10 24  1  0
 11 25  1  0
M  CHG  1   9   1
M  END
>  <filename_input>  (15) 
7VKZ_NOJ_docked.sdf

>  <pdb_id>  (15) 
7VKZ_NOJ

>  <pose_rank>  (15) 
14

>  <num_atoms_heavy>  (15) 
11

>  <num_torsions>  (15) 
1

>  <pose>  (15) 
[13.88300117201421, 2.8657129443580724, 34.191438899573214, 2.0981620161862864, -0.07111965271084313, 5.842594424012808, -3.1746243835261017]

>  <energy>  (15) 
-476.9089383945235

>  <inter_energy>  (15) 
-478.64985378942106

>  <intra_energy>  (15) 
0.0

>  <rmsd>  (15) 
0.988795

>  <sdf_rank>  (15) 
0

$$$$

     RDKit          3D

 25 25  0  0  0  0  0  0  0  0999 V2000
   16.1507    2.7374   35.3199 C   0  0  0  0  0  0  0  0  0  0  0  0
   16.0332    3.9443   36.2434 C   0  0  2  0  0  0  0  0  0  0  0  0
   17.3391    4.3648   36.6151 O   0  0  0  0  0  0  0  0  0  0  0  0
   15.1931    3.6109   37.4594 C   0  0  1  0  0  0  0  0  0  0  0  0
   15.0022    4.7931   38.2394 O   0  0  0  0  0  0  0  0  0  0  0  0
   13.8187    3.1323   37.0247 C   0  0  2  0  0  0  0  0  0  0  0  0
   13.0335    2.7795   38.1701 O   0  0  0  0  0  0  0  0  0  0  0  0
   13.9048    1.9630   36.0326 C   0  0  2  0  0  0  0  0  0  0  0  0
   14.8363    2.2400   34.9220 N   0  0  0  0  0  0  0  0  0  0  0  0
   12.5675    1.6446   35.3678 C   0  0  0  0  0  0  0  0  0  0  0  0
   12.6542    1.7255   33.9176 O   0  0  0  0  0  0  0  0  0  0  0  0
   16.7104    3.0293   34.4191 H   0  0  0  0  0  0  0  0  0  0  0  0
   16.6739    1.9363   35.8626 H   0  0  0  0  0  0  0  0  0  0  0  0
   15.5264    4.7667   35.7171 H   0  0  0  0  0  0  0  0  0  0  0  0
   17.4099    4.3876   37.6023 H   0  0  0  0  0  0  0  0  0  0  0  0
   15.7089    2.8305   38.0381 H   0  0  0  0  0  0  0  0  0  0  0  0
   15.0393    4.5632   39.2016 H   0  0  0  0  0  0  0  0  0  0  0  0
   13.3241    3.9618   36.4980 H   0  0  0  0  0  0  0  0  0  0  0  0
   13.5333    3.0041   38.9946 H   0  0  0  0  0  0  0  0  0  0  0  0
   14.2473    1.1195   36.6499 H   0  0  0  0  0  0  0  0  0  0  0  0
   14.4012    2.9448   34.3098 H   0  0  0  0  0  0  0  0  0  0  0  0
   15.0024    1.3361   34.4570 H   0  0  0  0  0  0  0  0  0  0  0  0
   12.2626    0.6262   35.6504 H   0  0  0  0  0  0  0  0  0  0  0  0
   11.8300    2.3860   35.7089 H   0  0  0  0  0  0  0  0  0  0  0  0
   13.3540    2.3784   33.6647 H   0  0  0  0  0  0  0  0  0  0  0  0
  1  2  1  0
  1  9  1  0
  2  3  1  0
  2  4  1  0
  4  5  1  0
  4  6  1  0
  6  7  1  0
  6  8  1  0
  8  9  1  0
  8 10  1  0
 10 11  1  0
  1 12  1  0
  1 13  1  0
  2 14  1  6
  3 15  1  0
  4 16  1  1
  5 17  1  0
  6 18  1  6
  7 19  1  0
  8 20  1  1
  9 21  1  0
  9 22  1  0
 10 23  1  0
 10 24  1  0
 11 25  1  0
M  CHG  1   9   1
M  END
>  <filename_input>  (16) 
7VKZ_NOJ_docked.sdf

>  <pdb_id>  (16) 
7VKZ_NOJ

>  <pose_rank>  (16) 
15

>  <num_atoms_heavy>  (16) 
11

>  <num_torsions>  (16) 
1

>  <pose>  (16) 
[16.1506524281519, 2.7374311436123144, 35.31990953795116, 1.2988743115110568, -0.5189282118086017, -2.805080959838057, 1.229182218069328]

>  <energy>  (16) 
-497.32127103905674

>  <inter_energy>  (16) 
-489.26148130713693

>  <intra_energy>  (16) 
0.0

>  <rmsd>  (16) 
3.67539

>  <sdf_rank>  (16) 
0

$$$$

     RDKit          3D

 25 25  0  0  0  0  0  0  0  0999 V2000
   14.2266    2.9085   34.4510 C   0  0  0  0  0  0  0  0  0  0  0  0
   13.5500    1.9366   35.4106 C   0  0  2  0  0  0  0  0  0  0  0  0
   12.4082    1.3823   34.7708 O   0  0  0  0  0  0  0  0  0  0  0  0
   13.1757    2.6314   36.7040 C   0  0  1  0  0  0  0  0  0  0  0  0
   12.6569    1.6683   37.6237 O   0  0  0  0  0  0  0  0  0  0  0  0
   14.4120    3.2413   37.3415 C   0  0  2  0  0  0  0  0  0  0  0  0
   14.0570    3.9321   38.5455 O   0  0  0  0  0  0  0  0  0  0  0  0
   15.1599    4.1689   36.3724 C   0  0  2  0  0  0  0  0  0  0  0  0
   15.3969    3.5336   35.0617 N   0  0  0  0  0  0  0  0  0  0  0  0
   16.5417    4.5739   36.8805 C   0  0  0  0  0  0  0  0  0  0  0  0
   17.3248    5.2314   35.8452 O   0  0  0  0  0  0  0  0  0  0  0  0
   14.5425    2.3608   33.5508 H   0  0  0  0  0  0  0  0  0  0  0  0
   13.5063    3.6993   34.1947 H   0  0  0  0  0  0  0  0  0  0  0  0
   14.2463    1.1256   35.6701 H   0  0  0  0  0  0  0  0  0  0  0  0
   11.7651    1.0701   35.4558 H   0  0  0  0  0  0  0  0  0  0  0  0
   12.4318    3.4103   36.4806 H   0  0  0  0  0  0  0  0  0  0  0  0
   12.8220    1.9747   38.5505 H   0  0  0  0  0  0  0  0  0  0  0  0
   15.1006    2.4213   37.5935 H   0  0  0  0  0  0  0  0  0  0  0  0
   14.3337    3.3937   39.3288 H   0  0  0  0  0  0  0  0  0  0  0  0
   14.5006    5.0453   36.2863 H   0  0  0  0  0  0  0  0  0  0  0  0
   16.1173    2.8079   35.1853 H   0  0  0  0  0  0  0  0  0  0  0  0
   15.6803    4.2916   34.4245 H   0  0  0  0  0  0  0  0  0  0  0  0
   16.4215    5.2639   37.7287 H   0  0  0  0  0  0  0  0  0  0  0  0
   17.0752    3.6620   37.1865 H   0  0  0  0  0  0  0  0  0  0  0  0
   18.0109    5.8075   36.2663 H   0  0  0  0  0  0  0  0  0  0  0  0
  1  2  1  0
  1  9  1  0
  2  3  1  0
  2  4  1  0
  4  5  1  0
  4  6  1  0
  6  7  1  0
  6  8  1  0
  8  9  1  0
  8 10  1  0
 10 11  1  0
  1 12  1  0
  1 13  1  0
  2 14  1  1
  3 15  1  0
  4 16  1  6
  5 17  1  0
  6 18  1  1
  7 19  1  0
  8 20  1  6
  9 21  1  0
  9 22  1  0
 10 23  1  0
 10 24  1  0
 11 25  1  0
M  CHG  1   9   1
M  END
>  <filename_input>  (17) 
7VKZ_NOJ_docked.sdf

>  <pdb_id>  (17) 
7VKZ_NOJ

>  <pose_rank>  (17) 
16

>  <num_atoms_heavy>  (17) 
11

>  <num_torsions>  (17) 
1

>  <pose>  (17) 
[14.22664601817744, 2.90845288245407, 34.45099950209891, 2.4770036538141, 0.2877994601313357, 5.894361506830316, -4.244428992570997]

>  <energy>  (17) 
-466.54002182809836

>  <inter_energy>  (17) 
-457.677849305116

>  <intra_energy>  (17) 
0.0

>  <rmsd>  (17) 
0.877296

>  <sdf_rank>  (17) 
0

$$$$

     RDKit          3D

 25 25  0  0  0  0  0  0  0  0999 V2000
   13.9655    3.9089   34.1807 C   0  0  0  0  0  0  0  0  0  0  0  0
   12.9256    2.9345   34.7215 C   0  0  2  0  0  0  0  0  0  0  0  0
   11.6318    3.4000   34.3618 O   0  0  0  0  0  0  0  0  0  0  0  0
   13.0606    2.7831   36.2230 C   0  0  1  0  0  0  0  0  0  0  0  0
   12.1557    1.7751   36.6787 O   0  0  0  0  0  0  0  0  0  0  0  0
   14.4638    2.3191   36.5732 C   0  0  2  0  0  0  0  0  0  0  0  0
   14.6079    2.2112   37.9947 O   0  0  0  0  0  0  0  0  0  0  0  0
   15.5389    3.2401   35.9775 C   0  0  2  0  0  0  0  0  0  0  0  0
   15.3200    3.4982   34.5411 N   0  0  0  0  0  0  0  0  0  0  0  0
   16.9460    2.6545   36.0726 C   0  0  0  0  0  0  0  0  0  0  0  0
   16.9344    1.2039   35.9587 O   0  0  0  0  0  0  0  0  0  0  0  0
   13.8833    3.9479   33.0845 H   0  0  0  0  0  0  0  0  0  0  0  0
   13.7751    4.8982   34.6222 H   0  0  0  0  0  0  0  0  0  0  0  0
   13.0853    1.9390   34.2815 H   0  0  0  0  0  0  0  0  0  0  0  0
   11.1091    3.5880   35.1813 H   0  0  0  0  0  0  0  0  0  0  0  0
   12.8458    3.7539   36.6936 H   0  0  0  0  0  0  0  0  0  0  0  0
   12.1456    1.7639   37.6685 H   0  0  0  0  0  0  0  0  0  0  0  0
   14.6116    1.3251   36.1258 H   0  0  0  0  0  0  0  0  0  0  0  0
   13.9000    2.7415   38.4393 H   0  0  0  0  0  0  0  0  0  0  0  0
   15.4556    4.1608   36.5735 H   0  0  0  0  0  0  0  0  0  0  0  0
   15.5384    2.6337   34.0254 H   0  0  0  0  0  0  0  0  0  0  0  0
   15.9323    4.2897   34.2971 H   0  0  0  0  0  0  0  0  0  0  0  0
   17.5609    3.0708   35.2610 H   0  0  0  0  0  0  0  0  0  0  0  0
   17.3610    2.9177   37.0567 H   0  0  0  0  0  0  0  0  0  0  0  0
   16.9312    0.8019   36.8634 H   0  0  0  0  0  0  0  0  0  0  0  0
  1  2  1  0
  1  9  1  0
  2  3  1  0
  2  4  1  0
  4  5  1  0
  4  6  1  0
  6  7  1  0
  6  8  1  0
  8  9  1  0
  8 10  1  0
 10 11  1  0
  1 12  1  0
  1 13  1  0
  2 14  1  6
  3 15  1  0
  4 16  1  1
  5 17  1  0
  6 18  1  6
  7 19  1  0
  8 20  1  1
  9 21  1  0
  9 22  1  0
 10 23  1  0
 10 24  1  0
 11 25  1  0
M  CHG  1   9   1
M  END
>  <filename_input>  (18) 
7VKZ_NOJ_docked.sdf

>  <pdb_id>  (18) 
7VKZ_NOJ

>  <pose_rank>  (18) 
17

>  <num_atoms_heavy>  (18) 
11

>  <num_torsions>  (18) 
1

>  <pose>  (18) 
[13.96552272631298, 3.9088833066379793, 34.180681284870474, 5.781145494758639, 1.7060899849694247, -3.7620825283411103, -0.33502591688488315]

>  <energy>  (18) 
-399.92002389496264

>  <inter_energy>  (18) 
-399.3568354280054

>  <intra_energy>  (18) 
0.6609171498437559

>  <rmsd>  (18) 
1.60522

>  <sdf_rank>  (18) 
0

$$$$

     RDKit          3D

 25 25  0  0  0  0  0  0  0  0999 V2000
   14.3761    1.7676   37.3546 C   0  0  0  0  0  0  0  0  0  0  0  0
   15.7180    2.4685   37.5316 C   0  0  2  0  0  0  0  0  0  0  0  0
   16.2947    2.0488   38.7610 O   0  0  0  0  0  0  0  0  0  0  0  0
   15.5484    3.9734   37.4862 C   0  0  1  0  0  0  0  0  0  0  0  0
   16.8347    4.5946   37.5322 O   0  0  0  0  0  0  0  0  0  0  0  0
   14.8981    4.3826   36.1759 C   0  0  2  0  0  0  0  0  0  0  0  0
   14.7009    5.8014   36.1445 O   0  0  0  0  0  0  0  0  0  0  0  0
   13.5784    3.6359   35.9318 C   0  0  2  0  0  0  0  0  0  0  0  0
   13.7185    2.1786   36.1169 N   0  0  0  0  0  0  0  0  0  0  0  0
   13.0463    3.8131   34.5114 C   0  0  0  0  0  0  0  0  0  0  0  0
   12.1421    2.7363   34.1369 O   0  0  0  0  0  0  0  0  0  0  0  0
   14.5411    0.6804   37.3281 H   0  0  0  0  0  0  0  0  0  0  0  0
   13.7275    2.0440   38.1991 H   0  0  0  0  0  0  0  0  0  0  0  0
   16.3915    2.1949   36.7060 H   0  0  0  0  0  0  0  0  0  0  0  0
   15.7758    2.4264   39.5148 H   0  0  0  0  0  0  0  0  0  0  0  0
   14.9261    4.2816   38.3393 H   0  0  0  0  0  0  0  0  0  0  0  0
   17.1046    4.7250   38.4757 H   0  0  0  0  0  0  0  0  0  0  0  0
   15.5795    4.1016   35.3594 H   0  0  0  0  0  0  0  0  0  0  0  0
   14.6526    6.1485   37.0704 H   0  0  0  0  0  0  0  0  0  0  0  0
   12.8883    4.0749   36.6673 H   0  0  0  0  0  0  0  0  0  0  0  0
   14.2665    1.8086   35.3272 H   0  0  0  0  0  0  0  0  0  0  0  0
   12.7602    1.8039   36.1652 H   0  0  0  0  0  0  0  0  0  0  0  0
   12.5065    4.7695   34.4498 H   0  0  0  0  0  0  0  0  0  0  0  0
   13.9021    3.7979   33.8205 H   0  0  0  0  0  0  0  0  0  0  0  0
   11.7825    2.3082   34.9539 H   0  0  0  0  0  0  0  0  0  0  0  0
  1  2  1  0
  1  9  1  0
  2  3  1  0
  2  4  1  0
  4  5  1  0
  4  6  1  0
  6  7  1  0
  6  8  1  0
  8  9  1  0
  8 10  1  0
 10 11  1  0
  1 12  1  0
  1 13  1  0
  2 14  1  6
  3 15  1  0
  4 16  1  1
  5 17  1  0
  6 18  1  6
  7 19  1  0
  8 20  1  1
  9 21  1  0
  9 22  1  0
 10 23  1  0
 10 24  1  0
 11 25  1  0
M  CHG  1   9   1
M  END
>  <filename_input>  (19) 
7VKZ_NOJ_docked.sdf

>  <pdb_id>  (19) 
7VKZ_NOJ

>  <pose_rank>  (19) 
18

>  <num_atoms_heavy>  (19) 
11

>  <num_torsions>  (19) 
1

>  <pose>  (19) 
[14.37605797290228, 1.7676176154400725, 37.35464316361955, -0.9814074244059103, 1.820342727917947, 0.9009432876873749, 1.8390236488689953]

>  <energy>  (19) 
-348.70524171656234

>  <inter_energy>  (19) 
-349.29029159483304

>  <intra_energy>  (19) 
0.0

>  <rmsd>  (19) 
3.84498

>  <sdf_rank>  (19) 
0

$$$$

     RDKit          3D

 25 25  0  0  0  0  0  0  0  0999 V2000
   14.4071    2.8090   34.5459 C   0  0  0  0  0  0  0  0  0  0  0  0
   13.6837    1.7441   35.3620 C   0  0  2  0  0  0  0  0  0  0  0  0
   12.5807    1.2602   34.6074 O   0  0  0  0  0  0  0  0  0  0  0  0
   13.2368    2.3021   36.6979 C   0  0  1  0  0  0  0  0  0  0  0  0
   12.6731    1.2499   37.4838 O   0  0  0  0  0  0  0  0  0  0  0  0
   14.4341    2.8415   37.4611 C   0  0  2  0  0  0  0  0  0  0  0  0
   14.0113    3.4048   38.7089 O   0  0  0  0  0  0  0  0  0  0  0  0
   15.2292    3.8633   36.6349 C   0  0  2  0  0  0  0  0  0  0  0  0
   15.5398    3.3663   35.2806 N   0  0  0  0  0  0  0  0  0  0  0  0
   16.5798    4.2120   37.2564 C   0  0  0  0  0  0  0  0  0  0  0  0
   17.4056    3.0295   37.4485 O   0  0  0  0  0  0  0  0  0  0  0  0
   14.7736    2.3568   33.6126 H   0  0  0  0  0  0  0  0  0  0  0  0
   13.6982    3.6229   34.3337 H   0  0  0  0  0  0  0  0  0  0  0  0
   14.3685    0.9098   35.5740 H   0  0  0  0  0  0  0  0  0  0  0  0
   11.8708    0.9488   35.2231 H   0  0  0  0  0  0  0  0  0  0  0  0
   12.5027    3.1009   36.5159 H   0  0  0  0  0  0  0  0  0  0  0  0
   12.7854    1.4594   38.4449 H   0  0  0  0  0  0  0  0  0  0  0  0
   15.1116    1.9990   37.6643 H   0  0  0  0  0  0  0  0  0  0  0  0
   14.4018    2.8845   39.4551 H   0  0  0  0  0  0  0  0  0  0  0  0
   14.5718    4.7446   36.6040 H   0  0  0  0  0  0  0  0  0  0  0  0
   16.2556    2.6309   35.3677 H   0  0  0  0  0  0  0  0  0  0  0  0
   15.8539    4.1857   34.7413 H   0  0  0  0  0  0  0  0  0  0  0  0
   17.1080    4.9115   36.5918 H   0  0  0  0  0  0  0  0  0  0  0  0
   16.3968    4.6659   38.2415 H   0  0  0  0  0  0  0  0  0  0  0  0
   17.5224    2.8624   38.4173 H   0  0  0  0  0  0  0  0  0  0  0  0
  1  2  1  0
  1  9  1  0
  2  3  1  0
  2  4  1  0
  4  5  1  0
  4  6  1  0
  6  7  1  0
  6  8  1  0
  8  9  1  0
  8 10  1  0
 10 11  1  0
  1 12  1  0
  1 13  1  0
  2 14  1  1
  3 15  1  0
  4 16  1  6
  5 17  1  0
  6 18  1  1
  7 19  1  0
  8 20  1  6
  9 21  1  0
  9 22  1  0
 10 23  1  0
 10 24  1  0
 11 25  1  0
M  CHG  1   9   1
M  END
>  <filename_input>  (20) 
7VKZ_NOJ_docked.sdf

>  <pdb_id>  (20) 
7VKZ_NOJ

>  <pose_rank>  (20) 
19

>  <num_atoms_heavy>  (20) 
11

>  <num_torsions>  (20) 
1

>  <pose>  (20) 
[14.407069349846793, 2.8089791420749908, 34.5459454632041, 4.937992345955184, -1.8526155155524848, 3.7547321233694237, -6.193710825267531]

>  <energy>  (20) 
-445.8266969596739

>  <inter_energy>  (20) 
-441.07112445709566

>  <intra_energy>  (20) 
0.0

>  <rmsd>  (20) 
0.537577

>  <sdf_rank>  (20) 
0

$$$$

     RDKit          3D

 25 25  0  0  0  0  0  0  0  0999 V2000
   15.7238    1.6398   35.5692 C   0  0  0  0  0  0  0  0  0  0  0  0
   15.8132    2.0952   37.0210 C   0  0  2  0  0  0  0  0  0  0  0  0
   16.8936    1.4167   37.6476 O   0  0  0  0  0  0  0  0  0  0  0  0
   14.5069    1.8413   37.7453 C   0  0  1  0  0  0  0  0  0  0  0  0
   14.5841    2.3889   39.0632 O   0  0  0  0  0  0  0  0  0  0  0  0
   13.3707    2.5511   37.0296 C   0  0  2  0  0  0  0  0  0  0  0  0
   12.1274    2.2827   37.6891 O   0  0  0  0  0  0  0  0  0  0  0  0
   13.3011    2.1701   35.5433 C   0  0  2  0  0  0  0  0  0  0  0  0
   14.6119    2.2844   34.8752 N   0  0  0  0  0  0  0  0  0  0  0  0
   12.3597    3.0656   34.7410 C   0  0  0  0  0  0  0  0  0  0  0  0
   12.9783    4.3414   34.4142 O   0  0  0  0  0  0  0  0  0  0  0  0
   16.6624    1.8953   35.0556 H   0  0  0  0  0  0  0  0  0  0  0  0
   15.5553    0.5528   35.5574 H   0  0  0  0  0  0  0  0  0  0  0  0
   15.9979    3.1789   37.0595 H   0  0  0  0  0  0  0  0  0  0  0  0
   16.7960    1.4780   38.6309 H   0  0  0  0  0  0  0  0  0  0  0  0
   14.3276    0.7564   37.7743 H   0  0  0  0  0  0  0  0  0  0  0  0
   14.4817    1.6631   39.7286 H   0  0  0  0  0  0  0  0  0  0  0  0
   13.5684    3.6323   37.0728 H   0  0  0  0  0  0  0  0  0  0  0  0
   12.2610    2.3115   38.6696 H   0  0  0  0  0  0  0  0  0  0  0  0
   12.9398    1.1312   35.5552 H   0  0  0  0  0  0  0  0  0  0  0  0
   14.8341    3.2855   34.7792 H   0  0  0  0  0  0  0  0  0  0  0  0
   14.5162    1.7949   33.9740 H   0  0  0  0  0  0  0  0  0  0  0  0
   12.0883    2.5515   33.8072 H   0  0  0  0  0  0  0  0  0  0  0  0
   11.4689    3.2639   35.3553 H   0  0  0  0  0  0  0  0  0  0  0  0
   13.2100    4.8194   35.2496 H   0  0  0  0  0  0  0  0  0  0  0  0
  1  2  1  0
  1  9  1  0
  2  3  1  0
  2  4  1  0
  4  5  1  0
  4  6  1  0
  6  7  1  0
  6  8  1  0
  8  9  1  0
  8 10  1  0
 10 11  1  0
  1 12  1  0
  1 13  1  0
  2 14  1  6
  3 15  1  0
  4 16  1  1
  5 17  1  0
  6 18  1  6
  7 19  1  0
  8 20  1  1
  9 21  1  0
  9 22  1  0
 10 23  1  0
 10 24  1  0
 11 25  1  0
M  CHG  1   9   1
M  END
>  <filename_input>  (21) 
7VKZ_NOJ_docked.sdf

>  <pdb_id>  (21) 
7VKZ_NOJ

>  <pose_rank>  (21) 
20

>  <num_atoms_heavy>  (21) 
11

>  <num_torsions>  (21) 
1

>  <pose>  (21) 
[15.723761743366879, 1.639794852589404, 35.56915520479142, 1.9064849882171322, -0.05782786442840464, -3.478631353210766, 0.46783167928504393]

>  <energy>  (21) 
-429.3494099904582

>  <inter_energy>  (21) 
-438.38808513772915

>  <intra_energy>  (21) 
0.0

>  <rmsd>  (21) 
3.38234

>  <sdf_rank>  (21) 
0

$$$$

     RDKit          3D

 25 25  0  0  0  0  0  0  0  0999 V2000
   14.1315    2.7309   34.2206 C   0  0  0  0  0  0  0  0  0  0  0  0
   13.3674    1.9014   35.2459 C   0  0  2  0  0  0  0  0  0  0  0  0
   12.1546    1.4505   34.6575 O   0  0  0  0  0  0  0  0  0  0  0  0
   13.1058    2.7073   36.5020 C   0  0  1  0  0  0  0  0  0  0  0  0
   12.4986    1.8657   37.4845 O   0  0  0  0  0  0  0  0  0  0  0  0
   14.4189    3.2020   37.0834 C   0  0  2  0  0  0  0  0  0  0  0  0
   14.1740    3.9968   38.2502 O   0  0  0  0  0  0  0  0  0  0  0  0
   15.2483    3.9788   36.0501 C   0  0  2  0  0  0  0  0  0  0  0  0
   15.3802    3.2470   34.7754 N   0  0  0  0  0  0  0  0  0  0  0  0
   16.6790    4.2459   36.5121 C   0  0  0  0  0  0  0  0  0  0  0  0
   17.1999    3.1486   37.3133 O   0  0  0  0  0  0  0  0  0  0  0  0
   14.3610    2.0999   33.3493 H   0  0  0  0  0  0  0  0  0  0  0  0
   13.5031    3.5855   33.9295 H   0  0  0  0  0  0  0  0  0  0  0  0
   13.9697    1.0298   35.5418 H   0  0  0  0  0  0  0  0  0  0  0  0
   11.5109    1.2112   35.3705 H   0  0  0  0  0  0  0  0  0  0  0  0
   12.4533    3.5548   36.2448 H   0  0  0  0  0  0  0  0  0  0  0  0
   12.7338    2.1917   38.3892 H   0  0  0  0  0  0  0  0  0  0  0  0
   15.0123    2.3220   37.3724 H   0  0  0  0  0  0  0  0  0  0  0  0
   14.3414    3.4535   39.0606 H   0  0  0  0  0  0  0  0  0  0  0  0
   14.6943    4.9205   35.9230 H   0  0  0  0  0  0  0  0  0  0  0  0
   16.0133    2.4495   34.9302 H   0  0  0  0  0  0  0  0  0  0  0  0
   15.7360    3.9291   34.0906 H   0  0  0  0  0  0  0  0  0  0  0  0
   17.3203    4.3774   35.6281 H   0  0  0  0  0  0  0  0  0  0  0  0
   16.6745    5.1528   37.1346 H   0  0  0  0  0  0  0  0  0  0  0  0
   17.0976    3.3641   38.2741 H   0  0  0  0  0  0  0  0  0  0  0  0
  1  2  1  0
  1  9  1  0
  2  3  1  0
  2  4  1  0
  4  5  1  0
  4  6  1  0
  6  7  1  0
  6  8  1  0
  8  9  1  0
  8 10  1  0
 10 11  1  0
  1 12  1  0
  1 13  1  0
  2 14  1  1
  3 15  1  0
  4 16  1  6
  5 17  1  0
  6 18  1  1
  7 19  1  0
  8 20  1  6
  9 21  1  0
  9 22  1  0
 10 23  1  0
 10 24  1  0
 11 25  1  0
M  CHG  1   9   1
M  END
>  <filename_input>  (22) 
7VKZ_NOJ_docked.sdf

>  <pdb_id>  (22) 
7VKZ_NOJ

>  <pose_rank>  (22) 
21

>  <num_atoms_heavy>  (22) 
11

>  <num_torsions>  (22) 
1

>  <pose>  (22) 
[14.131512299032838, 2.7309012967812323, 34.22061329468693, 2.390110318305961, -5.298351963803228, 2.308570407973697, -6.587732542386203]

>  <energy>  (22) 
-462.31260233805637

>  <inter_energy>  (22) 
-463.3133598829504

>  <intra_energy>  (22) 
0.43785044112527394

>  <rmsd>  (22) 
0.498806

>  <sdf_rank>  (22) 
0

$$$$

     RDKit          3D

 25 25  0  0  0  0  0  0  0  0999 V2000
   13.8006    2.3930   34.8631 C   0  0  0  0  0  0  0  0  0  0  0  0
   13.0567    1.6274   35.9511 C   0  0  2  0  0  0  0  0  0  0  0  0
   11.8239    1.1598   35.4201 O   0  0  0  0  0  0  0  0  0  0  0  0
   12.8375    2.5014   37.1691 C   0  0  1  0  0  0  0  0  0  0  0  0
   12.2491    1.7197   38.2109 O   0  0  0  0  0  0  0  0  0  0  0  0
   14.1708    3.0113   37.6881 C   0  0  2  0  0  0  0  0  0  0  0  0
   13.9658    3.8692   38.8172 O   0  0  0  0  0  0  0  0  0  0  0  0
   14.9792    3.7230   36.5932 C   0  0  2  0  0  0  0  0  0  0  0  0
   15.0690    2.9235   35.3561 N   0  0  0  0  0  0  0  0  0  0  0  0
   16.4246    3.9980   37.0019 C   0  0  0  0  0  0  0  0  0  0  0  0
   17.0388    2.8350   37.6243 O   0  0  0  0  0  0  0  0  0  0  0  0
   14.0000    1.7143   34.0207 H   0  0  0  0  0  0  0  0  0  0  0  0
   13.1729    3.2380   34.5440 H   0  0  0  0  0  0  0  0  0  0  0  0
   13.6583    0.7659   36.2765 H   0  0  0  0  0  0  0  0  0  0  0  0
   11.2117    0.9276   36.1627 H   0  0  0  0  0  0  0  0  0  0  0  0
   12.1866    3.3414   36.8850 H   0  0  0  0  0  0  0  0  0  0  0  0
   12.5224    2.0828   39.0904 H   0  0  0  0  0  0  0  0  0  0  0  0
   14.7632    2.1411   38.0074 H   0  0  0  0  0  0  0  0  0  0  0  0
   14.0895    3.3515   39.6519 H   0  0  0  0  0  0  0  0  0  0  0  0
   14.4313    4.6629   36.4312 H   0  0  0  0  0  0  0  0  0  0  0  0
   15.6983    2.1282   35.5360 H   0  0  0  0  0  0  0  0  0  0  0  0
   15.4126    3.5645   34.6267 H   0  0  0  0  0  0  0  0  0  0  0  0
   17.0026    4.2698   36.1063 H   0  0  0  0  0  0  0  0  0  0  0  0
   16.4235    4.8184   37.7346 H   0  0  0  0  0  0  0  0  0  0  0  0
   16.9916    2.9244   38.6092 H   0  0  0  0  0  0  0  0  0  0  0  0
  1  2  1  0
  1  9  1  0
  2  3  1  0
  2  4  1  0
  4  5  1  0
  4  6  1  0
  6  7  1  0
  6  8  1  0
  8  9  1  0
  8 10  1  0
 10 11  1  0
  1 12  1  0
  1 13  1  0
  2 14  1  1
  3 15  1  0
  4 16  1  6
  5 17  1  0
  6 18  1  1
  7 19  1  0
  8 20  1  6
  9 21  1  0
  9 22  1  0
 10 23  1  0
 10 24  1  0
 11 25  1  0
M  CHG  1   9   1
M  END
>  <filename_input>  (23) 
7VKZ_NOJ_docked.sdf

>  <pdb_id>  (23) 
7VKZ_NOJ

>  <pose_rank>  (23) 
22

>  <num_atoms_heavy>  (23) 
11

>  <num_torsions>  (23) 
1

>  <pose>  (23) 
[13.8006132990476, 2.392978760506634, 34.8630982900907, 4.671912202168, -3.751324685923134, 1.5869563547624665, -6.3964535011084775]

>  <energy>  (23) 
-396.1970046622375

>  <inter_energy>  (23) 
-406.2536650654383

>  <intra_energy>  (23) 
0.0

>  <rmsd>  (23) 
0.418112

>  <sdf_rank>  (23) 
0

$$$$

     RDKit          3D

 25 25  0  0  0  0  0  0  0  0999 V2000
   13.9360    3.5154   34.5081 C   0  0  0  0  0  0  0  0  0  0  0  0
   13.0187    2.5287   35.2210 C   0  0  2  0  0  0  0  0  0  0  0  0
   11.7984    2.4343   34.4983 O   0  0  0  0  0  0  0  0  0  0  0  0
   12.7799    2.9564   36.6548 C   0  0  1  0  0  0  0  0  0  0  0  0
   12.0192    1.9503   37.3267 O   0  0  0  0  0  0  0  0  0  0  0  0
   14.1053    3.0812   37.3861 C   0  0  2  0  0  0  0  0  0  0  0  0
   13.8872    3.5224   38.7317 O   0  0  0  0  0  0  0  0  0  0  0  0
   15.0815    4.0117   36.6512 C   0  0  2  0  0  0  0  0  0  0  0  0
   15.2017    3.6767   35.2190 N   0  0  0  0  0  0  0  0  0  0  0  0
   16.5036    3.9407   37.2030 C   0  0  0  0  0  0  0  0  0  0  0  0
   16.8332    2.6033   37.6717 O   0  0  0  0  0  0  0  0  0  0  0  0
   14.1407    3.1443   33.4930 H   0  0  0  0  0  0  0  0  0  0  0  0
   13.4322    4.4925   34.4727 H   0  0  0  0  0  0  0  0  0  0  0  0
   13.4944    1.5375   35.2553 H   0  0  0  0  0  0  0  0  0  0  0  0
   11.0419    2.3758   35.1343 H   0  0  0  0  0  0  0  0  0  0  0  0
   12.2494    3.9200   36.6491 H   0  0  0  0  0  0  0  0  0  0  0  0
   12.1082    2.0680   38.3056 H   0  0  0  0  0  0  0  0  0  0  0  0
   14.5715    2.0852   37.4111 H   0  0  0  0  0  0  0  0  0  0  0  0
   14.2254    2.8383   39.3623 H   0  0  0  0  0  0  0  0  0  0  0  0
   14.6520    5.0134   36.8000 H   0  0  0  0  0  0  0  0  0  0  0  0
   15.7252    2.7930   35.1416 H   0  0  0  0  0  0  0  0  0  0  0  0
   15.6764    4.4773   34.7778 H   0  0  0  0  0  0  0  0  0  0  0  0
   17.2090    4.2236   36.4078 H   0  0  0  0  0  0  0  0  0  0  0  0
   16.5747    4.6304   38.0569 H   0  0  0  0  0  0  0  0  0  0  0  0
   16.8360    2.5919   38.6617 H   0  0  0  0  0  0  0  0  0  0  0  0
  1  2  1  0
  1  9  1  0
  2  3  1  0
  2  4  1  0
  4  5  1  0
  4  6  1  0
  6  7  1  0
  6  8  1  0
  8  9  1  0
  8 10  1  0
 10 11  1  0
  1 12  1  0
  1 13  1  0
  2 14  1  1
  3 15  1  0
  4 16  1  6
  5 17  1  0
  6 18  1  1
  7 19  1  0
  8 20  1  6
  9 21  1  0
  9 22  1  0
 10 23  1  0
 10 24  1  0
 11 25  1  0
M  CHG  1   9   1
M  END
>  <filename_input>  (24) 
7VKZ_NOJ_docked.sdf

>  <pdb_id>  (24) 
7VKZ_NOJ

>  <pose_rank>  (24) 
23

>  <num_atoms_heavy>  (24) 
11

>  <num_torsions>  (24) 
1

>  <pose>  (24) 
[13.936034166396327, 3.515354266592402, 34.508089014681396, 5.997717731136721, -0.3051798800456407, -2.751933939663519, -6.605457982383991]

>  <energy>  (24) 
-446.2444916703213

>  <inter_energy>  (24) 
-449.7719486963518

>  <intra_energy>  (24) 
0.5621793287125421

>  <rmsd>  (24) 
0.607513

>  <sdf_rank>  (24) 
0

$$$$

     RDKit          3D

 25 25  0  0  0  0  0  0  0  0999 V2000
   14.2132    2.6430   34.3815 C   0  0  0  0  0  0  0  0  0  0  0  0
   13.8584    1.8508   35.6344 C   0  0  2  0  0  0  0  0  0  0  0  0
   12.6706    1.1106   35.3867 O   0  0  0  0  0  0  0  0  0  0  0  0
   13.6963    2.7732   36.8255 C   0  0  1  0  0  0  0  0  0  0  0  0
   13.4857    1.9907   38.0027 O   0  0  0  0  0  0  0  0  0  0  0  0
   14.9698    3.5729   37.0391 C   0  0  2  0  0  0  0  0  0  0  0  0
   14.8079    4.4742   38.1411 O   0  0  0  0  0  0  0  0  0  0  0  0
   15.3963    4.3241   35.7692 C   0  0  2  0  0  0  0  0  0  0  0  0
   15.4152    3.4482   34.5817 N   0  0  0  0  0  0  0  0  0  0  0  0
   16.8050    4.9056   35.8644 C   0  0  0  0  0  0  0  0  0  0  0  0
   17.6552    4.1164   36.7428 O   0  0  0  0  0  0  0  0  0  0  0  0
   14.3864    1.9417   33.5519 H   0  0  0  0  0  0  0  0  0  0  0  0
   13.3773    3.3205   34.1524 H   0  0  0  0  0  0  0  0  0  0  0  0
   14.6737    1.1530   35.8758 H   0  0  0  0  0  0  0  0  0  0  0  0
   12.2568    0.8527   36.2483 H   0  0  0  0  0  0  0  0  0  0  0  0
   12.8457    3.4444   36.6355 H   0  0  0  0  0  0  0  0  0  0  0  0
   13.6369    2.5525   38.8038 H   0  0  0  0  0  0  0  0  0  0  0  0
   15.7769    2.8642   37.2768 H   0  0  0  0  0  0  0  0  0  0  0  0
   14.8976    3.9752   38.9914 H   0  0  0  0  0  0  0  0  0  0  0  0
   14.6470    5.1236   35.6729 H   0  0  0  0  0  0  0  0  0  0  0  0
   16.2164    2.8071   34.6717 H   0  0  0  0  0  0  0  0  0  0  0  0
   15.4778    4.0745   33.7664 H   0  0  0  0  0  0  0  0  0  0  0  0
   17.2514    4.9247   34.8592 H   0  0  0  0  0  0  0  0  0  0  0  0
   16.7294    5.9206   36.2817 H   0  0  0  0  0  0  0  0  0  0  0  0
   17.4350    4.3208   37.6861 H   0  0  0  0  0  0  0  0  0  0  0  0
  1  2  1  0
  1  9  1  0
  2  3  1  0
  2  4  1  0
  4  5  1  0
  4  6  1  0
  6  7  1  0
  6  8  1  0
  8  9  1  0
  8 10  1  0
 10 11  1  0
  1 12  1  0
  1 13  1  0
  2 14  1  1
  3 15  1  0
  4 16  1  6
  5 17  1  0
  6 18  1  1
  7 19  1  0
  8 20  1  6
  9 21  1  0
  9 22  1  0
 10 23  1  0
 10 24  1  0
 11 25  1  0
M  CHG  1   9   1
M  END
>  <filename_input>  (25) 
7VKZ_NOJ_docked.sdf

>  <pdb_id>  (25) 
7VKZ_NOJ

>  <pose_rank>  (25) 
24

>  <num_atoms_heavy>  (25) 
11

>  <num_torsions>  (25) 
1

>  <pose>  (25) 
[14.213167700293106, 2.6430290748044616, 34.3814892398494, 2.5356313499627907, -4.27839609918381, -3.2637948823350125, -0.40132647953365896]

>  <energy>  (25) 
-416.07875066342683

>  <inter_energy>  (25) 
-422.9926646809587

>  <intra_energy>  (25) 
1.2958044032783667

>  <rmsd>  (25) 
0.961051

>  <sdf_rank>  (25) 
0

$$$$

     RDKit          3D

 25 25  0  0  0  0  0  0  0  0999 V2000
   14.0430    2.8460   34.7080 C   0  0  0  0  0  0  0  0  0  0  0  0
   13.2630    1.9970   35.7050 C   0  0  2  0  0  0  0  0  0  0  0  0
   12.0700    1.5400   35.0820 O   0  0  0  0  0  0  0  0  0  0  0  0
   12.9620    2.7860   36.9630 C   0  0  1  0  0  0  0  0  0  0  0  0
   12.3400    1.9270   37.9210 O   0  0  0  0  0  0  0  0  0  0  0  0
   14.2550    3.2880   37.5820 C   0  0  2  0  0  0  0  0  0  0  0  0
   13.9730    4.0670   38.7510 O   0  0  0  0  0  0  0  0  0  0  0  0
   15.1010    4.0850   36.5780 C   0  0  2  0  0  0  0  0  0  0  0  0
   15.2720    3.3690   35.2990 N   0  0  0  0  0  0  0  0  0  0  0  0
   16.5170    4.3620   37.0780 C   0  0  0  0  0  0  0  0  0  0  0  0
   17.1810    3.1440   37.5170 O   0  0  0  0  0  0  0  0  0  0  0  0
   14.3006    2.2273   33.8357 H   0  0  0  0  0  0  0  0  0  0  0  0
   13.4127    3.6971   34.4109 H   0  0  0  0  0  0  0  0  0  0  0  0
   13.8673    1.1286   36.0060 H   0  0  0  0  0  0  0  0  0  0  0  0
   11.4110    1.2875   35.7763 H   0  0  0  0  0  0  0  0  0  0  0  0
   12.3069    3.6293   36.6991 H   0  0  0  0  0  0  0  0  0  0  0  0
   12.5633    2.2354   38.8348 H   0  0  0  0  0  0  0  0  0  0  0  0
   14.8506    2.4111   37.8759 H   0  0  0  0  0  0  0  0  0  0  0  0
   14.1673    3.5304   39.5599 H   0  0  0  0  0  0  0  0  0  0  0  0
   14.5401    5.0222   36.4476 H   0  0  0  0  0  0  0  0  0  0  0  0
   15.9098    2.5765   35.4606 H   0  0  0  0  0  0  0  0  0  0  0  0
   15.6371    4.0625   34.6307 H   0  0  0  0  0  0  0  0  0  0  0  0
   17.1014    4.8123   36.2621 H   0  0  0  0  0  0  0  0  0  0  0  0
   16.4494    5.0446   37.9380 H   0  0  0  0  0  0  0  0  0  0  0  0
   17.1968    3.1150   38.5064 H   0  0  0  0  0  0  0  0  0  0  0  0
  1  2  1  0
  1  9  1  0
  2  3  1  0
  2  4  1  0
  4  5  1  0
  4  6  1  0
  6  7  1  0
  6  8  1  0
  8  9  1  0
  8 10  1  0
 10 11  1  0
  1 12  1  0
  1 13  1  0
  2 14  1  1
  3 15  1  0
  4 16  1  6
  5 17  1  0
  6 18  1  1
  7 19  1  0
  8 20  1  6
  9 21  1  0
  9 22  1  0
 10 23  1  0
 10 24  1  0
 11 25  1  0
M  CHG  1   9   1
M  END
>  <filename_input>  (26) 
7VKZ_NOJ_docked.sdf

>  <pdb_id>  (26) 
7VKZ_NOJ

>  <pose_rank>  (26) 
25

>  <num_atoms_heavy>  (26) 
11

>  <num_torsions>  (26) 
1

>  <pose>  (26) 
[14.043, 2.846, 34.708, 1e-06, 1e-06, 1e-06, 0.0]

>  <energy>  (26) 
-416.3078274449307

>  <inter_energy>  (26) 
-422.5218873406154

>  <intra_energy>  (26) 
0.0

>  <rmsd>  (26) 
0.0

>  <sdf_rank>  (26) 
0

$$$$
