
     RDKit          3D

 23 22  0  0  0  0  0  0  0  0999 V2000
   26.7798   -4.4291   27.7439 P   0  0  2  0  0  0  0  0  0  0  0  0
   26.8057   -2.8918   28.1075 O   0  0  0  0  0  0  0  0  0  0  0  0
   26.6003   -2.1189   29.4324 P   0  0  2  0  0  0  0  0  0  0  0  0
   26.4536   -4.6494   26.3085 O   0  0  0  0  0  0  0  0  0  0  0  0
   25.7851   -5.1218   28.6957 O   0  0  0  0  0  0  0  0  0  0  0  0
   28.1687   -4.9656   27.9414 O   0  0  0  0  0  0  0  0  0  0  0  0
   26.6532   -3.0022   30.6485 O   0  0  0  0  0  0  0  0  0  0  0  0
   25.4394   -1.1865   29.1511 O   0  0  0  0  0  0  0  0  0  0  0  0
   28.2623   -0.8849   29.4014 S   0  0  0  0  0  0  0  0  0  0  0  0
   27.4988    0.3319   28.3393 C   0  0  0  0  0  0  0  0  0  0  0  0
   26.9800    1.4574   29.0676 C   0  0  0  0  0  0  0  0  0  0  0  0
   28.0169    2.5048   29.3551 C   0  0  0  0  0  0  0  0  0  0  0  0
   27.6704    3.4902   30.3531 C   0  0  0  0  0  0  0  0  0  0  0  0
   29.2130    2.4846   28.7708 C   0  0  0  0  0  0  0  0  0  0  0  0
   28.2499    0.6932   27.6215 H   0  0  0  0  0  0  0  0  0  0  0  0
   26.6522   -0.1544   27.8325 H   0  0  0  0  0  0  0  0  0  0  0  0
   26.1747    1.9161   28.4751 H   0  0  0  0  0  0  0  0  0  0  0  0
   26.6178    1.0815   30.0358 H   0  0  0  0  0  0  0  0  0  0  0  0
   27.8201    3.0645   31.3563 H   0  0  0  0  0  0  0  0  0  0  0  0
   28.3109    4.3762   30.2314 H   0  0  0  0  0  0  0  0  0  0  0  0
   26.6163    3.7803   30.2314 H   0  0  0  0  0  0  0  0  0  0  0  0
   29.9515    3.2663   29.0022 H   0  0  0  0  0  0  0  0  0  0  0  0
   29.4627    1.6863   28.0564 H   0  0  0  0  0  0  0  0  0  0  0  0
  1  2  1  0
  1  4  1  6
  1  5  2  0
  1  6  1  0
  2  3  1  0
  3  7  2  0
  3  8  1  6
  3  9  1  0
  9 10  1  0
 10 11  1  0
 11 12  1  0
 12 13  1  0
 12 14  2  0
 10 15  1  0
 10 16  1  0
 11 17  1  0
 11 18  1  0
 13 19  1  0
 13 20  1  0
 13 21  1  0
 14 22  1  0
 14 23  1  0
M  CHG  3   4  -1   6  -1   8  -1
M  END
>  <filename_input>  (1) 
7VQ9_ISY_docked.sdf

>  <pdb_id>  (1) 
7VQ9_ISY

>  <pose_rank>  (1) 
0

>  <num_atoms_heavy>  (1) 
14

>  <num_torsions>  (1) 
6

>  <pose>  (1) 
[26.600271915474416, -2.11893584325556, 29.43235487461613, 1.5692478539761765, 4.711318397974691, 1.987458158953348, -0.012688267459128932, 3.6068468855443547, 0.006134319094220048, -1.3993029764856537, 2.6346438690334226, 1.8153459472084443]

>  <energy>  (1) 
-565.9643819403534

>  <inter_energy>  (1) 
-577.2861017019034

>  <intra_energy>  (1) 
16.796049166077303

>  <rmsd>  (1) 
1.02685

>  <sdf_rank>  (1) 
0

$$$$

     RDKit          3D

 23 22  0  0  0  0  0  0  0  0999 V2000
   25.8926   -4.8802   27.7567 P   0  0  2  0  0  0  0  0  0  0  0  0
   26.2433   -3.4117   28.2219 O   0  0  0  0  0  0  0  0  0  0  0  0
   27.5157   -2.7750   28.8308 P   0  0  2  0  0  0  0  0  0  0  0  0
   26.4935   -5.9010   28.6580 O   0  0  0  0  0  0  0  0  0  0  0  0
   26.3499   -5.0326   26.2928 O   0  0  0  0  0  0  0  0  0  0  0  0
   24.4046   -5.0493   27.8710 O   0  0  0  0  0  0  0  0  0  0  0  0
   28.7900   -3.3575   28.2842 O   0  0  0  0  0  0  0  0  0  0  0  0
   27.2261   -2.6955   30.3160 O   0  0  0  0  0  0  0  0  0  0  0  0
   27.3065   -0.8251   28.1671 S   0  0  0  0  0  0  0  0  0  0  0  0
   28.2245   -0.1263   29.5311 C   0  0  0  0  0  0  0  0  0  0  0  0
   27.5370    0.9679   30.1607 C   0  0  0  0  0  0  0  0  0  0  0  0
   28.0794    2.3119   29.7678 C   0  0  0  0  0  0  0  0  0  0  0  0
   29.1782    2.3084   28.8299 C   0  0  0  0  0  0  0  0  0  0  0  0
   27.5331    3.4433   30.2085 C   0  0  0  0  0  0  0  0  0  0  0  0
   28.3942   -0.9132   30.2808 H   0  0  0  0  0  0  0  0  0  0  0  0
   29.1712    0.2638   29.1289 H   0  0  0  0  0  0  0  0  0  0  0  0
   26.4751    0.9230   29.8773 H   0  0  0  0  0  0  0  0  0  0  0  0
   27.6797    0.8624   31.2463 H   0  0  0  0  0  0  0  0  0  0  0  0
   30.1304    2.3054   29.3806 H   0  0  0  0  0  0  0  0  0  0  0  0
   29.1175    1.4105   28.1974 H   0  0  0  0  0  0  0  0  0  0  0  0
   29.1233    3.2067   28.1974 H   0  0  0  0  0  0  0  0  0  0  0  0
   27.9535    4.4126   29.9026 H   0  0  0  0  0  0  0  0  0  0  0  0
   26.6613    3.4086   30.8784 H   0  0  0  0  0  0  0  0  0  0  0  0
  1  2  1  0
  1  4  1  1
  1  5  2  0
  1  6  1  0
  2  3  1  0
  3  7  2  0
  3  8  1  1
  3  9  1  0
  9 10  1  0
 10 11  1  0
 11 12  1  0
 12 13  1  0
 12 14  2  0
 10 15  1  0
 10 16  1  0
 11 17  1  0
 11 18  1  0
 13 19  1  0
 13 20  1  0
 13 21  1  0
 14 22  1  0
 14 23  1  0
M  CHG  3   4  -1   6  -1   8  -1
M  END
>  <filename_input>  (2) 
7VQ9_ISY_docked.sdf

>  <pdb_id>  (2) 
7VQ9_ISY

>  <pose_rank>  (2) 
1

>  <num_atoms_heavy>  (2) 
14

>  <num_torsions>  (2) 
6

>  <pose>  (2) 
[27.515669974813694, -2.7749830999609872, 28.83076283695831, -0.808306319064395, -5.146427966312831, -1.837879221511106, -12.20164745828028, 1.5500013143765667, -11.340801672772223, 26.014056157051858, -0.6236551358544608, 4.703967687094352]

>  <energy>  (2) 
-485.48263852265626

>  <inter_energy>  (2) 
-475.3920302376136

>  <intra_energy>  (2) 
1.0876876101807675

>  <rmsd>  (2) 
1.36113

>  <sdf_rank>  (2) 
0

$$$$

     RDKit          3D

 23 22  0  0  0  0  0  0  0  0999 V2000
   25.1512   -3.3555   28.5452 P   0  0  2  0  0  0  0  0  0  0  0  0
   26.1110   -2.1015   28.4976 O   0  0  0  0  0  0  0  0  0  0  0  0
   27.5572   -1.8623   28.9938 P   0  0  2  0  0  0  0  0  0  0  0  0
   23.7209   -2.9508   28.6220 O   0  0  0  0  0  0  0  0  0  0  0  0
   25.5869   -4.2378   29.7314 O   0  0  0  0  0  0  0  0  0  0  0  0
   25.3048   -4.0942   27.2464 O   0  0  0  0  0  0  0  0  0  0  0  0
   28.4687   -1.3220   27.9265 O   0  0  0  0  0  0  0  0  0  0  0  0
   27.8905   -3.1005   29.8013 O   0  0  0  0  0  0  0  0  0  0  0  0
   27.2209   -0.4005   30.4208 S   0  0  0  0  0  0  0  0  0  0  0  0
   26.4836    0.7422   29.2623 C   0  0  0  0  0  0  0  0  0  0  0  0
   27.4621    1.4852   28.5160 C   0  0  0  0  0  0  0  0  0  0  0  0
   28.2384    2.4549   29.3598 C   0  0  0  0  0  0  0  0  0  0  0  0
   27.5158    3.0804   30.4432 C   0  0  0  0  0  0  0  0  0  0  0  0
   29.5365    2.6734   29.1602 C   0  0  0  0  0  0  0  0  0  0  0  0
   25.8598    0.1742   28.5565 H   0  0  0  0  0  0  0  0  0  0  0  0
   25.8890    1.4644   29.8411 H   0  0  0  0  0  0  0  0  0  0  0  0
   28.1679    0.7749   28.0608 H   0  0  0  0  0  0  0  0  0  0  0  0
   26.9201    2.0714   27.7593 H   0  0  0  0  0  0  0  0  0  0  0  0
   27.9205    2.7301   31.4042 H   0  0  0  0  0  0  0  0  0  0  0  0
   27.6263    4.1727   30.3751 H   0  0  0  0  0  0  0  0  0  0  0  0
   26.4506    2.8146   30.3751 H   0  0  0  0  0  0  0  0  0  0  0  0
   30.0776    3.3902   29.7953 H   0  0  0  0  0  0  0  0  0  0  0  0
   30.0678    2.1370   28.3602 H   0  0  0  0  0  0  0  0  0  0  0  0
  1  2  1  0
  1  4  1  1
  1  5  2  0
  1  6  1  0
  2  3  1  0
  3  7  2  0
  3  8  1  1
  3  9  1  0
  9 10  1  0
 10 11  1  0
 11 12  1  0
 12 13  1  0
 12 14  2  0
 10 15  1  0
 10 16  1  0
 11 17  1  0
 11 18  1  0
 13 19  1  0
 13 20  1  0
 13 21  1  0
 14 22  1  0
 14 23  1  0
M  CHG  3   4  -1   6  -1   8  -1
M  END
>  <filename_input>  (3) 
7VQ9_ISY_docked.sdf

>  <pdb_id>  (3) 
7VQ9_ISY

>  <pose_rank>  (3) 
2

>  <num_atoms_heavy>  (3) 
14

>  <num_torsions>  (3) 
6

>  <pose>  (3) 
[27.557221559221272, -1.8623252226923936, 28.99383591495301, 1.1152156238864006, 0.9302828540227791, 0.7439070658059501, 1.9622596249331816, -2.7754428069357293, 10.101983185741856, -4.552440682556218, -12.588476447122874, -2.1874644654348208]

>  <energy>  (3) 
-514.0714537507379

>  <inter_energy>  (3) 
-540.0963401117556

>  <intra_energy>  (3) 
35.03507535676673

>  <rmsd>  (3) 
1.93509

>  <sdf_rank>  (3) 
0

$$$$

     RDKit          3D

 23 22  0  0  0  0  0  0  0  0999 V2000
   24.3305   -3.3318   28.4191 P   0  0  2  0  0  0  0  0  0  0  0  0
   25.7889   -2.7273   28.4801 O   0  0  0  0  0  0  0  0  0  0  0  0
   26.4500   -1.6601   29.3850 P   0  0  2  0  0  0  0  0  0  0  0  0
   24.3547   -4.8129   28.2734 O   0  0  0  0  0  0  0  0  0  0  0  0
   23.5774   -2.6309   27.2716 O   0  0  0  0  0  0  0  0  0  0  0  0
   23.6689   -3.0550   29.7388 O   0  0  0  0  0  0  0  0  0  0  0  0
   26.6598   -2.1288   30.7986 O   0  0  0  0  0  0  0  0  0  0  0  0
   25.7195   -0.3751   29.0514 O   0  0  0  0  0  0  0  0  0  0  0  0
   28.2830   -1.4618   28.4432 S   0  0  0  0  0  0  0  0  0  0  0  0
   28.7238    0.0238   29.3320 C   0  0  0  0  0  0  0  0  0  0  0  0
   28.2821    1.2199   28.6682 C   0  0  0  0  0  0  0  0  0  0  0  0
   28.2337    2.4161   29.5746 C   0  0  0  0  0  0  0  0  0  0  0  0
   29.4923    3.0796   29.8251 C   0  0  0  0  0  0  0  0  0  0  0  0
   27.0848    2.8770   30.0646 C   0  0  0  0  0  0  0  0  0  0  0  0
   28.2642   -0.0144   30.3307 H   0  0  0  0  0  0  0  0  0  0  0  0
   29.8216    0.0625   29.3902 H   0  0  0  0  0  0  0  0  0  0  0  0
   28.9738    1.4362   27.8406 H   0  0  0  0  0  0  0  0  0  0  0  0
   27.2572    1.0372   28.3130 H   0  0  0  0  0  0  0  0  0  0  0  0
   29.6527    3.1642   30.9100 H   0  0  0  0  0  0  0  0  0  0  0  0
   30.3101    2.4955   29.3779 H   0  0  0  0  0  0  0  0  0  0  0  0
   29.4724    4.0845   29.3779 H   0  0  0  0  0  0  0  0  0  0  0  0
   27.0821    3.7556   30.7264 H   0  0  0  0  0  0  0  0  0  0  0  0
   26.1381    2.3791   29.8077 H   0  0  0  0  0  0  0  0  0  0  0  0
  1  2  1  0
  1  4  1  6
  1  5  2  0
  1  6  1  0
  2  3  1  0
  3  7  2  0
  3  8  1  1
  3  9  1  0
  9 10  1  0
 10 11  1  0
 11 12  1  0
 12 13  1  0
 12 14  2  0
 10 15  1  0
 10 16  1  0
 11 17  1  0
 11 18  1  0
 13 19  1  0
 13 20  1  0
 13 21  1  0
 14 22  1  0
 14 23  1  0
M  CHG  3   4  -1   6  -1   8  -1
M  END
>  <filename_input>  (4) 
7VQ9_ISY_docked.sdf

>  <pdb_id>  (4) 
7VQ9_ISY

>  <pose_rank>  (4) 
3

>  <num_atoms_heavy>  (4) 
14

>  <num_torsions>  (4) 
6

>  <pose>  (4) 
[26.450018476604765, -1.6601377468235448, 29.384957419379774, 3.8953549692615397, 2.104797391330501, 2.666495119381076, 0.9772119713709645, -1.4693922551759506, -4.802131081783432, 1.5984752230528132, -2.303684709216603, -0.18705735200195936]

>  <energy>  (4) 
-549.8762406356934

>  <inter_energy>  (4) 
-537.0189850041176

>  <intra_energy>  (4) 
9.584315525487824

>  <rmsd>  (4) 
2.32808

>  <sdf_rank>  (4) 
0

$$$$

     RDKit          3D

 23 22  0  0  0  0  0  0  0  0999 V2000
   27.6751   -3.8969   28.2617 P   0  0  2  0  0  0  0  0  0  0  0  0
   26.7950   -2.6046   28.4886 O   0  0  0  0  0  0  0  0  0  0  0  0
   25.3686   -2.3861   29.0476 P   0  0  2  0  0  0  0  0  0  0  0  0
   29.0535   -3.5527   27.8179 O   0  0  0  0  0  0  0  0  0  0  0  0
   26.9333   -4.8020   27.2588 O   0  0  0  0  0  0  0  0  0  0  0  0
   27.8252   -4.5828   29.5894 O   0  0  0  0  0  0  0  0  0  0  0  0
   25.2579   -2.6741   30.5196 O   0  0  0  0  0  0  0  0  0  0  0  0
   24.4569   -3.0260   28.0202 O   0  0  0  0  0  0  0  0  0  0  0  0
   25.1522   -0.3529   28.7228 S   0  0  0  0  0  0  0  0  0  0  0  0
   26.5018    0.0941   29.8045 C   0  0  0  0  0  0  0  0  0  0  0  0
   26.7174    1.5140   29.8660 C   0  0  0  0  0  0  0  0  0  0  0  0
   28.0881    1.9245   29.4102 C   0  0  0  0  0  0  0  0  0  0  0  0
   28.7156    1.0738   28.4255 C   0  0  0  0  0  0  0  0  0  0  0  0
   28.6623    3.0458   29.8408 C   0  0  0  0  0  0  0  0  0  0  0  0
   26.2770   -0.2718   30.8172 H   0  0  0  0  0  0  0  0  0  0  0  0
   27.4168   -0.3634   29.4002 H   0  0  0  0  0  0  0  0  0  0  0  0
   25.9730    2.0087   29.2248 H   0  0  0  0  0  0  0  0  0  0  0  0
   26.6198    1.8141   30.9197 H   0  0  0  0  0  0  0  0  0  0  0  0
   29.2945    0.2891   28.9344 H   0  0  0  0  0  0  0  0  0  0  0  0
   27.9423    0.6092   27.7961 H   0  0  0  0  0  0  0  0  0  0  0  0
   29.3878    1.6756   27.7961 H   0  0  0  0  0  0  0  0  0  0  0  0
   29.6678    3.3193   29.4884 H   0  0  0  0  0  0  0  0  0  0  0  0
   28.1312    3.6987   30.5491 H   0  0  0  0  0  0  0  0  0  0  0  0
  1  2  1  0
  1  4  1  6
  1  5  2  0
  1  6  1  0
  2  3  1  0
  3  7  2  0
  3  8  1  6
  3  9  1  0
  9 10  1  0
 10 11  1  0
 11 12  1  0
 12 13  1  0
 12 14  2  0
 10 15  1  0
 10 16  1  0
 11 17  1  0
 11 18  1  0
 13 19  1  0
 13 20  1  0
 13 21  1  0
 14 22  1  0
 14 23  1  0
M  CHG  3   4  -1   6  -1   8  -1
M  END
>  <filename_input>  (5) 
7VQ9_ISY_docked.sdf

>  <pdb_id>  (5) 
7VQ9_ISY

>  <pose_rank>  (5) 
4

>  <num_atoms_heavy>  (5) 
14

>  <num_torsions>  (5) 
6

>  <pose>  (5) 
[25.36859450749723, -2.386147741679949, 29.047598346022728, -0.08108279457709104, -1.4689745161071723, 0.7768851592325157, 0.9442349682279484, -2.145014201302681, -2.525631739447029, 0.00852549357242143, -0.9262285501671461, -1.0786161776456507]

>  <energy>  (5) 
-450.5646893791419

>  <inter_energy>  (5) 
-452.0057412420473

>  <intra_energy>  (5) 
2.226925243764503

>  <rmsd>  (5) 
2.08108

>  <sdf_rank>  (5) 
0

$$$$

     RDKit          3D

 23 22  0  0  0  0  0  0  0  0999 V2000
   26.6861   -5.3200   29.4043 P   0  0  2  0  0  0  0  0  0  0  0  0
   26.5358   -3.7480   29.4498 O   0  0  0  0  0  0  0  0  0  0  0  0
   27.5328   -2.6025   29.7479 P   0  0  2  0  0  0  0  0  0  0  0  0
   26.6566   -5.9151   30.7684 O   0  0  0  0  0  0  0  0  0  0  0  0
   27.9823   -5.6476   28.6377 O   0  0  0  0  0  0  0  0  0  0  0  0
   25.4877   -5.8700   28.6852 O   0  0  0  0  0  0  0  0  0  0  0  0
   28.9426   -3.0828   29.9571 O   0  0  0  0  0  0  0  0  0  0  0  0
   26.8125   -1.7247   30.7513 O   0  0  0  0  0  0  0  0  0  0  0  0
   27.4196   -1.5433   27.9726 S   0  0  0  0  0  0  0  0  0  0  0  0
   28.2350   -0.0978   28.6336 C   0  0  0  0  0  0  0  0  0  0  0  0
   27.3356    1.0064   28.8292 C   0  0  0  0  0  0  0  0  0  0  0  0
   27.9941    2.2020   29.4551 C   0  0  0  0  0  0  0  0  0  0  0  0
   29.3041    2.5463   28.9526 C   0  0  0  0  0  0  0  0  0  0  0  0
   27.3756    2.9410   30.3737 C   0  0  0  0  0  0  0  0  0  0  0  0
   28.6858   -0.3602   29.6020 H   0  0  0  0  0  0  0  0  0  0  0  0
   28.9944    0.2181   27.9032 H   0  0  0  0  0  0  0  0  0  0  0  0
   26.9286    1.3033   27.8514 H   0  0  0  0  0  0  0  0  0  0  0  0
   26.5482    0.6684   29.5191 H   0  0  0  0  0  0  0  0  0  0  0  0
   29.9855    2.7254   29.7973 H   0  0  0  0  0  0  0  0  0  0  0  0
   29.6904    1.7192   28.3389 H   0  0  0  0  0  0  0  0  0  0  0  0
   29.2338    3.4565   28.3389 H   0  0  0  0  0  0  0  0  0  0  0  0
   27.8847    3.8111   30.8138 H   0  0  0  0  0  0  0  0  0  0  0  0
   26.3553    2.6813   30.6927 H   0  0  0  0  0  0  0  0  0  0  0  0
  1  2  1  0
  1  4  1  1
  1  5  2  0
  1  6  1  0
  2  3  1  0
  3  7  2  0
  3  8  1  1
  3  9  1  0
  9 10  1  0
 10 11  1  0
 11 12  1  0
 12 13  1  0
 12 14  2  0
 10 15  1  0
 10 16  1  0
 11 17  1  0
 11 18  1  0
 13 19  1  0
 13 20  1  0
 13 21  1  0
 14 22  1  0
 14 23  1  0
M  CHG  3   4  -1   6  -1   8  -1
M  END
>  <filename_input>  (6) 
7VQ9_ISY_docked.sdf

>  <pdb_id>  (6) 
7VQ9_ISY

>  <pose_rank>  (6) 
5

>  <num_atoms_heavy>  (6) 
14

>  <num_torsions>  (6) 
6

>  <pose>  (6) 
[27.5327567151185, -2.602521369520486, 29.747858595584965, 4.151889773993822, -3.3908575460595625, -1.1048108989468117, -0.18375007384491496, -3.9942506120061436, -4.8264822997061625, 1.2753057227363191, -2.031458831671271, -0.8423392230317243]

>  <energy>  (6) 
-509.8828542987745

>  <inter_energy>  (6) 
-507.3945368987699

>  <intra_energy>  (6) 
5.336914028753256

>  <rmsd>  (6) 
1.54548

>  <sdf_rank>  (6) 
0

$$$$

     RDKit          3D

 23 22  0  0  0  0  0  0  0  0999 V2000
   24.4602   -2.8447   29.3961 P   0  0  2  0  0  0  0  0  0  0  0  0
   25.9665   -2.3907   29.5402 O   0  0  0  0  0  0  0  0  0  0  0  0
   27.2741   -2.8426   28.8466 P   0  0  2  0  0  0  0  0  0  0  0  0
   23.6515   -2.4523   30.5824 O   0  0  0  0  0  0  0  0  0  0  0  0
   24.4484   -4.3647   29.1414 O   0  0  0  0  0  0  0  0  0  0  0  0
   23.8725   -2.1039   28.2292 O   0  0  0  0  0  0  0  0  0  0  0  0
   27.0586   -3.3481   27.4466 O   0  0  0  0  0  0  0  0  0  0  0  0
   28.0038   -3.6488   29.9019 O   0  0  0  0  0  0  0  0  0  0  0  0
   28.2983   -1.0445   28.7824 S   0  0  0  0  0  0  0  0  0  0  0  0
   27.5240   -0.4031   30.2590 C   0  0  0  0  0  0  0  0  0  0  0  0
   27.8955    0.9580   30.5346 C   0  0  0  0  0  0  0  0  0  0  0  0
   27.6438    1.8851   29.3805 C   0  0  0  0  0  0  0  0  0  0  0  0
   26.2745    1.9903   28.9321 C   0  0  0  0  0  0  0  0  0  0  0  0
   28.6182    2.6183   28.8462 C   0  0  0  0  0  0  0  0  0  0  0  0
   26.4323   -0.4511   30.1330 H   0  0  0  0  0  0  0  0  0  0  0  0
   27.8635   -1.0178   31.1057 H   0  0  0  0  0  0  0  0  0  0  0  0
   27.3147    1.3107   31.3995 H   0  0  0  0  0  0  0  0  0  0  0  0
   28.9777    0.9679   30.7318 H   0  0  0  0  0  0  0  0  0  0  0  0
   25.6060    2.0416   29.8041 H   0  0  0  0  0  0  0  0  0  0  0  0
   26.1562    2.9002   28.3253 H   0  0  0  0  0  0  0  0  0  0  0  0
   26.0187    1.1092   28.3253 H   0  0  0  0  0  0  0  0  0  0  0  0
   28.4020    3.2884   28.0010 H   0  0  0  0  0  0  0  0  0  0  0  0
   29.6394    2.5540   29.2499 H   0  0  0  0  0  0  0  0  0  0  0  0
  1  2  1  0
  1  4  1  1
  1  5  2  0
  1  6  1  0
  2  3  1  0
  3  7  2  0
  3  8  1  1
  3  9  1  0
  9 10  1  0
 10 11  1  0
 11 12  1  0
 12 13  1  0
 12 14  2  0
 10 15  1  0
 10 16  1  0
 11 17  1  0
 11 18  1  0
 13 19  1  0
 13 20  1  0
 13 21  1  0
 14 22  1  0
 14 23  1  0
M  CHG  3   4  -1   6  -1   8  -1
M  END
>  <filename_input>  (7) 
7VQ9_ISY_docked.sdf

>  <pdb_id>  (7) 
7VQ9_ISY

>  <pose_rank>  (7) 
6

>  <num_atoms_heavy>  (7) 
14

>  <num_torsions>  (7) 
6

>  <pose>  (7) 
[27.274057561402216, -2.842556368347763, 28.84661953870357, 0.9630414799061763, 1.4299116588535319, -0.38904421245733006, 0.25631905386401527, -2.5870392331496554, -7.205618456348221, 0.10373337180282022, 2.1156714853116902, -0.5369554002963552]

>  <energy>  (7) 
-484.00616738651246

>  <inter_energy>  (7) 
-481.9538285045621

>  <intra_energy>  (7) 
3.827510292322412

>  <rmsd>  (7) 
2.63672

>  <sdf_rank>  (7) 
0

$$$$

     RDKit          3D

 23 22  0  0  0  0  0  0  0  0999 V2000
   26.9973   -4.2535   27.5778 P   0  0  2  0  0  0  0  0  0  0  0  0
   26.7152   -2.9235   28.3824 O   0  0  0  0  0  0  0  0  0  0  0  0
   26.1475   -2.6472   29.7953 P   0  0  2  0  0  0  0  0  0  0  0  0
   28.3750   -4.7617   27.8209 O   0  0  0  0  0  0  0  0  0  0  0  0
   26.7189   -3.9714   26.0884 O   0  0  0  0  0  0  0  0  0  0  0  0
   26.0665   -5.3084   28.1038 O   0  0  0  0  0  0  0  0  0  0  0  0
   26.4518   -3.7416   30.7811 O   0  0  0  0  0  0  0  0  0  0  0  0
   24.7410   -2.1412   29.5464 O   0  0  0  0  0  0  0  0  0  0  0  0
   27.2176   -0.9475   30.2973 S   0  0  0  0  0  0  0  0  0  0  0  0
   26.9199   -0.1414   28.7311 C   0  0  0  0  0  0  0  0  0  0  0  0
   27.9637    0.7800   28.3734 C   0  0  0  0  0  0  0  0  0  0  0  0
   27.9345    2.0481   29.1772 C   0  0  0  0  0  0  0  0  0  0  0  0
   29.1058    2.8889   29.0874 C   0  0  0  0  0  0  0  0  0  0  0  0
   26.8617    2.4074   29.8790 C   0  0  0  0  0  0  0  0  0  0  0  0
   26.8459   -0.9104   27.9481 H   0  0  0  0  0  0  0  0  0  0  0  0
   25.9873    0.4341   28.8259 H   0  0  0  0  0  0  0  0  0  0  0  0
   28.9344    0.2876   28.5325 H   0  0  0  0  0  0  0  0  0  0  0  0
   27.8086    1.0569   27.3202 H   0  0  0  0  0  0  0  0  0  0  0  0
   29.4555    3.1399   30.0997 H   0  0  0  0  0  0  0  0  0  0  0  0
   29.9007    2.3539   28.5471 H   0  0  0  0  0  0  0  0  0  0  0  0
   28.8532    3.8131   28.5471 H   0  0  0  0  0  0  0  0  0  0  0  0
   26.8711    3.3426   30.4580 H   0  0  0  0  0  0  0  0  0  0  0  0
   25.9659    1.7690   29.8798 H   0  0  0  0  0  0  0  0  0  0  0  0
  1  2  1  0
  1  4  1  6
  1  5  2  0
  1  6  1  0
  2  3  1  0
  3  7  2  0
  3  8  1  6
  3  9  1  0
  9 10  1  0
 10 11  1  0
 11 12  1  0
 12 13  1  0
 12 14  2  0
 10 15  1  0
 10 16  1  0
 11 17  1  0
 11 18  1  0
 13 19  1  0
 13 20  1  0
 13 21  1  0
 14 22  1  0
 14 23  1  0
M  CHG  3   4  -1   6  -1   8  -1
M  END
>  <filename_input>  (8) 
7VQ9_ISY_docked.sdf

>  <pdb_id>  (8) 
7VQ9_ISY

>  <pose_rank>  (8) 
7

>  <num_atoms_heavy>  (8) 
14

>  <num_torsions>  (8) 
6

>  <pose>  (8) 
[26.147499587043523, -2.6472191228254682, 29.795293568968077, -0.7824132029833886, 5.257888742549997, 0.6241516568177089, 0.26597138050919644, 5.607212696900002, 37.079271726347955, -24.629990314352412, 12.444723145348744, 13.89266569744036]

>  <energy>  (8) 
-518.2620349940838

>  <inter_energy>  (8) 
-516.9372455378672

>  <intra_energy>  (8) 
9.76813508609905

>  <rmsd>  (8) 
1.27829

>  <sdf_rank>  (8) 
0

$$$$

     RDKit          3D

 23 22  0  0  0  0  0  0  0  0999 V2000
   24.8425   -5.2009   26.8131 P   0  0  2  0  0  0  0  0  0  0  0  0
   25.2932   -4.0575   27.8058 O   0  0  0  0  0  0  0  0  0  0  0  0
   26.1751   -4.0535   29.0775 P   0  0  2  0  0  0  0  0  0  0  0  0
   23.4854   -5.7141   27.1451 O   0  0  0  0  0  0  0  0  0  0  0  0
   25.9208   -6.3017   26.8414 O   0  0  0  0  0  0  0  0  0  0  0  0
   24.7341   -4.5956   25.4428 O   0  0  0  0  0  0  0  0  0  0  0  0
   27.5437   -4.6349   28.8520 O   0  0  0  0  0  0  0  0  0  0  0  0
   25.2541   -4.5382   30.1789 O   0  0  0  0  0  0  0  0  0  0  0  0
   26.3355   -2.0162   29.4091 S   0  0  0  0  0  0  0  0  0  0  0  0
   27.5642   -1.7753   28.1348 C   0  0  0  0  0  0  0  0  0  0  0  0
   28.1589   -0.4673   28.1769 C   0  0  0  0  0  0  0  0  0  0  0  0
   27.2691    0.5672   28.8039 C   0  0  0  0  0  0  0  0  0  0  0  0
   25.8559    0.2681   28.8224 C   0  0  0  0  0  0  0  0  0  0  0  0
   27.7640    1.6659   29.3698 C   0  0  0  0  0  0  0  0  0  0  0  0
   28.3572   -2.5266   28.2642 H   0  0  0  0  0  0  0  0  0  0  0  0
   27.0594   -1.8793   27.1630 H   0  0  0  0  0  0  0  0  0  0  0  0
   29.0909   -0.5255   28.7584 H   0  0  0  0  0  0  0  0  0  0  0  0
   28.3393   -0.1566   27.1373 H   0  0  0  0  0  0  0  0  0  0  0  0
   25.5102    0.1950   29.8641 H   0  0  0  0  0  0  0  0  0  0  0  0
   25.3047    1.0696   28.3085 H   0  0  0  0  0  0  0  0  0  0  0  0
   25.6766   -0.6878   28.3085 H   0  0  0  0  0  0  0  0  0  0  0  0
   27.0860    2.4054   29.8209 H   0  0  0  0  0  0  0  0  0  0  0  0
   28.8509    1.8343   29.3864 H   0  0  0  0  0  0  0  0  0  0  0  0
  1  2  1  0
  1  4  1  1
  1  5  2  0
  1  6  1  0
  2  3  1  0
  3  7  2  0
  3  8  1  1
  3  9  1  0
  9 10  1  0
 10 11  1  0
 11 12  1  0
 12 13  1  0
 12 14  2  0
 10 15  1  0
 10 16  1  0
 11 17  1  0
 11 18  1  0
 13 19  1  0
 13 20  1  0
 13 21  1  0
 14 22  1  0
 14 23  1  0
M  CHG  3   4  -1   6  -1   8  -1
M  END
>  <filename_input>  (9) 
7VQ9_ISY_docked.sdf

>  <pdb_id>  (9) 
7VQ9_ISY

>  <pose_rank>  (9) 
8

>  <num_atoms_heavy>  (9) 
14

>  <num_torsions>  (9) 
6

>  <pose>  (9) 
[26.17507590598741, -4.053518288578711, 29.077516469605207, -4.756545815157433, -1.5661994933297254, -2.581714962710567, 0.7093144370674137, 2.591392032148837, 3.4874946434346294, 0.20087008770702194, 0.7190324137877719, 4.320734818084716]

>  <energy>  (9) 
-297.70480996058177

>  <inter_energy>  (9) 
-358.44947936555934

>  <intra_energy>  (9) 
70.06272178405335

>  <rmsd>  (9) 
2.51588

>  <sdf_rank>  (9) 
0

$$$$

     RDKit          3D

 23 22  0  0  0  0  0  0  0  0999 V2000
   23.4367   -7.5753   34.3179 P   0  0  2  0  0  0  0  0  0  0  0  0
   24.3843   -7.7403   33.0646 O   0  0  0  0  0  0  0  0  0  0  0  0
   24.3097   -7.2149   31.6109 P   0  0  2  0  0  0  0  0  0  0  0  0
   23.0828   -6.1493   34.5559 O   0  0  0  0  0  0  0  0  0  0  0  0
   24.1362   -8.2270   35.5267 O   0  0  0  0  0  0  0  0  0  0  0  0
   22.1459   -8.2773   34.0065 O   0  0  0  0  0  0  0  0  0  0  0  0
   24.7654   -5.7883   31.4719 O   0  0  0  0  0  0  0  0  0  0  0  0
   22.9653   -7.6951   31.1029 O   0  0  0  0  0  0  0  0  0  0  0  0
   25.6773   -8.4699   30.6940 S   0  0  0  0  0  0  0  0  0  0  0  0
   26.8634   -8.3617   32.0255 C   0  0  0  0  0  0  0  0  0  0  0  0
   27.6253   -9.5695   32.1901 C   0  0  0  0  0  0  0  0  0  0  0  0
   28.9779   -9.5088   31.5406 C   0  0  0  0  0  0  0  0  0  0  0  0
   30.0920   -9.9624   32.3406 C   0  0  0  0  0  0  0  0  0  0  0  0
   29.1304   -9.1216   30.2760 C   0  0  0  0  0  0  0  0  0  0  0  0
   27.5567   -7.5346   31.8127 H   0  0  0  0  0  0  0  0  0  0  0  0
   26.3026   -8.1935   32.9568 H   0  0  0  0  0  0  0  0  0  0  0  0
   27.7621   -9.7527   33.2661 H   0  0  0  0  0  0  0  0  0  0  0  0
   27.0640  -10.3793   31.7012 H   0  0  0  0  0  0  0  0  0  0  0  0
   29.8429   -9.8609   33.4072 H   0  0  0  0  0  0  0  0  0  0  0  0
   30.3021  -11.0176   32.1119 H   0  0  0  0  0  0  0  0  0  0  0  0
   30.9794   -9.3540   32.1119 H   0  0  0  0  0  0  0  0  0  0  0  0
   30.1346   -9.0876   29.8284 H   0  0  0  0  0  0  0  0  0  0  0  0
   28.2520   -8.8358   29.6786 H   0  0  0  0  0  0  0  0  0  0  0  0
  1  2  1  0
  1  4  1  1
  1  5  2  0
  1  6  1  0
  2  3  1  0
  3  7  2  0
  3  8  1  6
  3  9  1  0
  9 10  1  0
 10 11  1  0
 11 12  1  0
 12 13  1  0
 12 14  2  0
 10 15  1  0
 10 16  1  0
 11 17  1  0
 11 18  1  0
 13 19  1  0
 13 20  1  0
 13 21  1  0
 14 22  1  0
 14 23  1  0
M  CHG  3   4  -1   6  -1   8  -1
M  END
>  <filename_input>  (10) 
7VQ9_ISY_docked.sdf

>  <pdb_id>  (10) 
7VQ9_ISY

>  <pose_rank>  (10) 
9

>  <num_atoms_heavy>  (10) 
14

>  <num_torsions>  (10) 
6

>  <pose>  (10) 
[24.309705117744123, -7.214852151343381, 31.610930231282452, -8.325693834209398, -1.7888804048531517, 2.3835300444872565, 1.1465344290122543, 0.022967959095887787, -2.1776910741348936, 5.7433387541432195, 2.8854956404390983, 7.016318977873938]

>  <energy>  (10) 
-104.85794514450102

>  <inter_energy>  (10) 
-117.51425748243756

>  <intra_energy>  (10) 
7.128662018363724

>  <rmsd>  (10) 
9.3849

>  <sdf_rank>  (10) 
0

$$$$

     RDKit          3D

 23 22  0  0  0  0  0  0  0  0999 V2000
   23.4501   -8.6069   26.4847 P   0  0  2  0  0  0  0  0  0  0  0  0
   23.0361   -7.4363   27.4615 O   0  0  0  0  0  0  0  0  0  0  0  0
   23.8191   -6.6166   28.5150 P   0  0  2  0  0  0  0  0  0  0  0  0
   22.4278   -9.6884   26.4578 O   0  0  0  0  0  0  0  0  0  0  0  0
   24.8414   -9.1106   26.9158 O   0  0  0  0  0  0  0  0  0  0  0  0
   23.4947   -8.0428   25.0934 O   0  0  0  0  0  0  0  0  0  0  0  0
   24.7445   -7.4564   29.3518 O   0  0  0  0  0  0  0  0  0  0  0  0
   22.7835   -5.6918   29.1219 O   0  0  0  0  0  0  0  0  0  0  0  0
   24.9322   -5.3884   27.2744 S   0  0  0  0  0  0  0  0  0  0  0  0
   25.4895   -4.3339   28.6044 C   0  0  0  0  0  0  0  0  0  0  0  0
   26.0224   -3.0837   28.1359 C   0  0  0  0  0  0  0  0  0  0  0  0
   26.2807   -2.0998   29.2404 C   0  0  0  0  0  0  0  0  0  0  0  0
   27.5898   -1.4891   29.2591 C   0  0  0  0  0  0  0  0  0  0  0  0
   25.3329   -1.7609   30.1118 C   0  0  0  0  0  0  0  0  0  0  0  0
   24.6380   -4.1264   29.2691 H   0  0  0  0  0  0  0  0  0  0  0  0
   26.2976   -4.8628   29.1310 H   0  0  0  0  0  0  0  0  0  0  0  0
   26.9707   -3.2813   27.6147 H   0  0  0  0  0  0  0  0  0  0  0  0
   25.2699   -2.6369   27.4694 H   0  0  0  0  0  0  0  0  0  0  0  0
   27.9099   -1.3399   30.3009 H   0  0  0  0  0  0  0  0  0  0  0  0
   28.3079   -2.1453   28.7454 H   0  0  0  0  0  0  0  0  0  0  0  0
   27.5486   -0.5174   28.7454 H   0  0  0  0  0  0  0  0  0  0  0  0
   25.5532   -1.0370   30.9102 H   0  0  0  0  0  0  0  0  0  0  0  0
   24.3296   -2.2049   30.0335 H   0  0  0  0  0  0  0  0  0  0  0  0
  1  2  1  0
  1  4  1  6
  1  5  2  0
  1  6  1  0
  2  3  1  0
  3  7  2  0
  3  8  1  1
  3  9  1  0
  9 10  1  0
 10 11  1  0
 11 12  1  0
 12 13  1  0
 12 14  2  0
 10 15  1  0
 10 16  1  0
 11 17  1  0
 11 18  1  0
 13 19  1  0
 13 20  1  0
 13 21  1  0
 14 22  1  0
 14 23  1  0
M  CHG  3   4  -1   6  -1   8  -1
M  END
>  <filename_input>  (11) 
7VQ9_ISY_docked.sdf

>  <pdb_id>  (11) 
7VQ9_ISY

>  <pose_rank>  (11) 
10

>  <num_atoms_heavy>  (11) 
14

>  <num_torsions>  (11) 
6

>  <pose>  (11) 
[23.81913486145671, -6.61657704552948, 28.514973928810598, 5.275709350228347, 0.630650505937886, 2.4200342569533833, -0.9913571607544689, -3.007706310040869, 14.084911726157104, -12.264157782783483, -20.993301621073226, 6.957075068717368]

>  <energy>  (11) 
-203.5421744676115

>  <inter_energy>  (11) 
-207.875272930869

>  <intra_energy>  (11) 
6.177184716265893

>  <rmsd>  (11) 
5.42957

>  <sdf_rank>  (11) 
0

$$$$

     RDKit          3D

 23 22  0  0  0  0  0  0  0  0999 V2000
   27.2155    1.8870   29.7977 P   0  0  2  0  0  0  0  0  0  0  0  0
   26.4849    0.4862   29.7947 O   0  0  0  0  0  0  0  0  0  0  0  0
   27.0028   -0.9721   29.7882 P   0  0  2  0  0  0  0  0  0  0  0  0
   26.5176    2.8694   30.6713 O   0  0  0  0  0  0  0  0  0  0  0  0
   27.3290    2.3624   28.3360 O   0  0  0  0  0  0  0  0  0  0  0  0
   28.5764    1.6879   30.4010 O   0  0  0  0  0  0  0  0  0  0  0  0
   27.5423   -1.4158   31.1201 O   0  0  0  0  0  0  0  0  0  0  0  0
   27.8020   -1.0848   28.5057 O   0  0  0  0  0  0  0  0  0  0  0  0
   25.2444   -1.9866   29.3820 S   0  0  0  0  0  0  0  0  0  0  0  0
   26.0184   -3.1399   28.2584 C   0  0  0  0  0  0  0  0  0  0  0  0
   26.4789   -4.3321   28.9164 C   0  0  0  0  0  0  0  0  0  0  0  0
   26.0862   -5.5923   28.2004 C   0  0  0  0  0  0  0  0  0  0  0  0
   26.3199   -6.8293   28.9090 C   0  0  0  0  0  0  0  0  0  0  0  0
   25.4947   -5.5645   27.0080 C   0  0  0  0  0  0  0  0  0  0  0  0
   25.2874   -3.4239   27.4870 H   0  0  0  0  0  0  0  0  0  0  0  0
   26.8966   -2.6406   27.8231 H   0  0  0  0  0  0  0  0  0  0  0  0
   27.5764   -4.2941   28.9809 H   0  0  0  0  0  0  0  0  0  0  0  0
   26.0074   -4.3601   29.9099 H   0  0  0  0  0  0  0  0  0  0  0  0
   26.2848   -6.6435   29.9926 H   0  0  0  0  0  0  0  0  0  0  0  0
   25.5439   -7.5600   28.6369 H   0  0  0  0  0  0  0  0  0  0  0  0
   27.3090   -7.2265   28.6369 H   0  0  0  0  0  0  0  0  0  0  0  0
   25.2190   -6.5051   26.5087 H   0  0  0  0  0  0  0  0  0  0  0  0
   25.2816   -4.6009   26.5221 H   0  0  0  0  0  0  0  0  0  0  0  0
  1  2  1  0
  1  4  1  1
  1  5  2  0
  1  6  1  0
  2  3  1  0
  3  7  2  0
  3  8  1  6
  3  9  1  0
  9 10  1  0
 10 11  1  0
 11 12  1  0
 12 13  1  0
 12 14  2  0
 10 15  1  0
 10 16  1  0
 11 17  1  0
 11 18  1  0
 13 19  1  0
 13 20  1  0
 13 21  1  0
 14 22  1  0
 14 23  1  0
M  CHG  3   4  -1   6  -1   8  -1
M  END
>  <filename_input>  (12) 
7VQ9_ISY_docked.sdf

>  <pdb_id>  (12) 
7VQ9_ISY

>  <pose_rank>  (12) 
11

>  <num_atoms_heavy>  (12) 
14

>  <num_torsions>  (12) 
6

>  <pose>  (12) 
[27.002835156920526, -0.9721412442769487, 29.788213040967477, -1.8774430930868815, 1.5121273861218092, -1.9851256010518452, 1.0522163282317984, -1.5684299613862587, -5.290390058072049, -1.5357458250917075, 9.76683873614802, -4.557739251846286]

>  <energy>  (12) 
-446.5568957609278

>  <inter_energy>  (12) 
-413.2509298181556

>  <intra_energy>  (12) 
0.2213162736676434

>  <rmsd>  (12) 
6.34962

>  <sdf_rank>  (12) 
0

$$$$

     RDKit          3D

 23 22  0  0  0  0  0  0  0  0999 V2000
   26.0041   -3.8036   28.2721 P   0  0  2  0  0  0  0  0  0  0  0  0
   27.4529   -3.2566   28.5847 O   0  0  0  0  0  0  0  0  0  0  0  0
   27.9720   -2.0821   29.4484 P   0  0  2  0  0  0  0  0  0  0  0  0
   25.9702   -4.5750   26.9996 O   0  0  0  0  0  0  0  0  0  0  0  0
   25.0377   -2.6030   28.2688 O   0  0  0  0  0  0  0  0  0  0  0  0
   25.6422   -4.7765   29.3576 O   0  0  0  0  0  0  0  0  0  0  0  0
   29.3507   -2.3167   30.0015 O   0  0  0  0  0  0  0  0  0  0  0  0
   26.7942   -1.7068   30.3250 O   0  0  0  0  0  0  0  0  0  0  0  0
   28.0446   -0.5808   28.0247 S   0  0  0  0  0  0  0  0  0  0  0  0
   27.2280    0.6211   29.0640 C   0  0  0  0  0  0  0  0  0  0  0  0
   28.1293    1.2697   29.9768 C   0  0  0  0  0  0  0  0  0  0  0  0
   28.1835    2.7595   29.7964 C   0  0  0  0  0  0  0  0  0  0  0  0
   27.4558    3.5473   30.7643 C   0  0  0  0  0  0  0  0  0  0  0  0
   28.9162    3.3223   28.8379 C   0  0  0  0  0  0  0  0  0  0  0  0
   26.7669    1.3860   28.4218 H   0  0  0  0  0  0  0  0  0  0  0  0
   26.4767    0.0858   29.6633 H   0  0  0  0  0  0  0  0  0  0  0  0
   27.8016    1.0536   31.0044 H   0  0  0  0  0  0  0  0  0  0  0  0
   29.1374    0.8790   29.7738 H   0  0  0  0  0  0  0  0  0  0  0  0
   27.7425    3.2369   31.7799 H   0  0  0  0  0  0  0  0  0  0  0  0
   27.6951    4.6119   30.6250 H   0  0  0  0  0  0  0  0  0  0  0  0
   26.3756    3.3931   30.6250 H   0  0  0  0  0  0  0  0  0  0  0  0
   28.9352    4.4169   28.7312 H   0  0  0  0  0  0  0  0  0  0  0  0
   29.5025    2.6926   28.1525 H   0  0  0  0  0  0  0  0  0  0  0  0
  1  2  1  0
  1  4  1  6
  1  5  2  0
  1  6  1  0
  2  3  1  0
  3  7  2  0
  3  8  1  1
  3  9  1  0
  9 10  1  0
 10 11  1  0
 11 12  1  0
 12 13  1  0
 12 14  2  0
 10 15  1  0
 10 16  1  0
 11 17  1  0
 11 18  1  0
 13 19  1  0
 13 20  1  0
 13 21  1  0
 14 22  1  0
 14 23  1  0
M  CHG  3   4  -1   6  -1   8  -1
M  END
>  <filename_input>  (13) 
7VQ9_ISY_docked.sdf

>  <pdb_id>  (13) 
7VQ9_ISY

>  <pose_rank>  (13) 
12

>  <num_atoms_heavy>  (13) 
14

>  <num_torsions>  (13) 
6

>  <pose>  (13) 
[27.971977201075077, -2.082088231394049, 29.448428742810474, 4.291208852601995, -0.982092433353549, -3.655696417970684, 2.3859646639788705, -2.6484080407690875, -11.682405809892522, -7.962728694363359, -3.0163557901728804, 0.20525239824734187]

>  <energy>  (13) 
-476.89583248450697

>  <inter_energy>  (13) 
-494.44963327223627

>  <intra_energy>  (13) 
12.306020478887643

>  <rmsd>  (13) 
1.36772

>  <sdf_rank>  (13) 
0

$$$$

     RDKit          3D

 23 22  0  0  0  0  0  0  0  0999 V2000
   27.6065    1.8953   29.3672 P   0  0  2  0  0  0  0  0  0  0  0  0
   27.5088    0.6032   28.4634 O   0  0  0  0  0  0  0  0  0  0  0  0
   27.7976   -0.8936   28.7304 P   0  0  2  0  0  0  0  0  0  0  0  0
   28.1452    1.5816   30.7189 O   0  0  0  0  0  0  0  0  0  0  0  0
   26.2087    2.5426   29.4167 O   0  0  0  0  0  0  0  0  0  0  0  0
   28.6011    2.8219   28.7284 O   0  0  0  0  0  0  0  0  0  0  0  0
   29.2661   -1.2119   28.7948 O   0  0  0  0  0  0  0  0  0  0  0  0
   26.8419   -1.6329   27.8159 O   0  0  0  0  0  0  0  0  0  0  0  0
   26.9621   -1.1007   30.6132 S   0  0  0  0  0  0  0  0  0  0  0  0
   25.4757   -1.8855   30.0082 C   0  0  0  0  0  0  0  0  0  0  0  0
   25.1241   -3.0611   30.7571 C   0  0  0  0  0  0  0  0  0  0  0  0
   25.3190   -4.3344   29.9853 C   0  0  0  0  0  0  0  0  0  0  0  0
   24.2137   -4.7543   29.1552 C   0  0  0  0  0  0  0  0  0  0  0  0
   26.4711   -5.0010   30.0142 C   0  0  0  0  0  0  0  0  0  0  0  0
   24.6463   -1.1658   30.0734 H   0  0  0  0  0  0  0  0  0  0  0  0
   25.6637   -2.1971   28.9702 H   0  0  0  0  0  0  0  0  0  0  0  0
   25.7504   -3.1004   31.6605 H   0  0  0  0  0  0  0  0  0  0  0  0
   24.0537   -2.9863   30.9994 H   0  0  0  0  0  0  0  0  0  0  0  0
   23.3761   -5.0724   29.7934 H   0  0  0  0  0  0  0  0  0  0  0  0
   23.8927   -3.9154   28.5202 H   0  0  0  0  0  0  0  0  0  0  0  0
   24.5306   -5.5946   28.5202 H   0  0  0  0  0  0  0  0  0  0  0  0
   26.5829   -5.9312   29.4378 H   0  0  0  0  0  0  0  0  0  0  0  0
   27.3112   -4.6215   30.6145 H   0  0  0  0  0  0  0  0  0  0  0  0
  1  2  1  0
  1  4  1  1
  1  5  2  0
  1  6  1  0
  2  3  1  0
  3  7  2  0
  3  8  1  6
  3  9  1  0
  9 10  1  0
 10 11  1  0
 11 12  1  0
 12 13  1  0
 12 14  2  0
 10 15  1  0
 10 16  1  0
 11 17  1  0
 11 18  1  0
 13 19  1  0
 13 20  1  0
 13 21  1  0
 14 22  1  0
 14 23  1  0
M  CHG  3   4  -1   6  -1   8  -1
M  END
>  <filename_input>  (14) 
7VQ9_ISY_docked.sdf

>  <pdb_id>  (14) 
7VQ9_ISY

>  <pose_rank>  (14) 
13

>  <num_atoms_heavy>  (14) 
14

>  <num_torsions>  (14) 
6

>  <pose>  (14) 
[27.797649294107696, -0.8935549435593697, 28.730363842728877, -3.693355765811052, 1.4277454585459215, -1.2218336933242049, -14.122563180728276, -5.332687976693221, 0.3372611309854461, -7.087828390999765, 11.816637177241045, 9.46744266833739]

>  <energy>  (14) 
-377.3743461581004

>  <inter_energy>  (14) 
-379.4112259163994

>  <intra_energy>  (14) 
17.623352562285046

>  <rmsd>  (14) 
5.86208

>  <sdf_rank>  (14) 
0

$$$$

     RDKit          3D

 23 22  0  0  0  0  0  0  0  0999 V2000
   27.6645   -5.1467   29.3016 P   0  0  2  0  0  0  0  0  0  0  0  0
   27.3208   -3.6932   29.8164 O   0  0  0  0  0  0  0  0  0  0  0  0
   26.9532   -2.3775   29.0893 P   0  0  2  0  0  0  0  0  0  0  0  0
   28.1000   -6.0354   30.4134 O   0  0  0  0  0  0  0  0  0  0  0  0
   28.7257   -5.0149   28.1916 O   0  0  0  0  0  0  0  0  0  0  0  0
   26.3989   -5.7479   28.7607 O   0  0  0  0  0  0  0  0  0  0  0  0
   25.6543   -2.4593   28.3356 O   0  0  0  0  0  0  0  0  0  0  0  0
   28.2468   -1.9296   28.4394 O   0  0  0  0  0  0  0  0  0  0  0  0
   26.7331   -1.1088   30.7105 S   0  0  0  0  0  0  0  0  0  0  0  0
   27.8018    0.1520   30.0326 C   0  0  0  0  0  0  0  0  0  0  0  0
   27.1481    1.4263   29.9085 C   0  0  0  0  0  0  0  0  0  0  0  0
   28.0714    2.5241   29.4645 C   0  0  0  0  0  0  0  0  0  0  0  0
   28.3161    3.5792   30.4204 C   0  0  0  0  0  0  0  0  0  0  0  0
   28.6813    2.4901   28.2815 C   0  0  0  0  0  0  0  0  0  0  0  0
   28.6737    0.2668   30.6934 H   0  0  0  0  0  0  0  0  0  0  0  0
   28.0959   -0.1699   29.0227 H   0  0  0  0  0  0  0  0  0  0  0  0
   26.3366    1.3326   29.1719 H   0  0  0  0  0  0  0  0  0  0  0  0
   26.7716    1.6990   30.9055 H   0  0  0  0  0  0  0  0  0  0  0  0
   28.2232    3.1785   31.4406 H   0  0  0  0  0  0  0  0  0  0  0  0
   29.3307    3.9784   30.2743 H   0  0  0  0  0  0  0  0  0  0  0  0
   27.5808    4.3842   30.2743 H   0  0  0  0  0  0  0  0  0  0  0  0
   29.3522    3.3098   27.9848 H   0  0  0  0  0  0  0  0  0  0  0  0
   28.5144    1.6422   27.6009 H   0  0  0  0  0  0  0  0  0  0  0  0
  1  2  1  0
  1  4  1  1
  1  5  2  0
  1  6  1  0
  2  3  1  0
  3  7  2  0
  3  8  1  6
  3  9  1  0
  9 10  1  0
 10 11  1  0
 11 12  1  0
 12 13  1  0
 12 14  2  0
 10 15  1  0
 10 16  1  0
 11 17  1  0
 11 18  1  0
 13 19  1  0
 13 20  1  0
 13 21  1  0
 14 22  1  0
 14 23  1  0
M  CHG  3   4  -1   6  -1   8  -1
M  END
>  <filename_input>  (15) 
7VQ9_ISY_docked.sdf

>  <pdb_id>  (15) 
7VQ9_ISY

>  <pose_rank>  (15) 
14

>  <num_atoms_heavy>  (15) 
14

>  <num_torsions>  (15) 
6

>  <pose>  (15) 
[26.95323491225447, -2.377495902288472, 29.089286615875015, 0.5532835663889609, 2.940670639640358, 0.9194459009770025, 0.862575157719814, -2.3579417414131068, -5.46108122214261, -0.9842178065051126, 10.49405250533709, -3.582006215821163]

>  <energy>  (15) 
-480.5800911966841

>  <inter_energy>  (15) 
-471.9770352456183

>  <intra_energy>  (15) 
2.1529143944576337

>  <rmsd>  (15) 
1.89608

>  <sdf_rank>  (15) 
0

$$$$

     RDKit          3D

 23 22  0  0  0  0  0  0  0  0999 V2000
   25.2353   -4.7729   28.6550 P   0  0  2  0  0  0  0  0  0  0  0  0
   26.6555   -4.3322   29.1886 O   0  0  0  0  0  0  0  0  0  0  0  0
   27.1378   -3.1233   30.0257 P   0  0  2  0  0  0  0  0  0  0  0  0
   25.3459   -5.7716   27.5568 O   0  0  0  0  0  0  0  0  0  0  0  0
   24.4755   -3.5008   28.2311 O   0  0  0  0  0  0  0  0  0  0  0  0
   24.5238   -5.4692   29.7796 O   0  0  0  0  0  0  0  0  0  0  0  0
   28.5207   -3.3054   30.5882 O   0  0  0  0  0  0  0  0  0  0  0  0
   25.9467   -2.7613   30.8897 O   0  0  0  0  0  0  0  0  0  0  0  0
   27.1726   -1.6545   28.5671 S   0  0  0  0  0  0  0  0  0  0  0  0
   26.5152   -0.3893   29.6434 C   0  0  0  0  0  0  0  0  0  0  0  0
   27.5029    0.5824   30.0262 C   0  0  0  0  0  0  0  0  0  0  0  0
   27.2155    1.9581   29.4972 C   0  0  0  0  0  0  0  0  0  0  0  0
   26.6627    2.9028   30.4400 C   0  0  0  0  0  0  0  0  0  0  0  0
   27.5164    2.3044   28.2474 C   0  0  0  0  0  0  0  0  0  0  0  0
   25.6974    0.1277   29.1201 H   0  0  0  0  0  0  0  0  0  0  0  0
   26.1631   -0.8839   30.5607 H   0  0  0  0  0  0  0  0  0  0  0  0
   27.5386    0.6306   31.1246 H   0  0  0  0  0  0  0  0  0  0  0  0
   28.4625    0.2604   29.5954 H   0  0  0  0  0  0  0  0  0  0  0  0
   26.8642    2.5584   31.4651 H   0  0  0  0  0  0  0  0  0  0  0  0
   27.1266    3.8883   30.2864 H   0  0  0  0  0  0  0  0  0  0  0  0
   25.5762    2.9811   30.2864 H   0  0  0  0  0  0  0  0  0  0  0  0
   27.2933    3.3203   27.8893 H   0  0  0  0  0  0  0  0  0  0  0  0
   27.9883    1.5747   27.5729 H   0  0  0  0  0  0  0  0  0  0  0  0
  1  2  1  0
  1  4  1  6
  1  5  2  0
  1  6  1  0
  2  3  1  0
  3  7  2  0
  3  8  1  1
  3  9  1  0
  9 10  1  0
 10 11  1  0
 11 12  1  0
 12 13  1  0
 12 14  2  0
 10 15  1  0
 10 16  1  0
 11 17  1  0
 11 18  1  0
 13 19  1  0
 13 20  1  0
 13 21  1  0
 14 22  1  0
 14 23  1  0
M  CHG  3   4  -1   6  -1   8  -1
M  END
>  <filename_input>  (16) 
7VQ9_ISY_docked.sdf

>  <pdb_id>  (16) 
7VQ9_ISY

>  <pose_rank>  (16) 
15

>  <num_atoms_heavy>  (16) 
14

>  <num_torsions>  (16) 
6

>  <pose>  (16) 
[27.1377873772382, -3.1233323520328824, 30.02571836034273, 4.255187292369299, -0.8726006326414245, -3.670138022478553, 2.6261466475688686, -2.55569106261092, -11.560209687139778, -7.5326432725959815, -3.11497181637519, 0.20187459659342533]

>  <energy>  (16) 
-406.0333934242152

>  <inter_energy>  (16) 
-415.4763674625369

>  <intra_energy>  (16) 
8.018130886223414

>  <rmsd>  (16) 
1.86185

>  <sdf_rank>  (16) 
0

$$$$

     RDKit          3D

 23 22  0  0  0  0  0  0  0  0999 V2000
   24.7013   -4.2446   27.5185 P   0  0  2  0  0  0  0  0  0  0  0  0
   25.4664   -2.9246   27.9285 O   0  0  0  0  0  0  0  0  0  0  0  0
   26.1786   -2.4803   29.2286 P   0  0  2  0  0  0  0  0  0  0  0  0
   23.3606   -4.3250   28.1599 O   0  0  0  0  0  0  0  0  0  0  0  0
   25.6051   -5.4421   27.8713 O   0  0  0  0  0  0  0  0  0  0  0  0
   24.4510   -4.1831   26.0388 O   0  0  0  0  0  0  0  0  0  0  0  0
   27.3290   -3.3713   29.6088 O   0  0  0  0  0  0  0  0  0  0  0  0
   25.0505   -2.1515   30.1854 O   0  0  0  0  0  0  0  0  0  0  0  0
   26.9012   -0.6315   28.6405 S   0  0  0  0  0  0  0  0  0  0  0  0
   28.0794   -0.5226   29.9790 C   0  0  0  0  0  0  0  0  0  0  0  0
   27.9392    0.6856   30.7453 C   0  0  0  0  0  0  0  0  0  0  0  0
   28.1630    1.9296   29.9346 C   0  0  0  0  0  0  0  0  0  0  0  0
   29.3423    1.9452   29.1003 C   0  0  0  0  0  0  0  0  0  0  0  0
   27.2875    2.9326   29.9354 C   0  0  0  0  0  0  0  0  0  0  0  0
   27.9318   -1.3828   30.6484 H   0  0  0  0  0  0  0  0  0  0  0  0
   29.0861   -0.5196   29.5357 H   0  0  0  0  0  0  0  0  0  0  0  0
   26.9221    0.7187   31.1628 H   0  0  0  0  0  0  0  0  0  0  0  0
   28.7082    0.6650   31.5315 H   0  0  0  0  0  0  0  0  0  0  0  0
   30.2405    1.9571   29.7352 H   0  0  0  0  0  0  0  0  0  0  0  0
   29.3541    1.0471   28.4652 H   0  0  0  0  0  0  0  0  0  0  0  0
   29.3303    2.8433   28.4652 H   0  0  0  0  0  0  0  0  0  0  0  0
   27.4799    3.8311   29.3307 H   0  0  0  0  0  0  0  0  0  0  0  0
   26.3717    2.8627   30.5406 H   0  0  0  0  0  0  0  0  0  0  0  0
  1  2  1  0
  1  4  1  1
  1  5  2  0
  1  6  1  0
  2  3  1  0
  3  7  2  0
  3  8  1  1
  3  9  1  0
  9 10  1  0
 10 11  1  0
 11 12  1  0
 12 13  1  0
 12 14  2  0
 10 15  1  0
 10 16  1  0
 11 17  1  0
 11 18  1  0
 13 19  1  0
 13 20  1  0
 13 21  1  0
 14 22  1  0
 14 23  1  0
M  CHG  3   4  -1   6  -1   8  -1
M  END
>  <filename_input>  (17) 
7VQ9_ISY_docked.sdf

>  <pdb_id>  (17) 
7VQ9_ISY

>  <pose_rank>  (17) 
16

>  <num_atoms_heavy>  (17) 
14

>  <num_torsions>  (17) 
6

>  <pose>  (17) 
[26.178623286276803, -2.4802890517205234, 29.22862855040585, 5.266158499638085, 0.7371540475796012, 3.452222185012553, 0.8063612712034209, -4.090974498344658, 20.853866608505655, -11.602429708410536, -18.752788127839647, 3.859814391576588]

>  <energy>  (17) 
-492.4215568975714

>  <inter_energy>  (17) 
-491.42609107426097

>  <intra_energy>  (17) 
4.452640693276942

>  <rmsd>  (17) 
1.88499

>  <sdf_rank>  (17) 
0

$$$$

     RDKit          3D

 23 22  0  0  0  0  0  0  0  0999 V2000
   25.5528   -7.3354   27.8292 P   0  0  2  0  0  0  0  0  0  0  0  0
   25.4132   -5.8992   28.4725 O   0  0  0  0  0  0  0  0  0  0  0  0
   26.2206   -5.1481   29.5582 P   0  0  2  0  0  0  0  0  0  0  0  0
   24.8798   -8.3755   28.6543 O   0  0  0  0  0  0  0  0  0  0  0  0
   27.0543   -7.6156   27.6233 O   0  0  0  0  0  0  0  0  0  0  0  0
   24.8286   -7.3159   26.5136 O   0  0  0  0  0  0  0  0  0  0  0  0
   27.1460   -6.0437   30.3350 O   0  0  0  0  0  0  0  0  0  0  0  0
   25.2051   -4.2455   30.2292 O   0  0  0  0  0  0  0  0  0  0  0  0
   27.3330   -3.8674   28.3712 S   0  0  0  0  0  0  0  0  0  0  0  0
   27.1827   -2.4874   29.4957 C   0  0  0  0  0  0  0  0  0  0  0  0
   28.3349   -1.6281   29.4774 C   0  0  0  0  0  0  0  0  0  0  0  0
   28.1157   -0.3612   28.7017 C   0  0  0  0  0  0  0  0  0  0  0  0
   29.2926    0.2475   28.1261 C   0  0  0  0  0  0  0  0  0  0  0  0
   26.8965    0.1345   28.5008 C   0  0  0  0  0  0  0  0  0  0  0  0
   26.2990   -1.8971   29.2119 H   0  0  0  0  0  0  0  0  0  0  0  0
   27.0897   -2.8964   30.5126 H   0  0  0  0  0  0  0  0  0  0  0  0
   28.5902   -1.3636   30.5142 H   0  0  0  0  0  0  0  0  0  0  0  0
   29.1462   -2.1798   28.9800 H   0  0  0  0  0  0  0  0  0  0  0  0
   29.9584    0.5919   28.9312 H   0  0  0  0  0  0  0  0  0  0  0  0
   29.8204   -0.4906   27.5044 H   0  0  0  0  0  0  0  0  0  0  0  0
   28.9952    1.1049   27.5044 H   0  0  0  0  0  0  0  0  0  0  0  0
   26.7686    1.0649   27.9281 H   0  0  0  0  0  0  0  0  0  0  0  0
   26.0171   -0.3864   28.9074 H   0  0  0  0  0  0  0  0  0  0  0  0
  1  2  1  0
  1  4  1  1
  1  5  2  0
  1  6  1  0
  2  3  1  0
  3  7  2  0
  3  8  1  1
  3  9  1  0
  9 10  1  0
 10 11  1  0
 11 12  1  0
 12 13  1  0
 12 14  2  0
 10 15  1  0
 10 16  1  0
 11 17  1  0
 11 18  1  0
 13 19  1  0
 13 20  1  0
 13 21  1  0
 14 22  1  0
 14 23  1  0
M  CHG  3   4  -1   6  -1   8  -1
M  END
>  <filename_input>  (18) 
7VQ9_ISY_docked.sdf

>  <pdb_id>  (18) 
7VQ9_ISY

>  <pose_rank>  (18) 
17

>  <num_atoms_heavy>  (18) 
14

>  <num_torsions>  (18) 
6

>  <pose>  (18) 
[26.220622079065702, -5.148093313801532, 29.558218004096698, 5.123933444120808, 0.39748400014775226, 2.862319259885438, -0.4960637311713936, -3.914162009843839, 19.86876963239045, -13.10840036029717, -22.174284862110863, 2.0221945307201383]

>  <energy>  (18) 
-291.94817621159916

>  <inter_energy>  (18) 
-290.2795297298575

>  <intra_energy>  (18) 
2.095255114062153

>  <rmsd>  (18) 
3.19684

>  <sdf_rank>  (18) 
0

$$$$

     RDKit          3D

 23 22  0  0  0  0  0  0  0  0999 V2000
   24.6579   -4.7795   28.5600 P   0  0  2  0  0  0  0  0  0  0  0  0
   25.1935   -3.2933   28.5451 O   0  0  0  0  0  0  0  0  0  0  0  0
   25.9869   -2.4490   29.5710 P   0  0  2  0  0  0  0  0  0  0  0  0
   23.1735   -4.8302   28.4639 O   0  0  0  0  0  0  0  0  0  0  0  0
   25.1978   -5.4622   29.8320 O   0  0  0  0  0  0  0  0  0  0  0  0
   25.1777   -5.4618   27.3270 O   0  0  0  0  0  0  0  0  0  0  0  0
   26.7666   -3.2836   30.5495 O   0  0  0  0  0  0  0  0  0  0  0  0
   25.0140   -1.3732   30.0097 O   0  0  0  0  0  0  0  0  0  0  0  0
   27.2962   -1.4644   28.3050 S   0  0  0  0  0  0  0  0  0  0  0  0
   26.7118    0.1624   28.7562 C   0  0  0  0  0  0  0  0  0  0  0  0
   27.6336    1.2041   28.3935 C   0  0  0  0  0  0  0  0  0  0  0  0
   28.2114    1.9220   29.5791 C   0  0  0  0  0  0  0  0  0  0  0  0
   27.4013    1.9356   30.7751 C   0  0  0  0  0  0  0  0  0  0  0  0
   29.4302    2.4569   29.5478 C   0  0  0  0  0  0  0  0  0  0  0  0
   25.7547    0.3463   28.2462 H   0  0  0  0  0  0  0  0  0  0  0  0
   26.6008    0.1836   29.8504 H   0  0  0  0  0  0  0  0  0  0  0  0
   28.4586    0.7567   27.8196 H   0  0  0  0  0  0  0  0  0  0  0  0
   27.0741    1.9449   27.8035 H   0  0  0  0  0  0  0  0  0  0  0  0
   28.0542    1.9246   31.6604 H   0  0  0  0  0  0  0  0  0  0  0  0
   26.7815    2.8443   30.7879 H   0  0  0  0  0  0  0  0  0  0  0  0
   26.7514    1.0482   30.7879 H   0  0  0  0  0  0  0  0  0  0  0  0
   29.8256    2.9768   30.4329 H   0  0  0  0  0  0  0  0  0  0  0  0
   30.0418    2.3791   28.6367 H   0  0  0  0  0  0  0  0  0  0  0  0
  1  2  1  0
  1  4  1  1
  1  5  2  0
  1  6  1  0
  2  3  1  0
  3  7  2  0
  3  8  1  1
  3  9  1  0
  9 10  1  0
 10 11  1  0
 11 12  1  0
 12 13  1  0
 12 14  2  0
 10 15  1  0
 10 16  1  0
 11 17  1  0
 11 18  1  0
 13 19  1  0
 13 20  1  0
 13 21  1  0
 14 22  1  0
 14 23  1  0
M  CHG  3   4  -1   6  -1   8  -1
M  END
>  <filename_input>  (19) 
7VQ9_ISY_docked.sdf

>  <pdb_id>  (19) 
7VQ9_ISY

>  <pose_rank>  (19) 
18

>  <num_atoms_heavy>  (19) 
14

>  <num_torsions>  (19) 
6

>  <pose>  (19) 
[25.986934692738817, -2.448964263835568, 29.570993975681994, 4.821071133339631, 1.025913660997508, 2.8557735640282336, 0.14002805795649345, -3.326578377617285, 19.498704305206562, -12.857295018855694, -19.68900630139473, 4.2286959664658195]

>  <energy>  (19) 
-444.1444773288547

>  <inter_energy>  (19) 
-457.281465164248

>  <intra_energy>  (19) 
11.56989562313752

>  <rmsd>  (19) 
2.00686

>  <sdf_rank>  (19) 
0

$$$$

     RDKit          3D

 23 22  0  0  0  0  0  0  0  0999 V2000
   23.5805   -2.8720   29.7621 P   0  0  2  0  0  0  0  0  0  0  0  0
   25.0514   -2.4616   29.3572 O   0  0  0  0  0  0  0  0  0  0  0  0
   26.0832   -1.4903   29.9792 P   0  0  2  0  0  0  0  0  0  0  0  0
   22.5771   -1.9000   29.2484 O   0  0  0  0  0  0  0  0  0  0  0  0
   23.5377   -3.0202   31.2956 O   0  0  0  0  0  0  0  0  0  0  0  0
   23.2732   -4.1801   29.0911 O   0  0  0  0  0  0  0  0  0  0  0  0
   26.6706   -1.9951   31.2684 O   0  0  0  0  0  0  0  0  0  0  0  0
   25.4399   -0.1239   29.8556 O   0  0  0  0  0  0  0  0  0  0  0  0
   27.5371   -1.5028   28.5054 S   0  0  0  0  0  0  0  0  0  0  0  0
   27.2999    0.2152   28.0769 C   0  0  0  0  0  0  0  0  0  0  0  0
   28.5321    0.9550   28.0456 C   0  0  0  0  0  0  0  0  0  0  0  0
   28.6899    1.8908   29.2093 C   0  0  0  0  0  0  0  0  0  0  0  0
   27.6452    2.8728   29.3860 C   0  0  0  0  0  0  0  0  0  0  0  0
   29.7016    1.7766   30.0671 C   0  0  0  0  0  0  0  0  0  0  0  0
   26.8323    0.2685   27.0826 H   0  0  0  0  0  0  0  0  0  0  0  0
   26.6619    0.6656   28.8515 H   0  0  0  0  0  0  0  0  0  0  0  0
   29.3689    0.2411   28.0551 H   0  0  0  0  0  0  0  0  0  0  0  0
   28.5223    1.5679   27.1322 H   0  0  0  0  0  0  0  0  0  0  0  0
   27.4725    3.0352   30.4602 H   0  0  0  0  0  0  0  0  0  0  0  0
   27.9490    3.8200   28.9163 H   0  0  0  0  0  0  0  0  0  0  0  0
   26.7187    2.5111   28.9163 H   0  0  0  0  0  0  0  0  0  0  0  0
   29.7899    2.4778   30.9100 H   0  0  0  0  0  0  0  0  0  0  0  0
   30.4493    0.9809   29.9330 H   0  0  0  0  0  0  0  0  0  0  0  0
  1  2  1  0
  1  4  1  6
  1  5  2  0
  1  6  1  0
  2  3  1  0
  3  7  2  0
  3  8  1  1
  3  9  1  0
  9 10  1  0
 10 11  1  0
 11 12  1  0
 12 13  1  0
 12 14  2  0
 10 15  1  0
 10 16  1  0
 11 17  1  0
 11 18  1  0
 13 19  1  0
 13 20  1  0
 13 21  1  0
 14 22  1  0
 14 23  1  0
M  CHG  3   4  -1   6  -1   8  -1
M  END
>  <filename_input>  (20) 
7VQ9_ISY_docked.sdf

>  <pdb_id>  (20) 
7VQ9_ISY

>  <pose_rank>  (20) 
19

>  <num_atoms_heavy>  (20) 
14

>  <num_torsions>  (20) 
6

>  <pose>  (20) 
[26.08317265988486, -1.4903218281022181, 29.97924207213148, 4.490808338284414, 0.5397446356958631, 2.5306937110731806, 0.9944680290077446, -3.92571373128347, 19.40961476719741, -13.428857215960665, -19.550700699814474, 3.6981286133909532]

>  <energy>  (20) 
-393.0334886683267

>  <inter_energy>  (20) 
-385.6470773467143

>  <intra_energy>  (20) 
0.3214511057956859

>  <rmsd>  (20) 
3.09218

>  <sdf_rank>  (20) 
0

$$$$

     RDKit          3D

 23 22  0  0  0  0  0  0  0  0999 V2000
   24.2018   -6.3777   27.6997 P   0  0  2  0  0  0  0  0  0  0  0  0
   24.7129   -5.3409   28.7767 O   0  0  0  0  0  0  0  0  0  0  0  0
   25.4687   -5.5010   30.1177 P   0  0  2  0  0  0  0  0  0  0  0  0
   22.7381   -6.6192   27.8201 O   0  0  0  0  0  0  0  0  0  0  0  0
   25.0344   -7.6655   27.8530 O   0  0  0  0  0  0  0  0  0  0  0  0
   24.4117   -5.7651   26.3445 O   0  0  0  0  0  0  0  0  0  0  0  0
   26.9296   -5.8118   29.9416 O   0  0  0  0  0  0  0  0  0  0  0  0
   24.5504   -6.3526   30.9709 O   0  0  0  0  0  0  0  0  0  0  0  0
   25.2562   -3.5925   30.8913 S   0  0  0  0  0  0  0  0  0  0  0  0
   26.3340   -2.8424   29.6801 C   0  0  0  0  0  0  0  0  0  0  0  0
   26.5221   -1.4344   29.9002 C   0  0  0  0  0  0  0  0  0  0  0  0
   26.0891   -0.5906   28.7360 C   0  0  0  0  0  0  0  0  0  0  0  0
   27.1416   -0.0946   27.8797 C   0  0  0  0  0  0  0  0  0  0  0  0
   24.8032   -0.3693   28.4718 C   0  0  0  0  0  0  0  0  0  0  0  0
   27.3142   -3.3396   29.7255 H   0  0  0  0  0  0  0  0  0  0  0  0
   25.8612   -2.9640   28.6944 H   0  0  0  0  0  0  0  0  0  0  0  0
   25.9378   -1.1375   30.7836 H   0  0  0  0  0  0  0  0  0  0  0  0
   27.6000   -1.2669   30.0424 H   0  0  0  0  0  0  0  0  0  0  0  0
   27.9649    0.2933   28.4976 H   0  0  0  0  0  0  0  0  0  0  0  0
   27.5136   -0.9122   27.2447 H   0  0  0  0  0  0  0  0  0  0  0  0
   26.7479    0.7127   27.2447 H   0  0  0  0  0  0  0  0  0  0  0  0
   24.5177    0.2535   27.6113 H   0  0  0  0  0  0  0  0  0  0  0  0
   24.0261   -0.8094   29.1141 H   0  0  0  0  0  0  0  0  0  0  0  0
  1  2  1  0
  1  4  1  1
  1  5  2  0
  1  6  1  0
  2  3  1  0
  3  7  2  0
  3  8  1  1
  3  9  1  0
  9 10  1  0
 10 11  1  0
 11 12  1  0
 12 13  1  0
 12 14  2  0
 10 15  1  0
 10 16  1  0
 11 17  1  0
 11 18  1  0
 13 19  1  0
 13 20  1  0
 13 21  1  0
 14 22  1  0
 14 23  1  0
M  CHG  3   4  -1   6  -1   8  -1
M  END
>  <filename_input>  (21) 
7VQ9_ISY_docked.sdf

>  <pdb_id>  (21) 
7VQ9_ISY

>  <pose_rank>  (21) 
20

>  <num_atoms_heavy>  (21) 
14

>  <num_torsions>  (21) 
6

>  <pose>  (21) 
[25.46865795275985, -5.501016377996195, 30.117657301602105, 5.908160352750766, 0.7088785205126941, 4.0214052009098715, 1.0596685285047418, -3.6080776705405055, 22.488546603110528, -18.78765862869304, -19.79412429448158, 2.9215766298442403]

>  <energy>  (21) 
-223.4941833641471

>  <inter_energy>  (21) 
-219.2768987883772

>  <intra_energy>  (21) 
0.01874664847452558

>  <rmsd>  (21) 
3.86063

>  <sdf_rank>  (21) 
0

$$$$

     RDKit          3D

 23 22  0  0  0  0  0  0  0  0999 V2000
   30.0452   -7.7090   30.3578 P   0  0  2  0  0  0  0  0  0  0  0  0
   30.7670   -8.7225   31.3314 O   0  0  0  0  0  0  0  0  0  0  0  0
   32.2455   -9.1451   31.5049 P   0  0  2  0  0  0  0  0  0  0  0  0
   31.0121   -6.7709   29.7250 O   0  0  0  0  0  0  0  0  0  0  0  0
   28.9479   -6.9839   31.1613 O   0  0  0  0  0  0  0  0  0  0  0  0
   29.4453   -8.5068   29.2355 O   0  0  0  0  0  0  0  0  0  0  0  0
   33.1430   -8.6238   30.4165 O   0  0  0  0  0  0  0  0  0  0  0  0
   32.1792  -10.6132   31.8744 O   0  0  0  0  0  0  0  0  0  0  0  0
   32.6951   -8.1924   33.2872 S   0  0  0  0  0  0  0  0  0  0  0  0
   32.8947   -9.7151   34.1998 C   0  0  0  0  0  0  0  0  0  0  0  0
   34.0395   -9.6957   35.0690 C   0  0  0  0  0  0  0  0  0  0  0  0
   35.3180  -10.0620   34.3717 C   0  0  0  0  0  0  0  0  0  0  0  0
   35.4857  -11.4570   34.0357 C   0  0  0  0  0  0  0  0  0  0  0  0
   36.2144   -9.1411   34.0240 C   0  0  0  0  0  0  0  0  0  0  0  0
   31.9937   -9.8812   34.8084 H   0  0  0  0  0  0  0  0  0  0  0  0
   33.0467  -10.5228   33.4686 H   0  0  0  0  0  0  0  0  0  0  0  0
   34.1458   -8.6828   35.4845 H   0  0  0  0  0  0  0  0  0  0  0  0
   33.8676  -10.4480   35.8529 H   0  0  0  0  0  0  0  0  0  0  0  0
   35.5571  -12.0505   34.9591 H   0  0  0  0  0  0  0  0  0  0  0  0
   34.6222  -11.7986   33.4461 H   0  0  0  0  0  0  0  0  0  0  0  0
   36.4056  -11.5841   33.4461 H   0  0  0  0  0  0  0  0  0  0  0  0
   37.1417   -9.4411   33.5141 H   0  0  0  0  0  0  0  0  0  0  0  0
   36.0277   -8.0802   34.2466 H   0  0  0  0  0  0  0  0  0  0  0  0
  1  2  1  0
  1  4  1  6
  1  5  2  0
  1  6  1  0
  2  3  1  0
  3  7  2  0
  3  8  1  1
  3  9  1  0
  9 10  1  0
 10 11  1  0
 11 12  1  0
 12 13  1  0
 12 14  2  0
 10 15  1  0
 10 16  1  0
 11 17  1  0
 11 18  1  0
 13 19  1  0
 13 20  1  0
 13 21  1  0
 14 22  1  0
 14 23  1  0
M  CHG  3   4  -1   6  -1   8  -1
M  END
>  <filename_input>  (22) 
7VQ9_ISY_docked.sdf

>  <pdb_id>  (22) 
7VQ9_ISY

>  <pose_rank>  (22) 
21

>  <num_atoms_heavy>  (22) 
14

>  <num_torsions>  (22) 
6

>  <pose>  (22) 
[32.24553018988514, -9.14511045449277, 31.504938714695598, -3.886667802008944, -1.8406938109168476, -1.161899707468536, -0.4197351143276338, 0.6055529633091381, 0.5357676067448307, -0.7350088059350058, -0.3031904586016931, -2.8684391623036105]

>  <energy>  (22) 
-157.4608035795318

>  <inter_energy>  (22) 
-163.18230208909057

>  <intra_energy>  (22) 
8.270180986573884

>  <rmsd>  (22) 
10.5974

>  <sdf_rank>  (22) 
0

$$$$

     RDKit          3D

 23 22  0  0  0  0  0  0  0  0999 V2000
   30.4402   -9.5048   31.1923 P   0  0  2  0  0  0  0  0  0  0  0  0
   30.9494   -8.2335   30.4046 O   0  0  0  0  0  0  0  0  0  0  0  0
   30.2228   -7.0100   29.7964 P   0  0  2  0  0  0  0  0  0  0  0  0
   30.6164  -10.7511   30.3979 O   0  0  0  0  0  0  0  0  0  0  0  0
   28.9733   -9.2544   31.5933 O   0  0  0  0  0  0  0  0  0  0  0  0
   31.3064   -9.6618   32.4092 O   0  0  0  0  0  0  0  0  0  0  0  0
   30.9394   -6.4232   28.6115 O   0  0  0  0  0  0  0  0  0  0  0  0
   29.8119   -6.1789   30.9950 O   0  0  0  0  0  0  0  0  0  0  0  0
   28.4626   -7.9007   29.1682 S   0  0  0  0  0  0  0  0  0  0  0  0
   27.5212   -6.3838   29.2328 C   0  0  0  0  0  0  0  0  0  0  0  0
   26.1279   -6.5819   28.9395 C   0  0  0  0  0  0  0  0  0  0  0  0
   25.2450   -5.5097   29.5102 C   0  0  0  0  0  0  0  0  0  0  0  0
   25.9163   -4.3569   30.0645 C   0  0  0  0  0  0  0  0  0  0  0  0
   23.9175   -5.5889   29.4470 C   0  0  0  0  0  0  0  0  0  0  0  0
   27.6109   -5.9568   30.2425 H   0  0  0  0  0  0  0  0  0  0  0  0
   27.9286   -5.7074   28.4670 H   0  0  0  0  0  0  0  0  0  0  0  0
   25.9991   -6.5962   27.8472 H   0  0  0  0  0  0  0  0  0  0  0  0
   25.8283   -7.5333   29.4033 H   0  0  0  0  0  0  0  0  0  0  0  0
   25.8864   -4.4082   31.1629 H   0  0  0  0  0  0  0  0  0  0  0  0
   26.9629   -4.3443   29.7264 H   0  0  0  0  0  0  0  0  0  0  0  0
   25.4106   -3.4403   29.7264 H   0  0  0  0  0  0  0  0  0  0  0  0
   23.2977   -4.7870   29.8744 H   0  0  0  0  0  0  0  0  0  0  0  0
   23.4405   -6.4564   28.9674 H   0  0  0  0  0  0  0  0  0  0  0  0
  1  2  1  0
  1  4  1  6
  1  5  2  0
  1  6  1  0
  2  3  1  0
  3  7  2  0
  3  8  1  1
  3  9  1  0
  9 10  1  0
 10 11  1  0
 11 12  1  0
 12 13  1  0
 12 14  2  0
 10 15  1  0
 10 16  1  0
 11 17  1  0
 11 18  1  0
 13 19  1  0
 13 20  1  0
 13 21  1  0
 14 22  1  0
 14 23  1  0
M  CHG  3   4  -1   6  -1   8  -1
M  END
>  <filename_input>  (23) 
7VQ9_ISY_docked.sdf

>  <pdb_id>  (23) 
7VQ9_ISY

>  <pose_rank>  (23) 
22

>  <num_atoms_heavy>  (23) 
14

>  <num_torsions>  (23) 
6

>  <pose>  (23) 
[30.222761991497812, -7.0099783820806145, 29.796413231398255, 2.2629190208933685, -2.181235866841061, -2.582761846378619, 15.947830558158078, 9.134488959991575, 7.556923570507058, 6.373390734960589, 3.89775543684502, -1.4212387717630537]

>  <energy>  (23) 
-171.18275443876112

>  <inter_energy>  (23) 
-180.46078793266415

>  <intra_energy>  (23) 
23.75895973683084

>  <rmsd>  (23) 
7.22048

>  <sdf_rank>  (23) 
0

$$$$

     RDKit          3D

 23 22  0  0  0  0  0  0  0  0999 V2000
   30.8807    5.0006   20.4532 P   0  0  2  0  0  0  0  0  0  0  0  0
   29.4265    5.5401   20.7531 O   0  0  0  0  0  0  0  0  0  0  0  0
   28.0158    5.0443   20.3545 P   0  0  2  0  0  0  0  0  0  0  0  0
   31.4269    5.5650   19.1888 O   0  0  0  0  0  0  0  0  0  0  0  0
   30.8192    3.4607   20.4423 O   0  0  0  0  0  0  0  0  0  0  0  0
   31.7819    5.4906   21.5502 O   0  0  0  0  0  0  0  0  0  0  0  0
   27.5959    3.7994   21.0866 O   0  0  0  0  0  0  0  0  0  0  0  0
   27.9900    5.1499   18.8431 O   0  0  0  0  0  0  0  0  0  0  0  0
   26.8676    6.6435   20.9953 S   0  0  0  0  0  0  0  0  0  0  0  0
   25.8443    6.6615   19.5311 C   0  0  0  0  0  0  0  0  0  0  0  0
   24.4397    6.6237   19.8346 C   0  0  0  0  0  0  0  0  0  0  0  0
   23.7713    5.3563   19.3854 C   0  0  0  0  0  0  0  0  0  0  0  0
   22.3452    5.2746   19.6012 C   0  0  0  0  0  0  0  0  0  0  0  0
   24.4459    4.3919   18.7629 C   0  0  0  0  0  0  0  0  0  0  0  0
   26.0572    7.5800   18.9644 H   0  0  0  0  0  0  0  0  0  0  0  0
   26.0825    5.7593   18.9485 H   0  0  0  0  0  0  0  0  0  0  0  0
   24.3147    6.7179   20.9234 H   0  0  0  0  0  0  0  0  0  0  0  0
   23.9653    7.4539   19.2909 H   0  0  0  0  0  0  0  0  0  0  0  0
   22.1379    5.2627   20.6814 H   0  0  0  0  0  0  0  0  0  0  0  0
   21.8546    6.1461   19.1432 H   0  0  0  0  0  0  0  0  0  0  0  0
   21.9573    4.3528   19.1432 H   0  0  0  0  0  0  0  0  0  0  0  0
   23.9277    3.4748   18.4459 H   0  0  0  0  0  0  0  0  0  0  0  0
   25.5213    4.5122   18.5655 H   0  0  0  0  0  0  0  0  0  0  0  0
  1  2  1  0
  1  4  1  6
  1  5  2  0
  1  6  1  0
  2  3  1  0
  3  7  2  0
  3  8  1  6
  3  9  1  0
  9 10  1  0
 10 11  1  0
 11 12  1  0
 12 13  1  0
 12 14  2  0
 10 15  1  0
 10 16  1  0
 11 17  1  0
 11 18  1  0
 13 19  1  0
 13 20  1  0
 13 21  1  0
 14 22  1  0
 14 23  1  0
M  CHG  3   4  -1   6  -1   8  -1
M  END
>  <filename_input>  (24) 
7VQ9_ISY_docked.sdf

>  <pdb_id>  (24) 
7VQ9_ISY

>  <pose_rank>  (24) 
23

>  <num_atoms_heavy>  (24) 
14

>  <num_torsions>  (24) 
6

>  <pose>  (24) 
[28.01575612812703, 5.044273147894342, 20.354514912291094, -0.9761323328447241, 3.6524586888048605, -0.890358823239886, 1.0099430239203013, 2.444086157533168, 0.953246707288659, -0.9005899880387501, -0.817163422405887, 1.6032509741352479]

>  <energy>  (24) 
-154.14685471563533

>  <inter_energy>  (24) 
-140.3228662127396

>  <intra_energy>  (24) 
0.31560890247805035

>  <rmsd>  (24) 
11.946

>  <sdf_rank>  (24) 
0

$$$$

     RDKit          3D

 23 22  0  0  0  0  0  0  0  0999 V2000
   31.7779   -8.1291   29.8950 P   0  0  2  0  0  0  0  0  0  0  0  0
   31.7004   -8.3565   31.4565 O   0  0  0  0  0  0  0  0  0  0  0  0
   32.6594   -9.0208   32.4733 P   0  0  2  0  0  0  0  0  0  0  0  0
   33.0203   -8.7091   29.3157 O   0  0  0  0  0  0  0  0  0  0  0  0
   31.6458   -6.6163   29.6318 O   0  0  0  0  0  0  0  0  0  0  0  0
   30.6378   -8.8808   29.2697 O   0  0  0  0  0  0  0  0  0  0  0  0
   33.9569   -8.2782   32.6374 O   0  0  0  0  0  0  0  0  0  0  0  0
   32.6013  -10.4979   32.1399 O   0  0  0  0  0  0  0  0  0  0  0  0
   31.5392   -8.8464   34.2056 S   0  0  0  0  0  0  0  0  0  0  0  0
   30.4880  -10.2382   33.8192 C   0  0  0  0  0  0  0  0  0  0  0  0
   29.0920   -9.8955   33.8152 C   0  0  0  0  0  0  0  0  0  0  0  0
   28.5249   -9.7082   35.1930 C   0  0  0  0  0  0  0  0  0  0  0  0
   28.7585  -10.7813   36.1316 C   0  0  0  0  0  0  0  0  0  0  0  0
   27.9006   -8.5867   35.5465 C   0  0  0  0  0  0  0  0  0  0  0  0
   30.7598  -10.6185   32.8235 H   0  0  0  0  0  0  0  0  0  0  0  0
   30.6413  -10.9970   34.6007 H   0  0  0  0  0  0  0  0  0  0  0  0
   28.9636   -8.9582   33.2540 H   0  0  0  0  0  0  0  0  0  0  0  0
   28.5511  -10.7329   33.3502 H   0  0  0  0  0  0  0  0  0  0  0  0
   28.6745  -10.3952   37.1582 H   0  0  0  0  0  0  0  0  0  0  0  0
   28.0119  -11.5739   35.9757 H   0  0  0  0  0  0  0  0  0  0  0  0
   29.7671  -11.1917   35.9757 H   0  0  0  0  0  0  0  0  0  0  0  0
   27.4958   -8.4797   36.5637 H   0  0  0  0  0  0  0  0  0  0  0  0
   27.7895   -7.7671   34.8213 H   0  0  0  0  0  0  0  0  0  0  0  0
  1  2  1  0
  1  4  1  6
  1  5  2  0
  1  6  1  0
  2  3  1  0
  3  7  2  0
  3  8  1  6
  3  9  1  0
  9 10  1  0
 10 11  1  0
 11 12  1  0
 12 13  1  0
 12 14  2  0
 10 15  1  0
 10 16  1  0
 11 17  1  0
 11 18  1  0
 13 19  1  0
 13 20  1  0
 13 21  1  0
 14 22  1  0
 14 23  1  0
M  CHG  3   4  -1   6  -1   8  -1
M  END
>  <filename_input>  (25) 
7VQ9_ISY_docked.sdf

>  <pdb_id>  (25) 
7VQ9_ISY

>  <pose_rank>  (25) 
24

>  <num_atoms_heavy>  (25) 
14

>  <num_torsions>  (25) 
6

>  <pose>  (25) 
[32.65941624653072, -9.020816956388895, 32.4732825450525, -3.329770267175827, -0.07526628405443885, -2.6898700931401716, 0.8951463010607204, 0.9221131239420655, -0.05599516220021502, 0.9928665732549588, 6.147353629207904, -2.4907385648980567]

>  <energy>  (25) 
-132.11898880669105

>  <inter_energy>  (25) 
-118.44337244136884

>  <intra_energy>  (25) 
0.03424608855899046

>  <rmsd>  (25) 
10.1563

>  <sdf_rank>  (25) 
0

$$$$

     RDKit          3D

 23 22  0  0  0  0  0  0  0  0999 V2000
   27.0190   -4.3240   27.3780 P   0  0  2  0  0  0  0  0  0  0  0  0
   27.0220   -2.9490   28.1560 O   0  0  0  0  0  0  0  0  0  0  0  0
   27.7400   -2.4660   29.4390 P   0  0  2  0  0  0  0  0  0  0  0  0
   28.4010   -4.8000   27.0970 O   0  0  0  0  0  0  0  0  0  0  0  0
   26.1790   -4.1400   26.0990 O   0  0  0  0  0  0  0  0  0  0  0  0
   26.4000   -5.3540   28.2790 O   0  0  0  0  0  0  0  0  0  0  0  0
   28.8600   -3.3730   29.8690 O   0  0  0  0  0  0  0  0  0  0  0  0
   26.6170   -2.0580   30.3710 O   0  0  0  0  0  0  0  0  0  0  0  0
   28.5230   -0.6700   28.7700 S   0  0  0  0  0  0  0  0  0  0  0  0
   27.0040    0.2350   29.0250 C   0  0  0  0  0  0  0  0  0  0  0  0
   27.1220    1.6260   28.6820 C   0  0  0  0  0  0  0  0  0  0  0  0
   28.0470    2.3830   29.5910 C   0  0  0  0  0  0  0  0  0  0  0  0
   29.4320    2.4460   29.1850 C   0  0  0  0  0  0  0  0  0  0  0  0
   27.6010    3.0160   30.6740 C   0  0  0  0  0  0  0  0  0  0  0  0
   26.2173   -0.2155   28.4019 H   0  0  0  0  0  0  0  0  0  0  0  0
   26.7586    0.1768   30.0957 H   0  0  0  0  0  0  0  0  0  0  0  0
   27.5039    1.7012   27.6532 H   0  0  0  0  0  0  0  0  0  0  0  0
   26.1228    2.0741   28.7856 H   0  0  0  0  0  0  0  0  0  0  0  0
   30.0747    2.4752   30.0773 H   0  0  0  0  0  0  0  0  0  0  0  0
   29.6788    1.5582   28.5843 H   0  0  0  0  0  0  0  0  0  0  0  0
   29.5971    3.3526   28.5843 H   0  0  0  0  0  0  0  0  0  0  0  0
   28.3038    3.5621   31.3204 H   0  0  0  0  0  0  0  0  0  0  0  0
   26.5297    2.9929   30.9224 H   0  0  0  0  0  0  0  0  0  0  0  0
  1  2  1  0
  1  4  1  6
  1  5  2  0
  1  6  1  0
  2  3  1  0
  3  7  2  0
  3  8  1  1
  3  9  1  0
  9 10  1  0
 10 11  1  0
 11 12  1  0
 12 13  1  0
 12 14  2  0
 10 15  1  0
 10 16  1  0
 11 17  1  0
 11 18  1  0
 13 19  1  0
 13 20  1  0
 13 21  1  0
 14 22  1  0
 14 23  1  0
M  CHG  3   4  -1   6  -1   8  -1
M  END
>  <filename_input>  (26) 
7VQ9_ISY_docked.sdf

>  <pdb_id>  (26) 
7VQ9_ISY

>  <pose_rank>  (26) 
25

>  <num_atoms_heavy>  (26) 
14

>  <num_torsions>  (26) 
6

>  <pose>  (26) 
[27.74, -2.466, 29.439, 1e-06, 1e-06, 1e-06, 0.0, 0.0, 0.0, 0.0, 0.0, 0.0]

>  <energy>  (26) 
-533.6295150561598

>  <inter_energy>  (26) 
-549.5550930405412

>  <intra_energy>  (26) 
13.674969285469412

>  <rmsd>  (26) 
0.0

>  <sdf_rank>  (26) 
0

$$$$
