
     RDKit          3D

 59 60  0  0  0  0  0  0  0  0999 V2000
   20.5262   -2.2544   35.3542 O   0  0  0  0  0  0  0  0  0  0  0  0
   18.5659   -2.8043   34.5169 O   0  0  0  0  0  0  0  0  0  0  0  0
   19.3047   -2.0601   35.1979 C   0  0  0  0  0  0  0  0  0  0  0  0
   18.6685   -0.8645   35.9202 C   0  0  1  0  0  0  0  0  0  0  0  0
   19.5353   -0.3870   37.0959 C   0  0  0  0  0  0  0  0  0  0  0  0
   19.6684   -1.4218   38.1990 C   0  0  0  0  0  0  0  0  0  0  0  0
   18.4170    0.2446   34.8928 C   0  0  0  0  0  0  0  0  0  0  0  0
   17.7228    1.4753   35.4234 C   0  0  0  0  0  0  0  0  0  0  0  0
   16.3825    1.4433   35.8092 C   0  0  0  0  0  0  0  0  0  0  0  0
   15.7189    2.5776   36.2737 C   0  0  0  0  0  0  0  0  0  0  0  0
   16.4349    3.7765   36.3383 C   0  0  0  0  0  0  0  0  0  0  0  0
   17.7597    3.8312   35.9436 C   0  0  0  0  0  0  0  0  0  0  0  0
   18.3886    2.6873   35.4912 C   0  0  0  0  0  0  0  0  0  0  0  0
   15.7379    4.8682   36.7760 O   0  0  0  0  0  0  0  0  0  0  0  0
   16.3104    6.1620   36.5462 C   0  0  0  0  0  0  0  0  0  0  0  0
   15.2277    7.0702   36.0280 C   0  0  0  0  0  0  0  0  0  0  0  0
   14.6873    6.7002   34.6690 C   0  0  0  0  0  0  0  0  0  0  0  0
   14.9091    7.7593   33.6123 C   0  0  0  0  0  0  0  0  0  0  0  0
   14.2730    2.5268   36.6919 C   0  0  0  0  0  0  0  0  0  0  0  0
   14.0615    2.8582   38.0994 N   0  0  0  0  0  0  0  0  0  0  0  0
   12.9154    2.5678   38.7195 C   0  0  0  0  0  0  0  0  0  0  0  0
   11.9751    2.0220   38.1480 O   0  0  0  0  0  0  0  0  0  0  0  0
   12.8022    2.9357   40.1672 C   0  0  0  0  0  0  0  0  0  0  0  0
   13.6193    3.8342   40.8228 C   0  0  0  0  0  0  0  0  0  0  0  0
   13.4753    4.1464   42.1545 C   0  0  0  0  0  0  0  0  0  0  0  0
   12.4636    3.5451   42.8850 C   0  0  0  0  0  0  0  0  0  0  0  0
   11.6162    2.6500   42.2579 C   0  0  0  0  0  0  0  0  0  0  0  0
   11.7838    2.3523   40.9163 C   0  0  0  0  0  0  0  0  0  0  0  0
   12.2813    3.8800   44.3279 C   0  0  2  0  0  0  0  0  0  0  0  0
   14.6175    4.4416   40.1434 F   0  0  0  0  0  0  0  0  0  0  0  0
   12.0391    2.8090   45.0683 F   0  0  0  0  0  0  0  0  0  0  0  0
   11.2670    4.7126   44.5468 F   0  0  0  0  0  0  0  0  0  0  0  0
   13.3526    4.4601   44.8558 F   0  0  0  0  0  0  0  0  0  0  0  0
   17.7080   -1.1658   36.3636 H   0  0  0  0  0  0  0  0  0  0  0  0
   20.5400   -0.1498   36.7159 H   0  0  0  0  0  0  0  0  0  0  0  0
   19.0400    0.4934   37.5312 H   0  0  0  0  0  0  0  0  0  0  0  0
   19.6044   -0.9243   39.1780 H   0  0  0  0  0  0  0  0  0  0  0  0
   18.8577   -2.1599   38.1091 H   0  0  0  0  0  0  0  0  0  0  0  0
   20.6394   -1.9308   38.1091 H   0  0  0  0  0  0  0  0  0  0  0  0
   19.3897    0.5541   34.4829 H   0  0  0  0  0  0  0  0  0  0  0  0
   17.7373   -0.1863   34.1429 H   0  0  0  0  0  0  0  0  0  0  0  0
   15.8322    0.4931   35.7448 H   0  0  0  0  0  0  0  0  0  0  0  0
   18.3105    4.7823   35.9898 H   0  0  0  0  0  0  0  0  0  0  0  0
   19.4417    2.7407   35.1779 H   0  0  0  0  0  0  0  0  0  0  0  0
   16.7139    6.5632   37.4876 H   0  0  0  0  0  0  0  0  0  0  0  0
   17.1289    6.0908   35.8148 H   0  0  0  0  0  0  0  0  0  0  0  0
   14.3934    7.0514   36.7446 H   0  0  0  0  0  0  0  0  0  0  0  0
   15.6844    8.0650   35.9189 H   0  0  0  0  0  0  0  0  0  0  0  0
   15.1814    5.7740   34.3402 H   0  0  0  0  0  0  0  0  0  0  0  0
   13.5993    6.5821   34.7794 H   0  0  0  0  0  0  0  0  0  0  0  0
   15.1114    8.7253   34.0981 H   0  0  0  0  0  0  0  0  0  0  0  0
   15.7677    7.4774   32.9851 H   0  0  0  0  0  0  0  0  0  0  0  0
   14.0096    7.8456   32.9851 H   0  0  0  0  0  0  0  0  0  0  0  0
   13.7073    3.2421   36.0769 H   0  0  0  0  0  0  0  0  0  0  0  0
   13.9308    1.4913   36.5482 H   0  0  0  0  0  0  0  0  0  0  0  0
   14.8136    3.3263   38.6249 H   0  0  0  0  0  0  0  0  0  0  0  0
   14.1557    4.8655   42.6341 H   0  0  0  0  0  0  0  0  0  0  0  0
   10.8054    2.1725   42.8276 H   0  0  0  0  0  0  0  0  0  0  0  0
   11.0986    1.6406   40.4324 H   0  0  0  0  0  0  0  0  0  0  0  0
  1  3  1  0
  2  3  2  0
  3  4  1  0
  4  5  1  0
  4  7  1  0
  5  6  1  0
  7  8  1  0
  8  9  2  0
  8 13  1  0
  9 10  1  0
 10 11  2  0
 10 19  1  0
 11 12  1  0
 11 14  1  0
 12 13  2  0
 14 15  1  0
 15 16  1  0
 16 17  1  0
 17 18  1  0
 19 20  1  0
 20 21  1  0
 21 22  2  0
 21 23  1  0
 23 24  2  0
 23 28  1  0
 24 25  1  0
 24 30  1  0
 25 26  2  0
 26 27  1  0
 26 29  1  0
 27 28  2  0
 29 31  1  1
 29 32  1  0
 29 33  1  0
  4 34  1  1
  5 35  1  0
  5 36  1  0
  6 37  1  0
  6 38  1  0
  6 39  1  0
  7 40  1  0
  7 41  1  0
  9 42  1  0
 12 43  1  0
 13 44  1  0
 15 45  1  0
 15 46  1  0
 16 47  1  0
 16 48  1  0
 17 49  1  0
 17 50  1  0
 18 51  1  0
 18 52  1  0
 18 53  1  0
 19 54  1  0
 19 55  1  0
 20 56  1  0
 25 57  1  0
 27 58  1  0
 28 59  1  0
M  CHG  1   1  -1
M  END
>  <filename_input>  (1) 
7VWF_K55_docked.sdf

>  <pdb_id>  (1) 
7VWF_K55

>  <pose_rank>  (1) 
0

>  <num_atoms_heavy>  (1) 
33

>  <num_torsions>  (1) 
12

>  <pose>  (1) 
[17.722820227263785, 1.4752961599975913, 35.423441848915175, 0.056853630625627725, 1.2351788189542214, 6.178847513703416, -0.02597341238114385, 0.036418188474143964, 3.419131916728697, -0.008522519143562475, 0.06349985436048843, -0.5352498589761365, 0.07603495261368712, -0.8778548577150783, -0.028361647044215857, -0.08501114053226491, -0.015483317580003089, 1.6843840961506853]

>  <energy>  (1) 
-1143.5846564647397

>  <inter_energy>  (1) 
-1177.6817012222166

>  <intra_energy>  (1) 
31.117344078987564

>  <rmsd>  (1) 
0.629958

>  <sdf_rank>  (1) 
0

$$$$

     RDKit          3D

 59 60  0  0  0  0  0  0  0  0999 V2000
   18.4820   -3.6243   35.4885 O   0  0  0  0  0  0  0  0  0  0  0  0
   20.3381   -2.8341   34.6074 O   0  0  0  0  0  0  0  0  0  0  0  0
   19.3007   -2.7047   35.2933 C   0  0  0  0  0  0  0  0  0  0  0  0
   18.9907   -1.3265   35.8936 C   0  0  1  0  0  0  0  0  0  0  0  0
   20.1096   -0.8547   36.8354 C   0  0  0  0  0  0  0  0  0  0  0  0
   19.9272   -1.3309   38.2655 C   0  0  0  0  0  0  0  0  0  0  0  0
   18.7415   -0.3426   34.7451 C   0  0  0  0  0  0  0  0  0  0  0  0
   17.4079    0.3635   34.7735 C   0  0  0  0  0  0  0  0  0  0  0  0
   17.2424    1.5756   35.4442 C   0  0  0  0  0  0  0  0  0  0  0  0
   16.0110    2.2258   35.5046 C   0  0  0  0  0  0  0  0  0  0  0  0
   14.9186    1.6225   34.8745 C   0  0  0  0  0  0  0  0  0  0  0  0
   15.0599    0.4121   34.2194 C   0  0  0  0  0  0  0  0  0  0  0  0
   16.2956   -0.2041   34.1756 C   0  0  0  0  0  0  0  0  0  0  0  0
   13.7260    2.2824   34.9802 O   0  0  0  0  0  0  0  0  0  0  0  0
   12.5982    1.5483   35.4739 C   0  0  0  0  0  0  0  0  0  0  0  0
   11.9898    0.7911   34.3241 C   0  0  0  0  0  0  0  0  0  0  0  0
   10.5218    0.4793   34.4771 C   0  0  0  0  0  0  0  0  0  0  0  0
    9.6754    0.9254   33.3056 C   0  0  0  0  0  0  0  0  0  0  0  0
   15.8485    3.5367   36.2278 C   0  0  0  0  0  0  0  0  0  0  0  0
   15.3289    3.3924   37.5861 N   0  0  0  0  0  0  0  0  0  0  0  0
   14.5706    4.3375   38.1465 C   0  0  0  0  0  0  0  0  0  0  0  0
   14.2772    5.3795   37.5660 O   0  0  0  0  0  0  0  0  0  0  0  0
   14.0752    4.0888   39.5382 C   0  0  0  0  0  0  0  0  0  0  0  0
   13.2091    3.0779   39.9023 C   0  0  0  0  0  0  0  0  0  0  0  0
   12.7841    2.8832   41.1958 C   0  0  0  0  0  0  0  0  0  0  0  0
   13.2425    3.7280   42.1932 C   0  0  0  0  0  0  0  0  0  0  0  0
   14.1229    4.7437   41.8681 C   0  0  0  0  0  0  0  0  0  0  0  0
   14.5341    4.9187   40.5577 C   0  0  0  0  0  0  0  0  0  0  0  0
   12.8044    3.5259   43.6055 C   0  0  2  0  0  0  0  0  0  0  0  0
   12.7404    2.2330   38.9571 F   0  0  0  0  0  0  0  0  0  0  0  0
   13.0822    4.5677   44.3745 F   0  0  0  0  0  0  0  0  0  0  0  0
   13.3827    2.4781   44.1868 F   0  0  0  0  0  0  0  0  0  0  0  0
   11.4959    3.3275   43.7098 F   0  0  0  0  0  0  0  0  0  0  0  0
   18.0855   -1.3865   36.5157 H   0  0  0  0  0  0  0  0  0  0  0  0
   21.0690   -1.2389   36.4586 H   0  0  0  0  0  0  0  0  0  0  0  0
   20.0825    0.2448   36.8507 H   0  0  0  0  0  0  0  0  0  0  0  0
   20.2327   -0.5337   38.9592 H   0  0  0  0  0  0  0  0  0  0  0  0
   18.8696   -1.5805   38.4368 H   0  0  0  0  0  0  0  0  0  0  0  0
   20.5470   -2.2234   38.4368 H   0  0  0  0  0  0  0  0  0  0  0  0
   19.5311    0.4226   34.7768 H   0  0  0  0  0  0  0  0  0  0  0  0
   18.7452   -0.9450   33.8247 H   0  0  0  0  0  0  0  0  0  0  0  0
   18.1110    2.0325   35.9410 H   0  0  0  0  0  0  0  0  0  0  0  0
   14.1913   -0.0580   33.7352 H   0  0  0  0  0  0  0  0  0  0  0  0
   16.3981   -1.1671   33.6539 H   0  0  0  0  0  0  0  0  0  0  0  0
   12.9248    0.8434   36.2528 H   0  0  0  0  0  0  0  0  0  0  0  0
   11.8585    2.2359   35.9098 H   0  0  0  0  0  0  0  0  0  0  0  0
   12.1186    1.3925   33.4122 H   0  0  0  0  0  0  0  0  0  0  0  0
   12.5091   -0.1778   34.2825 H   0  0  0  0  0  0  0  0  0  0  0  0
   10.4089   -0.6089   34.5915 H   0  0  0  0  0  0  0  0  0  0  0  0
   10.1672    1.0355   35.3574 H   0  0  0  0  0  0  0  0  0  0  0  0
    8.7597    1.4080   33.6776 H   0  0  0  0  0  0  0  0  0  0  0  0
   10.2443    1.6408   32.6936 H   0  0  0  0  0  0  0  0  0  0  0  0
    9.4068    0.0517   32.6936 H   0  0  0  0  0  0  0  0  0  0  0  0
   16.8308    4.0290   36.2812 H   0  0  0  0  0  0  0  0  0  0  0  0
   15.1150    4.1298   35.6619 H   0  0  0  0  0  0  0  0  0  0  0  0
   15.5528    2.5425   38.1230 H   0  0  0  0  0  0  0  0  0  0  0  0
   12.0881    2.0658   41.4356 H   0  0  0  0  0  0  0  0  0  0  0  0
   14.4982    5.4156   42.6541 H   0  0  0  0  0  0  0  0  0  0  0  0
   15.2374    5.7296   40.3172 H   0  0  0  0  0  0  0  0  0  0  0  0
  1  3  1  0
  2  3  2  0
  3  4  1  0
  4  5  1  0
  4  7  1  0
  5  6  1  0
  7  8  1  0
  8  9  2  0
  8 13  1  0
  9 10  1  0
 10 11  2  0
 10 19  1  0
 11 12  1  0
 11 14  1  0
 12 13  2  0
 14 15  1  0
 15 16  1  0
 16 17  1  0
 17 18  1  0
 19 20  1  0
 20 21  1  0
 21 22  2  0
 21 23  1  0
 23 24  2  0
 23 28  1  0
 24 25  1  0
 24 30  1  0
 25 26  2  0
 26 27  1  0
 26 29  1  0
 27 28  2  0
 29 31  1  1
 29 32  1  0
 29 33  1  0
  4 34  1  1
  5 35  1  0
  5 36  1  0
  6 37  1  0
  6 38  1  0
  6 39  1  0
  7 40  1  0
  7 41  1  0
  9 42  1  0
 12 43  1  0
 13 44  1  0
 15 45  1  0
 15 46  1  0
 16 47  1  0
 16 48  1  0
 17 49  1  0
 17 50  1  0
 18 51  1  0
 18 52  1  0
 18 53  1  0
 19 54  1  0
 19 55  1  0
 20 56  1  0
 25 57  1  0
 27 58  1  0
 28 59  1  0
M  CHG  1   1  -1
M  END
>  <filename_input>  (2) 
7VWF_K55_docked.sdf

>  <pdb_id>  (2) 
7VWF_K55

>  <pose_rank>  (2) 
1

>  <num_atoms_heavy>  (2) 
33

>  <num_torsions>  (2) 
12

>  <pose>  (2) 
[17.407882278953586, 0.36354726762371, 34.77354231016952, 2.672513384862826, -2.3349969115738607, -1.0197663667970231, -3.5315289915706622, -0.8990026143718627, -0.38751221890043347, -0.4167340108692405, 0.7249547993386789, 1.9368310075728785, -1.4615255612140008, 3.395431319523874, 2.497552868956474, 0.17790082736297771, 4.842512578686421, -5.099169084997289]

>  <energy>  (2) 
-1008.3857920615147

>  <inter_energy>  (2) 
-1023.810069182363

>  <intra_energy>  (2) 
17.384430811388096

>  <rmsd>  (2) 
3.2921

>  <sdf_rank>  (2) 
0

$$$$

     RDKit          3D

 59 60  0  0  0  0  0  0  0  0999 V2000
   21.1285   -0.0910   36.5783 O   0  0  0  0  0  0  0  0  0  0  0  0
   19.3307    0.1992   37.8151 O   0  0  0  0  0  0  0  0  0  0  0  0
   19.9456   -0.3497   36.8749 C   0  0  0  0  0  0  0  0  0  0  0  0
   19.1924   -1.3669   36.0066 C   0  0  1  0  0  0  0  0  0  0  0  0
   18.1858   -2.1817   36.8339 C   0  0  0  0  0  0  0  0  0  0  0  0
   18.8327   -2.9549   37.9692 C   0  0  0  0  0  0  0  0  0  0  0  0
   18.5242   -0.6158   34.8498 C   0  0  0  0  0  0  0  0  0  0  0  0
   17.8115    0.6593   35.2297 C   0  0  0  0  0  0  0  0  0  0  0  0
   16.4708    0.6545   35.6152 C   0  0  0  0  0  0  0  0  0  0  0  0
   15.7902    1.8264   35.9409 C   0  0  0  0  0  0  0  0  0  0  0  0
   16.4892    3.0345   35.8633 C   0  0  0  0  0  0  0  0  0  0  0  0
   17.8142    3.0606   35.4662 C   0  0  0  0  0  0  0  0  0  0  0  0
   18.4602    1.8801   35.1536 C   0  0  0  0  0  0  0  0  0  0  0  0
   15.7759    4.1605   36.1674 O   0  0  0  0  0  0  0  0  0  0  0  0
   16.4121    5.4289   35.9649 C   0  0  0  0  0  0  0  0  0  0  0  0
   15.9795    5.9637   34.6261 C   0  0  0  0  0  0  0  0  0  0  0  0
   14.9343    7.0498   34.6856 C   0  0  0  0  0  0  0  0  0  0  0  0
   14.4642    7.3717   36.0867 C   0  0  0  0  0  0  0  0  0  0  0  0
   14.3441    1.8052   36.3607 C   0  0  0  0  0  0  0  0  0  0  0  0
   14.1334    2.2192   37.7463 N   0  0  0  0  0  0  0  0  0  0  0  0
   12.9065    2.3504   38.2560 C   0  0  0  0  0  0  0  0  0  0  0  0
   11.8914    2.1455   37.5954 O   0  0  0  0  0  0  0  0  0  0  0  0
   12.7966    2.7661   39.6910 C   0  0  0  0  0  0  0  0  0  0  0  0
   11.8175    2.3419   40.5662 C   0  0  0  0  0  0  0  0  0  0  0  0
   11.7584    2.7462   41.8796 C   0  0  0  0  0  0  0  0  0  0  0  0
   12.7229    3.6140   42.3645 C   0  0  0  0  0  0  0  0  0  0  0  0
   13.7280    4.0491   41.5201 C   0  0  0  0  0  0  0  0  0  0  0  0
   13.7637    3.6279   40.2018 C   0  0  0  0  0  0  0  0  0  0  0  0
   12.6851    4.0543   43.7900 C   0  0  2  0  0  0  0  0  0  0  0  0
   10.8592    1.4945   40.1299 F   0  0  0  0  0  0  0  0  0  0  0  0
   13.4556    5.1079   44.0138 F   0  0  0  0  0  0  0  0  0  0  0  0
   13.0954    3.1148   44.6380 F   0  0  0  0  0  0  0  0  0  0  0  0
   11.4650    4.3978   44.1852 F   0  0  0  0  0  0  0  0  0  0  0  0
   19.9005   -2.1011   35.5947 H   0  0  0  0  0  0  0  0  0  0  0  0
   17.4430   -1.4912   37.2598 H   0  0  0  0  0  0  0  0  0  0  0  0
   17.7259   -2.9172   36.1576 H   0  0  0  0  0  0  0  0  0  0  0  0
   18.4913   -2.5469   38.9320 H   0  0  0  0  0  0  0  0  0  0  0  0
   18.5489   -4.0154   37.8991 H   0  0  0  0  0  0  0  0  0  0  0  0
   19.9266   -2.8628   37.8991 H   0  0  0  0  0  0  0  0  0  0  0  0
   19.3027   -0.3631   34.1149 H   0  0  0  0  0  0  0  0  0  0  0  0
   17.7485   -1.2908   34.4589 H   0  0  0  0  0  0  0  0  0  0  0  0
   15.9339   -0.3044   35.6636 H   0  0  0  0  0  0  0  0  0  0  0  0
   18.3516    4.0181   35.3996 H   0  0  0  0  0  0  0  0  0  0  0  0
   19.5132    1.9107   34.8372 H   0  0  0  0  0  0  0  0  0  0  0  0
   16.1114    6.1273   36.7597 H   0  0  0  0  0  0  0  0  0  0  0  0
   17.5057    5.3141   35.9928 H   0  0  0  0  0  0  0  0  0  0  0  0
   16.8662    6.3698   34.1173 H   0  0  0  0  0  0  0  0  0  0  0  0
   15.5192    5.1205   34.0902 H   0  0  0  0  0  0  0  0  0  0  0  0
   15.3588    7.9635   34.2442 H   0  0  0  0  0  0  0  0  0  0  0  0
   14.0584    6.6808   34.1318 H   0  0  0  0  0  0  0  0  0  0  0  0
   15.1429    6.9069   36.8170 H   0  0  0  0  0  0  0  0  0  0  0  0
   14.4614    8.4621   36.2310 H   0  0  0  0  0  0  0  0  0  0  0  0
   13.4465    6.9800   36.2310 H   0  0  0  0  0  0  0  0  0  0  0  0
   13.7810    2.4852   35.7046 H   0  0  0  0  0  0  0  0  0  0  0  0
   13.9982    0.7642   36.2778 H   0  0  0  0  0  0  0  0  0  0  0  0
   14.9499    2.4143   38.3432 H   0  0  0  0  0  0  0  0  0  0  0  0
   10.9544    2.3844   42.5373 H   0  0  0  0  0  0  0  0  0  0  0  0
   14.5026    4.7329   41.8976 H   0  0  0  0  0  0  0  0  0  0  0  0
   14.5721    3.9810   39.5448 H   0  0  0  0  0  0  0  0  0  0  0  0
  1  3  1  0
  2  3  2  0
  3  4  1  0
  4  5  1  0
  4  7  1  0
  5  6  1  0
  7  8  1  0
  8  9  2  0
  8 13  1  0
  9 10  1  0
 10 11  2  0
 10 19  1  0
 11 12  1  0
 11 14  1  0
 12 13  2  0
 14 15  1  0
 15 16  1  0
 16 17  1  0
 17 18  1  0
 19 20  1  0
 20 21  1  0
 21 22  2  0
 21 23  1  0
 23 24  2  0
 23 28  1  0
 24 25  1  0
 24 30  1  0
 25 26  2  0
 26 27  1  0
 26 29  1  0
 27 28  2  0
 29 31  1  6
 29 32  1  0
 29 33  1  0
  4 34  1  6
  5 35  1  0
  5 36  1  0
  6 37  1  0
  6 38  1  0
  6 39  1  0
  7 40  1  0
  7 41  1  0
  9 42  1  0
 12 43  1  0
 13 44  1  0
 15 45  1  0
 15 46  1  0
 16 47  1  0
 16 48  1  0
 17 49  1  0
 17 50  1  0
 18 51  1  0
 18 52  1  0
 18 53  1  0
 19 54  1  0
 19 55  1  0
 20 56  1  0
 25 57  1  0
 27 58  1  0
 28 59  1  0
M  CHG  1   1  -1
M  END
>  <filename_input>  (3) 
7VWF_K55_docked.sdf

>  <pdb_id>  (3) 
7VWF_K55

>  <pose_rank>  (3) 
2

>  <num_atoms_heavy>  (3) 
33

>  <num_torsions>  (3) 
12

>  <pose>  (3) 
[17.811540784236037, 0.6593011069164901, 35.22967661104746, 5.9515666981014546, -0.13928681079291658, -1.5827893134144002, -0.3615584804283105, -3.8346498257782127, 0.04366182658972433, 0.083665886292309, -0.09149296853284486, -1.1996292087950349, -3.25969199124125, 1.1385204382584795, 6.191815995824579, -0.4460618976934871, -2.860105179603932, 1.2065393034322542]

>  <energy>  (3) 
-1031.9203049667476

>  <inter_energy>  (3) 
-1099.8811492199286

>  <intra_energy>  (3) 
46.16711627650602

>  <rmsd>  (3) 
1.86104

>  <sdf_rank>  (3) 
0

$$$$

     RDKit          3D

 59 60  0  0  0  0  0  0  0  0999 V2000
   19.8328   -0.9081   37.4069 O   0  0  0  0  0  0  0  0  0  0  0  0
   18.9478    0.8883   36.4927 O   0  0  0  0  0  0  0  0  0  0  0  0
   19.3976   -0.2763   36.4243 C   0  0  0  0  0  0  0  0  0  0  0  0
   19.4610   -0.9537   35.0484 C   0  0  1  0  0  0  0  0  0  0  0  0
   19.2751   -2.4753   35.1576 C   0  0  0  0  0  0  0  0  0  0  0  0
   18.6383   -2.9070   36.4665 C   0  0  0  0  0  0  0  0  0  0  0  0
   18.4139   -0.3019   34.1386 C   0  0  0  0  0  0  0  0  0  0  0  0
   17.7783    0.9561   34.6785 C   0  0  0  0  0  0  0  0  0  0  0  0
   16.4369    0.9853   35.0606 C   0  0  0  0  0  0  0  0  0  0  0  0
   15.8273    2.1461   35.5336 C   0  0  0  0  0  0  0  0  0  0  0  0
   16.5999    3.3086   35.6106 C   0  0  0  0  0  0  0  0  0  0  0  0
   17.9270    3.3029   35.2197 C   0  0  0  0  0  0  0  0  0  0  0  0
   18.5014    2.1340   34.7587 C   0  0  0  0  0  0  0  0  0  0  0  0
   15.9550    4.4287   36.0562 O   0  0  0  0  0  0  0  0  0  0  0  0
   16.7387    5.4343   36.7111 C   0  0  0  0  0  0  0  0  0  0  0  0
   15.8041    6.3434   37.4631 C   0  0  0  0  0  0  0  0  0  0  0  0
   15.0943    5.6989   38.6278 C   0  0  0  0  0  0  0  0  0  0  0  0
   16.0171    4.9769   39.5843 C   0  0  0  0  0  0  0  0  0  0  0  0
   14.3794    2.1613   35.9477 C   0  0  0  0  0  0  0  0  0  0  0  0
   14.1773    2.5333   37.3464 N   0  0  0  0  0  0  0  0  0  0  0  0
   12.9793    2.4364   37.9275 C   0  0  0  0  0  0  0  0  0  0  0  0
   11.9828    2.0451   37.3254 O   0  0  0  0  0  0  0  0  0  0  0  0
   12.8786    2.8290   39.3697 C   0  0  0  0  0  0  0  0  0  0  0  0
   11.9012    2.3960   40.2425 C   0  0  0  0  0  0  0  0  0  0  0  0
   11.8506    2.7787   41.5626 C   0  0  0  0  0  0  0  0  0  0  0  0
   12.8224    3.6328   42.0573 C   0  0  0  0  0  0  0  0  0  0  0  0
   13.8261    4.0760   41.2153 C   0  0  0  0  0  0  0  0  0  0  0  0
   13.8531    3.6765   39.8901 C   0  0  0  0  0  0  0  0  0  0  0  0
   12.7939    4.0496   43.4900 C   0  0  2  0  0  0  0  0  0  0  0  0
   10.9359    1.5614   39.7968 F   0  0  0  0  0  0  0  0  0  0  0  0
   13.8214    4.8205   43.8123 F   0  0  0  0  0  0  0  0  0  0  0  0
   12.8295    3.0217   44.3339 F   0  0  0  0  0  0  0  0  0  0  0  0
   11.7026    4.7399   43.7984 F   0  0  0  0  0  0  0  0  0  0  0  0
   20.4582   -0.8080   34.6074 H   0  0  0  0  0  0  0  0  0  0  0  0
   18.6331   -2.8095   34.3293 H   0  0  0  0  0  0  0  0  0  0  0  0
   20.2754   -2.9310   35.1144 H   0  0  0  0  0  0  0  0  0  0  0  0
   19.2246   -2.5095   37.3081 H   0  0  0  0  0  0  0  0  0  0  0  0
   17.6105   -2.5186   36.5199 H   0  0  0  0  0  0  0  0  0  0  0  0
   18.6185   -4.0055   36.5199 H   0  0  0  0  0  0  0  0  0  0  0  0
   18.9015   -0.0530   33.1845 H   0  0  0  0  0  0  0  0  0  0  0  0
   17.5993   -1.0348   34.0417 H   0  0  0  0  0  0  0  0  0  0  0  0
   15.8416    0.0633   34.9864 H   0  0  0  0  0  0  0  0  0  0  0  0
   18.5228    4.2258   35.2757 H   0  0  0  0  0  0  0  0  0  0  0  0
   19.5567    2.1394   34.4484 H   0  0  0  0  0  0  0  0  0  0  0  0
   17.4418    4.9607   37.4121 H   0  0  0  0  0  0  0  0  0  0  0  0
   17.3142    6.0094   35.9707 H   0  0  0  0  0  0  0  0  0  0  0  0
   16.3882    7.1932   37.8463 H   0  0  0  0  0  0  0  0  0  0  0  0
   15.0213    6.6407   36.7499 H   0  0  0  0  0  0  0  0  0  0  0  0
   14.5617    6.4830   39.1858 H   0  0  0  0  0  0  0  0  0  0  0  0
   14.4141    4.9429   38.2084 H   0  0  0  0  0  0  0  0  0  0  0  0
   15.7243    5.2060   40.6195 H   0  0  0  0  0  0  0  0  0  0  0  0
   15.9456    3.8924   39.4145 H   0  0  0  0  0  0  0  0  0  0  0  0
   17.0525    5.3072   39.4145 H   0  0  0  0  0  0  0  0  0  0  0  0
   13.8436    2.8836   35.3143 H   0  0  0  0  0  0  0  0  0  0  0  0
   13.9975    1.1368   35.8268 H   0  0  0  0  0  0  0  0  0  0  0  0
   14.9771    2.8780   37.8963 H   0  0  0  0  0  0  0  0  0  0  0  0
   11.0476    2.4107   42.2182 H   0  0  0  0  0  0  0  0  0  0  0  0
   14.6064    4.7490   41.6004 H   0  0  0  0  0  0  0  0  0  0  0  0
   14.6605    4.0358   39.2351 H   0  0  0  0  0  0  0  0  0  0  0  0
  1  3  1  0
  2  3  2  0
  3  4  1  0
  4  5  1  0
  4  7  1  0
  5  6  1  0
  7  8  1  0
  8  9  2  0
  8 13  1  0
  9 10  1  0
 10 11  2  0
 10 19  1  0
 11 12  1  0
 11 14  1  0
 12 13  2  0
 14 15  1  0
 15 16  1  0
 16 17  1  0
 17 18  1  0
 19 20  1  0
 20 21  1  0
 21 22  2  0
 21 23  1  0
 23 24  2  0
 23 28  1  0
 24 25  1  0
 24 30  1  0
 25 26  2  0
 26 27  1  0
 26 29  1  0
 27 28  2  0
 29 31  1  1
 29 32  1  0
 29 33  1  0
  4 34  1  6
  5 35  1  0
  5 36  1  0
  6 37  1  0
  6 38  1  0
  6 39  1  0
  7 40  1  0
  7 41  1  0
  9 42  1  0
 12 43  1  0
 13 44  1  0
 15 45  1  0
 15 46  1  0
 16 47  1  0
 16 48  1  0
 17 49  1  0
 17 50  1  0
 18 51  1  0
 18 52  1  0
 18 53  1  0
 19 54  1  0
 19 55  1  0
 20 56  1  0
 25 57  1  0
 27 58  1  0
 28 59  1  0
M  CHG  1   1  -1
M  END
>  <filename_input>  (4) 
7VWF_K55_docked.sdf

>  <pdb_id>  (4) 
7VWF_K55

>  <pose_rank>  (4) 
3

>  <num_atoms_heavy>  (4) 
33

>  <num_torsions>  (4) 
12

>  <pose>  (4) 
[17.778273074057463, 0.9560845080971101, 34.6784511078548, -1.789173671943251, -0.1563109694437281, 5.987982295469422, 5.531234743471841, -2.8645373948260566, -1.940337290460809, -4.842293980745169, -0.6805090731193539, 0.5447484295945991, -3.885043947851066, 2.070435421548671, 6.288156696555408, -0.21333929490145218, -3.060210045172277, 0.8944240014455067]

>  <energy>  (4) 
-671.9587740899834

>  <inter_energy>  (4) 
-1015.6859276726404

>  <intra_energy>  (4) 
343.0378504138133

>  <rmsd>  (4) 
2.18487

>  <sdf_rank>  (4) 
0

$$$$

     RDKit          3D

 59 60  0  0  0  0  0  0  0  0999 V2000
   14.0538    5.9641   35.1491 O   0  0  0  0  0  0  0  0  0  0  0  0
   14.7068    8.0566   34.9463 O   0  0  0  0  0  0  0  0  0  0  0  0
   14.9421    6.8363   35.0839 C   0  0  0  0  0  0  0  0  0  0  0  0
   16.4029    6.3869   35.2257 C   0  0  1  0  0  0  0  0  0  0  0  0
   16.6927    5.8397   36.6322 C   0  0  0  0  0  0  0  0  0  0  0  0
   16.2538    6.7794   37.7410 C   0  0  0  0  0  0  0  0  0  0  0  0
   16.7031    5.3609   34.1273 C   0  0  0  0  0  0  0  0  0  0  0  0
   16.6460    3.9151   34.5569 C   0  0  0  0  0  0  0  0  0  0  0  0
   15.5298    3.3964   35.2135 C   0  0  0  0  0  0  0  0  0  0  0  0
   15.4729    2.0715   35.6425 C   0  0  0  0  0  0  0  0  0  0  0  0
   16.5839    1.2567   35.4055 C   0  0  0  0  0  0  0  0  0  0  0  0
   17.7065    1.7583   34.7714 C   0  0  0  0  0  0  0  0  0  0  0  0
   17.7285    3.0757   34.3558 C   0  0  0  0  0  0  0  0  0  0  0  0
   16.4942   -0.0278   35.8651 O   0  0  0  0  0  0  0  0  0  0  0  0
   17.6318   -0.5750   36.5440 C   0  0  0  0  0  0  0  0  0  0  0  0
   17.8656   -1.9676   36.0229 C   0  0  0  0  0  0  0  0  0  0  0  0
   19.3163   -2.3628   35.9006 C   0  0  0  0  0  0  0  0  0  0  0  0
   20.2632   -1.1893   35.7823 C   0  0  0  0  0  0  0  0  0  0  0  0
   14.2588    1.5239   36.3453 C   0  0  0  0  0  0  0  0  0  0  0  0
   14.1158    2.0017   37.7190 N   0  0  0  0  0  0  0  0  0  0  0  0
   12.9163    2.2536   38.2482 C   0  0  0  0  0  0  0  0  0  0  0  0
   11.8726    2.1128   37.6161 O   0  0  0  0  0  0  0  0  0  0  0  0
   12.8750    2.7262   39.6692 C   0  0  0  0  0  0  0  0  0  0  0  0
   13.6246    3.7661   40.1806 C   0  0  0  0  0  0  0  0  0  0  0  0
   13.5504    4.1702   41.4932 C   0  0  0  0  0  0  0  0  0  0  0  0
   12.6828    3.5183   42.3539 C   0  0  0  0  0  0  0  0  0  0  0  0
   11.9050    2.4807   41.8733 C   0  0  0  0  0  0  0  0  0  0  0  0
   11.9999    2.0928   40.5477 C   0  0  0  0  0  0  0  0  0  0  0  0
   12.5769    3.9497   43.7787 C   0  0  2  0  0  0  0  0  0  0  0  0
   14.4822    4.4267   39.3713 F   0  0  0  0  0  0  0  0  0  0  0  0
   13.3824    4.9624   44.0610 F   0  0  0  0  0  0  0  0  0  0  0  0
   12.8866    2.9851   44.6410 F   0  0  0  0  0  0  0  0  0  0  0  0
   11.3526    4.3502   44.1003 F   0  0  0  0  0  0  0  0  0  0  0  0
   17.0719    7.2510   35.1003 H   0  0  0  0  0  0  0  0  0  0  0  0
   16.1606    4.8845   36.7523 H   0  0  0  0  0  0  0  0  0  0  0  0
   17.7827    5.7189   36.7180 H   0  0  0  0  0  0  0  0  0  0  0  0
   16.4683    6.3202   38.7172 H   0  0  0  0  0  0  0  0  0  0  0  0
   16.8013    7.7296   37.6545 H   0  0  0  0  0  0  0  0  0  0  0  0
   15.1738    6.9694   37.6545 H   0  0  0  0  0  0  0  0  0  0  0  0
   15.9698    5.5040   33.3201 H   0  0  0  0  0  0  0  0  0  0  0  0
   17.7429    5.5439   33.8187 H   0  0  0  0  0  0  0  0  0  0  0  0
   14.6674    4.0537   35.3984 H   0  0  0  0  0  0  0  0  0  0  0  0
   18.5785    1.1105   34.5987 H   0  0  0  0  0  0  0  0  0  0  0  0
   18.6260    3.4663   33.8539 H   0  0  0  0  0  0  0  0  0  0  0  0
   18.5169    0.0487   36.3497 H   0  0  0  0  0  0  0  0  0  0  0  0
   17.4509   -0.6006   37.6287 H   0  0  0  0  0  0  0  0  0  0  0  0
   17.3747   -2.6756   36.7068 H   0  0  0  0  0  0  0  0  0  0  0  0
   17.4519   -1.9901   35.0039 H   0  0  0  0  0  0  0  0  0  0  0  0
   19.5937   -2.9431   36.7930 H   0  0  0  0  0  0  0  0  0  0  0  0
   19.4115   -2.9448   34.9720 H   0  0  0  0  0  0  0  0  0  0  0  0
   20.5437   -0.8417   36.7875 H   0  0  0  0  0  0  0  0  0  0  0  0
   21.1663   -1.5004   35.2366 H   0  0  0  0  0  0  0  0  0  0  0  0
   19.7683   -0.3724   35.2366 H   0  0  0  0  0  0  0  0  0  0  0  0
   13.3644    1.8213   35.7783 H   0  0  0  0  0  0  0  0  0  0  0  0
   14.3779    0.4314   36.3934 H   0  0  0  0  0  0  0  0  0  0  0  0
   14.9594    2.1473   38.2918 H   0  0  0  0  0  0  0  0  0  0  0  0
   14.1730    5.0016   41.8553 H   0  0  0  0  0  0  0  0  0  0  0  0
   11.2078    1.9613   42.5472 H   0  0  0  0  0  0  0  0  0  0  0  0
   11.3715    1.2678   40.1811 H   0  0  0  0  0  0  0  0  0  0  0  0
  1  3  1  0
  2  3  2  0
  3  4  1  0
  4  5  1  0
  4  7  1  0
  5  6  1  0
  7  8  1  0
  8  9  2  0
  8 13  1  0
  9 10  1  0
 10 11  2  0
 10 19  1  0
 11 12  1  0
 11 14  1  0
 12 13  2  0
 14 15  1  0
 15 16  1  0
 16 17  1  0
 17 18  1  0
 19 20  1  0
 20 21  1  0
 21 22  2  0
 21 23  1  0
 23 24  2  0
 23 28  1  0
 24 25  1  0
 24 30  1  0
 25 26  2  0
 26 27  1  0
 26 29  1  0
 27 28  2  0
 29 31  1  6
 29 32  1  0
 29 33  1  0
  4 34  1  6
  5 35  1  0
  5 36  1  0
  6 37  1  0
  6 38  1  0
  6 39  1  0
  7 40  1  0
  7 41  1  0
  9 42  1  0
 12 43  1  0
 13 44  1  0
 15 45  1  0
 15 46  1  0
 16 47  1  0
 16 48  1  0
 17 49  1  0
 17 50  1  0
 18 51  1  0
 18 52  1  0
 18 53  1  0
 19 54  1  0
 19 55  1  0
 20 56  1  0
 25 57  1  0
 27 58  1  0
 28 59  1  0
M  CHG  1   1  -1
M  END
>  <filename_input>  (5) 
7VWF_K55_docked.sdf

>  <pdb_id>  (5) 
7VWF_K55

>  <pose_rank>  (5) 
4

>  <num_atoms_heavy>  (5) 
33

>  <num_torsions>  (5) 
12

>  <pose>  (5) 
[16.64603054921672, 3.91514046889968, 34.55688272848964, 2.453185324332228, 0.5959940765677859, -0.9050823458902217, -4.17613030954646, 1.5037204459083358, 2.61466509915499, 0.21811013487910177, 0.5703112028349656, 1.0336684460182952, 3.732883400191059, 0.7767533148541605, -3.364558476477156, -0.9907115658727094, 0.5605401045744539, -2.2075457389809516]

>  <energy>  (5) 
-935.8542582370054

>  <inter_energy>  (5) 
-949.2244648341141

>  <intra_energy>  (5) 
38.25886579113746

>  <rmsd>  (5) 
5.45249

>  <sdf_rank>  (5) 
0

$$$$

     RDKit          3D

 59 60  0  0  0  0  0  0  0  0999 V2000
   20.6577   -2.8714   35.1495 O   0  0  0  0  0  0  0  0  0  0  0  0
   18.6052   -2.8766   34.3537 O   0  0  0  0  0  0  0  0  0  0  0  0
   19.5291   -2.3584   35.0180 C   0  0  0  0  0  0  0  0  0  0  0  0
   19.2489   -1.0392   35.7510 C   0  0  1  0  0  0  0  0  0  0  0  0
   20.4854   -0.5440   36.5173 C   0  0  0  0  0  0  0  0  0  0  0  0
   20.2482   -0.4090   38.0109 C   0  0  0  0  0  0  0  0  0  0  0  0
   18.7470   -0.0138   34.7285 C   0  0  0  0  0  0  0  0  0  0  0  0
   18.0993    1.2191   35.3103 C   0  0  0  0  0  0  0  0  0  0  0  0
   16.7690    1.2109   35.7301 C   0  0  0  0  0  0  0  0  0  0  0  0
   16.1476    2.3485   36.2425 C   0  0  0  0  0  0  0  0  0  0  0  0
   16.8964    3.5264   36.3208 C   0  0  0  0  0  0  0  0  0  0  0  0
   18.2117    3.5579   35.8931 C   0  0  0  0  0  0  0  0  0  0  0  0
   18.7984    2.4113   35.3935 C   0  0  0  0  0  0  0  0  0  0  0  0
   16.2398    4.6230   36.8060 O   0  0  0  0  0  0  0  0  0  0  0  0
   16.5849    5.9031   36.2612 C   0  0  0  0  0  0  0  0  0  0  0  0
   16.1054    5.9521   34.8353 C   0  0  0  0  0  0  0  0  0  0  0  0
   15.2403    7.1412   34.4986 C   0  0  0  0  0  0  0  0  0  0  0  0
   14.1923    7.4521   35.5438 C   0  0  0  0  0  0  0  0  0  0  0  0
   14.7120    2.3232   36.6969 C   0  0  0  0  0  0  0  0  0  0  0  0
   13.7964    1.7644   35.7044 N   0  0  0  0  0  0  0  0  0  0  0  0
   12.4809    1.7055   35.9245 C   0  0  0  0  0  0  0  0  0  0  0  0
   11.9674    2.1013   36.9677 O   0  0  0  0  0  0  0  0  0  0  0  0
   11.6253    1.1279   34.8389 C   0  0  0  0  0  0  0  0  0  0  0  0
   10.2642    1.3202   34.7157 C   0  0  0  0  0  0  0  0  0  0  0  0
    9.5181    0.7738   33.6977 C   0  0  0  0  0  0  0  0  0  0  0  0
   10.1476   -0.0029   32.7390 C   0  0  0  0  0  0  0  0  0  0  0  0
   11.5130   -0.2058   32.8220 C   0  0  0  0  0  0  0  0  0  0  0  0
   12.2406    0.3548   33.8579 C   0  0  0  0  0  0  0  0  0  0  0  0
    9.3588   -0.5940   31.6184 C   0  0  2  0  0  0  0  0  0  0  0  0
    9.6147    2.0724   35.6318 F   0  0  0  0  0  0  0  0  0  0  0  0
    8.2587    0.0953   31.3564 F   0  0  0  0  0  0  0  0  0  0  0  0
    8.9603   -1.8400   31.8605 F   0  0  0  0  0  0  0  0  0  0  0  0
   10.0444   -0.6422   30.4825 F   0  0  0  0  0  0  0  0  0  0  0  0
   18.4709   -1.1948   36.5128 H   0  0  0  0  0  0  0  0  0  0  0  0
   21.3059   -1.2588   36.3567 H   0  0  0  0  0  0  0  0  0  0  0  0
   20.7291    0.4575   36.1329 H   0  0  0  0  0  0  0  0  0  0  0  0
   21.0776   -0.8809   38.5580 H   0  0  0  0  0  0  0  0  0  0  0  0
   20.1918    0.6565   38.2784 H   0  0  0  0  0  0  0  0  0  0  0  0
   19.3034   -0.9047   38.2784 H   0  0  0  0  0  0  0  0  0  0  0  0
   19.6060    0.3086   34.1218 H   0  0  0  0  0  0  0  0  0  0  0  0
   17.9623   -0.5230   34.1497 H   0  0  0  0  0  0  0  0  0  0  0  0
   16.1922    0.2773   35.6544 H   0  0  0  0  0  0  0  0  0  0  0  0
   18.7884    4.4929   35.9506 H   0  0  0  0  0  0  0  0  0  0  0  0
   19.8442    2.4463   35.0542 H   0  0  0  0  0  0  0  0  0  0  0  0
   16.0997    6.6992   36.8448 H   0  0  0  0  0  0  0  0  0  0  0  0
   17.6741    6.0518   36.3010 H   0  0  0  0  0  0  0  0  0  0  0  0
   16.9874    5.9738   34.1783 H   0  0  0  0  0  0  0  0  0  0  0  0
   15.4768    5.0612   34.6895 H   0  0  0  0  0  0  0  0  0  0  0  0
   15.8901    8.0218   34.3870 H   0  0  0  0  0  0  0  0  0  0  0  0
   14.7029    6.8929   33.5715 H   0  0  0  0  0  0  0  0  0  0  0  0
   14.6254    7.3237   36.5468 H   0  0  0  0  0  0  0  0  0  0  0  0
   13.8501    8.4905   35.4225 H   0  0  0  0  0  0  0  0  0  0  0  0
   13.3392    6.7684   35.4225 H   0  0  0  0  0  0  0  0  0  0  0  0
   14.6470    1.7157   37.6117 H   0  0  0  0  0  0  0  0  0  0  0  0
   14.4078    3.3666   36.8667 H   0  0  0  0  0  0  0  0  0  0  0  0
   14.1744    1.4081   34.8150 H   0  0  0  0  0  0  0  0  0  0  0  0
    8.4338    0.9515   33.6455 H   0  0  0  0  0  0  0  0  0  0  0  0
   12.0233   -0.8152   32.0616 H   0  0  0  0  0  0  0  0  0  0  0  0
   13.3265    0.1861   33.9069 H   0  0  0  0  0  0  0  0  0  0  0  0
  1  3  1  0
  2  3  2  0
  3  4  1  0
  4  5  1  0
  4  7  1  0
  5  6  1  0
  7  8  1  0
  8  9  2  0
  8 13  1  0
  9 10  1  0
 10 11  2  0
 10 19  1  0
 11 12  1  0
 11 14  1  0
 12 13  2  0
 14 15  1  0
 15 16  1  0
 16 17  1  0
 17 18  1  0
 19 20  1  0
 20 21  1  0
 21 22  2  0
 21 23  1  0
 23 24  2  0
 23 28  1  0
 24 25  1  0
 24 30  1  0
 25 26  2  0
 26 27  1  0
 26 29  1  0
 27 28  2  0
 29 31  1  6
 29 32  1  0
 29 33  1  0
  4 34  1  1
  5 35  1  0
  5 36  1  0
  6 37  1  0
  6 38  1  0
  6 39  1  0
  7 40  1  0
  7 41  1  0
  9 42  1  0
 12 43  1  0
 13 44  1  0
 15 45  1  0
 15 46  1  0
 16 47  1  0
 16 48  1  0
 17 49  1  0
 17 50  1  0
 18 51  1  0
 18 52  1  0
 18 53  1  0
 19 54  1  0
 19 55  1  0
 20 56  1  0
 25 57  1  0
 27 58  1  0
 28 59  1  0
M  CHG  1   1  -1
M  END
>  <filename_input>  (6) 
7VWF_K55_docked.sdf

>  <pdb_id>  (6) 
7VWF_K55

>  <pose_rank>  (6) 
5

>  <num_atoms_heavy>  (6) 
33

>  <num_torsions>  (6) 
12

>  <pose>  (6) 
[18.09932089017255, 1.2191082483854185, 35.3103230505959, -4.22573321301991, -4.422981521370219, 1.2419645347167478, -0.2298038841301642, 6.117661542042287, -2.4863336490104015, -0.9832664803905711, 0.39738190914271104, -1.6861965526789338, 3.444717564742846, 0.41162102238584536, -2.979220915716253, -0.32402309672665375, -3.126323135083948, -1.7622059390328613]

>  <energy>  (6) 
-846.9675391366109

>  <inter_energy>  (6) 
-854.9486240583359

>  <intra_energy>  (6) 
14.55066239903357

>  <rmsd>  (6) 
6.2089

>  <sdf_rank>  (6) 
0

$$$$

     RDKit          3D

 59 60  0  0  0  0  0  0  0  0999 V2000
   13.6164    8.4200   34.2442 O   0  0  0  0  0  0  0  0  0  0  0  0
   15.3375    8.8226   32.9320 O   0  0  0  0  0  0  0  0  0  0  0  0
   14.7864    8.2067   33.8702 C   0  0  0  0  0  0  0  0  0  0  0  0
   15.6067    7.1598   34.6365 C   0  0  1  0  0  0  0  0  0  0  0  0
   16.4453    7.8036   35.7519 C   0  0  0  0  0  0  0  0  0  0  0  0
   16.3935    7.0327   37.0589 C   0  0  0  0  0  0  0  0  0  0  0  0
   14.6486    6.0896   35.1709 C   0  0  0  0  0  0  0  0  0  0  0  0
   15.2299    4.7022   35.2955 C   0  0  0  0  0  0  0  0  0  0  0  0
   14.5910    3.7118   36.0418 C   0  0  0  0  0  0  0  0  0  0  0  0
   15.1290    2.4346   36.1908 C   0  0  0  0  0  0  0  0  0  0  0  0
   16.3527    2.1617   35.5724 C   0  0  0  0  0  0  0  0  0  0  0  0
   17.0093    3.1367   34.8428 C   0  0  0  0  0  0  0  0  0  0  0  0
   16.4464    4.3915   34.7120 C   0  0  0  0  0  0  0  0  0  0  0  0
   16.8549    0.9049   35.7656 O   0  0  0  0  0  0  0  0  0  0  0  0
   18.2783    0.7414   35.7260 C   0  0  0  0  0  0  0  0  0  0  0  0
   18.6015   -0.6691   36.1401 C   0  0  0  0  0  0  0  0  0  0  0  0
   19.8684   -0.8184   36.9452 C   0  0  0  0  0  0  0  0  0  0  0  0
   20.2472   -2.2545   37.2310 C   0  0  0  0  0  0  0  0  0  0  0  0
   14.4251    1.3737   36.9951 C   0  0  0  0  0  0  0  0  0  0  0  0
   14.1332    1.7810   38.3679 N   0  0  0  0  0  0  0  0  0  0  0  0
   12.9333    2.2521   38.7152 C   0  0  0  0  0  0  0  0  0  0  0  0
   12.0160    2.3821   37.9087 O   0  0  0  0  0  0  0  0  0  0  0  0
   12.7295    2.6292   40.1506 C   0  0  0  0  0  0  0  0  0  0  0  0
   11.8548    2.0060   41.0173 C   0  0  0  0  0  0  0  0  0  0  0  0
   11.7039    2.3831   42.3313 C   0  0  0  0  0  0  0  0  0  0  0  0
   12.4626    3.4310   42.8261 C   0  0  0  0  0  0  0  0  0  0  0  0
   13.3603    4.0702   41.9904 C   0  0  0  0  0  0  0  0  0  0  0  0
   13.4919    3.6716   40.6711 C   0  0  0  0  0  0  0  0  0  0  0  0
   12.3242    3.8473   44.2526 C   0  0  2  0  0  0  0  0  0  0  0  0
   11.0975    0.9791   40.5713 F   0  0  0  0  0  0  0  0  0  0  0  0
   13.1261    3.1667   45.0574 F   0  0  0  0  0  0  0  0  0  0  0  0
   11.0946    3.6744   44.7302 F   0  0  0  0  0  0  0  0  0  0  0  0
   12.6136    5.1294   44.4398 F   0  0  0  0  0  0  0  0  0  0  0  0
   16.3307    6.6849   33.9581 H   0  0  0  0  0  0  0  0  0  0  0  0
   17.4919    7.8548   35.4173 H   0  0  0  0  0  0  0  0  0  0  0  0
   16.0238    8.8014   35.9436 H   0  0  0  0  0  0  0  0  0  0  0  0
   16.4408    7.7374   37.9023 H   0  0  0  0  0  0  0  0  0  0  0  0
   15.4549    6.4614   37.1107 H   0  0  0  0  0  0  0  0  0  0  0  0
   17.2472    6.3410   37.1107 H   0  0  0  0  0  0  0  0  0  0  0  0
   14.3092    6.4059   36.1683 H   0  0  0  0  0  0  0  0  0  0  0  0
   13.8382    6.0126   34.4311 H   0  0  0  0  0  0  0  0  0  0  0  0
   13.6325    3.9461   36.5280 H   0  0  0  0  0  0  0  0  0  0  0  0
   17.9763    2.9135   34.3684 H   0  0  0  0  0  0  0  0  0  0  0  0
   16.9765    5.1609   34.1315 H   0  0  0  0  0  0  0  0  0  0  0  0
   18.6458    0.9232   34.7052 H   0  0  0  0  0  0  0  0  0  0  0  0
   18.7621    1.4575   36.4066 H   0  0  0  0  0  0  0  0  0  0  0  0
   17.7649   -1.0480   36.7456 H   0  0  0  0  0  0  0  0  0  0  0  0
   18.7570   -1.2365   35.2107 H   0  0  0  0  0  0  0  0  0  0  0  0
   20.6911   -0.3477   36.3869 H   0  0  0  0  0  0  0  0  0  0  0  0
   19.6877   -0.3362   37.9173 H   0  0  0  0  0  0  0  0  0  0  0  0
   20.2891   -2.4132   38.3187 H   0  0  0  0  0  0  0  0  0  0  0  0
   19.4956   -2.9265   36.7911 H   0  0  0  0  0  0  0  0  0  0  0  0
   21.2325   -2.4683   36.7911 H   0  0  0  0  0  0  0  0  0  0  0  0
   13.4763    1.1298   36.4950 H   0  0  0  0  0  0  0  0  0  0  0  0
   15.1016    0.5081   37.0512 H   0  0  0  0  0  0  0  0  0  0  0  0
   14.8697    1.7029   39.0837 H   0  0  0  0  0  0  0  0  0  0  0  0
   10.9888    1.8584   42.9820 H   0  0  0  0  0  0  0  0  0  0  0  0
   13.9724    4.8989   42.3757 H   0  0  0  0  0  0  0  0  0  0  0  0
   14.2131    4.1888   40.0212 H   0  0  0  0  0  0  0  0  0  0  0  0
  1  3  1  0
  2  3  2  0
  3  4  1  0
  4  5  1  0
  4  7  1  0
  5  6  1  0
  7  8  1  0
  8  9  2  0
  8 13  1  0
  9 10  1  0
 10 11  2  0
 10 19  1  0
 11 12  1  0
 11 14  1  0
 12 13  2  0
 14 15  1  0
 15 16  1  0
 16 17  1  0
 17 18  1  0
 19 20  1  0
 20 21  1  0
 21 22  2  0
 21 23  1  0
 23 24  2  0
 23 28  1  0
 24 25  1  0
 24 30  1  0
 25 26  2  0
 26 27  1  0
 26 29  1  0
 27 28  2  0
 29 31  1  1
 29 32  1  0
 29 33  1  0
  4 34  1  6
  5 35  1  0
  5 36  1  0
  6 37  1  0
  6 38  1  0
  6 39  1  0
  7 40  1  0
  7 41  1  0
  9 42  1  0
 12 43  1  0
 13 44  1  0
 15 45  1  0
 15 46  1  0
 16 47  1  0
 16 48  1  0
 17 49  1  0
 17 50  1  0
 18 51  1  0
 18 52  1  0
 18 53  1  0
 19 54  1  0
 19 55  1  0
 20 56  1  0
 25 57  1  0
 27 58  1  0
 28 59  1  0
M  CHG  1   1  -1
M  END
>  <filename_input>  (7) 
7VWF_K55_docked.sdf

>  <pdb_id>  (7) 
7VWF_K55

>  <pose_rank>  (7) 
6

>  <num_atoms_heavy>  (7) 
33

>  <num_torsions>  (7) 
12

>  <pose>  (7) 
[15.229868807031202, 4.702247684879183, 35.29550942213358, -2.8655432186302354, -1.5670455282604696, 1.3008432128864804, -8.495847359853125, -0.44144247439413387, 2.1331824918064943, -2.7984308750785325, 0.29211267769366245, 0.12461092811238944, 4.99326164749585, -1.8608939897502632, 3.223870680418307, -1.801671007048835, -2.3296023495162665, -0.6700728424862328]

>  <energy>  (7) 
-834.777137673175

>  <inter_energy>  (7) 
-865.7320011473881

>  <intra_energy>  (7) 
20.757716821135865

>  <rmsd>  (7) 
6.0004

>  <sdf_rank>  (7) 
0

$$$$

     RDKit          3D

 59 60  0  0  0  0  0  0  0  0999 V2000
   20.7073   -2.2891   34.6393 O   0  0  0  0  0  0  0  0  0  0  0  0
   18.7956   -3.3330   34.3204 O   0  0  0  0  0  0  0  0  0  0  0  0
   19.4680   -2.3698   34.7486 C   0  0  0  0  0  0  0  0  0  0  0  0
   18.7367   -1.2425   35.4905 C   0  0  1  0  0  0  0  0  0  0  0  0
   19.7112   -0.3719   36.2992 C   0  0  0  0  0  0  0  0  0  0  0  0
   19.9840   -0.9150   37.6905 C   0  0  0  0  0  0  0  0  0  0  0  0
   17.9378   -0.4276   34.4675 C   0  0  0  0  0  0  0  0  0  0  0  0
   17.3694    0.8746   34.9766 C   0  0  0  0  0  0  0  0  0  0  0  0
   16.1133    0.9316   35.5808 C   0  0  0  0  0  0  0  0  0  0  0  0
   15.5619    2.1304   36.0300 C   0  0  0  0  0  0  0  0  0  0  0  0
   16.3036    3.3017   35.8510 C   0  0  0  0  0  0  0  0  0  0  0  0
   17.5434    3.2670   35.2382 C   0  0  0  0  0  0  0  0  0  0  0  0
   18.0625    2.0613   34.8077 C   0  0  0  0  0  0  0  0  0  0  0  0
   15.7138    4.4567   36.2837 O   0  0  0  0  0  0  0  0  0  0  0  0
   15.9915    4.8874   37.6223 C   0  0  0  0  0  0  0  0  0  0  0  0
   14.8598    4.4360   38.5060 C   0  0  0  0  0  0  0  0  0  0  0  0
   14.7641    5.1542   39.8291 C   0  0  0  0  0  0  0  0  0  0  0  0
   13.7639    4.5449   40.7862 C   0  0  0  0  0  0  0  0  0  0  0  0
   14.2068    2.1757   36.6855 C   0  0  0  0  0  0  0  0  0  0  0  0
   13.1683    1.4833   35.9254 N   0  0  0  0  0  0  0  0  0  0  0  0
   11.9129    1.9360   35.8877 C   0  0  0  0  0  0  0  0  0  0  0  0
   11.5556    2.9435   36.4926 O   0  0  0  0  0  0  0  0  0  0  0  0
   10.9254    1.1627   35.0685 C   0  0  0  0  0  0  0  0  0  0  0  0
   11.2166    0.5004   33.8932 C   0  0  0  0  0  0  0  0  0  0  0  0
   10.2776   -0.2030   33.1756 C   0  0  0  0  0  0  0  0  0  0  0  0
    8.9755   -0.2655   33.6436 C   0  0  0  0  0  0  0  0  0  0  0  0
    8.6497    0.3742   34.8257 C   0  0  0  0  0  0  0  0  0  0  0  0
    9.6139    1.0767   35.5283 C   0  0  0  0  0  0  0  0  0  0  0  0
    7.9441   -1.0347   32.8873 C   0  0  2  0  0  0  0  0  0  0  0  0
   12.4764    0.5381   33.4049 F   0  0  0  0  0  0  0  0  0  0  0  0
    7.6815   -2.2082   33.4423 F   0  0  0  0  0  0  0  0  0  0  0  0
    8.3028   -1.2958   31.6330 F   0  0  0  0  0  0  0  0  0  0  0  0
    6.7841   -0.3936   32.8113 F   0  0  0  0  0  0  0  0  0  0  0  0
   18.0416   -1.6716   36.2272 H   0  0  0  0  0  0  0  0  0  0  0  0
   20.6643   -0.3143   35.7531 H   0  0  0  0  0  0  0  0  0  0  0  0
   19.2440    0.6166   36.4196 H   0  0  0  0  0  0  0  0  0  0  0  0
   19.6233   -0.1969   38.4417 H   0  0  0  0  0  0  0  0  0  0  0  0
   19.4606   -1.8739   37.8190 H   0  0  0  0  0  0  0  0  0  0  0  0
   21.0657   -1.0676   37.8190 H   0  0  0  0  0  0  0  0  0  0  0  0
   18.6030   -0.1997   33.6216 H   0  0  0  0  0  0  0  0  0  0  0  0
   17.0722   -1.0494   34.1951 H   0  0  0  0  0  0  0  0  0  0  0  0
   15.5401    0.0013   35.7069 H   0  0  0  0  0  0  0  0  0  0  0  0
   18.1140    4.1964   35.0942 H   0  0  0  0  0  0  0  0  0  0  0  0
   19.0483    2.0436   34.3200 H   0  0  0  0  0  0  0  0  0  0  0  0
   16.9353    4.4411   37.9688 H   0  0  0  0  0  0  0  0  0  0  0  0
   16.0869    5.9827   37.6569 H   0  0  0  0  0  0  0  0  0  0  0  0
   13.9169    4.5942   37.9620 H   0  0  0  0  0  0  0  0  0  0  0  0
   15.0536    3.3790   38.7412 H   0  0  0  0  0  0  0  0  0  0  0  0
   15.7553    5.1357   40.3058 H   0  0  0  0  0  0  0  0  0  0  0  0
   14.4182    6.1760   39.6136 H   0  0  0  0  0  0  0  0  0  0  0  0
   14.0819    4.7386   41.8213 H   0  0  0  0  0  0  0  0  0  0  0  0
   12.7739    4.9934   40.6167 H   0  0  0  0  0  0  0  0  0  0  0  0
   13.7086    3.4594   40.6167 H   0  0  0  0  0  0  0  0  0  0  0  0
   14.2839    1.7064   37.6773 H   0  0  0  0  0  0  0  0  0  0  0  0
   13.9121    3.2338   36.7466 H   0  0  0  0  0  0  0  0  0  0  0  0
   13.4103    0.6267   35.4071 H   0  0  0  0  0  0  0  0  0  0  0  0
   10.5575   -0.7102   32.2405 H   0  0  0  0  0  0  0  0  0  0  0  0
    7.6200    0.3247   35.2094 H   0  0  0  0  0  0  0  0  0  0  0  0
    9.3384    1.5769   36.4684 H   0  0  0  0  0  0  0  0  0  0  0  0
  1  3  1  0
  2  3  2  0
  3  4  1  0
  4  5  1  0
  4  7  1  0
  5  6  1  0
  7  8  1  0
  8  9  2  0
  8 13  1  0
  9 10  1  0
 10 11  2  0
 10 19  1  0
 11 12  1  0
 11 14  1  0
 12 13  2  0
 14 15  1  0
 15 16  1  0
 16 17  1  0
 17 18  1  0
 19 20  1  0
 20 21  1  0
 21 22  2  0
 21 23  1  0
 23 24  2  0
 23 28  1  0
 24 25  1  0
 24 30  1  0
 25 26  2  0
 26 27  1  0
 26 29  1  0
 27 28  2  0
 29 31  1  1
 29 32  1  0
 29 33  1  0
  4 34  1  1
  5 35  1  0
  5 36  1  0
  6 37  1  0
  6 38  1  0
  6 39  1  0
  7 40  1  0
  7 41  1  0
  9 42  1  0
 12 43  1  0
 13 44  1  0
 15 45  1  0
 15 46  1  0
 16 47  1  0
 16 48  1  0
 17 49  1  0
 17 50  1  0
 18 51  1  0
 18 52  1  0
 18 53  1  0
 19 54  1  0
 19 55  1  0
 20 56  1  0
 25 57  1  0
 27 58  1  0
 28 59  1  0
M  CHG  1   1  -1
M  END
>  <filename_input>  (8) 
7VWF_K55_docked.sdf

>  <pdb_id>  (8) 
7VWF_K55

>  <pose_rank>  (8) 
7

>  <num_atoms_heavy>  (8) 
33

>  <num_torsions>  (8) 
12

>  <pose>  (8) 
[17.36943646258337, 0.8746322543241128, 34.976559708732836, 3.020741881528036, -5.267102551911447, 0.37101764565357476, -0.35269759711304405, 0.28695704325951205, -2.7797498844060042, -0.3975482534122077, -1.735820208120599, 1.6910131428142023, -1.5955635366488177, -1.8048723313920967, 3.323053140037457, 0.25968424965373865, -0.9153051591712281, -0.40804431828790877]

>  <energy>  (8) 
-801.3866472854297

>  <inter_energy>  (8) 
-834.6909020319409

>  <intra_energy>  (8) 
46.004172185688105

>  <rmsd>  (8) 
6.24366

>  <sdf_rank>  (8) 
0

$$$$

     RDKit          3D

 59 60  0  0  0  0  0  0  0  0999 V2000
   10.2503   -0.1973   30.9895 O   0  0  0  0  0  0  0  0  0  0  0  0
    9.2993   -1.3876   32.5784 O   0  0  0  0  0  0  0  0  0  0  0  0
    9.7074   -0.3039   32.1066 C   0  0  0  0  0  0  0  0  0  0  0  0
    9.5752    0.9611   32.9657 C   0  0  1  0  0  0  0  0  0  0  0  0
    8.1236    1.4634   33.0138 C   0  0  0  0  0  0  0  0  0  0  0  0
    7.1229    0.4497   32.4883 C   0  0  0  0  0  0  0  0  0  0  0  0
   10.1349    0.6605   34.3605 C   0  0  0  0  0  0  0  0  0  0  0  0
   11.6349    0.7621   34.4934 C   0  0  0  0  0  0  0  0  0  0  0  0
   12.2307    1.7864   35.2297 C   0  0  0  0  0  0  0  0  0  0  0  0
   13.6147    1.9113   35.3382 C   0  0  0  0  0  0  0  0  0  0  0  0
   14.4123    0.9757   34.6728 C   0  0  0  0  0  0  0  0  0  0  0  0
   13.8394   -0.0365   33.9237 C   0  0  0  0  0  0  0  0  0  0  0  0
   12.4639   -0.1337   33.8398 C   0  0  0  0  0  0  0  0  0  0  0  0
   15.7634    1.1510   34.7862 O   0  0  0  0  0  0  0  0  0  0  0  0
   16.5988   -0.0084   34.6754 C   0  0  0  0  0  0  0  0  0  0  0  0
   17.8293    0.2166   35.5125 C   0  0  0  0  0  0  0  0  0  0  0  0
   18.5569   -1.0405   35.9196 C   0  0  0  0  0  0  0  0  0  0  0  0
   19.8537   -0.7869   36.6557 C   0  0  0  0  0  0  0  0  0  0  0  0
   14.2437    3.0192   36.1412 C   0  0  0  0  0  0  0  0  0  0  0  0
   13.7770    3.0733   37.5251 N   0  0  0  0  0  0  0  0  0  0  0  0
   14.3119    3.9190   38.4087 C   0  0  0  0  0  0  0  0  0  0  0  0
   15.2268    4.6857   38.1191 O   0  0  0  0  0  0  0  0  0  0  0  0
   13.7541    3.9077   39.7990 C   0  0  0  0  0  0  0  0  0  0  0  0
   12.7318    3.0899   40.2362 C   0  0  0  0  0  0  0  0  0  0  0  0
   12.2541    3.1097   41.5258 C   0  0  0  0  0  0  0  0  0  0  0  0
   12.8188    3.9803   42.4433 C   0  0  0  0  0  0  0  0  0  0  0  0
   13.8550    4.8049   42.0449 C   0  0  0  0  0  0  0  0  0  0  0  0
   14.3163    4.7660   40.7401 C   0  0  0  0  0  0  0  0  0  0  0  0
   12.3245    4.0081   43.8512 C   0  0  2  0  0  0  0  0  0  0  0  0
   12.1560    2.2268   39.3700 F   0  0  0  0  0  0  0  0  0  0  0  0
   12.3966    2.8218   44.4354 F   0  0  0  0  0  0  0  0  0  0  0  0
   11.0533    4.3879   43.9511 F   0  0  0  0  0  0  0  0  0  0  0  0
   13.0176    4.8409   44.6184 F   0  0  0  0  0  0  0  0  0  0  0  0
   10.1569    1.7791   32.5157 H   0  0  0  0  0  0  0  0  0  0  0  0
    7.8689    1.6973   34.0580 H   0  0  0  0  0  0  0  0  0  0  0  0
    8.0625    2.3499   32.3654 H   0  0  0  0  0  0  0  0  0  0  0  0
    6.6290   -0.0506   33.3344 H   0  0  0  0  0  0  0  0  0  0  0  0
    6.3681    0.9636   31.8749 H   0  0  0  0  0  0  0  0  0  0  0  0
    7.6465   -0.2984   31.8749 H   0  0  0  0  0  0  0  0  0  0  0  0
    9.6828    1.3714   35.0677 H   0  0  0  0  0  0  0  0  0  0  0  0
    9.8835   -0.3903   34.5672 H   0  0  0  0  0  0  0  0  0  0  0  0
   11.5881    2.5184   35.7407 H   0  0  0  0  0  0  0  0  0  0  0  0
   14.4770   -0.7615   33.3966 H   0  0  0  0  0  0  0  0  0  0  0  0
   12.0173   -0.9408   33.2405 H   0  0  0  0  0  0  0  0  0  0  0  0
   16.0572   -0.8938   35.0398 H   0  0  0  0  0  0  0  0  0  0  0  0
   16.8793   -0.1755   33.6249 H   0  0  0  0  0  0  0  0  0  0  0  0
   18.5255    0.8433   34.9358 H   0  0  0  0  0  0  0  0  0  0  0  0
   17.4871    0.6913   36.4440 H   0  0  0  0  0  0  0  0  0  0  0  0
   17.8957   -1.6267   36.5748 H   0  0  0  0  0  0  0  0  0  0  0  0
   18.8148   -1.5745   34.9931 H   0  0  0  0  0  0  0  0  0  0  0  0
   19.6727   -0.8223   37.7401 H   0  0  0  0  0  0  0  0  0  0  0  0
   20.5881   -1.5584   36.3811 H   0  0  0  0  0  0  0  0  0  0  0  0
   20.2432    0.2045   36.3811 H   0  0  0  0  0  0  0  0  0  0  0  0
   15.3335    2.8696   36.1469 H   0  0  0  0  0  0  0  0  0  0  0  0
   13.9554    3.9679   35.6651 H   0  0  0  0  0  0  0  0  0  0  0  0
   13.0183    2.4447   37.8254 H   0  0  0  0  0  0  0  0  0  0  0  0
   11.4330    2.4417   41.8251 H   0  0  0  0  0  0  0  0  0  0  0  0
   14.3147    5.4948   42.7679 H   0  0  0  0  0  0  0  0  0  0  0  0
   15.1436    5.4265   40.4410 H   0  0  0  0  0  0  0  0  0  0  0  0
  1  3  1  0
  2  3  2  0
  3  4  1  0
  4  5  1  0
  4  7  1  0
  5  6  1  0
  7  8  1  0
  8  9  2  0
  8 13  1  0
  9 10  1  0
 10 11  2  0
 10 19  1  0
 11 12  1  0
 11 14  1  0
 12 13  2  0
 14 15  1  0
 15 16  1  0
 16 17  1  0
 17 18  1  0
 19 20  1  0
 20 21  1  0
 21 22  2  0
 21 23  1  0
 23 24  2  0
 23 28  1  0
 24 25  1  0
 24 30  1  0
 25 26  2  0
 26 27  1  0
 26 29  1  0
 27 28  2  0
 29 31  1  1
 29 32  1  0
 29 33  1  0
  4 34  1  6
  5 35  1  0
  5 36  1  0
  6 37  1  0
  6 38  1  0
  6 39  1  0
  7 40  1  0
  7 41  1  0
  9 42  1  0
 12 43  1  0
 13 44  1  0
 15 45  1  0
 15 46  1  0
 16 47  1  0
 16 48  1  0
 17 49  1  0
 17 50  1  0
 18 51  1  0
 18 52  1  0
 18 53  1  0
 19 54  1  0
 19 55  1  0
 20 56  1  0
 25 57  1  0
 27 58  1  0
 28 59  1  0
M  CHG  1   1  -1
M  END
>  <filename_input>  (9) 
7VWF_K55_docked.sdf

>  <pdb_id>  (9) 
7VWF_K55

>  <pose_rank>  (9) 
8

>  <num_atoms_heavy>  (9) 
33

>  <num_torsions>  (9) 
12

>  <pose>  (9) 
[11.634920422502988, 0.7621441594368242, 34.49338428200859, -0.0009301289322802336, 0.6336607481960541, -1.8356880147811971, -3.166736981740113, -1.6165176112973623, -0.6521154157301075, 1.3446144263157813, -0.6808030450353644, 0.7772563349387079, 3.9967282109636804, -2.0512583931892405, 5.15707595868286, -0.46244001826676895, -0.31787156351248946, -1.2133176301808977]

>  <energy>  (9) 
-750.9618220362953

>  <inter_energy>  (9) 
-790.0977058600234

>  <intra_energy>  (9) 
40.57501661328972

>  <rmsd>  (9) 
6.33956

>  <sdf_rank>  (9) 
0

$$$$

     RDKit          3D

 59 60  0  0  0  0  0  0  0  0999 V2000
   12.4607    3.9326   42.7167 O   0  0  0  0  0  0  0  0  0  0  0  0
   13.4168    1.9499   42.7368 O   0  0  0  0  0  0  0  0  0  0  0  0
   13.0655    2.9989   42.1542 C   0  0  0  0  0  0  0  0  0  0  0  0
   13.3531    3.1300   40.6522 C   0  0  1  0  0  0  0  0  0  0  0  0
   12.1642    3.7485   39.9002 C   0  0  0  0  0  0  0  0  0  0  0  0
   11.2253    2.7112   39.3104 C   0  0  0  0  0  0  0  0  0  0  0  0
   14.6414    3.9410   40.4744 C   0  0  0  0  0  0  0  0  0  0  0  0
   14.8449    4.5438   39.1057 C   0  0  0  0  0  0  0  0  0  0  0  0
   14.8074    3.7582   37.9535 C   0  0  0  0  0  0  0  0  0  0  0  0
   15.0221    4.2943   36.6849 C   0  0  0  0  0  0  0  0  0  0  0  0
   15.2911    5.6627   36.5876 C   0  0  0  0  0  0  0  0  0  0  0  0
   15.3495    6.4542   37.7208 C   0  0  0  0  0  0  0  0  0  0  0  0
   15.1282    5.8915   38.9629 C   0  0  0  0  0  0  0  0  0  0  0  0
   15.5198    6.1406   35.3273 O   0  0  0  0  0  0  0  0  0  0  0  0
   14.4737    6.8917   34.6980 C   0  0  0  0  0  0  0  0  0  0  0  0
   15.0716    8.1564   34.1425 C   0  0  0  0  0  0  0  0  0  0  0  0
   15.1306    8.2208   32.6365 C   0  0  0  0  0  0  0  0  0  0  0  0
   14.3147    9.3454   32.0388 C   0  0  0  0  0  0  0  0  0  0  0  0
   14.9731    3.4347   35.4493 C   0  0  0  0  0  0  0  0  0  0  0  0
   16.0474    2.4460   35.3844 N   0  0  0  0  0  0  0  0  0  0  0  0
   15.8010    1.1397   35.5081 C   0  0  0  0  0  0  0  0  0  0  0  0
   14.6712    0.6953   35.6943 O   0  0  0  0  0  0  0  0  0  0  0  0
   16.9685    0.2058   35.4129 C   0  0  0  0  0  0  0  0  0  0  0  0
   17.9121    0.0134   36.4015 C   0  0  0  0  0  0  0  0  0  0  0  0
   18.9666   -0.8602   36.2728 C   0  0  0  0  0  0  0  0  0  0  0  0
   19.0988   -1.5940   35.1056 C   0  0  0  0  0  0  0  0  0  0  0  0
   18.1640   -1.4380   34.0984 C   0  0  0  0  0  0  0  0  0  0  0  0
   17.1124   -0.5509   34.2530 C   0  0  0  0  0  0  0  0  0  0  0  0
   20.2281   -2.5575   34.9508 C   0  0  2  0  0  0  0  0  0  0  0  0
   17.8164    0.7112   37.5551 F   0  0  0  0  0  0  0  0  0  0  0  0
   20.8565   -2.7868   36.0938 F   0  0  0  0  0  0  0  0  0  0  0  0
   21.1600   -2.1375   34.0993 F   0  0  0  0  0  0  0  0  0  0  0  0
   19.8296   -3.7423   34.5036 F   0  0  0  0  0  0  0  0  0  0  0  0
   13.4952    2.1320   40.2120 H   0  0  0  0  0  0  0  0  0  0  0  0
   11.5953    4.3765   40.6015 H   0  0  0  0  0  0  0  0  0  0  0  0
   12.5745    4.3320   39.0628 H   0  0  0  0  0  0  0  0  0  0  0  0
   10.7283    2.1620   40.1237 H   0  0  0  0  0  0  0  0  0  0  0  0
   10.4678    3.2127   38.6902 H   0  0  0  0  0  0  0  0  0  0  0  0
   11.7996    2.0073   38.6902 H   0  0  0  0  0  0  0  0  0  0  0  0
   14.6299    4.7608   41.2077 H   0  0  0  0  0  0  0  0  0  0  0  0
   15.4685    3.2301   40.6177 H   0  0  0  0  0  0  0  0  0  0  0  0
   14.6018    2.6818   38.0491 H   0  0  0  0  0  0  0  0  0  0  0  0
   15.5713    7.5281   37.6330 H   0  0  0  0  0  0  0  0  0  0  0  0
   15.1783    6.5283   39.8585 H   0  0  0  0  0  0  0  0  0  0  0  0
   14.0292    6.3009   33.8836 H   0  0  0  0  0  0  0  0  0  0  0  0
   13.6868    7.1323   35.4280 H   0  0  0  0  0  0  0  0  0  0  0  0
   14.4682    9.0048   34.4977 H   0  0  0  0  0  0  0  0  0  0  0  0
   16.1133    8.1867   34.4944 H   0  0  0  0  0  0  0  0  0  0  0  0
   16.1801    8.3569   32.3365 H   0  0  0  0  0  0  0  0  0  0  0  0
   14.7022    7.2803   32.2596 H   0  0  0  0  0  0  0  0  0  0  0  0
   13.8763    9.9497   32.8466 H   0  0  0  0  0  0  0  0  0  0  0  0
   14.9642    9.9796   31.4175 H   0  0  0  0  0  0  0  0  0  0  0  0
   13.5102    8.9248   31.4175 H   0  0  0  0  0  0  0  0  0  0  0  0
   14.0098    2.9039   35.4324 H   0  0  0  0  0  0  0  0  0  0  0  0
   15.0961    4.1035   34.5847 H   0  0  0  0  0  0  0  0  0  0  0  0
   17.0163    2.7641   35.2399 H   0  0  0  0  0  0  0  0  0  0  0  0
   19.6966   -0.9748   37.0876 H   0  0  0  0  0  0  0  0  0  0  0  0
   18.2563   -2.0214   33.1705 H   0  0  0  0  0  0  0  0  0  0  0  0
   16.3759   -0.4416   33.4433 H   0  0  0  0  0  0  0  0  0  0  0  0
  1  3  1  0
  2  3  2  0
  3  4  1  0
  4  5  1  0
  4  7  1  0
  5  6  1  0
  7  8  1  0
  8  9  2  0
  8 13  1  0
  9 10  1  0
 10 11  2  0
 10 19  1  0
 11 12  1  0
 11 14  1  0
 12 13  2  0
 14 15  1  0
 15 16  1  0
 16 17  1  0
 17 18  1  0
 19 20  1  0
 20 21  1  0
 21 22  2  0
 21 23  1  0
 23 24  2  0
 23 28  1  0
 24 25  1  0
 24 30  1  0
 25 26  2  0
 26 27  1  0
 26 29  1  0
 27 28  2  0
 29 31  1  1
 29 32  1  0
 29 33  1  0
  4 34  1  6
  5 35  1  0
  5 36  1  0
  6 37  1  0
  6 38  1  0
  6 39  1  0
  7 40  1  0
  7 41  1  0
  9 42  1  0
 12 43  1  0
 13 44  1  0
 15 45  1  0
 15 46  1  0
 16 47  1  0
 16 48  1  0
 17 49  1  0
 17 50  1  0
 18 51  1  0
 18 52  1  0
 18 53  1  0
 19 54  1  0
 19 55  1  0
 20 56  1  0
 25 57  1  0
 27 58  1  0
 28 59  1  0
M  CHG  1   1  -1
M  END
>  <filename_input>  (10) 
7VWF_K55_docked.sdf

>  <pdb_id>  (10) 
7VWF_K55

>  <pose_rank>  (10) 
9

>  <num_atoms_heavy>  (10) 
33

>  <num_torsions>  (10) 
12

>  <pose>  (10) 
[14.844870530689704, 4.543834584810283, 39.10570669799788, 1.685613494676594, 3.856075790485536, -0.5216016158385564, 0.23986328384914155, 0.4192939401378699, -3.217468156679392, -0.5277961217639847, -1.5217492601102762, -0.5969307913295062, 3.154427721347341, -3.0493312651720204, 3.040032452044567, -1.5662417567244242, 0.9905092143844227, -1.9881318683521962]

>  <energy>  (10) 
-769.6408785201979

>  <inter_energy>  (10) 
-759.9904346469233

>  <intra_energy>  (10) 
9.797152882707735

>  <rmsd>  (10) 
8.2218

>  <sdf_rank>  (10) 
0

$$$$

     RDKit          3D

 59 60  0  0  0  0  0  0  0  0999 V2000
   12.3713    4.0613   44.6499 O   0  0  0  0  0  0  0  0  0  0  0  0
   10.9003    4.6684   43.1290 O   0  0  0  0  0  0  0  0  0  0  0  0
   12.0219    4.2300   43.4652 C   0  0  0  0  0  0  0  0  0  0  0  0
   13.0451    3.9230   42.3630 C   0  0  1  0  0  0  0  0  0  0  0  0
   12.9457    2.4646   41.8888 C   0  0  0  0  0  0  0  0  0  0  0  0
   11.7558    1.7257   42.4746 C   0  0  0  0  0  0  0  0  0  0  0  0
   12.8408    4.9233   41.2199 C   0  0  0  0  0  0  0  0  0  0  0  0
   13.0560    4.3738   39.8307 C   0  0  0  0  0  0  0  0  0  0  0  0
   14.2858    4.4973   39.1836 C   0  0  0  0  0  0  0  0  0  0  0  0
   14.4925    4.0213   37.8900 C   0  0  0  0  0  0  0  0  0  0  0  0
   13.4177    3.4127   37.2351 C   0  0  0  0  0  0  0  0  0  0  0  0
   12.1860    3.2970   37.8544 C   0  0  0  0  0  0  0  0  0  0  0  0
   12.0161    3.7765   39.1388 C   0  0  0  0  0  0  0  0  0  0  0  0
   13.6583    2.9834   35.9596 O   0  0  0  0  0  0  0  0  0  0  0  0
   12.7755    1.9972   35.4094 C   0  0  0  0  0  0  0  0  0  0  0  0
   13.6013    1.0088   34.6305 C   0  0  0  0  0  0  0  0  0  0  0  0
   12.8436    0.2441   33.5738 C   0  0  0  0  0  0  0  0  0  0  0  0
   11.5119    0.8607   33.2076 C   0  0  0  0  0  0  0  0  0  0  0  0
   15.8273    4.1568   37.2061 C   0  0  0  0  0  0  0  0  0  0  0  0
   16.4599    2.8746   36.9036 N   0  0  0  0  0  0  0  0  0  0  0  0
   17.3336    2.7472   35.9022 C   0  0  0  0  0  0  0  0  0  0  0  0
   17.6459    3.6862   35.1746 O   0  0  0  0  0  0  0  0  0  0  0  0
   17.9377    1.3941   35.6822 C   0  0  0  0  0  0  0  0  0  0  0  0
   19.2716    1.0843   35.8541 C   0  0  0  0  0  0  0  0  0  0  0  0
   19.7825   -0.1755   35.6453 C   0  0  0  0  0  0  0  0  0  0  0  0
   18.9311   -1.1941   35.2503 C   0  0  0  0  0  0  0  0  0  0  0  0
   17.5852   -0.9242   35.0818 C   0  0  0  0  0  0  0  0  0  0  0  0
   17.0968    0.3532   35.2974 C   0  0  0  0  0  0  0  0  0  0  0  0
   19.4625   -2.5715   35.0315 C   0  0  2  0  0  0  0  0  0  0  0  0
   20.1333    2.0518   36.2393 F   0  0  0  0  0  0  0  0  0  0  0  0
   20.5485   -2.8138   35.7497 F   0  0  0  0  0  0  0  0  0  0  0  0
   19.8013   -2.8058   33.7665 F   0  0  0  0  0  0  0  0  0  0  0  0
   18.5858   -3.5137   35.3571 F   0  0  0  0  0  0  0  0  0  0  0  0
   14.0648    4.0367   42.7597 H   0  0  0  0  0  0  0  0  0  0  0  0
   12.8559    2.4587   40.7925 H   0  0  0  0  0  0  0  0  0  0  0  0
   13.8536    1.9466   42.2315 H   0  0  0  0  0  0  0  0  0  0  0  0
   11.8083    1.7583   43.5729 H   0  0  0  0  0  0  0  0  0  0  0  0
   10.8246    2.2046   42.1377 H   0  0  0  0  0  0  0  0  0  0  0  0
   11.7723    0.6786   42.1377 H   0  0  0  0  0  0  0  0  0  0  0  0
   11.8091    5.3001   41.2794 H   0  0  0  0  0  0  0  0  0  0  0  0
   13.6054    5.7018   41.3590 H   0  0  0  0  0  0  0  0  0  0  0  0
   15.1185    4.9856   39.7110 H   0  0  0  0  0  0  0  0  0  0  0  0
   11.3448    2.8248   37.3258 H   0  0  0  0  0  0  0  0  0  0  0  0
   11.0328    3.6815   39.6226 H   0  0  0  0  0  0  0  0  0  0  0  0
   12.2430    1.4798   36.2211 H   0  0  0  0  0  0  0  0  0  0  0  0
   12.0347    2.4752   34.7516 H   0  0  0  0  0  0  0  0  0  0  0  0
   14.4165    1.5581   34.1368 H   0  0  0  0  0  0  0  0  0  0  0  0
   13.9572    0.2631   35.3566 H   0  0  0  0  0  0  0  0  0  0  0  0
   13.4649    0.1979   32.6673 H   0  0  0  0  0  0  0  0  0  0  0  0
   12.6307   -0.7513   33.9909 H   0  0  0  0  0  0  0  0  0  0  0  0
   10.9613    1.1157   34.1251 H   0  0  0  0  0  0  0  0  0  0  0  0
   11.6805    1.7725   32.6157 H   0  0  0  0  0  0  0  0  0  0  0  0
   10.9256    0.1425   32.6157 H   0  0  0  0  0  0  0  0  0  0  0  0
   15.6814    4.7042   36.2631 H   0  0  0  0  0  0  0  0  0  0  0  0
   16.4935    4.6909   37.8996 H   0  0  0  0  0  0  0  0  0  0  0  0
   16.2265    2.0506   37.4759 H   0  0  0  0  0  0  0  0  0  0  0  0
   20.8551   -0.3718   35.7903 H   0  0  0  0  0  0  0  0  0  0  0  0
   16.8998   -1.7279   34.7751 H   0  0  0  0  0  0  0  0  0  0  0  0
   16.0230    0.5497   35.1620 H   0  0  0  0  0  0  0  0  0  0  0  0
  1  3  1  0
  2  3  2  0
  3  4  1  0
  4  5  1  0
  4  7  1  0
  5  6  1  0
  7  8  1  0
  8  9  2  0
  8 13  1  0
  9 10  1  0
 10 11  2  0
 10 19  1  0
 11 12  1  0
 11 14  1  0
 12 13  2  0
 14 15  1  0
 15 16  1  0
 16 17  1  0
 17 18  1  0
 19 20  1  0
 20 21  1  0
 21 22  2  0
 21 23  1  0
 23 24  2  0
 23 28  1  0
 24 25  1  0
 24 30  1  0
 25 26  2  0
 26 27  1  0
 26 29  1  0
 27 28  2  0
 29 31  1  1
 29 32  1  0
 29 33  1  0
  4 34  1  1
  5 35  1  0
  5 36  1  0
  6 37  1  0
  6 38  1  0
  6 39  1  0
  7 40  1  0
  7 41  1  0
  9 42  1  0
 12 43  1  0
 13 44  1  0
 15 45  1  0
 15 46  1  0
 16 47  1  0
 16 48  1  0
 17 49  1  0
 17 50  1  0
 18 51  1  0
 18 52  1  0
 18 53  1  0
 19 54  1  0
 19 55  1  0
 20 56  1  0
 25 57  1  0
 27 58  1  0
 28 59  1  0
M  CHG  1   1  -1
M  END
>  <filename_input>  (11) 
7VWF_K55_docked.sdf

>  <pdb_id>  (11) 
7VWF_K55

>  <pose_rank>  (11) 
10

>  <num_atoms_heavy>  (11) 
33

>  <num_torsions>  (11) 
12

>  <pose>  (11) 
[13.056043461995978, 4.373784210603562, 39.83069629007135, 0.9853650191502765, -1.8892126177713044, 2.2233592815785794, -0.4620827600387229, -5.563670181044684, -0.934509016499457, 1.2481082061143074, -0.5481983034383741, -5.324898142278769, -1.519644964381874, 1.4670050799680405, -0.055061360075747384, -0.8129034965230559, -2.309575936570856, -1.7383517413877445]

>  <energy>  (11) 
-743.20809659922

>  <inter_energy>  (11) 
-777.2351155435753

>  <intra_energy>  (11) 
32.123405706879055

>  <rmsd>  (11) 
9.02668

>  <sdf_rank>  (11) 
0

$$$$

     RDKit          3D

 59 60  0  0  0  0  0  0  0  0999 V2000
    6.5471    0.6192   34.1471 O   0  0  0  0  0  0  0  0  0  0  0  0
    7.0126    0.6650   31.9960 O   0  0  0  0  0  0  0  0  0  0  0  0
    7.3123    0.4161   33.1841 C   0  0  0  0  0  0  0  0  0  0  0  0
    8.7159   -0.1283   33.4833 C   0  0  1  0  0  0  0  0  0  0  0  0
    9.3715   -0.7236   32.2274 C   0  0  0  0  0  0  0  0  0  0  0  0
    8.6059   -1.9037   31.6560 C   0  0  0  0  0  0  0  0  0  0  0  0
    9.5519    0.9991   34.0990 C   0  0  0  0  0  0  0  0  0  0  0  0
   11.0294    0.7175   34.2236 C   0  0  0  0  0  0  0  0  0  0  0  0
   11.8608    1.5298   34.9951 C   0  0  0  0  0  0  0  0  0  0  0  0
   13.2319    1.3006   35.0972 C   0  0  0  0  0  0  0  0  0  0  0  0
   13.7717    0.2232   34.3886 C   0  0  0  0  0  0  0  0  0  0  0  0
   12.9656   -0.5826   33.6045 C   0  0  0  0  0  0  0  0  0  0  0  0
   11.6096   -0.3297   33.5282 C   0  0  0  0  0  0  0  0  0  0  0  0
   15.1235    0.0509   34.4978 O   0  0  0  0  0  0  0  0  0  0  0  0
   15.7515    0.4553   35.7212 C   0  0  0  0  0  0  0  0  0  0  0  0
   17.2134    0.1072   35.6370 C   0  0  0  0  0  0  0  0  0  0  0  0
   18.1257    1.2714   35.3405 C   0  0  0  0  0  0  0  0  0  0  0  0
   17.4021    2.5107   34.8630 C   0  0  0  0  0  0  0  0  0  0  0  0
   14.1161    2.1828   35.9384 C   0  0  0  0  0  0  0  0  0  0  0  0
   13.6646    2.3103   37.3225 N   0  0  0  0  0  0  0  0  0  0  0  0
   14.1708    3.2380   38.1383 C   0  0  0  0  0  0  0  0  0  0  0  0
   15.0456    4.0236   37.7832 O   0  0  0  0  0  0  0  0  0  0  0  0
   13.6314    3.2966   39.5347 C   0  0  0  0  0  0  0  0  0  0  0  0
   12.5375    2.5902   39.9921 C   0  0  0  0  0  0  0  0  0  0  0  0
   12.0798    2.6707   41.2865 C   0  0  0  0  0  0  0  0  0  0  0  0
   12.7400    3.4891   42.1881 C   0  0  0  0  0  0  0  0  0  0  0  0
   13.8490    4.2013   41.7693 C   0  0  0  0  0  0  0  0  0  0  0  0
   14.2884    4.1033   40.4601 C   0  0  0  0  0  0  0  0  0  0  0  0
   12.2680    3.5804   43.6010 C   0  0  2  0  0  0  0  0  0  0  0  0
   11.8674    1.7808   39.1419 F   0  0  0  0  0  0  0  0  0  0  0  0
   11.7388    4.7617   43.8813 F   0  0  0  0  0  0  0  0  0  0  0  0
   13.2408    3.3957   44.4897 F   0  0  0  0  0  0  0  0  0  0  0  0
   11.3349    2.6801   43.8859 F   0  0  0  0  0  0  0  0  0  0  0  0
    8.6480   -0.9572   34.2032 H   0  0  0  0  0  0  0  0  0  0  0  0
    9.4302    0.0607   31.4583 H   0  0  0  0  0  0  0  0  0  0  0  0
   10.3665   -1.0900   32.5201 H   0  0  0  0  0  0  0  0  0  0  0  0
    8.2086   -2.5161   32.4788 H   0  0  0  0  0  0  0  0  0  0  0  0
    7.7737   -1.5361   31.0376 H   0  0  0  0  0  0  0  0  0  0  0  0
    9.2807   -2.5138   31.0376 H   0  0  0  0  0  0  0  0  0  0  0  0
    9.4290    1.8940   33.4713 H   0  0  0  0  0  0  0  0  0  0  0  0
    9.1802    1.1246   35.1267 H   0  0  0  0  0  0  0  0  0  0  0  0
   11.4204    2.3777   35.5401 H   0  0  0  0  0  0  0  0  0  0  0  0
   13.4029   -1.4219   33.0438 H   0  0  0  0  0  0  0  0  0  0  0  0
   10.9767   -0.9748   32.9009 H   0  0  0  0  0  0  0  0  0  0  0  0
   15.6345    1.5404   35.8588 H   0  0  0  0  0  0  0  0  0  0  0  0
   15.2869   -0.0596   36.5750 H   0  0  0  0  0  0  0  0  0  0  0  0
   17.5172   -0.3287   36.6002 H   0  0  0  0  0  0  0  0  0  0  0  0
   17.3172   -0.5901   34.7926 H   0  0  0  0  0  0  0  0  0  0  0  0
   18.6753    1.5236   36.2593 H   0  0  0  0  0  0  0  0  0  0  0  0
   18.7913    0.9555   34.5236 H   0  0  0  0  0  0  0  0  0  0  0  0
   17.0616    3.0939   35.7312 H   0  0  0  0  0  0  0  0  0  0  0  0
   18.0848    3.1227   34.2552 H   0  0  0  0  0  0  0  0  0  0  0  0
   16.5336    2.2169   34.2552 H   0  0  0  0  0  0  0  0  0  0  0  0
   15.1308    1.7579   35.9409 H   0  0  0  0  0  0  0  0  0  0  0  0
   14.0863    3.1887   35.4943 H   0  0  0  0  0  0  0  0  0  0  0  0
   12.9396    1.6701   37.6765 H   0  0  0  0  0  0  0  0  0  0  0  0
   11.1994    2.0917   41.6022 H   0  0  0  0  0  0  0  0  0  0  0  0
   14.3844    4.8485   42.4795 H   0  0  0  0  0  0  0  0  0  0  0  0
   15.1742    4.6741   40.1446 H   0  0  0  0  0  0  0  0  0  0  0  0
  1  3  1  0
  2  3  2  0
  3  4  1  0
  4  5  1  0
  4  7  1  0
  5  6  1  0
  7  8  1  0
  8  9  2  0
  8 13  1  0
  9 10  1  0
 10 11  2  0
 10 19  1  0
 11 12  1  0
 11 14  1  0
 12 13  2  0
 14 15  1  0
 15 16  1  0
 16 17  1  0
 17 18  1  0
 19 20  1  0
 20 21  1  0
 21 22  2  0
 21 23  1  0
 23 24  2  0
 23 28  1  0
 24 25  1  0
 24 30  1  0
 25 26  2  0
 26 27  1  0
 26 29  1  0
 27 28  2  0
 29 31  1  6
 29 32  1  0
 29 33  1  0
  4 34  1  1
  5 35  1  0
  5 36  1  0
  6 37  1  0
  6 38  1  0
  6 39  1  0
  7 40  1  0
  7 41  1  0
  9 42  1  0
 12 43  1  0
 13 44  1  0
 15 45  1  0
 15 46  1  0
 16 47  1  0
 16 48  1  0
 17 49  1  0
 17 50  1  0
 18 51  1  0
 18 52  1  0
 18 53  1  0
 19 54  1  0
 19 55  1  0
 20 56  1  0
 25 57  1  0
 27 58  1  0
 28 59  1  0
M  CHG  1   1  -1
M  END
>  <filename_input>  (12) 
7VWF_K55_docked.sdf

>  <pdb_id>  (12) 
7VWF_K55

>  <pose_rank>  (12) 
11

>  <num_atoms_heavy>  (12) 
33

>  <num_torsions>  (12) 
12

>  <pose>  (12) 
[11.029443611969576, 0.7175002968896342, 34.22357427140283, -0.2020830465916379, -1.31177425671747, 3.8795541385402412, 4.5550015809078275, 0.27842944612714005, 0.31974366116888436, 0.03557709060909252, 3.470426958091466, 0.20287875899123592, -3.270543169858927, 0.9422913378024355, 5.143242333400292, -0.13945714579903223, -6.758576110974495, 2.1491112660105283]

>  <energy>  (12) 
-596.6000593752743

>  <inter_energy>  (12) 
-746.7570824621029

>  <intra_energy>  (12) 
137.0131492763699

>  <rmsd>  (12) 
6.58231

>  <sdf_rank>  (12) 
0

$$$$

     RDKit          3D

 59 60  0  0  0  0  0  0  0  0999 V2000
   13.9694    4.9850   35.7372 O   0  0  0  0  0  0  0  0  0  0  0  0
   14.6588    6.7318   36.8859 O   0  0  0  0  0  0  0  0  0  0  0  0
   14.3939    6.1550   35.8086 C   0  0  0  0  0  0  0  0  0  0  0  0
   14.6460    6.9099   34.4962 C   0  0  1  0  0  0  0  0  0  0  0  0
   14.8231    8.4175   34.7355 C   0  0  0  0  0  0  0  0  0  0  0  0
   14.8621    9.2259   33.4509 C   0  0  0  0  0  0  0  0  0  0  0  0
   15.8602    6.2830   33.8020 C   0  0  0  0  0  0  0  0  0  0  0  0
   16.4983    5.1256   34.5310 C   0  0  0  0  0  0  0  0  0  0  0  0
   16.9477    5.2545   35.8454 C   0  0  0  0  0  0  0  0  0  0  0  0
   17.5653    4.2044   36.5227 C   0  0  0  0  0  0  0  0  0  0  0  0
   17.7382    2.9958   35.8418 C   0  0  0  0  0  0  0  0  0  0  0  0
   17.3146    2.8549   34.5323 C   0  0  0  0  0  0  0  0  0  0  0  0
   16.7029    3.9149   33.8913 C   0  0  0  0  0  0  0  0  0  0  0  0
   18.3705    2.0019   36.5357 O   0  0  0  0  0  0  0  0  0  0  0  0
   18.7744    0.8337   35.8100 C   0  0  0  0  0  0  0  0  0  0  0  0
   18.2936   -0.3776   36.5631 C   0  0  0  0  0  0  0  0  0  0  0  0
   18.2671   -1.6538   35.7593 C   0  0  0  0  0  0  0  0  0  0  0  0
   19.6255   -2.2950   35.5826 C   0  0  0  0  0  0  0  0  0  0  0  0
   18.0405    4.3565   37.9436 C   0  0  0  0  0  0  0  0  0  0  0  0
   17.0238    4.0184   38.9374 N   0  0  0  0  0  0  0  0  0  0  0  0
   16.0833    4.8943   39.2986 C   0  0  0  0  0  0  0  0  0  0  0  0
   16.0234    6.0291   38.8322 O   0  0  0  0  0  0  0  0  0  0  0  0
   15.0777    4.4467   40.3147 C   0  0  0  0  0  0  0  0  0  0  0  0
   13.8966    3.7935   40.0265 C   0  0  0  0  0  0  0  0  0  0  0  0
   13.0037    3.3954   40.9939 C   0  0  0  0  0  0  0  0  0  0  0  0
   13.2910    3.6480   42.3252 C   0  0  0  0  0  0  0  0  0  0  0  0
   14.4724    4.2879   42.6530 C   0  0  0  0  0  0  0  0  0  0  0  0
   15.3535    4.6793   41.6595 C   0  0  0  0  0  0  0  0  0  0  0  0
   12.3422    3.2123   43.3916 C   0  0  2  0  0  0  0  0  0  0  0  0
   13.5815    3.5291   38.7390 F   0  0  0  0  0  0  0  0  0  0  0  0
   11.2505    2.6488   42.8969 F   0  0  0  0  0  0  0  0  0  0  0  0
   11.9208    4.2152   44.1575 F   0  0  0  0  0  0  0  0  0  0  0  0
   12.8773    2.3204   44.2167 F   0  0  0  0  0  0  0  0  0  0  0  0
   13.7696    6.8153   33.8382 H   0  0  0  0  0  0  0  0  0  0  0  0
   13.9827    8.7754   35.3485 H   0  0  0  0  0  0  0  0  0  0  0  0
   15.7907    8.5574   35.2396 H   0  0  0  0  0  0  0  0  0  0  0  0
   14.9139   10.2976   33.6935 H   0  0  0  0  0  0  0  0  0  0  0  0
   15.7475    8.9396   32.8642 H   0  0  0  0  0  0  0  0  0  0  0  0
   13.9533    9.0263   32.8642 H   0  0  0  0  0  0  0  0  0  0  0  0
   15.5379    5.9247   32.8132 H   0  0  0  0  0  0  0  0  0  0  0  0
   16.6251    7.0723   33.7594 H   0  0  0  0  0  0  0  0  0  0  0  0
   16.8103    6.2150   36.3636 H   0  0  0  0  0  0  0  0  0  0  0  0
   17.4645    1.9022   34.0033 H   0  0  0  0  0  0  0  0  0  0  0  0
   16.3709    3.7942   32.8496 H   0  0  0  0  0  0  0  0  0  0  0  0
   18.3292    0.8478   34.8042 H   0  0  0  0  0  0  0  0  0  0  0  0
   19.8695    0.8087   35.7095 H   0  0  0  0  0  0  0  0  0  0  0  0
   18.9589   -0.5303   37.4257 H   0  0  0  0  0  0  0  0  0  0  0  0
   17.2518   -0.1705   36.8492 H   0  0  0  0  0  0  0  0  0  0  0  0
   17.6092   -2.3717   36.2709 H   0  0  0  0  0  0  0  0  0  0  0  0
   17.9049   -1.3909   34.7545 H   0  0  0  0  0  0  0  0  0  0  0  0
   20.0644   -2.5021   36.5697 H   0  0  0  0  0  0  0  0  0  0  0  0
   19.5167   -3.2368   35.0248 H   0  0  0  0  0  0  0  0  0  0  0  0
   20.2834   -1.6123   35.0248 H   0  0  0  0  0  0  0  0  0  0  0  0
   18.9072    3.6960   38.0935 H   0  0  0  0  0  0  0  0  0  0  0  0
   18.2943    5.4170   38.0882 H   0  0  0  0  0  0  0  0  0  0  0  0
   17.0330    3.0831   39.3689 H   0  0  0  0  0  0  0  0  0  0  0  0
   12.0719    2.8823   40.7136 H   0  0  0  0  0  0  0  0  0  0  0  0
   14.7130    4.4867   43.7078 H   0  0  0  0  0  0  0  0  0  0  0  0
   16.2903    5.1842   41.9382 H   0  0  0  0  0  0  0  0  0  0  0  0
  1  3  1  0
  2  3  2  0
  3  4  1  0
  4  5  1  0
  4  7  1  0
  5  6  1  0
  7  8  1  0
  8  9  2  0
  8 13  1  0
  9 10  1  0
 10 11  2  0
 10 19  1  0
 11 12  1  0
 11 14  1  0
 12 13  2  0
 14 15  1  0
 15 16  1  0
 16 17  1  0
 17 18  1  0
 19 20  1  0
 20 21  1  0
 21 22  2  0
 21 23  1  0
 23 24  2  0
 23 28  1  0
 24 25  1  0
 24 30  1  0
 25 26  2  0
 26 27  1  0
 26 29  1  0
 27 28  2  0
 29 31  1  6
 29 32  1  0
 29 33  1  0
  4 34  1  6
  5 35  1  0
  5 36  1  0
  6 37  1  0
  6 38  1  0
  6 39  1  0
  7 40  1  0
  7 41  1  0
  9 42  1  0
 12 43  1  0
 13 44  1  0
 15 45  1  0
 15 46  1  0
 16 47  1  0
 16 48  1  0
 17 49  1  0
 17 50  1  0
 18 51  1  0
 18 52  1  0
 18 53  1  0
 19 54  1  0
 19 55  1  0
 20 56  1  0
 25 57  1  0
 27 58  1  0
 28 59  1  0
M  CHG  1   1  -1
M  END
>  <filename_input>  (13) 
7VWF_K55_docked.sdf

>  <pdb_id>  (13) 
7VWF_K55

>  <pose_rank>  (13) 
12

>  <num_atoms_heavy>  (13) 
33

>  <num_torsions>  (13) 
12

>  <pose>  (13) 
[16.498316768222, 5.12559793241894, 34.53098417960931, 1.2057085517606312, 0.4597309584147031, -2.3814300092913774, 0.21540128537977885, 3.2321926660927978, 0.37601363986919134, -1.8733984809224886, -0.019574692930221918, 1.117194231207742, -2.21632417170701, 2.5380176323695687, -0.5306540170264978, 1.348702423942364, 4.432416770862713, -2.2470236974425872]

>  <energy>  (13) 
-624.0000790154394

>  <inter_energy>  (13) 
-744.9568051554405

>  <intra_energy>  (13) 
118.16873952097215

>  <rmsd>  (13) 
6.04512

>  <sdf_rank>  (13) 
0

$$$$

     RDKit          3D

 59 60  0  0  0  0  0  0  0  0999 V2000
   12.7895    5.5835   40.9563 O   0  0  0  0  0  0  0  0  0  0  0  0
   14.8896    4.9357   40.8309 O   0  0  0  0  0  0  0  0  0  0  0  0
   13.7119    4.7890   41.2245 C   0  0  0  0  0  0  0  0  0  0  0  0
   13.3884    3.5891   42.1254 C   0  0  1  0  0  0  0  0  0  0  0  0
   12.0042    3.7285   42.7782 C   0  0  0  0  0  0  0  0  0  0  0  0
   12.0715    4.1181   44.2441 C   0  0  0  0  0  0  0  0  0  0  0  0
   13.5140    2.3092   41.2916 C   0  0  0  0  0  0  0  0  0  0  0  0
   12.9280    2.3798   39.9025 C   0  0  0  0  0  0  0  0  0  0  0  0
   13.7324    2.6089   38.7860 C   0  0  0  0  0  0  0  0  0  0  0  0
   13.2035    2.7058   37.5001 C   0  0  0  0  0  0  0  0  0  0  0  0
   11.8200    2.5755   37.3480 C   0  0  0  0  0  0  0  0  0  0  0  0
   11.0045    2.3654   38.4456 C   0  0  0  0  0  0  0  0  0  0  0  0
   11.5618    2.2708   39.7062 C   0  0  0  0  0  0  0  0  0  0  0  0
   11.3425    2.7021   36.0732 O   0  0  0  0  0  0  0  0  0  0  0  0
   10.1124    2.0400   35.7521 C   0  0  0  0  0  0  0  0  0  0  0  0
   10.4006    0.9907   34.7122 C   0  0  0  0  0  0  0  0  0  0  0  0
    9.4934    1.0269   33.5075 C   0  0  0  0  0  0  0  0  0  0  0  0
    8.7338   -0.2599   33.2736 C   0  0  0  0  0  0  0  0  0  0  0  0
   14.0850    2.9480   36.3033 C   0  0  0  0  0  0  0  0  0  0  0  0
   15.2355    2.0493   36.2356 N   0  0  0  0  0  0  0  0  0  0  0  0
   15.3200    1.0937   35.3072 C   0  0  0  0  0  0  0  0  0  0  0  0
   14.4403    0.9056   34.4709 O   0  0  0  0  0  0  0  0  0  0  0  0
   16.5463    0.2333   35.3129 C   0  0  0  0  0  0  0  0  0  0  0  0
   17.5054    0.2270   36.3053 C   0  0  0  0  0  0  0  0  0  0  0  0
   18.6149   -0.5852   36.2717 C   0  0  0  0  0  0  0  0  0  0  0  0
   18.7898   -1.4480   35.2023 C   0  0  0  0  0  0  0  0  0  0  0  0
   17.8417   -1.4795   34.1960 C   0  0  0  0  0  0  0  0  0  0  0  0
   16.7344   -0.6505   34.2535 C   0  0  0  0  0  0  0  0  0  0  0  0
   19.9797   -2.3475   35.1530 C   0  0  2  0  0  0  0  0  0  0  0  0
   17.3693    1.0549   37.3650 F   0  0  0  0  0  0  0  0  0  0  0  0
   20.1649   -3.0027   36.2889 F   0  0  0  0  0  0  0  0  0  0  0  0
   21.1163   -1.6977   34.9165 F   0  0  0  0  0  0  0  0  0  0  0  0
   19.8812   -3.2715   34.2048 F   0  0  0  0  0  0  0  0  0  0  0  0
   14.1056    3.5451   42.9583 H   0  0  0  0  0  0  0  0  0  0  0  0
   11.4383    4.5008   42.2366 H   0  0  0  0  0  0  0  0  0  0  0  0
   11.5160    2.7443   42.7233 H   0  0  0  0  0  0  0  0  0  0  0  0
   11.9174    3.2255   44.8682 H   0  0  0  0  0  0  0  0  0  0  0  0
   13.0579    4.5529   44.4631 H   0  0  0  0  0  0  0  0  0  0  0  0
   11.2878    4.8583   44.4631 H   0  0  0  0  0  0  0  0  0  0  0  0
   14.5834    2.0699   41.1968 H   0  0  0  0  0  0  0  0  0  0  0  0
   12.9341    1.5422   41.8259 H   0  0  0  0  0  0  0  0  0  0  0  0
   14.8183    2.7165   38.9249 H   0  0  0  0  0  0  0  0  0  0  0  0
    9.9161    2.2738   38.3151 H   0  0  0  0  0  0  0  0  0  0  0  0
   10.9054    2.1053   40.5733 H   0  0  0  0  0  0  0  0  0  0  0  0
    9.6981    1.5662   36.6543 H   0  0  0  0  0  0  0  0  0  0  0  0
    9.3799    2.7649   35.3676 H   0  0  0  0  0  0  0  0  0  0  0  0
   11.4354    1.1279   34.3654 H   0  0  0  0  0  0  0  0  0  0  0  0
   10.2307    0.0186   35.1983 H   0  0  0  0  0  0  0  0  0  0  0  0
    8.7645    1.8389   33.6471 H   0  0  0  0  0  0  0  0  0  0  0  0
   10.1359    1.1828   32.6284 H   0  0  0  0  0  0  0  0  0  0  0  0
    8.4681   -0.7100   34.2415 H   0  0  0  0  0  0  0  0  0  0  0  0
    7.8170   -0.0463   32.7046 H   0  0  0  0  0  0  0  0  0  0  0  0
    9.3639   -0.9594   32.7046 H   0  0  0  0  0  0  0  0  0  0  0  0
   13.4823    2.8112   35.3934 H   0  0  0  0  0  0  0  0  0  0  0  0
   14.4785    3.9713   36.3930 H   0  0  0  0  0  0  0  0  0  0  0  0
   15.9983    2.1556   36.9195 H   0  0  0  0  0  0  0  0  0  0  0  0
   19.3549   -0.5499   37.0848 H   0  0  0  0  0  0  0  0  0  0  0  0
   17.9680   -2.1662   33.3460 H   0  0  0  0  0  0  0  0  0  0  0  0
   15.9884   -0.6908   33.4462 H   0  0  0  0  0  0  0  0  0  0  0  0
  1  3  1  0
  2  3  2  0
  3  4  1  0
  4  5  1  0
  4  7  1  0
  5  6  1  0
  7  8  1  0
  8  9  2  0
  8 13  1  0
  9 10  1  0
 10 11  2  0
 10 19  1  0
 11 12  1  0
 11 14  1  0
 12 13  2  0
 14 15  1  0
 15 16  1  0
 16 17  1  0
 17 18  1  0
 19 20  1  0
 20 21  1  0
 21 22  2  0
 21 23  1  0
 23 24  2  0
 23 28  1  0
 24 25  1  0
 24 30  1  0
 25 26  2  0
 26 27  1  0
 26 29  1  0
 27 28  2  0
 29 31  1  1
 29 32  1  0
 29 33  1  0
  4 34  1  1
  5 35  1  0
  5 36  1  0
  6 37  1  0
  6 38  1  0
  6 39  1  0
  7 40  1  0
  7 41  1  0
  9 42  1  0
 12 43  1  0
 13 44  1  0
 15 45  1  0
 15 46  1  0
 16 47  1  0
 16 48  1  0
 17 49  1  0
 17 50  1  0
 18 51  1  0
 18 52  1  0
 18 53  1  0
 19 54  1  0
 19 55  1  0
 20 56  1  0
 25 57  1  0
 27 58  1  0
 28 59  1  0
M  CHG  1   1  -1
M  END
>  <filename_input>  (14) 
7VWF_K55_docked.sdf

>  <pdb_id>  (14) 
7VWF_K55

>  <pose_rank>  (14) 
13

>  <num_atoms_heavy>  (14) 
33

>  <num_torsions>  (14) 
12

>  <pose>  (14) 
[12.927968112127138, 2.379773590304792, 39.90247901527878, 1.1548811780490742, -2.081212217963724, 1.3258180431162299, 2.919227312916463, 2.489661597666984, -2.7150744185188214, -0.7068743648551098, -6.947325352607355, 13.9380005335868, -7.322695305017683, -0.9420053398169721, -7.504049844724591, 10.981097720098617, -0.15545824202236774, -1.3512622745052636]

>  <energy>  (14) 
-700.8645516766219

>  <inter_energy>  (14) 
-720.4609021114604

>  <intra_energy>  (14) 
33.43099946312806

>  <rmsd>  (14) 
8.94976

>  <sdf_rank>  (14) 
0

$$$$

     RDKit          3D

 59 60  0  0  0  0  0  0  0  0999 V2000
   15.9876    5.7694   34.4384 O   0  0  0  0  0  0  0  0  0  0  0  0
   17.3973    7.1820   35.3676 O   0  0  0  0  0  0  0  0  0  0  0  0
   16.7583    6.1073   35.3582 C   0  0  0  0  0  0  0  0  0  0  0  0
   16.8926    5.1686   36.5652 C   0  0  1  0  0  0  0  0  0  0  0  0
   15.5694    5.0466   37.3372 C   0  0  0  0  0  0  0  0  0  0  0  0
   15.7628    4.9177   38.8376 C   0  0  0  0  0  0  0  0  0  0  0  0
   17.4060    3.8122   36.0695 C   0  0  0  0  0  0  0  0  0  0  0  0
   16.3513    2.8772   35.5297 C   0  0  0  0  0  0  0  0  0  0  0  0
   15.1261    2.7139   36.1766 C   0  0  0  0  0  0  0  0  0  0  0  0
   14.1532    1.8329   35.7074 C   0  0  0  0  0  0  0  0  0  0  0  0
   14.4383    1.0927   34.5563 C   0  0  0  0  0  0  0  0  0  0  0  0
   15.6546    1.2285   33.9114 C   0  0  0  0  0  0  0  0  0  0  0  0
   16.5958    2.1135   34.4011 C   0  0  0  0  0  0  0  0  0  0  0  0
   13.4659    0.2233   34.1465 O   0  0  0  0  0  0  0  0  0  0  0  0
   12.2518    0.7777   33.6239 C   0  0  0  0  0  0  0  0  0  0  0  0
   11.0959    0.0018   34.1963 C   0  0  0  0  0  0  0  0  0  0  0  0
    9.7444    0.3774   33.6415 C   0  0  0  0  0  0  0  0  0  0  0  0
    8.5829   -0.0788   34.4961 C   0  0  0  0  0  0  0  0  0  0  0  0
   12.8327    1.6711   36.4133 C   0  0  0  0  0  0  0  0  0  0  0  0
   12.8866    2.0076   37.8344 N   0  0  0  0  0  0  0  0  0  0  0  0
   11.7790    2.0794   38.5763 C   0  0  0  0  0  0  0  0  0  0  0  0
   10.6591    1.8817   38.1122 O   0  0  0  0  0  0  0  0  0  0  0  0
   11.9413    2.4177   40.0266 C   0  0  0  0  0  0  0  0  0  0  0  0
   11.0559    2.0679   41.0259 C   0  0  0  0  0  0  0  0  0  0  0  0
   11.2482    2.3958   42.3477 C   0  0  0  0  0  0  0  0  0  0  0  0
   12.3816    3.1042   42.7112 C   0  0  0  0  0  0  0  0  0  0  0  0
   13.2985    3.4597   41.7388 C   0  0  0  0  0  0  0  0  0  0  0  0
   13.0802    3.1182   40.4150 C   0  0  0  0  0  0  0  0  0  0  0  0
   12.6163    3.4583   44.1419 C   0  0  2  0  0  0  0  0  0  0  0  0
    9.9386    1.3759   40.7102 F   0  0  0  0  0  0  0  0  0  0  0  0
   13.4993    2.6594   44.7217 F   0  0  0  0  0  0  0  0  0  0  0  0
   11.5152    3.3864   44.8852 F   0  0  0  0  0  0  0  0  0  0  0  0
   13.0802    4.6931   44.2919 F   0  0  0  0  0  0  0  0  0  0  0  0
   17.6162    5.5848   37.2815 H   0  0  0  0  0  0  0  0  0  0  0  0
   14.9645    5.9435   37.1382 H   0  0  0  0  0  0  0  0  0  0  0  0
   15.0724    4.1283   36.9913 H   0  0  0  0  0  0  0  0  0  0  0  0
   14.9566    5.4549   39.3586 H   0  0  0  0  0  0  0  0  0  0  0  0
   15.7379    3.8551   39.1206 H   0  0  0  0  0  0  0  0  0  0  0  0
   16.7340    5.3499   39.1206 H   0  0  0  0  0  0  0  0  0  0  0  0
   18.1363    3.9983   35.2683 H   0  0  0  0  0  0  0  0  0  0  0  0
   17.8330    3.3103   36.9503 H   0  0  0  0  0  0  0  0  0  0  0  0
   14.9214    3.2988   37.0854 H   0  0  0  0  0  0  0  0  0  0  0  0
   15.8717    0.6339   33.0118 H   0  0  0  0  0  0  0  0  0  0  0  0
   17.5608    2.2136   33.8827 H   0  0  0  0  0  0  0  0  0  0  0  0
   12.1703    1.8356   33.9142 H   0  0  0  0  0  0  0  0  0  0  0  0
   12.2463    0.7128   32.5259 H   0  0  0  0  0  0  0  0  0  0  0  0
   11.2653   -1.0655   33.9911 H   0  0  0  0  0  0  0  0  0  0  0  0
   11.0661    0.2384   35.2701 H   0  0  0  0  0  0  0  0  0  0  0  0
    9.6990    1.4728   33.5517 H   0  0  0  0  0  0  0  0  0  0  0  0
    9.6453   -0.1303   32.6707 H   0  0  0  0  0  0  0  0  0  0  0  0
    8.8468    0.0248   35.5590 H   0  0  0  0  0  0  0  0  0  0  0  0
    7.7002    0.5394   34.2755 H   0  0  0  0  0  0  0  0  0  0  0  0
    8.3569   -1.1325   34.2755 H   0  0  0  0  0  0  0  0  0  0  0  0
   12.0956    2.3275   35.9277 H   0  0  0  0  0  0  0  0  0  0  0  0
   12.5559    0.6089   36.3424 H   0  0  0  0  0  0  0  0  0  0  0  0
   13.7995    2.1934   38.2735 H   0  0  0  0  0  0  0  0  0  0  0  0
   10.5103    2.0988   43.1075 H   0  0  0  0  0  0  0  0  0  0  0  0
   14.2051    4.0162   42.0184 H   0  0  0  0  0  0  0  0  0  0  0  0
   13.8214    3.4060   39.6549 H   0  0  0  0  0  0  0  0  0  0  0  0
  1  3  1  0
  2  3  2  0
  3  4  1  0
  4  5  1  0
  4  7  1  0
  5  6  1  0
  7  8  1  0
  8  9  2  0
  8 13  1  0
  9 10  1  0
 10 11  2  0
 10 19  1  0
 11 12  1  0
 11 14  1  0
 12 13  2  0
 14 15  1  0
 15 16  1  0
 16 17  1  0
 17 18  1  0
 19 20  1  0
 20 21  1  0
 21 22  2  0
 21 23  1  0
 23 24  2  0
 23 28  1  0
 24 25  1  0
 24 30  1  0
 25 26  2  0
 26 27  1  0
 26 29  1  0
 27 28  2  0
 29 31  1  1
 29 32  1  0
 29 33  1  0
  4 34  1  1
  5 35  1  0
  5 36  1  0
  6 37  1  0
  6 38  1  0
  6 39  1  0
  7 40  1  0
  7 41  1  0
  9 42  1  0
 12 43  1  0
 13 44  1  0
 15 45  1  0
 15 46  1  0
 16 47  1  0
 16 48  1  0
 17 49  1  0
 17 50  1  0
 18 51  1  0
 18 52  1  0
 18 53  1  0
 19 54  1  0
 19 55  1  0
 20 56  1  0
 25 57  1  0
 27 58  1  0
 28 59  1  0
M  CHG  1   1  -1
M  END
>  <filename_input>  (15) 
7VWF_K55_docked.sdf

>  <pdb_id>  (15) 
7VWF_K55

>  <pose_rank>  (15) 
14

>  <num_atoms_heavy>  (15) 
33

>  <num_torsions>  (15) 
12

>  <pose>  (15) 
[16.351293722139477, 2.87715408197902, 35.52973170878857, 3.4528534563237097, 0.10899017820159872, -1.4533122458342922, 0.4400639002825584, 8.061309554564048, 2.6422652349501567, -1.406383771991011, -2.136450182499456, 1.0041267539577543, -1.8176931853038152, -1.6517671522275663, -8.812290023436608, -0.5069539281859726, -3.0175421930037234, 5.854667412224789]

>  <energy>  (15) 
-629.0092993525318

>  <inter_energy>  (15) 
-704.1307457895565

>  <intra_energy>  (15) 
85.46843867907005

>  <rmsd>  (15) 
5.17072

>  <sdf_rank>  (15) 
0

$$$$

     RDKit          3D

 59 60  0  0  0  0  0  0  0  0999 V2000
    9.9801    1.7272   34.7679 O   0  0  0  0  0  0  0  0  0  0  0  0
    8.5635    0.1169   35.2637 O   0  0  0  0  0  0  0  0  0  0  0  0
    9.0093    1.2762   35.4068 C   0  0  0  0  0  0  0  0  0  0  0  0
    8.3564    2.1838   36.4585 C   0  0  1  0  0  0  0  0  0  0  0  0
    6.8236    2.0787   36.4235 C   0  0  0  0  0  0  0  0  0  0  0  0
    6.2050    2.7651   35.2187 C   0  0  0  0  0  0  0  0  0  0  0  0
    8.9343    1.8271   37.8325 C   0  0  0  0  0  0  0  0  0  0  0  0
   10.3311    2.3327   38.1000 C   0  0  0  0  0  0  0  0  0  0  0  0
   11.2323    2.5605   37.0598 C   0  0  0  0  0  0  0  0  0  0  0  0
   12.5347    2.9994   37.2918 C   0  0  0  0  0  0  0  0  0  0  0  0
   12.9326    3.2026   38.6164 C   0  0  0  0  0  0  0  0  0  0  0  0
   12.0581    2.9652   39.6619 C   0  0  0  0  0  0  0  0  0  0  0  0
   10.7727    2.5338   39.3966 C   0  0  0  0  0  0  0  0  0  0  0  0
   14.2252    3.6089   38.7985 O   0  0  0  0  0  0  0  0  0  0  0  0
   14.5314    4.3485   39.9875 C   0  0  0  0  0  0  0  0  0  0  0  0
   15.3942    5.5205   39.6035 C   0  0  0  0  0  0  0  0  0  0  0  0
   15.2108    6.0045   38.1865 C   0  0  0  0  0  0  0  0  0  0  0  0
   16.5089    6.2555   37.4520 C   0  0  0  0  0  0  0  0  0  0  0  0
   13.4950    3.2464   36.1583 C   0  0  0  0  0  0  0  0  0  0  0  0
   14.5892    2.2793   36.1004 N   0  0  0  0  0  0  0  0  0  0  0  0
   15.8287    2.6480   35.7690 C   0  0  0  0  0  0  0  0  0  0  0  0
   16.1192    3.8069   35.4838 O   0  0  0  0  0  0  0  0  0  0  0  0
   16.8833    1.5842   35.7521 C   0  0  0  0  0  0  0  0  0  0  0  0
   18.2098    1.7779   36.0804 C   0  0  0  0  0  0  0  0  0  0  0  0
   19.1441    0.7688   36.0559 C   0  0  0  0  0  0  0  0  0  0  0  0
   18.7509   -0.5089   35.6937 C   0  0  0  0  0  0  0  0  0  0  0  0
   17.4265   -0.7438   35.3719 C   0  0  0  0  0  0  0  0  0  0  0  0
   16.5062    0.2900   35.4034 C   0  0  0  0  0  0  0  0  0  0  0  0
   19.7459   -1.6211   35.6738 C   0  0  2  0  0  0  0  0  0  0  0  0
   18.6314    3.0109   36.4393 F   0  0  0  0  0  0  0  0  0  0  0  0
   20.9490   -1.2294   36.0650 F   0  0  0  0  0  0  0  0  0  0  0  0
   19.9099   -2.1537   34.4657 F   0  0  0  0  0  0  0  0  0  0  0  0
   19.4052   -2.6242   36.4739 F   0  0  0  0  0  0  0  0  0  0  0  0
    8.5863    3.2363   36.2362 H   0  0  0  0  0  0  0  0  0  0  0  0
    6.5465    1.0145   36.4003 H   0  0  0  0  0  0  0  0  0  0  0  0
    6.4404    2.5856   37.3214 H   0  0  0  0  0  0  0  0  0  0  0  0
    5.5047    3.5421   35.5589 H   0  0  0  0  0  0  0  0  0  0  0  0
    6.9983    3.2265   34.6122 H   0  0  0  0  0  0  0  0  0  0  0  0
    5.6640    2.0239   34.6122 H   0  0  0  0  0  0  0  0  0  0  0  0
    8.2684    2.2481   38.6001 H   0  0  0  0  0  0  0  0  0  0  0  0
    9.0002    0.7293   37.8571 H   0  0  0  0  0  0  0  0  0  0  0  0
   10.9048    2.3884   36.0239 H   0  0  0  0  0  0  0  0  0  0  0  0
   12.3852    3.1193   40.7007 H   0  0  0  0  0  0  0  0  0  0  0  0
   10.0849    2.3460   40.2343 H   0  0  0  0  0  0  0  0  0  0  0  0
   13.6014    4.7074   40.4527 H   0  0  0  0  0  0  0  0  0  0  0  0
   15.0603    3.7074   40.7081 H   0  0  0  0  0  0  0  0  0  0  0  0
   15.1610    6.3539   40.2825 H   0  0  0  0  0  0  0  0  0  0  0  0
   16.4360    5.1760   39.6803 H   0  0  0  0  0  0  0  0  0  0  0  0
   14.6404    5.2448   37.6320 H   0  0  0  0  0  0  0  0  0  0  0  0
   14.6848    6.9689   38.2440 H   0  0  0  0  0  0  0  0  0  0  0  0
   17.3181    6.4120   38.1805 H   0  0  0  0  0  0  0  0  0  0  0  0
   16.7469    5.3868   36.8206 H   0  0  0  0  0  0  0  0  0  0  0  0
   16.4059    7.1504   36.8206 H   0  0  0  0  0  0  0  0  0  0  0  0
   12.9366    3.1975   35.2119 H   0  0  0  0  0  0  0  0  0  0  0  0
   13.9459    4.2357   36.3259 H   0  0  0  0  0  0  0  0  0  0  0  0
   14.3997    1.2910   36.3202 H   0  0  0  0  0  0  0  0  0  0  0  0
   20.1917    0.9743   36.3210 H   0  0  0  0  0  0  0  0  0  0  0  0
   17.1029   -1.7566   35.0898 H   0  0  0  0  0  0  0  0  0  0  0  0
   15.4562    0.0849   35.1477 H   0  0  0  0  0  0  0  0  0  0  0  0
  1  3  1  0
  2  3  2  0
  3  4  1  0
  4  5  1  0
  4  7  1  0
  5  6  1  0
  7  8  1  0
  8  9  2  0
  8 13  1  0
  9 10  1  0
 10 11  2  0
 10 19  1  0
 11 12  1  0
 11 14  1  0
 12 13  2  0
 14 15  1  0
 15 16  1  0
 16 17  1  0
 17 18  1  0
 19 20  1  0
 20 21  1  0
 21 22  2  0
 21 23  1  0
 23 24  2  0
 23 28  1  0
 24 25  1  0
 24 30  1  0
 25 26  2  0
 26 27  1  0
 26 29  1  0
 27 28  2  0
 29 31  1  1
 29 32  1  0
 29 33  1  0
  4 34  1  6
  5 35  1  0
  5 36  1  0
  6 37  1  0
  6 38  1  0
  6 39  1  0
  7 40  1  0
  7 41  1  0
  9 42  1  0
 12 43  1  0
 13 44  1  0
 15 45  1  0
 15 46  1  0
 16 47  1  0
 16 48  1  0
 17 49  1  0
 17 50  1  0
 18 51  1  0
 18 52  1  0
 18 53  1  0
 19 54  1  0
 19 55  1  0
 20 56  1  0
 25 57  1  0
 27 58  1  0
 28 59  1  0
M  CHG  1   1  -1
M  END
>  <filename_input>  (16) 
7VWF_K55_docked.sdf

>  <pdb_id>  (16) 
7VWF_K55

>  <pose_rank>  (16) 
15

>  <num_atoms_heavy>  (16) 
33

>  <num_torsions>  (16) 
12

>  <pose>  (16) 
[10.331050327407384, 2.3326919542338613, 38.09997239727579, 1.2049492836030384, 2.561788440680333, 2.3269994503142972, 0.7173796273093856, -1.7275844500821953, -0.09686668329831104, -0.16199289311620288, -0.649490904051136, 1.0391876701956215, 1.6915513009628245, -1.157567531687493, -4.018480193325502, 0.30198135629471584, -2.8803009539598174, -2.1695366345251688]

>  <energy>  (16) 
-652.931005619417

>  <inter_energy>  (16) 
-694.695241096817

>  <intra_energy>  (16) 
57.934242994150665

>  <rmsd>  (16) 
8.55142

>  <sdf_rank>  (16) 
0

$$$$

     RDKit          3D

 59 60  0  0  0  0  0  0  0  0999 V2000
   11.8639    1.0912   41.2869 O   0  0  0  0  0  0  0  0  0  0  0  0
   11.5949    2.6301   39.7360 O   0  0  0  0  0  0  0  0  0  0  0  0
   11.7717    2.2801   40.9232 C   0  0  0  0  0  0  0  0  0  0  0  0
   11.8348    3.3693   42.0028 C   0  0  1  0  0  0  0  0  0  0  0  0
   12.8349    3.0090   43.1126 C   0  0  0  0  0  0  0  0  0  0  0  0
   12.7997    3.9733   44.2848 C   0  0  0  0  0  0  0  0  0  0  0  0
   12.1696    4.7032   41.3264 C   0  0  0  0  0  0  0  0  0  0  0  0
   13.5475    4.7939   40.7171 C   0  0  0  0  0  0  0  0  0  0  0  0
   13.7446    4.6519   39.3433 C   0  0  0  0  0  0  0  0  0  0  0  0
   15.0132    4.7039   38.7684 C   0  0  0  0  0  0  0  0  0  0  0  0
   16.1097    4.8959   39.6141 C   0  0  0  0  0  0  0  0  0  0  0  0
   15.9352    5.0213   40.9808 C   0  0  0  0  0  0  0  0  0  0  0  0
   14.6634    4.9686   41.5178 C   0  0  0  0  0  0  0  0  0  0  0  0
   17.3362    4.9155   39.0105 O   0  0  0  0  0  0  0  0  0  0  0  0
   18.2098    3.8020   39.2373 C   0  0  0  0  0  0  0  0  0  0  0  0
   18.5946    3.7947   40.6924 C   0  0  0  0  0  0  0  0  0  0  0  0
   19.9287    3.1574   40.9916 C   0  0  0  0  0  0  0  0  0  0  0  0
   20.5721    3.6528   42.2676 C   0  0  0  0  0  0  0  0  0  0  0  0
   15.2101    4.5544   37.2829 C   0  0  0  0  0  0  0  0  0  0  0  0
   15.9004    3.3221   36.9077 N   0  0  0  0  0  0  0  0  0  0  0  0
   16.9874    3.3400   36.1329 C   0  0  0  0  0  0  0  0  0  0  0  0
   17.4609    4.3803   35.6831 O   0  0  0  0  0  0  0  0  0  0  0  0
   17.6307    2.0246   35.8167 C   0  0  0  0  0  0  0  0  0  0  0  0
   18.9691    1.8450   35.5320 C   0  0  0  0  0  0  0  0  0  0  0  0
   19.5186    0.6155   35.2521 C   0  0  0  0  0  0  0  0  0  0  0  0
   18.7060   -0.5062   35.2587 C   0  0  0  0  0  0  0  0  0  0  0  0
   17.3621   -0.3667   35.5538 C   0  0  0  0  0  0  0  0  0  0  0  0
   16.8340    0.8827   35.8308 C   0  0  0  0  0  0  0  0  0  0  0  0
   19.2846   -1.8515   34.9711 C   0  0  2  0  0  0  0  0  0  0  0  0
   19.7938    2.9158   35.5164 F   0  0  0  0  0  0  0  0  0  0  0  0
   19.5086   -2.0393   33.6794 F   0  0  0  0  0  0  0  0  0  0  0  0
   18.4960   -2.8521   35.3544 F   0  0  0  0  0  0  0  0  0  0  0  0
   20.4478   -2.0469   35.5804 F   0  0  0  0  0  0  0  0  0  0  0  0
   10.8580    3.4563   42.5011 H   0  0  0  0  0  0  0  0  0  0  0  0
   12.5986    2.0003   43.4823 H   0  0  0  0  0  0  0  0  0  0  0  0
   13.8426    3.0628   42.6749 H   0  0  0  0  0  0  0  0  0  0  0  0
   12.8204    3.4060   45.2270 H   0  0  0  0  0  0  0  0  0  0  0  0
   13.6741    4.6391   44.2383 H   0  0  0  0  0  0  0  0  0  0  0  0
   11.8790    4.5734   44.2383 H   0  0  0  0  0  0  0  0  0  0  0  0
   11.4334    4.8721   40.5267 H   0  0  0  0  0  0  0  0  0  0  0  0
   12.1405    5.4617   42.1226 H   0  0  0  0  0  0  0  0  0  0  0  0
   12.8713    4.4939   38.6934 H   0  0  0  0  0  0  0  0  0  0  0  0
   16.8062    5.1626   41.6376 H   0  0  0  0  0  0  0  0  0  0  0  0
   14.5345    5.0676   42.6057 H   0  0  0  0  0  0  0  0  0  0  0  0
   17.6921    2.8650   38.9843 H   0  0  0  0  0  0  0  0  0  0  0  0
   19.1074    3.8889   38.6074 H   0  0  0  0  0  0  0  0  0  0  0  0
   18.6272    4.8369   41.0428 H   0  0  0  0  0  0  0  0  0  0  0  0
   17.8381    3.1860   41.2093 H   0  0  0  0  0  0  0  0  0  0  0  0
   19.7820    2.0705   41.0770 H   0  0  0  0  0  0  0  0  0  0  0  0
   20.6044    3.4287   40.1670 H   0  0  0  0  0  0  0  0  0  0  0  0
   20.0348    3.2391   43.1337 H   0  0  0  0  0  0  0  0  0  0  0  0
   21.6227    3.3282   42.2986 H   0  0  0  0  0  0  0  0  0  0  0  0
   20.5267    4.7514   42.2986 H   0  0  0  0  0  0  0  0  0  0  0  0
   14.2227    4.5618   36.7982 H   0  0  0  0  0  0  0  0  0  0  0  0
   15.8423    5.3924   36.9542 H   0  0  0  0  0  0  0  0  0  0  0  0
   15.5401    2.4194   37.2486 H   0  0  0  0  0  0  0  0  0  0  0  0
   20.5911    0.5241   35.0255 H   0  0  0  0  0  0  0  0  0  0  0  0
   16.7099   -1.2523   35.5685 H   0  0  0  0  0  0  0  0  0  0  0  0
   15.7636    0.9752   36.0668 H   0  0  0  0  0  0  0  0  0  0  0  0
  1  3  1  0
  2  3  2  0
  3  4  1  0
  4  5  1  0
  4  7  1  0
  5  6  1  0
  7  8  1  0
  8  9  2  0
  8 13  1  0
  9 10  1  0
 10 11  2  0
 10 19  1  0
 11 12  1  0
 11 14  1  0
 12 13  2  0
 14 15  1  0
 15 16  1  0
 16 17  1  0
 17 18  1  0
 19 20  1  0
 20 21  1  0
 21 22  2  0
 21 23  1  0
 23 24  2  0
 23 28  1  0
 24 25  1  0
 24 30  1  0
 25 26  2  0
 26 27  1  0
 26 29  1  0
 27 28  2  0
 29 31  1  6
 29 32  1  0
 29 33  1  0
  4 34  1  1
  5 35  1  0
  5 36  1  0
  6 37  1  0
  6 38  1  0
  6 39  1  0
  7 40  1  0
  7 41  1  0
  9 42  1  0
 12 43  1  0
 13 44  1  0
 15 45  1  0
 15 46  1  0
 16 47  1  0
 16 48  1  0
 17 49  1  0
 17 50  1  0
 18 51  1  0
 18 52  1  0
 18 53  1  0
 19 54  1  0
 19 55  1  0
 20 56  1  0
 25 57  1  0
 27 58  1  0
 28 59  1  0
M  CHG  1   1  -1
M  END
>  <filename_input>  (17) 
7VWF_K55_docked.sdf

>  <pdb_id>  (17) 
7VWF_K55

>  <pose_rank>  (17) 
16

>  <num_atoms_heavy>  (17) 
33

>  <num_torsions>  (17) 
12

>  <pose>  (17) 
[13.547512904630773, 4.793866454007432, 40.717082192132764, 2.3517186323063206, 2.327105852366649, 1.8849306207665546, -3.322566079292456, 2.0696588625960057, -1.870171227793953, -1.9006751262067532, 1.0303158151113931, 2.2442316411275685, -1.441336837907822, -2.3972134537465077, -4.045600038858927, 0.5651816081158854, 3.306481297810419, 2.7383003861862223]

>  <energy>  (17) 
-612.2554855756647

>  <inter_energy>  (17) 
-690.7683580776753

>  <intra_energy>  (17) 
88.96442769475267

>  <rmsd>  (17) 
8.74696

>  <sdf_rank>  (17) 
0

$$$$

     RDKit          3D

 59 60  0  0  0  0  0  0  0  0999 V2000
   10.4208    3.5887   43.2074 O   0  0  0  0  0  0  0  0  0  0  0  0
   10.7182    1.6618   42.1856 O   0  0  0  0  0  0  0  0  0  0  0  0
   11.1135    2.7926   42.5438 C   0  0  0  0  0  0  0  0  0  0  0  0
   12.5125    3.2482   42.1065 C   0  0  1  0  0  0  0  0  0  0  0  0
   13.4621    3.3906   43.3064 C   0  0  0  0  0  0  0  0  0  0  0  0
   13.5597    4.8140   43.8255 C   0  0  0  0  0  0  0  0  0  0  0  0
   13.0390    2.2600   41.0600 C   0  0  0  0  0  0  0  0  0  0  0  0
   13.4872    2.8736   39.7559 C   0  0  0  0  0  0  0  0  0  0  0  0
   13.4631    2.1468   38.5654 C   0  0  0  0  0  0  0  0  0  0  0  0
   13.9008    2.6890   37.3582 C   0  0  0  0  0  0  0  0  0  0  0  0
   14.3838    4.0008   37.3648 C   0  0  0  0  0  0  0  0  0  0  0  0
   14.4314    4.7310   38.5390 C   0  0  0  0  0  0  0  0  0  0  0  0
   13.9864    4.1645   39.7178 C   0  0  0  0  0  0  0  0  0  0  0  0
   14.8254    4.4831   36.1642 O   0  0  0  0  0  0  0  0  0  0  0  0
   16.1803    4.9443   36.0875 C   0  0  0  0  0  0  0  0  0  0  0  0
   16.1592    6.4383   35.9059 C   0  0  0  0  0  0  0  0  0  0  0  0
   15.1517    6.9401   34.9015 C   0  0  0  0  0  0  0  0  0  0  0  0
   15.5487    6.6985   33.4622 C   0  0  0  0  0  0  0  0  0  0  0  0
   13.8638    1.8940   36.0797 C   0  0  0  0  0  0  0  0  0  0  0  0
   12.5207    1.7496   35.5220 N   0  0  0  0  0  0  0  0  0  0  0  0
   12.2405    0.8135   34.6124 C   0  0  0  0  0  0  0  0  0  0  0  0
   13.0875    0.0337   34.1845 O   0  0  0  0  0  0  0  0  0  0  0  0
   10.8302    0.7376   34.1129 C   0  0  0  0  0  0  0  0  0  0  0  0
   10.4647    0.5956   32.7896 C   0  0  0  0  0  0  0  0  0  0  0  0
    9.1548    0.5249   32.3762 C   0  0  0  0  0  0  0  0  0  0  0  0
    8.1429    0.5908   33.3197 C   0  0  0  0  0  0  0  0  0  0  0  0
    8.4716    0.7187   34.6570 C   0  0  0  0  0  0  0  0  0  0  0  0
    9.7983    0.7889   35.0463 C   0  0  0  0  0  0  0  0  0  0  0  0
    6.7153    0.5022   32.8939 C   0  0  2  0  0  0  0  0  0  0  0  0
   11.4239    0.5274   31.8398 F   0  0  0  0  0  0  0  0  0  0  0  0
    5.9236    0.0764   33.8664 F   0  0  0  0  0  0  0  0  0  0  0  0
    6.5248   -0.3327   31.8757 F   0  0  0  0  0  0  0  0  0  0  0  0
    6.2259    1.6733   32.5045 F   0  0  0  0  0  0  0  0  0  0  0  0
   12.4536    4.2496   41.6550 H   0  0  0  0  0  0  0  0  0  0  0  0
   13.0972    2.7460   44.1196 H   0  0  0  0  0  0  0  0  0  0  0  0
   14.4660    3.0970   42.9657 H   0  0  0  0  0  0  0  0  0  0  0  0
   13.5591    4.8040   44.9255 H   0  0  0  0  0  0  0  0  0  0  0  0
   14.4915    5.2732   43.4636 H   0  0  0  0  0  0  0  0  0  0  0  0
   12.6994    5.3961   43.4636 H   0  0  0  0  0  0  0  0  0  0  0  0
   13.8970    1.7283   41.4971 H   0  0  0  0  0  0  0  0  0  0  0  0
   12.1919    1.6042   40.8103 H   0  0  0  0  0  0  0  0  0  0  0  0
   13.0869    1.1132   38.5798 H   0  0  0  0  0  0  0  0  0  0  0  0
   14.8223    5.7592   38.5339 H   0  0  0  0  0  0  0  0  0  0  0  0
   14.0297    4.7520   40.6467 H   0  0  0  0  0  0  0  0  0  0  0  0
   16.7135    4.6895   37.0153 H   0  0  0  0  0  0  0  0  0  0  0  0
   16.6971    4.4661   35.2423 H   0  0  0  0  0  0  0  0  0  0  0  0
   15.9305    6.8979   36.8787 H   0  0  0  0  0  0  0  0  0  0  0  0
   17.1495    6.7165   35.5161 H   0  0  0  0  0  0  0  0  0  0  0  0
   14.1945    6.4306   35.0870 H   0  0  0  0  0  0  0  0  0  0  0  0
   15.0829    8.0297   35.0353 H   0  0  0  0  0  0  0  0  0  0  0  0
   16.4881    6.1269   33.4320 H   0  0  0  0  0  0  0  0  0  0  0  0
   14.7566    6.1291   32.9540 H   0  0  0  0  0  0  0  0  0  0  0  0
   15.6903    7.6637   32.9540 H   0  0  0  0  0  0  0  0  0  0  0  0
   14.4969    2.4005   35.3363 H   0  0  0  0  0  0  0  0  0  0  0  0
   14.2263    0.8829   36.3167 H   0  0  0  0  0  0  0  0  0  0  0  0
   11.7735    2.3843   35.8379 H   0  0  0  0  0  0  0  0  0  0  0  0
    8.9136    0.4172   31.3084 H   0  0  0  0  0  0  0  0  0  0  0  0
    7.6755    0.7649   35.4146 H   0  0  0  0  0  0  0  0  0  0  0  0
   10.0421    0.8873   36.1145 H   0  0  0  0  0  0  0  0  0  0  0  0
  1  3  1  0
  2  3  2  0
  3  4  1  0
  4  5  1  0
  4  7  1  0
  5  6  1  0
  7  8  1  0
  8  9  2  0
  8 13  1  0
  9 10  1  0
 10 11  2  0
 10 19  1  0
 11 12  1  0
 11 14  1  0
 12 13  2  0
 14 15  1  0
 15 16  1  0
 16 17  1  0
 17 18  1  0
 19 20  1  0
 20 21  1  0
 21 22  2  0
 21 23  1  0
 23 24  2  0
 23 28  1  0
 24 25  1  0
 24 30  1  0
 25 26  2  0
 26 27  1  0
 26 29  1  0
 27 28  2  0
 29 31  1  1
 29 32  1  0
 29 33  1  0
  4 34  1  6
  5 35  1  0
  5 36  1  0
  6 37  1  0
  6 38  1  0
  6 39  1  0
  7 40  1  0
  7 41  1  0
  9 42  1  0
 12 43  1  0
 13 44  1  0
 15 45  1  0
 15 46  1  0
 16 47  1  0
 16 48  1  0
 17 49  1  0
 17 50  1  0
 18 51  1  0
 18 52  1  0
 18 53  1  0
 19 54  1  0
 19 55  1  0
 20 56  1  0
 25 57  1  0
 27 58  1  0
 28 59  1  0
M  CHG  1   1  -1
M  END
>  <filename_input>  (18) 
7VWF_K55_docked.sdf

>  <pdb_id>  (18) 
7VWF_K55

>  <pose_rank>  (18) 
17

>  <num_atoms_heavy>  (18) 
33

>  <num_torsions>  (18) 
12

>  <pose>  (18) 
[13.48720153277508, 2.8736409058887094, 39.755888958136254, 1.8756485585489022, 3.7234318987907464, -0.1302590185910267, 4.796762171531922, -0.8542636421520702, -1.3262977976429073, -0.5673010562273337, 0.8047704528961088, 1.4510938500025674, 0.45884861579891373, -0.1267403125055701, -0.7805228004593623, -0.055004732181391944, 2.0424747401244225, 0.5204908390255603]

>  <energy>  (18) 
-679.1014192797714

>  <inter_energy>  (18) 
-669.8282957054238

>  <intra_energy>  (18) 
5.017731819118849

>  <rmsd>  (18) 
8.44744

>  <sdf_rank>  (18) 
0

$$$$

     RDKit          3D

 59 60  0  0  0  0  0  0  0  0999 V2000
    6.4975   -0.5026   31.7894 O   0  0  0  0  0  0  0  0  0  0  0  0
    6.8945   -2.2319   33.0924 O   0  0  0  0  0  0  0  0  0  0  0  0
    7.2413   -1.1662   32.5380 C   0  0  0  0  0  0  0  0  0  0  0  0
    8.6768   -0.6665   32.7523 C   0  0  1  0  0  0  0  0  0  0  0  0
    9.5574   -0.9300   31.5208 C   0  0  0  0  0  0  0  0  0  0  0  0
   10.0815   -2.3534   31.4545 C   0  0  0  0  0  0  0  0  0  0  0  0
    8.6223    0.8195   33.1233 C   0  0  0  0  0  0  0  0  0  0  0  0
    8.8588    1.1335   34.5806 C   0  0  0  0  0  0  0  0  0  0  0  0
   10.0892    1.6142   35.0292 C   0  0  0  0  0  0  0  0  0  0  0  0
   10.3331    1.8814   36.3753 C   0  0  0  0  0  0  0  0  0  0  0  0
    9.3018    1.6444   37.2888 C   0  0  0  0  0  0  0  0  0  0  0  0
    8.0807    1.1513   36.8646 C   0  0  0  0  0  0  0  0  0  0  0  0
    7.8710    0.9005   35.5223 C   0  0  0  0  0  0  0  0  0  0  0  0
    9.5931    1.8965   38.6005 O   0  0  0  0  0  0  0  0  0  0  0  0
    8.5869    1.5989   39.5770 C   0  0  0  0  0  0  0  0  0  0  0  0
    8.9280    0.2799   40.2169 C   0  0  0  0  0  0  0  0  0  0  0  0
    7.7453   -0.6151   40.4922 C   0  0  0  0  0  0  0  0  0  0  0  0
    7.8489   -1.9816   39.8524 C   0  0  0  0  0  0  0  0  0  0  0  0
   11.6648    2.4054   36.8443 C   0  0  0  0  0  0  0  0  0  0  0  0
   11.7011    2.7087   38.2735 N   0  0  0  0  0  0  0  0  0  0  0  0
   12.8563    2.8257   38.9322 C   0  0  0  0  0  0  0  0  0  0  0  0
   13.9463    2.6750   38.3863 O   0  0  0  0  0  0  0  0  0  0  0  0
   12.7873    3.1524   40.3926 C   0  0  0  0  0  0  0  0  0  0  0  0
   12.2871    2.3154   41.3692 C   0  0  0  0  0  0  0  0  0  0  0  0
   12.2482    2.6554   42.7014 C   0  0  0  0  0  0  0  0  0  0  0  0
   12.7361    3.8891   43.0994 C   0  0  0  0  0  0  0  0  0  0  0  0
   13.2583    4.7487   42.1502 C   0  0  0  0  0  0  0  0  0  0  0  0
   13.2845    4.3824   40.8154 C   0  0  0  0  0  0  0  0  0  0  0  0
   12.7158    4.2723   44.5417 C   0  0  2  0  0  0  0  0  0  0  0  0
   11.8024    1.1030   41.0197 F   0  0  0  0  0  0  0  0  0  0  0  0
   13.5218    5.2895   44.8054 F   0  0  0  0  0  0  0  0  0  0  0  0
   13.0958    3.2860   45.3496 F   0  0  0  0  0  0  0  0  0  0  0  0
   11.5088    4.6402   44.9544 F   0  0  0  0  0  0  0  0  0  0  0  0
    9.1457   -1.2240   33.5765 H   0  0  0  0  0  0  0  0  0  0  0  0
    8.9622   -0.7340   30.6167 H   0  0  0  0  0  0  0  0  0  0  0  0
   10.4294   -0.2634   31.5935 H   0  0  0  0  0  0  0  0  0  0  0  0
   10.2237   -2.7397   32.4746 H   0  0  0  0  0  0  0  0  0  0  0  0
    9.3574   -2.9862   30.9204 H   0  0  0  0  0  0  0  0  0  0  0  0
   11.0431   -2.3656   30.9204 H   0  0  0  0  0  0  0  0  0  0  0  0
    9.3891    1.3443   32.5346 H   0  0  0  0  0  0  0  0  0  0  0  0
    7.5952    1.1480   32.9060 H   0  0  0  0  0  0  0  0  0  0  0  0
   10.8921    1.7880   34.2977 H   0  0  0  0  0  0  0  0  0  0  0  0
    7.2796    0.9596   37.5936 H   0  0  0  0  0  0  0  0  0  0  0  0
    6.8975    0.5069   35.1944 H   0  0  0  0  0  0  0  0  0  0  0  0
    8.5651    2.3892   40.3419 H   0  0  0  0  0  0  0  0  0  0  0  0
    7.5977    1.5448   39.0990 H   0  0  0  0  0  0  0  0  0  0  0  0
    9.6151   -0.2577   39.5470 H   0  0  0  0  0  0  0  0  0  0  0  0
    9.3714    0.5163   41.1954 H   0  0  0  0  0  0  0  0  0  0  0  0
    7.6575   -0.7480   41.5806 H   0  0  0  0  0  0  0  0  0  0  0  0
    6.8640   -0.1235   40.0544 H   0  0  0  0  0  0  0  0  0  0  0  0
    7.9072   -2.7504   40.6370 H   0  0  0  0  0  0  0  0  0  0  0  0
    6.9619   -2.1621   39.2274 H   0  0  0  0  0  0  0  0  0  0  0  0
    8.7530   -2.0263   39.2274 H   0  0  0  0  0  0  0  0  0  0  0  0
   12.4324    1.6474   36.6296 H   0  0  0  0  0  0  0  0  0  0  0  0
   11.8484    3.3484   36.3086 H   0  0  0  0  0  0  0  0  0  0  0  0
   10.8154    2.8350   38.7839 H   0  0  0  0  0  0  0  0  0  0  0  0
   11.8344    1.9555   43.4422 H   0  0  0  0  0  0  0  0  0  0  0  0
   13.6546    5.7279   42.4572 H   0  0  0  0  0  0  0  0  0  0  0  0
   13.7064    5.0769   40.0740 H   0  0  0  0  0  0  0  0  0  0  0  0
  1  3  1  0
  2  3  2  0
  3  4  1  0
  4  5  1  0
  4  7  1  0
  5  6  1  0
  7  8  1  0
  8  9  2  0
  8 13  1  0
  9 10  1  0
 10 11  2  0
 10 19  1  0
 11 12  1  0
 11 14  1  0
 12 13  2  0
 14 15  1  0
 15 16  1  0
 16 17  1  0
 17 18  1  0
 19 20  1  0
 20 21  1  0
 21 22  2  0
 21 23  1  0
 23 24  2  0
 23 28  1  0
 24 25  1  0
 24 30  1  0
 25 26  2  0
 26 27  1  0
 26 29  1  0
 27 28  2  0
 29 31  1  6
 29 32  1  0
 29 33  1  0
  4 34  1  1
  5 35  1  0
  5 36  1  0
  6 37  1  0
  6 38  1  0
  6 39  1  0
  7 40  1  0
  7 41  1  0
  9 42  1  0
 12 43  1  0
 13 44  1  0
 15 45  1  0
 15 46  1  0
 16 47  1  0
 16 48  1  0
 17 49  1  0
 17 50  1  0
 18 51  1  0
 18 52  1  0
 18 53  1  0
 19 54  1  0
 19 55  1  0
 20 56  1  0
 25 57  1  0
 27 58  1  0
 28 59  1  0
M  CHG  1   1  -1
M  END
>  <filename_input>  (19) 
7VWF_K55_docked.sdf

>  <pdb_id>  (19) 
7VWF_K55

>  <pose_rank>  (19) 
18

>  <num_atoms_heavy>  (19) 
33

>  <num_torsions>  (19) 
12

>  <pose>  (19) 
[8.858816455917369, 1.133466217790222, 34.580584156025076, 0.4557213543691626, -2.052623873737573, -2.4986700295339617, 2.965682688388884, -1.2283796328500307, 2.466182471369597, -0.2996584950051887, -0.14687958561742911, -1.1397521860763586, -1.2276394915092195, 3.3334208327931747, 0.9875085693106278, -0.6868552019620505, 0.8533313890693907, 0.6418052469250699]

>  <energy>  (19) 
-554.7815723547914

>  <inter_energy>  (19) 
-606.102295100542

>  <intra_energy>  (19) 
51.43856073108752

>  <rmsd>  (19) 
7.85934

>  <sdf_rank>  (19) 
0

$$$$

     RDKit          3D

 59 60  0  0  0  0  0  0  0  0999 V2000
   14.0631    5.8896   42.4428 O   0  0  0  0  0  0  0  0  0  0  0  0
   14.4030    6.1506   44.6020 O   0  0  0  0  0  0  0  0  0  0  0  0
   13.9300    5.5258   43.6277 C   0  0  0  0  0  0  0  0  0  0  0  0
   13.1006    4.2641   43.9039 C   0  0  1  0  0  0  0  0  0  0  0  0
   12.8922    4.0423   45.4102 C   0  0  0  0  0  0  0  0  0  0  0  0
   13.3040    2.6559   45.8725 C   0  0  0  0  0  0  0  0  0  0  0  0
   11.7754    4.3791   43.1424 C   0  0  0  0  0  0  0  0  0  0  0  0
   11.3393    3.1348   42.4077 C   0  0  0  0  0  0  0  0  0  0  0  0
   11.8984    2.7839   41.1788 C   0  0  0  0  0  0  0  0  0  0  0  0
   11.4863    1.6543   40.4738 C   0  0  0  0  0  0  0  0  0  0  0  0
   10.4731    0.8674   41.0292 C   0  0  0  0  0  0  0  0  0  0  0  0
    9.8947    1.2095   42.2386 C   0  0  0  0  0  0  0  0  0  0  0  0
   10.3293    2.3341   42.9132 C   0  0  0  0  0  0  0  0  0  0  0  0
   10.0833   -0.2160   40.2922 O   0  0  0  0  0  0  0  0  0  0  0  0
    8.8038   -0.7941   40.5802 C   0  0  0  0  0  0  0  0  0  0  0  0
    9.0277   -2.1032   41.2886 C   0  0  0  0  0  0  0  0  0  0  0  0
    7.9536   -3.1378   41.0620 C   0  0  0  0  0  0  0  0  0  0  0  0
    6.5856   -2.7183   41.5521 C   0  0  0  0  0  0  0  0  0  0  0  0
   12.1030    1.2848   39.1505 C   0  0  0  0  0  0  0  0  0  0  0  0
   12.7395    2.4105   38.4697 N   0  0  0  0  0  0  0  0  0  0  0  0
   13.7322    2.2261   37.5962 C   0  0  0  0  0  0  0  0  0  0  0  0
   14.1743    1.1130   37.3240 O   0  0  0  0  0  0  0  0  0  0  0  0
   14.3090    3.4434   36.9407 C   0  0  0  0  0  0  0  0  0  0  0  0
   14.8827    4.5064   37.6084 C   0  0  0  0  0  0  0  0  0  0  0  0
   15.4056    5.6033   36.9642 C   0  0  0  0  0  0  0  0  0  0  0  0
   15.3688    5.6568   35.5806 C   0  0  0  0  0  0  0  0  0  0  0  0
   14.8143    4.6032   34.8770 C   0  0  0  0  0  0  0  0  0  0  0  0
   14.2937    3.5111   35.5501 C   0  0  0  0  0  0  0  0  0  0  0  0
   15.9429    6.8317   34.8613 C   0  0  2  0  0  0  0  0  0  0  0  0
   14.9373    4.4903   38.9588 F   0  0  0  0  0  0  0  0  0  0  0  0
   17.0782    7.2489   35.4007 F   0  0  0  0  0  0  0  0  0  0  0  0
   15.1324    7.8867   34.8540 F   0  0  0  0  0  0  0  0  0  0  0  0
   16.2132    6.5679   33.5885 F   0  0  0  0  0  0  0  0  0  0  0  0
   13.6428    3.3765   43.5459 H   0  0  0  0  0  0  0  0  0  0  0  0
   13.4892    4.7856   45.9590 H   0  0  0  0  0  0  0  0  0  0  0  0
   11.8158    4.1478   45.6106 H   0  0  0  0  0  0  0  0  0  0  0  0
   13.3135    2.6238   46.9720 H   0  0  0  0  0  0  0  0  0  0  0  0
   12.5873    1.9141   45.4902 H   0  0  0  0  0  0  0  0  0  0  0  0
   14.3093    2.4254   45.4902 H   0  0  0  0  0  0  0  0  0  0  0  0
   10.9894    4.6381   43.8670 H   0  0  0  0  0  0  0  0  0  0  0  0
   11.9359    5.1457   42.3701 H   0  0  0  0  0  0  0  0  0  0  0  0
   12.6894    3.4185   40.7527 H   0  0  0  0  0  0  0  0  0  0  0  0
    9.0916    0.5881   42.6615 H   0  0  0  0  0  0  0  0  0  0  0  0
    9.8624    2.5991   43.8733 H   0  0  0  0  0  0  0  0  0  0  0  0
    8.2255   -0.1160   41.2250 H   0  0  0  0  0  0  0  0  0  0  0  0
    8.2423   -0.9575   39.6485 H   0  0  0  0  0  0  0  0  0  0  0  0
    9.9840   -2.5211   40.9408 H   0  0  0  0  0  0  0  0  0  0  0  0
    9.0180   -1.8779   42.3652 H   0  0  0  0  0  0  0  0  0  0  0  0
    7.8882   -3.3386   39.9824 H   0  0  0  0  0  0  0  0  0  0  0  0
    8.2408   -4.0283   41.6404 H   0  0  0  0  0  0  0  0  0  0  0  0
    6.5752   -2.7151   42.6520 H   0  0  0  0  0  0  0  0  0  0  0  0
    6.3566   -1.7086   41.1803 H   0  0  0  0  0  0  0  0  0  0  0  0
    5.8299   -3.4260   41.1803 H   0  0  0  0  0  0  0  0  0  0  0  0
   12.8627    0.5087   39.3249 H   0  0  0  0  0  0  0  0  0  0  0  0
   11.2883    0.9325   38.5008 H   0  0  0  0  0  0  0  0  0  0  0  0
   12.4150    3.3677   38.6682 H   0  0  0  0  0  0  0  0  0  0  0  0
   15.8478    6.4288   37.5412 H   0  0  0  0  0  0  0  0  0  0  0  0
   14.7867    4.6330   33.7778 H   0  0  0  0  0  0  0  0  0  0  0  0
   13.8594    2.6802   34.9748 H   0  0  0  0  0  0  0  0  0  0  0  0
  1  3  1  0
  2  3  2  0
  3  4  1  0
  4  5  1  0
  4  7  1  0
  5  6  1  0
  7  8  1  0
  8  9  2  0
  8 13  1  0
  9 10  1  0
 10 11  2  0
 10 19  1  0
 11 12  1  0
 11 14  1  0
 12 13  2  0
 14 15  1  0
 15 16  1  0
 16 17  1  0
 17 18  1  0
 19 20  1  0
 20 21  1  0
 21 22  2  0
 21 23  1  0
 23 24  2  0
 23 28  1  0
 24 25  1  0
 24 30  1  0
 25 26  2  0
 26 27  1  0
 26 29  1  0
 27 28  2  0
 29 31  1  1
 29 32  1  0
 29 33  1  0
  4 34  1  6
  5 35  1  0
  5 36  1  0
  6 37  1  0
  6 38  1  0
  6 39  1  0
  7 40  1  0
  7 41  1  0
  9 42  1  0
 12 43  1  0
 13 44  1  0
 15 45  1  0
 15 46  1  0
 16 47  1  0
 16 48  1  0
 17 49  1  0
 17 50  1  0
 18 51  1  0
 18 52  1  0
 18 53  1  0
 19 54  1  0
 19 55  1  0
 20 56  1  0
 25 57  1  0
 27 58  1  0
 28 59  1  0
M  CHG  1   1  -1
M  END
>  <filename_input>  (20) 
7VWF_K55_docked.sdf

>  <pdb_id>  (20) 
7VWF_K55

>  <pose_rank>  (20) 
19

>  <num_atoms_heavy>  (20) 
33

>  <num_torsions>  (20) 
12

>  <pose>  (20) 
[11.339276377180315, 3.134837614227673, 42.40772713867362, -2.1318695561993786, 1.2044476595385305, -2.7740248004328563, -0.1832345608993283, -0.6868698983348477, 0.7406968499681357, -1.1014242345878114, 0.13671180875236255, 1.5248023799028667, -1.400843416957452, 0.10203512050269327, -2.468992976873713, -0.8094923008290742, 0.7045700579023699, -1.496048254121957]

>  <energy>  (20) 
-571.0895344816024

>  <inter_energy>  (20) 
-585.9532999663621

>  <intra_energy>  (20) 
3.4766444107741554

>  <rmsd>  (20) 
9.64682

>  <sdf_rank>  (20) 
0

$$$$

     RDKit          3D

 59 60  0  0  0  0  0  0  0  0999 V2000
   15.6122    7.0848   32.1236 O   0  0  0  0  0  0  0  0  0  0  0  0
   14.6558    9.0674   32.1415 O   0  0  0  0  0  0  0  0  0  0  0  0
   15.1759    8.0887   32.7202 C   0  0  0  0  0  0  0  0  0  0  0  0
   15.2429    8.0996   34.2536 C   0  0  1  0  0  0  0  0  0  0  0  0
   13.8562    7.8901   34.8821 C   0  0  0  0  0  0  0  0  0  0  0  0
   13.0712    6.7629   34.2353 C   0  0  0  0  0  0  0  0  0  0  0  0
   16.2530    7.0378   34.7021 C   0  0  0  0  0  0  0  0  0  0  0  0
   15.8551    6.2360   35.9174 C   0  0  0  0  0  0  0  0  0  0  0  0
   15.2286    4.9955   35.7954 C   0  0  0  0  0  0  0  0  0  0  0  0
   14.8286    4.2560   36.9071 C   0  0  0  0  0  0  0  0  0  0  0  0
   15.0638    4.7969   38.1745 C   0  0  0  0  0  0  0  0  0  0  0  0
   15.6681    6.0335   38.3146 C   0  0  0  0  0  0  0  0  0  0  0  0
   16.0555    6.7390   37.1917 C   0  0  0  0  0  0  0  0  0  0  0  0
   14.6330    4.0492   39.2349 O   0  0  0  0  0  0  0  0  0  0  0  0
   14.1865    4.7457   40.4054 C   0  0  0  0  0  0  0  0  0  0  0  0
   13.4672    3.7640   41.2911 C   0  0  0  0  0  0  0  0  0  0  0  0
   12.1450    3.2763   40.7531 C   0  0  0  0  0  0  0  0  0  0  0  0
   12.1280    1.8027   40.4126 C   0  0  0  0  0  0  0  0  0  0  0  0
   14.1581    2.9155   36.7601 C   0  0  0  0  0  0  0  0  0  0  0  0
   15.0987    1.8029   36.6462 N   0  0  0  0  0  0  0  0  0  0  0  0
   16.0193    1.7642   35.6801 C   0  0  0  0  0  0  0  0  0  0  0  0
   16.1224    2.6451   34.8304 O   0  0  0  0  0  0  0  0  0  0  0  0
   16.9461    0.5875   35.6575 C   0  0  0  0  0  0  0  0  0  0  0  0
   17.0270   -0.3381   34.6370 C   0  0  0  0  0  0  0  0  0  0  0  0
   17.8985   -1.4020   34.6560 C   0  0  0  0  0  0  0  0  0  0  0  0
   18.7464   -1.5630   35.7394 C   0  0  0  0  0  0  0  0  0  0  0  0
   18.7035   -0.6467   36.7743 C   0  0  0  0  0  0  0  0  0  0  0  0
   17.8159    0.4149   36.7310 C   0  0  0  0  0  0  0  0  0  0  0  0
   19.7091   -2.7028   35.7737 C   0  0  2  0  0  0  0  0  0  0  0  0
   16.2160   -0.2142   33.5629 F   0  0  0  0  0  0  0  0  0  0  0  0
   19.7306   -3.3106   36.9501 F   0  0  0  0  0  0  0  0  0  0  0  0
   20.9640   -2.3342   35.5299 F   0  0  0  0  0  0  0  0  0  0  0  0
   19.4216   -3.6400   34.8784 F   0  0  0  0  0  0  0  0  0  0  0  0
   15.5811    9.0858   34.6044 H   0  0  0  0  0  0  0  0  0  0  0  0
   13.9874    7.6574   35.9492 H   0  0  0  0  0  0  0  0  0  0  0  0
   13.2842    8.8170   34.7289 H   0  0  0  0  0  0  0  0  0  0  0  0
   12.6292    6.1281   35.0173 H   0  0  0  0  0  0  0  0  0  0  0  0
   12.2709    7.1852   33.6099 H   0  0  0  0  0  0  0  0  0  0  0  0
   13.7449    6.1586   33.6099 H   0  0  0  0  0  0  0  0  0  0  0  0
   16.4016    6.3371   33.8673 H   0  0  0  0  0  0  0  0  0  0  0  0
   17.1627    7.5869   34.9867 H   0  0  0  0  0  0  0  0  0  0  0  0
   15.0444    4.5883   34.7903 H   0  0  0  0  0  0  0  0  0  0  0  0
   15.8397    6.4536   39.3166 H   0  0  0  0  0  0  0  0  0  0  0  0
   16.5337    7.7222   37.3127 H   0  0  0  0  0  0  0  0  0  0  0  0
   15.0505    5.1664   40.9406 H   0  0  0  0  0  0  0  0  0  0  0  0
   13.5125    5.5682   40.1241 H   0  0  0  0  0  0  0  0  0  0  0  0
   14.1207    2.8910   41.4355 H   0  0  0  0  0  0  0  0  0  0  0  0
   13.2426    4.2980   42.2262 H   0  0  0  0  0  0  0  0  0  0  0  0
   11.3713    3.4654   41.5118 H   0  0  0  0  0  0  0  0  0  0  0  0
   11.9602    3.8226   39.8164 H   0  0  0  0  0  0  0  0  0  0  0  0
   12.1212    1.2120   41.3405 H   0  0  0  0  0  0  0  0  0  0  0  0
   11.2271    1.5726   39.8248 H   0  0  0  0  0  0  0  0  0  0  0  0
   13.0233    1.5519   39.8248 H   0  0  0  0  0  0  0  0  0  0  0  0
   13.5227    2.7455   37.6418 H   0  0  0  0  0  0  0  0  0  0  0  0
   13.5770    2.9449   35.8266 H   0  0  0  0  0  0  0  0  0  0  0  0
   15.0504    1.0311   37.3267 H   0  0  0  0  0  0  0  0  0  0  0  0
   17.9218   -2.1169   33.8203 H   0  0  0  0  0  0  0  0  0  0  0  0
   19.3777   -0.7619   37.6358 H   0  0  0  0  0  0  0  0  0  0  0  0
   17.7974    1.1363   37.5612 H   0  0  0  0  0  0  0  0  0  0  0  0
  1  3  1  0
  2  3  2  0
  3  4  1  0
  4  5  1  0
  4  7  1  0
  5  6  1  0
  7  8  1  0
  8  9  2  0
  8 13  1  0
  9 10  1  0
 10 11  2  0
 10 19  1  0
 11 12  1  0
 11 14  1  0
 12 13  2  0
 14 15  1  0
 15 16  1  0
 16 17  1  0
 17 18  1  0
 19 20  1  0
 20 21  1  0
 21 22  2  0
 21 23  1  0
 23 24  2  0
 23 28  1  0
 24 25  1  0
 24 30  1  0
 25 26  2  0
 26 27  1  0
 26 29  1  0
 27 28  2  0
 29 31  1  1
 29 32  1  0
 29 33  1  0
  4 34  1  6
  5 35  1  0
  5 36  1  0
  6 37  1  0
  6 38  1  0
  6 39  1  0
  7 40  1  0
  7 41  1  0
  9 42  1  0
 12 43  1  0
 13 44  1  0
 15 45  1  0
 15 46  1  0
 16 47  1  0
 16 48  1  0
 17 49  1  0
 17 50  1  0
 18 51  1  0
 18 52  1  0
 18 53  1  0
 19 54  1  0
 19 55  1  0
 20 56  1  0
 25 57  1  0
 27 58  1  0
 28 59  1  0
M  CHG  1   1  -1
M  END
>  <filename_input>  (21) 
7VWF_K55_docked.sdf

>  <pdb_id>  (21) 
7VWF_K55

>  <pose_rank>  (21) 
20

>  <num_atoms_heavy>  (21) 
33

>  <num_torsions>  (21) 
12

>  <pose>  (21) 
[15.855090569100827, 6.236021400091145, 35.91740461302585, 1.3272572227043777, 0.4462439855333041, 0.7945949499689382, -3.4306742134315877, 0.7944864764028483, 1.9116267883856446, -4.373410454165606, 0.361205184127649, 0.021342079841605216, 0.019839098864580202, 3.169435309572454, -0.5810565938764292, 1.7739756133119196, 1.7239199030433014, 1.7231571984396097]

>  <energy>  (21) 
-572.1456529698169

>  <inter_energy>  (21) 
-655.5214565584882

>  <intra_energy>  (21) 
77.98165935174192

>  <rmsd>  (21) 
8.46947

>  <sdf_rank>  (21) 
0

$$$$

     RDKit          3D

 59 60  0  0  0  0  0  0  0  0999 V2000
    7.2047   -1.5285   39.1198 O   0  0  0  0  0  0  0  0  0  0  0  0
    6.4772   -1.9926   41.1450 O   0  0  0  0  0  0  0  0  0  0  0  0
    7.2618   -1.4166   40.3601 C   0  0  0  0  0  0  0  0  0  0  0  0
    8.3874   -0.5584   40.9538 C   0  0  1  0  0  0  0  0  0  0  0  0
    9.5494   -1.4243   41.4654 C   0  0  0  0  0  0  0  0  0  0  0  0
    9.3311   -2.9100   41.2413 C   0  0  0  0  0  0  0  0  0  0  0  0
    8.8365    0.4529   39.8933 C   0  0  0  0  0  0  0  0  0  0  0  0
   10.0266    1.3018   40.2691 C   0  0  0  0  0  0  0  0  0  0  0  0
   10.8282    1.8994   39.2963 C   0  0  0  0  0  0  0  0  0  0  0  0
   11.9474    2.6621   39.6258 C   0  0  0  0  0  0  0  0  0  0  0  0
   12.2639    2.8123   40.9791 C   0  0  0  0  0  0  0  0  0  0  0  0
   11.4907    2.2126   41.9571 C   0  0  0  0  0  0  0  0  0  0  0  0
   10.3857    1.4660   41.5961 C   0  0  0  0  0  0  0  0  0  0  0  0
   13.3833    3.5471   41.2549 O   0  0  0  0  0  0  0  0  0  0  0  0
   14.6314    3.0892   40.7191 C   0  0  0  0  0  0  0  0  0  0  0  0
   15.6566    4.1721   40.9234 C   0  0  0  0  0  0  0  0  0  0  0  0
   15.7180    5.2021   39.8229 C   0  0  0  0  0  0  0  0  0  0  0  0
   17.0384    5.2334   39.0859 C   0  0  0  0  0  0  0  0  0  0  0  0
   12.8004    3.3059   38.5647 C   0  0  0  0  0  0  0  0  0  0  0  0
   13.7633    2.3903   37.9562 N   0  0  0  0  0  0  0  0  0  0  0  0
   14.6552    2.8129   37.0573 C   0  0  0  0  0  0  0  0  0  0  0  0
   14.7122    3.9811   36.6820 O   0  0  0  0  0  0  0  0  0  0  0  0
   15.6087    1.7993   36.5027 C   0  0  0  0  0  0  0  0  0  0  0  0
   15.3021    0.8748   35.5249 C   0  0  0  0  0  0  0  0  0  0  0  0
   16.2125   -0.0355   35.0407 C   0  0  0  0  0  0  0  0  0  0  0  0
   17.5036   -0.0335   35.5422 C   0  0  0  0  0  0  0  0  0  0  0  0
   17.8512    0.8882   36.5129 C   0  0  0  0  0  0  0  0  0  0  0  0
   16.9152    1.7930   36.9840 C   0  0  0  0  0  0  0  0  0  0  0  0
   18.5107   -1.0038   35.0210 C   0  0  2  0  0  0  0  0  0  0  0  0
   14.0525    0.8422   35.0107 F   0  0  0  0  0  0  0  0  0  0  0  0
   18.1083   -2.2603   35.1364 F   0  0  0  0  0  0  0  0  0  0  0  0
   19.6789   -0.9347   35.6539 F   0  0  0  0  0  0  0  0  0  0  0  0
   18.7790   -0.8180   33.7342 F   0  0  0  0  0  0  0  0  0  0  0  0
    8.0150   -0.0128   41.8333 H   0  0  0  0  0  0  0  0  0  0  0  0
   10.4678   -1.1227   40.9404 H   0  0  0  0  0  0  0  0  0  0  0  0
    9.6231   -1.2645   42.5512 H   0  0  0  0  0  0  0  0  0  0  0  0
    9.2561   -3.4202   42.2130 H   0  0  0  0  0  0  0  0  0  0  0  0
    8.4009   -3.0626   40.6744 H   0  0  0  0  0  0  0  0  0  0  0  0
   10.1781   -3.3237   40.6744 H   0  0  0  0  0  0  0  0  0  0  0  0
    9.0923   -0.1044   38.9801 H   0  0  0  0  0  0  0  0  0  0  0  0
    7.9957    1.1505   39.7655 H   0  0  0  0  0  0  0  0  0  0  0  0
   10.5688    1.7646   38.2359 H   0  0  0  0  0  0  0  0  0  0  0  0
   11.7548    2.3298   43.0184 H   0  0  0  0  0  0  0  0  0  0  0  0
    9.7778    0.9914   42.3805 H   0  0  0  0  0  0  0  0  0  0  0  0
   14.9474    2.1740   41.2411 H   0  0  0  0  0  0  0  0  0  0  0  0
   14.5251    2.8640   39.6477 H   0  0  0  0  0  0  0  0  0  0  0  0
   15.4232    4.6910   41.8648 H   0  0  0  0  0  0  0  0  0  0  0  0
   16.6365    3.6723   40.9342 H   0  0  0  0  0  0  0  0  0  0  0  0
   14.9214    4.9813   39.0971 H   0  0  0  0  0  0  0  0  0  0  0  0
   15.5946    6.1859   40.2991 H   0  0  0  0  0  0  0  0  0  0  0  0
   17.8637    5.2530   39.8128 H   0  0  0  0  0  0  0  0  0  0  0  0
   17.1272    4.3371   38.4544 H   0  0  0  0  0  0  0  0  0  0  0  0
   17.0846    6.1329   38.4544 H   0  0  0  0  0  0  0  0  0  0  0  0
   12.1402    3.6927   37.7744 H   0  0  0  0  0  0  0  0  0  0  0  0
   13.3775    4.1044   39.0539 H   0  0  0  0  0  0  0  0  0  0  0  0
   13.7535    1.3966   38.2270 H   0  0  0  0  0  0  0  0  0  0  0  0
   15.9185   -0.7570   34.2641 H   0  0  0  0  0  0  0  0  0  0  0  0
   18.8760    0.9024   36.9125 H   0  0  0  0  0  0  0  0  0  0  0  0
   17.2095    2.5214   37.7538 H   0  0  0  0  0  0  0  0  0  0  0  0
  1  3  1  0
  2  3  2  0
  3  4  1  0
  4  5  1  0
  4  7  1  0
  5  6  1  0
  7  8  1  0
  8  9  2  0
  8 13  1  0
  9 10  1  0
 10 11  2  0
 10 19  1  0
 11 12  1  0
 11 14  1  0
 12 13  2  0
 14 15  1  0
 15 16  1  0
 16 17  1  0
 17 18  1  0
 19 20  1  0
 20 21  1  0
 21 22  2  0
 21 23  1  0
 23 24  2  0
 23 28  1  0
 24 25  1  0
 24 30  1  0
 25 26  2  0
 26 27  1  0
 26 29  1  0
 27 28  2  0
 29 31  1  6
 29 32  1  0
 29 33  1  0
  4 34  1  1
  5 35  1  0
  5 36  1  0
  6 37  1  0
  6 38  1  0
  6 39  1  0
  7 40  1  0
  7 41  1  0
  9 42  1  0
 12 43  1  0
 13 44  1  0
 15 45  1  0
 15 46  1  0
 16 47  1  0
 16 48  1  0
 17 49  1  0
 17 50  1  0
 18 51  1  0
 18 52  1  0
 18 53  1  0
 19 54  1  0
 19 55  1  0
 20 56  1  0
 25 57  1  0
 27 58  1  0
 28 59  1  0
M  CHG  1   1  -1
M  END
>  <filename_input>  (22) 
7VWF_K55_docked.sdf

>  <pdb_id>  (22) 
7VWF_K55

>  <pose_rank>  (22) 
21

>  <num_atoms_heavy>  (22) 
33

>  <num_torsions>  (22) 
12

>  <pose>  (22) 
[10.026571194176935, 1.3017554441907668, 40.26913716413933, -0.5003096266699021, -1.7567942446863911, -1.578123754488823, 3.930487494865103, 0.18151031687621916, 2.019661447967164, 1.1354305016417365, 1.8989750947122481, 0.06789870756164941, -0.29585186829043325, -0.858599002680107, -3.5027585411599658, -0.2882791419198369, 1.046958861451102, 3.099999521612504]

>  <energy>  (22) 
-533.7768946282024

>  <inter_energy>  (22) 
-599.4594002313114

>  <intra_energy>  (22) 
76.56493369172593

>  <rmsd>  (22) 
8.9512

>  <sdf_rank>  (22) 
0

$$$$

     RDKit          3D

 59 60  0  0  0  0  0  0  0  0999 V2000
    5.7033   -0.9284   39.4473 O   0  0  0  0  0  0  0  0  0  0  0  0
    5.5636   -1.8818   41.4265 O   0  0  0  0  0  0  0  0  0  0  0  0
    6.2206   -1.3880   40.4842 C   0  0  0  0  0  0  0  0  0  0  0  0
    7.7522   -1.3861   40.5856 C   0  0  1  0  0  0  0  0  0  0  0  0
    8.3477   -2.7442   40.1826 C   0  0  0  0  0  0  0  0  0  0  0  0
    7.9055   -3.2055   38.8053 C   0  0  0  0  0  0  0  0  0  0  0  0
    8.2930   -0.2351   39.7303 C   0  0  0  0  0  0  0  0  0  0  0  0
    9.2872    0.6707   40.4153 C   0  0  0  0  0  0  0  0  0  0  0  0
   10.6323    0.6836   40.0457 C   0  0  0  0  0  0  0  0  0  0  0  0
   11.5685    1.4926   40.6875 C   0  0  0  0  0  0  0  0  0  0  0  0
   11.1261    2.3018   41.7381 C   0  0  0  0  0  0  0  0  0  0  0  0
    9.7993    2.2894   42.1300 C   0  0  0  0  0  0  0  0  0  0  0  0
    8.8966    1.4781   41.4701 C   0  0  0  0  0  0  0  0  0  0  0  0
   12.0823    3.0597   42.3547 O   0  0  0  0  0  0  0  0  0  0  0  0
   11.9334    4.4847   42.3145 C   0  0  0  0  0  0  0  0  0  0  0  0
   11.8864    4.9930   43.7305 C   0  0  0  0  0  0  0  0  0  0  0  0
   12.2071    3.9623   44.7843 C   0  0  0  0  0  0  0  0  0  0  0  0
   13.1268    4.4661   45.8743 C   0  0  0  0  0  0  0  0  0  0  0  0
   13.0165    1.5000   40.2739 C   0  0  0  0  0  0  0  0  0  0  0  0
   13.3413    2.5478   39.3082 N   0  0  0  0  0  0  0  0  0  0  0  0
   13.8154    2.2551   38.0950 C   0  0  0  0  0  0  0  0  0  0  0  0
   14.0168    1.1013   37.7251 O   0  0  0  0  0  0  0  0  0  0  0  0
   14.1041    3.3999   37.1728 C   0  0  0  0  0  0  0  0  0  0  0  0
   13.4325    3.6577   35.9950 C   0  0  0  0  0  0  0  0  0  0  0  0
   13.7285    4.7257   35.1806 C   0  0  0  0  0  0  0  0  0  0  0  0
   14.7405    5.5971   35.5481 C   0  0  0  0  0  0  0  0  0  0  0  0
   15.4260    5.3785   36.7292 C   0  0  0  0  0  0  0  0  0  0  0  0
   15.1090    4.2949   37.5304 C   0  0  0  0  0  0  0  0  0  0  0  0
   15.0686    6.7700   34.6856 C   0  0  2  0  0  0  0  0  0  0  0  0
   12.4384    2.8299   35.6031 F   0  0  0  0  0  0  0  0  0  0  0  0
   14.0872    7.0721   33.8493 F   0  0  0  0  0  0  0  0  0  0  0  0
   16.1464    6.5773   33.9298 F   0  0  0  0  0  0  0  0  0  0  0  0
   15.3062    7.8700   35.3899 F   0  0  0  0  0  0  0  0  0  0  0  0
    8.0557   -1.2281   41.6310 H   0  0  0  0  0  0  0  0  0  0  0  0
    9.4445   -2.6606   40.1880 H   0  0  0  0  0  0  0  0  0  0  0  0
    7.9868   -3.4880   40.9082 H   0  0  0  0  0  0  0  0  0  0  0  0
    7.1476   -3.9960   38.9091 H   0  0  0  0  0  0  0  0  0  0  0  0
    7.4759   -2.3558   38.2544 H   0  0  0  0  0  0  0  0  0  0  0  0
    8.7726   -3.5989   38.2544 H   0  0  0  0  0  0  0  0  0  0  0  0
    8.7834   -0.6704   38.8471 H   0  0  0  0  0  0  0  0  0  0  0  0
    7.4251    0.3961   39.4889 H   0  0  0  0  0  0  0  0  0  0  0  0
   10.9646    0.0349   39.2218 H   0  0  0  0  0  0  0  0  0  0  0  0
    9.4644    2.9233   42.9642 H   0  0  0  0  0  0  0  0  0  0  0  0
    7.8441    1.4735   41.7897 H   0  0  0  0  0  0  0  0  0  0  0  0
   12.7874    4.9335   41.7859 H   0  0  0  0  0  0  0  0  0  0  0  0
   11.0092    4.7553   41.7828 H   0  0  0  0  0  0  0  0  0  0  0  0
   12.6122    5.8143   43.8233 H   0  0  0  0  0  0  0  0  0  0  0  0
   10.8482    5.3080   43.9117 H   0  0  0  0  0  0  0  0  0  0  0  0
   11.2646    3.6374   45.2491 H   0  0  0  0  0  0  0  0  0  0  0  0
   12.7332    3.1401   44.2772 H   0  0  0  0  0  0  0  0  0  0  0  0
   12.6943    4.2292   46.8575 H   0  0  0  0  0  0  0  0  0  0  0  0
   14.1090    3.9800   45.7790 H   0  0  0  0  0  0  0  0  0  0  0  0
   13.2460    5.5554   45.7790 H   0  0  0  0  0  0  0  0  0  0  0  0
   13.6343    1.6501   41.1715 H   0  0  0  0  0  0  0  0  0  0  0  0
   13.2185    0.5355   39.7851 H   0  0  0  0  0  0  0  0  0  0  0  0
   13.2014    3.5342   39.5695 H   0  0  0  0  0  0  0  0  0  0  0  0
   13.1678    4.8861   34.2479 H   0  0  0  0  0  0  0  0  0  0  0  0
   16.2267    6.0688   37.0334 H   0  0  0  0  0  0  0  0  0  0  0  0
   15.6621    4.1378   38.4682 H   0  0  0  0  0  0  0  0  0  0  0  0
  1  3  1  0
  2  3  2  0
  3  4  1  0
  4  5  1  0
  4  7  1  0
  5  6  1  0
  7  8  1  0
  8  9  2  0
  8 13  1  0
  9 10  1  0
 10 11  2  0
 10 19  1  0
 11 12  1  0
 11 14  1  0
 12 13  2  0
 14 15  1  0
 15 16  1  0
 16 17  1  0
 17 18  1  0
 19 20  1  0
 20 21  1  0
 21 22  2  0
 21 23  1  0
 23 24  2  0
 23 28  1  0
 24 25  1  0
 24 30  1  0
 25 26  2  0
 26 27  1  0
 26 29  1  0
 27 28  2  0
 29 31  1  6
 29 32  1  0
 29 33  1  0
  4 34  1  1
  5 35  1  0
  5 36  1  0
  6 37  1  0
  6 38  1  0
  6 39  1  0
  7 40  1  0
  7 41  1  0
  9 42  1  0
 12 43  1  0
 13 44  1  0
 15 45  1  0
 15 46  1  0
 16 47  1  0
 16 48  1  0
 17 49  1  0
 17 50  1  0
 18 51  1  0
 18 52  1  0
 18 53  1  0
 19 54  1  0
 19 55  1  0
 20 56  1  0
 25 57  1  0
 27 58  1  0
 28 59  1  0
M  CHG  1   1  -1
M  END
>  <filename_input>  (23) 
7VWF_K55_docked.sdf

>  <pdb_id>  (23) 
7VWF_K55

>  <pose_rank>  (23) 
22

>  <num_atoms_heavy>  (23) 
33

>  <num_torsions>  (23) 
12

>  <pose>  (23) 
[9.287200135954459, 0.670716101562791, 40.41532047191921, -0.40597668845759877, -2.7205928282729706, -1.5290350692942345, 3.1203666518790247, -0.779504817890828, 2.0771810465287475, 2.0663450078527466, -7.5552162957691955, -0.7612454976423709, 1.3792597765142733, 3.560221397883882, 5.835204478273762, 0.6990160321620738, -2.311615866865106, -1.8726547163022134]

>  <energy>  (23) 
-576.3212542434857

>  <inter_energy>  (23) 
-589.3647950692982

>  <intra_energy>  (23) 
5.785710624075474

>  <rmsd>  (23) 
9.38546

>  <sdf_rank>  (23) 
0

$$$$

     RDKit          3D

 59 60  0  0  0  0  0  0  0  0999 V2000
   10.5052    2.9186   41.3427 O   0  0  0  0  0  0  0  0  0  0  0  0
   11.4227    1.6067   42.8536 O   0  0  0  0  0  0  0  0  0  0  0  0
   11.3208    2.7026   42.2603 C   0  0  0  0  0  0  0  0  0  0  0  0
   12.2818    3.8345   42.6495 C   0  0  1  0  0  0  0  0  0  0  0  0
   12.2255    4.1317   44.1562 C   0  0  0  0  0  0  0  0  0  0  0  0
   13.5052    4.7487   44.6918 C   0  0  0  0  0  0  0  0  0  0  0  0
   13.6914    3.4558   42.1820 C   0  0  0  0  0  0  0  0  0  0  0  0
   13.9848    3.7205   40.7253 C   0  0  0  0  0  0  0  0  0  0  0  0
   13.8121    2.7300   39.7583 C   0  0  0  0  0  0  0  0  0  0  0  0
   14.1061    2.9492   38.4135 C   0  0  0  0  0  0  0  0  0  0  0  0
   14.5970    4.2052   38.0454 C   0  0  0  0  0  0  0  0  0  0  0  0
   14.7911    5.1942   38.9931 C   0  0  0  0  0  0  0  0  0  0  0  0
   14.4862    4.9448   40.3173 C   0  0  0  0  0  0  0  0  0  0  0  0
   14.8951    4.3678   36.7211 O   0  0  0  0  0  0  0  0  0  0  0  0
   14.9623    5.7057   36.2111 C   0  0  0  0  0  0  0  0  0  0  0  0
   14.5433    5.6797   34.7657 C   0  0  0  0  0  0  0  0  0  0  0  0
   14.1594    7.0216   34.1934 C   0  0  0  0  0  0  0  0  0  0  0  0
   15.1435    8.1262   34.5080 C   0  0  0  0  0  0  0  0  0  0  0  0
   13.9094    1.8719   37.3798 C   0  0  0  0  0  0  0  0  0  0  0  0
   12.6204    1.9492   36.6955 N   0  0  0  0  0  0  0  0  0  0  0  0
   11.4760    1.6921   37.3331 C   0  0  0  0  0  0  0  0  0  0  0  0
   11.4381    1.3664   38.5169 O   0  0  0  0  0  0  0  0  0  0  0  0
   10.2065    1.8125   36.5470 C   0  0  0  0  0  0  0  0  0  0  0  0
   10.1314    1.9033   35.1719 C   0  0  0  0  0  0  0  0  0  0  0  0
    8.9413    2.0073   34.4905 C   0  0  0  0  0  0  0  0  0  0  0  0
    7.7527    2.0159   35.2017 C   0  0  0  0  0  0  0  0  0  0  0  0
    7.7882    1.9122   36.5803 C   0  0  0  0  0  0  0  0  0  0  0  0
    9.0000    1.8099   37.2420 C   0  0  0  0  0  0  0  0  0  0  0  0
    6.4496    2.1142   34.4808 C   0  0  2  0  0  0  0  0  0  0  0  0
   11.2699    1.8979   34.4434 F   0  0  0  0  0  0  0  0  0  0  0  0
    6.5383    1.7165   33.2207 F   0  0  0  0  0  0  0  0  0  0  0  0
    5.9676    3.3535   34.4399 F   0  0  0  0  0  0  0  0  0  0  0  0
    5.5017    1.3700   35.0378 F   0  0  0  0  0  0  0  0  0  0  0  0
   11.9786    4.7676   42.1520 H   0  0  0  0  0  0  0  0  0  0  0  0
   11.3957    4.8288   44.3444 H   0  0  0  0  0  0  0  0  0  0  0  0
   12.0835    3.1716   44.6740 H   0  0  0  0  0  0  0  0  0  0  0  0
   13.4847    4.7388   45.7915 H   0  0  0  0  0  0  0  0  0  0  0  0
   14.3691    4.1681   44.3359 H   0  0  0  0  0  0  0  0  0  0  0  0
   13.5890    5.7861   44.3359 H   0  0  0  0  0  0  0  0  0  0  0  0
   14.4132    4.0285   42.7828 H   0  0  0  0  0  0  0  0  0  0  0  0
   13.7712    2.3666   42.3135 H   0  0  0  0  0  0  0  0  0  0  0  0
   13.4319    1.7449   40.0667 H   0  0  0  0  0  0  0  0  0  0  0  0
   15.1869    6.1758   38.6934 H   0  0  0  0  0  0  0  0  0  0  0  0
   14.6455    5.7366   41.0641 H   0  0  0  0  0  0  0  0  0  0  0  0
   14.2852    6.3567   36.7835 H   0  0  0  0  0  0  0  0  0  0  0  0
   15.9866    6.0962   36.3028 H   0  0  0  0  0  0  0  0  0  0  0  0
   15.3810    5.2824   34.1738 H   0  0  0  0  0  0  0  0  0  0  0  0
   13.6407    5.0528   34.7166 H   0  0  0  0  0  0  0  0  0  0  0  0
   14.0863    6.9238   33.1002 H   0  0  0  0  0  0  0  0  0  0  0  0
   13.2028    7.3046   34.6569 H   0  0  0  0  0  0  0  0  0  0  0  0
   15.2386    8.2329   35.5987 H   0  0  0  0  0  0  0  0  0  0  0  0
   16.1245    7.8770   34.0771 H   0  0  0  0  0  0  0  0  0  0  0  0
   14.7833    9.0720   34.0771 H   0  0  0  0  0  0  0  0  0  0  0  0
   14.7082    1.9600   36.6287 H   0  0  0  0  0  0  0  0  0  0  0  0
   13.9381    0.9074   37.9080 H   0  0  0  0  0  0  0  0  0  0  0  0
   12.5943    2.2079   35.6989 H   0  0  0  0  0  0  0  0  0  0  0  0
    8.9334    2.0828   33.3931 H   0  0  0  0  0  0  0  0  0  0  0  0
    6.8495    1.9110   37.1536 H   0  0  0  0  0  0  0  0  0  0  0  0
    9.0098    1.7249   38.3387 H   0  0  0  0  0  0  0  0  0  0  0  0
  1  3  1  0
  2  3  2  0
  3  4  1  0
  4  5  1  0
  4  7  1  0
  5  6  1  0
  7  8  1  0
  8  9  2  0
  8 13  1  0
  9 10  1  0
 10 11  2  0
 10 19  1  0
 11 12  1  0
 11 14  1  0
 12 13  2  0
 14 15  1  0
 15 16  1  0
 16 17  1  0
 17 18  1  0
 19 20  1  0
 20 21  1  0
 21 22  2  0
 21 23  1  0
 23 24  2  0
 23 28  1  0
 24 25  1  0
 24 30  1  0
 25 26  2  0
 26 27  1  0
 26 29  1  0
 27 28  2  0
 29 31  1  6
 29 32  1  0
 29 33  1  0
  4 34  1  6
  5 35  1  0
  5 36  1  0
  6 37  1  0
  6 38  1  0
  6 39  1  0
  7 40  1  0
  7 41  1  0
  9 42  1  0
 12 43  1  0
 13 44  1  0
 15 45  1  0
 15 46  1  0
 16 47  1  0
 16 48  1  0
 17 49  1  0
 17 50  1  0
 18 51  1  0
 18 52  1  0
 18 53  1  0
 19 54  1  0
 19 55  1  0
 20 56  1  0
 25 57  1  0
 27 58  1  0
 28 59  1  0
M  CHG  1   1  -1
M  END
>  <filename_input>  (24) 
7VWF_K55_docked.sdf

>  <pdb_id>  (24) 
7VWF_K55

>  <pose_rank>  (24) 
23

>  <num_atoms_heavy>  (24) 
33

>  <num_torsions>  (24) 
12

>  <pose>  (24) 
[13.984758112585217, 3.7205328446093473, 40.725282940826645, -1.1072845966200633, -1.7828871562216522, 0.3390727580913002, -0.4450195461294442, -1.6317268044189672, -0.3054269707921307, -2.4711308411495256, -0.5627599945766194, 0.790826765682184, -2.22022748590299, 2.0029141332081406, -0.4314386426132972, 1.5837800123105912, -0.08069926662173926, -1.8099611428859232]

>  <energy>  (24) 
-588.5118180650613

>  <inter_energy>  (24) 
-616.782419902484

>  <intra_energy>  (24) 
37.070499804965635

>  <rmsd>  (24) 
7.84563

>  <sdf_rank>  (24) 
0

$$$$

     RDKit          3D

 59 60  0  0  0  0  0  0  0  0999 V2000
   14.2542    6.1361   44.4384 O   0  0  0  0  0  0  0  0  0  0  0  0
   13.8481    5.3769   46.4643 O   0  0  0  0  0  0  0  0  0  0  0  0
   13.6609    5.3755   45.2281 C   0  0  0  0  0  0  0  0  0  0  0  0
   12.6107    4.4166   44.6508 C   0  0  1  0  0  0  0  0  0  0  0  0
   11.1987    4.7533   45.1555 C   0  0  0  0  0  0  0  0  0  0  0  0
   10.3565    5.4884   44.1281 C   0  0  0  0  0  0  0  0  0  0  0  0
   12.7080    4.4547   43.1217 C   0  0  0  0  0  0  0  0  0  0  0  0
   11.9941    3.3390   42.3980 C   0  0  0  0  0  0  0  0  0  0  0  0
   12.4988    2.8024   41.2134 C   0  0  0  0  0  0  0  0  0  0  0  0
   11.8370    1.7921   40.5175 C   0  0  0  0  0  0  0  0  0  0  0  0
   10.6264    1.3229   41.0357 C   0  0  0  0  0  0  0  0  0  0  0  0
   10.1018    1.8551   42.1999 C   0  0  0  0  0  0  0  0  0  0  0  0
   10.7853    2.8534   42.8668 C   0  0  0  0  0  0  0  0  0  0  0  0
    9.9998    0.3499   40.3079 O   0  0  0  0  0  0  0  0  0  0  0  0
    9.2301   -0.6263   41.0214 C   0  0  0  0  0  0  0  0  0  0  0  0
    7.9835   -0.9137   40.2283 C   0  0  0  0  0  0  0  0  0  0  0  0
    6.9758   -1.7914   40.9283 C   0  0  0  0  0  0  0  0  0  0  0  0
    5.5472   -1.5509   40.4936 C   0  0  0  0  0  0  0  0  0  0  0  0
   12.3968    1.2186   39.2425 C   0  0  0  0  0  0  0  0  0  0  0  0
   13.2215    2.1629   38.4916 N   0  0  0  0  0  0  0  0  0  0  0  0
   12.7683    2.7587   37.3862 C   0  0  0  0  0  0  0  0  0  0  0  0
   11.6481    2.5425   36.9312 O   0  0  0  0  0  0  0  0  0  0  0  0
   13.6855    3.7214   36.6962 C   0  0  0  0  0  0  0  0  0  0  0  0
   13.3098    4.5970   35.6977 C   0  0  0  0  0  0  0  0  0  0  0  0
   14.1863    5.4688   35.0949 C   0  0  0  0  0  0  0  0  0  0  0  0
   15.5102    5.4867   35.5018 C   0  0  0  0  0  0  0  0  0  0  0  0
   15.9200    4.6333   36.5099 C   0  0  0  0  0  0  0  0  0  0  0  0
   15.0176    3.7645   37.0993 C   0  0  0  0  0  0  0  0  0  0  0  0
   16.4747    6.4345   34.8703 C   0  0  2  0  0  0  0  0  0  0  0  0
   12.0263    4.6091   35.2741 F   0  0  0  0  0  0  0  0  0  0  0  0
   16.1139    6.7796   33.6436 F   0  0  0  0  0  0  0  0  0  0  0  0
   17.7032    5.9353   34.7631 F   0  0  0  0  0  0  0  0  0  0  0  0
   16.5970    7.5670   35.5523 F   0  0  0  0  0  0  0  0  0  0  0  0
   12.8123    3.3920   44.9964 H   0  0  0  0  0  0  0  0  0  0  0  0
   10.6886    3.8151   45.4193 H   0  0  0  0  0  0  0  0  0  0  0  0
   11.3118    5.4198   46.0232 H   0  0  0  0  0  0  0  0  0  0  0  0
    9.6244    6.1274   44.6436 H   0  0  0  0  0  0  0  0  0  0  0  0
   11.0080    6.1119   43.4982 H   0  0  0  0  0  0  0  0  0  0  0  0
    9.8269    4.7585   43.4982 H   0  0  0  0  0  0  0  0  0  0  0  0
   12.2816    5.4089   42.7785 H   0  0  0  0  0  0  0  0  0  0  0  0
   13.7753    4.3355   42.8836 H   0  0  0  0  0  0  0  0  0  0  0  0
   13.4490    3.1887   40.8159 H   0  0  0  0  0  0  0  0  0  0  0  0
    9.1436    1.4847   42.5933 H   0  0  0  0  0  0  0  0  0  0  0  0
   10.3597    3.2718   43.7909 H   0  0  0  0  0  0  0  0  0  0  0  0
    9.8169   -1.5490   41.1401 H   0  0  0  0  0  0  0  0  0  0  0  0
    8.9662   -0.2465   42.0195 H   0  0  0  0  0  0  0  0  0  0  0  0
    7.4980    0.0453   39.9947 H   0  0  0  0  0  0  0  0  0  0  0  0
    8.3066   -1.4665   39.3338 H   0  0  0  0  0  0  0  0  0  0  0  0
    7.2286   -2.8418   40.7216 H   0  0  0  0  0  0  0  0  0  0  0  0
    7.0291   -1.5472   41.9995 H   0  0  0  0  0  0  0  0  0  0  0  0
    4.9070   -1.4432   41.3816 H   0  0  0  0  0  0  0  0  0  0  0  0
    5.4969   -0.6317   39.8916 H   0  0  0  0  0  0  0  0  0  0  0  0
    5.1988   -2.4031   39.8916 H   0  0  0  0  0  0  0  0  0  0  0  0
   13.0126    0.3430   39.4955 H   0  0  0  0  0  0  0  0  0  0  0  0
   11.5413    0.9561   38.6028 H   0  0  0  0  0  0  0  0  0  0  0  0
   14.1738    2.3736   38.8226 H   0  0  0  0  0  0  0  0  0  0  0  0
   13.8398    6.1442   34.2988 H   0  0  0  0  0  0  0  0  0  0  0  0
   16.9677    4.6449   36.8449 H   0  0  0  0  0  0  0  0  0  0  0  0
   15.3597    3.0948   37.9021 H   0  0  0  0  0  0  0  0  0  0  0  0
  1  3  1  0
  2  3  2  0
  3  4  1  0
  4  5  1  0
  4  7  1  0
  5  6  1  0
  7  8  1  0
  8  9  2  0
  8 13  1  0
  9 10  1  0
 10 11  2  0
 10 19  1  0
 11 12  1  0
 11 14  1  0
 12 13  2  0
 14 15  1  0
 15 16  1  0
 16 17  1  0
 17 18  1  0
 19 20  1  0
 20 21  1  0
 21 22  2  0
 21 23  1  0
 23 24  2  0
 23 28  1  0
 24 25  1  0
 24 30  1  0
 25 26  2  0
 26 27  1  0
 26 29  1  0
 27 28  2  0
 29 31  1  6
 29 32  1  0
 29 33  1  0
  4 34  1  1
  5 35  1  0
  5 36  1  0
  6 37  1  0
  6 38  1  0
  6 39  1  0
  7 40  1  0
  7 41  1  0
  9 42  1  0
 12 43  1  0
 13 44  1  0
 15 45  1  0
 15 46  1  0
 16 47  1  0
 16 48  1  0
 17 49  1  0
 17 50  1  0
 18 51  1  0
 18 52  1  0
 18 53  1  0
 19 54  1  0
 19 55  1  0
 20 56  1  0
 25 57  1  0
 27 58  1  0
 28 59  1  0
M  CHG  1   1  -1
M  END
>  <filename_input>  (25) 
7VWF_K55_docked.sdf

>  <pdb_id>  (25) 
7VWF_K55

>  <pose_rank>  (25) 
24

>  <num_atoms_heavy>  (25) 
33

>  <num_torsions>  (25) 
12

>  <pose>  (25) 
[11.994145182358523, 3.3390318418374987, 42.398048696886505, -2.0282004562451807, 1.58829141034602, -2.9284916109070025, -1.3530956641575653, -0.1593863840638054, 1.7688593039792593, 2.9054107219652705, -0.7634433561395604, -0.43304681359400826, -1.783207295434655, -2.45001076113783, -2.582142294361219, 0.9546597646629223, -3.2469315224727433, 3.632320396687532]

>  <energy>  (25) 
-491.7566390537008

>  <inter_energy>  (25) 
-556.973221419716

>  <intra_energy>  (25) 
59.33263266269119

>  <rmsd>  (25) 
9.86903

>  <sdf_rank>  (25) 
0

$$$$

     RDKit          3D

 59 60  0  0  0  0  0  0  0  0999 V2000
   18.4870   -3.1010   34.1700 O   0  0  0  0  0  0  0  0  0  0  0  0
   20.5300   -2.3450   34.4870 O   0  0  0  0  0  0  0  0  0  0  0  0
   19.2900   -2.2630   34.6250 C   0  0  0  0  0  0  0  0  0  0  0  0
   18.7170   -1.0410   35.3560 C   0  0  1  0  0  0  0  0  0  0  0  0
   19.6090   -0.6160   36.5330 C   0  0  0  0  0  0  0  0  0  0  0  0
   19.7000   -1.6680   37.6240 C   0  0  0  0  0  0  0  0  0  0  0  0
   18.5210    0.0860   34.3360 C   0  0  0  0  0  0  0  0  0  0  0  0
   17.8470    1.3290   34.8640 C   0  0  0  0  0  0  0  0  0  0  0  0
   16.5050    1.3210   35.2450 C   0  0  0  0  0  0  0  0  0  0  0  0
   15.8600    2.4670   35.7070 C   0  0  0  0  0  0  0  0  0  0  0  0
   16.5970    3.6530   35.7740 C   0  0  0  0  0  0  0  0  0  0  0  0
   17.9240    3.6840   35.3840 C   0  0  0  0  0  0  0  0  0  0  0  0
   18.5340    2.5290   34.9340 C   0  0  0  0  0  0  0  0  0  0  0  0
   15.9180    4.7570   36.2090 O   0  0  0  0  0  0  0  0  0  0  0  0
   16.5500    6.0340   36.0530 C   0  0  0  0  0  0  0  0  0  0  0  0
   15.5090    7.1020   36.2560 C   0  0  0  0  0  0  0  0  0  0  0  0
   14.4840    7.2050   35.1540 C   0  0  0  0  0  0  0  0  0  0  0  0
   15.0470    7.6910   33.8370 C   0  0  0  0  0  0  0  0  0  0  0  0
   14.4120    2.4420   36.1200 C   0  0  0  0  0  0  0  0  0  0  0  0
   14.1980    2.8140   37.5170 N   0  0  0  0  0  0  0  0  0  0  0  0
   13.0850    2.4680   38.1680 C   0  0  0  0  0  0  0  0  0  0  0  0
   12.1780    1.8340   37.6350 O   0  0  0  0  0  0  0  0  0  0  0  0
   12.9670    2.8850   39.6020 C   0  0  0  0  0  0  0  0  0  0  0  0
   13.7150    3.8770   40.2030 C   0  0  0  0  0  0  0  0  0  0  0  0
   13.5690    4.2310   41.5240 C   0  0  0  0  0  0  0  0  0  0  0  0
   12.6270    3.5760   42.3000 C   0  0  0  0  0  0  0  0  0  0  0  0
   11.8490    2.5860   41.7280 C   0  0  0  0  0  0  0  0  0  0  0  0
   12.0170    2.2480   40.3960 C   0  0  0  0  0  0  0  0  0  0  0  0
   12.4430    3.9540   43.7320 C   0  0  2  0  0  0  0  0  0  0  0  0
   14.6440    4.5390   39.4780 F   0  0  0  0  0  0  0  0  0  0  0  0
   11.1840    4.2480   44.0190 F   0  0  0  0  0  0  0  0  0  0  0  0
   13.1570    5.0190   44.0870 F   0  0  0  0  0  0  0  0  0  0  0  0
   12.7950    2.9820   44.5650 F   0  0  0  0  0  0  0  0  0  0  0  0
   17.7430   -1.2955   35.7993 H   0  0  0  0  0  0  0  0  0  0  0  0
   20.6217   -0.4196   36.1512 H   0  0  0  0  0  0  0  0  0  0  0  0
   19.1553    0.2807   36.9802 H   0  0  0  0  0  0  0  0  0  0  0  0
   19.6578   -1.1796   38.6087 H   0  0  0  0  0  0  0  0  0  0  0  0
   18.8593   -2.3707   37.5268 H   0  0  0  0  0  0  0  0  0  0  0  0
   20.6489   -2.2159   37.5268 H   0  0  0  0  0  0  0  0  0  0  0  0
   19.5116    0.3737   33.9540 H   0  0  0  0  0  0  0  0  0  0  0  0
   17.8490   -0.3179   33.5645 H   0  0  0  0  0  0  0  0  0  0  0  0
   15.9380    0.3807   35.1787 H   0  0  0  0  0  0  0  0  0  0  0  0
   18.4915    4.6251   35.4320 H   0  0  0  0  0  0  0  0  0  0  0  0
   19.5890    2.5635   34.6244 H   0  0  0  0  0  0  0  0  0  0  0  0
   17.3500    6.1472   36.7994 H   0  0  0  0  0  0  0  0  0  0  0  0
   16.9912    6.1194   35.0490 H   0  0  0  0  0  0  0  0  0  0  0  0
   14.9798    6.8894   37.1966 H   0  0  0  0  0  0  0  0  0  0  0  0
   16.0479    8.0609   36.2678 H   0  0  0  0  0  0  0  0  0  0  0  0
   14.0438    6.2093   34.9962 H   0  0  0  0  0  0  0  0  0  0  0  0
   13.7409    7.9487   35.4775 H   0  0  0  0  0  0  0  0  0  0  0  0
   15.8671    8.3989   34.0277 H   0  0  0  0  0  0  0  0  0  0  0  0
   15.4286    6.8339   33.2627 H   0  0  0  0  0  0  0  0  0  0  0  0
   14.2548    8.1936   33.2627 H   0  0  0  0  0  0  0  0  0  0  0  0
   13.8560    3.1458   35.4831 H   0  0  0  0  0  0  0  0  0  0  0  0
   14.0600    1.4064   36.0032 H   0  0  0  0  0  0  0  0  0  0  0  0
   14.9222    3.3553   38.0104 H   0  0  0  0  0  0  0  0  0  0  0  0
   14.1932    5.0253   41.9593 H   0  0  0  0  0  0  0  0  0  0  0  0
   11.0933    2.0648   42.3341 H   0  0  0  0  0  0  0  0  0  0  0  0
   11.3874    1.4605   39.9562 H   0  0  0  0  0  0  0  0  0  0  0  0
  1  3  1  0
  2  3  2  0
  3  4  1  0
  4  5  1  0
  4  7  1  0
  5  6  1  0
  7  8  1  0
  8  9  2  0
  8 13  1  0
  9 10  1  0
 10 11  2  0
 10 19  1  0
 11 12  1  0
 11 14  1  0
 12 13  2  0
 14 15  1  0
 15 16  1  0
 16 17  1  0
 17 18  1  0
 19 20  1  0
 20 21  1  0
 21 22  2  0
 21 23  1  0
 23 24  2  0
 23 28  1  0
 24 25  1  0
 24 30  1  0
 25 26  2  0
 26 27  1  0
 26 29  1  0
 27 28  2  0
 29 31  1  6
 29 32  1  0
 29 33  1  0
  4 34  1  1
  5 35  1  0
  5 36  1  0
  6 37  1  0
  6 38  1  0
  6 39  1  0
  7 40  1  0
  7 41  1  0
  9 42  1  0
 12 43  1  0
 13 44  1  0
 15 45  1  0
 15 46  1  0
 16 47  1  0
 16 48  1  0
 17 49  1  0
 17 50  1  0
 18 51  1  0
 18 52  1  0
 18 53  1  0
 19 54  1  0
 19 55  1  0
 20 56  1  0
 25 57  1  0
 27 58  1  0
 28 59  1  0
M  CHG  1   1  -1
M  END
>  <filename_input>  (26) 
7VWF_K55_docked.sdf

>  <pdb_id>  (26) 
7VWF_K55

>  <pose_rank>  (26) 
25

>  <num_atoms_heavy>  (26) 
33

>  <num_torsions>  (26) 
12

>  <pose>  (26) 
[17.847, 1.329, 34.864, 1e-06, 1e-06, 1e-06, 0.0, 0.0, 0.0, 0.0, 0.0, 0.0, 0.0, 0.0, 0.0, 0.0, 0.0, 0.0]

>  <energy>  (26) 
-1190.1940880581415

>  <inter_energy>  (26) 
-1222.9637546459053

>  <intra_energy>  (26) 
26.094328033831047

>  <rmsd>  (26) 
0.0

>  <sdf_rank>  (26) 
0

$$$$
