
     RDKit          3D

 40 42  0  0  0  0  0  0  0  0999 V2000
   54.1644  -41.3052   28.0245 N   0  0  0  0  0  0  0  0  0  0  0  0
   53.7908  -42.5651   28.2408 C   0  0  0  0  0  0  0  0  0  0  0  0
   54.2178  -43.5715   27.4647 N   0  0  0  0  0  0  0  0  0  0  0  0
   55.0632  -43.3366   26.4462 C   0  0  0  0  0  0  0  0  0  0  0  0
   55.4971  -42.0387   26.1999 C   0  0  0  0  0  0  0  0  0  0  0  0
   55.0116  -41.0063   27.0343 C   0  0  0  0  0  0  0  0  0  0  0  0
   55.4289  -39.6285   26.8080 N   0  0  0  0  0  0  0  0  0  0  0  0
   56.3350  -42.0888   25.1437 N   0  0  0  0  0  0  0  0  0  0  0  0
   56.4055  -43.3628   24.7454 C   0  0  0  0  0  0  0  0  0  0  0  0
   55.6520  -44.1386   25.5318 N   0  0  0  0  0  0  0  0  0  0  0  0
   60.0218  -48.7548   24.9727 P   0  0  1  0  0  0  0  0  0  0  0  0
   58.8956  -51.2403   24.9005 C   0  0  0  0  0  0  0  0  0  0  0  0
   55.4751  -45.5590   25.4183 C   0  0  1  0  0  0  0  0  0  0  0  0
   60.7341  -48.8448   26.3013 O   0  0  0  0  0  0  0  0  0  0  0  0
   57.7005  -51.1957   25.1136 O   0  0  0  0  0  0  0  0  0  0  0  0
   55.1117  -45.9553   23.8352 C   0  0  2  0  0  0  0  0  0  0  0  0
   53.7399  -45.5416   23.5454 O   0  0  0  0  0  0  0  0  0  0  0  0
   60.9120  -48.0200   24.0167 O   0  0  0  0  0  0  0  0  0  0  0  0
   59.7241  -52.4050   25.1906 N   0  0  0  0  0  0  0  0  0  0  0  0
   55.3053  -47.2223   23.7593 C   0  0  2  0  0  0  0  0  0  0  0  0
   54.1012  -47.9925   24.1970 O   0  0  0  0  0  0  0  0  0  0  0  0
   59.5922  -50.2013   24.2736 O   0  0  0  0  0  0  0  0  0  0  0  0
   56.4480  -47.5081   24.8085 C   0  0  2  0  0  0  0  0  0  0  0  0
   56.5706  -46.1920   25.6190 O   0  0  0  0  0  0  0  0  0  0  0  0
   57.6672  -47.8174   24.2098 C   0  0  0  0  0  0  0  0  0  0  0  0
   58.6221  -47.9106   25.2361 O   0  0  0  0  0  0  0  0  0  0  0  0
   53.1136  -42.7861   29.0790 H   0  0  0  0  0  0  0  0  0  0  0  0
   56.0819  -39.4073   26.0427 H   0  0  0  0  0  0  0  0  0  0  0  0
   55.0709  -38.8759   27.4132 H   0  0  0  0  0  0  0  0  0  0  0  0
   56.9991  -43.7220   23.8918 H   0  0  0  0  0  0  0  0  0  0  0  0
   54.6951  -45.8237   26.1473 H   0  0  0  0  0  0  0  0  0  0  0  0
   55.7332  -45.4464   23.0837 H   0  0  0  0  0  0  0  0  0  0  0  0
   53.2531  -45.3948   24.3949 H   0  0  0  0  0  0  0  0  0  0  0  0
   60.7336  -52.3825   24.9873 H   0  0  0  0  0  0  0  0  0  0  0  0
   59.2997  -53.2501   25.5988 H   0  0  0  0  0  0  0  0  0  0  0  0
   55.5409  -47.5173   22.7261 H   0  0  0  0  0  0  0  0  0  0  0  0
   54.0656  -48.0152   25.1861 H   0  0  0  0  0  0  0  0  0  0  0  0
   56.1993  -48.3825   25.4279 H   0  0  0  0  0  0  0  0  0  0  0  0
   57.5925  -48.7763   23.6762 H   0  0  0  0  0  0  0  0  0  0  0  0
   57.9516  -47.0442   23.4809 H   0  0  0  0  0  0  0  0  0  0  0  0
  1  2  2  0
  1  6  1  0
  2  3  1  0
  3  4  2  0
  4  5  1  0
  4 10  1  0
  5  6  2  0
  5  8  1  0
  6  7  1  0
  8  9  2  0
  9 10  1  0
 13 10  1  0
 11 14  1  1
 11 18  2  0
 11 22  1  0
 11 26  1  0
 12 15  2  0
 12 19  1  0
 12 22  1  0
 13 16  1  0
 13 24  1  0
 16 17  1  0
 16 20  1  0
 20 21  1  0
 20 23  1  0
 23 24  1  0
 23 25  1  0
 25 26  1  0
  2 27  1  0
  7 28  1  0
  7 29  1  0
  9 30  1  0
 13 31  1  1
 16 32  1  6
 17 33  1  0
 19 34  1  0
 19 35  1  0
 20 36  1  6
 21 37  1  0
 23 38  1  1
 25 39  1  0
 25 40  1  0
M  CHG  1  14  -1
M  END
>  <filename_input>  (1) 
7VYJ_CA0_docked.sdf

>  <pdb_id>  (1) 
7VYJ_CA0

>  <pose_rank>  (1) 
0

>  <num_atoms_heavy>  (1) 
26

>  <num_torsions>  (1) 
6

>  <pose>  (1) 
[55.47511957923653, -45.559049409706496, 25.41831731910609, -1.9642319198547646, 4.551774448974123, -3.811495769263551, 0.20241637698459336, -0.037386358607816694, -0.03029263927745852, -0.0443245224225943, -0.07681017377836459, -0.10388455301461458]

>  <energy>  (1) 
-871.9753454742994

>  <inter_energy>  (1) 
-868.768999233562

>  <intra_energy>  (1) 
0.6061687182626985

>  <rmsd>  (1) 
0.280006

>  <sdf_rank>  (1) 
0

$$$$

     RDKit          3D

 40 42  0  0  0  0  0  0  0  0999 V2000
   54.2395  -41.3493   27.9702 N   0  0  0  0  0  0  0  0  0  0  0  0
   53.7940  -42.5853   28.1887 C   0  0  0  0  0  0  0  0  0  0  0  0
   54.1731  -43.6183   27.4227 N   0  0  0  0  0  0  0  0  0  0  0  0
   55.0415  -43.4366   26.4128 C   0  0  0  0  0  0  0  0  0  0  0  0
   55.5496  -42.1662   26.1648 C   0  0  0  0  0  0  0  0  0  0  0  0
   55.1129  -41.1036   26.9882 C   0  0  0  0  0  0  0  0  0  0  0  0
   55.6086  -39.7524   26.7595 N   0  0  0  0  0  0  0  0  0  0  0  0
   56.3951  -42.2689   25.1185 N   0  0  0  0  0  0  0  0  0  0  0  0
   56.3992  -43.5471   24.7276 C   0  0  0  0  0  0  0  0  0  0  0  0
   55.5950  -44.2753   25.5093 N   0  0  0  0  0  0  0  0  0  0  0  0
   60.0063  -48.1953   24.8825 P   0  0  1  0  0  0  0  0  0  0  0  0
   59.9771  -45.6856   23.8092 C   0  0  0  0  0  0  0  0  0  0  0  0
   55.3407  -45.6844   25.4012 C   0  0  1  0  0  0  0  0  0  0  0  0
   59.9901  -49.4170   23.9948 O   0  0  0  0  0  0  0  0  0  0  0  0
   59.4947  -45.5807   22.6992 O   0  0  0  0  0  0  0  0  0  0  0  0
   55.0000  -46.0734   23.8112 C   0  0  2  0  0  0  0  0  0  0  0  0
   53.6628  -45.5852   23.4793 O   0  0  0  0  0  0  0  0  0  0  0  0
   60.7652  -48.5362   26.1291 O   0  0  0  0  0  0  0  0  0  0  0  0
   59.8119  -44.6864   24.8586 N   0  0  0  0  0  0  0  0  0  0  0  0
   55.1232  -47.3500   23.7501 C   0  0  2  0  0  0  0  0  0  0  0  0
   53.8653  -48.0467   24.1588 O   0  0  0  0  0  0  0  0  0  0  0  0
   60.6778  -46.8229   24.2257 O   0  0  0  0  0  0  0  0  0  0  0  0
   56.2178  -47.6908   24.8337 C   0  0  2  0  0  0  0  0  0  0  0  0
   56.3923  -46.3766   25.6377 O   0  0  0  0  0  0  0  0  0  0  0  0
   57.4337  -48.0741   24.2723 C   0  0  0  0  0  0  0  0  0  0  0  0
   58.4285  -47.8397   25.2364 O   0  0  0  0  0  0  0  0  0  0  0  0
   53.0963  -42.7634   29.0202 H   0  0  0  0  0  0  0  0  0  0  0  0
   56.2813  -39.5722   26.0007 H   0  0  0  0  0  0  0  0  0  0  0  0
   55.2862  -38.9776   27.3567 H   0  0  0  0  0  0  0  0  0  0  0  0
   56.9814  -43.9436   23.8827 H   0  0  0  0  0  0  0  0  0  0  0  0
   54.5267  -45.8978   26.1095 H   0  0  0  0  0  0  0  0  0  0  0  0
   55.6704  -45.6073   23.0741 H   0  0  0  0  0  0  0  0  0  0  0  0
   53.1618  -45.4023   24.3134 H   0  0  0  0  0  0  0  0  0  0  0  0
   60.2459  -44.8320   25.7813 H   0  0  0  0  0  0  0  0  0  0  0  0
   59.2611  -43.8352   24.6772 H   0  0  0  0  0  0  0  0  0  0  0  0
   55.3706  -47.6671   22.7262 H   0  0  0  0  0  0  0  0  0  0  0  0
   53.8109  -48.0769   25.1468 H   0  0  0  0  0  0  0  0  0  0  0  0
   55.9024  -48.5442   25.4520 H   0  0  0  0  0  0  0  0  0  0  0  0
   57.4076  -49.1419   24.0096 H   0  0  0  0  0  0  0  0  0  0  0  0
   57.6373  -47.5032   23.3543 H   0  0  0  0  0  0  0  0  0  0  0  0
  1  2  2  0
  1  6  1  0
  2  3  1  0
  3  4  2  0
  4  5  1  0
  4 10  1  0
  5  6  2  0
  5  8  1  0
  6  7  1  0
  8  9  2  0
  9 10  1  0
 13 10  1  0
 11 14  1  6
 11 18  2  0
 11 22  1  0
 11 26  1  0
 12 15  2  0
 12 19  1  0
 12 22  1  0
 13 16  1  0
 13 24  1  0
 16 17  1  0
 16 20  1  0
 20 21  1  0
 20 23  1  0
 23 24  1  0
 23 25  1  0
 25 26  1  0
  2 27  1  0
  7 28  1  0
  7 29  1  0
  9 30  1  0
 13 31  1  1
 16 32  1  6
 17 33  1  0
 19 34  1  0
 19 35  1  0
 20 36  1  6
 21 37  1  0
 23 38  1  1
 25 39  1  0
 25 40  1  0
M  CHG  1  14  -1
M  END
>  <filename_input>  (2) 
7VYJ_CA0_docked.sdf

>  <pdb_id>  (2) 
7VYJ_CA0

>  <pose_rank>  (2) 
1

>  <num_atoms_heavy>  (2) 
26

>  <num_torsions>  (2) 
6

>  <pose>  (2) 
[55.34074419321574, -45.684383996361994, 25.401165373704714, -0.03922053574757789, 4.93959055262674, 3.779626442803006, 0.2197560001370249, -0.3295113366765154, 6.619000414378055, 2.356046665442664, 0.9163592022802305, 3.3546622360890463]

>  <energy>  (2) 
-795.8856973245685

>  <inter_energy>  (2) 
-793.4253261886516

>  <intra_energy>  (2) 
2.6946304279514894

>  <rmsd>  (2) 
2.42744

>  <sdf_rank>  (2) 
0

$$$$

     RDKit          3D

 40 42  0  0  0  0  0  0  0  0999 V2000
   58.1151  -41.0210   24.9081 N   0  0  0  0  0  0  0  0  0  0  0  0
   58.4509  -42.2557   24.5386 C   0  0  0  0  0  0  0  0  0  0  0  0
   57.6861  -43.3152   24.8385 N   0  0  0  0  0  0  0  0  0  0  0  0
   56.5329  -43.1561   25.5107 C   0  0  0  0  0  0  0  0  0  0  0  0
   56.1328  -41.8810   25.8949 C   0  0  0  0  0  0  0  0  0  0  0  0
   56.9758  -40.7940   25.5699 C   0  0  0  0  0  0  0  0  0  0  0  0
   56.6045  -39.4404   25.9616 N   0  0  0  0  0  0  0  0  0  0  0  0
   54.9513  -42.0062   26.5340 N   0  0  0  0  0  0  0  0  0  0  0  0
   54.6406  -43.3060   26.5557 C   0  0  0  0  0  0  0  0  0  0  0  0
   55.5806  -44.0197   25.9273 N   0  0  0  0  0  0  0  0  0  0  0  0
   60.0772  -48.7823   25.1368 P   0  0  1  0  0  0  0  0  0  0  0  0
   58.6636  -51.1151   25.0303 C   0  0  0  0  0  0  0  0  0  0  0  0
   55.5968  -45.4439   25.7451 C   0  0  1  0  0  0  0  0  0  0  0  0
   60.6336  -49.0860   26.5075 O   0  0  0  0  0  0  0  0  0  0  0  0
   57.4787  -51.1611   25.2939 O   0  0  0  0  0  0  0  0  0  0  0  0
   55.2233  -45.8115   24.1574 C   0  0  2  0  0  0  0  0  0  0  0  0
   53.7963  -45.5807   23.9399 O   0  0  0  0  0  0  0  0  0  0  0  0
   61.2170  -48.3780   24.2515 O   0  0  0  0  0  0  0  0  0  0  0  0
   59.5867  -52.2189   25.2681 N   0  0  0  0  0  0  0  0  0  0  0  0
   55.5865  -47.0339   24.0074 C   0  0  2  0  0  0  0  0  0  0  0  0
   54.5203  -47.9850   24.4470 O   0  0  0  0  0  0  0  0  0  0  0  0
   59.2549  -50.0202   24.3904 O   0  0  0  0  0  0  0  0  0  0  0  0
   56.8021  -47.2063   24.9979 C   0  0  2  0  0  0  0  0  0  0  0  0
   56.7768  -45.9260   25.8721 O   0  0  0  0  0  0  0  0  0  0  0  0
   58.0252  -47.3130   24.3398 C   0  0  0  0  0  0  0  0  0  0  0  0
   59.0068  -47.5327   25.3206 O   0  0  0  0  0  0  0  0  0  0  0  0
   59.3810  -42.4104   23.9720 H   0  0  0  0  0  0  0  0  0  0  0  0
   55.7248  -39.2748   26.4713 H   0  0  0  0  0  0  0  0  0  0  0  0
   57.2216  -38.6493   25.7289 H   0  0  0  0  0  0  0  0  0  0  0  0
   53.7395  -43.7287   27.0241 H   0  0  0  0  0  0  0  0  0  0  0  0
   54.8930  -45.8495   26.4869 H   0  0  0  0  0  0  0  0  0  0  0  0
   55.7355  -45.1855   23.4119 H   0  0  0  0  0  0  0  0  0  0  0  0
   53.3371  -45.5065   24.8138 H   0  0  0  0  0  0  0  0  0  0  0  0
   60.5822  -52.1196   25.0231 H   0  0  0  0  0  0  0  0  0  0  0  0
   59.2431  -53.0978   25.6810 H   0  0  0  0  0  0  0  0  0  0  0  0
   55.8156  -47.2435   22.9521 H   0  0  0  0  0  0  0  0  0  0  0  0
   54.4898  -48.0123   25.4361 H   0  0  0  0  0  0  0  0  0  0  0  0
   56.7035  -48.1353   25.5785 H   0  0  0  0  0  0  0  0  0  0  0  0
   58.0014  -48.1569   23.6346 H   0  0  0  0  0  0  0  0  0  0  0  0
   58.2421  -46.3986   23.7681 H   0  0  0  0  0  0  0  0  0  0  0  0
  1  2  2  0
  1  6  1  0
  2  3  1  0
  3  4  2  0
  4  5  1  0
  4 10  1  0
  5  6  2  0
  5  8  1  0
  6  7  1  0
  8  9  2  0
  9 10  1  0
 13 10  1  0
 11 14  1  1
 11 18  2  0
 11 22  1  0
 11 26  1  0
 12 15  2  0
 12 19  1  0
 12 22  1  0
 13 16  1  0
 13 24  1  0
 16 17  1  0
 16 20  1  0
 20 21  1  0
 20 23  1  0
 23 24  1  0
 23 25  1  0
 25 26  1  0
  2 27  1  0
  7 28  1  0
  7 29  1  0
  9 30  1  0
 13 31  1  1
 16 32  1  6
 17 33  1  0
 19 34  1  0
 19 35  1  0
 20 36  1  6
 21 37  1  0
 23 38  1  1
 25 39  1  0
 25 40  1  0
M  CHG  1  14  -1
M  END
>  <filename_input>  (3) 
7VYJ_CA0_docked.sdf

>  <pdb_id>  (3) 
7VYJ_CA0

>  <pose_rank>  (3) 
2

>  <num_atoms_heavy>  (3) 
26

>  <num_torsions>  (3) 
6

>  <pose>  (3) 
[55.59675597509338, -45.44393729975264, 25.745107051681856, -2.22304145982348, -0.6646742656742223, -5.656022465530631, 2.9016414687660217, 0.12183849281856989, -0.5385256208428943, 6.455599314781851, 5.706703106066755, 0.2877442094001008]

>  <energy>  (3) 
-784.3134540975726

>  <inter_energy>  (3) 
-785.1855626079222

>  <intra_energy>  (3) 
9.545454864068123

>  <rmsd>  (3) 
2.00146

>  <sdf_rank>  (3) 
0

$$$$

     RDKit          3D

 40 42  0  0  0  0  0  0  0  0999 V2000
   55.5124  -40.1380   27.2929 N   0  0  0  0  0  0  0  0  0  0  0  0
   56.1630  -39.9651   26.1436 C   0  0  0  0  0  0  0  0  0  0  0  0
   56.5846  -41.0034   25.4077 N   0  0  0  0  0  0  0  0  0  0  0  0
   56.3403  -42.2646   25.8037 C   0  0  0  0  0  0  0  0  0  0  0  0
   55.6432  -42.4899   26.9856 C   0  0  0  0  0  0  0  0  0  0  0  0
   55.2290  -41.3667   27.7371 C   0  0  0  0  0  0  0  0  0  0  0  0
   54.5057  -41.5528   28.9884 N   0  0  0  0  0  0  0  0  0  0  0  0
   55.5288  -43.8257   27.1360 N   0  0  0  0  0  0  0  0  0  0  0  0
   56.1412  -44.4022   26.0972 C   0  0  0  0  0  0  0  0  0  0  0  0
   56.6282  -43.4719   25.2694 N   0  0  0  0  0  0  0  0  0  0  0  0
   59.1349  -48.3482   24.8655 P   0  0  1  0  0  0  0  0  0  0  0  0
   57.3499  -50.2217   23.9968 C   0  0  0  0  0  0  0  0  0  0  0  0
   57.3475  -43.7031   24.0482 C   0  0  1  0  0  0  0  0  0  0  0  0
   59.7663  -48.2106   26.2305 O   0  0  0  0  0  0  0  0  0  0  0  0
   57.6840  -51.3597   24.2598 O   0  0  0  0  0  0  0  0  0  0  0  0
   58.9852  -43.7989   24.3704 C   0  0  2  0  0  0  0  0  0  0  0  0
   59.4893  -42.4598   24.6692 O   0  0  0  0  0  0  0  0  0  0  0  0
   60.0925  -49.0902   23.9830 O   0  0  0  0  0  0  0  0  0  0  0  0
   56.5115  -49.8700   22.8564 N   0  0  0  0  0  0  0  0  0  0  0  0
   59.4977  -44.3307   23.3200 C   0  0  2  0  0  0  0  0  0  0  0  0
   59.7943  -43.3076   22.2713 O   0  0  0  0  0  0  0  0  0  0  0  0
   57.6687  -49.1312   24.8134 O   0  0  0  0  0  0  0  0  0  0  0  0
   58.3559  -45.2606   22.7542 C   0  0  2  0  0  0  0  0  0  0  0  0
   57.0923  -44.8588   23.5579 O   0  0  0  0  0  0  0  0  0  0  0  0
   58.6249  -46.6159   22.9305 C   0  0  0  0  0  0  0  0  0  0  0  0
   58.8839  -46.8135   24.2972 O   0  0  0  0  0  0  0  0  0  0  0  0
   56.3597  -38.9426   25.7887 H   0  0  0  0  0  0  0  0  0  0  0  0
   54.2916  -42.5031   29.3231 H   0  0  0  0  0  0  0  0  0  0  0  0
   54.2084  -40.7341   29.5381 H   0  0  0  0  0  0  0  0  0  0  0  0
   56.2318  -45.4879   25.9450 H   0  0  0  0  0  0  0  0  0  0  0  0
   57.0609  -42.8847   23.3714 H   0  0  0  0  0  0  0  0  0  0  0  0
   59.2421  -44.4086   25.2492 H   0  0  0  0  0  0  0  0  0  0  0  0
   59.5358  -42.3360   25.6504 H   0  0  0  0  0  0  0  0  0  0  0  0
   56.2615  -48.8856   22.6852 H   0  0  0  0  0  0  0  0  0  0  0  0
   56.1693  -50.6060   22.2223 H   0  0  0  0  0  0  0  0  0  0  0  0
   60.4368  -44.8479   23.5661 H   0  0  0  0  0  0  0  0  0  0  0  0
   60.0421  -42.4528   22.7049 H   0  0  0  0  0  0  0  0  0  0  0  0
   58.2455  -45.1260   21.6680 H   0  0  0  0  0  0  0  0  0  0  0  0
   57.7566  -47.2160   22.6208 H   0  0  0  0  0  0  0  0  0  0  0  0
   59.4867  -46.9256   22.3210 H   0  0  0  0  0  0  0  0  0  0  0  0
  1  2  2  0
  1  6  1  0
  2  3  1  0
  3  4  2  0
  4  5  1  0
  4 10  1  0
  5  6  2  0
  5  8  1  0
  6  7  1  0
  8  9  2  0
  9 10  1  0
 13 10  1  0
 11 14  1  1
 11 18  2  0
 11 22  1  0
 11 26  1  0
 12 15  2  0
 12 19  1  0
 12 22  1  0
 13 16  1  0
 13 24  1  0
 16 17  1  0
 16 20  1  0
 20 21  1  0
 20 23  1  0
 23 24  1  0
 23 25  1  0
 25 26  1  0
  2 27  1  0
  7 28  1  0
  7 29  1  0
  9 30  1  0
 13 31  1  6
 16 32  1  1
 17 33  1  0
 19 34  1  0
 19 35  1  0
 20 36  1  1
 21 37  1  0
 23 38  1  6
 25 39  1  0
 25 40  1  0
M  CHG  1  14  -1
M  END
>  <filename_input>  (4) 
7VYJ_CA0_docked.sdf

>  <pdb_id>  (4) 
7VYJ_CA0

>  <pose_rank>  (4) 
3

>  <num_atoms_heavy>  (4) 
26

>  <num_torsions>  (4) 
6

>  <pose>  (4) 
[57.34745312144591, -43.70312859332928, 24.048226651459398, 1.1983187239212352, -1.8704233761223357, -0.9885346002134943, -0.5121553914412579, 4.1562788001959285, 0.2604062940887187, -6.748491198894551, 3.109237228070872, -0.038709412718269734]

>  <energy>  (4) 
-629.0172229169181

>  <inter_energy>  (4) 
-643.4477176451481

>  <intra_energy>  (4) 
13.501951949979064

>  <rmsd>  (4) 
3.27468

>  <sdf_rank>  (4) 
0

$$$$

     RDKit          3D

 40 42  0  0  0  0  0  0  0  0999 V2000
   57.4336  -40.6962   25.5310 N   0  0  0  0  0  0  0  0  0  0  0  0
   57.7771  -41.8944   25.0619 C   0  0  0  0  0  0  0  0  0  0  0  0
   57.0068  -42.9750   25.2529 N   0  0  0  0  0  0  0  0  0  0  0  0
   55.8403  -42.8735   25.9133 C   0  0  0  0  0  0  0  0  0  0  0  0
   55.4322  -41.6362   26.3992 C   0  0  0  0  0  0  0  0  0  0  0  0
   56.2812  -40.5263   26.1872 C   0  0  0  0  0  0  0  0  0  0  0  0
   55.9016  -39.2115   26.6881 N   0  0  0  0  0  0  0  0  0  0  0  0
   54.2382  -41.8151   27.0013 N   0  0  0  0  0  0  0  0  0  0  0  0
   53.9275  -43.1114   26.9033 C   0  0  0  0  0  0  0  0  0  0  0  0
   54.8802  -43.7688   26.2338 N   0  0  0  0  0  0  0  0  0  0  0  0
   58.2631  -49.4630   24.2207 P   0  0  1  0  0  0  0  0  0  0  0  0
   60.7247  -48.3392   24.5800 C   0  0  0  0  0  0  0  0  0  0  0  0
   54.9005  -45.1718   25.9284 C   0  0  1  0  0  0  0  0  0  0  0  0
   57.5607  -50.3830   23.2507 O   0  0  0  0  0  0  0  0  0  0  0  0
   61.1107  -48.3292   25.7318 O   0  0  0  0  0  0  0  0  0  0  0  0
   54.9562  -45.3852   24.2711 C   0  0  2  0  0  0  0  0  0  0  0  0
   53.6481  -45.0587   23.7063 O   0  0  0  0  0  0  0  0  0  0  0  0
   57.9572  -49.9320   25.6109 O   0  0  0  0  0  0  0  0  0  0  0  0
   61.1250  -47.3496   23.5862 N   0  0  0  0  0  0  0  0  0  0  0  0
   55.3082  -46.6091   24.1075 C   0  0  2  0  0  0  0  0  0  0  0  0
   54.1341  -47.5331   24.1569 O   0  0  0  0  0  0  0  0  0  0  0  0
   59.9151  -49.3558   24.0616 O   0  0  0  0  0  0  0  0  0  0  0  0
   56.2069  -46.9300   25.3637 C   0  0  2  0  0  0  0  0  0  0  0  0
   55.9874  -45.7272   26.3171 O   0  0  0  0  0  0  0  0  0  0  0  0
   57.5580  -47.0492   25.0459 C   0  0  0  0  0  0  0  0  0  0  0  0
   57.6536  -47.9447   23.9676 O   0  0  0  0  0  0  0  0  0  0  0  0
   58.7184  -42.0004   24.5027 H   0  0  0  0  0  0  0  0  0  0  0  0
   55.0119  -39.0897   27.1926 H   0  0  0  0  0  0  0  0  0  0  0  0
   56.5230  -38.4039   26.5376 H   0  0  0  0  0  0  0  0  0  0  0  0
   53.0174  -43.5720   27.3149 H   0  0  0  0  0  0  0  0  0  0  0  0
   54.0110  -45.5980   26.4154 H   0  0  0  0  0  0  0  0  0  0  0  0
   55.6691  -44.7288   23.7506 H   0  0  0  0  0  0  0  0  0  0  0  0
   53.0029  -44.8976   24.4397 H   0  0  0  0  0  0  0  0  0  0  0  0
   60.7635  -47.4110   22.6237 H   0  0  0  0  0  0  0  0  0  0  0  0
   61.7692  -46.5894   23.8469 H   0  0  0  0  0  0  0  0  0  0  0  0
   55.8059  -46.7429   23.1357 H   0  0  0  0  0  0  0  0  0  0  0  0
   53.8992  -47.7180   25.1007 H   0  0  0  0  0  0  0  0  0  0  0  0
   55.9271  -47.8971   25.8068 H   0  0  0  0  0  0  0  0  0  0  0  0
   57.9655  -46.0686   24.7588 H   0  0  0  0  0  0  0  0  0  0  0  0
   58.1316  -47.4157   25.9100 H   0  0  0  0  0  0  0  0  0  0  0  0
  1  2  2  0
  1  6  1  0
  2  3  1  0
  3  4  2  0
  4  5  1  0
  4 10  1  0
  5  6  2  0
  5  8  1  0
  6  7  1  0
  8  9  2  0
  9 10  1  0
 13 10  1  0
 11 14  1  6
 11 18  2  0
 11 22  1  0
 11 26  1  0
 12 15  2  0
 12 19  1  0
 12 22  1  0
 13 16  1  0
 13 24  1  0
 16 17  1  0
 16 20  1  0
 20 21  1  0
 20 23  1  0
 23 24  1  0
 23 25  1  0
 25 26  1  0
  2 27  1  0
  7 28  1  0
  7 29  1  0
  9 30  1  0
 13 31  1  1
 16 32  1  6
 17 33  1  0
 19 34  1  0
 19 35  1  0
 20 36  1  6
 21 37  1  0
 23 38  1  1
 25 39  1  0
 25 40  1  0
M  CHG  1  14  -1
M  END
>  <filename_input>  (5) 
7VYJ_CA0_docked.sdf

>  <pdb_id>  (5) 
7VYJ_CA0

>  <pose_rank>  (5) 
4

>  <num_atoms_heavy>  (5) 
26

>  <num_torsions>  (5) 
6

>  <pose>  (5) 
[54.900472164913026, -45.17178065940925, 25.92838415072875, 0.13023254154244354, -0.2598407404722048, 0.1213998391717702, 3.1558017263215308, 2.3242417623369835, 1.59631886374396, -0.7436067114376769, 1.866301595275355, 0.011268574652197091]

>  <energy>  (5) 
-755.6408636214597

>  <inter_energy>  (5) 
-766.372902929381

>  <intra_energy>  (5) 
12.833778486169502

>  <rmsd>  (5) 
2.68868

>  <sdf_rank>  (5) 
0

$$$$

     RDKit          3D

 40 42  0  0  0  0  0  0  0  0999 V2000
   54.6092  -40.7599   27.7644 N   0  0  0  0  0  0  0  0  0  0  0  0
   54.1482  -41.9777   28.0444 C   0  0  0  0  0  0  0  0  0  0  0  0
   54.5103  -43.0518   27.3284 N   0  0  0  0  0  0  0  0  0  0  0  0
   55.3770  -42.9312   26.3078 C   0  0  0  0  0  0  0  0  0  0  0  0
   55.9010  -41.6813   25.9965 C   0  0  0  0  0  0  0  0  0  0  0  0
   55.4818  -40.5741   26.7687 C   0  0  0  0  0  0  0  0  0  0  0  0
   55.9946  -39.2425   26.4728 N   0  0  0  0  0  0  0  0  0  0  0  0
   56.7408  -41.8462   24.9537 N   0  0  0  0  0  0  0  0  0  0  0  0
   56.7263  -43.1418   24.6255 C   0  0  0  0  0  0  0  0  0  0  0  0
   55.9157  -43.8202   25.4444 N   0  0  0  0  0  0  0  0  0  0  0  0
   56.8360  -50.1370   23.3175 P   0  0  1  0  0  0  0  0  0  0  0  0
   59.1396  -50.8359   24.6045 C   0  0  0  0  0  0  0  0  0  0  0  0
   55.6422  -45.2294   25.4059 C   0  0  1  0  0  0  0  0  0  0  0  0
   57.1803  -50.9012   22.0611 O   0  0  0  0  0  0  0  0  0  0  0  0
   60.0433  -50.0910   24.2817 O   0  0  0  0  0  0  0  0  0  0  0  0
   55.0042  -45.6373   23.9153 C   0  0  2  0  0  0  0  0  0  0  0  0
   53.6294  -45.1469   23.8372 O   0  0  0  0  0  0  0  0  0  0  0  0
   55.4216  -50.4657   23.6887 O   0  0  0  0  0  0  0  0  0  0  0  0
   59.3476  -52.2014   25.0725 N   0  0  0  0  0  0  0  0  0  0  0  0
   55.1105  -46.9152   23.8493 C   0  0  2  0  0  0  0  0  0  0  0  0
   53.9518  -47.6004   24.4993 O   0  0  0  0  0  0  0  0  0  0  0  0
   57.8007  -50.4310   24.6399 O   0  0  0  0  0  0  0  0  0  0  0  0
   56.3906  -47.2472   24.7094 C   0  0  2  0  0  0  0  0  0  0  0  0
   56.7179  -45.9236   25.4475 O   0  0  0  0  0  0  0  0  0  0  0  0
   57.4765  -47.6437   23.9322 C   0  0  0  0  0  0  0  0  0  0  0  0
   56.9879  -48.5285   22.9563 O   0  0  0  0  0  0  0  0  0  0  0  0
   53.4514  -42.1057   28.8859 H   0  0  0  0  0  0  0  0  0  0  0  0
   56.6666  -39.1086   25.7039 H   0  0  0  0  0  0  0  0  0  0  0  0
   55.6850  -38.4353   27.0327 H   0  0  0  0  0  0  0  0  0  0  0  0
   57.2998  -43.5869   23.7990 H   0  0  0  0  0  0  0  0  0  0  0  0
   54.9773  -45.4296   26.2590 H   0  0  0  0  0  0  0  0  0  0  0  0
   55.5231  -45.1841   23.0578 H   0  0  0  0  0  0  0  0  0  0  0  0
   53.2720  -45.0194   24.7517 H   0  0  0  0  0  0  0  0  0  0  0  0
   58.5400  -52.7855   25.3323 H   0  0  0  0  0  0  0  0  0  0  0  0
   60.3022  -52.5818   25.1433 H   0  0  0  0  0  0  0  0  0  0  0  0
   55.1578  -47.2467   22.8015 H   0  0  0  0  0  0  0  0  0  0  0  0
   54.0454  -47.5450   25.4833 H   0  0  0  0  0  0  0  0  0  0  0  0
   56.1965  -48.0909   25.3880 H   0  0  0  0  0  0  0  0  0  0  0  0
   57.9353  -46.7675   23.4507 H   0  0  0  0  0  0  0  0  0  0  0  0
   58.2434  -48.1310   24.5523 H   0  0  0  0  0  0  0  0  0  0  0  0
  1  2  2  0
  1  6  1  0
  2  3  1  0
  3  4  2  0
  4  5  1  0
  4 10  1  0
  5  6  2  0
  5  8  1  0
  6  7  1  0
  8  9  2  0
  9 10  1  0
 13 10  1  0
 11 14  1  6
 11 18  2  0
 11 22  1  0
 11 26  1  0
 12 15  2  0
 12 19  1  0
 12 22  1  0
 13 16  1  0
 13 24  1  0
 16 17  1  0
 16 20  1  0
 20 21  1  0
 20 23  1  0
 23 24  1  0
 23 25  1  0
 25 26  1  0
  2 27  1  0
  7 28  1  0
  7 29  1  0
  9 30  1  0
 13 31  1  1
 16 32  1  6
 17 33  1  0
 19 34  1  0
 19 35  1  0
 20 36  1  6
 21 37  1  0
 23 38  1  1
 25 39  1  0
 25 40  1  0
M  CHG  1  14  -1
M  END
>  <filename_input>  (6) 
7VYJ_CA0_docked.sdf

>  <pdb_id>  (6) 
7VYJ_CA0

>  <pose_rank>  (6) 
5

>  <num_atoms_heavy>  (6) 
26

>  <num_torsions>  (6) 
6

>  <pose>  (6) 
[55.642171057760656, -45.229367586995735, 25.405905426575607, -0.016752547640165014, 0.14088150718452727, -0.04166262950538897, -6.254711706929496, -16.391986340914084, -35.716068029754005, -18.40910826105974, 5.808572226617707, -0.15980397057768278]

>  <energy>  (6) 
-758.8453076863619

>  <inter_energy>  (6) 
-770.6150089355626

>  <intra_energy>  (6) 
4.295779692653322

>  <rmsd>  (6) 
2.04655

>  <sdf_rank>  (6) 
0

$$$$

     RDKit          3D

 40 42  0  0  0  0  0  0  0  0999 V2000
   60.2317  -50.1026   25.1072 N   0  0  0  0  0  0  0  0  0  0  0  0
   60.8563  -48.9562   25.3709 C   0  0  0  0  0  0  0  0  0  0  0  0
   60.2972  -47.7685   25.0985 N   0  0  0  0  0  0  0  0  0  0  0  0
   59.0654  -47.7004   24.5645 C   0  0  0  0  0  0  0  0  0  0  0  0
   58.3682  -48.8731   24.2954 C   0  0  0  0  0  0  0  0  0  0  0  0
   59.0006  -50.1034   24.5857 C   0  0  0  0  0  0  0  0  0  0  0  0
   58.3144  -51.3591   24.3102 N   0  0  0  0  0  0  0  0  0  0  0  0
   57.1716  -48.5202   23.7819 N   0  0  0  0  0  0  0  0  0  0  0  0
   57.1359  -47.1854   23.7236 C   0  0  0  0  0  0  0  0  0  0  0  0
   58.2701  -46.6679   24.2072 N   0  0  0  0  0  0  0  0  0  0  0  0
   54.6319  -42.1985   26.3925 P   0  0  1  0  0  0  0  0  0  0  0  0
   54.7492  -39.4720   26.4569 C   0  0  0  0  0  0  0  0  0  0  0  0
   58.6013  -45.2745   24.3093 C   0  0  1  0  0  0  0  0  0  0  0  0
   54.6203  -42.6197   27.8428 O   0  0  0  0  0  0  0  0  0  0  0  0
   54.1482  -38.4466   26.7081 O   0  0  0  0  0  0  0  0  0  0  0  0
   58.3881  -44.5361   22.8245 C   0  0  2  0  0  0  0  0  0  0  0  0
   59.4665  -44.9509   21.9290 O   0  0  0  0  0  0  0  0  0  0  0  0
   53.7698  -43.1537   25.6240 O   0  0  0  0  0  0  0  0  0  0  0  0
   56.1927  -39.6182   26.6047 N   0  0  0  0  0  0  0  0  0  0  0  0
   58.3727  -43.2780   23.0806 C   0  0  2  0  0  0  0  0  0  0  0  0
   59.7536  -42.7078   23.1323 O   0  0  0  0  0  0  0  0  0  0  0  0
   54.1041  -40.6536   26.0754 O   0  0  0  0  0  0  0  0  0  0  0  0
   57.7738  -43.1815   24.5368 C   0  0  2  0  0  0  0  0  0  0  0  0
   57.7738  -44.6426   25.0556 O   0  0  0  0  0  0  0  0  0  0  0  0
   56.4799  -42.6660   24.5564 C   0  0  0  0  0  0  0  0  0  0  0  0
   56.2039  -42.2868   25.8808 O   0  0  0  0  0  0  0  0  0  0  0  0
   61.8581  -48.9846   25.8244 H   0  0  0  0  0  0  0  0  0  0  0  0
   57.3660  -51.3503   23.9083 H   0  0  0  0  0  0  0  0  0  0  0  0
   58.7776  -52.2554   24.5173 H   0  0  0  0  0  0  0  0  0  0  0  0
   56.2931  -46.5961   23.3332 H   0  0  0  0  0  0  0  0  0  0  0  0
   59.6307  -45.2380   24.6953 H   0  0  0  0  0  0  0  0  0  0  0  0
   57.4581  -44.8135   22.3067 H   0  0  0  0  0  0  0  0  0  0  0  0
   60.2436  -45.2497   22.4646 H   0  0  0  0  0  0  0  0  0  0  0  0
   56.6458  -40.5143   26.3753 H   0  0  0  0  0  0  0  0  0  0  0  0
   56.7591  -38.8253   26.9385 H   0  0  0  0  0  0  0  0  0  0  0  0
   57.8079  -42.7324   22.3104 H   0  0  0  0  0  0  0  0  0  0  0  0
   60.0286  -42.5942   24.0766 H   0  0  0  0  0  0  0  0  0  0  0  0
   58.3683  -42.4958   25.1585 H   0  0  0  0  0  0  0  0  0  0  0  0
   56.4123  -41.7919   23.8922 H   0  0  0  0  0  0  0  0  0  0  0  0
   55.7554  -43.4159   24.2059 H   0  0  0  0  0  0  0  0  0  0  0  0
  1  2  2  0
  1  6  1  0
  2  3  1  0
  3  4  2  0
  4  5  1  0
  4 10  1  0
  5  6  2  0
  5  8  1  0
  6  7  1  0
  8  9  2  0
  9 10  1  0
 13 10  1  0
 11 14  1  1
 11 18  2  0
 11 22  1  0
 11 26  1  0
 12 15  2  0
 12 19  1  0
 12 22  1  0
 13 16  1  0
 13 24  1  0
 16 17  1  0
 16 20  1  0
 20 21  1  0
 20 23  1  0
 23 24  1  0
 23 25  1  0
 25 26  1  0
  2 27  1  0
  7 28  1  0
  7 29  1  0
  9 30  1  0
 13 31  1  1
 16 32  1  6
 17 33  1  0
 19 34  1  0
 19 35  1  0
 20 36  1  6
 21 37  1  0
 23 38  1  1
 25 39  1  0
 25 40  1  0
M  CHG  1  14  -1
M  END
>  <filename_input>  (7) 
7VYJ_CA0_docked.sdf

>  <pdb_id>  (7) 
7VYJ_CA0

>  <pose_rank>  (7) 
6

>  <num_atoms_heavy>  (7) 
26

>  <num_torsions>  (7) 
6

>  <pose>  (7) 
[58.60133753585889, -45.274464918033594, 24.309283647513777, 0.6494966944642648, -0.33288638137744064, 2.9668767597345225, 0.13679230579469323, 0.34604004411854905, 0.7533957592420764, -0.7836842078119372, 0.21429017113295107, 2.256917509224849]

>  <energy>  (7) 
-651.3528590046918

>  <inter_energy>  (7) 
-662.8540715709064

>  <intra_energy>  (7) 
16.210917331372155

>  <rmsd>  (7) 
8.40809

>  <sdf_rank>  (7) 
0

$$$$

     RDKit          3D

 40 42  0  0  0  0  0  0  0  0999 V2000
   60.0398  -49.8688   25.4268 N   0  0  0  0  0  0  0  0  0  0  0  0
   59.8417  -48.5564   25.5378 C   0  0  0  0  0  0  0  0  0  0  0  0
   58.7463  -47.9632   25.0423 N   0  0  0  0  0  0  0  0  0  0  0  0
   57.7946  -48.6891   24.4304 C   0  0  0  0  0  0  0  0  0  0  0  0
   57.9503  -50.0660   24.3140 C   0  0  0  0  0  0  0  0  0  0  0  0
   59.1266  -50.6482   24.8386 C   0  0  0  0  0  0  0  0  0  0  0  0
   59.3399  -52.0857   24.7300 N   0  0  0  0  0  0  0  0  0  0  0  0
   56.8595  -50.5413   23.6781 N   0  0  0  0  0  0  0  0  0  0  0  0
   56.0687  -49.4999   23.4012 C   0  0  0  0  0  0  0  0  0  0  0  0
   56.6114  -48.3680   23.8622 N   0  0  0  0  0  0  0  0  0  0  0  0
   55.5082  -42.1085   26.6793 P   0  0  1  0  0  0  0  0  0  0  0  0
   57.6549  -41.0719   25.3494 C   0  0  0  0  0  0  0  0  0  0  0  0
   56.0584  -47.0471   23.7559 C   0  0  1  0  0  0  0  0  0  0  0  0
   56.2516  -42.0956   27.9938 O   0  0  0  0  0  0  0  0  0  0  0  0
   57.8441  -39.9142   25.6650 O   0  0  0  0  0  0  0  0  0  0  0  0
   54.5601  -47.0040   24.4966 C   0  0  2  0  0  0  0  0  0  0  0  0
   53.5952  -47.7116   23.6570 O   0  0  0  0  0  0  0  0  0  0  0  0
   54.3315  -41.1882   26.8016 O   0  0  0  0  0  0  0  0  0  0  0  0
   58.7276  -42.0069   25.0299 N   0  0  0  0  0  0  0  0  0  0  0  0
   54.3047  -45.7553   24.6522 C   0  0  2  0  0  0  0  0  0  0  0  0
   53.6837  -45.1617   23.4288 O   0  0  0  0  0  0  0  0  0  0  0  0
   56.3833  -41.6558   25.3395 O   0  0  0  0  0  0  0  0  0  0  0  0
   55.7213  -45.0840   24.8282 C   0  0  2  0  0  0  0  0  0  0  0  0
   56.7299  -46.1946   24.4366 O   0  0  0  0  0  0  0  0  0  0  0  0
   55.9599  -44.6585   26.1330 C   0  0  0  0  0  0  0  0  0  0  0  0
   55.0090  -43.6667   26.4268 O   0  0  0  0  0  0  0  0  0  0  0  0
   60.5974  -47.9427   26.0500 H   0  0  0  0  0  0  0  0  0  0  0  0
   58.6310  -52.6786   24.2752 H   0  0  0  0  0  0  0  0  0  0  0  0
   60.1995  -52.5088   25.1081 H   0  0  0  0  0  0  0  0  0  0  0  0
   55.1079  -49.5647   22.8696 H   0  0  0  0  0  0  0  0  0  0  0  0
   56.0450  -46.8127   22.6813 H   0  0  0  0  0  0  0  0  0  0  0  0
   54.5197  -47.5082   25.4734 H   0  0  0  0  0  0  0  0  0  0  0  0
   52.9451  -48.1884   24.2316 H   0  0  0  0  0  0  0  0  0  0  0  0
   58.5037  -42.9778   24.7686 H   0  0  0  0  0  0  0  0  0  0  0  0
   59.7090  -41.6965   25.0654 H   0  0  0  0  0  0  0  0  0  0  0  0
   53.6123  -45.6031   25.4933 H   0  0  0  0  0  0  0  0  0  0  0  0
   52.9944  -44.5029   23.6951 H   0  0  0  0  0  0  0  0  0  0  0  0
   55.8038  -44.1789   24.2086 H   0  0  0  0  0  0  0  0  0  0  0  0
   55.8520  -45.5023   26.8303 H   0  0  0  0  0  0  0  0  0  0  0  0
   56.9811  -44.2625   26.2341 H   0  0  0  0  0  0  0  0  0  0  0  0
  1  2  2  0
  1  6  1  0
  2  3  1  0
  3  4  2  0
  4  5  1  0
  4 10  1  0
  5  6  2  0
  5  8  1  0
  6  7  1  0
  8  9  2  0
  9 10  1  0
 13 10  1  0
 11 14  1  1
 11 18  2  0
 11 22  1  0
 11 26  1  0
 12 15  2  0
 12 19  1  0
 12 22  1  0
 13 16  1  0
 13 24  1  0
 16 17  1  0
 16 20  1  0
 20 21  1  0
 20 23  1  0
 23 24  1  0
 23 25  1  0
 25 26  1  0
  2 27  1  0
  7 28  1  0
  7 29  1  0
  9 30  1  0
 13 31  1  6
 16 32  1  1
 17 33  1  0
 19 34  1  0
 19 35  1  0
 20 36  1  1
 21 37  1  0
 23 38  1  6
 25 39  1  0
 25 40  1  0
M  CHG  1  14  -1
M  END
>  <filename_input>  (8) 
7VYJ_CA0_docked.sdf

>  <pdb_id>  (8) 
7VYJ_CA0

>  <pose_rank>  (8) 
7

>  <num_atoms_heavy>  (8) 
26

>  <num_torsions>  (8) 
6

>  <pose>  (8) 
[56.05842030378644, -47.04707578008443, 23.755911861749137, -2.7650679527197273, -0.3558801356501963, -1.2388949367846671, 2.0836736807132894, 2.1085921952981788, 1.4915540993013154, 1.736549541548162, -1.1486754001664086, -2.7202241640915266]

>  <energy>  (8) 
-649.5845851233178

>  <inter_energy>  (8) 
-677.0759961228151

>  <intra_energy>  (8) 
25.694953103186435

>  <rmsd>  (8) 
7.70778

>  <sdf_rank>  (8) 
0

$$$$

     RDKit          3D

 40 42  0  0  0  0  0  0  0  0999 V2000
   55.1605  -41.3497   27.2745 N   0  0  0  0  0  0  0  0  0  0  0  0
   55.4059  -42.5744   26.8121 C   0  0  0  0  0  0  0  0  0  0  0  0
   56.2840  -42.7929   25.8228 N   0  0  0  0  0  0  0  0  0  0  0  0
   56.9661  -41.7708   25.2775 C   0  0  0  0  0  0  0  0  0  0  0  0
   56.7576  -40.4786   25.7469 C   0  0  0  0  0  0  0  0  0  0  0  0
   55.8131  -40.2920   26.7818 C   0  0  0  0  0  0  0  0  0  0  0  0
   55.5521  -38.9547   27.2986 N   0  0  0  0  0  0  0  0  0  0  0  0
   57.5670  -39.6602   25.0433 N   0  0  0  0  0  0  0  0  0  0  0  0
   58.2379  -40.4133   24.1663 C   0  0  0  0  0  0  0  0  0  0  0  0
   57.8983  -41.6995   24.3018 N   0  0  0  0  0  0  0  0  0  0  0  0
   57.5098  -48.7043   23.7418 P   0  0  1  0  0  0  0  0  0  0  0  0
   60.1068  -48.6094   24.5773 C   0  0  0  0  0  0  0  0  0  0  0  0
   58.4063  -42.8051   23.5393 C   0  0  1  0  0  0  0  0  0  0  0  0
   56.6518  -49.5047   22.7911 O   0  0  0  0  0  0  0  0  0  0  0  0
   60.4633  -48.6978   25.7353 O   0  0  0  0  0  0  0  0  0  0  0  0
   59.5442  -43.6339   24.4412 C   0  0  2  0  0  0  0  0  0  0  0  0
   60.7676  -42.8369   24.5099 O   0  0  0  0  0  0  0  0  0  0  0  0
   56.7710  -48.5766   25.0396 O   0  0  0  0  0  0  0  0  0  0  0  0
   60.8141  -47.8231   23.5730 N   0  0  0  0  0  0  0  0  0  0  0  0
   59.6842  -44.7604   23.8412 C   0  0  2  0  0  0  0  0  0  0  0  0
   60.6758  -44.6729   22.7259 O   0  0  0  0  0  0  0  0  0  0  0  0
   59.0192  -49.3240   24.0633 O   0  0  0  0  0  0  0  0  0  0  0  0
   58.2740  -45.0362   23.1903 C   0  0  2  0  0  0  0  0  0  0  0  0
   57.5082  -43.6961   23.3378 O   0  0  0  0  0  0  0  0  0  0  0  0
   57.5754  -46.0598   23.8266 C   0  0  0  0  0  0  0  0  0  0  0  0
   57.7352  -47.2181   23.0478 O   0  0  0  0  0  0  0  0  0  0  0  0
   54.8738  -43.4298   27.2539 H   0  0  0  0  0  0  0  0  0  0  0  0
   56.0595  -38.1455   26.9131 H   0  0  0  0  0  0  0  0  0  0  0  0
   54.8601  -38.8186   28.0493 H   0  0  0  0  0  0  0  0  0  0  0  0
   58.9662  -40.0296   23.4367 H   0  0  0  0  0  0  0  0  0  0  0  0
   58.7899  -42.3732   22.6032 H   0  0  0  0  0  0  0  0  0  0  0  0
   59.2549  -43.8123   25.4874 H   0  0  0  0  0  0  0  0  0  0  0  0
   61.0071  -42.6809   25.4577 H   0  0  0  0  0  0  0  0  0  0  0  0
   60.4622  -47.7869   22.6057 H   0  0  0  0  0  0  0  0  0  0  0  0
   61.6654  -47.3040   23.8311 H   0  0  0  0  0  0  0  0  0  0  0  0
   60.0294  -45.5335   24.5435 H   0  0  0  0  0  0  0  0  0  0  0  0
   61.5883  -44.5924   23.1012 H   0  0  0  0  0  0  0  0  0  0  0  0
   58.3837  -45.3656   22.1465 H   0  0  0  0  0  0  0  0  0  0  0  0
   57.9832  -46.2242   24.8349 H   0  0  0  0  0  0  0  0  0  0  0  0
   56.5110  -45.8015   23.9285 H   0  0  0  0  0  0  0  0  0  0  0  0
  1  2  2  0
  1  6  1  0
  2  3  1  0
  3  4  2  0
  4  5  1  0
  4 10  1  0
  5  6  2  0
  5  8  1  0
  6  7  1  0
  8  9  2  0
  9 10  1  0
 13 10  1  0
 11 14  1  6
 11 18  2  0
 11 22  1  0
 11 26  1  0
 12 15  2  0
 12 19  1  0
 12 22  1  0
 13 16  1  0
 13 24  1  0
 16 17  1  0
 16 20  1  0
 20 21  1  0
 20 23  1  0
 23 24  1  0
 23 25  1  0
 25 26  1  0
  2 27  1  0
  7 28  1  0
  7 29  1  0
  9 30  1  0
 13 31  1  6
 16 32  1  1
 17 33  1  0
 19 34  1  0
 19 35  1  0
 20 36  1  1
 21 37  1  0
 23 38  1  6
 25 39  1  0
 25 40  1  0
M  CHG  1  14  -1
M  END
>  <filename_input>  (9) 
7VYJ_CA0_docked.sdf

>  <pdb_id>  (9) 
7VYJ_CA0

>  <pose_rank>  (9) 
8

>  <num_atoms_heavy>  (9) 
26

>  <num_torsions>  (9) 
6

>  <pose>  (9) 
[58.40628589974293, -42.80510341767035, 23.53928199840181, -0.58788004391108, 3.353999853471429, 0.9429962383669256, 2.836200511743664, 1.4598928518541423, -0.037494343024884594, -0.9891491740589982, 1.8399910086337707, 0.3843219805966285]

>  <energy>  (9) 
-633.9387296635894

>  <inter_energy>  (9) 
-654.2549446043352

>  <intra_energy>  (9) 
21.227237240839383

>  <rmsd>  (9) 
3.80071

>  <sdf_rank>  (9) 
0

$$$$

     RDKit          3D

 40 42  0  0  0  0  0  0  0  0999 V2000
   57.9145  -51.5885   24.4492 N   0  0  0  0  0  0  0  0  0  0  0  0
   56.9332  -50.7670   24.0805 C   0  0  0  0  0  0  0  0  0  0  0  0
   57.1067  -49.4386   24.0275 N   0  0  0  0  0  0  0  0  0  0  0  0
   58.2981  -48.8934   24.3283 C   0  0  0  0  0  0  0  0  0  0  0  0
   59.3567  -49.7170   24.6953 C   0  0  0  0  0  0  0  0  0  0  0  0
   59.1260  -51.1104   24.7511 C   0  0  0  0  0  0  0  0  0  0  0  0
   60.2016  -52.0127   25.1417 N   0  0  0  0  0  0  0  0  0  0  0  0
   60.4218  -48.9224   24.9282 N   0  0  0  0  0  0  0  0  0  0  0  0
   60.0340  -47.6593   24.7266 C   0  0  0  0  0  0  0  0  0  0  0  0
   58.7522  -47.6209   24.3479 N   0  0  0  0  0  0  0  0  0  0  0  0
   58.1023  -40.7012   24.3762 P   0  0  1  0  0  0  0  0  0  0  0  0
   56.0639  -40.6378   26.1906 C   0  0  0  0  0  0  0  0  0  0  0  0
   57.9841  -46.4472   24.0405 C   0  0  1  0  0  0  0  0  0  0  0  0
   57.1939  -40.2426   23.2603 O   0  0  0  0  0  0  0  0  0  0  0  0
   55.7871  -39.5714   26.7024 O   0  0  0  0  0  0  0  0  0  0  0  0
   57.1813  -45.9262   25.4115 C   0  0  2  0  0  0  0  0  0  0  0  0
   56.0767  -46.8418   25.6913 O   0  0  0  0  0  0  0  0  0  0  0  0
   59.1544  -39.6533   24.5796 O   0  0  0  0  0  0  0  0  0  0  0  0
   55.0675  -41.6299   25.8036 N   0  0  0  0  0  0  0  0  0  0  0  0
   56.8133  -44.7259   25.1424 C   0  0  2  0  0  0  0  0  0  0  0  0
   55.5123  -44.6987   24.4066 O   0  0  0  0  0  0  0  0  0  0  0  0
   57.3714  -40.9931   25.8412 O   0  0  0  0  0  0  0  0  0  0  0  0
   57.9191  -44.1889   24.1538 C   0  0  2  0  0  0  0  0  0  0  0  0
   58.7348  -45.4475   23.7610 O   0  0  0  0  0  0  0  0  0  0  0  0
   58.7542  -43.2404   24.7400 C   0  0  0  0  0  0  0  0  0  0  0  0
   58.7839  -42.1272   23.8833 O   0  0  0  0  0  0  0  0  0  0  0  0
   55.9537  -51.1898   23.8122 H   0  0  0  0  0  0  0  0  0  0  0  0
   61.1318  -51.6356   25.3725 H   0  0  0  0  0  0  0  0  0  0  0  0
   60.0315  -53.0276   25.1869 H   0  0  0  0  0  0  0  0  0  0  0  0
   60.6780  -46.7766   24.8541 H   0  0  0  0  0  0  0  0  0  0  0  0
   57.3272  -46.7287   23.2043 H   0  0  0  0  0  0  0  0  0  0  0  0
   57.7941  -45.9229   26.3250 H   0  0  0  0  0  0  0  0  0  0  0  0
   55.9649  -46.9344   26.6706 H   0  0  0  0  0  0  0  0  0  0  0  0
   55.3645  -42.5173   25.3730 H   0  0  0  0  0  0  0  0  0  0  0  0
   54.0668  -41.4433   25.9607 H   0  0  0  0  0  0  0  0  0  0  0  0
   56.6941  -44.1406   26.0661 H   0  0  0  0  0  0  0  0  0  0  0  0
   54.7658  -44.6830   25.0567 H   0  0  0  0  0  0  0  0  0  0  0  0
   57.4596  -43.6787   23.2944 H   0  0  0  0  0  0  0  0  0  0  0  0
   58.3598  -42.9481   25.7244 H   0  0  0  0  0  0  0  0  0  0  0  0
   59.7655  -43.6477   24.8864 H   0  0  0  0  0  0  0  0  0  0  0  0
  1  2  2  0
  1  6  1  0
  2  3  1  0
  3  4  2  0
  4  5  1  0
  4 10  1  0
  5  6  2  0
  5  8  1  0
  6  7  1  0
  8  9  2  0
  9 10  1  0
 13 10  1  0
 11 14  1  6
 11 18  2  0
 11 22  1  0
 11 26  1  0
 12 15  2  0
 12 19  1  0
 12 22  1  0
 13 16  1  0
 13 24  1  0
 16 17  1  0
 16 20  1  0
 20 21  1  0
 20 23  1  0
 23 24  1  0
 23 25  1  0
 25 26  1  0
  2 27  1  0
  7 28  1  0
  7 29  1  0
  9 30  1  0
 13 31  1  6
 16 32  1  1
 17 33  1  0
 19 34  1  0
 19 35  1  0
 20 36  1  1
 21 37  1  0
 23 38  1  6
 25 39  1  0
 25 40  1  0
M  CHG  1  14  -1
M  END
>  <filename_input>  (10) 
7VYJ_CA0_docked.sdf

>  <pdb_id>  (10) 
7VYJ_CA0

>  <pose_rank>  (10) 
9

>  <num_atoms_heavy>  (10) 
26

>  <num_torsions>  (10) 
6

>  <pose>  (10) 
[57.9840962380058, -46.44718727048753, 24.040530885496946, -3.3078834119253284, -0.7363427845625187, -0.215754010272146, -0.5643387468241452, 0.9608781029186467, -0.8391207822572896, -5.597705523769823, -1.1656018799291377, 3.287970149905279]

>  <energy>  (10) 
-685.5932678890022

>  <inter_energy>  (10) 
-676.1869378368308

>  <intra_energy>  (10) 
4.765828456740012

>  <rmsd>  (10) 
8.07325

>  <sdf_rank>  (10) 
0

$$$$

     RDKit          3D

 40 42  0  0  0  0  0  0  0  0999 V2000
   55.6162  -40.0399   27.0601 N   0  0  0  0  0  0  0  0  0  0  0  0
   56.5577  -40.0142   26.1184 C   0  0  0  0  0  0  0  0  0  0  0  0
   56.8750  -41.1055   25.4071 N   0  0  0  0  0  0  0  0  0  0  0  0
   56.2281  -42.2659   25.6125 C   0  0  0  0  0  0  0  0  0  0  0  0
   55.2217  -42.3306   26.5699 C   0  0  0  0  0  0  0  0  0  0  0  0
   54.9290  -41.1600   27.3060 C   0  0  0  0  0  0  0  0  0  0  0  0
   53.8904  -41.1819   28.3281 N   0  0  0  0  0  0  0  0  0  0  0  0
   54.7394  -43.5904   26.5611 N   0  0  0  0  0  0  0  0  0  0  0  0
   55.4280  -44.2793   25.6459 C   0  0  0  0  0  0  0  0  0  0  0  0
   56.3269  -43.4900   25.0485 N   0  0  0  0  0  0  0  0  0  0  0  0
   57.1179  -49.0140   23.4184 P   0  0  1  0  0  0  0  0  0  0  0  0
   54.5390  -48.1190   23.4077 C   0  0  0  0  0  0  0  0  0  0  0  0
   57.2485  -43.8697   24.0149 C   0  0  1  0  0  0  0  0  0  0  0  0
   58.1089  -49.6478   24.3655 O   0  0  0  0  0  0  0  0  0  0  0  0
   54.4784  -47.1735   22.6474 O   0  0  0  0  0  0  0  0  0  0  0  0
   58.8032  -43.8937   24.6295 C   0  0  2  0  0  0  0  0  0  0  0  0
   59.2557  -42.5183   24.8296 O   0  0  0  0  0  0  0  0  0  0  0  0
   56.7649  -50.0249   22.3698 O   0  0  0  0  0  0  0  0  0  0  0  0
   53.4405  -49.0542   23.6215 N   0  0  0  0  0  0  0  0  0  0  0  0
   59.4892  -44.5521   23.7666 C   0  0  2  0  0  0  0  0  0  0  0  0
   59.9729  -43.6731   22.6584 O   0  0  0  0  0  0  0  0  0  0  0  0
   55.7059  -48.4599   24.1005 O   0  0  0  0  0  0  0  0  0  0  0  0
   58.4587  -45.5684   23.1392 C   0  0  2  0  0  0  0  0  0  0  0  0
   57.0760  -45.0846   23.6471 O   0  0  0  0  0  0  0  0  0  0  0  0
   58.6833  -46.8834   23.5404 C   0  0  0  0  0  0  0  0  0  0  0  0
   57.8729  -47.7060   22.7401 O   0  0  0  0  0  0  0  0  0  0  0  0
   57.0893  -39.0721   25.9188 H   0  0  0  0  0  0  0  0  0  0  0  0
   53.3659  -42.0493   28.5109 H   0  0  0  0  0  0  0  0  0  0  0  0
   53.6808  -40.3299   28.8676 H   0  0  0  0  0  0  0  0  0  0  0  0
   55.2767  -45.3445   25.4166 H   0  0  0  0  0  0  0  0  0  0  0  0
   57.0913  -43.1540   23.1946 H   0  0  0  0  0  0  0  0  0  0  0  0
   58.8970  -44.3762   25.6136 H   0  0  0  0  0  0  0  0  0  0  0  0
   59.3180  -42.3291   25.7993 H   0  0  0  0  0  0  0  0  0  0  0  0
   53.5523  -49.8380   24.2803 H   0  0  0  0  0  0  0  0  0  0  0  0
   52.5529  -48.9309   23.1137 H   0  0  0  0  0  0  0  0  0  0  0  0
   60.3667  -45.0157   24.2409 H   0  0  0  0  0  0  0  0  0  0  0  0
   60.4133  -42.8728   23.0402 H   0  0  0  0  0  0  0  0  0  0  0  0
   58.5424  -45.5819   22.0424 H   0  0  0  0  0  0  0  0  0  0  0  0
   59.7422  -47.1450   23.3987 H   0  0  0  0  0  0  0  0  0  0  0  0
   58.4407  -47.0135   24.6055 H   0  0  0  0  0  0  0  0  0  0  0  0
  1  2  2  0
  1  6  1  0
  2  3  1  0
  3  4  2  0
  4  5  1  0
  4 10  1  0
  5  6  2  0
  5  8  1  0
  6  7  1  0
  8  9  2  0
  9 10  1  0
 13 10  1  0
 11 14  1  1
 11 18  2  0
 11 22  1  0
 11 26  1  0
 12 15  2  0
 12 19  1  0
 12 22  1  0
 13 16  1  0
 13 24  1  0
 16 17  1  0
 16 20  1  0
 20 21  1  0
 20 23  1  0
 23 24  1  0
 23 25  1  0
 25 26  1  0
  2 27  1  0
  7 28  1  0
  7 29  1  0
  9 30  1  0
 13 31  1  6
 16 32  1  1
 17 33  1  0
 19 34  1  0
 19 35  1  0
 20 36  1  1
 21 37  1  0
 23 38  1  6
 25 39  1  0
 25 40  1  0
M  CHG  1  14  -1
M  END
>  <filename_input>  (11) 
7VYJ_CA0_docked.sdf

>  <pdb_id>  (11) 
7VYJ_CA0

>  <pose_rank>  (11) 
10

>  <num_atoms_heavy>  (11) 
26

>  <num_torsions>  (11) 
6

>  <pose>  (11) 
[57.24853624530272, -43.86972299490685, 24.01493389884233, -1.8767742709455164, 3.0736314140643928, 1.1483647453434902, -0.8558626059889695, -6.0334435747085795, 1.020880311088509, 2.2459266167699132, 2.445978735182368, -2.584378777538323]

>  <energy>  (11) 
-650.7230792560858

>  <inter_energy>  (11) 
-670.649354263318

>  <intra_energy>  (11) 
21.446980953174787

>  <rmsd>  (11) 
4.00617

>  <sdf_rank>  (11) 
0

$$$$

     RDKit          3D

 40 42  0  0  0  0  0  0  0  0999 V2000
   54.0170  -40.9071   27.9697 N   0  0  0  0  0  0  0  0  0  0  0  0
   53.6389  -42.1479   28.2718 C   0  0  0  0  0  0  0  0  0  0  0  0
   54.0632  -43.2067   27.5672 N   0  0  0  0  0  0  0  0  0  0  0  0
   54.9104  -43.0453   26.5360 C   0  0  0  0  0  0  0  0  0  0  0  0
   55.3490  -41.7688   26.2015 C   0  0  0  0  0  0  0  0  0  0  0  0
   54.8661  -40.6799   26.9623 C   0  0  0  0  0  0  0  0  0  0  0  0
   55.2883  -39.3223   26.6422 N   0  0  0  0  0  0  0  0  0  0  0  0
   56.1877  -41.8944   25.1523 N   0  0  0  0  0  0  0  0  0  0  0  0
   56.2542  -43.1929   24.8426 C   0  0  0  0  0  0  0  0  0  0  0  0
   55.4973  -43.9102   25.6796 N   0  0  0  0  0  0  0  0  0  0  0  0
   57.8706  -49.9721   24.1405 P   0  0  1  0  0  0  0  0  0  0  0  0
   56.0407  -51.3126   22.6220 C   0  0  0  0  0  0  0  0  0  0  0  0
   55.3157  -45.3346   25.6640 C   0  0  1  0  0  0  0  0  0  0  0  0
   58.3506  -50.4939   25.4740 O   0  0  0  0  0  0  0  0  0  0  0  0
   55.7577  -50.9196   21.5079 O   0  0  0  0  0  0  0  0  0  0  0  0
   55.4879  -45.9057   24.1021 C   0  0  2  0  0  0  0  0  0  0  0  0
   54.3085  -45.5277   23.3258 O   0  0  0  0  0  0  0  0  0  0  0  0
   58.8392  -50.4222   23.0891 O   0  0  0  0  0  0  0  0  0  0  0  0
   56.1805  -52.7222   22.9691 N   0  0  0  0  0  0  0  0  0  0  0  0
   55.6484  -47.1732   24.2300 C   0  0  2  0  0  0  0  0  0  0  0  0
   54.3394  -47.8900   24.3159 O   0  0  0  0  0  0  0  0  0  0  0  0
   56.3451  -50.4447   23.6764 O   0  0  0  0  0  0  0  0  0  0  0  0
   56.3631  -47.3392   25.6265 C   0  0  2  0  0  0  0  0  0  0  0  0
   56.2567  -45.9406   26.2871 O   0  0  0  0  0  0  0  0  0  0  0  0
   57.6998  -47.7131   25.5089 C   0  0  0  0  0  0  0  0  0  0  0  0
   57.8522  -48.3203   24.2512 O   0  0  0  0  0  0  0  0  0  0  0  0
   52.9601  -42.3084   29.1223 H   0  0  0  0  0  0  0  0  0  0  0  0
   55.9428  -39.1565   25.8643 H   0  0  0  0  0  0  0  0  0  0  0  0
   54.9323  -38.5287   27.1938 H   0  0  0  0  0  0  0  0  0  0  0  0
   56.8475  -43.6120   24.0165 H   0  0  0  0  0  0  0  0  0  0  0  0
   54.3275  -45.5162   26.1117 H   0  0  0  0  0  0  0  0  0  0  0  0
   56.3434  -45.4840   23.5542 H   0  0  0  0  0  0  0  0  0  0  0  0
   53.5701  -45.2911   23.9414 H   0  0  0  0  0  0  0  0  0  0  0  0
   56.4225  -52.9938   23.9327 H   0  0  0  0  0  0  0  0  0  0  0  0
   56.0372  -53.4462   22.2506 H   0  0  0  0  0  0  0  0  0  0  0  0
   56.2047  -47.5820   23.3735 H   0  0  0  0  0  0  0  0  0  0  0  0
   54.0975  -48.0225   25.2667 H   0  0  0  0  0  0  0  0  0  0  0  0
   55.8892  -48.1389   26.2147 H   0  0  0  0  0  0  0  0  0  0  0  0
   58.3469  -46.8264   25.5803 H   0  0  0  0  0  0  0  0  0  0  0  0
   57.9837  -48.4065   26.3143 H   0  0  0  0  0  0  0  0  0  0  0  0
  1  2  2  0
  1  6  1  0
  2  3  1  0
  3  4  2  0
  4  5  1  0
  4 10  1  0
  5  6  2  0
  5  8  1  0
  6  7  1  0
  8  9  2  0
  9 10  1  0
 13 10  1  0
 11 14  1  1
 11 18  2  0
 11 22  1  0
 11 26  1  0
 12 15  2  0
 12 19  1  0
 12 22  1  0
 13 16  1  0
 13 24  1  0
 16 17  1  0
 16 20  1  0
 20 21  1  0
 20 23  1  0
 23 24  1  0
 23 25  1  0
 25 26  1  0
  2 27  1  0
  7 28  1  0
  7 29  1  0
  9 30  1  0
 13 31  1  1
 16 32  1  6
 17 33  1  0
 19 34  1  0
 19 35  1  0
 20 36  1  6
 21 37  1  0
 23 38  1  1
 25 39  1  0
 25 40  1  0
M  CHG  1  14  -1
M  END
>  <filename_input>  (12) 
7VYJ_CA0_docked.sdf

>  <pdb_id>  (12) 
7VYJ_CA0

>  <pose_rank>  (12) 
11

>  <num_atoms_heavy>  (12) 
26

>  <num_torsions>  (12) 
6

>  <pose>  (12) 
[55.31570582023857, -45.334563775566586, 25.66395031117937, 1.643078715696757, 5.671470379315735, -0.030602121264553344, 0.5469768550753132, 15.380976744670214, -10.825604359868791, 2.5015143827208997, -2.90050883776949, -3.0841599909184434]

>  <energy>  (12) 
-689.7878865125657

>  <inter_energy>  (12) 
-698.5924717982468

>  <intra_energy>  (12) 
9.639086400163187

>  <rmsd>  (12) 
1.88304

>  <sdf_rank>  (12) 
0

$$$$

     RDKit          3D

 40 42  0  0  0  0  0  0  0  0999 V2000
   56.2207  -49.6151   24.0237 N   0  0  0  0  0  0  0  0  0  0  0  0
   55.9607  -48.3187   23.8639 C   0  0  0  0  0  0  0  0  0  0  0  0
   56.9337  -47.3964   23.8779 N   0  0  0  0  0  0  0  0  0  0  0  0
   58.2180  -47.7615   24.0341 C   0  0  0  0  0  0  0  0  0  0  0  0
   58.5360  -49.1072   24.1804 C   0  0  0  0  0  0  0  0  0  0  0  0
   57.4780  -50.0444   24.1733 C   0  0  0  0  0  0  0  0  0  0  0  0
   57.7607  -51.4649   24.3349 N   0  0  0  0  0  0  0  0  0  0  0  0
   59.8766  -49.1919   24.3059 N   0  0  0  0  0  0  0  0  0  0  0  0
   60.3656  -47.9491   24.2527 C   0  0  0  0  0  0  0  0  0  0  0  0
   59.3766  -47.0672   24.0737 N   0  0  0  0  0  0  0  0  0  0  0  0
   55.1706  -44.1008   25.8597 P   0  0  1  0  0  0  0  0  0  0  0  0
   54.8921  -41.7900   27.2860 C   0  0  0  0  0  0  0  0  0  0  0  0
   59.5087  -45.6413   23.9670 C   0  0  1  0  0  0  0  0  0  0  0  0
   55.1818  -45.5901   26.1098 O   0  0  0  0  0  0  0  0  0  0  0  0
   55.6254  -40.8741   26.9711 O   0  0  0  0  0  0  0  0  0  0  0  0
   58.3288  -45.0428   22.9448 C   0  0  2  0  0  0  0  0  0  0  0  0
   58.6698  -45.3962   21.5681 O   0  0  0  0  0  0  0  0  0  0  0  0
   53.9004  -43.7596   25.1410 O   0  0  0  0  0  0  0  0  0  0  0  0
   53.5047  -41.6082   27.6973 N   0  0  0  0  0  0  0  0  0  0  0  0
   58.3050  -43.7793   23.1722 C   0  0  2  0  0  0  0  0  0  0  0  0
   59.3314  -43.0530   22.3639 O   0  0  0  0  0  0  0  0  0  0  0  0
   55.2802  -43.1320   27.2070 O   0  0  0  0  0  0  0  0  0  0  0  0
   58.7245  -43.6453   24.6870 C   0  0  2  0  0  0  0  0  0  0  0  0
   59.2411  -45.0550   25.0742 O   0  0  0  0  0  0  0  0  0  0  0  0
   57.6629  -43.2808   25.5121 C   0  0  0  0  0  0  0  0  0  0  0  0
   56.4871  -43.7642   24.9140 O   0  0  0  0  0  0  0  0  0  0  0  0
   54.9195  -47.9959   23.7165 H   0  0  0  0  0  0  0  0  0  0  0  0
   58.7324  -51.7868   24.4495 H   0  0  0  0  0  0  0  0  0  0  0  0
   56.9889  -52.1469   24.3346 H   0  0  0  0  0  0  0  0  0  0  0  0
   61.4305  -47.6888   24.3434 H   0  0  0  0  0  0  0  0  0  0  0  0
   60.5404  -45.4595   23.6317 H   0  0  0  0  0  0  0  0  0  0  0  0
   57.3255  -45.4616   23.1120 H   0  0  0  0  0  0  0  0  0  0  0  0
   59.3571  -46.1087   21.5709 H   0  0  0  0  0  0  0  0  0  0  0  0
   52.9321  -42.4252   27.9530 H   0  0  0  0  0  0  0  0  0  0  0  0
   53.0976  -40.6627   27.7321 H   0  0  0  0  0  0  0  0  0  0  0  0
   57.3185  -43.3595   22.9260 H   0  0  0  0  0  0  0  0  0  0  0  0
   59.9700  -42.6011   22.9706 H   0  0  0  0  0  0  0  0  0  0  0  0
   59.4763  -42.8527   24.8150 H   0  0  0  0  0  0  0  0  0  0  0  0
   57.7898  -43.7278   26.5091 H   0  0  0  0  0  0  0  0  0  0  0  0
   57.6192  -42.1883   25.6325 H   0  0  0  0  0  0  0  0  0  0  0  0
  1  2  2  0
  1  6  1  0
  2  3  1  0
  3  4  2  0
  4  5  1  0
  4 10  1  0
  5  6  2  0
  5  8  1  0
  6  7  1  0
  8  9  2  0
  9 10  1  0
 13 10  1  0
 11 14  1  1
 11 18  2  0
 11 22  1  0
 11 26  1  0
 12 15  2  0
 12 19  1  0
 12 22  1  0
 13 16  1  0
 13 24  1  0
 16 17  1  0
 16 20  1  0
 20 21  1  0
 20 23  1  0
 23 24  1  0
 23 25  1  0
 25 26  1  0
  2 27  1  0
  7 28  1  0
  7 29  1  0
  9 30  1  0
 13 31  1  6
 16 32  1  1
 17 33  1  0
 19 34  1  0
 19 35  1  0
 20 36  1  1
 21 37  1  0
 23 38  1  6
 25 39  1  0
 25 40  1  0
M  CHG  1  14  -1
M  END
>  <filename_input>  (13) 
7VYJ_CA0_docked.sdf

>  <pdb_id>  (13) 
7VYJ_CA0

>  <pose_rank>  (13) 
12

>  <num_atoms_heavy>  (13) 
26

>  <num_torsions>  (13) 
6

>  <pose>  (13) 
[59.50866593484998, -45.64127161119476, 23.96704018198888, 1.6328447551728182, -0.18356544460644017, 2.6408949104202457, 3.634102606625901, -2.580527468023581, -0.12127804037702125, 1.2395183117870598, 2.541744237572381, -2.924488532838042]

>  <energy>  (13) 
-651.2548219294002

>  <inter_energy>  (13) 
-680.690743301121

>  <intra_energy>  (13) 
34.38108382971521

>  <rmsd>  (13) 
7.56771

>  <sdf_rank>  (13) 
0

$$$$

     RDKit          3D

 40 42  0  0  0  0  0  0  0  0999 V2000
   56.1805  -39.9982   25.6919 N   0  0  0  0  0  0  0  0  0  0  0  0
   56.9658  -40.5000   24.7403 C   0  0  0  0  0  0  0  0  0  0  0  0
   57.0182  -41.8159   24.4890 N   0  0  0  0  0  0  0  0  0  0  0  0
   56.2534  -42.6747   25.1852 C   0  0  0  0  0  0  0  0  0  0  0  0
   55.4015  -42.1905   26.1718 C   0  0  0  0  0  0  0  0  0  0  0  0
   55.3878  -40.7978   26.4128 C   0  0  0  0  0  0  0  0  0  0  0  0
   54.5199  -40.2446   27.4446 N   0  0  0  0  0  0  0  0  0  0  0  0
   54.7519  -43.2499   26.6970 N   0  0  0  0  0  0  0  0  0  0  0  0
   55.1938  -44.3447   26.0704 C   0  0  0  0  0  0  0  0  0  0  0  0
   56.0953  -44.0159   25.1392 N   0  0  0  0  0  0  0  0  0  0  0  0
   55.7305  -49.8396   22.5965 P   0  0  1  0  0  0  0  0  0  0  0  0
   53.7326  -51.0875   21.2171 C   0  0  0  0  0  0  0  0  0  0  0  0
   56.7908  -44.9169   24.2637 C   0  0  1  0  0  0  0  0  0  0  0  0
   56.7044  -50.9135   23.0200 O   0  0  0  0  0  0  0  0  0  0  0  0
   53.3202  -50.5768   20.1949 O   0  0  0  0  0  0  0  0  0  0  0  0
   58.1918  -45.4501   25.0041 C   0  0  2  0  0  0  0  0  0  0  0  0
   59.1670  -44.3612   25.0148 O   0  0  0  0  0  0  0  0  0  0  0  0
   56.2523  -49.2073   21.3419 O   0  0  0  0  0  0  0  0  0  0  0  0
   53.9022  -52.5257   21.3891 N   0  0  0  0  0  0  0  0  0  0  0  0
   58.5563  -46.4749   24.3218 C   0  0  2  0  0  0  0  0  0  0  0  0
   59.3702  -46.0844   23.1303 O   0  0  0  0  0  0  0  0  0  0  0  0
   54.1690  -50.3380   22.3152 O   0  0  0  0  0  0  0  0  0  0  0  0
   57.2062  -47.0880   23.7833 C   0  0  2  0  0  0  0  0  0  0  0  0
   56.1387  -46.0050   24.0858 O   0  0  0  0  0  0  0  0  0  0  0  0
   56.8668  -48.2841   24.4115 C   0  0  0  0  0  0  0  0  0  0  0  0
   55.6707  -48.7347   23.8280 O   0  0  0  0  0  0  0  0  0  0  0  0
   57.5882  -39.8162   24.1444 H   0  0  0  0  0  0  0  0  0  0  0  0
   53.9125  -40.8681   27.9952 H   0  0  0  0  0  0  0  0  0  0  0  0
   54.5140  -39.2303   27.6232 H   0  0  0  0  0  0  0  0  0  0  0  0
   54.8628  -45.3705   26.2897 H   0  0  0  0  0  0  0  0  0  0  0  0
   56.9502  -44.3624   23.3272 H   0  0  0  0  0  0  0  0  0  0  0  0
   58.0686  -45.7397   26.0581 H   0  0  0  0  0  0  0  0  0  0  0  0
   59.3826  -44.1205   25.9505 H   0  0  0  0  0  0  0  0  0  0  0  0
   54.2568  -52.8995   22.2811 H   0  0  0  0  0  0  0  0  0  0  0  0
   53.6675  -53.1678   20.6187 H   0  0  0  0  0  0  0  0  0  0  0  0
   59.1609  -47.1563   24.9384 H   0  0  0  0  0  0  0  0  0  0  0  0
   60.2206  -45.6764   23.4309 H   0  0  0  0  0  0  0  0  0  0  0  0
   57.2889  -47.3353   22.7146 H   0  0  0  0  0  0  0  0  0  0  0  0
   57.6631  -49.0279   24.2613 H   0  0  0  0  0  0  0  0  0  0  0  0
   56.7412  -48.1347   25.4940 H   0  0  0  0  0  0  0  0  0  0  0  0
  1  2  2  0
  1  6  1  0
  2  3  1  0
  3  4  2  0
  4  5  1  0
  4 10  1  0
  5  6  2  0
  5  8  1  0
  6  7  1  0
  8  9  2  0
  9 10  1  0
 13 10  1  0
 11 14  1  1
 11 18  2  0
 11 22  1  0
 11 26  1  0
 12 15  2  0
 12 19  1  0
 12 22  1  0
 13 16  1  0
 13 24  1  0
 16 17  1  0
 16 20  1  0
 20 21  1  0
 20 23  1  0
 23 24  1  0
 23 25  1  0
 25 26  1  0
  2 27  1  0
  7 28  1  0
  7 29  1  0
  9 30  1  0
 13 31  1  6
 16 32  1  1
 17 33  1  0
 19 34  1  0
 19 35  1  0
 20 36  1  1
 21 37  1  0
 23 38  1  6
 25 39  1  0
 25 40  1  0
M  CHG  1  14  -1
M  END
>  <filename_input>  (14) 
7VYJ_CA0_docked.sdf

>  <pdb_id>  (14) 
7VYJ_CA0

>  <pose_rank>  (14) 
13

>  <num_atoms_heavy>  (14) 
26

>  <num_torsions>  (14) 
6

>  <pose>  (14) 
[56.79081944085904, -44.916887563811535, 24.26372673665392, -1.0599190390241562, 3.3794674885052935, 1.0170855685565898, 12.080026573983732, -6.195553505329232, -1.133089901009403, -8.809851030582037, -2.2280977430060807, -9.304795559595833]

>  <energy>  (14) 
-614.3972101656457

>  <inter_energy>  (14) 
-614.7396268887078

>  <intra_energy>  (14) 
3.642172676506793

>  <rmsd>  (14) 
4.08666

>  <sdf_rank>  (14) 
0

$$$$

     RDKit          3D

 40 42  0  0  0  0  0  0  0  0999 V2000
   55.1585  -52.0352   22.2076 N   0  0  0  0  0  0  0  0  0  0  0  0
   56.1920  -51.7948   23.0125 C   0  0  0  0  0  0  0  0  0  0  0  0
   56.4536  -50.5650   23.4778 N   0  0  0  0  0  0  0  0  0  0  0  0
   55.6569  -49.5305   23.1581 C   0  0  0  0  0  0  0  0  0  0  0  0
   54.5529  -49.7419   22.3394 C   0  0  0  0  0  0  0  0  0  0  0  0
   54.3222  -51.0516   21.8604 C   0  0  0  0  0  0  0  0  0  0  0  0
   53.1846  -51.3200   20.9901 N   0  0  0  0  0  0  0  0  0  0  0  0
   53.9298  -48.5546   22.1907 N   0  0  0  0  0  0  0  0  0  0  0  0
   54.6271  -47.6447   22.8779 C   0  0  0  0  0  0  0  0  0  0  0  0
   55.6713  -48.2192   23.4842 N   0  0  0  0  0  0  0  0  0  0  0  0
   54.5409  -43.3717   26.4122 P   0  0  1  0  0  0  0  0  0  0  0  0
   55.4515  -40.8236   26.7724 C   0  0  0  0  0  0  0  0  0  0  0  0
   56.6476  -47.5671   24.3110 C   0  0  1  0  0  0  0  0  0  0  0  0
   53.9016  -43.5944   27.7622 O   0  0  0  0  0  0  0  0  0  0  0  0
   54.9749  -40.3995   27.8062 O   0  0  0  0  0  0  0  0  0  0  0  0
   57.6997  -46.6899   23.3525 C   0  0  2  0  0  0  0  0  0  0  0  0
   58.5897  -47.6157   22.6543 O   0  0  0  0  0  0  0  0  0  0  0  0
   53.6580  -43.9914   25.3717 O   0  0  0  0  0  0  0  0  0  0  0  0
   56.7709  -40.4474   26.2779 N   0  0  0  0  0  0  0  0  0  0  0  0
   58.2997  -45.8950   24.1629 C   0  0  2  0  0  0  0  0  0  0  0  0
   59.4794  -46.5495   24.8068 O   0  0  0  0  0  0  0  0  0  0  0  0
   54.8135  -41.7879   25.9843 O   0  0  0  0  0  0  0  0  0  0  0  0
   57.2408  -45.6209   25.2996 C   0  0  2  0  0  0  0  0  0  0  0  0
   56.1190  -46.6606   25.0457 O   0  0  0  0  0  0  0  0  0  0  0  0
   56.7180  -44.3306   25.2521 C   0  0  0  0  0  0  0  0  0  0  0  0
   56.0159  -44.1226   26.4512 O   0  0  0  0  0  0  0  0  0  0  0  0
   56.8489  -52.6279   23.3033 H   0  0  0  0  0  0  0  0  0  0  0  0
   52.5454  -50.5561   20.7277 H   0  0  0  0  0  0  0  0  0  0  0  0
   53.0197  -52.2736   20.6373 H   0  0  0  0  0  0  0  0  0  0  0  0
   54.3774  -46.5750   22.9364 H   0  0  0  0  0  0  0  0  0  0  0  0
   57.1224  -48.3649   24.9010 H   0  0  0  0  0  0  0  0  0  0  0  0
   57.2127  -46.1024   22.5603 H   0  0  0  0  0  0  0  0  0  0  0  0
   59.0996  -48.1461   23.3167 H   0  0  0  0  0  0  0  0  0  0  0  0
   57.1208  -40.8413   25.3929 H   0  0  0  0  0  0  0  0  0  0  0  0
   57.3529  -39.7877   26.8138 H   0  0  0  0  0  0  0  0  0  0  0  0
   58.6547  -44.9979   23.6345 H   0  0  0  0  0  0  0  0  0  0  0  0
   59.3883  -46.4989   25.7913 H   0  0  0  0  0  0  0  0  0  0  0  0
   57.7036  -45.7096   26.2936 H   0  0  0  0  0  0  0  0  0  0  0  0
   57.5325  -43.5971   25.1601 H   0  0  0  0  0  0  0  0  0  0  0  0
   56.0529  -44.2105   24.3842 H   0  0  0  0  0  0  0  0  0  0  0  0
  1  2  2  0
  1  6  1  0
  2  3  1  0
  3  4  2  0
  4  5  1  0
  4 10  1  0
  5  6  2  0
  5  8  1  0
  6  7  1  0
  8  9  2  0
  9 10  1  0
 13 10  1  0
 11 14  1  1
 11 18  2  0
 11 22  1  0
 11 26  1  0
 12 15  2  0
 12 19  1  0
 12 22  1  0
 13 16  1  0
 13 24  1  0
 16 17  1  0
 16 20  1  0
 20 21  1  0
 20 23  1  0
 23 24  1  0
 23 25  1  0
 25 26  1  0
  2 27  1  0
  7 28  1  0
  7 29  1  0
  9 30  1  0
 13 31  1  1
 16 32  1  6
 17 33  1  0
 19 34  1  0
 19 35  1  0
 20 36  1  6
 21 37  1  0
 23 38  1  1
 25 39  1  0
 25 40  1  0
M  CHG  1  14  -1
M  END
>  <filename_input>  (15) 
7VYJ_CA0_docked.sdf

>  <pdb_id>  (15) 
7VYJ_CA0

>  <pose_rank>  (15) 
14

>  <num_atoms_heavy>  (15) 
26

>  <num_torsions>  (15) 
6

>  <pose>  (15) 
[56.64759211996748, -47.56714888175582, 24.31099535276932, 0.20158361556549856, 1.4635988880274817, -3.5411442110674223, -0.25571597227595816, 0.2758130106554366, 1.0849505050479893, 18.42744429595294, -0.08609060942938611, 3.6920195112036787]

>  <energy>  (15) 
-638.6500188252824

>  <inter_energy>  (15) 
-635.4336429016267

>  <intra_energy>  (15) 
0.1387635244895631

>  <rmsd>  (15) 
8.17263

>  <sdf_rank>  (15) 
0

$$$$

     RDKit          3D

 40 42  0  0  0  0  0  0  0  0999 V2000
   54.1491  -49.6478   22.2952 N   0  0  0  0  0  0  0  0  0  0  0  0
   54.1060  -48.3590   22.6282 C   0  0  0  0  0  0  0  0  0  0  0  0
   55.1522  -47.7405   23.1942 N   0  0  0  0  0  0  0  0  0  0  0  0
   56.2965  -48.4074   23.4245 C   0  0  0  0  0  0  0  0  0  0  0  0
   56.3924  -49.7486   23.0702 C   0  0  0  0  0  0  0  0  0  0  0  0
   55.2610  -50.3646   22.4886 C   0  0  0  0  0  0  0  0  0  0  0  0
   55.3096  -51.7714   22.1113 N   0  0  0  0  0  0  0  0  0  0  0  0
   57.6341  -50.1626   23.3969 N   0  0  0  0  0  0  0  0  0  0  0  0
   58.2747  -49.1242   23.9426 C   0  0  0  0  0  0  0  0  0  0  0  0
   57.4851  -48.0451   23.9557 N   0  0  0  0  0  0  0  0  0  0  0  0
   55.2986  -41.7899   25.8677 P   0  0  1  0  0  0  0  0  0  0  0  0
   55.3491  -39.2825   26.9456 C   0  0  0  0  0  0  0  0  0  0  0  0
   57.8205  -46.7437   24.4613 C   0  0  1  0  0  0  0  0  0  0  0  0
   53.8661  -41.9994   25.4376 O   0  0  0  0  0  0  0  0  0  0  0  0
   56.2563  -38.4795   27.0337 O   0  0  0  0  0  0  0  0  0  0  0  0
   57.4936  -45.5878   23.2984 C   0  0  2  0  0  0  0  0  0  0  0  0
   58.5016  -45.6775   22.2435 O   0  0  0  0  0  0  0  0  0  0  0  0
   56.0892  -41.3737   24.6643 O   0  0  0  0  0  0  0  0  0  0  0  0
   53.9752  -38.9156   26.6217 N   0  0  0  0  0  0  0  0  0  0  0  0
   57.4953  -44.4715   23.9328 C   0  0  2  0  0  0  0  0  0  0  0  0
   58.8750  -43.9103   24.0600 O   0  0  0  0  0  0  0  0  0  0  0  0
   55.5453  -40.6627   27.0653 O   0  0  0  0  0  0  0  0  0  0  0  0
   57.0087  -44.8455   25.3861 C   0  0  2  0  0  0  0  0  0  0  0  0
   57.0509  -46.3950   25.4242 O   0  0  0  0  0  0  0  0  0  0  0  0
   55.7190  -44.3945   25.6574 C   0  0  0  0  0  0  0  0  0  0  0  0
   55.8406  -43.2415   26.4509 O   0  0  0  0  0  0  0  0  0  0  0  0
   53.1871  -47.7865   22.4337 H   0  0  0  0  0  0  0  0  0  0  0  0
   56.1705  -52.3160   22.2639 H   0  0  0  0  0  0  0  0  0  0  0  0
   54.4833  -52.2210   21.6920 H   0  0  0  0  0  0  0  0  0  0  0  0
   59.3051  -49.1531   24.3265 H   0  0  0  0  0  0  0  0  0  0  0  0
   58.8762  -46.8023   24.7647 H   0  0  0  0  0  0  0  0  0  0  0  0
   56.5275  -45.7149   22.7881 H   0  0  0  0  0  0  0  0  0  0  0  0
   59.4000  -45.7575   22.6516 H   0  0  0  0  0  0  0  0  0  0  0  0
   53.2485  -39.6429   26.5613 H   0  0  0  0  0  0  0  0  0  0  0  0
   53.7317  -37.9290   26.4535 H   0  0  0  0  0  0  0  0  0  0  0  0
   56.8725  -43.7289   23.4127 H   0  0  0  0  0  0  0  0  0  0  0  0
   59.1061  -43.8163   25.0180 H   0  0  0  0  0  0  0  0  0  0  0  0
   57.6474  -44.3710   26.1456 H   0  0  0  0  0  0  0  0  0  0  0  0
   55.1989  -44.1529   24.7187 H   0  0  0  0  0  0  0  0  0  0  0  0
   55.1364  -45.1681   26.1792 H   0  0  0  0  0  0  0  0  0  0  0  0
  1  2  2  0
  1  6  1  0
  2  3  1  0
  3  4  2  0
  4  5  1  0
  4 10  1  0
  5  6  2  0
  5  8  1  0
  6  7  1  0
  8  9  2  0
  9 10  1  0
 13 10  1  0
 11 14  1  6
 11 18  2  0
 11 22  1  0
 11 26  1  0
 12 15  2  0
 12 19  1  0
 12 22  1  0
 13 16  1  0
 13 24  1  0
 16 17  1  0
 16 20  1  0
 20 21  1  0
 20 23  1  0
 23 24  1  0
 23 25  1  0
 25 26  1  0
  2 27  1  0
  7 28  1  0
  7 29  1  0
  9 30  1  0
 13 31  1  1
 16 32  1  6
 17 33  1  0
 19 34  1  0
 19 35  1  0
 20 36  1  6
 21 37  1  0
 23 38  1  1
 25 39  1  0
 25 40  1  0
M  CHG  1  14  -1
M  END
>  <filename_input>  (16) 
7VYJ_CA0_docked.sdf

>  <pdb_id>  (16) 
7VYJ_CA0

>  <pose_rank>  (16) 
15

>  <num_atoms_heavy>  (16) 
26

>  <num_torsions>  (16) 
6

>  <pose>  (16) 
[57.82050179116387, -46.74365066601036, 24.461279755599673, -0.7994613922235165, 0.8097923653611262, -2.9423290787076604, -2.993157985650929, 7.710824072743816, -0.7684988842749043, -2.399585862725675, 4.144226788840715, -3.441245131352565]

>  <energy>  (16) 
-607.0697296826006

>  <inter_energy>  (16) 
-620.0172100193341

>  <intra_energy>  (16) 
11.940363115505534

>  <rmsd>  (16) 
8.25937

>  <sdf_rank>  (16) 
0

$$$$

     RDKit          3D

 40 42  0  0  0  0  0  0  0  0999 V2000
   56.7882  -40.2652   25.9412 N   0  0  0  0  0  0  0  0  0  0  0  0
   57.3766  -40.9885   24.9901 C   0  0  0  0  0  0  0  0  0  0  0  0
   56.9976  -42.2465   24.7233 N   0  0  0  0  0  0  0  0  0  0  0  0
   55.9853  -42.8129   25.4028 C   0  0  0  0  0  0  0  0  0  0  0  0
   55.3277  -42.0847   26.3881 C   0  0  0  0  0  0  0  0  0  0  0  0
   55.7687  -40.7667   26.6458 C   0  0  0  0  0  0  0  0  0  0  0  0
   55.1181  -39.9685   27.6770 N   0  0  0  0  0  0  0  0  0  0  0  0
   54.3605  -42.8769   26.8950 N   0  0  0  0  0  0  0  0  0  0  0  0
   54.4263  -44.0506   26.2589 C   0  0  0  0  0  0  0  0  0  0  0  0
   55.3966  -44.0276   25.3392 N   0  0  0  0  0  0  0  0  0  0  0  0
   53.2732  -50.3348   23.0314 P   0  0  1  0  0  0  0  0  0  0  0  0
   55.3086  -51.7241   21.8572 C   0  0  0  0  0  0  0  0  0  0  0  0
   55.7685  -45.0992   24.4587 C   0  0  1  0  0  0  0  0  0  0  0  0
   52.1104  -49.5438   22.4810 O   0  0  0  0  0  0  0  0  0  0  0  0
   55.9451  -51.3648   20.8870 O   0  0  0  0  0  0  0  0  0  0  0  0
   56.4408  -46.3472   25.3452 C   0  0  2  0  0  0  0  0  0  0  0  0
   57.7782  -45.9515   25.7829 O   0  0  0  0  0  0  0  0  0  0  0  0
   52.8090  -51.0452   24.2668 O   0  0  0  0  0  0  0  0  0  0  0  0
   55.9027  -52.3902   23.0107 N   0  0  0  0  0  0  0  0  0  0  0  0
   56.4247  -47.3593   24.5552 C   0  0  2  0  0  0  0  0  0  0  0  0
   57.6255  -47.3846   23.6652 O   0  0  0  0  0  0  0  0  0  0  0  0
   53.9425  -51.4606   22.0066 O   0  0  0  0  0  0  0  0  0  0  0  0
   55.1669  -47.1180   23.6342 C   0  0  2  0  0  0  0  0  0  0  0  0
   54.7439  -45.6556   23.9279 O   0  0  0  0  0  0  0  0  0  0  0  0
   54.1153  -47.9869   23.9163 C   0  0  0  0  0  0  0  0  0  0  0  0
   54.4644  -49.2443   23.3958 O   0  0  0  0  0  0  0  0  0  0  0  0
   58.1958  -40.5416   24.4077 H   0  0  0  0  0  0  0  0  0  0  0  0
   54.3334  -40.3630   28.2150 H   0  0  0  0  0  0  0  0  0  0  0  0
   55.4431  -39.0099   27.8678 H   0  0  0  0  0  0  0  0  0  0  0  0
   53.7746  -44.9130   26.4630 H   0  0  0  0  0  0  0  0  0  0  0  0
   56.4416  -44.6539   23.7113 H   0  0  0  0  0  0  0  0  0  0  0  0
   55.8955  -46.5966   26.2674 H   0  0  0  0  0  0  0  0  0  0  0  0
   57.8121  -45.9415   26.7723 H   0  0  0  0  0  0  0  0  0  0  0  0
   55.3101  -52.6715   23.8047 H   0  0  0  0  0  0  0  0  0  0  0  0
   56.9150  -52.5792   23.0312 H   0  0  0  0  0  0  0  0  0  0  0  0
   56.4060  -48.2981   25.1282 H   0  0  0  0  0  0  0  0  0  0  0  0
   58.4461  -47.4019   24.2186 H   0  0  0  0  0  0  0  0  0  0  0  0
   55.4164  -47.2983   22.5781 H   0  0  0  0  0  0  0  0  0  0  0  0
   53.9660  -48.0574   25.0038 H   0  0  0  0  0  0  0  0  0  0  0  0
   53.1785  -47.6249   23.4675 H   0  0  0  0  0  0  0  0  0  0  0  0
  1  2  2  0
  1  6  1  0
  2  3  1  0
  3  4  2  0
  4  5  1  0
  4 10  1  0
  5  6  2  0
  5  8  1  0
  6  7  1  0
  8  9  2  0
  9 10  1  0
 13 10  1  0
 11 14  1  6
 11 18  2  0
 11 22  1  0
 11 26  1  0
 12 15  2  0
 12 19  1  0
 12 22  1  0
 13 16  1  0
 13 24  1  0
 16 17  1  0
 16 20  1  0
 20 21  1  0
 20 23  1  0
 23 24  1  0
 23 25  1  0
 25 26  1  0
  2 27  1  0
  7 28  1  0
  7 29  1  0
  9 30  1  0
 13 31  1  6
 16 32  1  1
 17 33  1  0
 19 34  1  0
 19 35  1  0
 20 36  1  1
 21 37  1  0
 23 38  1  6
 25 39  1  0
 25 40  1  0
M  CHG  1  14  -1
M  END
>  <filename_input>  (17) 
7VYJ_CA0_docked.sdf

>  <pdb_id>  (17) 
7VYJ_CA0

>  <pose_rank>  (17) 
16

>  <num_atoms_heavy>  (17) 
26

>  <num_torsions>  (17) 
6

>  <pose>  (17) 
[55.76847140937735, -45.09924060534404, 24.458653014704712, -0.25239811425398245, 3.018990326031469, 1.1473732869689226, -0.12752994236708706, -10.659505670391507, -43.23893172775115, -27.81899224608364, -4.808487615309276, -3.2712354609775374]

>  <energy>  (17) 
-610.0767670131912

>  <inter_energy>  (17) 
-610.605627774619

>  <intra_energy>  (17) 
0.011490181872675463

>  <rmsd>  (17) 
4.26801

>  <sdf_rank>  (17) 
0

$$$$

     RDKit          3D

 40 42  0  0  0  0  0  0  0  0999 V2000
   54.5835  -49.0634   22.9816 N   0  0  0  0  0  0  0  0  0  0  0  0
   53.9320  -47.9018   22.9894 C   0  0  0  0  0  0  0  0  0  0  0  0
   54.5090  -46.7713   23.4213 N   0  0  0  0  0  0  0  0  0  0  0  0
   55.7852  -46.7747   23.8438 C   0  0  0  0  0  0  0  0  0  0  0  0
   56.5096  -47.9616   23.8298 C   0  0  0  0  0  0  0  0  0  0  0  0
   55.8581  -49.1323   23.3793 C   0  0  0  0  0  0  0  0  0  0  0  0
   56.5726  -50.4021   23.3575 N   0  0  0  0  0  0  0  0  0  0  0  0
   57.7476  -47.6820   24.2873 N   0  0  0  0  0  0  0  0  0  0  0  0
   57.7829  -46.3793   24.5843 C   0  0  0  0  0  0  0  0  0  0  0  0
   56.6061  -45.8073   24.3089 N   0  0  0  0  0  0  0  0  0  0  0  0
   60.5133  -42.0343   24.0380 P   0  0  1  0  0  0  0  0  0  0  0  0
   59.6958  -40.5273   21.9139 C   0  0  0  0  0  0  0  0  0  0  0  0
   56.2606  -44.4257   24.4932 C   0  0  1  0  0  0  0  0  0  0  0  0
   61.7000  -42.9568   24.1845 O   0  0  0  0  0  0  0  0  0  0  0  0
   60.4001  -40.0200   21.0639 O   0  0  0  0  0  0  0  0  0  0  0  0
   56.0773  -44.1052   26.1238 C   0  0  2  0  0  0  0  0  0  0  0  0
   54.8279  -44.7053   26.5879 O   0  0  0  0  0  0  0  0  0  0  0  0
   60.8780  -40.7091   24.6356 O   0  0  0  0  0  0  0  0  0  0  0  0
   58.4396  -39.9460   22.3733 N   0  0  0  0  0  0  0  0  0  0  0  0
   56.1103  -42.8248   26.2142 C   0  0  2  0  0  0  0  0  0  0  0  0
   54.7648  -42.2191   25.9745 O   0  0  0  0  0  0  0  0  0  0  0  0
   59.9772  -41.7730   22.4856 O   0  0  0  0  0  0  0  0  0  0  0  0
   57.0438  -42.3715   25.0261 C   0  0  2  0  0  0  0  0  0  0  0  0
   57.2228  -43.6471   24.1630 O   0  0  0  0  0  0  0  0  0  0  0  0
   58.2840  -41.9081   25.4591 C   0  0  0  0  0  0  0  0  0  0  0  0
   59.2620  -42.7279   24.8713 O   0  0  0  0  0  0  0  0  0  0  0  0
   52.8922  -47.8691   22.6319 H   0  0  0  0  0  0  0  0  0  0  0  0
   57.5545  -50.4460   23.6657 H   0  0  0  0  0  0  0  0  0  0  0  0
   56.0959  -51.2558   23.0338 H   0  0  0  0  0  0  0  0  0  0  0  0
   58.6560  -45.8526   24.9968 H   0  0  0  0  0  0  0  0  0  0  0  0
   55.3565  -44.2591   23.8892 H   0  0  0  0  0  0  0  0  0  0  0  0
   56.8615  -44.5355   26.7640 H   0  0  0  0  0  0  0  0  0  0  0  0
   54.8130  -44.7125   27.5778 H   0  0  0  0  0  0  0  0  0  0  0  0
   57.8855  -40.4241   23.0981 H   0  0  0  0  0  0  0  0  0  0  0  0
   58.1065  -39.0574   21.9730 H   0  0  0  0  0  0  0  0  0  0  0  0
   56.4496  -42.5153   27.2138 H   0  0  0  0  0  0  0  0  0  0  0  0
   54.3313  -42.0239   26.8429 H   0  0  0  0  0  0  0  0  0  0  0  0
   56.5957  -41.5303   24.4770 H   0  0  0  0  0  0  0  0  0  0  0  0
   58.4276  -40.8643   25.1432 H   0  0  0  0  0  0  0  0  0  0  0  0
   58.3528  -41.9436   26.5564 H   0  0  0  0  0  0  0  0  0  0  0  0
  1  2  2  0
  1  6  1  0
  2  3  1  0
  3  4  2  0
  4  5  1  0
  4 10  1  0
  5  6  2  0
  5  8  1  0
  6  7  1  0
  8  9  2  0
  9 10  1  0
 13 10  1  0
 11 14  1  6
 11 18  2  0
 11 22  1  0
 11 26  1  0
 12 15  2  0
 12 19  1  0
 12 22  1  0
 13 16  1  0
 13 24  1  0
 16 17  1  0
 16 20  1  0
 20 21  1  0
 20 23  1  0
 23 24  1  0
 23 25  1  0
 25 26  1  0
  2 27  1  0
  7 28  1  0
  7 29  1  0
  9 30  1  0
 13 31  1  6
 16 32  1  1
 17 33  1  0
 19 34  1  0
 19 35  1  0
 20 36  1  1
 21 37  1  0
 23 38  1  6
 25 39  1  0
 25 40  1  0
M  CHG  1  14  -1
M  END
>  <filename_input>  (18) 
7VYJ_CA0_docked.sdf

>  <pdb_id>  (18) 
7VYJ_CA0

>  <pose_rank>  (18) 
17

>  <num_atoms_heavy>  (18) 
26

>  <num_torsions>  (18) 
6

>  <pose>  (18) 
[56.260604792881416, -44.42572830954865, 24.493178775993105, -3.095339483464689, -0.1808427056307279, 0.25526253796207093, -0.21661725314589084, -0.9737213864838645, -0.5727022146223572, -0.7129412842977647, -3.2586168058751133, 0.46686614279518923]

>  <energy>  (18) 
-547.8853832507856

>  <inter_energy>  (18) 
-550.109238852435

>  <intra_energy>  (18) 
1.3559889120673247

>  <rmsd>  (18) 
7.16152

>  <sdf_rank>  (18) 
0

$$$$

     RDKit          3D

 40 42  0  0  0  0  0  0  0  0999 V2000
   57.8716  -50.5451   23.8755 N   0  0  0  0  0  0  0  0  0  0  0  0
   57.3814  -49.3950   23.4165 C   0  0  0  0  0  0  0  0  0  0  0  0
   57.9491  -48.2170   23.7126 N   0  0  0  0  0  0  0  0  0  0  0  0
   59.0561  -48.1650   24.4735 C   0  0  0  0  0  0  0  0  0  0  0  0
   59.6147  -49.3443   24.9540 C   0  0  0  0  0  0  0  0  0  0  0  0
   58.9761  -50.5626   24.6287 C   0  0  0  0  0  0  0  0  0  0  0  0
   59.5177  -51.8236   25.1190 N   0  0  0  0  0  0  0  0  0  0  0  0
   60.7087  -49.0087   25.6686 N   0  0  0  0  0  0  0  0  0  0  0  0
   60.8144  -47.6765   25.6420 C   0  0  0  0  0  0  0  0  0  0  0  0
   59.8291  -47.1461   24.9099 N   0  0  0  0  0  0  0  0  0  0  0  0
   54.7462  -46.0087   24.1155 P   0  0  1  0  0  0  0  0  0  0  0  0
   54.2549  -48.3539   22.8079 C   0  0  0  0  0  0  0  0  0  0  0  0
   59.6100  -45.7510   24.6500 C   0  0  1  0  0  0  0  0  0  0  0  0
   53.9225  -44.7582   24.3121 O   0  0  0  0  0  0  0  0  0  0  0  0
   55.1259  -49.0617   22.3430 O   0  0  0  0  0  0  0  0  0  0  0  0
   59.3257  -45.5213   23.0186 C   0  0  2  0  0  0  0  0  0  0  0  0
   60.5827  -45.6832   22.2903 O   0  0  0  0  0  0  0  0  0  0  0  0
   54.6289  -46.8424   25.3554 O   0  0  0  0  0  0  0  0  0  0  0  0
   53.0726  -48.8706   23.4879 N   0  0  0  0  0  0  0  0  0  0  0  0
   58.8177  -44.3450   22.9345 C   0  0  2  0  0  0  0  0  0  0  0  0
   59.8747  -43.2901   22.8682 O   0  0  0  0  0  0  0  0  0  0  0  0
   54.3363  -46.9571   22.8123 O   0  0  0  0  0  0  0  0  0  0  0  0
   58.0502  -44.1507   24.2989 C   0  0  2  0  0  0  0  0  0  0  0  0
   58.5229  -45.3332   25.1835 O   0  0  0  0  0  0  0  0  0  0  0  0
   56.6656  -44.1867   24.1507 C   0  0  0  0  0  0  0  0  0  0  0  0
   56.3110  -45.5199   23.8845 O   0  0  0  0  0  0  0  0  0  0  0  0
   56.4865  -49.4119   22.7770 H   0  0  0  0  0  0  0  0  0  0  0  0
   60.3691  -51.8277   25.6987 H   0  0  0  0  0  0  0  0  0  0  0  0
   59.0491  -52.7107   24.8858 H   0  0  0  0  0  0  0  0  0  0  0  0
   61.6003  -47.0986   26.1502 H   0  0  0  0  0  0  0  0  0  0  0  0
   60.4979  -45.2302   25.0380 H   0  0  0  0  0  0  0  0  0  0  0  0
   58.6342  -46.2493   22.5694 H   0  0  0  0  0  0  0  0  0  0  0  0
   61.3277  -45.7791   22.9352 H   0  0  0  0  0  0  0  0  0  0  0  0
   52.3676  -48.2192   23.8616 H   0  0  0  0  0  0  0  0  0  0  0  0
   52.9426  -49.8868   23.5944 H   0  0  0  0  0  0  0  0  0  0  0  0
   58.1917  -44.2565   22.0343 H   0  0  0  0  0  0  0  0  0  0  0  0
   60.1374  -43.0280   23.7860 H   0  0  0  0  0  0  0  0  0  0  0  0
   58.2696  -43.1639   24.7328 H   0  0  0  0  0  0  0  0  0  0  0  0
   56.1785  -43.8447   25.0757 H   0  0  0  0  0  0  0  0  0  0  0  0
   56.3431  -43.5260   23.3325 H   0  0  0  0  0  0  0  0  0  0  0  0
  1  2  2  0
  1  6  1  0
  2  3  1  0
  3  4  2  0
  4  5  1  0
  4 10  1  0
  5  6  2  0
  5  8  1  0
  6  7  1  0
  8  9  2  0
  9 10  1  0
 13 10  1  0
 11 14  1  1
 11 18  2  0
 11 22  1  0
 11 26  1  0
 12 15  2  0
 12 19  1  0
 12 22  1  0
 13 16  1  0
 13 24  1  0
 16 17  1  0
 16 20  1  0
 20 21  1  0
 20 23  1  0
 23 24  1  0
 23 25  1  0
 25 26  1  0
  2 27  1  0
  7 28  1  0
  7 29  1  0
  9 30  1  0
 13 31  1  1
 16 32  1  6
 17 33  1  0
 19 34  1  0
 19 35  1  0
 20 36  1  6
 21 37  1  0
 23 38  1  1
 25 39  1  0
 25 40  1  0
M  CHG  1  14  -1
M  END
>  <filename_input>  (19) 
7VYJ_CA0_docked.sdf

>  <pdb_id>  (19) 
7VYJ_CA0

>  <pose_rank>  (19) 
18

>  <num_atoms_heavy>  (19) 
26

>  <num_torsions>  (19) 
6

>  <pose>  (19) 
[59.61002147200958, -45.75097236863785, 24.65003504690599, -0.5398609199681694, -0.1680356326759443, -2.838578893965655, 3.3726365093627284, -1.8181935664285214, 0.007753530925981529, -9.402074215719823, 2.9205654547146724, 3.0835495187596678]

>  <energy>  (19) 
-563.5620349595373

>  <inter_energy>  (19) 
-622.0377660094617

>  <intra_energy>  (19) 
69.40927454356805

>  <rmsd>  (19) 
7.01311

>  <sdf_rank>  (19) 
0

$$$$

     RDKit          3D

 40 42  0  0  0  0  0  0  0  0999 V2000
   55.9363  -42.8273   25.8173 N   0  0  0  0  0  0  0  0  0  0  0  0
   55.9886  -44.1519   25.6883 C   0  0  0  0  0  0  0  0  0  0  0  0
   56.9703  -44.7566   25.0042 N   0  0  0  0  0  0  0  0  0  0  0  0
   57.9540  -44.0346   24.4400 C   0  0  0  0  0  0  0  0  0  0  0  0
   57.9507  -42.6502   24.5706 C   0  0  0  0  0  0  0  0  0  0  0  0
   56.8897  -42.0532   25.2887 C   0  0  0  0  0  0  0  0  0  0  0  0
   56.8370  -40.6050   25.4424 N   0  0  0  0  0  0  0  0  0  0  0  0
   59.0415  -42.1836   23.9284 N   0  0  0  0  0  0  0  0  0  0  0  0
   59.6850  -43.2346   23.4110 C   0  0  0  0  0  0  0  0  0  0  0  0
   59.0490  -44.3689   23.7222 N   0  0  0  0  0  0  0  0  0  0  0  0
   55.0096  -47.9304   23.7629 P   0  0  1  0  0  0  0  0  0  0  0  0
   53.9923  -50.0707   22.4081 C   0  0  0  0  0  0  0  0  0  0  0  0
   59.4366  -45.6996   23.3468 C   0  0  1  0  0  0  0  0  0  0  0  0
   54.4049  -46.9633   22.7730 O   0  0  0  0  0  0  0  0  0  0  0  0
   54.4557  -50.2981   21.3084 O   0  0  0  0  0  0  0  0  0  0  0  0
   59.3699  -46.7023   24.6830 C   0  0  2  0  0  0  0  0  0  0  0  0
   60.4917  -46.3904   25.5668 O   0  0  0  0  0  0  0  0  0  0  0  0
   54.4517  -47.6179   25.1184 O   0  0  0  0  0  0  0  0  0  0  0  0
   52.6225  -50.3953   22.7894 N   0  0  0  0  0  0  0  0  0  0  0  0
   59.3943  -47.8932   24.2036 C   0  0  2  0  0  0  0  0  0  0  0  0
   60.7925  -48.3619   23.9590 O   0  0  0  0  0  0  0  0  0  0  0  0
   54.7546  -49.5451   23.4570 O   0  0  0  0  0  0  0  0  0  0  0  0
   58.6932  -47.7640   22.7964 C   0  0  2  0  0  0  0  0  0  0  0  0
   58.5860  -46.2364   22.5535 O   0  0  0  0  0  0  0  0  0  0  0  0
   57.4269  -48.3438   22.7676 C   0  0  0  0  0  0  0  0  0  0  0  0
   56.6467  -47.6853   23.7328 O   0  0  0  0  0  0  0  0  0  0  0  0
   55.2051  -44.7663   26.1558 H   0  0  0  0  0  0  0  0  0  0  0  0
   57.5758  -40.0163   25.0319 H   0  0  0  0  0  0  0  0  0  0  0  0
   56.0609  -40.1701   25.9616 H   0  0  0  0  0  0  0  0  0  0  0  0
   60.6069  -43.1750   22.8139 H   0  0  0  0  0  0  0  0  0  0  0  0
   60.4348  -45.6053   22.8943 H   0  0  0  0  0  0  0  0  0  0  0  0
   58.4693  -46.5775   25.3021 H   0  0  0  0  0  0  0  0  0  0  0  0
   60.2013  -46.4712   26.5098 H   0  0  0  0  0  0  0  0  0  0  0  0
   52.2868  -50.1777   23.7385 H   0  0  0  0  0  0  0  0  0  0  0  0
   51.9908  -50.8423   22.1096 H   0  0  0  0  0  0  0  0  0  0  0  0
   58.9148  -48.6000   24.8968 H   0  0  0  0  0  0  0  0  0  0  0  0
   61.2460  -48.5139   24.8258 H   0  0  0  0  0  0  0  0  0  0  0  0
   59.2709  -48.2912   22.0228 H   0  0  0  0  0  0  0  0  0  0  0  0
   56.9779  -48.2193   21.7712 H   0  0  0  0  0  0  0  0  0  0  0  0
   57.4857  -49.4212   22.9816 H   0  0  0  0  0  0  0  0  0  0  0  0
  1  2  2  0
  1  6  1  0
  2  3  1  0
  3  4  2  0
  4  5  1  0
  4 10  1  0
  5  6  2  0
  5  8  1  0
  6  7  1  0
  8  9  2  0
  9 10  1  0
 13 10  1  0
 11 14  1  6
 11 18  2  0
 11 22  1  0
 11 26  1  0
 12 15  2  0
 12 19  1  0
 12 22  1  0
 13 16  1  0
 13 24  1  0
 16 17  1  0
 16 20  1  0
 20 21  1  0
 20 23  1  0
 23 24  1  0
 23 25  1  0
 25 26  1  0
  2 27  1  0
  7 28  1  0
  7 29  1  0
  9 30  1  0
 13 31  1  6
 16 32  1  1
 17 33  1  0
 19 34  1  0
 19 35  1  0
 20 36  1  1
 21 37  1  0
 23 38  1  6
 25 39  1  0
 25 40  1  0
M  CHG  1  14  -1
M  END
>  <filename_input>  (20) 
7VYJ_CA0_docked.sdf

>  <pdb_id>  (20) 
7VYJ_CA0

>  <pose_rank>  (20) 
19

>  <num_atoms_heavy>  (20) 
26

>  <num_torsions>  (20) 
6

>  <pose>  (20) 
[59.43657594527597, -45.699632491186456, 23.346780740350745, -0.1294213912544266, 2.72021040630663, 0.575202135141142, -2.911171968258149, -2.029733639497707, 0.13506762967056551, 1.468616730030513, -1.0099536423060005, 0.10610560253473203]

>  <energy>  (20) 
-549.8762784539852

>  <inter_energy>  (20) 
-575.4090355491261

>  <intra_energy>  (20) 
24.35989773090772

>  <rmsd>  (20) 
4.59304

>  <sdf_rank>  (20) 
0

$$$$

     RDKit          3D

 40 42  0  0  0  0  0  0  0  0999 V2000
   59.7742  -40.9663   24.5912 N   0  0  0  0  0  0  0  0  0  0  0  0
   58.4788  -41.0520   24.8884 C   0  0  0  0  0  0  0  0  0  0  0  0
   57.7740  -42.1691   24.6587 N   0  0  0  0  0  0  0  0  0  0  0  0
   58.3681  -43.2554   24.1351 C   0  0  0  0  0  0  0  0  0  0  0  0
   59.7247  -43.2167   23.8321 C   0  0  0  0  0  0  0  0  0  0  0  0
   60.4262  -42.0145   24.0778 C   0  0  0  0  0  0  0  0  0  0  0  0
   61.8467  -41.9221   23.7656 N   0  0  0  0  0  0  0  0  0  0  0  0
   60.0606  -44.4264   23.3381 N   0  0  0  0  0  0  0  0  0  0  0  0
   58.9549  -45.1771   23.3239 C   0  0  0  0  0  0  0  0  0  0  0  0
   57.9194  -44.4897   23.8170 N   0  0  0  0  0  0  0  0  0  0  0  0
   54.6257  -41.7551   27.4046 P   0  0  1  0  0  0  0  0  0  0  0  0
   53.3902  -42.7206   29.6391 C   0  0  0  0  0  0  0  0  0  0  0  0
   56.5702  -44.9593   23.9626 C   0  0  1  0  0  0  0  0  0  0  0  0
   53.6170  -40.6437   27.2365 O   0  0  0  0  0  0  0  0  0  0  0  0
   53.0442  -41.8138   30.3697 O   0  0  0  0  0  0  0  0  0  0  0  0
   56.5171  -46.1663   25.1183 C   0  0  2  0  0  0  0  0  0  0  0  0
   57.1113  -47.3811   24.5634 O   0  0  0  0  0  0  0  0  0  0  0  0
   55.9965  -41.1527   27.3389 O   0  0  0  0  0  0  0  0  0  0  0  0
   52.6355  -43.9578   29.4755 N   0  0  0  0  0  0  0  0  0  0  0  0
   55.2742  -46.2801   25.4199 C   0  0  2  0  0  0  0  0  0  0  0  0
   54.5581  -47.1927   24.4771 O   0  0  0  0  0  0  0  0  0  0  0  0
   54.5141  -42.6378   28.8096 O   0  0  0  0  0  0  0  0  0  0  0  0
   54.6845  -44.8327   25.2057 C   0  0  2  0  0  0  0  0  0  0  0  0
   55.8057  -44.0613   24.4629 O   0  0  0  0  0  0  0  0  0  0  0  0
   54.3747  -44.1921   26.4033 C   0  0  0  0  0  0  0  0  0  0  0  0
   54.3890  -42.8101   26.1508 O   0  0  0  0  0  0  0  0  0  0  0  0
   57.9734  -40.1827   25.3343 H   0  0  0  0  0  0  0  0  0  0  0  0
   62.3410  -42.7347   23.3704 H   0  0  0  0  0  0  0  0  0  0  0  0
   62.3563  -41.0442   23.9403 H   0  0  0  0  0  0  0  0  0  0  0  0
   58.9040  -46.2134   22.9585 H   0  0  0  0  0  0  0  0  0  0  0  0
   56.2513  -45.2731   22.9577 H   0  0  0  0  0  0  0  0  0  0  0  0
   57.0945  -45.9508   26.0295 H   0  0  0  0  0  0  0  0  0  0  0  0
   57.4012  -47.9736   25.3017 H   0  0  0  0  0  0  0  0  0  0  0  0
   52.9806  -44.6914   28.8401 H   0  0  0  0  0  0  0  0  0  0  0  0
   51.7574  -44.0980   29.9953 H   0  0  0  0  0  0  0  0  0  0  0  0
   55.1573  -46.6819   26.4372 H   0  0  0  0  0  0  0  0  0  0  0  0
   54.0366  -47.8573   24.9932 H   0  0  0  0  0  0  0  0  0  0  0  0
   53.7380  -44.8758   24.6469 H   0  0  0  0  0  0  0  0  0  0  0  0
   53.3775  -44.5017   26.7493 H   0  0  0  0  0  0  0  0  0  0  0  0
   55.1022  -44.4538   27.1857 H   0  0  0  0  0  0  0  0  0  0  0  0
  1  2  2  0
  1  6  1  0
  2  3  1  0
  3  4  2  0
  4  5  1  0
  4 10  1  0
  5  6  2  0
  5  8  1  0
  6  7  1  0
  8  9  2  0
  9 10  1  0
 13 10  1  0
 11 14  1  1
 11 18  2  0
 11 22  1  0
 11 26  1  0
 12 15  2  0
 12 19  1  0
 12 22  1  0
 13 16  1  0
 13 24  1  0
 16 17  1  0
 16 20  1  0
 20 21  1  0
 20 23  1  0
 23 24  1  0
 23 25  1  0
 25 26  1  0
  2 27  1  0
  7 28  1  0
  7 29  1  0
  9 30  1  0
 13 31  1  6
 16 32  1  1
 17 33  1  0
 19 34  1  0
 19 35  1  0
 20 36  1  1
 21 37  1  0
 23 38  1  6
 25 39  1  0
 25 40  1  0
M  CHG  1  14  -1
M  END
>  <filename_input>  (21) 
7VYJ_CA0_docked.sdf

>  <pdb_id>  (21) 
7VYJ_CA0

>  <pose_rank>  (21) 
20

>  <num_atoms_heavy>  (21) 
26

>  <num_torsions>  (21) 
6

>  <pose>  (21) 
[56.570186112144015, -44.95932369936443, 23.962611120478066, -1.7117343426941243, -1.9732824725929572, -0.3602079709105501, -4.054728852221617, -0.3396674065361706, 0.7347233221836639, 0.5894871761895304, -0.615363521264526, -2.7185872530754236]

>  <energy>  (21) 
-586.3812968995423

>  <inter_energy>  (21) 
-607.2243671317055

>  <intra_energy>  (21) 
26.10989643535028

>  <rmsd>  (21) 
6.78453

>  <sdf_rank>  (21) 
0

$$$$

     RDKit          3D

 40 42  0  0  0  0  0  0  0  0999 V2000
   55.1640  -43.8783   25.2764 N   0  0  0  0  0  0  0  0  0  0  0  0
   54.9847  -45.1830   25.0774 C   0  0  0  0  0  0  0  0  0  0  0  0
   55.9823  -45.9780   24.6647 N   0  0  0  0  0  0  0  0  0  0  0  0
   57.2128  -45.4778   24.4582 C   0  0  0  0  0  0  0  0  0  0  0  0
   57.4494  -44.1251   24.6769 C   0  0  0  0  0  0  0  0  0  0  0  0
   56.3662  -43.3210   25.0987 C   0  0  0  0  0  0  0  0  0  0  0  0
   56.5625  -41.8956   25.3297 N   0  0  0  0  0  0  0  0  0  0  0  0
   58.7517  -43.8966   24.4092 N   0  0  0  0  0  0  0  0  0  0  0  0
   59.2944  -45.0570   24.0279 C   0  0  0  0  0  0  0  0  0  0  0  0
   58.3805  -46.0324   24.0645 N   0  0  0  0  0  0  0  0  0  0  0  0
   54.8346  -51.4988   21.5925 P   0  0  1  0  0  0  0  0  0  0  0  0
   52.6026  -50.8395   23.0190 C   0  0  0  0  0  0  0  0  0  0  0  0
   58.5860  -47.4127   23.7260 C   0  0  1  0  0  0  0  0  0  0  0  0
   55.0245  -52.7635   22.3959 O   0  0  0  0  0  0  0  0  0  0  0  0
   52.6584  -50.3253   24.1181 O   0  0  0  0  0  0  0  0  0  0  0  0
   58.2250  -48.3744   25.0451 C   0  0  2  0  0  0  0  0  0  0  0  0
   59.2871  -48.2340   26.0396 O   0  0  0  0  0  0  0  0  0  0  0  0
   54.7002  -51.8805   20.1494 O   0  0  0  0  0  0  0  0  0  0  0  0
   51.5294  -51.7338   22.6000 N   0  0  0  0  0  0  0  0  0  0  0  0
   58.1068  -49.5600   24.5667 C   0  0  2  0  0  0  0  0  0  0  0  0
   59.4295  -50.2489   24.4643 O   0  0  0  0  0  0  0  0  0  0  0  0
   53.5251  -50.5601   22.0047 O   0  0  0  0  0  0  0  0  0  0  0  0
   57.5813  -49.3389   23.0958 C   0  0  2  0  0  0  0  0  0  0  0  0
   57.7451  -47.8171   22.8484 O   0  0  0  0  0  0  0  0  0  0  0  0
   56.2481  -49.7096   22.9363 C   0  0  0  0  0  0  0  0  0  0  0  0
   56.1867  -50.5733   21.8298 O   0  0  0  0  0  0  0  0  0  0  0  0
   53.9913  -45.6201   25.2565 H   0  0  0  0  0  0  0  0  0  0  0  0
   57.4922  -41.4745   25.1904 H   0  0  0  0  0  0  0  0  0  0  0  0
   55.7717  -41.3091   25.6323 H   0  0  0  0  0  0  0  0  0  0  0  0
   60.3439  -45.1906   23.7267 H   0  0  0  0  0  0  0  0  0  0  0  0
   59.6270  -47.4847   23.3779 H   0  0  0  0  0  0  0  0  0  0  0  0
   57.2980  -48.0995   25.5697 H   0  0  0  0  0  0  0  0  0  0  0  0
   58.8973  -48.2855   26.9482 H   0  0  0  0  0  0  0  0  0  0  0  0
   51.5372  -52.1395   21.6533 H   0  0  0  0  0  0  0  0  0  0  0  0
   50.7637  -51.9596   23.2508 H   0  0  0  0  0  0  0  0  0  0  0  0
   57.4527  -50.1722   25.2050 H   0  0  0  0  0  0  0  0  0  0  0  0
   59.7782  -50.4306   25.3729 H   0  0  0  0  0  0  0  0  0  0  0  0
   58.1424  -49.9615   22.3834 H   0  0  0  0  0  0  0  0  0  0  0  0
   55.8901  -50.2269   23.8386 H   0  0  0  0  0  0  0  0  0  0  0  0
   55.6133  -48.8254   22.7772 H   0  0  0  0  0  0  0  0  0  0  0  0
  1  2  2  0
  1  6  1  0
  2  3  1  0
  3  4  2  0
  4  5  1  0
  4 10  1  0
  5  6  2  0
  5  8  1  0
  6  7  1  0
  8  9  2  0
  9 10  1  0
 13 10  1  0
 11 14  1  1
 11 18  2  0
 11 22  1  0
 11 26  1  0
 12 15  2  0
 12 19  1  0
 12 22  1  0
 13 16  1  0
 13 24  1  0
 16 17  1  0
 16 20  1  0
 20 21  1  0
 20 23  1  0
 23 24  1  0
 23 25  1  0
 25 26  1  0
  2 27  1  0
  7 28  1  0
  7 29  1  0
  9 30  1  0
 13 31  1  6
 16 32  1  1
 17 33  1  0
 19 34  1  0
 19 35  1  0
 20 36  1  1
 21 37  1  0
 23 38  1  6
 25 39  1  0
 25 40  1  0
M  CHG  1  14  -1
M  END
>  <filename_input>  (22) 
7VYJ_CA0_docked.sdf

>  <pdb_id>  (22) 
7VYJ_CA0

>  <pose_rank>  (22) 
21

>  <num_atoms_heavy>  (22) 
26

>  <num_torsions>  (22) 
6

>  <pose>  (22) 
[58.58603890728816, -47.41265427798779, 23.72602885545923, 0.056980376725084936, 2.603063265063925, 0.5014410268033898, -3.1181322090122197, 0.9666684340939137, 0.06677903366956327, 1.4466867756218944, 5.325058105449018, 0.30823957069833424]

>  <energy>  (22) 
-530.7827813576506

>  <inter_energy>  (22) 
-535.6996920576006

>  <intra_energy>  (22) 
8.838244748994

>  <rmsd>  (22) 
5.0694

>  <sdf_rank>  (22) 
0

$$$$

     RDKit          3D

 40 42  0  0  0  0  0  0  0  0999 V2000
   53.7274  -40.8392   28.2722 N   0  0  0  0  0  0  0  0  0  0  0  0
   53.3009  -42.0832   28.4829 C   0  0  0  0  0  0  0  0  0  0  0  0
   53.7637  -43.1190   27.7684 N   0  0  0  0  0  0  0  0  0  0  0  0
   54.6993  -42.9312   26.8215 C   0  0  0  0  0  0  0  0  0  0  0  0
   55.1895  -41.6515   26.5853 C   0  0  0  0  0  0  0  0  0  0  0  0
   54.6641  -40.5868   27.3523 C   0  0  0  0  0  0  0  0  0  0  0  0
   55.1384  -39.2264   27.1328 N   0  0  0  0  0  0  0  0  0  0  0  0
   56.1127  -41.7493   25.6065 N   0  0  0  0  0  0  0  0  0  0  0  0
   56.1807  -43.0339   25.2434 C   0  0  0  0  0  0  0  0  0  0  0  0
   55.3410  -43.7702   25.9787 N   0  0  0  0  0  0  0  0  0  0  0  0
   56.9533  -49.4213   22.8500 P   0  0  1  0  0  0  0  0  0  0  0  0
   56.0813  -50.6316   20.5639 C   0  0  0  0  0  0  0  0  0  0  0  0
   55.1340  -45.1878   25.8813 C   0  0  1  0  0  0  0  0  0  0  0  0
   56.3268  -50.2056   23.9784 O   0  0  0  0  0  0  0  0  0  0  0  0
   56.5937  -50.6904   19.4641 O   0  0  0  0  0  0  0  0  0  0  0  0
   54.7275  -45.5896   24.3101 C   0  0  2  0  0  0  0  0  0  0  0  0
   53.3580  -45.1515   24.0474 O   0  0  0  0  0  0  0  0  0  0  0  0
   58.3553  -49.9166   22.6618 O   0  0  0  0  0  0  0  0  0  0  0  0
   55.3889  -51.7509   21.1924 N   0  0  0  0  0  0  0  0  0  0  0  0
   54.8947  -46.8608   24.2407 C   0  0  2  0  0  0  0  0  0  0  0  0
   53.6860  -47.6036   24.7116 O   0  0  0  0  0  0  0  0  0  0  0  0
   56.1740  -49.5010   21.3830 O   0  0  0  0  0  0  0  0  0  0  0  0
   56.0549  -47.1605   25.2667 C   0  0  2  0  0  0  0  0  0  0  0  0
   56.2212  -45.8405   26.0630 O   0  0  0  0  0  0  0  0  0  0  0  0
   57.2541  -47.4984   24.6436 C   0  0  0  0  0  0  0  0  0  0  0  0
   56.9511  -47.8317   23.3128 O   0  0  0  0  0  0  0  0  0  0  0  0
   52.5485  -42.2658   29.2643 H   0  0  0  0  0  0  0  0  0  0  0  0
   55.8603  -39.0411   26.4219 H   0  0  0  0  0  0  0  0  0  0  0  0
   54.7516  -38.4502   27.6885 H   0  0  0  0  0  0  0  0  0  0  0  0
   56.8345  -43.4291   24.4521 H   0  0  0  0  0  0  0  0  0  0  0  0
   54.3655  -45.4312   26.6297 H   0  0  0  0  0  0  0  0  0  0  0  0
   55.3418  -45.0992   23.5407 H   0  0  0  0  0  0  0  0  0  0  0  0
   52.8890  -45.0014   24.9063 H   0  0  0  0  0  0  0  0  0  0  0  0
   54.9740  -51.6396   22.1286 H   0  0  0  0  0  0  0  0  0  0  0  0
   55.3149  -52.6526   20.7002 H   0  0  0  0  0  0  0  0  0  0  0  0
   55.1013  -47.1687   23.2051 H   0  0  0  0  0  0  0  0  0  0  0  0
   53.6697  -47.6136   25.7014 H   0  0  0  0  0  0  0  0  0  0  0  0
   55.8032  -48.0248   25.8988 H   0  0  0  0  0  0  0  0  0  0  0  0
   57.9464  -46.6440   24.6699 H   0  0  0  0  0  0  0  0  0  0  0  0
   57.7368  -48.3428   25.1575 H   0  0  0  0  0  0  0  0  0  0  0  0
  1  2  2  0
  1  6  1  0
  2  3  1  0
  3  4  2  0
  4  5  1  0
  4 10  1  0
  5  6  2  0
  5  8  1  0
  6  7  1  0
  8  9  2  0
  9 10  1  0
 13 10  1  0
 11 14  1  1
 11 18  2  0
 11 22  1  0
 11 26  1  0
 12 15  2  0
 12 19  1  0
 12 22  1  0
 13 16  1  0
 13 24  1  0
 16 17  1  0
 16 20  1  0
 20 21  1  0
 20 23  1  0
 23 24  1  0
 23 25  1  0
 25 26  1  0
  2 27  1  0
  7 28  1  0
  7 29  1  0
  9 30  1  0
 13 31  1  1
 16 32  1  6
 17 33  1  0
 19 34  1  0
 19 35  1  0
 20 36  1  6
 21 37  1  0
 23 38  1  1
 25 39  1  0
 25 40  1  0
M  CHG  1  14  -1
M  END
>  <filename_input>  (23) 
7VYJ_CA0_docked.sdf

>  <pdb_id>  (23) 
7VYJ_CA0

>  <pose_rank>  (23) 
22

>  <num_atoms_heavy>  (23) 
26

>  <num_torsions>  (23) 
6

>  <pose>  (23) 
[55.13399559575222, -45.187841110596615, 25.881325413644138, -3.6490699718794497, -2.0242607248264015, 4.694894581044292, 0.09299708750052445, 15.488780057323194, -10.917992193233314, 3.654807654989905, -2.154999552058423, -3.4286216671467606]

>  <energy>  (23) 
-612.2850988672043

>  <inter_energy>  (23) 
-616.1826001938385

>  <intra_energy>  (23) 
11.45892334693216

>  <rmsd>  (23) 
2.67466

>  <sdf_rank>  (23) 
0

$$$$

     RDKit          3D

 40 42  0  0  0  0  0  0  0  0999 V2000
   53.7304  -41.3723   27.6699 N   0  0  0  0  0  0  0  0  0  0  0  0
   54.1657  -42.6307   27.6432 C   0  0  0  0  0  0  0  0  0  0  0  0
   55.2567  -42.9860   26.9495 N   0  0  0  0  0  0  0  0  0  0  0  0
   55.9631  -42.0659   26.2701 C   0  0  0  0  0  0  0  0  0  0  0  0
   55.5569  -40.7362   26.2907 C   0  0  0  0  0  0  0  0  0  0  0  0
   54.3938  -40.4081   27.0236 C   0  0  0  0  0  0  0  0  0  0  0  0
   53.9225  -39.0297   27.0652 N   0  0  0  0  0  0  0  0  0  0  0  0
   56.4381  -40.0355   25.5472 N   0  0  0  0  0  0  0  0  0  0  0  0
   57.3435  -40.8983   25.0757 C   0  0  0  0  0  0  0  0  0  0  0  0
   57.0814  -42.1339   25.5146 N   0  0  0  0  0  0  0  0  0  0  0  0
   60.9075  -41.0936   22.8000 P   0  0  1  0  0  0  0  0  0  0  0  0
   63.0035  -40.5591   21.1349 C   0  0  0  0  0  0  0  0  0  0  0  0
   57.8299  -43.3240   25.2224 C   0  0  1  0  0  0  0  0  0  0  0  0
   61.1606  -40.8315   24.2657 O   0  0  0  0  0  0  0  0  0  0  0  0
   63.8318  -39.8256   21.6364 O   0  0  0  0  0  0  0  0  0  0  0  0
   57.2909  -43.9881   23.7858 C   0  0  2  0  0  0  0  0  0  0  0  0
   55.9835  -44.6027   24.0081 O   0  0  0  0  0  0  0  0  0  0  0  0
   60.2631  -39.8739   22.2141 O   0  0  0  0  0  0  0  0  0  0  0  0
   62.7650  -40.6442   19.6986 N   0  0  0  0  0  0  0  0  0  0  0  0
   58.2089  -44.8167   23.4402 C   0  0  2  0  0  0  0  0  0  0  0  0
   58.0236  -46.1496   24.0912 O   0  0  0  0  0  0  0  0  0  0  0  0
   62.2435  -41.4656   21.8822 O   0  0  0  0  0  0  0  0  0  0  0  0
   59.5373  -44.1950   24.0211 C   0  0  2  0  0  0  0  0  0  0  0  0
   59.0572  -43.0624   24.9648 O   0  0  0  0  0  0  0  0  0  0  0  0
   60.3685  -43.6744   23.0319 C   0  0  0  0  0  0  0  0  0  0  0  0
   59.8857  -42.3935   22.7155 O   0  0  0  0  0  0  0  0  0  0  0  0
   53.6154  -43.3994   28.2055 H   0  0  0  0  0  0  0  0  0  0  0  0
   54.4398  -38.2933   26.5643 H   0  0  0  0  0  0  0  0  0  0  0  0
   53.0720  -38.7920   27.5954 H   0  0  0  0  0  0  0  0  0  0  0  0
   58.1848  -40.6300   24.4198 H   0  0  0  0  0  0  0  0  0  0  0  0
   57.7126  -43.9758   26.1007 H   0  0  0  0  0  0  0  0  0  0  0  0
   57.1352  -43.2593   22.9767 H   0  0  0  0  0  0  0  0  0  0  0  0
   55.8168  -44.6811   24.9808 H   0  0  0  0  0  0  0  0  0  0  0  0
   62.0474  -41.2863   19.3328 H   0  0  0  0  0  0  0  0  0  0  0  0
   63.3141  -40.0622   19.0500 H   0  0  0  0  0  0  0  0  0  0  0  0
   58.2056  -44.9667   22.3505 H   0  0  0  0  0  0  0  0  0  0  0  0
   58.0387  -46.0413   25.0751 H   0  0  0  0  0  0  0  0  0  0  0  0
   60.1381  -44.9637   24.5294 H   0  0  0  0  0  0  0  0  0  0  0  0
   61.4012  -43.6065   23.4047 H   0  0  0  0  0  0  0  0  0  0  0  0
   60.3702  -44.3218   22.1426 H   0  0  0  0  0  0  0  0  0  0  0  0
  1  2  2  0
  1  6  1  0
  2  3  1  0
  3  4  2  0
  4  5  1  0
  4 10  1  0
  5  6  2  0
  5  8  1  0
  6  7  1  0
  8  9  2  0
  9 10  1  0
 13 10  1  0
 11 14  1  1
 11 18  2  0
 11 22  1  0
 11 26  1  0
 12 15  2  0
 12 19  1  0
 12 22  1  0
 13 16  1  0
 13 24  1  0
 16 17  1  0
 16 20  1  0
 20 21  1  0
 20 23  1  0
 23 24  1  0
 23 25  1  0
 25 26  1  0
  2 27  1  0
  7 28  1  0
  7 29  1  0
  9 30  1  0
 13 31  1  1
 16 32  1  6
 17 33  1  0
 19 34  1  0
 19 35  1  0
 20 36  1  6
 21 37  1  0
 23 38  1  1
 25 39  1  0
 25 40  1  0
M  CHG  1  14  -1
M  END
>  <filename_input>  (24) 
7VYJ_CA0_docked.sdf

>  <pdb_id>  (24) 
7VYJ_CA0

>  <pose_rank>  (24) 
23

>  <num_atoms_heavy>  (24) 
26

>  <num_torsions>  (24) 
6

>  <pose>  (24) 
[57.82989955072493, -43.324026952982585, 25.222380495129023, 0.0695570110679076, 0.34725481694444055, 0.7412618738509019, 5.8364879700382755, -1.6488803182398204, -0.6180830710009916, -4.581251641577968, -2.6100300607593407, -0.049025490174586864]

>  <energy>  (24) 
-527.2933103198649

>  <inter_energy>  (24) 
-534.3362072160344

>  <intra_energy>  (24) 
12.416347517669964

>  <rmsd>  (24) 
6.17213

>  <sdf_rank>  (24) 
0

$$$$

     RDKit          3D

 40 42  0  0  0  0  0  0  0  0999 V2000
   53.9627  -53.6096   22.0501 N   0  0  0  0  0  0  0  0  0  0  0  0
   54.6362  -52.9853   23.0147 C   0  0  0  0  0  0  0  0  0  0  0  0
   55.0435  -51.7148   22.8831 N   0  0  0  0  0  0  0  0  0  0  0  0
   54.7610  -51.0196   21.7677 C   0  0  0  0  0  0  0  0  0  0  0  0
   54.0391  -51.6258   20.7455 C   0  0  0  0  0  0  0  0  0  0  0  0
   53.6412  -52.9708   20.9205 C   0  0  0  0  0  0  0  0  0  0  0  0
   52.8929  -53.6523   19.8720 N   0  0  0  0  0  0  0  0  0  0  0  0
   53.8885  -50.7127   19.7639 N   0  0  0  0  0  0  0  0  0  0  0  0
   54.5032  -49.5929   20.1573 C   0  0  0  0  0  0  0  0  0  0  0  0
   55.0270  -49.7536   21.3770 N   0  0  0  0  0  0  0  0  0  0  0  0
   60.1207  -48.2274   24.6668 P   0  0  1  0  0  0  0  0  0  0  0  0
   59.3251  -45.7534   23.8315 C   0  0  0  0  0  0  0  0  0  0  0  0
   55.7601  -48.7755   22.1306 C   0  0  1  0  0  0  0  0  0  0  0  0
   61.0976  -48.3462   23.5212 O   0  0  0  0  0  0  0  0  0  0  0  0
   59.3884  -45.8919   22.6263 O   0  0  0  0  0  0  0  0  0  0  0  0
   54.9326  -48.4148   23.5378 C   0  0  2  0  0  0  0  0  0  0  0  0
   53.7638  -47.6021   23.2060 O   0  0  0  0  0  0  0  0  0  0  0  0
   60.8924  -48.3252   25.9479 O   0  0  0  0  0  0  0  0  0  0  0  0
   59.2708  -44.4547   24.4928 N   0  0  0  0  0  0  0  0  0  0  0  0
   55.7922  -47.8191   24.2827 C   0  0  2  0  0  0  0  0  0  0  0  0
   55.8622  -46.3560   23.9843 O   0  0  0  0  0  0  0  0  0  0  0  0
   59.2136  -46.8344   24.7130 O   0  0  0  0  0  0  0  0  0  0  0  0
   57.1771  -48.4471   23.8630 C   0  0  2  0  0  0  0  0  0  0  0  0
   56.8666  -49.2469   22.5716 O   0  0  0  0  0  0  0  0  0  0  0  0
   57.7042  -49.2935   24.8358 C   0  0  0  0  0  0  0  0  0  0  0  0
   59.0600  -49.4906   24.5244 O   0  0  0  0  0  0  0  0  0  0  0  0
   54.8645  -53.5268   23.9446 H   0  0  0  0  0  0  0  0  0  0  0  0
   52.6495  -53.1524   19.0050 H   0  0  0  0  0  0  0  0  0  0  0  0
   52.6074  -54.6339   19.9980 H   0  0  0  0  0  0  0  0  0  0  0  0
   54.5688  -48.6702   19.5621 H   0  0  0  0  0  0  0  0  0  0  0  0
   55.9054  -47.9214   21.4529 H   0  0  0  0  0  0  0  0  0  0  0  0
   54.5350  -49.2913   24.0704 H   0  0  0  0  0  0  0  0  0  0  0  0
   53.3260  -47.2976   24.0401 H   0  0  0  0  0  0  0  0  0  0  0  0
   59.2178  -44.4016   25.5201 H   0  0  0  0  0  0  0  0  0  0  0  0
   59.2854  -43.5905   23.9326 H   0  0  0  0  0  0  0  0  0  0  0  0
   55.5329  -47.9376   25.3451 H   0  0  0  0  0  0  0  0  0  0  0  0
   55.8866  -45.8469   24.8330 H   0  0  0  0  0  0  0  0  0  0  0  0
   57.9344  -47.6621   23.7209 H   0  0  0  0  0  0  0  0  0  0  0  0
   57.6090  -48.8313   25.8294 H   0  0  0  0  0  0  0  0  0  0  0  0
   57.1643  -50.2518   24.8537 H   0  0  0  0  0  0  0  0  0  0  0  0
  1  2  2  0
  1  6  1  0
  2  3  1  0
  3  4  2  0
  4  5  1  0
  4 10  1  0
  5  6  2  0
  5  8  1  0
  6  7  1  0
  8  9  2  0
  9 10  1  0
 13 10  1  0
 11 14  1  6
 11 18  2  0
 11 22  1  0
 11 26  1  0
 12 15  2  0
 12 19  1  0
 12 22  1  0
 13 16  1  0
 13 24  1  0
 16 17  1  0
 16 20  1  0
 20 21  1  0
 20 23  1  0
 23 24  1  0
 23 25  1  0
 25 26  1  0
  2 27  1  0
  7 28  1  0
  7 29  1  0
  9 30  1  0
 13 31  1  6
 16 32  1  1
 17 33  1  0
 19 34  1  0
 19 35  1  0
 20 36  1  1
 21 37  1  0
 23 38  1  6
 25 39  1  0
 25 40  1  0
M  CHG  1  14  -1
M  END
>  <filename_input>  (25) 
7VYJ_CA0_docked.sdf

>  <pdb_id>  (25) 
7VYJ_CA0

>  <pose_rank>  (25) 
24

>  <num_atoms_heavy>  (25) 
26

>  <num_torsions>  (25) 
6

>  <pose>  (25) 
[55.760122364371476, -48.77554748320832, 22.13059080958454, 3.073646750980689, -1.4940545852414546, 0.8196988712604185, -3.180023599947617, 0.3430024034416393, -7.894224644681732, -5.815048070914329, -1.0183762030190835, -0.6121112526641495]

>  <energy>  (25) 
-503.7657543023815

>  <inter_energy>  (25) 
-544.9713906520684

>  <intra_energy>  (25) 
37.373968747301355

>  <rmsd>  (25) 
7.62449

>  <sdf_rank>  (25) 
0

$$$$

     RDKit          3D

 40 42  0  0  0  0  0  0  0  0999 V2000
   54.0650  -41.1720   27.8690 N   0  0  0  0  0  0  0  0  0  0  0  0
   53.6140  -42.4110   28.0570 C   0  0  0  0  0  0  0  0  0  0  0  0
   54.1350  -43.4590   27.4030 N   0  0  0  0  0  0  0  0  0  0  0  0
   55.1550  -43.2890   26.5440 C   0  0  0  0  0  0  0  0  0  0  0  0
   55.6720  -42.0150   26.3360 C   0  0  0  0  0  0  0  0  0  0  0  0
   55.0840  -40.9370   27.0360 C   0  0  0  0  0  0  0  0  0  0  0  0
   55.5840  -39.5820   26.8420 N   0  0  0  0  0  0  0  0  0  0  0  0
   56.6810  -42.1310   25.4480 N   0  0  0  0  0  0  0  0  0  0  0  0
   56.7750  -43.4210   25.1110 C   0  0  0  0  0  0  0  0  0  0  0  0
   55.8670  -44.1430   25.7760 N   0  0  0  0  0  0  0  0  0  0  0  0
   60.1360  -48.8690   25.1420 P   0  0  1  0  0  0  0  0  0  0  0  0
   58.8890  -51.2770   24.8290 C   0  0  0  0  0  0  0  0  0  0  0  0
   55.6620  -45.5610   25.6800 C   0  0  1  0  0  0  0  0  0  0  0  0
   60.8290  -49.0810   26.4670 O   0  0  0  0  0  0  0  0  0  0  0  0
   57.6760  -51.2170   24.8560 O   0  0  0  0  0  0  0  0  0  0  0  0
   55.2570  -45.9650   24.1090 C   0  0  2  0  0  0  0  0  0  0  0  0
   53.8870  -45.5290   23.8450 O   0  0  0  0  0  0  0  0  0  0  0  0
   61.0530  -48.0780   24.2590 O   0  0  0  0  0  0  0  0  0  0  0  0
   59.6480  -52.4540   25.2360 N   0  0  0  0  0  0  0  0  0  0  0  0
   55.4260  -47.2360   24.0410 C   0  0  2  0  0  0  0  0  0  0  0  0
   54.2180  -47.9800   24.5120 O   0  0  0  0  0  0  0  0  0  0  0  0
   59.6870  -50.2450   24.3230 O   0  0  0  0  0  0  0  0  0  0  0  0
   56.5860  -47.5330   25.0680 C   0  0  2  0  0  0  0  0  0  0  0  0
   56.7500  -46.2120   25.8630 O   0  0  0  0  0  0  0  0  0  0  0  0
   57.7860  -47.8700   24.4460 C   0  0  0  0  0  0  0  0  0  0  0  0
   58.7500  -48.0200   25.4570 O   0  0  0  0  0  0  0  0  0  0  0  0
   52.7918  -42.5790   28.7681 H   0  0  0  0  0  0  0  0  0  0  0  0
   56.3695  -39.4101   26.1983 H   0  0  0  0  0  0  0  0  0  0  0  0
   55.1519  -38.7962   27.3486 H   0  0  0  0  0  0  0  0  0  0  0  0
   57.4969  -43.8306   24.3891 H   0  0  0  0  0  0  0  0  0  0  0  0
   54.8934  -45.8046   26.4282 H   0  0  0  0  0  0  0  0  0  0  0  0
   55.8711  -45.4745   23.3394 H   0  0  0  0  0  0  0  0  0  0  0  0
   53.4171  -45.3794   24.7034 H   0  0  0  0  0  0  0  0  0  0  0  0
   60.6770  -52.4443   25.1906 H   0  0  0  0  0  0  0  0  0  0  0  0
   59.1551  -53.2949   25.5689 H   0  0  0  0  0  0  0  0  0  0  0  0
   55.6336  -47.5447   23.0058 H   0  0  0  0  0  0  0  0  0  0  0  0
   54.2017  -47.9900   25.5018 H   0  0  0  0  0  0  0  0  0  0  0  0
   56.3350  -48.3970   25.7009 H   0  0  0  0  0  0  0  0  0  0  0  0
   57.6713  -48.8132   23.8916 H   0  0  0  0  0  0  0  0  0  0  0  0
   58.0878  -47.0903   23.7312 H   0  0  0  0  0  0  0  0  0  0  0  0
  1  2  2  0
  1  6  1  0
  2  3  1  0
  3  4  2  0
  4  5  1  0
  4 10  1  0
  5  6  2  0
  5  8  1  0
  6  7  1  0
  8  9  2  0
  9 10  1  0
 13 10  1  0
 11 14  1  1
 11 18  2  0
 11 22  1  0
 11 26  1  0
 12 15  2  0
 12 19  1  0
 12 22  1  0
 13 16  1  0
 13 24  1  0
 16 17  1  0
 16 20  1  0
 20 21  1  0
 20 23  1  0
 23 24  1  0
 23 25  1  0
 25 26  1  0
  2 27  1  0
  7 28  1  0
  7 29  1  0
  9 30  1  0
 13 31  1  1
 16 32  1  6
 17 33  1  0
 19 34  1  0
 19 35  1  0
 20 36  1  6
 21 37  1  0
 23 38  1  1
 25 39  1  0
 25 40  1  0
M  CHG  1  14  -1
M  END
>  <filename_input>  (26) 
7VYJ_CA0_docked.sdf

>  <pdb_id>  (26) 
7VYJ_CA0

>  <pose_rank>  (26) 
25

>  <num_atoms_heavy>  (26) 
26

>  <num_torsions>  (26) 
6

>  <pose>  (26) 
[55.662, -45.561, 25.68, 1e-06, 1e-06, 1e-06, 0.0, 0.0, 0.0, 0.0, 0.0, 0.0]

>  <energy>  (26) 
-844.465487009122

>  <inter_energy>  (26) 
-848.2073416998694

>  <intra_energy>  (26) 
2.716655536611003

>  <rmsd>  (26) 
0.0

>  <sdf_rank>  (26) 
0

$$$$
