
     RDKit          3D

 33 35  0  0  0  0  0  0  0  0999 V2000
   -0.7943    9.0809  -16.7010 O   0  0  0  0  0  0  0  0  0  0  0  0
   -0.2645    8.4191  -15.5427 C   0  0  0  0  0  0  0  0  0  0  0  0
   -0.7369    6.9846  -15.4685 C   0  0  1  0  0  0  0  0  0  0  0  0
    0.3442    6.1608  -14.9256 O   0  0  0  0  0  0  0  0  0  0  0  0
   -1.9469    6.7567  -14.5608 C   0  0  1  0  0  0  0  0  0  0  0  0
   -2.8059    5.7604  -15.1294 O   0  0  0  0  0  0  0  0  0  0  0  0
   -1.3136    6.2238  -13.2762 C   0  0  1  0  0  0  0  0  0  0  0  0
   -2.1692    5.4002  -12.5084 O   0  0  0  0  0  0  0  0  0  0  0  0
   -0.1297    5.4345  -13.8255 C   0  0  2  0  0  0  0  0  0  0  0  0
    0.9784    5.2123  -12.8910 N   0  0  0  0  0  0  0  0  0  0  0  0
    1.8304    4.1458  -12.8655 C   0  0  0  0  0  0  0  0  0  0  0  0
    2.6947    4.2738  -11.8869 N   0  0  0  0  0  0  0  0  0  0  0  0
    2.3989    5.4354  -11.2589 C   0  0  0  0  0  0  0  0  0  0  0  0
    3.0419    6.0901  -10.0848 C   0  0  0  0  0  0  0  0  0  0  0  0
    3.9831    5.6519   -9.4607 O   0  0  0  0  0  0  0  0  0  0  0  0
    2.4461    7.2964   -9.7335 N   0  0  0  0  0  0  0  0  0  0  0  0
    1.3193    7.8303  -10.3874 C   0  0  0  0  0  0  0  0  0  0  0  0
    0.7935    9.0558   -9.9427 N   0  0  0  0  0  0  0  0  0  0  0  0
    0.7184    7.2340  -11.4948 N   0  0  0  0  0  0  0  0  0  0  0  0
    1.3293    6.0031  -11.8863 C   0  0  0  0  0  0  0  0  0  0  0  0
   -1.3868    9.8210  -16.4160 H   0  0  0  0  0  0  0  0  0  0  0  0
    0.8343    8.4329  -15.5927 H   0  0  0  0  0  0  0  0  0  0  0  0
   -0.6185    8.9493  -14.6462 H   0  0  0  0  0  0  0  0  0  0  0  0
   -1.0288    6.7189  -16.4953 H   0  0  0  0  0  0  0  0  0  0  0  0
   -2.5579    7.6590  -14.4100 H   0  0  0  0  0  0  0  0  0  0  0  0
   -3.2455    5.2505  -14.4035 H   0  0  0  0  0  0  0  0  0  0  0  0
   -1.0532    7.0277  -12.5720 H   0  0  0  0  0  0  0  0  0  0  0  0
   -2.0038    5.5595  -11.5454 H   0  0  0  0  0  0  0  0  0  0  0  0
   -0.4924    4.4246  -14.0677 H   0  0  0  0  0  0  0  0  0  0  0  0
    1.7969    3.2988  -13.5666 H   0  0  0  0  0  0  0  0  0  0  0  0
    2.8518    7.8294   -8.9510 H   0  0  0  0  0  0  0  0  0  0  0  0
   -0.0304    9.4621  -10.4085 H   0  0  0  0  0  0  0  0  0  0  0  0
    1.2321    9.5474   -9.1510 H   0  0  0  0  0  0  0  0  0  0  0  0
  1  2  1  0
  3  2  1  0
  3  4  1  0
  3  5  1  0
  4  9  1  0
  5  6  1  0
  5  7  1  0
  7  8  1  0
  7  9  1  0
  9 10  1  0
 10 11  1  0
 10 20  1  0
 11 12  2  0
 12 13  1  0
 13 14  1  0
 13 20  2  0
 14 15  2  0
 14 16  1  0
 16 17  1  0
 17 18  1  0
 17 19  2  0
 19 20  1  0
  1 21  1  0
  2 22  1  0
  2 23  1  0
  3 24  1  6
  5 25  1  1
  6 26  1  0
  7 27  1  1
  8 28  1  0
  9 29  1  6
 11 30  1  0
 16 31  1  0
 18 32  1  0
 18 33  1  0
M  END
>  <filename_input>  (1) 
7W05_GMP_docked.sdf

>  <pdb_id>  (1) 
7W05_GMP

>  <pose_rank>  (1) 
0

>  <num_atoms_heavy>  (1) 
20

>  <num_torsions>  (1) 
2

>  <pose>  (1) 
[0.9783783825716439, 5.212328112978111, -12.891011646071313, -2.2361984518422413, -4.330505757618976, 3.6573461509999445, -5.717619922991951, 9.979564148797824]

>  <energy>  (1) 
-810.3806906000068

>  <inter_energy>  (1) 
-822.2831965575618

>  <intra_energy>  (1) 
19.92907687186042

>  <rmsd>  (1) 
1.09942

>  <sdf_rank>  (1) 
0

$$$$

     RDKit          3D

 33 35  0  0  0  0  0  0  0  0999 V2000
   -4.1528    6.5211  -11.9961 O   0  0  0  0  0  0  0  0  0  0  0  0
   -3.5224    5.4793  -12.7561 C   0  0  0  0  0  0  0  0  0  0  0  0
   -2.5911    6.0518  -13.8008 C   0  0  1  0  0  0  0  0  0  0  0  0
   -1.3364    6.4363  -13.1525 O   0  0  0  0  0  0  0  0  0  0  0  0
   -2.2147    5.0812  -14.9217 C   0  0  1  0  0  0  0  0  0  0  0  0
   -2.1185    5.7837  -16.1671 O   0  0  0  0  0  0  0  0  0  0  0  0
   -0.8322    4.5885  -14.4958 C   0  0  1  0  0  0  0  0  0  0  0  0
   -0.0131    4.1670  -15.5687 O   0  0  0  0  0  0  0  0  0  0  0  0
   -0.2626    5.8301  -13.8172 C   0  0  2  0  0  0  0  0  0  0  0  0
    0.8178    5.5925  -12.8545 N   0  0  0  0  0  0  0  0  0  0  0  0
    1.6560    4.5159  -12.8095 C   0  0  0  0  0  0  0  0  0  0  0  0
    2.4959    4.6313  -11.8082 N   0  0  0  0  0  0  0  0  0  0  0  0
    2.1975    5.7949  -11.1852 C   0  0  0  0  0  0  0  0  0  0  0  0
    2.8173    6.4392   -9.9929 C   0  0  0  0  0  0  0  0  0  0  0  0
    3.7364    5.9882   -9.3455 O   0  0  0  0  0  0  0  0  0  0  0  0
    2.2269    7.6518   -9.6543 N   0  0  0  0  0  0  0  0  0  0  0  0
    1.1241    8.2006  -10.3361 C   0  0  0  0  0  0  0  0  0  0  0  0
    0.6014    9.4313   -9.9022 N   0  0  0  0  0  0  0  0  0  0  0  0
    0.5454    7.6140  -11.4604 N   0  0  0  0  0  0  0  0  0  0  0  0
    1.1516    6.3768  -11.8390 C   0  0  0  0  0  0  0  0  0  0  0  0
   -4.0419    6.3377  -11.0295 H   0  0  0  0  0  0  0  0  0  0  0  0
   -2.9455    4.8369  -12.0746 H   0  0  0  0  0  0  0  0  0  0  0  0
   -4.3046    4.8989  -13.2672 H   0  0  0  0  0  0  0  0  0  0  0  0
   -3.1378    6.8935  -14.2509 H   0  0  0  0  0  0  0  0  0  0  0  0
   -2.9464    4.2724  -15.0651 H   0  0  0  0  0  0  0  0  0  0  0  0
   -1.9863    6.7491  -15.9921 H   0  0  0  0  0  0  0  0  0  0  0  0
   -0.8837    3.6911  -13.8617 H   0  0  0  0  0  0  0  0  0  0  0  0
    0.8078    3.7447  -15.2110 H   0  0  0  0  0  0  0  0  0  0  0  0
    0.1977    6.4502  -14.6005 H   0  0  0  0  0  0  0  0  0  0  0  0
    1.6308    3.6709  -13.5133 H   0  0  0  0  0  0  0  0  0  0  0  0
    2.6183    8.1780   -8.8600 H   0  0  0  0  0  0  0  0  0  0  0  0
   -0.2050    9.8485  -10.3884 H   0  0  0  0  0  0  0  0  0  0  0  0
    1.0250    9.9158   -9.0980 H   0  0  0  0  0  0  0  0  0  0  0  0
  1  2  1  0
  3  2  1  0
  3  4  1  0
  3  5  1  0
  4  9  1  0
  5  6  1  0
  5  7  1  0
  7  8  1  0
  7  9  1  0
  9 10  1  0
 10 11  1  0
 10 20  1  0
 11 12  2  0
 12 13  1  0
 13 14  1  0
 13 20  2  0
 14 15  2  0
 14 16  1  0
 16 17  1  0
 17 18  1  0
 17 19  2  0
 19 20  1  0
  1 21  1  0
  2 22  1  0
  2 23  1  0
  3 24  1  6
  5 25  1  6
  6 26  1  0
  7 27  1  1
  8 28  1  0
  9 29  1  6
 11 30  1  0
 16 31  1  0
 18 32  1  0
 18 33  1  0
M  END
>  <filename_input>  (2) 
7W05_GMP_docked.sdf

>  <pdb_id>  (2) 
7W05_GMP

>  <pose_rank>  (2) 
1

>  <num_atoms_heavy>  (2) 
20

>  <num_torsions>  (2) 
2

>  <pose>  (2) 
[0.8177822298939971, 5.592548023038954, -12.854533642988459, -2.5030729634966584, -3.6500190730094078, 4.2007755992406235, -7.9198683394345695, 2.5641492944712794]

>  <energy>  (2) 
-831.6355182850546

>  <inter_energy>  (2) 
-847.4103841444389

>  <intra_energy>  (2) 
18.87492393851396

>  <rmsd>  (2) 
1.69283

>  <sdf_rank>  (2) 
0

$$$$

     RDKit          3D

 33 35  0  0  0  0  0  0  0  0999 V2000
    0.1926    9.1864  -14.1159 O   0  0  0  0  0  0  0  0  0  0  0  0
   -1.0722    8.8651  -14.7137 C   0  0  0  0  0  0  0  0  0  0  0  0
   -1.1122    7.4230  -15.1669 C   0  0  1  0  0  0  0  0  0  0  0  0
    0.1270    6.7646  -14.7506 O   0  0  0  0  0  0  0  0  0  0  0  0
   -2.2560    6.5985  -14.5738 C   0  0  1  0  0  0  0  0  0  0  0  0
   -2.7540    5.6762  -15.5512 O   0  0  0  0  0  0  0  0  0  0  0  0
   -1.5732    5.8346  -13.4400 C   0  0  1  0  0  0  0  0  0  0  0  0
   -2.1976    4.6093  -13.1105 O   0  0  0  0  0  0  0  0  0  0  0  0
   -0.1808    5.6093  -14.0205 C   0  0  2  0  0  0  0  0  0  0  0  0
    0.8864    5.3669  -13.0443 N   0  0  0  0  0  0  0  0  0  0  0  0
    1.7215    4.2883  -12.9910 C   0  0  0  0  0  0  0  0  0  0  0  0
    2.5484    4.3993  -11.9784 N   0  0  0  0  0  0  0  0  0  0  0  0
    2.2444    5.5620  -11.3565 C   0  0  0  0  0  0  0  0  0  0  0  0
    2.8499    6.2019  -10.1545 C   0  0  0  0  0  0  0  0  0  0  0  0
    3.7595    5.7472   -9.4962 O   0  0  0  0  0  0  0  0  0  0  0  0
    2.2578    7.4149   -9.8206 N   0  0  0  0  0  0  0  0  0  0  0  0
    1.1653    7.9679  -10.5155 C   0  0  0  0  0  0  0  0  0  0  0  0
    0.6397    9.1987  -10.0853 N   0  0  0  0  0  0  0  0  0  0  0  0
    0.6001    7.3855  -11.6487 N   0  0  0  0  0  0  0  0  0  0  0  0
    1.2085    6.1479  -12.0225 C   0  0  0  0  0  0  0  0  0  0  0  0
    0.1066    9.1645  -13.1299 H   0  0  0  0  0  0  0  0  0  0  0  0
   -1.8706    9.0315  -13.9756 H   0  0  0  0  0  0  0  0  0  0  0  0
   -1.2159    9.5106  -15.5928 H   0  0  0  0  0  0  0  0  0  0  0  0
   -1.2527    7.4624  -16.2572 H   0  0  0  0  0  0  0  0  0  0  0  0
   -3.1101    7.2080  -14.2434 H   0  0  0  0  0  0  0  0  0  0  0  0
   -3.1710    4.9037  -15.0935 H   0  0  0  0  0  0  0  0  0  0  0  0
   -1.5994    6.3850  -12.4880 H   0  0  0  0  0  0  0  0  0  0  0  0
   -2.2446    4.5172  -12.1259 H   0  0  0  0  0  0  0  0  0  0  0  0
   -0.2202    4.6879  -14.6200 H   0  0  0  0  0  0  0  0  0  0  0  0
    1.7037    3.4451  -13.6972 H   0  0  0  0  0  0  0  0  0  0  0  0
    2.6399    7.9383   -9.0199 H   0  0  0  0  0  0  0  0  0  0  0  0
   -0.1594    9.6190  -10.5811 H   0  0  0  0  0  0  0  0  0  0  0  0
    1.0537    9.6803   -9.2744 H   0  0  0  0  0  0  0  0  0  0  0  0
  1  2  1  0
  3  2  1  0
  3  4  1  0
  3  5  1  0
  4  9  1  0
  5  6  1  0
  5  7  1  0
  7  8  1  0
  7  9  1  0
  9 10  1  0
 10 11  1  0
 10 20  1  0
 11 12  2  0
 12 13  1  0
 13 14  1  0
 13 20  2  0
 14 15  2  0
 14 16  1  0
 16 17  1  0
 17 18  1  0
 17 19  2  0
 19 20  1  0
  1 21  1  0
  2 22  1  0
  2 23  1  0
  3 24  1  6
  5 25  1  1
  6 26  1  0
  7 27  1  1
  8 28  1  0
  9 29  1  6
 11 30  1  0
 16 31  1  0
 18 32  1  0
 18 33  1  0
M  END
>  <filename_input>  (3) 
7W05_GMP_docked.sdf

>  <pdb_id>  (3) 
7W05_GMP

>  <pose_rank>  (3) 
2

>  <num_atoms_heavy>  (3) 
20

>  <num_torsions>  (3) 
2

>  <pose>  (3) 
[0.8863532580822797, 5.36694964745147, -13.044328375420648, -2.6937786447506746, -3.301533939367728, 4.374604407633765, -6.170136230628612, 1.2625102673255288]

>  <energy>  (3) 
-859.3153136442346

>  <inter_energy>  (3) 
-874.2591298225564

>  <intra_energy>  (3) 
15.029272313052047

>  <rmsd>  (3) 
0.792053

>  <sdf_rank>  (3) 
0

$$$$

     RDKit          3D

 33 35  0  0  0  0  0  0  0  0999 V2000
   -4.0408    4.4882  -14.0805 O   0  0  0  0  0  0  0  0  0  0  0  0
   -4.1733    3.9961  -15.4224 C   0  0  0  0  0  0  0  0  0  0  0  0
   -3.2163    4.6981  -16.3593 C   0  0  1  0  0  0  0  0  0  0  0  0
   -2.1089    5.2475  -15.5756 O   0  0  0  0  0  0  0  0  0  0  0  0
   -2.5844    3.7960  -17.4207 C   0  0  1  0  0  0  0  0  0  0  0  0
   -2.4439    4.5131  -18.6536 O   0  0  0  0  0  0  0  0  0  0  0  0
   -1.2051    3.4955  -16.8353 C   0  0  1  0  0  0  0  0  0  0  0  0
   -0.2186    3.1979  -17.8037 O   0  0  0  0  0  0  0  0  0  0  0  0
   -0.8930    4.7992  -16.1077 C   0  0  2  0  0  0  0  0  0  0  0  0
    0.0926    4.7064  -15.0258 N   0  0  0  0  0  0  0  0  0  0  0  0
    1.0107    3.7144  -14.8337 C   0  0  0  0  0  0  0  0  0  0  0  0
    1.7234    3.9523  -13.7582 N   0  0  0  0  0  0  0  0  0  0  0  0
    1.2596    5.1111  -13.2354 C   0  0  0  0  0  0  0  0  0  0  0  0
    1.6880    5.8637  -12.0226 C   0  0  0  0  0  0  0  0  0  0  0  0
    2.5666    5.5293  -11.2588 O   0  0  0  0  0  0  0  0  0  0  0  0
    0.9617    7.0313  -11.8154 N   0  0  0  0  0  0  0  0  0  0  0  0
   -0.1035    7.4447  -12.6381 C   0  0  0  0  0  0  0  0  0  0  0  0
   -0.7745    8.6409  -12.3301 N   0  0  0  0  0  0  0  0  0  0  0  0
   -0.5034    6.7564  -13.7822 N   0  0  0  0  0  0  0  0  0  0  0  0
    0.2449    5.5639  -14.0261 C   0  0  0  0  0  0  0  0  0  0  0  0
   -4.2373    3.7588  -13.4406 H   0  0  0  0  0  0  0  0  0  0  0  0
   -3.9582    2.9174  -15.4318 H   0  0  0  0  0  0  0  0  0  0  0  0
   -5.2007    4.1897  -15.7645 H   0  0  0  0  0  0  0  0  0  0  0  0
   -3.8185    5.4595  -16.8766 H   0  0  0  0  0  0  0  0  0  0  0  0
   -3.1766    2.8951  -17.6393 H   0  0  0  0  0  0  0  0  0  0  0  0
   -2.2573    5.4662  -18.4615 H   0  0  0  0  0  0  0  0  0  0  0  0
   -1.2049    2.5955  -16.2029 H   0  0  0  0  0  0  0  0  0  0  0  0
    0.6236    2.9438  -17.3496 H   0  0  0  0  0  0  0  0  0  0  0  0
   -0.4358    5.4820  -16.8390 H   0  0  0  0  0  0  0  0  0  0  0  0
    1.1353    2.8391  -15.4883 H   0  0  0  0  0  0  0  0  0  0  0  0
    1.2174    7.6273  -11.0152 H   0  0  0  0  0  0  0  0  0  0  0  0
   -1.5562    8.9595  -12.9203 H   0  0  0  0  0  0  0  0  0  0  0  0
   -0.4844    9.1988  -11.5143 H   0  0  0  0  0  0  0  0  0  0  0  0
  1  2  1  0
  3  2  1  0
  3  4  1  0
  3  5  1  0
  4  9  1  0
  5  6  1  0
  5  7  1  0
  7  8  1  0
  7  9  1  0
  9 10  1  0
 10 11  1  0
 10 20  1  0
 11 12  2  0
 12 13  1  0
 13 14  1  0
 13 20  2  0
 14 15  2  0
 14 16  1  0
 16 17  1  0
 17 18  1  0
 17 19  2  0
 19 20  1  0
  1 21  1  0
  2 22  1  0
  2 23  1  0
  3 24  1  6
  5 25  1  6
  6 26  1  0
  7 27  1  1
  8 28  1  0
  9 29  1  6
 11 30  1  0
 16 31  1  0
 18 32  1  0
 18 33  1  0
M  END
>  <filename_input>  (4) 
7W05_GMP_docked.sdf

>  <pdb_id>  (4) 
7W05_GMP

>  <pose_rank>  (4) 
3

>  <num_atoms_heavy>  (4) 
20

>  <num_torsions>  (4) 
2

>  <pose>  (4) 
[0.09256004800715806, 4.706389526531229, -15.025823813852815, -3.697237239780865, -0.2330440612966937, 5.022336903831089, 10.859584590742822, -4.708131084855069]

>  <energy>  (4) 
-301.4732267707439

>  <inter_energy>  (4) 
-304.09624548487034

>  <intra_energy>  (4) 
16.59410123826591

>  <rmsd>  (4) 
3.05911

>  <sdf_rank>  (4) 
0

$$$$

     RDKit          3D

 33 35  0  0  0  0  0  0  0  0999 V2000
   -0.7655    3.1609  -17.9203 O   0  0  0  0  0  0  0  0  0  0  0  0
   -0.3806    3.1384  -16.5377 C   0  0  0  0  0  0  0  0  0  0  0  0
   -1.0670    4.2395  -15.7611 C   0  0  1  0  0  0  0  0  0  0  0  0
   -0.6023    4.1966  -14.3738 O   0  0  0  0  0  0  0  0  0  0  0  0
   -0.7775    5.6538  -16.2667 C   0  0  1  0  0  0  0  0  0  0  0  0
   -1.9518    6.4669  -16.1486 O   0  0  0  0  0  0  0  0  0  0  0  0
    0.2959    6.1490  -15.2983 C   0  0  1  0  0  0  0  0  0  0  0  0
    0.3315    7.5542  -15.1441 O   0  0  0  0  0  0  0  0  0  0  0  0
   -0.1212    5.4591  -14.0034 C   0  0  2  0  0  0  0  0  0  0  0  0
    0.9361    5.2885  -13.0017 N   0  0  0  0  0  0  0  0  0  0  0  0
    1.8117    4.2458  -12.9007 C   0  0  0  0  0  0  0  0  0  0  0  0
    2.6144    4.4197  -11.8777 N   0  0  0  0  0  0  0  0  0  0  0  0
    2.2536    5.5875  -11.2970 C   0  0  0  0  0  0  0  0  0  0  0  0
    2.8109    6.2865  -10.1047 C   0  0  0  0  0  0  0  0  0  0  0  0
    3.7251    5.8882   -9.4169 O   0  0  0  0  0  0  0  0  0  0  0  0
    2.1657    7.4846   -9.8185 N   0  0  0  0  0  0  0  0  0  0  0  0
    1.0656    7.9728  -10.5490 C   0  0  0  0  0  0  0  0  0  0  0  0
    0.4844    9.1941  -10.1660 N   0  0  0  0  0  0  0  0  0  0  0  0
    0.5450    7.3349  -11.6737 N   0  0  0  0  0  0  0  0  0  0  0  0
    1.2083    6.1118  -11.9987 C   0  0  0  0  0  0  0  0  0  0  0  0
   -1.7515    3.2186  -17.9875 H   0  0  0  0  0  0  0  0  0  0  0  0
   -0.6583    2.1665  -16.1037 H   0  0  0  0  0  0  0  0  0  0  0  0
    0.7065    3.2943  -16.4761 H   0  0  0  0  0  0  0  0  0  0  0  0
   -2.1446    4.0520  -15.8773 H   0  0  0  0  0  0  0  0  0  0  0  0
   -0.4689    5.6874  -17.3220 H   0  0  0  0  0  0  0  0  0  0  0  0
   -2.1589    6.6103  -15.1912 H   0  0  0  0  0  0  0  0  0  0  0  0
    1.3135    5.9163  -15.6452 H   0  0  0  0  0  0  0  0  0  0  0  0
    0.3372    7.7804  -14.1803 H   0  0  0  0  0  0  0  0  0  0  0  0
   -0.8644    6.1044  -13.5123 H   0  0  0  0  0  0  0  0  0  0  0  0
    1.8401    3.3819  -13.5811 H   0  0  0  0  0  0  0  0  0  0  0  0
    2.5119    8.0463   -9.0276 H   0  0  0  0  0  0  0  0  0  0  0  0
   -0.3211    9.5673  -10.6884 H   0  0  0  0  0  0  0  0  0  0  0  0
    0.8639    9.7157   -9.3631 H   0  0  0  0  0  0  0  0  0  0  0  0
  1  2  1  0
  3  2  1  0
  3  4  1  0
  3  5  1  0
  4  9  1  0
  5  6  1  0
  5  7  1  0
  7  8  1  0
  7  9  1  0
  9 10  1  0
 10 11  1  0
 10 20  1  0
 11 12  2  0
 12 13  1  0
 13 14  1  0
 13 20  2  0
 14 15  2  0
 14 16  1  0
 16 17  1  0
 17 18  1  0
 17 19  2  0
 19 20  1  0
  1 21  1  0
  2 22  1  0
  2 23  1  0
  3 24  1  1
  5 25  1  6
  6 26  1  0
  7 27  1  6
  8 28  1  0
  9 29  1  1
 11 30  1  0
 16 31  1  0
 18 32  1  0
 18 33  1  0
M  END
>  <filename_input>  (5) 
7W05_GMP_docked.sdf

>  <pdb_id>  (5) 
7W05_GMP

>  <pose_rank>  (5) 
4

>  <num_atoms_heavy>  (5) 
20

>  <num_torsions>  (5) 
2

>  <pose>  (5) 
[0.9360781651810187, 5.288456720441944, -13.001681645729631, 0.04683257539715243, 0.0767440415155947, -0.08766362449537525, -3.575067104053927, 4.356955338711965]

>  <energy>  (5) 
-828.9990244409672

>  <inter_energy>  (5) 
-811.3301329642983

>  <intra_energy>  (5) 
0.035268118608562236

>  <rmsd>  (5) 
2.44961

>  <sdf_rank>  (5) 
0

$$$$

     RDKit          3D

 33 35  0  0  0  0  0  0  0  0999 V2000
   -1.3273    7.8786  -17.5204 O   0  0  0  0  0  0  0  0  0  0  0  0
   -0.4885    7.2695  -16.5276 C   0  0  0  0  0  0  0  0  0  0  0  0
   -1.1911    6.1127  -15.8533 C   0  0  1  0  0  0  0  0  0  0  0  0
   -0.2006    5.3247  -15.1182 O   0  0  0  0  0  0  0  0  0  0  0  0
   -2.2574    6.5191  -14.8346 C   0  0  1  0  0  0  0  0  0  0  0  0
   -3.3618    5.6075  -14.8903 O   0  0  0  0  0  0  0  0  0  0  0  0
   -1.5281    6.3697  -13.5000 C   0  0  1  0  0  0  0  0  0  0  0  0
   -2.3800    6.1070  -12.4021 O   0  0  0  0  0  0  0  0  0  0  0  0
   -0.6103    5.1855  -13.7859 C   0  0  2  0  0  0  0  0  0  0  0  0
    0.5779    5.0781  -12.9331 N   0  0  0  0  0  0  0  0  0  0  0  0
    1.4847    4.0578  -12.9122 C   0  0  0  0  0  0  0  0  0  0  0  0
    2.4151    4.2906  -12.0170 N   0  0  0  0  0  0  0  0  0  0  0  0
    2.1081    5.4750  -11.4391 C   0  0  0  0  0  0  0  0  0  0  0  0
    2.8056    6.2349  -10.3635 C   0  0  0  0  0  0  0  0  0  0  0  0
    3.8147    5.8839   -9.7927 O   0  0  0  0  0  0  0  0  0  0  0  0
    2.1758    7.4315  -10.0390 N   0  0  0  0  0  0  0  0  0  0  0  0
    0.9745    7.8669  -10.6301 C   0  0  0  0  0  0  0  0  0  0  0  0
    0.4208    9.0920  -10.2196 N   0  0  0  0  0  0  0  0  0  0  0  0
    0.3212    7.1716  -11.6463 N   0  0  0  0  0  0  0  0  0  0  0  0
    0.9640    5.9486  -12.0106 C   0  0  0  0  0  0  0  0  0  0  0  0
   -2.0425    8.3980  -17.0746 H   0  0  0  0  0  0  0  0  0  0  0  0
    0.4285    6.9003  -17.0101 H   0  0  0  0  0  0  0  0  0  0  0  0
   -0.2483    8.0240  -15.7641 H   0  0  0  0  0  0  0  0  0  0  0  0
   -1.6895    5.5603  -16.6635 H   0  0  0  0  0  0  0  0  0  0  0  0
   -2.6643    7.5269  -15.0045 H   0  0  0  0  0  0  0  0  0  0  0  0
   -3.6441    5.3745  -13.9704 H   0  0  0  0  0  0  0  0  0  0  0  0
   -1.0168    7.2947  -13.1955 H   0  0  0  0  0  0  0  0  0  0  0  0
   -1.8863    6.2592  -11.5576 H   0  0  0  0  0  0  0  0  0  0  0  0
   -1.1822    4.2691  -13.5780 H   0  0  0  0  0  0  0  0  0  0  0  0
    1.4413    3.1663  -13.5552 H   0  0  0  0  0  0  0  0  0  0  0  0
    2.6128    8.0331   -9.3263 H   0  0  0  0  0  0  0  0  0  0  0  0
   -0.4575    9.4271  -10.6406 H   0  0  0  0  0  0  0  0  0  0  0  0
    0.8934    9.6547   -9.4979 H   0  0  0  0  0  0  0  0  0  0  0  0
  1  2  1  0
  3  2  1  0
  3  4  1  0
  3  5  1  0
  4  9  1  0
  5  6  1  0
  5  7  1  0
  7  8  1  0
  7  9  1  0
  9 10  1  0
 10 11  1  0
 10 20  1  0
 11 12  2  0
 12 13  1  0
 13 14  1  0
 13 20  2  0
 14 15  2  0
 14 16  1  0
 16 17  1  0
 17 18  1  0
 17 19  2  0
 19 20  1  0
  1 21  1  0
  2 22  1  0
  2 23  1  0
  3 24  1  6
  5 25  1  6
  6 26  1  0
  7 27  1  1
  8 28  1  0
  9 29  1  6
 11 30  1  0
 16 31  1  0
 18 32  1  0
 18 33  1  0
M  END
>  <filename_input>  (6) 
7W05_GMP_docked.sdf

>  <pdb_id>  (6) 
7W05_GMP

>  <pose_rank>  (6) 
5

>  <num_atoms_heavy>  (6) 
20

>  <num_torsions>  (6) 
2

>  <pose>  (6) 
[0.5778574569343047, 5.078145163780217, -12.933111522812947, 0.039089139452458586, -5.753382520169186, 1.8997898741719372, 0.9922435394753442, -2.211929655246879]

>  <energy>  (6) 
-743.3720947509049

>  <inter_energy>  (6) 
-771.3578273810992

>  <intra_energy>  (6) 
36.81583583182228

>  <rmsd>  (6) 
1.42169

>  <sdf_rank>  (6) 
0

$$$$

     RDKit          3D

 33 35  0  0  0  0  0  0  0  0999 V2000
   -0.0926    9.2382  -15.1614 O   0  0  0  0  0  0  0  0  0  0  0  0
   -1.3683    8.7216  -14.7540 C   0  0  0  0  0  0  0  0  0  0  0  0
   -1.5108    7.2623  -15.1239 C   0  0  1  0  0  0  0  0  0  0  0  0
   -0.2901    6.5563  -14.7316 O   0  0  0  0  0  0  0  0  0  0  0  0
   -2.6665    6.5378  -14.4318 C   0  0  1  0  0  0  0  0  0  0  0  0
   -3.2637    5.5954  -15.3314 O   0  0  0  0  0  0  0  0  0  0  0  0
   -1.9699    5.7965  -13.2913 C   0  0  1  0  0  0  0  0  0  0  0  0
   -2.6432    4.6284  -12.8647 O   0  0  0  0  0  0  0  0  0  0  0  0
   -0.6234    5.4609  -13.9245 C   0  0  2  0  0  0  0  0  0  0  0  0
    0.4771    5.2091  -12.9887 N   0  0  0  0  0  0  0  0  0  0  0  0
    1.2750    4.1024  -12.9373 C   0  0  0  0  0  0  0  0  0  0  0  0
    2.1498    4.2136  -11.9660 N   0  0  0  0  0  0  0  0  0  0  0  0
    1.9157    5.4051  -11.3689 C   0  0  0  0  0  0  0  0  0  0  0  0
    2.5969    6.0586  -10.2158 C   0  0  0  0  0  0  0  0  0  0  0  0
    3.5183    5.5909   -9.5837 O   0  0  0  0  0  0  0  0  0  0  0  0
    2.0639    7.3023   -9.8954 N   0  0  0  0  0  0  0  0  0  0  0  0
    0.9616    7.8739  -10.5592 C   0  0  0  0  0  0  0  0  0  0  0  0
    0.5001    9.1358  -10.1462 N   0  0  0  0  0  0  0  0  0  0  0  0
    0.3259    7.2785  -11.6474 N   0  0  0  0  0  0  0  0  0  0  0  0
    0.8724    6.0084  -12.0075 C   0  0  0  0  0  0  0  0  0  0  0  0
    0.4462    9.4564  -14.3601 H   0  0  0  0  0  0  0  0  0  0  0  0
   -1.4662    8.8265  -13.6634 H   0  0  0  0  0  0  0  0  0  0  0  0
   -2.1555    9.2903  -15.2705 H   0  0  0  0  0  0  0  0  0  0  0  0
   -1.7044    7.2522  -16.2067 H   0  0  0  0  0  0  0  0  0  0  0  0
   -3.4677    7.2121  -14.0951 H   0  0  0  0  0  0  0  0  0  0  0  0
   -3.7149    4.8836  -14.8119 H   0  0  0  0  0  0  0  0  0  0  0  0
   -1.9171    6.3969  -12.3712 H   0  0  0  0  0  0  0  0  0  0  0  0
   -2.6597    4.5998  -11.8753 H   0  0  0  0  0  0  0  0  0  0  0  0
   -0.7440    4.5129  -14.4693 H   0  0  0  0  0  0  0  0  0  0  0  0
    1.1955    3.2394  -13.6147 H   0  0  0  0  0  0  0  0  0  0  0  0
    2.4999    7.8354   -9.1295 H   0  0  0  0  0  0  0  0  0  0  0  0
   -0.3050    9.5700  -10.6198 H   0  0  0  0  0  0  0  0  0  0  0  0
    0.9669    9.6263   -9.3701 H   0  0  0  0  0  0  0  0  0  0  0  0
  1  2  1  0
  3  2  1  0
  3  4  1  0
  3  5  1  0
  4  9  1  0
  5  6  1  0
  5  7  1  0
  7  8  1  0
  7  9  1  0
  9 10  1  0
 10 11  1  0
 10 20  1  0
 11 12  2  0
 12 13  1  0
 13 14  1  0
 13 20  2  0
 14 15  2  0
 14 16  1  0
 16 17  1  0
 17 18  1  0
 17 19  2  0
 19 20  1  0
  1 21  1  0
  2 22  1  0
  2 23  1  0
  3 24  1  6
  5 25  1  1
  6 26  1  0
  7 27  1  1
  8 28  1  0
  9 29  1  6
 11 30  1  0
 16 31  1  0
 18 32  1  0
 18 33  1  0
M  END
>  <filename_input>  (7) 
7W05_GMP_docked.sdf

>  <pdb_id>  (7) 
7W05_GMP

>  <pose_rank>  (7) 
6

>  <num_atoms_heavy>  (7) 
20

>  <num_torsions>  (7) 
2

>  <pose>  (7) 
[0.47713717963960983, 5.209096556110051, -12.988655659752975, 0.04545901328702719, 0.13619912453215482, -0.16578767554680682, -12.422351398796069, 1.9928785872823636]

>  <energy>  (7) 
-770.9627738726739

>  <inter_energy>  (7) 
-782.1877191350173

>  <intra_energy>  (7) 
10.073420056550852

>  <rmsd>  (7) 
1.03522

>  <sdf_rank>  (7) 
0

$$$$

     RDKit          3D

 33 35  0  0  0  0  0  0  0  0999 V2000
   -1.1200    4.6392  -18.3134 O   0  0  0  0  0  0  0  0  0  0  0  0
   -0.4261    4.7457  -17.0615 C   0  0  0  0  0  0  0  0  0  0  0  0
   -1.3865    5.0153  -15.9251 C   0  0  1  0  0  0  0  0  0  0  0  0
   -0.8044    4.5002  -14.6849 O   0  0  0  0  0  0  0  0  0  0  0  0
   -1.6833    6.4953  -15.6771 C   0  0  1  0  0  0  0  0  0  0  0  0
   -3.0553    6.6639  -15.2990 O   0  0  0  0  0  0  0  0  0  0  0  0
   -0.7745    6.8318  -14.4955 C   0  0  1  0  0  0  0  0  0  0  0  0
   -1.2382    7.9020  -13.6960 O   0  0  0  0  0  0  0  0  0  0  0  0
   -0.7823    5.5172  -13.7219 C   0  0  2  0  0  0  0  0  0  0  0  0
    0.3573    5.2970  -12.8257 N   0  0  0  0  0  0  0  0  0  0  0  0
    1.0773    4.1463  -12.6797 C   0  0  0  0  0  0  0  0  0  0  0  0
    2.0201    4.3071  -11.7816 N   0  0  0  0  0  0  0  0  0  0  0  0
    1.9099    5.5773  -11.3283 C   0  0  0  0  0  0  0  0  0  0  0  0
    2.7099    6.3120  -10.3079 C   0  0  0  0  0  0  0  0  0  0  0  0
    3.6361    5.8549   -9.6750 O   0  0  0  0  0  0  0  0  0  0  0  0
    2.2877    7.6232  -10.1182 N   0  0  0  0  0  0  0  0  0  0  0  0
    1.1868    8.1932  -10.7855 C   0  0  0  0  0  0  0  0  0  0  0  0
    0.8430    9.5282  -10.5105 N   0  0  0  0  0  0  0  0  0  0  0  0
    0.4403    7.5204  -11.7515 N   0  0  0  0  0  0  0  0  0  0  0  0
    0.8716    6.1772  -11.9779 C   0  0  0  0  0  0  0  0  0  0  0  0
   -2.0843    4.4912  -18.1446 H   0  0  0  0  0  0  0  0  0  0  0  0
    0.1065    3.8035  -16.8652 H   0  0  0  0  0  0  0  0  0  0  0  0
    0.2818    5.5852  -17.1259 H   0  0  0  0  0  0  0  0  0  0  0  0
   -2.3277    4.5249  -16.2144 H   0  0  0  0  0  0  0  0  0  0  0  0
   -1.5132    7.1302  -16.5591 H   0  0  0  0  0  0  0  0  0  0  0  0
   -3.1268    6.6726  -14.3116 H   0  0  0  0  0  0  0  0  0  0  0  0
    0.2186    7.1798  -14.8159 H   0  0  0  0  0  0  0  0  0  0  0  0
   -1.1366    7.6676  -12.7395 H   0  0  0  0  0  0  0  0  0  0  0  0
   -1.6575    5.5337  -13.0556 H   0  0  0  0  0  0  0  0  0  0  0  0
    0.8930    3.2157  -13.2364 H   0  0  0  0  0  0  0  0  0  0  0  0
    2.8096    8.2104   -9.4521 H   0  0  0  0  0  0  0  0  0  0  0  0
    0.0408    9.9625  -10.9888 H   0  0  0  0  0  0  0  0  0  0  0  0
    1.3933   10.0722   -9.8306 H   0  0  0  0  0  0  0  0  0  0  0  0
  1  2  1  0
  3  2  1  0
  3  4  1  0
  3  5  1  0
  4  9  1  0
  5  6  1  0
  5  7  1  0
  7  8  1  0
  7  9  1  0
  9 10  1  0
 10 11  1  0
 10 20  1  0
 11 12  2  0
 12 13  1  0
 13 14  1  0
 13 20  2  0
 14 15  2  0
 14 16  1  0
 16 17  1  0
 17 18  1  0
 17 19  2  0
 19 20  1  0
  1 21  1  0
  2 22  1  0
  2 23  1  0
  3 24  1  6
  5 25  1  6
  6 26  1  0
  7 27  1  6
  8 28  1  0
  9 29  1  1
 11 30  1  0
 16 31  1  0
 18 32  1  0
 18 33  1  0
M  END
>  <filename_input>  (8) 
7W05_GMP_docked.sdf

>  <pdb_id>  (8) 
7W05_GMP

>  <pose_rank>  (8) 
7

>  <num_atoms_heavy>  (8) 
20

>  <num_torsions>  (8) 
2

>  <pose>  (8) 
[0.35732482454786546, 5.297040985811215, -12.825662054793863, -0.07942655564860052, 0.1855440789650375, -0.2495779089399301, -10.69908893402934, -2.425704478708687]

>  <energy>  (8) 
-719.3120998890588

>  <inter_energy>  (8) 
-747.9990074898552

>  <intra_energy>  (8) 
40.33388752379296

>  <rmsd>  (8) 
2.19623

>  <sdf_rank>  (8) 
0

$$$$

     RDKit          3D

 33 35  0  0  0  0  0  0  0  0999 V2000
    0.5480    9.4115  -15.4715 O   0  0  0  0  0  0  0  0  0  0  0  0
   -0.7750    9.0549  -15.0439 C   0  0  0  0  0  0  0  0  0  0  0  0
   -1.0595    7.5933  -15.3072 C   0  0  1  0  0  0  0  0  0  0  0  0
    0.0883    6.8028  -14.8599 O   0  0  0  0  0  0  0  0  0  0  0  0
   -2.2778    7.0365  -14.5686 C   0  0  1  0  0  0  0  0  0  0  0  0
   -2.9664    6.0935  -15.3995 O   0  0  0  0  0  0  0  0  0  0  0  0
   -1.6525    6.3162  -13.3746 C   0  0  1  0  0  0  0  0  0  0  0  0
   -2.4345    5.2530  -12.8667 O   0  0  0  0  0  0  0  0  0  0  0  0
   -0.3470    5.8064  -13.9766 C   0  0  2  0  0  0  0  0  0  0  0  0
    0.7270    5.5180  -13.0207 N   0  0  0  0  0  0  0  0  0  0  0  0
    1.5052    4.3972  -12.9729 C   0  0  0  0  0  0  0  0  0  0  0  0
    2.3588    4.4747  -11.9796 N   0  0  0  0  0  0  0  0  0  0  0  0
    2.1301    5.6581  -11.3645 C   0  0  0  0  0  0  0  0  0  0  0  0
    2.7946    6.2773  -10.1830 C   0  0  0  0  0  0  0  0  0  0  0  0
    3.6932    5.7820   -9.5392 O   0  0  0  0  0  0  0  0  0  0  0  0
    2.2745    7.5233   -9.8503 N   0  0  0  0  0  0  0  0  0  0  0  0
    1.1977    8.1262  -10.5279 C   0  0  0  0  0  0  0  0  0  0  0  0
    0.7472    9.3873  -10.1007 N   0  0  0  0  0  0  0  0  0  0  0  0
    0.5780    7.5629  -11.6422 N   0  0  0  0  0  0  0  0  0  0  0  0
    1.1121    6.2912  -12.0148 C   0  0  0  0  0  0  0  0  0  0  0  0
    1.1206    9.5658  -14.6787 H   0  0  0  0  0  0  0  0  0  0  0  0
   -0.8683    9.2500  -13.9653 H   0  0  0  0  0  0  0  0  0  0  0  0
   -1.4989    9.6584  -15.6112 H   0  0  0  0  0  0  0  0  0  0  0  0
   -1.2567    7.5233  -16.3871 H   0  0  0  0  0  0  0  0  0  0  0  0
   -3.0087    7.8080  -14.2850 H   0  0  0  0  0  0  0  0  0  0  0  0
   -3.4442    5.4393  -14.8304 H   0  0  0  0  0  0  0  0  0  0  0  0
   -1.5388    6.9740  -12.5004 H   0  0  0  0  0  0  0  0  0  0  0  0
   -2.4184    5.2750  -11.8771 H   0  0  0  0  0  0  0  0  0  0  0  0
   -0.5608    4.8375  -14.4514 H   0  0  0  0  0  0  0  0  0  0  0  0
    1.4276    3.5491  -13.6691 H   0  0  0  0  0  0  0  0  0  0  0  0
    2.7011    8.0339   -9.0640 H   0  0  0  0  0  0  0  0  0  0  0  0
   -0.0393    9.8442  -10.5840 H   0  0  0  0  0  0  0  0  0  0  0  0
    1.2036    9.8546   -9.3043 H   0  0  0  0  0  0  0  0  0  0  0  0
  1  2  1  0
  3  2  1  0
  3  4  1  0
  3  5  1  0
  4  9  1  0
  5  6  1  0
  5  7  1  0
  7  8  1  0
  7  9  1  0
  9 10  1  0
 10 11  1  0
 10 20  1  0
 11 12  2  0
 12 13  1  0
 13 14  1  0
 13 20  2  0
 14 15  2  0
 14 16  1  0
 16 17  1  0
 17 18  1  0
 17 19  2  0
 19 20  1  0
  1 21  1  0
  2 22  1  0
  2 23  1  0
  3 24  1  6
  5 25  1  1
  6 26  1  0
  7 27  1  1
  8 28  1  0
  9 29  1  6
 11 30  1  0
 16 31  1  0
 18 32  1  0
 18 33  1  0
M  END
>  <filename_input>  (9) 
7W05_GMP_docked.sdf

>  <pdb_id>  (9) 
7W05_GMP

>  <pose_rank>  (9) 
8

>  <num_atoms_heavy>  (9) 
20

>  <num_torsions>  (9) 
2

>  <pose>  (9) 
[0.7269953755782195, 5.517962136669592, -13.020667068112953, 0.06821569594444735, 0.11421448523761252, -0.18037878667783128, -12.29733737177088, 1.9833883918327333]

>  <energy>  (9) 
-839.1846869349414

>  <inter_energy>  (9) 
-839.9022861619537

>  <intra_energy>  (9) 
12.011030011680845

>  <rmsd>  (9) 
1.13737

>  <sdf_rank>  (9) 
0

$$$$

     RDKit          3D

 33 35  0  0  0  0  0  0  0  0999 V2000
   -0.8242   10.0142  -13.9223 O   0  0  0  0  0  0  0  0  0  0  0  0
   -1.7595    9.0081  -13.5065 C   0  0  0  0  0  0  0  0  0  0  0  0
   -1.5711    7.7288  -14.2904 C   0  0  1  0  0  0  0  0  0  0  0  0
   -0.2116    7.2352  -14.0655 O   0  0  0  0  0  0  0  0  0  0  0  0
   -2.5120    6.5907  -13.8915 C   0  0  1  0  0  0  0  0  0  0  0  0
   -2.8978    5.8435  -15.0521 O   0  0  0  0  0  0  0  0  0  0  0  0
   -1.6362    5.7262  -12.9854 C   0  0  1  0  0  0  0  0  0  0  0  0
   -2.0121    4.3635  -12.9474 O   0  0  0  0  0  0  0  0  0  0  0  0
   -0.2643    5.9057  -13.6274 C   0  0  2  0  0  0  0  0  0  0  0  0
    0.8869    5.6475  -12.7565 N   0  0  0  0  0  0  0  0  0  0  0  0
    1.8548    4.7010  -12.9332 C   0  0  0  0  0  0  0  0  0  0  0  0
    2.7254    4.7481  -11.9528 N   0  0  0  0  0  0  0  0  0  0  0  0
    2.3168    5.7329  -11.1196 C   0  0  0  0  0  0  0  0  0  0  0  0
    2.9132    6.2328   -9.8487 C   0  0  0  0  0  0  0  0  0  0  0  0
    3.9147    5.8008   -9.3217 O   0  0  0  0  0  0  0  0  0  0  0  0
    2.1940    7.2769   -9.2774 N   0  0  0  0  0  0  0  0  0  0  0  0
    0.9965    7.7861   -9.8150 C   0  0  0  0  0  0  0  0  0  0  0  0
    0.3473    8.8400   -9.1488 N   0  0  0  0  0  0  0  0  0  0  0  0
    0.4373    7.3360  -11.0098 N   0  0  0  0  0  0  0  0  0  0  0  0
    1.1730    6.2770  -11.6253 C   0  0  0  0  0  0  0  0  0  0  0  0
   -0.4250   10.4436  -13.1246 H   0  0  0  0  0  0  0  0  0  0  0  0
   -1.6096    8.7989  -12.4370 H   0  0  0  0  0  0  0  0  0  0  0  0
   -2.7777    9.3820  -13.6895 H   0  0  0  0  0  0  0  0  0  0  0  0
   -1.7832    7.9928  -15.3370 H   0  0  0  0  0  0  0  0  0  0  0  0
   -3.4386    6.9364  -13.4099 H   0  0  0  0  0  0  0  0  0  0  0  0
   -3.3333    4.9998  -14.7717 H   0  0  0  0  0  0  0  0  0  0  0  0
   -1.7010    6.0262  -11.9291 H   0  0  0  0  0  0  0  0  0  0  0  0
   -2.0932    4.0697  -12.0055 H   0  0  0  0  0  0  0  0  0  0  0  0
   -0.1765    5.1575  -14.4290 H   0  0  0  0  0  0  0  0  0  0  0  0
    1.8986    3.9981  -13.7782 H   0  0  0  0  0  0  0  0  0  0  0  0
    2.5578    7.7017   -8.4125 H   0  0  0  0  0  0  0  0  0  0  0  0
   -0.5298    9.2256   -9.5268 H   0  0  0  0  0  0  0  0  0  0  0  0
    0.7487    9.2266   -8.2826 H   0  0  0  0  0  0  0  0  0  0  0  0
  1  2  1  0
  3  2  1  0
  3  4  1  0
  3  5  1  0
  4  9  1  0
  5  6  1  0
  5  7  1  0
  7  8  1  0
  7  9  1  0
  9 10  1  0
 10 11  1  0
 10 20  1  0
 11 12  2  0
 12 13  1  0
 13 14  1  0
 13 20  2  0
 14 15  2  0
 14 16  1  0
 16 17  1  0
 17 18  1  0
 17 19  2  0
 19 20  1  0
  1 21  1  0
  2 22  1  0
  2 23  1  0
  3 24  1  6
  5 25  1  1
  6 26  1  0
  7 27  1  1
  8 28  1  0
  9 29  1  6
 11 30  1  0
 16 31  1  0
 18 32  1  0
 18 33  1  0
M  END
>  <filename_input>  (10) 
7W05_GMP_docked.sdf

>  <pdb_id>  (10) 
7W05_GMP

>  <pose_rank>  (10) 
9

>  <num_atoms_heavy>  (10) 
20

>  <num_torsions>  (10) 
2

>  <pose>  (10) 
[0.8868784825332324, 5.6474536475666985, -12.756472622543631, 0.2450198624724918, 0.16555846774559554, 0.014087291837837156, -12.534239588844262, 2.22959901561848]

>  <energy>  (10) 
-766.377783208562

>  <inter_energy>  (10) 
-763.3602904130627

>  <intra_energy>  (10) 
9.364001793196557

>  <rmsd>  (10) 
1.13963

>  <sdf_rank>  (10) 
0

$$$$

     RDKit          3D

 33 35  0  0  0  0  0  0  0  0999 V2000
   -0.3882    9.6079  -14.6208 O   0  0  0  0  0  0  0  0  0  0  0  0
   -1.5073    8.7542  -14.3400 C   0  0  0  0  0  0  0  0  0  0  0  0
   -1.3269    7.3913  -14.9697 C   0  0  1  0  0  0  0  0  0  0  0  0
   -0.0105    6.8714  -14.5968 O   0  0  0  0  0  0  0  0  0  0  0  0
   -2.3452    6.3411  -14.5224 C   0  0  1  0  0  0  0  0  0  0  0  0
   -2.6866    5.4889  -15.6229 O   0  0  0  0  0  0  0  0  0  0  0  0
   -1.5742    5.5455  -13.4698 C   0  0  1  0  0  0  0  0  0  0  0  0
   -2.0157    4.2108  -13.3162 O   0  0  0  0  0  0  0  0  0  0  0  0
   -0.1552    5.6000  -14.0265 C   0  0  2  0  0  0  0  0  0  0  0  0
    0.9211    5.3919  -13.0525 N   0  0  0  0  0  0  0  0  0  0  0  0
    1.7779    4.3308  -12.9891 C   0  0  0  0  0  0  0  0  0  0  0  0
    2.6071    4.4717  -11.9823 N   0  0  0  0  0  0  0  0  0  0  0  0
    2.2830    5.6363  -11.3742 C   0  0  0  0  0  0  0  0  0  0  0  0
    2.8812    6.3040  -10.1838 C   0  0  0  0  0  0  0  0  0  0  0  0
    3.8028    5.8764   -9.5241 O   0  0  0  0  0  0  0  0  0  0  0  0
    2.2666    7.5094   -9.8629 N   0  0  0  0  0  0  0  0  0  0  0  0
    1.1600    8.0313  -10.5596 C   0  0  0  0  0  0  0  0  0  0  0  0
    0.6120    9.2570  -10.1431 N   0  0  0  0  0  0  0  0  0  0  0  0
    0.6013    7.4228  -11.6823 N   0  0  0  0  0  0  0  0  0  0  0  0
    1.2325    6.1926  -12.0427 C   0  0  0  0  0  0  0  0  0  0  0  0
    0.0143    9.9150  -13.7700 H   0  0  0  0  0  0  0  0  0  0  0  0
   -1.6041    8.6361  -13.2506 H   0  0  0  0  0  0  0  0  0  0  0  0
   -2.4122    9.2159  -14.7619 H   0  0  0  0  0  0  0  0  0  0  0  0
   -1.4553    7.5489  -16.0508 H   0  0  0  0  0  0  0  0  0  0  0  0
   -3.2849    6.7733  -14.1479 H   0  0  0  0  0  0  0  0  0  0  0  0
   -3.0316    4.6273  -15.2784 H   0  0  0  0  0  0  0  0  0  0  0  0
   -1.6959    5.9601  -12.4583 H   0  0  0  0  0  0  0  0  0  0  0  0
   -2.0868    3.9957  -12.3525 H   0  0  0  0  0  0  0  0  0  0  0  0
   -0.0489    4.7668  -14.7367 H   0  0  0  0  0  0  0  0  0  0  0  0
    1.7736    3.4782  -13.6841 H   0  0  0  0  0  0  0  0  0  0  0  0
    2.6419    8.0509   -9.0712 H   0  0  0  0  0  0  0  0  0  0  0  0
   -0.1976    9.6547  -10.6404 H   0  0  0  0  0  0  0  0  0  0  0  0
    1.0202    9.7575   -9.3407 H   0  0  0  0  0  0  0  0  0  0  0  0
  1  2  1  0
  3  2  1  0
  3  4  1  0
  3  5  1  0
  4  9  1  0
  5  6  1  0
  5  7  1  0
  7  8  1  0
  7  9  1  0
  9 10  1  0
 10 11  1  0
 10 20  1  0
 11 12  2  0
 12 13  1  0
 13 14  1  0
 13 20  2  0
 14 15  2  0
 14 16  1  0
 16 17  1  0
 17 18  1  0
 17 19  2  0
 19 20  1  0
  1 21  1  0
  2 22  1  0
  2 23  1  0
  3 24  1  6
  5 25  1  1
  6 26  1  0
  7 27  1  1
  8 28  1  0
  9 29  1  6
 11 30  1  0
 16 31  1  0
 18 32  1  0
 18 33  1  0
M  END
>  <filename_input>  (11) 
7W05_GMP_docked.sdf

>  <pdb_id>  (11) 
7W05_GMP

>  <pose_rank>  (11) 
10

>  <num_atoms_heavy>  (11) 
20

>  <num_torsions>  (11) 
2

>  <pose>  (11) 
[0.9211228713472976, 5.391910316442479, -13.052534272149114, 0.06329293448126055, 0.10006280589786176, -0.10723549757178863, -12.644755722314137, 2.070336788795064]

>  <energy>  (11) 
-863.3894621683155

>  <inter_energy>  (11) 
-869.9783336666504

>  <intra_energy>  (11) 
9.751051786198198

>  <rmsd>  (11) 
0.761208

>  <sdf_rank>  (11) 
0

$$$$

     RDKit          3D

 33 35  0  0  0  0  0  0  0  0999 V2000
    1.2943    8.1995  -16.3991 O   0  0  0  0  0  0  0  0  0  0  0  0
   -0.0281    8.3938  -15.8758 C   0  0  0  0  0  0  0  0  0  0  0  0
   -0.7338    7.0725  -15.6688 C   0  0  1  0  0  0  0  0  0  0  0  0
    0.1874    6.1455  -15.0097 O   0  0  0  0  0  0  0  0  0  0  0  0
   -1.9775    7.1448  -14.7811 C   0  0  1  0  0  0  0  0  0  0  0  0
   -2.9823    6.2477  -15.2706 O   0  0  0  0  0  0  0  0  0  0  0  0
   -1.4599    6.6560  -13.4289 C   0  0  1  0  0  0  0  0  0  0  0  0
   -2.4514    6.0711  -12.6076 O   0  0  0  0  0  0  0  0  0  0  0  0
   -0.4163    5.6289  -13.8559 C   0  0  2  0  0  0  0  0  0  0  0  0
    0.6261    5.3295  -12.8688 N   0  0  0  0  0  0  0  0  0  0  0  0
    1.2779    4.1423  -12.6967 C   0  0  0  0  0  0  0  0  0  0  0  0
    2.1411    4.2326  -11.7129 N   0  0  0  0  0  0  0  0  0  0  0  0
    2.0467    5.4930  -11.2299 C   0  0  0  0  0  0  0  0  0  0  0  0
    2.7823    6.1595  -10.1183 C   0  0  0  0  0  0  0  0  0  0  0  0
    3.6257    5.6413   -9.4202 O   0  0  0  0  0  0  0  0  0  0  0  0
    2.4032    7.4833   -9.9243 N   0  0  0  0  0  0  0  0  0  0  0  0
    1.3941    8.1236  -10.6686 C   0  0  0  0  0  0  0  0  0  0  0  0
    1.0865    9.4649  -10.3818 N   0  0  0  0  0  0  0  0  0  0  0  0
    0.7096    7.5148  -11.7192 N   0  0  0  0  0  0  0  0  0  0  0  0
    1.0996    6.1597  -11.9499 C   0  0  0  0  0  0  0  0  0  0  0  0
    1.9350    8.1054  -15.6502 H   0  0  0  0  0  0  0  0  0  0  0  0
    0.0411    8.9186  -14.9116 H   0  0  0  0  0  0  0  0  0  0  0  0
   -0.6055    8.9873  -16.5999 H   0  0  0  0  0  0  0  0  0  0  0  0
   -1.0512    6.7498  -16.6713 H   0  0  0  0  0  0  0  0  0  0  0  0
   -2.4318    8.1459  -14.7439 H   0  0  0  0  0  0  0  0  0  0  0  0
   -3.4514    5.8289  -14.5061 H   0  0  0  0  0  0  0  0  0  0  0  0
   -1.0793    7.4772  -12.8037 H   0  0  0  0  0  0  0  0  0  0  0  0
   -2.2159    6.2100  -11.6561 H   0  0  0  0  0  0  0  0  0  0  0  0
   -0.9386    4.6722  -14.0038 H   0  0  0  0  0  0  0  0  0  0  0  0
    1.1038    3.2378  -13.2980 H   0  0  0  0  0  0  0  0  0  0  0  0
    2.8879    8.0259   -9.1952 H   0  0  0  0  0  0  0  0  0  0  0  0
    0.3513    9.9501  -10.9157 H   0  0  0  0  0  0  0  0  0  0  0  0
    1.5962    9.9625   -9.6379 H   0  0  0  0  0  0  0  0  0  0  0  0
  1  2  1  0
  3  2  1  0
  3  4  1  0
  3  5  1  0
  4  9  1  0
  5  6  1  0
  5  7  1  0
  7  8  1  0
  7  9  1  0
  9 10  1  0
 10 11  1  0
 10 20  1  0
 11 12  2  0
 12 13  1  0
 13 14  1  0
 13 20  2  0
 14 15  2  0
 14 16  1  0
 16 17  1  0
 17 18  1  0
 17 19  2  0
 19 20  1  0
  1 21  1  0
  2 22  1  0
  2 23  1  0
  3 24  1  6
  5 25  1  1
  6 26  1  0
  7 27  1  1
  8 28  1  0
  9 29  1  6
 11 30  1  0
 16 31  1  0
 18 32  1  0
 18 33  1  0
M  END
>  <filename_input>  (12) 
7W05_GMP_docked.sdf

>  <pdb_id>  (12) 
7W05_GMP

>  <pose_rank>  (12) 
11

>  <num_atoms_heavy>  (12) 
20

>  <num_torsions>  (12) 
2

>  <pose>  (12) 
[0.6260656165043881, 5.3294939825918695, -12.868848147658017, -0.03323470277828829, 0.10117441863802801, -0.2954503497209451, -12.01432891615431, 1.9773107134212942]

>  <energy>  (12) 
-795.6207424782734

>  <inter_energy>  (12) 
-804.5520731542724

>  <intra_energy>  (12) 
19.55324915852137

>  <rmsd>  (12) 
1.38995

>  <sdf_rank>  (12) 
0

$$$$

     RDKit          3D

 33 35  0  0  0  0  0  0  0  0999 V2000
   -0.8522    9.1786  -14.6906 O   0  0  0  0  0  0  0  0  0  0  0  0
   -2.0479    8.4327  -14.4184 C   0  0  0  0  0  0  0  0  0  0  0  0
   -2.0061    7.0727  -15.0780 C   0  0  1  0  0  0  0  0  0  0  0  0
   -0.7169    6.4459  -14.7822 O   0  0  0  0  0  0  0  0  0  0  0  0
   -3.0790    6.0952  -14.5951 C   0  0  1  0  0  0  0  0  0  0  0  0
   -3.5408    5.2936  -15.6897 O   0  0  0  0  0  0  0  0  0  0  0  0
   -2.3200    5.2221  -13.5966 C   0  0  1  0  0  0  0  0  0  0  0  0
   -2.8555    3.9226  -13.4413 O   0  0  0  0  0  0  0  0  0  0  0  0
   -0.9310    5.1785  -14.2253 C   0  0  2  0  0  0  0  0  0  0  0  0
    0.1738    4.8691  -13.3119 N   0  0  0  0  0  0  0  0  0  0  0  0
    0.9420    3.7406  -13.3043 C   0  0  0  0  0  0  0  0  0  0  0  0
    1.8314    3.7988  -12.3416 N   0  0  0  0  0  0  0  0  0  0  0  0
    1.6368    4.9774  -11.7059 C   0  0  0  0  0  0  0  0  0  0  0  0
    2.3494    5.5771  -10.5426 C   0  0  0  0  0  0  0  0  0  0  0  0
    3.2656    5.0660   -9.9370 O   0  0  0  0  0  0  0  0  0  0  0  0
    1.8541    6.8242  -10.1779 N   0  0  0  0  0  0  0  0  0  0  0  0
    0.7596    7.4448  -10.8098 C   0  0  0  0  0  0  0  0  0  0  0  0
    0.3373    8.7054  -10.3529 N   0  0  0  0  0  0  0  0  0  0  0  0
    0.0948    6.9000  -11.9070 N   0  0  0  0  0  0  0  0  0  0  0  0
    0.6025    5.6274  -12.3123 C   0  0  0  0  0  0  0  0  0  0  0  0
   -0.4271    9.4438  -13.8367 H   0  0  0  0  0  0  0  0  0  0  0  0
   -2.1490    8.3012  -13.3310 H   0  0  0  0  0  0  0  0  0  0  0  0
   -2.9057    8.9899  -14.8231 H   0  0  0  0  0  0  0  0  0  0  0  0
   -2.1763    7.2610  -16.1484 H   0  0  0  0  0  0  0  0  0  0  0  0
   -3.9621    6.5909  -14.1655 H   0  0  0  0  0  0  0  0  0  0  0  0
   -4.0029    4.4913  -15.3392 H   0  0  0  0  0  0  0  0  0  0  0  0
   -2.3578    5.6249  -12.5737 H   0  0  0  0  0  0  0  0  0  0  0  0
   -2.9414    3.7141  -12.4773 H   0  0  0  0  0  0  0  0  0  0  0  0
   -0.9258    4.3537  -14.9531 H   0  0  0  0  0  0  0  0  0  0  0  0
    0.8310    2.9010  -14.0063 H   0  0  0  0  0  0  0  0  0  0  0  0
    2.3137    7.3219   -9.4020 H   0  0  0  0  0  0  0  0  0  0  0  0
   -0.4615    9.1750  -10.8026 H   0  0  0  0  0  0  0  0  0  0  0  0
    0.8267    9.1594   -9.5685 H   0  0  0  0  0  0  0  0  0  0  0  0
  1  2  1  0
  3  2  1  0
  3  4  1  0
  3  5  1  0
  4  9  1  0
  5  6  1  0
  5  7  1  0
  7  8  1  0
  7  9  1  0
  9 10  1  0
 10 11  1  0
 10 20  1  0
 11 12  2  0
 12 13  1  0
 13 14  1  0
 13 20  2  0
 14 15  2  0
 14 16  1  0
 16 17  1  0
 17 18  1  0
 17 19  2  0
 19 20  1  0
  1 21  1  0
  2 22  1  0
  2 23  1  0
  3 24  1  6
  5 25  1  1
  6 26  1  0
  7 27  1  1
  8 28  1  0
  9 29  1  6
 11 30  1  0
 16 31  1  0
 18 32  1  0
 18 33  1  0
M  END
>  <filename_input>  (13) 
7W05_GMP_docked.sdf

>  <pdb_id>  (13) 
7W05_GMP

>  <pose_rank>  (13) 
12

>  <num_atoms_heavy>  (13) 
20

>  <num_torsions>  (13) 
2

>  <pose>  (13) 
[0.17377049068363218, 4.869133881776339, -13.311906012171082, 0.07648076400050069, 0.15078645966422094, -0.19076626199628668, -12.652660781405858, 2.021534618634604]

>  <energy>  (13) 
-620.9688196612301

>  <inter_energy>  (13) 
-623.4634060751383

>  <intra_energy>  (13) 
9.82609438034303

>  <rmsd>  (13) 
1.22176

>  <sdf_rank>  (13) 
0

$$$$

     RDKit          3D

 33 35  0  0  0  0  0  0  0  0999 V2000
    0.3356    9.0153  -15.5785 O   0  0  0  0  0  0  0  0  0  0  0  0
   -0.9067    8.4648  -15.1159 C   0  0  0  0  0  0  0  0  0  0  0  0
   -0.9865    6.9815  -15.3988 C   0  0  1  0  0  0  0  0  0  0  0  0
    0.2314    6.3413  -14.8997 O   0  0  0  0  0  0  0  0  0  0  0  0
   -2.1561    6.2643  -14.7224 C   0  0  1  0  0  0  0  0  0  0  0  0
   -2.6766    5.2489  -15.5896 O   0  0  0  0  0  0  0  0  0  0  0  0
   -1.5003    5.6184  -13.5025 C   0  0  1  0  0  0  0  0  0  0  0  0
   -2.1612    4.4579  -13.0375 O   0  0  0  0  0  0  0  0  0  0  0  0
   -0.1126    5.2879  -14.0426 C   0  0  2  0  0  0  0  0  0  0  0  0
    0.9431    5.1307  -13.0370 N   0  0  0  0  0  0  0  0  0  0  0  0
    1.8097    4.0831  -12.9125 C   0  0  0  0  0  0  0  0  0  0  0  0
    2.6138    4.2730  -11.8934 N   0  0  0  0  0  0  0  0  0  0  0  0
    2.2630    5.4565  -11.3390 C   0  0  0  0  0  0  0  0  0  0  0  0
    2.8262    6.1772  -10.1625 C   0  0  0  0  0  0  0  0  0  0  0  0
    3.7368    5.7865   -9.4658 O   0  0  0  0  0  0  0  0  0  0  0  0
    2.1911    7.3869   -9.9033 N   0  0  0  0  0  0  0  0  0  0  0  0
    1.0953    7.8680  -10.6449 C   0  0  0  0  0  0  0  0  0  0  0  0
    0.5245    9.1025  -10.2895 N   0  0  0  0  0  0  0  0  0  0  0  0
    0.5695    7.2096  -11.7552 N   0  0  0  0  0  0  0  0  0  0  0  0
    1.2222    5.9739  -12.0526 C   0  0  0  0  0  0  0  0  0  0  0  0
    0.8962    9.2637  -14.8013 H   0  0  0  0  0  0  0  0  0  0  0  0
   -0.9898    8.6282  -14.0313 H   0  0  0  0  0  0  0  0  0  0  0  0
   -1.7291    8.9656  -15.6477 H   0  0  0  0  0  0  0  0  0  0  0  0
   -1.1215    6.8978  -16.4872 H   0  0  0  0  0  0  0  0  0  0  0  0
   -2.9935    6.9319  -14.4713 H   0  0  0  0  0  0  0  0  0  0  0  0
   -3.0540    4.5125  -15.0462 H   0  0  0  0  0  0  0  0  0  0  0  0
   -1.5144    6.2763  -12.6211 H   0  0  0  0  0  0  0  0  0  0  0  0
   -2.1635    4.4538  -12.0475 H   0  0  0  0  0  0  0  0  0  0  0  0
   -0.1762    4.3045  -14.5313 H   0  0  0  0  0  0  0  0  0  0  0  0
    1.8308    3.2040  -13.5733 H   0  0  0  0  0  0  0  0  0  0  0  0
    2.5421    7.9632   -9.1251 H   0  0  0  0  0  0  0  0  0  0  0  0
   -0.2777    9.4708  -10.8203 H   0  0  0  0  0  0  0  0  0  0  0  0
    0.9085    9.6387   -9.4983 H   0  0  0  0  0  0  0  0  0  0  0  0
  1  2  1  0
  3  2  1  0
  3  4  1  0
  3  5  1  0
  4  9  1  0
  5  6  1  0
  5  7  1  0
  7  8  1  0
  7  9  1  0
  9 10  1  0
 10 11  1  0
 10 20  1  0
 11 12  2  0
 12 13  1  0
 13 14  1  0
 13 20  2  0
 14 15  2  0
 14 16  1  0
 16 17  1  0
 17 18  1  0
 17 19  2  0
 19 20  1  0
  1 21  1  0
  2 22  1  0
  2 23  1  0
  3 24  1  6
  5 25  1  1
  6 26  1  0
  7 27  1  1
  8 28  1  0
  9 29  1  6
 11 30  1  0
 16 31  1  0
 18 32  1  0
 18 33  1  0
M  END
>  <filename_input>  (14) 
7W05_GMP_docked.sdf

>  <pdb_id>  (14) 
7W05_GMP

>  <pose_rank>  (14) 
13

>  <num_atoms_heavy>  (14) 
20

>  <num_torsions>  (14) 
2

>  <pose>  (14) 
[0.9430827503787329, 5.130712535077402, -13.036989148121977, 0.02483897135418879, 0.0753747786589802, -0.09705049685787134, -12.365108403785326, 2.0668606267924052]

>  <energy>  (14) 
-817.5065941747793

>  <inter_energy>  (14) 
-817.7448838762804

>  <intra_energy>  (14) 
10.817647333528402

>  <rmsd>  (14) 
0.787252

>  <sdf_rank>  (14) 
0

$$$$

     RDKit          3D

 33 35  0  0  0  0  0  0  0  0999 V2000
   -0.0047    9.6115  -13.8682 O   0  0  0  0  0  0  0  0  0  0  0  0
   -1.3533    9.2249  -14.1714 C   0  0  0  0  0  0  0  0  0  0  0  0
   -1.4000    7.8500  -14.7991 C   0  0  1  0  0  0  0  0  0  0  0  0
   -0.1320    7.1686  -14.5341 O   0  0  0  0  0  0  0  0  0  0  0  0
   -2.4997    6.9364  -14.2552 C   0  0  1  0  0  0  0  0  0  0  0  0
   -3.0385    6.1337  -15.3131 O   0  0  0  0  0  0  0  0  0  0  0  0
   -1.7470    6.0503  -13.2634 C   0  0  1  0  0  0  0  0  0  0  0  0
   -2.3374    4.7819  -13.0580 O   0  0  0  0  0  0  0  0  0  0  0  0
   -0.3854    5.9257  -13.9396 C   0  0  2  0  0  0  0  0  0  0  0  0
    0.7360    5.5840  -13.0586 N   0  0  0  0  0  0  0  0  0  0  0  0
    1.5290    4.4750  -13.1307 C   0  0  0  0  0  0  0  0  0  0  0  0
    2.4276    4.4919  -12.1749 N   0  0  0  0  0  0  0  0  0  0  0  0
    2.2141    5.6229  -11.4633 C   0  0  0  0  0  0  0  0  0  0  0  0
    2.9263    6.1633  -10.2710 C   0  0  0  0  0  0  0  0  0  0  0  0
    3.8602    5.6357   -9.7082 O   0  0  0  0  0  0  0  0  0  0  0  0
    2.4076    7.3731   -9.8225 N   0  0  0  0  0  0  0  0  0  0  0  0
    1.2928    8.0077  -10.4027 C   0  0  0  0  0  0  0  0  0  0  0  0
    0.8479    9.2266   -9.8621 N   0  0  0  0  0  0  0  0  0  0  0  0
    0.6279    7.5189  -11.5261 N   0  0  0  0  0  0  0  0  0  0  0  0
    1.1590    6.2865  -12.0168 C   0  0  0  0  0  0  0  0  0  0  0  0
    0.1159    9.6461  -12.8862 H   0  0  0  0  0  0  0  0  0  0  0  0
   -1.9413    9.2150  -13.2418 H   0  0  0  0  0  0  0  0  0  0  0  0
   -1.7708    9.9488  -14.8867 H   0  0  0  0  0  0  0  0  0  0  0  0
   -1.6000    8.0223  -15.8670 H   0  0  0  0  0  0  0  0  0  0  0  0
   -3.3420    7.4836  -13.8067 H   0  0  0  0  0  0  0  0  0  0  0  0
   -3.5465    5.3768  -14.9271 H   0  0  0  0  0  0  0  0  0  0  0  0
   -1.7283    6.4772  -12.2498 H   0  0  0  0  0  0  0  0  0  0  0  0
   -2.4180    4.6088  -12.0866 H   0  0  0  0  0  0  0  0  0  0  0  0
   -0.4459    5.0856  -14.6470 H   0  0  0  0  0  0  0  0  0  0  0  0
    1.4287    3.6795  -13.8838 H   0  0  0  0  0  0  0  0  0  0  0  0
    2.8648    7.8306   -9.0209 H   0  0  0  0  0  0  0  0  0  0  0  0
    0.0340    9.7057  -10.2731 H   0  0  0  0  0  0  0  0  0  0  0  0
    1.3358    9.6407   -9.0551 H   0  0  0  0  0  0  0  0  0  0  0  0
  1  2  1  0
  3  2  1  0
  3  4  1  0
  3  5  1  0
  4  9  1  0
  5  6  1  0
  5  7  1  0
  7  8  1  0
  7  9  1  0
  9 10  1  0
 10 11  1  0
 10 20  1  0
 11 12  2  0
 12 13  1  0
 13 14  1  0
 13 20  2  0
 14 15  2  0
 14 16  1  0
 16 17  1  0
 17 18  1  0
 17 19  2  0
 19 20  1  0
  1 21  1  0
  2 22  1  0
  2 23  1  0
  3 24  1  6
  5 25  1  1
  6 26  1  0
  7 27  1  1
  8 28  1  0
  9 29  1  6
 11 30  1  0
 16 31  1  0
 18 32  1  0
 18 33  1  0
M  END
>  <filename_input>  (15) 
7W05_GMP_docked.sdf

>  <pdb_id>  (15) 
7W05_GMP

>  <pose_rank>  (15) 
14

>  <num_atoms_heavy>  (15) 
20

>  <num_torsions>  (15) 
2

>  <pose>  (15) 
[0.7359867772312741, 5.58397952823746, -13.058625192232626, 0.13732262580700197, 0.1680960946842178, -0.1640218497876748, -12.537918602179884, 1.482885393504646]

>  <energy>  (15) 
-837.8353497361088

>  <inter_energy>  (15) 
-853.6464847483477

>  <intra_energy>  (15) 
11.98801853936369

>  <rmsd>  (15) 
1.08355

>  <sdf_rank>  (15) 
0

$$$$

     RDKit          3D

 33 35  0  0  0  0  0  0  0  0999 V2000
   -3.4375    8.7872  -14.0990 O   0  0  0  0  0  0  0  0  0  0  0  0
   -2.1287    8.3223  -13.7372 C   0  0  0  0  0  0  0  0  0  0  0  0
   -1.6978    7.1664  -14.6118 C   0  0  1  0  0  0  0  0  0  0  0  0
   -0.3065    6.8347  -14.3012 O   0  0  0  0  0  0  0  0  0  0  0  0
   -2.5005    5.8798  -14.4114 C   0  0  1  0  0  0  0  0  0  0  0  0
   -2.6788    5.2123  -15.6670 O   0  0  0  0  0  0  0  0  0  0  0  0
   -1.5918    5.0488  -13.5065 C   0  0  1  0  0  0  0  0  0  0  0  0
   -1.7752    3.6519  -13.6290 O   0  0  0  0  0  0  0  0  0  0  0  0
   -0.2093    5.4717  -13.9927 C   0  0  2  0  0  0  0  0  0  0  0  0
    0.8892    5.2780  -13.0408 N   0  0  0  0  0  0  0  0  0  0  0  0
    1.7771    4.2414  -13.0107 C   0  0  0  0  0  0  0  0  0  0  0  0
    2.6192    4.3888  -12.0154 N   0  0  0  0  0  0  0  0  0  0  0  0
    2.2721    5.5327  -11.3813 C   0  0  0  0  0  0  0  0  0  0  0  0
    2.8713    6.1967  -10.1893 C   0  0  0  0  0  0  0  0  0  0  0  0
    3.8160    5.7847   -9.5528 O   0  0  0  0  0  0  0  0  0  0  0  0
    2.2278    7.3780   -9.8367 N   0  0  0  0  0  0  0  0  0  0  0  0
    1.0948    7.8795  -10.5053 C   0  0  0  0  0  0  0  0  0  0  0  0
    0.5190    9.0813  -10.0579 N   0  0  0  0  0  0  0  0  0  0  0  0
    0.5346    7.2745  -11.6292 N   0  0  0  0  0  0  0  0  0  0  0  0
    1.1947    6.0698  -12.0221 C   0  0  0  0  0  0  0  0  0  0  0  0
   -3.9602    8.9728  -13.2789 H   0  0  0  0  0  0  0  0  0  0  0  0
   -1.4102    9.1471  -13.8530 H   0  0  0  0  0  0  0  0  0  0  0  0
   -2.1579    7.9770  -12.6932 H   0  0  0  0  0  0  0  0  0  0  0  0
   -1.8558    7.5068  -15.6458 H   0  0  0  0  0  0  0  0  0  0  0  0
   -3.5035    6.0497  -13.9931 H   0  0  0  0  0  0  0  0  0  0  0  0
   -2.9308    4.2685  -15.5061 H   0  0  0  0  0  0  0  0  0  0  0  0
   -1.7866    5.2271  -12.4386 H   0  0  0  0  0  0  0  0  0  0  0  0
   -1.8286    3.2458  -12.7277 H   0  0  0  0  0  0  0  0  0  0  0  0
    0.0494    4.8281  -14.8465 H   0  0  0  0  0  0  0  0  0  0  0  0
    1.7854    3.4013  -13.7206 H   0  0  0  0  0  0  0  0  0  0  0  0
    2.6010    7.9162   -9.0418 H   0  0  0  0  0  0  0  0  0  0  0  0
   -0.3102    9.4638  -10.5344 H   0  0  0  0  0  0  0  0  0  0  0  0
    0.9263    9.5793   -9.2536 H   0  0  0  0  0  0  0  0  0  0  0  0
  1  2  1  0
  3  2  1  0
  3  4  1  0
  3  5  1  0
  4  9  1  0
  5  6  1  0
  5  7  1  0
  7  8  1  0
  7  9  1  0
  9 10  1  0
 10 11  1  0
 10 20  1  0
 11 12  2  0
 12 13  1  0
 13 14  1  0
 13 20  2  0
 14 15  2  0
 14 16  1  0
 16 17  1  0
 17 18  1  0
 17 19  2  0
 19 20  1  0
  1 21  1  0
  2 22  1  0
  2 23  1  0
  3 24  1  6
  5 25  1  1
  6 26  1  0
  7 27  1  1
  8 28  1  0
  9 29  1  6
 11 30  1  0
 16 31  1  0
 18 32  1  0
 18 33  1  0
M  END
>  <filename_input>  (16) 
7W05_GMP_docked.sdf

>  <pdb_id>  (16) 
7W05_GMP

>  <pose_rank>  (16) 
15

>  <num_atoms_heavy>  (16) 
20

>  <num_torsions>  (16) 
2

>  <pose>  (16) 
[0.8891791126625446, 5.2780342578011865, -13.0407598112195, 0.07854784609544743, 0.11883884791266323, -0.07796898097353318, -12.886857163429621, -2.0704849093028717]

>  <energy>  (16) 
-873.6060752986212

>  <inter_energy>  (16) 
-882.2298355015802

>  <intra_energy>  (16) 
14.147937652643083

>  <rmsd>  (16) 
0.854411

>  <sdf_rank>  (16) 
0

$$$$

     RDKit          3D

 33 35  0  0  0  0  0  0  0  0999 V2000
   -0.2311    9.7622  -14.2329 O   0  0  0  0  0  0  0  0  0  0  0  0
   -1.4467    9.0890  -13.8733 C   0  0  0  0  0  0  0  0  0  0  0  0
   -1.5005    7.7011  -14.4712 C   0  0  1  0  0  0  0  0  0  0  0  0
   -0.2035    7.0526  -14.2723 O   0  0  0  0  0  0  0  0  0  0  0  0
   -2.5437    6.7751  -13.8433 C   0  0  1  0  0  0  0  0  0  0  0  0
   -3.1280    5.9399  -14.8508 O   0  0  0  0  0  0  0  0  0  0  0  0
   -1.7115    5.9255  -12.8836 C   0  0  1  0  0  0  0  0  0  0  0  0
   -2.2592    4.6489  -12.6185 O   0  0  0  0  0  0  0  0  0  0  0  0
   -0.3916    5.8167  -13.6402 C   0  0  2  0  0  0  0  0  0  0  0  0
    0.7893    5.5169  -12.8240 N   0  0  0  0  0  0  0  0  0  0  0  0
    1.5902    4.4148  -12.9115 C   0  0  0  0  0  0  0  0  0  0  0  0
    2.5490    4.4736  -12.0179 N   0  0  0  0  0  0  0  0  0  0  0  0
    2.3677    5.6255  -11.3314 C   0  0  0  0  0  0  0  0  0  0  0  0
    3.1491    6.2133  -10.2068 C   0  0  0  0  0  0  0  0  0  0  0  0
    4.1245    5.7151   -9.6895 O   0  0  0  0  0  0  0  0  0  0  0  0
    2.6452    7.4319   -9.7652 N   0  0  0  0  0  0  0  0  0  0  0  0
    1.4867    8.0345  -10.2915 C   0  0  0  0  0  0  0  0  0  0  0  0
    1.0622    9.2661   -9.7632 N   0  0  0  0  0  0  0  0  0  0  0  0
    0.7563    7.5010  -11.3521 N   0  0  0  0  0  0  0  0  0  0  0  0
    1.2702    6.2587  -11.8359 C   0  0  0  0  0  0  0  0  0  0  0  0
    0.2529   10.0303  -13.4120 H   0  0  0  0  0  0  0  0  0  0  0  0
   -1.5025    9.0100  -12.7775 H   0  0  0  0  0  0  0  0  0  0  0  0
   -2.2952    9.6697  -14.2640 H   0  0  0  0  0  0  0  0  0  0  0  0
   -1.7695    7.8476  -15.5277 H   0  0  0  0  0  0  0  0  0  0  0  0
   -3.3691    7.3128  -13.3540 H   0  0  0  0  0  0  0  0  0  0  0  0
   -3.6386    5.2100  -14.4190 H   0  0  0  0  0  0  0  0  0  0  0  0
   -1.6404    6.3728  -11.8813 H   0  0  0  0  0  0  0  0  0  0  0  0
   -2.3181    4.5119  -11.6398 H   0  0  0  0  0  0  0  0  0  0  0  0
   -0.4762    4.9614  -14.3268 H   0  0  0  0  0  0  0  0  0  0  0  0
    1.4513    3.5934  -13.6299 H   0  0  0  0  0  0  0  0  0  0  0  0
    3.1477    7.9210   -9.0108 H   0  0  0  0  0  0  0  0  0  0  0  0
    0.2171    9.7222  -10.1354 H   0  0  0  0  0  0  0  0  0  0  0  0
    1.5964    9.7123   -9.0040 H   0  0  0  0  0  0  0  0  0  0  0  0
  1  2  1  0
  3  2  1  0
  3  4  1  0
  3  5  1  0
  4  9  1  0
  5  6  1  0
  5  7  1  0
  7  8  1  0
  7  9  1  0
  9 10  1  0
 10 11  1  0
 10 20  1  0
 11 12  2  0
 12 13  1  0
 13 14  1  0
 13 20  2  0
 14 15  2  0
 14 16  1  0
 16 17  1  0
 17 18  1  0
 17 19  2  0
 19 20  1  0
  1 21  1  0
  2 22  1  0
  2 23  1  0
  3 24  1  6
  5 25  1  1
  6 26  1  0
  7 27  1  1
  8 28  1  0
  9 29  1  6
 11 30  1  0
 16 31  1  0
 18 32  1  0
 18 33  1  0
M  END
>  <filename_input>  (17) 
7W05_GMP_docked.sdf

>  <pdb_id>  (17) 
7W05_GMP

>  <pose_rank>  (17) 
16

>  <num_atoms_heavy>  (17) 
20

>  <num_torsions>  (17) 
2

>  <pose>  (17) 
[0.7892770618131111, 5.516946574428113, -12.824031082632706, 0.09784216927134963, 0.23130467253252274, -0.159468507804907, -12.555634942212174, 1.9658295506490895]

>  <energy>  (17) 
-802.0944662889463

>  <inter_energy>  (17) 
-817.1773163275917

>  <intra_energy>  (17) 
9.343757576264835

>  <rmsd>  (17) 
1.1405

>  <sdf_rank>  (17) 
0

$$$$

     RDKit          3D

 33 35  0  0  0  0  0  0  0  0999 V2000
    0.0663    9.3313  -14.9271 O   0  0  0  0  0  0  0  0  0  0  0  0
   -1.2824    8.9525  -14.6143 C   0  0  0  0  0  0  0  0  0  0  0  0
   -1.5228    7.4898  -14.9131 C   0  0  1  0  0  0  0  0  0  0  0  0
   -0.3136    6.7363  -14.5778 O   0  0  0  0  0  0  0  0  0  0  0  0
   -2.6605    6.8530  -14.1131 C   0  0  1  0  0  0  0  0  0  0  0  0
   -3.3662    5.9099  -14.9295 O   0  0  0  0  0  0  0  0  0  0  0  0
   -1.9215    6.1198  -12.9943 C   0  0  1  0  0  0  0  0  0  0  0  0
   -2.6194    5.0053  -12.4742 O   0  0  0  0  0  0  0  0  0  0  0  0
   -0.6420    5.6908  -13.7051 C   0  0  2  0  0  0  0  0  0  0  0  0
    0.5089    5.4174  -12.8385 N   0  0  0  0  0  0  0  0  0  0  0  0
    1.2975    4.3029  -12.8472 C   0  0  0  0  0  0  0  0  0  0  0  0
    2.2287    4.3939  -11.9275 N   0  0  0  0  0  0  0  0  0  0  0  0
    2.0416    5.5800  -11.3036 C   0  0  0  0  0  0  0  0  0  0  0  0
    2.7955    6.2128  -10.1846 C   0  0  0  0  0  0  0  0  0  0  0  0
    3.7476    5.7288   -9.6132 O   0  0  0  0  0  0  0  0  0  0  0  0
    2.2943    7.4572   -9.8187 N   0  0  0  0  0  0  0  0  0  0  0  0
    1.1609    8.0471  -10.4099 C   0  0  0  0  0  0  0  0  0  0  0  0
    0.7367    9.3079   -9.9556 N   0  0  0  0  0  0  0  0  0  0  0  0
    0.4567    7.4711  -11.4660 N   0  0  0  0  0  0  0  0  0  0  0  0
    0.9688    6.2007  -11.8727 C   0  0  0  0  0  0  0  0  0  0  0  0
    0.5722    9.4734  -14.0880 H   0  0  0  0  0  0  0  0  0  0  0  0
   -1.4679    9.1356  -13.5456 H   0  0  0  0  0  0  0  0  0  0  0  0
   -1.9652    9.5515  -15.2347 H   0  0  0  0  0  0  0  0  0  0  0  0
   -1.7936    7.4491  -15.9785 H   0  0  0  0  0  0  0  0  0  0  0  0
   -3.4013    7.5804  -13.7496 H   0  0  0  0  0  0  0  0  0  0  0  0
   -3.8473    5.2671  -14.3503 H   0  0  0  0  0  0  0  0  0  0  0  0
   -1.7735    6.7508  -12.1055 H   0  0  0  0  0  0  0  0  0  0  0  0
   -2.6001    5.0361  -11.4849 H   0  0  0  0  0  0  0  0  0  0  0  0
   -0.8479    4.7307  -14.2008 H   0  0  0  0  0  0  0  0  0  0  0  0
    1.1700    3.4491  -13.5290 H   0  0  0  0  0  0  0  0  0  0  0  0
    2.7796    7.9766   -9.0733 H   0  0  0  0  0  0  0  0  0  0  0  0
   -0.0904    9.7553  -10.3759 H   0  0  0  0  0  0  0  0  0  0  0  0
    1.2529    9.7843   -9.2023 H   0  0  0  0  0  0  0  0  0  0  0  0
  1  2  1  0
  3  2  1  0
  3  4  1  0
  3  5  1  0
  4  9  1  0
  5  6  1  0
  5  7  1  0
  7  8  1  0
  7  9  1  0
  9 10  1  0
 10 11  1  0
 10 20  1  0
 11 12  2  0
 12 13  1  0
 13 14  1  0
 13 20  2  0
 14 15  2  0
 14 16  1  0
 16 17  1  0
 17 18  1  0
 17 19  2  0
 19 20  1  0
  1 21  1  0
  2 22  1  0
  2 23  1  0
  3 24  1  6
  5 25  1  1
  6 26  1  0
  7 27  1  1
  8 28  1  0
  9 29  1  6
 11 30  1  0
 16 31  1  0
 18 32  1  0
 18 33  1  0
M  END
>  <filename_input>  (18) 
7W05_GMP_docked.sdf

>  <pdb_id>  (18) 
7W05_GMP

>  <pose_rank>  (18) 
17

>  <num_atoms_heavy>  (18) 
20

>  <num_torsions>  (18) 
2

>  <pose>  (18) 
[0.508924338668742, 5.417364600355872, -12.838460888591312, 0.05346357577725564, 0.19546494749358806, -0.17582615494491063, -12.355114443952312, 1.8239910217291562]

>  <energy>  (18) 
-839.0764811723702

>  <inter_energy>  (18) 
-845.9360222677324

>  <intra_energy>  (18) 
10.972890713041657

>  <rmsd>  (18) 
1.16708

>  <sdf_rank>  (18) 
0

$$$$

     RDKit          3D

 33 35  0  0  0  0  0  0  0  0999 V2000
    0.1120    4.3293  -18.1675 O   0  0  0  0  0  0  0  0  0  0  0  0
    0.7510    4.3105  -16.8824 C   0  0  0  0  0  0  0  0  0  0  0  0
   -0.2278    4.6469  -15.7801 C   0  0  1  0  0  0  0  0  0  0  0  0
    0.4461    5.4941  -14.7949 O   0  0  0  0  0  0  0  0  0  0  0  0
   -1.4641    5.4225  -16.2383 C   0  0  1  0  0  0  0  0  0  0  0  0
   -2.6152    4.9902  -15.5020 O   0  0  0  0  0  0  0  0  0  0  0  0
   -1.1203    6.8637  -15.8643 C   0  0  1  0  0  0  0  0  0  0  0  0
   -2.2475    7.6835  -15.6254 O   0  0  0  0  0  0  0  0  0  0  0  0
   -0.3021    6.6611  -14.5931 C   0  0  2  0  0  0  0  0  0  0  0  0
    0.6098    7.7538  -14.2398 N   0  0  0  0  0  0  0  0  0  0  0  0
    1.1806    8.6554  -15.0914 C   0  0  0  0  0  0  0  0  0  0  0  0
    1.9499    9.4867  -14.4295 N   0  0  0  0  0  0  0  0  0  0  0  0
    1.8881    9.1187  -13.1287 C   0  0  0  0  0  0  0  0  0  0  0  0
    2.5532    9.6985  -11.9278 C   0  0  0  0  0  0  0  0  0  0  0  0
    3.3114   10.6432  -11.9286 O   0  0  0  0  0  0  0  0  0  0  0  0
    2.2320    9.0361  -10.7481 N   0  0  0  0  0  0  0  0  0  0  0  0
    1.3993    7.9022  -10.6912 C   0  0  0  0  0  0  0  0  0  0  0  0
    1.1481    7.3064   -9.4430 N   0  0  0  0  0  0  0  0  0  0  0  0
    0.7611    7.3600  -11.8054 N   0  0  0  0  0  0  0  0  0  0  0  0
    1.0603    8.0397  -13.0260 C   0  0  0  0  0  0  0  0  0  0  0  0
   -0.8702    4.3581  -18.0473 H   0  0  0  0  0  0  0  0  0  0  0  0
    1.1640    3.3071  -16.7016 H   0  0  0  0  0  0  0  0  0  0  0  0
    1.5511    5.0654  -16.8802 H   0  0  0  0  0  0  0  0  0  0  0  0
   -0.5640    3.6785  -15.3812 H   0  0  0  0  0  0  0  0  0  0  0  0
   -1.6961    5.2869  -17.3050 H   0  0  0  0  0  0  0  0  0  0  0  0
   -2.4313    5.0592  -14.5317 H   0  0  0  0  0  0  0  0  0  0  0  0
   -0.6004    7.3949  -16.6752 H   0  0  0  0  0  0  0  0  0  0  0  0
   -2.3830    7.7821  -14.6497 H   0  0  0  0  0  0  0  0  0  0  0  0
   -1.0093    6.6098  -13.7522 H   0  0  0  0  0  0  0  0  0  0  0  0
    1.0182    8.6812  -16.1791 H   0  0  0  0  0  0  0  0  0  0  0  0
    2.6254    9.3950   -9.8664 H   0  0  0  0  0  0  0  0  0  0  0  0
    0.5415    6.4762   -9.3814 H   0  0  0  0  0  0  0  0  0  0  0  0
    1.5706    7.6999   -8.5901 H   0  0  0  0  0  0  0  0  0  0  0  0
  1  2  1  0
  3  2  1  0
  3  4  1  0
  3  5  1  0
  4  9  1  0
  5  6  1  0
  5  7  1  0
  7  8  1  0
  7  9  1  0
  9 10  1  0
 10 11  1  0
 10 20  1  0
 11 12  2  0
 12 13  1  0
 13 14  1  0
 13 20  2  0
 14 15  2  0
 14 16  1  0
 16 17  1  0
 17 18  1  0
 17 19  2  0
 19 20  1  0
  1 21  1  0
  2 22  1  0
  2 23  1  0
  3 24  1  1
  5 25  1  6
  6 26  1  0
  7 27  1  6
  8 28  1  0
  9 29  1  1
 11 30  1  0
 16 31  1  0
 18 32  1  0
 18 33  1  0
M  END
>  <filename_input>  (19) 
7W05_GMP_docked.sdf

>  <pdb_id>  (19) 
7W05_GMP

>  <pose_rank>  (19) 
18

>  <num_atoms_heavy>  (19) 
20

>  <num_torsions>  (19) 
2

>  <pose>  (19) 
[0.6098431367285555, 7.753802927347278, -14.239776372988358, -1.7926872490160977, -2.295297611686707, -3.346700739221875, 28.9145762149336, -1.275573341576466]

>  <energy>  (19) 
-450.0744853480694

>  <inter_energy>  (19) 
-446.28154606861807

>  <intra_energy>  (19) 
0.0

>  <rmsd>  (19) 
3.4822

>  <sdf_rank>  (19) 
0

$$$$

     RDKit          3D

 33 35  0  0  0  0  0  0  0  0999 V2000
   -1.7934    4.9417  -18.4012 O   0  0  0  0  0  0  0  0  0  0  0  0
   -1.2846    4.5633  -17.1135 C   0  0  0  0  0  0  0  0  0  0  0  0
   -2.2355    4.9675  -16.0095 C   0  0  1  0  0  0  0  0  0  0  0  0
   -1.4539    5.4170  -14.8566 O   0  0  0  0  0  0  0  0  0  0  0  0
   -3.1754    6.1204  -16.3663 C   0  0  1  0  0  0  0  0  0  0  0  0
   -4.4619    5.9064  -15.7720 O   0  0  0  0  0  0  0  0  0  0  0  0
   -2.4978    7.3261  -15.7162 C   0  0  1  0  0  0  0  0  0  0  0  0
   -3.3847    8.3736  -15.3758 O   0  0  0  0  0  0  0  0  0  0  0  0
   -1.8816    6.6944  -14.4721 C   0  0  2  0  0  0  0  0  0  0  0  0
   -0.7490    7.4166  -13.8837 N   0  0  0  0  0  0  0  0  0  0  0  0
   -0.2830    8.6481  -14.2445 C   0  0  0  0  0  0  0  0  0  0  0  0
    0.7523    8.9790  -13.5097 N   0  0  0  0  0  0  0  0  0  0  0  0
    0.9713    7.9467  -12.6628 C   0  0  0  0  0  0  0  0  0  0  0  0
    2.0069    7.7666  -11.6063 C   0  0  0  0  0  0  0  0  0  0  0  0
    2.8782    8.5614  -11.3300 O   0  0  0  0  0  0  0  0  0  0  0  0
    1.9012    6.5539  -10.9341 N   0  0  0  0  0  0  0  0  0  0  0  0
    0.9436    5.5697  -11.2451 C   0  0  0  0  0  0  0  0  0  0  0  0
    0.9327    4.3750  -10.5044 N   0  0  0  0  0  0  0  0  0  0  0  0
   -0.0380    5.7329  -12.2211 N   0  0  0  0  0  0  0  0  0  0  0  0
    0.0390    6.9825  -12.9097 C   0  0  0  0  0  0  0  0  0  0  0  0
   -2.5823    5.5283  -18.2850 H   0  0  0  0  0  0  0  0  0  0  0  0
   -1.1482    3.4721  -17.0881 H   0  0  0  0  0  0  0  0  0  0  0  0
   -0.3256    5.0778  -16.9530 H   0  0  0  0  0  0  0  0  0  0  0  0
   -2.8509    4.0772  -15.8125 H   0  0  0  0  0  0  0  0  0  0  0  0
   -3.3369    6.2355  -17.4483 H   0  0  0  0  0  0  0  0  0  0  0  0
   -4.3763    5.9206  -14.7858 H   0  0  0  0  0  0  0  0  0  0  0  0
   -1.7843    7.8209  -16.3916 H   0  0  0  0  0  0  0  0  0  0  0  0
   -3.4465    8.4466  -14.3905 H   0  0  0  0  0  0  0  0  0  0  0  0
   -2.6507    6.7004  -13.6857 H   0  0  0  0  0  0  0  0  0  0  0  0
   -0.7147    9.2744  -15.0391 H   0  0  0  0  0  0  0  0  0  0  0  0
    2.5605    6.3650  -10.1657 H   0  0  0  0  0  0  0  0  0  0  0  0
    0.2397    3.6434  -10.7173 H   0  0  0  0  0  0  0  0  0  0  0  0
    1.6178    4.2312   -9.7488 H   0  0  0  0  0  0  0  0  0  0  0  0
  1  2  1  0
  3  2  1  0
  3  4  1  0
  3  5  1  0
  4  9  1  0
  5  6  1  0
  5  7  1  0
  7  8  1  0
  7  9  1  0
  9 10  1  0
 10 11  1  0
 10 20  1  0
 11 12  2  0
 12 13  1  0
 13 14  1  0
 13 20  2  0
 14 15  2  0
 14 16  1  0
 16 17  1  0
 17 18  1  0
 17 19  2  0
 19 20  1  0
  1 21  1  0
  2 22  1  0
  2 23  1  0
  3 24  1  1
  5 25  1  6
  6 26  1  0
  7 27  1  6
  8 28  1  0
  9 29  1  1
 11 30  1  0
 16 31  1  0
 18 32  1  0
 18 33  1  0
M  END
>  <filename_input>  (20) 
7W05_GMP_docked.sdf

>  <pdb_id>  (20) 
7W05_GMP

>  <pose_rank>  (20) 
19

>  <num_atoms_heavy>  (20) 
20

>  <num_torsions>  (20) 
2

>  <pose>  (20) 
[-0.7490167738415352, 7.416569865911705, -13.883689231977439, -2.630633991090654, -1.3195972295317335, -2.780477639448665, 29.49813092549533, -1.302861863878572]

>  <energy>  (20) 
-401.35165115584294

>  <inter_energy>  (20) 
-406.61165282340437

>  <intra_energy>  (20) 
9.724918290519899

>  <rmsd>  (20) 
3.56258

>  <sdf_rank>  (20) 
0

$$$$

     RDKit          3D

 33 35  0  0  0  0  0  0  0  0999 V2000
   -3.8304    7.0474  -13.7968 O   0  0  0  0  0  0  0  0  0  0  0  0
   -4.0124    6.5164  -15.1178 C   0  0  0  0  0  0  0  0  0  0  0  0
   -2.7958    6.7668  -15.9802 C   0  0  1  0  0  0  0  0  0  0  0  0
   -1.5952    6.4714  -15.1968 O   0  0  0  0  0  0  0  0  0  0  0  0
   -2.7130    5.8973  -17.2360 C   0  0  1  0  0  0  0  0  0  0  0  0
   -2.1650    6.6550  -18.3220 O   0  0  0  0  0  0  0  0  0  0  0  0
   -1.7348    4.7975  -16.8251 C   0  0  1  0  0  0  0  0  0  0  0  0
   -1.0310    4.2168  -17.9055 O   0  0  0  0  0  0  0  0  0  0  0  0
   -0.7949    5.5582  -15.8954 C   0  0  2  0  0  0  0  0  0  0  0  0
   -0.0535    4.7414  -14.9292 N   0  0  0  0  0  0  0  0  0  0  0  0
    0.8904    3.7948  -15.2068 C   0  0  0  0  0  0  0  0  0  0  0  0
    1.3374    3.2551  -14.0977 N   0  0  0  0  0  0  0  0  0  0  0  0
    0.6711    3.8509  -13.0817 C   0  0  0  0  0  0  0  0  0  0  0  0
    0.7658    3.6407  -11.6094 C   0  0  0  0  0  0  0  0  0  0  0  0
    1.4917    2.8445  -11.0559 O   0  0  0  0  0  0  0  0  0  0  0  0
   -0.0908    4.4591  -10.8812 N   0  0  0  0  0  0  0  0  0  0  0  0
   -0.9931    5.3653  -11.4700 C   0  0  0  0  0  0  0  0  0  0  0  0
   -1.8196    6.1387  -10.6365 N   0  0  0  0  0  0  0  0  0  0  0  0
   -1.0804    5.5801  -12.8445 N   0  0  0  0  0  0  0  0  0  0  0  0
   -0.1924    4.7643  -13.6109 C   0  0  0  0  0  0  0  0  0  0  0  0
   -4.0671    6.3568  -13.1281 H   0  0  0  0  0  0  0  0  0  0  0  0
   -4.1859    5.4324  -15.0481 H   0  0  0  0  0  0  0  0  0  0  0  0
   -4.8756    7.0184  -15.5792 H   0  0  0  0  0  0  0  0  0  0  0  0
   -2.8740    7.8165  -16.2994 H   0  0  0  0  0  0  0  0  0  0  0  0
   -3.6893    5.5168  -17.5707 H   0  0  0  0  0  0  0  0  0  0  0  0
   -1.6243    7.4026  -17.9630 H   0  0  0  0  0  0  0  0  0  0  0  0
   -2.2419    3.9328  -16.3721 H   0  0  0  0  0  0  0  0  0  0  0  0
   -0.3167    3.6275  -17.5554 H   0  0  0  0  0  0  0  0  0  0  0  0
   -0.0165    6.0193  -16.5210 H   0  0  0  0  0  0  0  0  0  0  0  0
    1.2283    3.5229  -16.2177 H   0  0  0  0  0  0  0  0  0  0  0  0
   -0.0635    4.3989   -9.8533 H   0  0  0  0  0  0  0  0  0  0  0  0
   -2.4860    6.8071  -11.0490 H   0  0  0  0  0  0  0  0  0  0  0  0
   -1.7588    6.0371   -9.6134 H   0  0  0  0  0  0  0  0  0  0  0  0
  1  2  1  0
  3  2  1  0
  3  4  1  0
  3  5  1  0
  4  9  1  0
  5  6  1  0
  5  7  1  0
  7  8  1  0
  7  9  1  0
  9 10  1  0
 10 11  1  0
 10 20  1  0
 11 12  2  0
 12 13  1  0
 13 14  1  0
 13 20  2  0
 14 15  2  0
 14 16  1  0
 16 17  1  0
 17 18  1  0
 17 19  2  0
 19 20  1  0
  1 21  1  0
  2 22  1  0
  2 23  1  0
  3 24  1  6
  5 25  1  6
  6 26  1  0
  7 27  1  1
  8 28  1  0
  9 29  1  6
 11 30  1  0
 16 31  1  0
 18 32  1  0
 18 33  1  0
M  END
>  <filename_input>  (21) 
7W05_GMP_docked.sdf

>  <pdb_id>  (21) 
7W05_GMP

>  <pose_rank>  (21) 
20

>  <num_atoms_heavy>  (21) 
20

>  <num_torsions>  (21) 
2

>  <pose>  (21) 
[-0.05345357002410628, 4.741398481388296, -14.929210572980244, -11.28838174362021, 3.4837393705175588, 0.22267832357774778, -19.76284448780834, 1.944169793745329]

>  <energy>  (21) 
-224.6903071125403

>  <inter_energy>  (21) 
-262.3287717088255

>  <intra_energy>  (21) 
29.854718374414457

>  <rmsd>  (21) 
3.1609

>  <sdf_rank>  (21) 
0

$$$$

     RDKit          3D

 33 35  0  0  0  0  0  0  0  0999 V2000
   -2.0276    9.0885  -12.1718 O   0  0  0  0  0  0  0  0  0  0  0  0
   -2.8635    7.9691  -12.5011 C   0  0  0  0  0  0  0  0  0  0  0  0
   -2.3401    7.2341  -13.7145 C   0  0  1  0  0  0  0  0  0  0  0  0
   -0.9017    7.0187  -13.5497 O   0  0  0  0  0  0  0  0  0  0  0  0
   -2.9574    5.8528  -13.9401 C   0  0  1  0  0  0  0  0  0  0  0  0
   -3.1222    5.6125  -15.3434 O   0  0  0  0  0  0  0  0  0  0  0  0
   -1.8975    4.9091  -13.3732 C   0  0  1  0  0  0  0  0  0  0  0  0
   -1.9067    3.6173  -13.9484 O   0  0  0  0  0  0  0  0  0  0  0  0
   -0.6121    5.6576  -13.7107 C   0  0  2  0  0  0  0  0  0  0  0  0
    0.5565    5.3213  -12.8911 N   0  0  0  0  0  0  0  0  0  0  0  0
    1.3522    4.2181  -13.0084 C   0  0  0  0  0  0  0  0  0  0  0  0
    2.2998    4.2387  -12.1012 N   0  0  0  0  0  0  0  0  0  0  0  0
    2.1163    5.3661  -11.3757 C   0  0  0  0  0  0  0  0  0  0  0  0
    2.8866    5.9081  -10.2208 C   0  0  0  0  0  0  0  0  0  0  0  0
    3.8524    5.3855   -9.7097 O   0  0  0  0  0  0  0  0  0  0  0  0
    2.3840    7.1130   -9.7419 N   0  0  0  0  0  0  0  0  0  0  0  0
    1.2358    7.7414  -10.2605 C   0  0  0  0  0  0  0  0  0  0  0  0
    0.8117    8.9557   -9.6934 N   0  0  0  0  0  0  0  0  0  0  0  0
    0.5160    7.2511  -11.3489 N   0  0  0  0  0  0  0  0  0  0  0  0
    1.0290    6.0239  -11.8708 C   0  0  0  0  0  0  0  0  0  0  0  0
   -1.9636    9.1743  -11.1876 H   0  0  0  0  0  0  0  0  0  0  0  0
   -2.8900    7.2773  -11.6463 H   0  0  0  0  0  0  0  0  0  0  0  0
   -3.8726    8.3430  -12.7289 H   0  0  0  0  0  0  0  0  0  0  0  0
   -2.6014    7.8668  -14.5755 H   0  0  0  0  0  0  0  0  0  0  0  0
   -3.9475    5.7341  -13.4758 H   0  0  0  0  0  0  0  0  0  0  0  0
   -3.6772    4.8036  -15.4767 H   0  0  0  0  0  0  0  0  0  0  0  0
   -2.0502    4.7007  -12.3040 H   0  0  0  0  0  0  0  0  0  0  0  0
   -1.9116    2.9362  -13.2299 H   0  0  0  0  0  0  0  0  0  0  0  0
   -0.3236    5.3704  -14.7326 H   0  0  0  0  0  0  0  0  0  0  0  0
    1.2179    3.4241  -13.7577 H   0  0  0  0  0  0  0  0  0  0  0  0
    2.8796    7.5715   -8.9640 H   0  0  0  0  0  0  0  0  0  0  0  0
   -0.0261    9.4302  -10.0595 H   0  0  0  0  0  0  0  0  0  0  0  0
    1.3386    9.3709   -8.9119 H   0  0  0  0  0  0  0  0  0  0  0  0
  1  2  1  0
  3  2  1  0
  3  4  1  0
  3  5  1  0
  4  9  1  0
  5  6  1  0
  5  7  1  0
  7  8  1  0
  7  9  1  0
  9 10  1  0
 10 11  1  0
 10 20  1  0
 11 12  2  0
 12 13  1  0
 13 14  1  0
 13 20  2  0
 14 15  2  0
 14 16  1  0
 16 17  1  0
 17 18  1  0
 17 19  2  0
 19 20  1  0
  1 21  1  0
  2 22  1  0
  2 23  1  0
  3 24  1  6
  5 25  1  1
  6 26  1  0
  7 27  1  1
  8 28  1  0
  9 29  1  6
 11 30  1  0
 16 31  1  0
 18 32  1  0
 18 33  1  0
M  END
>  <filename_input>  (22) 
7W05_GMP_docked.sdf

>  <pdb_id>  (22) 
7W05_GMP

>  <pose_rank>  (22) 
21

>  <num_atoms_heavy>  (22) 
20

>  <num_torsions>  (22) 
2

>  <pose>  (22) 
[0.556526628646165, 5.321298017151987, -12.891114734905923, 0.13544438031894857, 0.22129157870922134, -0.16056037455432898, -13.248200995985915, 2.0054995249620644]

>  <energy>  (22) 
-759.3874770950754

>  <inter_energy>  (22) 
-777.3572887510758

>  <intra_energy>  (22) 
25.588947040016844

>  <rmsd>  (22) 
1.31419

>  <sdf_rank>  (22) 
0

$$$$

     RDKit          3D

 33 35  0  0  0  0  0  0  0  0999 V2000
   -1.4057    9.6148  -15.8920 O   0  0  0  0  0  0  0  0  0  0  0  0
   -1.2096    8.8137  -14.7172 C   0  0  0  0  0  0  0  0  0  0  0  0
   -1.3023    7.3392  -15.0391 C   0  0  1  0  0  0  0  0  0  0  0  0
   -0.0424    6.6957  -14.6638 O   0  0  0  0  0  0  0  0  0  0  0  0
   -2.4061    6.5901  -14.2904 C   0  0  1  0  0  0  0  0  0  0  0  0
   -2.9901    5.5969  -15.1429 O   0  0  0  0  0  0  0  0  0  0  0  0
   -1.6459    5.9133  -13.1505 C   0  0  1  0  0  0  0  0  0  0  0  0
   -2.2574    4.7327  -12.6689 O   0  0  0  0  0  0  0  0  0  0  0  0
   -0.3060    5.6131  -13.8146 C   0  0  2  0  0  0  0  0  0  0  0  0
    0.8312    5.4352  -12.9061 N   0  0  0  0  0  0  0  0  0  0  0  0
    1.7225    4.4011  -12.8982 C   0  0  0  0  0  0  0  0  0  0  0  0
    2.6044    4.5642  -11.9406 N   0  0  0  0  0  0  0  0  0  0  0  0
    2.2805    5.7161  -11.3086 C   0  0  0  0  0  0  0  0  0  0  0  0
    2.9264    6.3980  -10.1516 C   0  0  0  0  0  0  0  0  0  0  0  0
    3.8976    5.9969   -9.5489 O   0  0  0  0  0  0  0  0  0  0  0  0
    2.2947    7.5826   -9.7893 N   0  0  0  0  0  0  0  0  0  0  0  0
    1.1338    8.0723  -10.4176 C   0  0  0  0  0  0  0  0  0  0  0  0
    0.5735    9.2789   -9.9636 N   0  0  0  0  0  0  0  0  0  0  0  0
    0.5295    7.4505  -11.5090 N   0  0  0  0  0  0  0  0  0  0  0  0
    1.1762    6.2418  -11.9119 C   0  0  0  0  0  0  0  0  0  0  0  0
   -1.6324   10.5410  -15.6258 H   0  0  0  0  0  0  0  0  0  0  0  0
   -0.2151    9.0278  -14.2988 H   0  0  0  0  0  0  0  0  0  0  0  0
   -1.9976    9.0619  -13.9909 H   0  0  0  0  0  0  0  0  0  0  0  0
   -1.5273    7.2878  -16.1146 H   0  0  0  0  0  0  0  0  0  0  0  0
   -3.2243    7.2415  -13.9494 H   0  0  0  0  0  0  0  0  0  0  0  0
   -3.4059    4.8897  -14.5888 H   0  0  0  0  0  0  0  0  0  0  0  0
   -1.5909    6.5435  -12.2507 H   0  0  0  0  0  0  0  0  0  0  0  0
   -2.2538    4.7394  -11.6789 H   0  0  0  0  0  0  0  0  0  0  0  0
   -0.4033    4.6446  -14.3271 H   0  0  0  0  0  0  0  0  0  0  0  0
    1.7039    3.5511  -13.5961 H   0  0  0  0  0  0  0  0  0  0  0  0
    2.6987    8.1328   -9.0179 H   0  0  0  0  0  0  0  0  0  0  0  0
   -0.2756    9.6529  -10.4108 H   0  0  0  0  0  0  0  0  0  0  0  0
    1.0122    9.7891   -9.1837 H   0  0  0  0  0  0  0  0  0  0  0  0
  1  2  1  0
  3  2  1  0
  3  4  1  0
  3  5  1  0
  4  9  1  0
  5  6  1  0
  5  7  1  0
  7  8  1  0
  7  9  1  0
  9 10  1  0
 10 11  1  0
 10 20  1  0
 11 12  2  0
 12 13  1  0
 13 14  1  0
 13 20  2  0
 14 15  2  0
 14 16  1  0
 16 17  1  0
 17 18  1  0
 17 19  2  0
 19 20  1  0
  1 21  1  0
  2 22  1  0
  2 23  1  0
  3 24  1  6
  5 25  1  1
  6 26  1  0
  7 27  1  1
  8 28  1  0
  9 29  1  6
 11 30  1  0
 16 31  1  0
 18 32  1  0
 18 33  1  0
M  END
>  <filename_input>  (23) 
7W05_GMP_docked.sdf

>  <pdb_id>  (23) 
7W05_GMP

>  <pose_rank>  (23) 
22

>  <num_atoms_heavy>  (23) 
20

>  <num_torsions>  (23) 
2

>  <pose>  (23) 
[0.8312211583383272, 5.435215790106597, -12.90607565759596, 0.06290065450047155, 0.1594826046783436, -0.07795902813484046, -12.349697449384008, 3.295599345544209]

>  <energy>  (23) 
-839.5842470418842

>  <inter_energy>  (23) 
-858.9270991243603

>  <intra_energy>  (23) 
11.060102282939674

>  <rmsd>  (23) 
0.993078

>  <sdf_rank>  (23) 
0

$$$$

     RDKit          3D

 33 35  0  0  0  0  0  0  0  0999 V2000
   -3.0155    6.9439  -12.7748 O   0  0  0  0  0  0  0  0  0  0  0  0
   -2.9320    6.1695  -13.9804 C   0  0  0  0  0  0  0  0  0  0  0  0
   -1.7278    6.5676  -14.8037 C   0  0  1  0  0  0  0  0  0  0  0  0
   -0.5957    6.7917  -13.9035 O   0  0  0  0  0  0  0  0  0  0  0  0
   -1.2696    5.5157  -15.8153 C   0  0  1  0  0  0  0  0  0  0  0  0
   -0.8111    6.1544  -17.0136 O   0  0  0  0  0  0  0  0  0  0  0  0
   -0.0953    4.8461  -15.1025 C   0  0  1  0  0  0  0  0  0  0  0  0
    0.8611    4.2761  -15.9743 O   0  0  0  0  0  0  0  0  0  0  0  0
    0.4937    6.0165  -14.3215 C   0  0  2  0  0  0  0  0  0  0  0  0
    1.3001    5.6607  -13.1495 N   0  0  0  0  0  0  0  0  0  0  0  0
    2.0378    4.5254  -12.9738 C   0  0  0  0  0  0  0  0  0  0  0  0
    2.6229    4.5370  -11.7996 N   0  0  0  0  0  0  0  0  0  0  0  0
    2.2563    5.6913  -11.1961 C   0  0  0  0  0  0  0  0  0  0  0  0
    2.6148    6.2376   -9.8567 C   0  0  0  0  0  0  0  0  0  0  0  0
    3.3263    5.6943   -9.0408 O   0  0  0  0  0  0  0  0  0  0  0  0
    2.0350    7.4741   -9.5943 N   0  0  0  0  0  0  0  0  0  0  0  0
    1.1593    8.1296  -10.4807 C   0  0  0  0  0  0  0  0  0  0  0  0
    0.6239    9.3752  -10.1090 N   0  0  0  0  0  0  0  0  0  0  0  0
    0.8282    7.6350  -11.7411 N   0  0  0  0  0  0  0  0  0  0  0  0
    1.4312    6.3747  -12.0400 C   0  0  0  0  0  0  0  0  0  0  0  0
   -2.9507    6.3425  -11.9911 H   0  0  0  0  0  0  0  0  0  0  0  0
   -2.8509    5.1044  -13.7178 H   0  0  0  0  0  0  0  0  0  0  0  0
   -3.8379    6.3541  -14.5764 H   0  0  0  0  0  0  0  0  0  0  0  0
   -2.0382    7.4627  -15.3627 H   0  0  0  0  0  0  0  0  0  0  0  0
   -2.0647    4.8148  -16.1094 H   0  0  0  0  0  0  0  0  0  0  0  0
   -0.2505    6.9354  -16.7774 H   0  0  0  0  0  0  0  0  0  0  0  0
   -0.4100    3.9874  -14.4913 H   0  0  0  0  0  0  0  0  0  0  0  0
    1.5786    3.8484  -15.4428 H   0  0  0  0  0  0  0  0  0  0  0  0
    1.1945    6.5378  -14.9901 H   0  0  0  0  0  0  0  0  0  0  0  0
    2.1287    3.7154  -13.7124 H   0  0  0  0  0  0  0  0  0  0  0  0
    2.2588    7.9362   -8.7015 H   0  0  0  0  0  0  0  0  0  0  0  0
   -0.0184    9.8699  -10.7443 H   0  0  0  0  0  0  0  0  0  0  0  0
    0.8740    9.7930   -9.2014 H   0  0  0  0  0  0  0  0  0  0  0  0
  1  2  1  0
  3  2  1  0
  3  4  1  0
  3  5  1  0
  4  9  1  0
  5  6  1  0
  5  7  1  0
  7  8  1  0
  7  9  1  0
  9 10  1  0
 10 11  1  0
 10 20  1  0
 11 12  2  0
 12 13  1  0
 13 14  1  0
 13 20  2  0
 14 15  2  0
 14 16  1  0
 16 17  1  0
 17 18  1  0
 17 19  2  0
 19 20  1  0
  1 21  1  0
  2 22  1  0
  2 23  1  0
  3 24  1  6
  5 25  1  6
  6 26  1  0
  7 27  1  1
  8 28  1  0
  9 29  1  6
 11 30  1  0
 16 31  1  0
 18 32  1  0
 18 33  1  0
M  END
>  <filename_input>  (24) 
7W05_GMP_docked.sdf

>  <pdb_id>  (24) 
7W05_GMP

>  <pose_rank>  (24) 
23

>  <num_atoms_heavy>  (24) 
20

>  <num_torsions>  (24) 
2

>  <pose>  (24) 
[1.3000610081018675, 5.660687565671311, -13.14950982341437, 0.14321344719787096, -0.12751139647856824, -0.1788999597053021, -14.095438611353375, 1.8896664596024737]

>  <energy>  (24) 
-785.3930091933113

>  <inter_energy>  (24) 
-796.7302960373597

>  <intra_energy>  (24) 
22.162631814888364

>  <rmsd>  (24) 
1.43479

>  <sdf_rank>  (24) 
0

$$$$

     RDKit          3D

 33 35  0  0  0  0  0  0  0  0999 V2000
   -0.4204    9.0655  -13.7562 O   0  0  0  0  0  0  0  0  0  0  0  0
   -1.5943    8.4812  -14.3401 C   0  0  0  0  0  0  0  0  0  0  0  0
   -1.2744    7.1629  -15.0081 C   0  0  1  0  0  0  0  0  0  0  0  0
    0.0678    6.7434  -14.6023 O   0  0  0  0  0  0  0  0  0  0  0  0
   -2.2135    6.0140  -14.6364 C   0  0  1  0  0  0  0  0  0  0  0  0
   -2.4403    5.1771  -15.7775 O   0  0  0  0  0  0  0  0  0  0  0  0
   -1.4146    5.2485  -13.5822 C   0  0  1  0  0  0  0  0  0  0  0  0
   -1.7443    3.8763  -13.4910 O   0  0  0  0  0  0  0  0  0  0  0  0
    0.0133    5.4442  -14.0813 C   0  0  2  0  0  0  0  0  0  0  0  0
    1.0682    5.2925  -13.0740 N   0  0  0  0  0  0  0  0  0  0  0  0
    2.0311    4.3255  -13.0319 C   0  0  0  0  0  0  0  0  0  0  0  0
    2.8016    4.4923  -11.9832 N   0  0  0  0  0  0  0  0  0  0  0  0
    2.3313    5.5779  -11.3263 C   0  0  0  0  0  0  0  0  0  0  0  0
    2.8088    6.2324  -10.0756 C   0  0  0  0  0  0  0  0  0  0  0  0
    3.7454    5.8653   -9.4007 O   0  0  0  0  0  0  0  0  0  0  0  0
    2.0565    7.3451   -9.7158 N   0  0  0  0  0  0  0  0  0  0  0  0
    0.9273    7.7885  -10.4304 C   0  0  0  0  0  0  0  0  0  0  0  0
    0.2354    8.9226   -9.9712 N   0  0  0  0  0  0  0  0  0  0  0  0
    0.4802    7.1928  -11.6086 N   0  0  0  0  0  0  0  0  0  0  0  0
    1.2532    6.0597  -12.0086 C   0  0  0  0  0  0  0  0  0  0  0  0
   -0.4905    9.0306  -12.7693 H   0  0  0  0  0  0  0  0  0  0  0  0
   -2.3412    8.3115  -13.5506 H   0  0  0  0  0  0  0  0  0  0  0  0
   -1.9851    9.1719  -15.1018 H   0  0  0  0  0  0  0  0  0  0  0  0
   -1.3772    7.3489  -16.0874 H   0  0  0  0  0  0  0  0  0  0  0  0
   -3.1997    6.3505  -14.2841 H   0  0  0  0  0  0  0  0  0  0  0  0
   -2.6871    4.2672  -15.4755 H   0  0  0  0  0  0  0  0  0  0  0  0
   -1.6077    5.6135  -12.5627 H   0  0  0  0  0  0  0  0  0  0  0  0
   -1.8071    3.6147  -12.5383 H   0  0  0  0  0  0  0  0  0  0  0  0
    0.2165    4.6498  -14.8147 H   0  0  0  0  0  0  0  0  0  0  0  0
    2.1447    3.5203  -13.7726 H   0  0  0  0  0  0  0  0  0  0  0  0
    2.3412    7.8747   -8.8795 H   0  0  0  0  0  0  0  0  0  0  0  0
   -0.5929    9.2620  -10.4808 H   0  0  0  0  0  0  0  0  0  0  0  0
    0.5567    9.4143   -9.1250 H   0  0  0  0  0  0  0  0  0  0  0  0
  1  2  1  0
  3  2  1  0
  3  4  1  0
  3  5  1  0
  4  9  1  0
  5  6  1  0
  5  7  1  0
  7  8  1  0
  7  9  1  0
  9 10  1  0
 10 11  1  0
 10 20  1  0
 11 12  2  0
 12 13  1  0
 13 14  1  0
 13 20  2  0
 14 15  2  0
 14 16  1  0
 16 17  1  0
 17 18  1  0
 17 19  2  0
 19 20  1  0
  1 21  1  0
  2 22  1  0
  2 23  1  0
  3 24  1  6
  5 25  1  1
  6 26  1  0
  7 27  1  1
  8 28  1  0
  9 29  1  6
 11 30  1  0
 16 31  1  0
 18 32  1  0
 18 33  1  0
M  END
>  <filename_input>  (25) 
7W05_GMP_docked.sdf

>  <pdb_id>  (25) 
7W05_GMP

>  <pose_rank>  (25) 
24

>  <num_atoms_heavy>  (25) 
20

>  <num_torsions>  (25) 
2

>  <pose>  (25) 
[1.0681596252805008, 5.292491487486637, -13.073978008923364, 0.11762773979248652, 0.06538959856634069, 0.003505569018932987, -12.61406453425129, 1.3974915825099936]

>  <energy>  (25) 
-836.5638176484024

>  <inter_energy>  (25) 
-844.4546771302383

>  <intra_energy>  (25) 
17.371378407430367

>  <rmsd>  (25) 
0.534259

>  <sdf_rank>  (25) 
0

$$$$

     RDKit          3D

 33 35  0  0  0  0  0  0  0  0999 V2000
   -1.3100    8.2120  -13.5160 O   0  0  0  0  0  0  0  0  0  0  0  0
   -1.0840    8.1480  -14.9320 C   0  0  0  0  0  0  0  0  0  0  0  0
   -0.7810    6.7340  -15.3740 C   0  0  1  0  0  0  0  0  0  0  0  0
    0.5160    6.3370  -14.8240 O   0  0  0  0  0  0  0  0  0  0  0  0
   -1.7880    5.6860  -14.8970 C   0  0  1  0  0  0  0  0  0  0  0  0
   -1.9820    4.6940  -15.9130 O   0  0  0  0  0  0  0  0  0  0  0  0
   -1.0860    5.0630  -13.6910 C   0  0  1  0  0  0  0  0  0  0  0  0
   -1.4780    3.7320  -13.4180 O   0  0  0  0  0  0  0  0  0  0  0  0
    0.3760    5.1340  -14.1200 C   0  0  2  0  0  0  0  0  0  0  0  0
    1.3620    5.1020  -13.0350 N   0  0  0  0  0  0  0  0  0  0  0  0
    2.3130    4.1470  -12.8170 C   0  0  0  0  0  0  0  0  0  0  0  0
    3.0150    4.4360  -11.7470 N   0  0  0  0  0  0  0  0  0  0  0  0
    2.5110    5.5910  -11.2540 C   0  0  0  0  0  0  0  0  0  0  0  0
    2.9110    6.3880  -10.0600 C   0  0  0  0  0  0  0  0  0  0  0  0
    3.7990    6.1030   -9.2870 O   0  0  0  0  0  0  0  0  0  0  0  0
    2.1450    7.5350   -9.8830 N   0  0  0  0  0  0  0  0  0  0  0  0
    1.0680    7.8910  -10.7170 C   0  0  0  0  0  0  0  0  0  0  0  0
    0.3560    9.0710  -10.4400 N   0  0  0  0  0  0  0  0  0  0  0  0
    0.6940    7.1610  -11.8440 N   0  0  0  0  0  0  0  0  0  0  0  0
    1.4830    5.9890  -12.0570 C   0  0  0  0  0  0  0  0  0  0  0  0
   -0.4760    7.9758  -13.0377 H   0  0  0  0  0  0  0  0  0  0  0  0
   -1.9842    8.5024  -15.4554 H   0  0  0  0  0  0  0  0  0  0  0  0
   -0.2188    8.7821  -15.1757 H   0  0  0  0  0  0  0  0  0  0  0  0
   -0.8118    6.7578  -16.4733 H   0  0  0  0  0  0  0  0  0  0  0  0
   -2.7783    6.1041  -14.6635 H   0  0  0  0  0  0  0  0  0  0  0  0
   -2.1537    3.8162  -15.4886 H   0  0  0  0  0  0  0  0  0  0  0  0
   -1.3235    5.5842  -12.7519 H   0  0  0  0  0  0  0  0  0  0  0  0
   -1.5186    3.5942  -12.4385 H   0  0  0  0  0  0  0  0  0  0  0  0
    0.5886    4.2316  -14.7121 H   0  0  0  0  0  0  0  0  0  0  0  0
    2.4687    3.2604  -13.4492 H   0  0  0  0  0  0  0  0  0  0  0  0
    2.3786    8.1592   -9.0977 H   0  0  0  0  0  0  0  0  0  0  0  0
   -0.4349    9.3479  -11.0389 H   0  0  0  0  0  0  0  0  0  0  0  0
    0.6252    9.6587   -9.6381 H   0  0  0  0  0  0  0  0  0  0  0  0
  1  2  1  0
  3  2  1  0
  3  4  1  0
  3  5  1  0
  4  9  1  0
  5  6  1  0
  5  7  1  0
  7  8  1  0
  7  9  1  0
  9 10  1  0
 10 11  1  0
 10 20  1  0
 11 12  2  0
 12 13  1  0
 13 14  1  0
 13 20  2  0
 14 15  2  0
 14 16  1  0
 16 17  1  0
 17 18  1  0
 17 19  2  0
 19 20  1  0
  1 21  1  0
  2 22  1  0
  2 23  1  0
  3 24  1  6
  5 25  1  1
  6 26  1  0
  7 27  1  1
  8 28  1  0
  9 29  1  6
 11 30  1  0
 16 31  1  0
 18 32  1  0
 18 33  1  0
M  END
>  <filename_input>  (26) 
7W05_GMP_docked.sdf

>  <pdb_id>  (26) 
7W05_GMP

>  <pose_rank>  (26) 
25

>  <num_atoms_heavy>  (26) 
20

>  <num_torsions>  (26) 
2

>  <pose>  (26) 
[1.362, 5.102, -13.035, 1e-06, 1e-06, 1e-06, 0.0, 0.0]

>  <energy>  (26) 
-758.7680501093454

>  <inter_energy>  (26) 
-790.1632034364883

>  <intra_energy>  (26) 
29.289102449673948

>  <rmsd>  (26) 
0.0

>  <sdf_rank>  (26) 
0

$$$$
