
     RDKit          3D

 13 12  0  0  0  0  0  0  0  0999 V2000
  -20.4251   15.7105   28.8927 C   0  0  0  0  0  0  0  0  0  0  0  0
  -21.3940   16.5664   28.0843 C   0  0  0  0  0  0  0  0  0  0  0  0
  -20.6326   17.4269   27.0717 C   0  0  0  0  0  0  0  0  0  0  0  0
  -19.4450   18.2494   27.5205 C   0  0  0  0  0  0  0  0  0  0  0  0
  -18.3327   18.1101   26.9304 O   0  0  0  0  0  0  0  0  0  0  0  0
  -19.5704   19.0577   28.4933 O   0  0  0  0  0  0  0  0  0  0  0  0
  -21.0434   17.4682   25.8160 C   0  0  0  0  0  0  0  0  0  0  0  0
  -20.1491   16.0026   30.0814 O   0  0  0  0  0  0  0  0  0  0  0  0
  -19.9113   14.7141   28.3323 O   0  0  0  0  0  0  0  0  0  0  0  0
  -22.0951   15.9106   27.5473 H   0  0  0  0  0  0  0  0  0  0  0  0
  -21.9432   17.2272   28.7710 H   0  0  0  0  0  0  0  0  0  0  0  0
  -20.5037   18.0831   25.0807 H   0  0  0  0  0  0  0  0  0  0  0  0
  -21.9249   16.8877   25.5064 H   0  0  0  0  0  0  0  0  0  0  0  0
  1  2  1  0
  1  8  2  0
  1  9  1  0
  2  3  1  0
  3  4  1  0
  3  7  2  0
  4  5  1  0
  4  6  2  0
  2 10  1  0
  2 11  1  0
  7 12  1  0
  7 13  1  0
M  CHG  2   5  -1   9  -1
M  END
>  <filename_input>  (1) 
7W06_ITN_docked.sdf

>  <pdb_id>  (1) 
7W06_ITN

>  <pose_rank>  (1) 
0

>  <num_atoms_heavy>  (1) 
9

>  <num_torsions>  (1) 
3

>  <pose>  (1) 
[-20.632573098664384, 17.426938404166744, 27.071731311271638, -3.708181023532557, 0.291907386122655, -4.942167947652926, 2.345840723274588, -18.75899406573525, -10.133488130098023]

>  <energy>  (1) 
-481.83906637917227

>  <inter_energy>  (1) 
-467.10098781861575

>  <intra_energy>  (1) 
0.8900763652076331

>  <rmsd>  (1) 
0.56173

>  <sdf_rank>  (1) 
0

$$$$

     RDKit          3D

 13 12  0  0  0  0  0  0  0  0999 V2000
  -19.0246   18.3113   27.4229 C   0  0  0  0  0  0  0  0  0  0  0  0
  -19.1873   16.8574   27.8525 C   0  0  0  0  0  0  0  0  0  0  0  0
  -20.6635   16.5333   28.0999 C   0  0  0  0  0  0  0  0  0  0  0  0
  -21.0999   15.9671   29.4329 C   0  0  0  0  0  0  0  0  0  0  0  0
  -21.4114   16.7571   30.3729 O   0  0  0  0  0  0  0  0  0  0  0  0
  -21.1337   14.7077   29.6014 O   0  0  0  0  0  0  0  0  0  0  0  0
  -21.5409   16.7217   27.1294 C   0  0  0  0  0  0  0  0  0  0  0  0
  -18.1359   18.6419   26.6011 O   0  0  0  0  0  0  0  0  0  0  0  0
  -19.7996   19.1620   27.9193 O   0  0  0  0  0  0  0  0  0  0  0  0
  -18.8003   16.2002   27.0599 H   0  0  0  0  0  0  0  0  0  0  0  0
  -18.6266   16.6971   28.7852 H   0  0  0  0  0  0  0  0  0  0  0  0
  -22.6036   16.4921   27.2966 H   0  0  0  0  0  0  0  0  0  0  0  0
  -21.2084   17.1080   26.1546 H   0  0  0  0  0  0  0  0  0  0  0  0
  1  2  1  0
  1  8  2  0
  1  9  1  0
  2  3  1  0
  3  4  1  0
  3  7  2  0
  4  5  1  0
  4  6  2  0
  2 10  1  0
  2 11  1  0
  7 12  1  0
  7 13  1  0
M  CHG  2   5  -1   9  -1
M  END
>  <filename_input>  (2) 
7W06_ITN_docked.sdf

>  <pdb_id>  (2) 
7W06_ITN

>  <pose_rank>  (2) 
1

>  <num_atoms_heavy>  (2) 
9

>  <num_torsions>  (2) 
3

>  <pose>  (2) 
[-20.66348295245079, 16.533331113570195, 28.099903580067064, -1.745195656869173, 0.1494746266387267, -2.935672385264271, 7.983586886243564, -13.785303533094565, -1.9416335008453305]

>  <energy>  (2) 
-448.8946758046864

>  <inter_energy>  (2) 
-435.8859980743249

>  <intra_energy>  (2) 
7.493653448682906

>  <rmsd>  (2) 
3.49813

>  <sdf_rank>  (2) 
0

$$$$

     RDKit          3D

 13 12  0  0  0  0  0  0  0  0999 V2000
  -20.1873   16.2197   29.4115 C   0  0  0  0  0  0  0  0  0  0  0  0
  -19.6612   16.5464   28.0181 C   0  0  0  0  0  0  0  0  0  0  0  0
  -20.6970   17.3529   27.2294 C   0  0  0  0  0  0  0  0  0  0  0  0
  -21.1198   18.7213   27.7162 C   0  0  0  0  0  0  0  0  0  0  0  0
  -22.3482   18.9593   27.9144 O   0  0  0  0  0  0  0  0  0  0  0  0
  -20.2424   19.6212   27.9051 O   0  0  0  0  0  0  0  0  0  0  0  0
  -21.2384   16.8284   26.1436 C   0  0  0  0  0  0  0  0  0  0  0  0
  -21.1090   15.3831   29.5694 O   0  0  0  0  0  0  0  0  0  0  0  0
  -19.6760   16.8155   30.3884 O   0  0  0  0  0  0  0  0  0  0  0  0
  -18.7367   17.1354   28.1092 H   0  0  0  0  0  0  0  0  0  0  0  0
  -19.4606   15.6060   27.4840 H   0  0  0  0  0  0  0  0  0  0  0  0
  -21.9833   17.3992   25.5697 H   0  0  0  0  0  0  0  0  0  0  0  0
  -20.9440   15.8211   25.8138 H   0  0  0  0  0  0  0  0  0  0  0  0
  1  2  1  0
  1  8  2  0
  1  9  1  0
  2  3  1  0
  3  4  1  0
  3  7  2  0
  4  5  1  0
  4  6  2  0
  2 10  1  0
  2 11  1  0
  7 12  1  0
  7 13  1  0
M  CHG  2   5  -1   9  -1
M  END
>  <filename_input>  (3) 
7W06_ITN_docked.sdf

>  <pdb_id>  (3) 
7W06_ITN

>  <pose_rank>  (3) 
2

>  <num_atoms_heavy>  (3) 
9

>  <num_torsions>  (3) 
3

>  <pose>  (3) 
[-20.697008947922853, 17.35293028826824, 27.229404795982322, -0.7186899447910381, -1.2904536237742206, -4.537953037344038, -2.0181786544744904, 2.051290768017487, 1.8439911927564376]

>  <energy>  (3) 
-381.79876656017524

>  <inter_energy>  (3) 
-370.32810985580096

>  <intra_energy>  (3) 
0.006193851535715537

>  <rmsd>  (3) 
1.85364

>  <sdf_rank>  (3) 
0

$$$$

     RDKit          3D

 13 12  0  0  0  0  0  0  0  0999 V2000
  -19.2986   18.6365   28.4692 C   0  0  0  0  0  0  0  0  0  0  0  0
  -20.6451   18.5529   27.7587 C   0  0  0  0  0  0  0  0  0  0  0  0
  -20.7137   17.2963   26.8859 C   0  0  0  0  0  0  0  0  0  0  0  0
  -20.6199   15.9276   27.5229 C   0  0  0  0  0  0  0  0  0  0  0  0
  -19.8382   15.7497   28.5037 O   0  0  0  0  0  0  0  0  0  0  0  0
  -21.3121   14.9681   27.0583 O   0  0  0  0  0  0  0  0  0  0  0  0
  -20.8214   17.4219   25.5745 C   0  0  0  0  0  0  0  0  0  0  0  0
  -18.2354   18.7678   27.8159 O   0  0  0  0  0  0  0  0  0  0  0  0
  -19.2877   18.5640   29.7204 O   0  0  0  0  0  0  0  0  0  0  0  0
  -21.4487   18.5169   28.5090 H   0  0  0  0  0  0  0  0  0  0  0  0
  -20.7646   19.4386   27.1174 H   0  0  0  0  0  0  0  0  0  0  0  0
  -20.8714   16.5259   24.9384 H   0  0  0  0  0  0  0  0  0  0  0  0
  -20.8609   18.4225   25.1192 H   0  0  0  0  0  0  0  0  0  0  0  0
  1  2  1  0
  1  8  2  0
  1  9  1  0
  2  3  1  0
  3  4  1  0
  3  7  2  0
  4  5  1  0
  4  6  2  0
  2 10  1  0
  2 11  1  0
  7 12  1  0
  7 13  1  0
M  CHG  2   5  -1   9  -1
M  END
>  <filename_input>  (4) 
7W06_ITN_docked.sdf

>  <pdb_id>  (4) 
7W06_ITN

>  <pose_rank>  (4) 
3

>  <num_atoms_heavy>  (4) 
9

>  <num_torsions>  (4) 
3

>  <pose>  (4) 
[-20.71368710424272, 17.296345506327544, 26.88590935297546, 0.7192827590702404, 0.06780362981756968, 4.067293922789858, 5.78713645620628, 2.044824938449353, -4.5630164427467275]

>  <energy>  (4) 
-358.76750195948915

>  <inter_energy>  (4) 
-371.5384707395593

>  <intra_energy>  (4) 
15.622902820354348

>  <rmsd>  (4) 
2.94826

>  <sdf_rank>  (4) 
0

$$$$

     RDKit          3D

 13 12  0  0  0  0  0  0  0  0999 V2000
  -20.2818   15.5995   29.4503 C   0  0  0  0  0  0  0  0  0  0  0  0
  -20.7046   15.6009   27.9853 C   0  0  0  0  0  0  0  0  0  0  0  0
  -20.7962   17.0347   27.4551 C   0  0  0  0  0  0  0  0  0  0  0  0
  -20.6374   17.3049   25.9752 C   0  0  0  0  0  0  0  0  0  0  0  0
  -19.6079   17.9159   25.5609 O   0  0  0  0  0  0  0  0  0  0  0  0
  -21.5441   16.9320   25.1663 O   0  0  0  0  0  0  0  0  0  0  0  0
  -20.9809   18.0304   28.3046 C   0  0  0  0  0  0  0  0  0  0  0  0
  -21.1391   15.6400   30.3656 O   0  0  0  0  0  0  0  0  0  0  0  0
  -19.0561   15.5629   29.7091 O   0  0  0  0  0  0  0  0  0  0  0  0
  -19.9636   15.0429   27.3941 H   0  0  0  0  0  0  0  0  0  0  0  0
  -21.6932   15.1261   27.8998 H   0  0  0  0  0  0  0  0  0  0  0  0
  -21.0481   19.0640   27.9342 H   0  0  0  0  0  0  0  0  0  0  0  0
  -21.0675   17.8255   29.3818 H   0  0  0  0  0  0  0  0  0  0  0  0
  1  2  1  0
  1  8  2  0
  1  9  1  0
  2  3  1  0
  3  4  1  0
  3  7  2  0
  4  5  1  0
  4  6  2  0
  2 10  1  0
  2 11  1  0
  7 12  1  0
  7 13  1  0
M  CHG  2   5  -1   9  -1
M  END
>  <filename_input>  (5) 
7W06_ITN_docked.sdf

>  <pdb_id>  (5) 
7W06_ITN

>  <pose_rank>  (5) 
4

>  <num_atoms_heavy>  (5) 
9

>  <num_torsions>  (5) 
3

>  <pose>  (5) 
[-20.796163947505306, 17.034701304754773, 27.455063342393615, -1.4751749555371103, -3.220809210147789, 1.68532839091727, -1.7807511131701785, 3.6635673176544117, -4.107455062075826]

>  <energy>  (5) 
-414.9429990512532

>  <inter_energy>  (5) 
-408.2668431292545

>  <intra_energy>  (5) 
6.666002364360821

>  <rmsd>  (5) 
2.15029

>  <sdf_rank>  (5) 
0

$$$$

     RDKit          3D

 13 12  0  0  0  0  0  0  0  0999 V2000
  -20.1640   15.6733   29.7010 C   0  0  0  0  0  0  0  0  0  0  0  0
  -20.4118   17.0633   29.1253 C   0  0  0  0  0  0  0  0  0  0  0  0
  -20.3540   17.0280   27.5953 C   0  0  0  0  0  0  0  0  0  0  0  0
  -21.5957   17.3273   26.7849 C   0  0  0  0  0  0  0  0  0  0  0  0
  -22.3620   16.3771   26.4463 O   0  0  0  0  0  0  0  0  0  0  0  0
  -21.8482   18.5238   26.4384 O   0  0  0  0  0  0  0  0  0  0  0  0
  -19.2219   16.7022   26.9958 C   0  0  0  0  0  0  0  0  0  0  0  0
  -19.0563   15.3783   30.2113 O   0  0  0  0  0  0  0  0  0  0  0  0
  -21.0960   14.8374   29.6428 O   0  0  0  0  0  0  0  0  0  0  0  0
  -21.4049   17.4146   29.4420 H   0  0  0  0  0  0  0  0  0  0  0  0
  -19.6324   17.7458   29.4952 H   0  0  0  0  0  0  0  0  0  0  0  0
  -19.1695   16.6738   25.8974 H   0  0  0  0  0  0  0  0  0  0  0  0
  -18.3321   16.4595   27.5953 H   0  0  0  0  0  0  0  0  0  0  0  0
  1  2  1  0
  1  8  2  0
  1  9  1  0
  2  3  1  0
  3  4  1  0
  3  7  2  0
  4  5  1  0
  4  6  2  0
  2 10  1  0
  2 11  1  0
  7 12  1  0
  7 13  1  0
M  CHG  2   5  -1   9  -1
M  END
>  <filename_input>  (6) 
7W06_ITN_docked.sdf

>  <pdb_id>  (6) 
7W06_ITN

>  <pose_rank>  (6) 
5

>  <num_atoms_heavy>  (6) 
9

>  <num_torsions>  (6) 
3

>  <pose>  (6) 
[-20.35397359655055, 17.02801032080333, 27.595288184553286, -1.009582398027908, -0.3424002653500725, 2.21270866601113, -1.4349095679474335, -22.17178950541117, 2.4090314326219375]

>  <energy>  (6) 
-348.6204034177864

>  <inter_energy>  (6) 
-324.91609917593723

>  <intra_energy>  (6) 
0.4223803189709982

>  <rmsd>  (6) 
2.37522

>  <sdf_rank>  (6) 
0

$$$$

     RDKit          3D

 13 12  0  0  0  0  0  0  0  0999 V2000
  -21.0216   16.8398   29.0376 C   0  0  0  0  0  0  0  0  0  0  0  0
  -21.3637   16.2523   27.6728 C   0  0  0  0  0  0  0  0  0  0  0  0
  -20.5615   16.9517   26.5716 C   0  0  0  0  0  0  0  0  0  0  0  0
  -19.2781   17.6750   26.9148 C   0  0  0  0  0  0  0  0  0  0  0  0
  -19.0704   18.8322   26.4430 O   0  0  0  0  0  0  0  0  0  0  0  0
  -18.4158   17.1092   27.6576 O   0  0  0  0  0  0  0  0  0  0  0  0
  -21.0185   16.9445   25.3313 C   0  0  0  0  0  0  0  0  0  0  0  0
  -20.7420   16.0926   30.0061 O   0  0  0  0  0  0  0  0  0  0  0  0
  -21.0345   18.0869   29.1616 O   0  0  0  0  0  0  0  0  0  0  0  0
  -21.1229   15.1790   27.6700 H   0  0  0  0  0  0  0  0  0  0  0  0
  -22.4366   16.4006   27.4804 H   0  0  0  0  0  0  0  0  0  0  0  0
  -20.4502   17.4439   24.5328 H   0  0  0  0  0  0  0  0  0  0  0  0
  -21.9672   16.4390   25.0977 H   0  0  0  0  0  0  0  0  0  0  0  0
  1  2  1  0
  1  8  2  0
  1  9  1  0
  2  3  1  0
  3  4  1  0
  3  7  2  0
  4  5  1  0
  4  6  2  0
  2 10  1  0
  2 11  1  0
  7 12  1  0
  7 13  1  0
M  CHG  2   5  -1   9  -1
M  END
>  <filename_input>  (7) 
7W06_ITN_docked.sdf

>  <pdb_id>  (7) 
7W06_ITN

>  <pose_rank>  (7) 
6

>  <num_atoms_heavy>  (7) 
9

>  <num_torsions>  (7) 
3

>  <pose>  (7) 
[-20.56154868821808, 16.951741148069804, 26.571629766476455, 2.084561508722722, -4.571859862518326, 3.6956417975079248, -8.46729077752333, 20.188744511619458, -1.6897052267512362]

>  <energy>  (7) 
-328.74396233380827

>  <inter_energy>  (7) 
-345.47334655111194

>  <intra_energy>  (7) 
29.27011126284235

>  <rmsd>  (7) 
1.5112

>  <sdf_rank>  (7) 
0

$$$$

     RDKit          3D

 13 12  0  0  0  0  0  0  0  0999 V2000
  -20.7427   17.8420   26.2849 C   0  0  0  0  0  0  0  0  0  0  0  0
  -21.1853   16.5661   26.9928 C   0  0  0  0  0  0  0  0  0  0  0  0
  -20.5179   16.4561   28.3668 C   0  0  0  0  0  0  0  0  0  0  0  0
  -20.9615   15.3856   29.3390 C   0  0  0  0  0  0  0  0  0  0  0  0
  -20.5517   14.1968   29.1854 O   0  0  0  0  0  0  0  0  0  0  0  0
  -21.7521   15.6854   30.2880 O   0  0  0  0  0  0  0  0  0  0  0  0
  -19.5789   17.3233   28.7036 C   0  0  0  0  0  0  0  0  0  0  0  0
  -19.9569   17.7942   25.3079 O   0  0  0  0  0  0  0  0  0  0  0  0
  -21.1823   18.9350   26.7123 O   0  0  0  0  0  0  0  0  0  0  0  0
  -22.2776   16.5836   27.1212 H   0  0  0  0  0  0  0  0  0  0  0  0
  -20.8891   15.6998   26.3830 H   0  0  0  0  0  0  0  0  0  0  0  0
  -19.0931   17.2533   29.6881 H   0  0  0  0  0  0  0  0  0  0  0  0
  -19.2832   18.1151   27.9995 H   0  0  0  0  0  0  0  0  0  0  0  0
  1  2  1  0
  1  8  2  0
  1  9  1  0
  2  3  1  0
  3  4  1  0
  3  7  2  0
  4  5  1  0
  4  6  2  0
  2 10  1  0
  2 11  1  0
  7 12  1  0
  7 13  1  0
M  CHG  2   5  -1   9  -1
M  END
>  <filename_input>  (8) 
7W06_ITN_docked.sdf

>  <pdb_id>  (8) 
7W06_ITN

>  <pose_rank>  (8) 
7

>  <num_atoms_heavy>  (8) 
9

>  <num_torsions>  (8) 
3

>  <pose>  (8) 
[-20.51787949285184, 16.4561208098613, 28.366765942314473, -2.8957717946026538, 2.960781991986348, 0.8500557779475514, 7.816264726093516, -14.913448093250036, -3.802692529017089]

>  <energy>  (8) 
-352.44838750889147

>  <inter_energy>  (8) 
-364.6170480372032

>  <intra_energy>  (8) 
10.69874628939908

>  <rmsd>  (8) 
3.78126

>  <sdf_rank>  (8) 
0

$$$$

     RDKit          3D

 13 12  0  0  0  0  0  0  0  0999 V2000
  -21.1060   17.2622   25.9974 C   0  0  0  0  0  0  0  0  0  0  0  0
  -20.2873   17.3822   27.2782 C   0  0  0  0  0  0  0  0  0  0  0  0
  -20.5432   16.1807   28.1926 C   0  0  0  0  0  0  0  0  0  0  0  0
  -21.4106   16.3376   29.4219 C   0  0  0  0  0  0  0  0  0  0  0  0
  -22.3269   17.2122   29.4296 O   0  0  0  0  0  0  0  0  0  0  0  0
  -21.2010   15.6036   30.4382 O   0  0  0  0  0  0  0  0  0  0  0  0
  -19.9734   15.0207   27.9151 C   0  0  0  0  0  0  0  0  0  0  0  0
  -22.2513   16.7498   26.0136 O   0  0  0  0  0  0  0  0  0  0  0  0
  -20.5979   17.6842   24.9323 O   0  0  0  0  0  0  0  0  0  0  0  0
  -19.2182   17.4212   27.0222 H   0  0  0  0  0  0  0  0  0  0  0  0
  -20.5845   18.3006   27.8057 H   0  0  0  0  0  0  0  0  0  0  0  0
  -20.1506   14.1514   28.5654 H   0  0  0  0  0  0  0  0  0  0  0  0
  -19.3221   14.9247   27.0338 H   0  0  0  0  0  0  0  0  0  0  0  0
  1  2  1  0
  1  8  2  0
  1  9  1  0
  2  3  1  0
  3  4  1  0
  3  7  2  0
  4  5  1  0
  4  6  2  0
  2 10  1  0
  2 11  1  0
  7 12  1  0
  7 13  1  0
M  CHG  2   5  -1   9  -1
M  END
>  <filename_input>  (9) 
7W06_ITN_docked.sdf

>  <pdb_id>  (9) 
7W06_ITN

>  <pose_rank>  (9) 
8

>  <num_atoms_heavy>  (9) 
9

>  <num_torsions>  (9) 
3

>  <pose>  (9) 
[-20.543180897645183, 16.18069209484864, 28.192627993115554, -0.24720449449421464, -1.8617950128125915, -1.960451087190236, 0.6551731311361725, 5.409488630766513, 1.2123515677132881]

>  <energy>  (9) 
-319.3768459793201

>  <inter_energy>  (9) 
-323.4059006065315

>  <intra_energy>  (9) 
0.9527605272398819

>  <rmsd>  (9) 
3.67076

>  <sdf_rank>  (9) 
0

$$$$

     RDKit          3D

 13 12  0  0  0  0  0  0  0  0999 V2000
  -20.6453   15.5519   28.7317 C   0  0  0  0  0  0  0  0  0  0  0  0
  -21.5906   16.3892   27.8770 C   0  0  0  0  0  0  0  0  0  0  0  0
  -20.7998   17.2370   26.8764 C   0  0  0  0  0  0  0  0  0  0  0  0
  -19.6765   18.1266   27.3610 C   0  0  0  0  0  0  0  0  0  0  0  0
  -18.4955   17.9154   26.9544 O   0  0  0  0  0  0  0  0  0  0  0  0
  -19.9256   19.0643   28.1822 O   0  0  0  0  0  0  0  0  0  0  0  0
  -21.1304   17.2078   25.5969 C   0  0  0  0  0  0  0  0  0  0  0  0
  -21.0208   15.0848   29.8341 O   0  0  0  0  0  0  0  0  0  0  0  0
  -19.4851   15.3515   28.3022 O   0  0  0  0  0  0  0  0  0  0  0  0
  -22.2701   15.7208   27.3279 H   0  0  0  0  0  0  0  0  0  0  0  0
  -22.1659   17.0582   28.5339 H   0  0  0  0  0  0  0  0  0  0  0  0
  -20.5689   17.8129   24.8698 H   0  0  0  0  0  0  0  0  0  0  0  0
  -21.9669   16.5783   25.2592 H   0  0  0  0  0  0  0  0  0  0  0  0
  1  2  1  0
  1  8  2  0
  1  9  1  0
  2  3  1  0
  3  4  1  0
  3  7  2  0
  4  5  1  0
  4  6  2  0
  2 10  1  0
  2 11  1  0
  7 12  1  0
  7 13  1  0
M  CHG  2   5  -1   9  -1
M  END
>  <filename_input>  (10) 
7W06_ITN_docked.sdf

>  <pdb_id>  (10) 
7W06_ITN

>  <pose_rank>  (10) 
9

>  <num_atoms_heavy>  (10) 
9

>  <num_torsions>  (10) 
3

>  <pose>  (10) 
[-20.799832548829354, 17.2369934185939, 26.87639505643315, -0.5532183294085259, 2.9145194523931313, -5.382379484191024, -4.0680507241735695, 6.320065543103252, 3.3913571434878307]

>  <energy>  (10) 
-423.0980263676782

>  <inter_energy>  (10) 
-418.04086216476264

>  <intra_energy>  (10) 
16.652675426242073

>  <rmsd>  (10) 
0.749546

>  <sdf_rank>  (10) 
0

$$$$

     RDKit          3D

 13 12  0  0  0  0  0  0  0  0999 V2000
  -18.3315   17.4532   27.0808 C   0  0  0  0  0  0  0  0  0  0  0  0
  -19.7690   17.1224   26.6946 C   0  0  0  0  0  0  0  0  0  0  0  0
  -20.5944   16.7846   27.9395 C   0  0  0  0  0  0  0  0  0  0  0  0
  -20.2348   17.3986   29.2744 C   0  0  0  0  0  0  0  0  0  0  0  0
  -19.7348   16.6685   30.1809 O   0  0  0  0  0  0  0  0  0  0  0  0
  -20.4529   18.6341   29.4783 O   0  0  0  0  0  0  0  0  0  0  0  0
  -21.5977   15.9296   27.8409 C   0  0  0  0  0  0  0  0  0  0  0  0
  -17.5446   16.5515   27.4577 O   0  0  0  0  0  0  0  0  0  0  0  0
  -17.9651   18.6500   27.0158 O   0  0  0  0  0  0  0  0  0  0  0  0
  -20.2166   17.9901   26.1879 H   0  0  0  0  0  0  0  0  0  0  0  0
  -19.7654   16.2513   26.0228 H   0  0  0  0  0  0  0  0  0  0  0  0
  -22.1970   15.6800   28.7289 H   0  0  0  0  0  0  0  0  0  0  0  0
  -21.8333   15.4676   26.8708 H   0  0  0  0  0  0  0  0  0  0  0  0
  1  2  1  0
  1  8  2  0
  1  9  1  0
  2  3  1  0
  3  4  1  0
  3  7  2  0
  4  5  1  0
  4  6  2  0
  2 10  1  0
  2 11  1  0
  7 12  1  0
  7 13  1  0
M  CHG  2   5  -1   9  -1
M  END
>  <filename_input>  (11) 
7W06_ITN_docked.sdf

>  <pdb_id>  (11) 
7W06_ITN

>  <pose_rank>  (11) 
10

>  <num_atoms_heavy>  (11) 
9

>  <num_torsions>  (11) 
3

>  <pose>  (11) 
[-20.59444325229406, 16.784574081315874, 27.939516959262523, -2.0492826188488102, -1.5286637893382335, -2.1727306813926535, -1.7523088598414938, -23.67285883201022, 1.8651613492749077]

>  <energy>  (11) 
-329.4553409930683

>  <inter_energy>  (11) 
-326.6650904757058

>  <intra_energy>  (11) 
3.9993028264333974

>  <rmsd>  (11) 
2.96812

>  <sdf_rank>  (11) 
0

$$$$

     RDKit          3D

 13 12  0  0  0  0  0  0  0  0999 V2000
  -19.1221   18.2446   25.8794 C   0  0  0  0  0  0  0  0  0  0  0  0
  -20.4146   17.5084   26.2148 C   0  0  0  0  0  0  0  0  0  0  0  0
  -20.6391   17.4820   27.7295 C   0  0  0  0  0  0  0  0  0  0  0  0
  -20.9772   16.1798   28.4209 C   0  0  0  0  0  0  0  0  0  0  0  0
  -20.1444   15.2257   28.3928 O   0  0  0  0  0  0  0  0  0  0  0  0
  -22.0974   16.0506   29.0073 O   0  0  0  0  0  0  0  0  0  0  0  0
  -20.5675   18.6093   28.4161 C   0  0  0  0  0  0  0  0  0  0  0  0
  -19.0293   18.9352   24.8359 O   0  0  0  0  0  0  0  0  0  0  0  0
  -18.1584   18.1332   26.6729 O   0  0  0  0  0  0  0  0  0  0  0  0
  -21.2594   18.0220   25.7325 H   0  0  0  0  0  0  0  0  0  0  0  0
  -20.3404   16.4740   25.8480 H   0  0  0  0  0  0  0  0  0  0  0  0
  -20.7271   18.6015   29.5044 H   0  0  0  0  0  0  0  0  0  0  0  0
  -20.3483   19.5552   27.8991 H   0  0  0  0  0  0  0  0  0  0  0  0
  1  2  1  0
  1  8  2  0
  1  9  1  0
  2  3  1  0
  3  4  1  0
  3  7  2  0
  4  5  1  0
  4  6  2  0
  2 10  1  0
  2 11  1  0
  7 12  1  0
  7 13  1  0
M  CHG  2   5  -1   9  -1
M  END
>  <filename_input>  (12) 
7W06_ITN_docked.sdf

>  <pdb_id>  (12) 
7W06_ITN

>  <pose_rank>  (12) 
11

>  <num_atoms_heavy>  (12) 
9

>  <num_torsions>  (12) 
3

>  <pose>  (12) 
[-20.639129255139725, 17.482043406773958, 27.729460909285056, -3.0311416446844963, 2.265140930121165, -0.5553962744891948, -5.039085237789014, -32.74333552908228, 10.627812559977476]

>  <energy>  (12) 
-344.59199851464143

>  <inter_energy>  (12) 
-339.0824437191132

>  <intra_energy>  (12) 
10.391059513527987

>  <rmsd>  (12) 
3.75864

>  <sdf_rank>  (12) 
0

$$$$

     RDKit          3D

 13 12  0  0  0  0  0  0  0  0999 V2000
  -19.4743   17.7667   27.2419 C   0  0  0  0  0  0  0  0  0  0  0  0
  -19.8095   17.5685   28.7161 C   0  0  0  0  0  0  0  0  0  0  0  0
  -20.5876   16.2651   28.9186 C   0  0  0  0  0  0  0  0  0  0  0  0
  -21.9492   16.2922   29.5770 C   0  0  0  0  0  0  0  0  0  0  0  0
  -22.9510   16.7016   28.9185 O   0  0  0  0  0  0  0  0  0  0  0  0
  -22.0713   15.9208   30.7864 O   0  0  0  0  0  0  0  0  0  0  0  0
  -20.0444   15.1198   28.5439 C   0  0  0  0  0  0  0  0  0  0  0  0
  -20.3676   17.6864   26.3644 O   0  0  0  0  0  0  0  0  0  0  0  0
  -18.2825   18.0051   26.9361 O   0  0  0  0  0  0  0  0  0  0  0  0
  -18.8764   17.5270   29.2972 H   0  0  0  0  0  0  0  0  0  0  0  0
  -20.4306   18.4103   29.0561 H   0  0  0  0  0  0  0  0  0  0  0  0
  -20.5948   14.1779   28.6848 H   0  0  0  0  0  0  0  0  0  0  0  0
  -19.0419   15.1086   28.0913 H   0  0  0  0  0  0  0  0  0  0  0  0
  1  2  1  0
  1  8  2  0
  1  9  1  0
  2  3  1  0
  3  4  1  0
  3  7  2  0
  4  5  1  0
  4  6  2  0
  2 10  1  0
  2 11  1  0
  7 12  1  0
  7 13  1  0
M  CHG  2   5  -1   9  -1
M  END
>  <filename_input>  (13) 
7W06_ITN_docked.sdf

>  <pdb_id>  (13) 
7W06_ITN

>  <pose_rank>  (13) 
12

>  <num_atoms_heavy>  (13) 
9

>  <num_torsions>  (13) 
3

>  <pose>  (13) 
[-20.5876499898083, 16.2651361351538, 28.91855799873696, 0.23905663712725694, -1.799671627204135, -2.60149105005019, 1.4767671845997756, 5.093413608564612, 1.4980637295206234]

>  <energy>  (13) 
-318.78911902664083

>  <inter_energy>  (13) 
-326.36943693421233

>  <intra_energy>  (13) 
1.417636500294814

>  <rmsd>  (13) 
3.68948

>  <sdf_rank>  (13) 
0

$$$$

     RDKit          3D

 13 12  0  0  0  0  0  0  0  0999 V2000
  -20.1239   16.7262   28.7892 C   0  0  0  0  0  0  0  0  0  0  0  0
  -20.4798   18.0450   28.1115 C   0  0  0  0  0  0  0  0  0  0  0  0
  -20.2113   17.9636   26.6059 C   0  0  0  0  0  0  0  0  0  0  0  0
  -18.8771   18.4107   26.0508 C   0  0  0  0  0  0  0  0  0  0  0  0
  -18.8447   19.2970   25.1463 O   0  0  0  0  0  0  0  0  0  0  0  0
  -17.8057   17.8821   26.4845 O   0  0  0  0  0  0  0  0  0  0  0  0
  -21.1652   17.5324   25.7988 C   0  0  0  0  0  0  0  0  0  0  0  0
  -20.0581   15.6621   28.1275 O   0  0  0  0  0  0  0  0  0  0  0  0
  -19.9064   16.7386   30.0234 O   0  0  0  0  0  0  0  0  0  0  0  0
  -21.5453   18.2616   28.2780 H   0  0  0  0  0  0  0  0  0  0  0  0
  -19.8586   18.8447   28.5410 H   0  0  0  0  0  0  0  0  0  0  0  0
  -20.9828   17.4701   24.7158 H   0  0  0  0  0  0  0  0  0  0  0  0
  -22.1413   17.2358   26.2101 H   0  0  0  0  0  0  0  0  0  0  0  0
  1  2  1  0
  1  8  2  0
  1  9  1  0
  2  3  1  0
  3  4  1  0
  3  7  2  0
  4  5  1  0
  4  6  2  0
  2 10  1  0
  2 11  1  0
  7 12  1  0
  7 13  1  0
M  CHG  2   5  -1   9  -1
M  END
>  <filename_input>  (14) 
7W06_ITN_docked.sdf

>  <pdb_id>  (14) 
7W06_ITN

>  <pose_rank>  (14) 
13

>  <num_atoms_heavy>  (14) 
9

>  <num_torsions>  (14) 
3

>  <pose>  (14) 
[-20.21132619430938, 17.9636189685644, 26.60593199639817, -0.5279500724479443, 0.45907290065428374, -0.193144913085952, -8.29344248495878, -13.227683931906938, 6.518905155680717]

>  <energy>  (14) 
-351.896418749857

>  <inter_energy>  (14) 
-346.9575315004414

>  <intra_energy>  (14) 
5.686891306798583

>  <rmsd>  (14) 
1.54892

>  <sdf_rank>  (14) 
0

$$$$

     RDKit          3D

 13 12  0  0  0  0  0  0  0  0999 V2000
  -20.6246   15.8707   29.0873 C   0  0  0  0  0  0  0  0  0  0  0  0
  -21.2987   16.5944   27.9268 C   0  0  0  0  0  0  0  0  0  0  0  0
  -20.3591   17.6484   27.3339 C   0  0  0  0  0  0  0  0  0  0  0  0
  -20.0020   17.6019   25.8647 C   0  0  0  0  0  0  0  0  0  0  0  0
  -19.0061   18.2628   25.4449 O   0  0  0  0  0  0  0  0  0  0  0  0
  -20.7129   16.9154   25.0655 O   0  0  0  0  0  0  0  0  0  0  0  0
  -19.8406   18.5734   28.1231 C   0  0  0  0  0  0  0  0  0  0  0  0
  -20.0632   14.7621   28.9130 O   0  0  0  0  0  0  0  0  0  0  0  0
  -20.6545   16.4134   30.2166 O   0  0  0  0  0  0  0  0  0  0  0  0
  -21.5606   15.8636   27.1476 H   0  0  0  0  0  0  0  0  0  0  0  0
  -22.2055   17.0944   28.2979 H   0  0  0  0  0  0  0  0  0  0  0  0
  -19.1645   19.3351   27.7075 H   0  0  0  0  0  0  0  0  0  0  0  0
  -20.0851   18.5814   29.1956 H   0  0  0  0  0  0  0  0  0  0  0  0
  1  2  1  0
  1  8  2  0
  1  9  1  0
  2  3  1  0
  3  4  1  0
  3  7  2  0
  4  5  1  0
  4  6  2  0
  2 10  1  0
  2 11  1  0
  7 12  1  0
  7 13  1  0
M  CHG  2   5  -1   9  -1
M  END
>  <filename_input>  (15) 
7W06_ITN_docked.sdf

>  <pdb_id>  (15) 
7W06_ITN

>  <pose_rank>  (15) 
14

>  <num_atoms_heavy>  (15) 
9

>  <num_torsions>  (15) 
3

>  <pose>  (15) 
[-20.359056403198256, 17.64842408990253, 27.333924101242268, -2.2628383357383828, -2.0600215759301084, 1.9654460165398542, -8.983473694248643, -3.1750778855052277, 5.188717118109869]

>  <energy>  (15) 
-359.6384272886013

>  <inter_energy>  (15) 
-363.2096736206218

>  <intra_energy>  (15) 
7.02348554378572

>  <rmsd>  (15) 
1.97794

>  <sdf_rank>  (15) 
0

$$$$

     RDKit          3D

 13 12  0  0  0  0  0  0  0  0999 V2000
  -19.1952   18.0417   27.2452 C   0  0  0  0  0  0  0  0  0  0  0  0
  -19.1411   16.5948   27.7231 C   0  0  0  0  0  0  0  0  0  0  0  0
  -20.5394   16.1058   28.1118 C   0  0  0  0  0  0  0  0  0  0  0  0
  -20.9226   15.9942   29.5708 C   0  0  0  0  0  0  0  0  0  0  0  0
  -20.0137   15.9658   30.4527 O   0  0  0  0  0  0  0  0  0  0  0  0
  -22.1489   15.9135   29.8953 O   0  0  0  0  0  0  0  0  0  0  0  0
  -21.3904   15.7529   27.1639 C   0  0  0  0  0  0  0  0  0  0  0  0
  -20.0908   18.8195   27.6544 O   0  0  0  0  0  0  0  0  0  0  0  0
  -18.3241   18.4253   26.4299 O   0  0  0  0  0  0  0  0  0  0  0  0
  -18.7477   15.9610   26.9146 H   0  0  0  0  0  0  0  0  0  0  0  0
  -18.4856   16.5354   28.6044 H   0  0  0  0  0  0  0  0  0  0  0  0
  -22.3973   15.4003   27.4322 H   0  0  0  0  0  0  0  0  0  0  0  0
  -21.0918   15.8117   26.1069 H   0  0  0  0  0  0  0  0  0  0  0  0
  1  2  1  0
  1  8  2  0
  1  9  1  0
  2  3  1  0
  3  4  1  0
  3  7  2  0
  4  5  1  0
  4  6  2  0
  2 10  1  0
  2 11  1  0
  7 12  1  0
  7 13  1  0
M  CHG  2   5  -1   9  -1
M  END
>  <filename_input>  (16) 
7W06_ITN_docked.sdf

>  <pdb_id>  (16) 
7W06_ITN

>  <pose_rank>  (16) 
15

>  <num_atoms_heavy>  (16) 
9

>  <num_torsions>  (16) 
3

>  <pose>  (16) 
[-20.539397944923483, 16.1058178149171, 28.111769164312022, -1.6260808011588836, -0.5768629736433897, -2.9712162060942093, -0.16015556775086895, 5.434392008622329, 1.0776087563190508]

>  <energy>  (16) 
-415.7760219406246

>  <inter_energy>  (16) 
-414.6959491365634

>  <intra_energy>  (16) 
1.8583478436209386

>  <rmsd>  (16) 
3.4713

>  <sdf_rank>  (16) 
0

$$$$

     RDKit          3D

 13 12  0  0  0  0  0  0  0  0999 V2000
  -19.3679   17.9342   28.6028 C   0  0  0  0  0  0  0  0  0  0  0  0
  -20.8509   17.5798   28.6116 C   0  0  0  0  0  0  0  0  0  0  0  0
  -21.2172   16.7746   27.3615 C   0  0  0  0  0  0  0  0  0  0  0  0
  -20.9226   17.3355   25.9880 C   0  0  0  0  0  0  0  0  0  0  0  0
  -21.3221   16.7100   24.9613 O   0  0  0  0  0  0  0  0  0  0  0  0
  -20.2645   18.4173   25.8775 O   0  0  0  0  0  0  0  0  0  0  0  0
  -21.8203   15.6061   27.4957 C   0  0  0  0  0  0  0  0  0  0  0  0
  -18.7686   18.2137   29.6692 O   0  0  0  0  0  0  0  0  0  0  0  0
  -18.7714   17.9432   27.5005 O   0  0  0  0  0  0  0  0  0  0  0  0
  -21.0745   16.9807   29.5066 H   0  0  0  0  0  0  0  0  0  0  0  0
  -21.4388   18.5094   28.6211 H   0  0  0  0  0  0  0  0  0  0  0  0
  -22.0878   15.0196   26.6043 H   0  0  0  0  0  0  0  0  0  0  0  0
  -22.0548   15.2201   28.4987 H   0  0  0  0  0  0  0  0  0  0  0  0
  1  2  1  0
  1  8  2  0
  1  9  1  0
  2  3  1  0
  3  4  1  0
  3  7  2  0
  4  5  1  0
  4  6  2  0
  2 10  1  0
  2 11  1  0
  7 12  1  0
  7 13  1  0
M  CHG  2   5  -1   9  -1
M  END
>  <filename_input>  (17) 
7W06_ITN_docked.sdf

>  <pdb_id>  (17) 
7W06_ITN

>  <pose_rank>  (17) 
16

>  <num_atoms_heavy>  (17) 
9

>  <num_torsions>  (17) 
3

>  <pose>  (17) 
[-21.217155960581632, 16.774588406432922, 27.361522834791803, -1.1682086454214418, 0.8316220212239864, 0.5413094355872814, -2.8898452965208454, -18.867551155762296, 4.1284551002264]

>  <energy>  (17) 
-328.00843321888885

>  <inter_energy>  (17) 
-394.78962442709934

>  <intra_energy>  (17) 
77.93848292459339

>  <rmsd>  (17) 
2.74865

>  <sdf_rank>  (17) 
0

$$$$

     RDKit          3D

 13 12  0  0  0  0  0  0  0  0999 V2000
  -20.4716   17.9755   26.5565 C   0  0  0  0  0  0  0  0  0  0  0  0
  -21.5086   16.9935   27.0905 C   0  0  0  0  0  0  0  0  0  0  0  0
  -21.2100   16.6395   28.5503 C   0  0  0  0  0  0  0  0  0  0  0  0
  -20.1941   15.5670   28.8754 C   0  0  0  0  0  0  0  0  0  0  0  0
  -20.5529   14.5512   29.5418 O   0  0  0  0  0  0  0  0  0  0  0  0
  -18.9900   15.7034   28.4921 O   0  0  0  0  0  0  0  0  0  0  0  0
  -21.8708   17.2549   29.5157 C   0  0  0  0  0  0  0  0  0  0  0  0
  -20.1507   18.9924   27.2177 O   0  0  0  0  0  0  0  0  0  0  0  0
  -19.9573   17.7383   25.4385 O   0  0  0  0  0  0  0  0  0  0  0  0
  -22.5071   17.4505   27.0258 H   0  0  0  0  0  0  0  0  0  0  0  0
  -21.4725   16.0745   26.4870 H   0  0  0  0  0  0  0  0  0  0  0  0
  -21.6640   17.0082   30.5675 H   0  0  0  0  0  0  0  0  0  0  0  0
  -22.6274   18.0138   29.2672 H   0  0  0  0  0  0  0  0  0  0  0  0
  1  2  1  0
  1  8  2  0
  1  9  1  0
  2  3  1  0
  3  4  1  0
  3  7  2  0
  4  5  1  0
  4  6  2  0
  2 10  1  0
  2 11  1  0
  7 12  1  0
  7 13  1  0
M  CHG  2   5  -1   9  -1
M  END
>  <filename_input>  (18) 
7W06_ITN_docked.sdf

>  <pdb_id>  (18) 
7W06_ITN

>  <pose_rank>  (18) 
17

>  <num_atoms_heavy>  (18) 
9

>  <num_torsions>  (18) 
3

>  <pose>  (18) 
[-21.210030691543988, 16.6395480735584, 28.55029392727922, 2.6787508675318885, -0.36075118548011365, 0.3964293682694481, 4.332295139335082, -0.49122224193636815, -6.510266336646092]

>  <energy>  (18) 
-337.28196274841554

>  <inter_energy>  (18) 
-332.1778576310298

>  <intra_energy>  (18) 
3.9456499326730836

>  <rmsd>  (18) 
3.43777

>  <sdf_rank>  (18) 
0

$$$$

     RDKit          3D

 13 12  0  0  0  0  0  0  0  0999 V2000
  -20.2212   18.2795   26.2392 C   0  0  0  0  0  0  0  0  0  0  0  0
  -21.2608   17.8209   27.2560 C   0  0  0  0  0  0  0  0  0  0  0  0
  -20.9137   16.4267   27.7860 C   0  0  0  0  0  0  0  0  0  0  0  0
  -20.1902   16.2784   29.1061 C   0  0  0  0  0  0  0  0  0  0  0  0
  -20.3556   15.2261   29.7918 O   0  0  0  0  0  0  0  0  0  0  0  0
  -19.4387   17.2157   29.5210 O   0  0  0  0  0  0  0  0  0  0  0  0
  -21.2221   15.3627   27.0648 C   0  0  0  0  0  0  0  0  0  0  0  0
  -20.4611   18.2283   25.0086 O   0  0  0  0  0  0  0  0  0  0  0  0
  -19.1226   18.7014   26.6701 O   0  0  0  0  0  0  0  0  0  0  0  0
  -21.2845   18.5317   28.0952 H   0  0  0  0  0  0  0  0  0  0  0  0
  -22.2446   17.7805   26.7655 H   0  0  0  0  0  0  0  0  0  0  0  0
  -20.9773   14.3567   27.4362 H   0  0  0  0  0  0  0  0  0  0  0  0
  -21.7235   15.4833   26.0932 H   0  0  0  0  0  0  0  0  0  0  0  0
  1  2  1  0
  1  8  2  0
  1  9  1  0
  2  3  1  0
  3  4  1  0
  3  7  2  0
  4  5  1  0
  4  6  2  0
  2 10  1  0
  2 11  1  0
  7 12  1  0
  7 13  1  0
M  CHG  2   5  -1   9  -1
M  END
>  <filename_input>  (19) 
7W06_ITN_docked.sdf

>  <pdb_id>  (19) 
7W06_ITN

>  <pose_rank>  (19) 
18

>  <num_atoms_heavy>  (19) 
9

>  <num_torsions>  (19) 
3

>  <pose>  (19) 
[-20.913749231836437, 16.426651013227495, 27.785994535949953, 2.2714535369978797, 1.720912701919621, 2.9763814883734194, 2.8165546994894988, -22.46914903114589, -10.185270166421137]

>  <energy>  (19) 
-375.1728136254354

>  <inter_energy>  (19) 
-359.00497777043114

>  <intra_energy>  (19) 
0.9809093121059209

>  <rmsd>  (19) 
3.38198

>  <sdf_rank>  (19) 
0

$$$$

     RDKit          3D

 13 12  0  0  0  0  0  0  0  0999 V2000
  -20.2077   17.9949   26.4792 C   0  0  0  0  0  0  0  0  0  0  0  0
  -20.6673   18.2375   27.9126 C   0  0  0  0  0  0  0  0  0  0  0  0
  -20.6057   16.9392   28.7224 C   0  0  0  0  0  0  0  0  0  0  0  0
  -21.7474   15.9494   28.6517 C   0  0  0  0  0  0  0  0  0  0  0  0
  -21.9024   15.2515   27.6059 O   0  0  0  0  0  0  0  0  0  0  0  0
  -22.5476   15.8401   29.6332 O   0  0  0  0  0  0  0  0  0  0  0  0
  -19.5650   16.7108   29.5048 C   0  0  0  0  0  0  0  0  0  0  0  0
  -21.0221   17.6289   25.5975 O   0  0  0  0  0  0  0  0  0  0  0  0
  -18.9951   18.1662   26.2128 O   0  0  0  0  0  0  0  0  0  0  0  0
  -20.0127   18.9875   28.3807 H   0  0  0  0  0  0  0  0  0  0  0  0
  -21.7063   18.5982   27.8970 H   0  0  0  0  0  0  0  0  0  0  0  0
  -19.5109   15.7814   30.0907 H   0  0  0  0  0  0  0  0  0  0  0  0
  -18.7531   17.4501   29.5700 H   0  0  0  0  0  0  0  0  0  0  0  0
  1  2  1  0
  1  8  2  0
  1  9  1  0
  2  3  1  0
  3  4  1  0
  3  7  2  0
  4  5  1  0
  4  6  2  0
  2 10  1  0
  2 11  1  0
  7 12  1  0
  7 13  1  0
M  CHG  2   5  -1   9  -1
M  END
>  <filename_input>  (20) 
7W06_ITN_docked.sdf

>  <pdb_id>  (20) 
7W06_ITN

>  <pose_rank>  (20) 
19

>  <num_atoms_heavy>  (20) 
9

>  <num_torsions>  (20) 
3

>  <pose>  (20) 
[-20.605692898360324, 16.93916006503202, 28.72244883660833, -5.574635007073835, 6.395922865874908, 4.700007965522523, 1.431955619929399, -19.34606785860231, 2.136958026949158]

>  <energy>  (20) 
-309.86590973845125

>  <inter_energy>  (20) 
-311.2803683654606

>  <intra_energy>  (20) 
1.8902876193512115

>  <rmsd>  (20) 
3.79132

>  <sdf_rank>  (20) 
0

$$$$

     RDKit          3D

 13 12  0  0  0  0  0  0  0  0999 V2000
  -20.1001   15.6825   28.9953 C   0  0  0  0  0  0  0  0  0  0  0  0
  -21.4007   16.4393   28.7493 C   0  0  0  0  0  0  0  0  0  0  0  0
  -21.2268   17.4480   27.6101 C   0  0  0  0  0  0  0  0  0  0  0  0
  -21.2355   16.9746   26.1735 C   0  0  0  0  0  0  0  0  0  0  0  0
  -21.6606   17.7489   25.2655 O   0  0  0  0  0  0  0  0  0  0  0  0
  -20.8329   15.8017   25.8945 O   0  0  0  0  0  0  0  0  0  0  0  0
  -21.0366   18.7243   27.8966 C   0  0  0  0  0  0  0  0  0  0  0  0
  -19.0336   16.2996   29.2325 O   0  0  0  0  0  0  0  0  0  0  0  0
  -20.1294   14.4305   28.9472 O   0  0  0  0  0  0  0  0  0  0  0  0
  -22.1912   15.7229   28.4810 H   0  0  0  0  0  0  0  0  0  0  0  0
  -21.6757   16.9816   29.6659 H   0  0  0  0  0  0  0  0  0  0  0  0
  -20.9105   19.4571   27.0859 H   0  0  0  0  0  0  0  0  0  0  0  0
  -21.0044   19.0537   28.9456 H   0  0  0  0  0  0  0  0  0  0  0  0
  1  2  1  0
  1  8  2  0
  1  9  1  0
  2  3  1  0
  3  4  1  0
  3  7  2  0
  4  5  1  0
  4  6  2  0
  2 10  1  0
  2 11  1  0
  7 12  1  0
  7 13  1  0
M  CHG  2   5  -1   9  -1
M  END
>  <filename_input>  (21) 
7W06_ITN_docked.sdf

>  <pdb_id>  (21) 
7W06_ITN

>  <pose_rank>  (21) 
20

>  <num_atoms_heavy>  (21) 
9

>  <num_torsions>  (21) 
3

>  <pose>  (21) 
[-21.22675802486932, 17.447975905693202, 27.61009620331733, -1.3643577922044752, -2.5148761066054206, 2.6179837034756184, -3.51145164806855, -22.81932615842154, 1.5661132936349624]

>  <energy>  (21) 
-331.7531207509214

>  <inter_energy>  (21) 
-324.2269114152694

>  <intra_energy>  (21) 
6.08599887777217

>  <rmsd>  (21) 
2.4045

>  <sdf_rank>  (21) 
0

$$$$

     RDKit          3D

 13 12  0  0  0  0  0  0  0  0999 V2000
  -20.8192   15.7560   26.9114 C   0  0  0  0  0  0  0  0  0  0  0  0
  -21.1247   16.1915   28.3403 C   0  0  0  0  0  0  0  0  0  0  0  0
  -19.9615   17.0069   28.9126 C   0  0  0  0  0  0  0  0  0  0  0  0
  -19.2903   18.0643   28.0643 C   0  0  0  0  0  0  0  0  0  0  0  0
  -18.1328   17.8460   27.5980 O   0  0  0  0  0  0  0  0  0  0  0  0
  -19.8858   19.1650   27.8425 O   0  0  0  0  0  0  0  0  0  0  0  0
  -19.5319   16.7541   30.1369 C   0  0  0  0  0  0  0  0  0  0  0  0
  -20.9917   14.5661   26.5525 O   0  0  0  0  0  0  0  0  0  0  0  0
  -20.3867   16.6195   26.1126 O   0  0  0  0  0  0  0  0  0  0  0  0
  -22.0355   16.8083   28.3440 H   0  0  0  0  0  0  0  0  0  0  0  0
  -21.2710   15.2957   28.9618 H   0  0  0  0  0  0  0  0  0  0  0  0
  -18.6971   17.3339   30.5574 H   0  0  0  0  0  0  0  0  0  0  0  0
  -20.0093   15.9641   30.7351 H   0  0  0  0  0  0  0  0  0  0  0  0
  1  2  1  0
  1  8  2  0
  1  9  1  0
  2  3  1  0
  3  4  1  0
  3  7  2  0
  4  5  1  0
  4  6  2  0
  2 10  1  0
  2 11  1  0
  7 12  1  0
  7 13  1  0
M  CHG  2   5  -1   9  -1
M  END
>  <filename_input>  (22) 
7W06_ITN_docked.sdf

>  <pdb_id>  (22) 
7W06_ITN

>  <pose_rank>  (22) 
21

>  <num_atoms_heavy>  (22) 
9

>  <num_torsions>  (22) 
3

>  <pose>  (22) 
[-19.961451478685447, 17.00688003125327, 28.91257567725371, -2.2091671814741023, -1.9263305879892074, 0.5561816791903852, -1.7085147637334557, -23.41925351153664, 2.903196124563422]

>  <energy>  (22) 
-253.10399806695204

>  <inter_energy>  (22) 
-293.8814458062573

>  <intra_energy>  (22) 
34.811614349605165

>  <rmsd>  (22) 
2.51098

>  <sdf_rank>  (22) 
0

$$$$

     RDKit          3D

 13 12  0  0  0  0  0  0  0  0999 V2000
  -21.4460   17.3041   29.0364 C   0  0  0  0  0  0  0  0  0  0  0  0
  -21.4639   16.6406   27.6636 C   0  0  0  0  0  0  0  0  0  0  0  0
  -20.6588   17.4682   26.6576 C   0  0  0  0  0  0  0  0  0  0  0  0
  -19.5315   18.3548   27.1385 C   0  0  0  0  0  0  0  0  0  0  0  0
  -18.3765   18.2211   26.6356 O   0  0  0  0  0  0  0  0  0  0  0  0
  -19.7500   19.2114   28.0517 O   0  0  0  0  0  0  0  0  0  0  0  0
  -20.9804   17.4246   25.3762 C   0  0  0  0  0  0  0  0  0  0  0  0
  -20.9114   16.7336   30.0178 O   0  0  0  0  0  0  0  0  0  0  0  0
  -21.9852   18.4294   29.1533 O   0  0  0  0  0  0  0  0  0  0  0  0
  -21.0227   15.6359   27.7413 H   0  0  0  0  0  0  0  0  0  0  0  0
  -22.5051   16.5715   27.3154 H   0  0  0  0  0  0  0  0  0  0  0  0
  -20.4086   18.0152   24.6452 H   0  0  0  0  0  0  0  0  0  0  0  0
  -21.8197   16.7977   25.0408 H   0  0  0  0  0  0  0  0  0  0  0  0
  1  2  1  0
  1  8  2  0
  1  9  1  0
  2  3  1  0
  3  4  1  0
  3  7  2  0
  4  5  1  0
  4  6  2  0
  2 10  1  0
  2 11  1  0
  7 12  1  0
  7 13  1  0
M  CHG  2   5  -1   9  -1
M  END
>  <filename_input>  (23) 
7W06_ITN_docked.sdf

>  <pdb_id>  (23) 
7W06_ITN

>  <pose_rank>  (23) 
22

>  <num_atoms_heavy>  (23) 
9

>  <num_torsions>  (23) 
3

>  <pose>  (23) 
[-20.658820569874294, 17.46821176360591, 26.657563200559327, 0.07865363337733541, 3.3053417599583264, -5.185529222923207, -3.9367512353581113, 7.705221128021379, 4.855394799501483]

>  <energy>  (23) 
-305.482541116911

>  <inter_energy>  (23) 
-357.8504706322525

>  <intra_energy>  (23) 
46.488223248667346

>  <rmsd>  (23) 
1.6642

>  <sdf_rank>  (23) 
0

$$$$

     RDKit          3D

 13 12  0  0  0  0  0  0  0  0999 V2000
  -19.5925   18.2962   25.4588 C   0  0  0  0  0  0  0  0  0  0  0  0
  -19.3394   16.9768   26.1798 C   0  0  0  0  0  0  0  0  0  0  0  0
  -20.2245   16.8678   27.4249 C   0  0  0  0  0  0  0  0  0  0  0  0
  -20.6535   18.1188   28.1591 C   0  0  0  0  0  0  0  0  0  0  0  0
  -19.8685   18.6460   29.0020 O   0  0  0  0  0  0  0  0  0  0  0  0
  -21.8011   18.6176   27.9358 O   0  0  0  0  0  0  0  0  0  0  0  0
  -20.5789   15.6735   27.8669 C   0  0  0  0  0  0  0  0  0  0  0  0
  -18.7930   19.2560   25.5777 O   0  0  0  0  0  0  0  0  0  0  0  0
  -20.6230   18.3926   24.7521 O   0  0  0  0  0  0  0  0  0  0  0  0
  -19.5673   16.1429   25.4995 H   0  0  0  0  0  0  0  0  0  0  0  0
  -18.2844   16.9366   26.4886 H   0  0  0  0  0  0  0  0  0  0  0  0
  -21.2144   15.5840   28.7603 H   0  0  0  0  0  0  0  0  0  0  0  0
  -20.2384   14.7692   27.3413 H   0  0  0  0  0  0  0  0  0  0  0  0
  1  2  1  0
  1  8  2  0
  1  9  1  0
  2  3  1  0
  3  4  1  0
  3  7  2  0
  4  5  1  0
  4  6  2  0
  2 10  1  0
  2 11  1  0
  7 12  1  0
  7 13  1  0
M  CHG  2   5  -1   9  -1
M  END
>  <filename_input>  (24) 
7W06_ITN_docked.sdf

>  <pdb_id>  (24) 
7W06_ITN

>  <pose_rank>  (24) 
23

>  <num_atoms_heavy>  (24) 
9

>  <num_torsions>  (24) 
3

>  <pose>  (24) 
[-20.224468460668138, 16.867778040829585, 27.424911656145767, -1.1367379923615553, -2.6124282731483603, -1.797925467842681, -1.291154175943363, -24.686367463691013, 2.381181143858596]

>  <energy>  (24) 
-255.80132290823317

>  <inter_energy>  (24) 
-251.83090181739232

>  <intra_energy>  (24) 
4.6017855236056295

>  <rmsd>  (24) 
3.61473

>  <sdf_rank>  (24) 
0

$$$$

     RDKit          3D

 13 12  0  0  0  0  0  0  0  0999 V2000
  -20.9536   16.0618   29.5830 C   0  0  0  0  0  0  0  0  0  0  0  0
  -22.0454   16.4779   28.6033 C   0  0  0  0  0  0  0  0  0  0  0  0
  -21.4992   16.5080   27.1729 C   0  0  0  0  0  0  0  0  0  0  0  0
  -21.1465   17.8291   26.5261 C   0  0  0  0  0  0  0  0  0  0  0  0
  -21.1653   17.9287   25.2634 O   0  0  0  0  0  0  0  0  0  0  0  0
  -20.8195   18.8189   27.2535 O   0  0  0  0  0  0  0  0  0  0  0  0
  -21.3720   15.3758   26.5026 C   0  0  0  0  0  0  0  0  0  0  0  0
  -19.7623   15.9483   29.2058 O   0  0  0  0  0  0  0  0  0  0  0  0
  -21.2841   15.8322   30.7699 O   0  0  0  0  0  0  0  0  0  0  0  0
  -22.8752   15.7579   28.6589 H   0  0  0  0  0  0  0  0  0  0  0  0
  -22.3985   17.4848   28.8706 H   0  0  0  0  0  0  0  0  0  0  0  0
  -20.9806   15.3863   25.4746 H   0  0  0  0  0  0  0  0  0  0  0  0
  -21.6574   14.4232   26.9728 H   0  0  0  0  0  0  0  0  0  0  0  0
  1  2  1  0
  1  8  2  0
  1  9  1  0
  2  3  1  0
  3  4  1  0
  3  7  2  0
  4  5  1  0
  4  6  2  0
  2 10  1  0
  2 11  1  0
  7 12  1  0
  7 13  1  0
M  CHG  2   5  -1   9  -1
M  END
>  <filename_input>  (25) 
7W06_ITN_docked.sdf

>  <pdb_id>  (25) 
7W06_ITN

>  <pose_rank>  (25) 
24

>  <num_atoms_heavy>  (25) 
9

>  <num_torsions>  (25) 
3

>  <pose>  (25) 
[-21.499155543747555, 16.507990012449838, 27.172908998724857, -0.9178577794036057, -0.04393522701529707, 0.7660401323823709, -8.825250713794647, -13.393448509532742, 7.028718495678851]

>  <energy>  (25) 
-343.53307277480036

>  <inter_energy>  (25) 
-325.8092069001412

>  <intra_energy>  (25) 
4.915368066103345

>  <rmsd>  (25) 
1.85126

>  <sdf_rank>  (25) 
0

$$$$

     RDKit          3D

 13 12  0  0  0  0  0  0  0  0999 V2000
  -20.4770   15.7880   29.1690 C   0  0  0  0  0  0  0  0  0  0  0  0
  -21.3590   16.7640   28.3980 C   0  0  0  0  0  0  0  0  0  0  0  0
  -20.5400   17.5020   27.3350 C   0  0  0  0  0  0  0  0  0  0  0  0
  -19.2890   18.2540   27.7320 C   0  0  0  0  0  0  0  0  0  0  0  0
  -19.0210   18.4120   28.9600 O   0  0  0  0  0  0  0  0  0  0  0  0
  -18.5300   18.7330   26.8320 O   0  0  0  0  0  0  0  0  0  0  0  0
  -20.9550   17.5020   26.0800 C   0  0  0  0  0  0  0  0  0  0  0  0
  -19.5370   15.1840   28.5980 O   0  0  0  0  0  0  0  0  0  0  0  0
  -20.7240   15.6050   30.3840 O   0  0  0  0  0  0  0  0  0  0  0  0
  -22.1715   16.2079   27.9075 H   0  0  0  0  0  0  0  0  0  0  0  0
  -21.7745   17.5003   29.1017 H   0  0  0  0  0  0  0  0  0  0  0  0
  -20.3742   18.0290   25.3087 H   0  0  0  0  0  0  0  0  0  0  0  0
  -21.8811   16.9750   25.8070 H   0  0  0  0  0  0  0  0  0  0  0  0
  1  2  1  0
  1  8  2  0
  1  9  1  0
  2  3  1  0
  3  4  1  0
  3  7  2  0
  4  5  1  0
  4  6  2  0
  2 10  1  0
  2 11  1  0
  7 12  1  0
  7 13  1  0
M  CHG  2   5  -1   9  -1
M  END
>  <filename_input>  (26) 
7W06_ITN_docked.sdf

>  <pdb_id>  (26) 
7W06_ITN

>  <pose_rank>  (26) 
25

>  <num_atoms_heavy>  (26) 
9

>  <num_torsions>  (26) 
3

>  <pose>  (26) 
[-20.54, 17.502, 27.335, 1e-06, 1e-06, 1e-06, 0.0, 0.0, 0.0]

>  <energy>  (26) 
-401.8139612758582

>  <inter_energy>  (26) 
-420.6808489978333

>  <intra_energy>  (26) 
15.691966936591642

>  <rmsd>  (26) 
0.0

>  <sdf_rank>  (26) 
0

$$$$
