
     RDKit          3D

 45 47  0  0  0  0  0  0  0  0999 V2000
    2.9161  -18.2854  -22.8917 P   0  0  1  0  0  0  0  0  0  0  0  0
    3.0011  -19.7758  -22.6804 O   0  0  0  0  0  0  0  0  0  0  0  0
    1.6504  -17.9056  -23.6092 O   0  0  0  0  0  0  0  0  0  0  0  0
    3.0894  -17.6578  -21.5445 O   0  0  0  0  0  0  0  0  0  0  0  0
    4.8986  -18.8316  -25.1385 P   0  0  2  0  0  0  0  0  0  0  0  0
    5.7378  -17.8485  -25.9085 O   0  0  0  0  0  0  0  0  0  0  0  0
    3.7571  -19.4564  -25.8900 O   0  0  0  0  0  0  0  0  0  0  0  0
    4.4223  -17.7870  -23.7602 C   0  0  0  0  0  0  0  0  0  0  0  0
    7.1548  -20.2197  -23.7827 P   0  0  2  0  0  0  0  0  0  0  0  0
    7.1673  -19.2171  -22.6626 O   0  0  0  0  0  0  0  0  0  0  0  0
    8.3841  -20.2072  -24.6386 O   0  0  0  0  0  0  0  0  0  0  0  0
    5.7614  -20.1028  -24.6287 O   0  0  0  0  0  0  0  0  0  0  0  0
    7.0249  -21.7094  -23.1577 O   0  0  0  0  0  0  0  0  0  0  0  0
    6.1628  -21.9098  -22.0605 C   0  0  0  0  0  0  0  0  0  0  0  0
    6.8951  -22.8596  -21.0858 C   0  0  1  0  0  0  0  0  0  0  0  0
    8.0395  -23.2733  -21.6267 O   0  0  0  0  0  0  0  0  0  0  0  0
    7.2827  -22.1262  -19.7802 C   0  0  1  0  0  0  0  0  0  0  0  0
    6.2773  -22.0582  -18.8325 O   0  0  0  0  0  0  0  0  0  0  0  0
    8.4797  -22.9816  -19.3358 C   0  0  1  0  0  0  0  0  0  0  0  0
    7.9322  -24.2074  -18.6821 O   0  0  0  0  0  0  0  0  0  0  0  0
    9.1253  -23.3045  -20.4575 C   0  0  2  0  0  0  0  0  0  0  0  0
   10.1647  -22.3699  -20.8466 N   0  0  0  0  0  0  0  0  0  0  0  0
   10.0174  -21.1692  -21.4452 C   0  0  0  0  0  0  0  0  0  0  0  0
   11.2221  -20.6265  -21.6327 N   0  0  0  0  0  0  0  0  0  0  0  0
   12.1357  -21.5026  -21.1652 C   0  0  0  0  0  0  0  0  0  0  0  0
   13.5143  -21.4756  -21.1335 C   0  0  0  0  0  0  0  0  0  0  0  0
   14.3248  -20.3955  -21.6291 N   0  0  0  0  0  0  0  0  0  0  0  0
   14.1812  -22.5012  -20.6139 N   0  0  0  0  0  0  0  0  0  0  0  0
   13.5037  -23.5638  -20.1370 C   0  0  0  0  0  0  0  0  0  0  0  0
   12.1541  -23.6131  -20.1685 N   0  0  0  0  0  0  0  0  0  0  0  0
   11.4800  -22.5769  -20.7043 C   0  0  0  0  0  0  0  0  0  0  0  0
    4.2708  -16.7673  -24.1440 H   0  0  0  0  0  0  0  0  0  0  0  0
    5.2362  -17.8667  -23.0246 H   0  0  0  0  0  0  0  0  0  0  0  0
    5.9495  -20.9506  -21.5662 H   0  0  0  0  0  0  0  0  0  0  0  0
    5.2038  -22.3398  -22.3852 H   0  0  0  0  0  0  0  0  0  0  0  0
    6.2114  -23.6959  -20.8785 H   0  0  0  0  0  0  0  0  0  0  0  0
    7.4988  -21.0570  -19.9220 H   0  0  0  0  0  0  0  0  0  0  0  0
    6.6754  -22.0851  -17.9265 H   0  0  0  0  0  0  0  0  0  0  0  0
    9.1515  -22.4673  -18.6328 H   0  0  0  0  0  0  0  0  0  0  0  0
    7.9778  -24.1052  -17.6985 H   0  0  0  0  0  0  0  0  0  0  0  0
    9.6070  -24.2784  -20.2856 H   0  0  0  0  0  0  0  0  0  0  0  0
    9.0591  -20.7118  -21.7322 H   0  0  0  0  0  0  0  0  0  0  0  0
   15.3515  -20.4523  -21.5684 H   0  0  0  0  0  0  0  0  0  0  0  0
   13.8786  -19.5654  -22.0447 H   0  0  0  0  0  0  0  0  0  0  0  0
   14.0626  -24.4107  -19.7121 H   0  0  0  0  0  0  0  0  0  0  0  0
  1  2  2  0
  1  3  1  6
  1  4  1  0
  1  8  1  0
  5  6  2  0
  5  7  1  6
  5  8  1  0
  5 12  1  0
  9 10  2  0
  9 11  1  6
  9 12  1  0
  9 13  1  0
 13 14  1  0
 15 14  1  0
 15 16  1  0
 15 17  1  0
 16 21  1  0
 17 18  1  0
 17 19  1  0
 19 20  1  0
 19 21  1  0
 21 22  1  0
 22 23  1  0
 22 31  1  0
 23 24  2  0
 24 25  1  0
 25 26  2  0
 25 31  1  0
 26 27  1  0
 26 28  1  0
 28 29  2  0
 29 30  1  0
 30 31  2  0
  8 32  1  0
  8 33  1  0
 14 34  1  0
 14 35  1  0
 15 36  1  1
 17 37  1  6
 18 38  1  0
 19 39  1  1
 20 40  1  0
 21 41  1  1
 23 42  1  0
 27 43  1  0
 27 44  1  0
 29 45  1  0
M  CHG  4   3  -1   4  -1   7  -1  11  -1
M  END
>  <filename_input>  (1) 
7WCF_ACP_docked.sdf

>  <pdb_id>  (1) 
7WCF_ACP

>  <pose_rank>  (1) 
0

>  <num_atoms_heavy>  (1) 
31

>  <num_torsions>  (1) 
8

>  <pose>  (1) 
[6.895141682234371, -22.859574968373742, -21.085773424780765, 5.658903915723831, -1.0331858705949821, -2.402664862622909, -6.177841706692712, -5.349147221600723, 6.5843875594605406, 5.848829498508737, -0.5948240382166408, -0.16394723365558275, -0.3968543576629811, -0.9070904343837365]

>  <energy>  (1) 
-1015.6179216382311

>  <inter_energy>  (1) 
-1028.3255543553144

>  <intra_energy>  (1) 
12.512009113932693

>  <rmsd>  (1) 
0.749422

>  <sdf_rank>  (1) 
0

$$$$

     RDKit          3D

 45 47  0  0  0  0  0  0  0  0999 V2000
    2.0436  -16.4354  -24.5269 P   0  0  1  0  0  0  0  0  0  0  0  0
    1.4028  -16.5299  -25.8883 O   0  0  0  0  0  0  0  0  0  0  0  0
    3.4001  -15.7912  -24.6040 O   0  0  0  0  0  0  0  0  0  0  0  0
    1.0606  -15.7307  -23.6460 O   0  0  0  0  0  0  0  0  0  0  0  0
    3.4876  -18.4936  -22.8078 P   0  0  2  0  0  0  0  0  0  0  0  0
    3.3591  -17.3892  -21.7942 O   0  0  0  0  0  0  0  0  0  0  0  0
    4.8007  -18.5738  -23.5341 O   0  0  0  0  0  0  0  0  0  0  0  0
    2.0701  -18.1070  -23.8369 C   0  0  0  0  0  0  0  0  0  0  0  0
    3.9455  -20.6150  -20.7718 P   0  0  2  0  0  0  0  0  0  0  0  0
    2.8403  -21.1926  -19.9321 O   0  0  0  0  0  0  0  0  0  0  0  0
    4.8765  -19.7061  -20.0297 O   0  0  0  0  0  0  0  0  0  0  0  0
    3.3322  -19.9586  -22.1371 O   0  0  0  0  0  0  0  0  0  0  0  0
    4.8402  -21.8251  -21.3734 O   0  0  0  0  0  0  0  0  0  0  0  0
    6.2075  -21.5943  -21.6270 C   0  0  0  0  0  0  0  0  0  0  0  0
    6.9956  -22.6466  -20.8147 C   0  0  1  0  0  0  0  0  0  0  0  0
    8.0707  -23.0367  -21.4969 O   0  0  0  0  0  0  0  0  0  0  0  0
    7.5264  -22.0454  -19.4921 C   0  0  1  0  0  0  0  0  0  0  0  0
    6.6160  -22.0400  -18.4505 O   0  0  0  0  0  0  0  0  0  0  0  0
    8.7309  -22.9666  -19.2416 C   0  0  1  0  0  0  0  0  0  0  0  0
    8.2065  -24.2334  -18.6501 O   0  0  0  0  0  0  0  0  0  0  0  0
    9.2587  -23.2011  -20.4439 C   0  0  2  0  0  0  0  0  0  0  0  0
   10.2875  -22.2602  -20.8459 N   0  0  0  0  0  0  0  0  0  0  0  0
   10.1278  -21.0768  -21.4748 C   0  0  0  0  0  0  0  0  0  0  0  0
   11.3259  -20.5203  -21.6641 N   0  0  0  0  0  0  0  0  0  0  0  0
   12.2481  -21.3706  -21.1669 C   0  0  0  0  0  0  0  0  0  0  0  0
   13.6258  -21.3216  -21.1230 C   0  0  0  0  0  0  0  0  0  0  0  0
   14.4246  -20.2415  -21.6370 N   0  0  0  0  0  0  0  0  0  0  0  0
   14.3031  -22.3240  -20.5725 N   0  0  0  0  0  0  0  0  0  0  0  0
   13.6372  -23.3851  -20.0762 C   0  0  0  0  0  0  0  0  0  0  0  0
   12.2888  -23.4559  -20.1192 N   0  0  0  0  0  0  0  0  0  0  0  0
   11.6044  -22.4435  -20.6862 C   0  0  0  0  0  0  0  0  0  0  0  0
    1.1633  -18.2370  -23.2280 H   0  0  0  0  0  0  0  0  0  0  0  0
    2.1265  -18.7890  -24.6982 H   0  0  0  0  0  0  0  0  0  0  0  0
    6.4182  -21.7088  -22.7005 H   0  0  0  0  0  0  0  0  0  0  0  0
    6.4962  -20.5735  -21.3360 H   0  0  0  0  0  0  0  0  0  0  0  0
    6.3070  -23.4817  -20.6182 H   0  0  0  0  0  0  0  0  0  0  0  0
    7.7633  -20.9733  -19.5583 H   0  0  0  0  0  0  0  0  0  0  0  0
    7.1016  -22.0429  -17.5878 H   0  0  0  0  0  0  0  0  0  0  0  0
    9.4815  -22.5352  -18.5629 H   0  0  0  0  0  0  0  0  0  0  0  0
    8.2320  -24.1718  -17.6624 H   0  0  0  0  0  0  0  0  0  0  0  0
    9.7221  -24.1980  -20.4059 H   0  0  0  0  0  0  0  0  0  0  0  0
    9.1655  -20.6412  -21.7818 H   0  0  0  0  0  0  0  0  0  0  0  0
   15.4514  -20.2809  -21.5653 H   0  0  0  0  0  0  0  0  0  0  0  0
   13.9699  -19.4286  -22.0768 H   0  0  0  0  0  0  0  0  0  0  0  0
   14.2046  -24.2128  -19.6256 H   0  0  0  0  0  0  0  0  0  0  0  0
  1  2  2  0
  1  3  1  6
  1  4  1  0
  1  8  1  0
  5  6  2  0
  5  7  1  6
  5  8  1  0
  5 12  1  0
  9 10  2  0
  9 11  1  1
  9 12  1  0
  9 13  1  0
 13 14  1  0
 15 14  1  0
 15 16  1  0
 15 17  1  0
 16 21  1  0
 17 18  1  0
 17 19  1  0
 19 20  1  0
 19 21  1  0
 21 22  1  0
 22 23  1  0
 22 31  1  0
 23 24  2  0
 24 25  1  0
 25 26  2  0
 25 31  1  0
 26 27  1  0
 26 28  1  0
 28 29  2  0
 29 30  1  0
 30 31  2  0
  8 32  1  0
  8 33  1  0
 14 34  1  0
 14 35  1  0
 15 36  1  1
 17 37  1  6
 18 38  1  0
 19 39  1  1
 20 40  1  0
 21 41  1  1
 23 42  1  0
 27 43  1  0
 27 44  1  0
 29 45  1  0
M  CHG  4   3  -1   4  -1   7  -1  11  -1
M  END
>  <filename_input>  (2) 
7WCF_ACP_docked.sdf

>  <pdb_id>  (2) 
7WCF_ACP

>  <pose_rank>  (2) 
1

>  <num_atoms_heavy>  (2) 
31

>  <num_torsions>  (2) 
8

>  <pose>  (2) 
[6.995573035800809, -22.646647699202088, -20.814702826424373, 0.046861207083877164, 0.10221357995261476, -0.00717651537417062, 6.227726084754064, 3.5381565803915542, -7.698202757331272, 2.5311887523625813, 0.8917485590135552, 4.431862857328181, 4.130099974777764, 0.8502561417568179]

>  <energy>  (2) 
-1025.2896042031357

>  <inter_energy>  (2) 
-1014.5280772607117

>  <intra_energy>  (2) 
8.02568755652082

>  <rmsd>  (2) 
2.18343

>  <sdf_rank>  (2) 
0

$$$$

     RDKit          3D

 45 47  0  0  0  0  0  0  0  0999 V2000
    4.6972  -18.7191  -24.6166 P   0  0  1  0  0  0  0  0  0  0  0  0
    6.0767  -19.1223  -24.1608 O   0  0  0  0  0  0  0  0  0  0  0  0
    4.7601  -17.8069  -25.8103 O   0  0  0  0  0  0  0  0  0  0  0  0
    3.9366  -19.9892  -24.8334 O   0  0  0  0  0  0  0  0  0  0  0  0
    2.2921  -18.7451  -22.7481 P   0  0  2  0  0  0  0  0  0  0  0  0
    1.6391  -18.7550  -24.1035 O   0  0  0  0  0  0  0  0  0  0  0  0
    1.5334  -18.0473  -21.6546 O   0  0  0  0  0  0  0  0  0  0  0  0
    3.8593  -17.9916  -23.1884 C   0  0  0  0  0  0  0  0  0  0  0  0
    3.4731  -20.8290  -20.9823 P   0  0  2  0  0  0  0  0  0  0  0  0
    2.8377  -22.0371  -20.3524 O   0  0  0  0  0  0  0  0  0  0  0  0
    3.9339  -19.7915  -20.0051 O   0  0  0  0  0  0  0  0  0  0  0  0
    2.5128  -20.2393  -22.1660 O   0  0  0  0  0  0  0  0  0  0  0  0
    4.7735  -21.2964  -21.8293 O   0  0  0  0  0  0  0  0  0  0  0  0
    6.0531  -20.9476  -21.3518 C   0  0  0  0  0  0  0  0  0  0  0  0
    6.8231  -22.2697  -21.1335 C   0  0  1  0  0  0  0  0  0  0  0  0
    7.7922  -22.3870  -22.0393 O   0  0  0  0  0  0  0  0  0  0  0  0
    7.5254  -22.2835  -19.7554 C   0  0  1  0  0  0  0  0  0  0  0  0
    6.7214  -22.6703  -18.6982 O   0  0  0  0  0  0  0  0  0  0  0  0
    8.6664  -23.2718  -20.0443 C   0  0  1  0  0  0  0  0  0  0  0  0
    8.0956  -24.6487  -19.9543 O   0  0  0  0  0  0  0  0  0  0  0  0
    9.0564  -23.0135  -21.2935 C   0  0  2  0  0  0  0  0  0  0  0  0
   10.1181  -22.0306  -21.4037 N   0  0  0  0  0  0  0  0  0  0  0  0
   10.0280  -20.7605  -21.8511 C   0  0  0  0  0  0  0  0  0  0  0  0
   11.2343  -20.1926  -21.7925 N   0  0  0  0  0  0  0  0  0  0  0  0
   12.0938  -21.1204  -21.3222 C   0  0  0  0  0  0  0  0  0  0  0  0
   13.4536  -21.0925  -21.0931 C   0  0  0  0  0  0  0  0  0  0  0  0
   14.3002  -19.9520  -21.3205 N   0  0  0  0  0  0  0  0  0  0  0  0
   14.0651  -22.1765  -20.6265 N   0  0  0  0  0  0  0  0  0  0  0  0
   13.3524  -23.2966  -20.3963 C   0  0  0  0  0  0  0  0  0  0  0  0
   12.0218  -23.3465  -20.6241 N   0  0  0  0  0  0  0  0  0  0  0  0
   11.4052  -22.2498  -21.1062 C   0  0  0  0  0  0  0  0  0  0  0  0
    4.5315  -18.0757  -22.3217 H   0  0  0  0  0  0  0  0  0  0  0  0
    3.6276  -16.9537  -23.4698 H   0  0  0  0  0  0  0  0  0  0  0  0
    6.5757  -20.3224  -22.0907 H   0  0  0  0  0  0  0  0  0  0  0  0
    5.9825  -20.3727  -20.4167 H   0  0  0  0  0  0  0  0  0  0  0  0
    6.0884  -23.0849  -21.2082 H   0  0  0  0  0  0  0  0  0  0  0  0
    7.8444  -21.2882  -19.4125 H   0  0  0  0  0  0  0  0  0  0  0  0
    7.1724  -22.4533  -17.8441 H   0  0  0  0  0  0  0  0  0  0  0  0
    9.5115  -23.1852  -19.3455 H   0  0  0  0  0  0  0  0  0  0  0  0
    7.9910  -24.9010  -19.0027 H   0  0  0  0  0  0  0  0  0  0  0  0
    9.4358  -23.9555  -21.7162 H   0  0  0  0  0  0  0  0  0  0  0  0
    9.1087  -20.2721  -22.2066 H   0  0  0  0  0  0  0  0  0  0  0  0
   15.3094  -20.0124  -21.1238 H   0  0  0  0  0  0  0  0  0  0  0  0
   13.8972  -19.0750  -21.6801 H   0  0  0  0  0  0  0  0  0  0  0  0
   13.8659  -24.1911  -20.0139 H   0  0  0  0  0  0  0  0  0  0  0  0
  1  2  2  0
  1  3  1  6
  1  4  1  0
  1  8  1  0
  5  6  2  0
  5  7  1  1
  5  8  1  0
  5 12  1  0
  9 10  2  0
  9 11  1  1
  9 12  1  0
  9 13  1  0
 13 14  1  0
 15 14  1  0
 15 16  1  0
 15 17  1  0
 16 21  1  0
 17 18  1  0
 17 19  1  0
 19 20  1  0
 19 21  1  0
 21 22  1  0
 22 23  1  0
 22 31  1  0
 23 24  2  0
 24 25  1  0
 25 26  2  0
 25 31  1  0
 26 27  1  0
 26 28  1  0
 28 29  2  0
 29 30  1  0
 30 31  2  0
  8 32  1  0
  8 33  1  0
 14 34  1  0
 14 35  1  0
 15 36  1  1
 17 37  1  1
 18 38  1  0
 19 39  1  1
 20 40  1  0
 21 41  1  6
 23 42  1  0
 27 43  1  0
 27 44  1  0
 29 45  1  0
M  CHG  4   3  -1   4  -1   7  -1  11  -1
M  END
>  <filename_input>  (3) 
7WCF_ACP_docked.sdf

>  <pdb_id>  (3) 
7WCF_ACP

>  <pose_rank>  (3) 
2

>  <num_atoms_heavy>  (3) 
31

>  <num_torsions>  (3) 
8

>  <pose>  (3) 
[6.823132931869626, -22.26968579923728, -21.133499682125915, 0.4690377366403019, 0.212243722360442, -0.05151506677821417, -0.4144075590440788, 2.9457968153326237, 11.120207349725828, 3.2329231503024016, -4.984804818352699, 1.7499208117704144, 2.284720015164919, 2.4176206218104492]

>  <energy>  (3) 
-903.419692122536

>  <inter_energy>  (3) 
-920.3803722072344

>  <intra_energy>  (3) 
25.06590448878243

>  <rmsd>  (3) 
2.52451

>  <sdf_rank>  (3) 
0

$$$$

     RDKit          3D

 45 47  0  0  0  0  0  0  0  0999 V2000
    3.4900  -18.0784  -24.6471 P   0  0  1  0  0  0  0  0  0  0  0  0
    2.3236  -17.1454  -24.8533 O   0  0  0  0  0  0  0  0  0  0  0  0
    4.0244  -18.5845  -25.9583 O   0  0  0  0  0  0  0  0  0  0  0  0
    4.4809  -17.3356  -23.8073 O   0  0  0  0  0  0  0  0  0  0  0  0
    3.6595  -19.3761  -21.8970 P   0  0  2  0  0  0  0  0  0  0  0  0
    2.5227  -19.9824  -21.1199 O   0  0  0  0  0  0  0  0  0  0  0  0
    4.1406  -18.0333  -21.4240 O   0  0  0  0  0  0  0  0  0  0  0  0
    2.9289  -19.3898  -23.5352 C   0  0  0  0  0  0  0  0  0  0  0  0
    6.2675  -20.4374  -22.8599 P   0  0  2  0  0  0  0  0  0  0  0  0
    7.0757  -19.1698  -22.8538 O   0  0  0  0  0  0  0  0  0  0  0  0
    5.9060  -20.9347  -24.2257 O   0  0  0  0  0  0  0  0  0  0  0  0
    4.9902  -20.2966  -21.8501 O   0  0  0  0  0  0  0  0  0  0  0  0
    7.1191  -21.6109  -22.1357 O   0  0  0  0  0  0  0  0  0  0  0  0
    6.4462  -22.7786  -21.7225 C   0  0  0  0  0  0  0  0  0  0  0  0
    7.2224  -23.3342  -20.5071 C   0  0  1  0  0  0  0  0  0  0  0  0
    8.4526  -23.6871  -20.8751 O   0  0  0  0  0  0  0  0  0  0  0  0
    7.3991  -22.2508  -19.4172 C   0  0  1  0  0  0  0  0  0  0  0  0
    6.3214  -22.1069  -18.5620 O   0  0  0  0  0  0  0  0  0  0  0  0
    8.6635  -22.7753  -18.7184 C   0  0  1  0  0  0  0  0  0  0  0  0
    8.2402  -23.8713  -17.7969 O   0  0  0  0  0  0  0  0  0  0  0  0
    9.4352  -23.2615  -19.6918 C   0  0  2  0  0  0  0  0  0  0  0  0
   10.3631  -22.3031  -20.2625 N   0  0  0  0  0  0  0  0  0  0  0  0
   10.0761  -21.1313  -20.8676 C   0  0  0  0  0  0  0  0  0  0  0  0
   11.2145  -20.5508  -21.2525 N   0  0  0  0  0  0  0  0  0  0  0  0
   12.2247  -21.3743  -20.9033 C   0  0  0  0  0  0  0  0  0  0  0  0
   13.5899  -21.2943  -21.0826 C   0  0  0  0  0  0  0  0  0  0  0  0
   14.2695  -20.2032  -21.7280 N   0  0  0  0  0  0  0  0  0  0  0  0
   14.3707  -22.2746  -20.6399 N   0  0  0  0  0  0  0  0  0  0  0  0
   13.8189  -23.3440  -20.0336 C   0  0  0  0  0  0  0  0  0  0  0  0
   12.4833  -23.4451  -19.8579 N   0  0  0  0  0  0  0  0  0  0  0  0
   11.6925  -22.4551  -20.3158 C   0  0  0  0  0  0  0  0  0  0  0  0
    1.8390  -19.2947  -23.4213 H   0  0  0  0  0  0  0  0  0  0  0  0
    3.2446  -20.3358  -23.9994 H   0  0  0  0  0  0  0  0  0  0  0  0
    5.4124  -22.5380  -21.4339 H   0  0  0  0  0  0  0  0  0  0  0  0
    6.4034  -23.5184  -22.5355 H   0  0  0  0  0  0  0  0  0  0  0  0
    6.6465  -24.1886  -20.1220 H   0  0  0  0  0  0  0  0  0  0  0  0
    7.4760  -21.2295  -19.8185 H   0  0  0  0  0  0  0  0  0  0  0  0
    6.6362  -22.1489  -17.6244 H   0  0  0  0  0  0  0  0  0  0  0  0
    9.1993  -22.0064  -18.1425 H   0  0  0  0  0  0  0  0  0  0  0  0
    8.3542  -23.5761  -16.8588 H   0  0  0  0  0  0  0  0  0  0  0  0
   10.0316  -24.0767  -19.2562 H   0  0  0  0  0  0  0  0  0  0  0  0
    9.0668  -20.7210  -21.0191 H   0  0  0  0  0  0  0  0  0  0  0  0
   15.2951  -20.2190  -21.8226 H   0  0  0  0  0  0  0  0  0  0  0  0
   13.7307  -19.4061  -22.0957 H   0  0  0  0  0  0  0  0  0  0  0  0
   14.4711  -24.1532  -19.6734 H   0  0  0  0  0  0  0  0  0  0  0  0
  1  2  2  0
  1  3  1  6
  1  4  1  0
  1  8  1  0
  5  6  2  0
  5  7  1  1
  5  8  1  0
  5 12  1  0
  9 10  2  0
  9 11  1  6
  9 12  1  0
  9 13  1  0
 13 14  1  0
 15 14  1  0
 15 16  1  0
 15 17  1  0
 16 21  1  0
 17 18  1  0
 17 19  1  0
 19 20  1  0
 19 21  1  0
 21 22  1  0
 22 23  1  0
 22 31  1  0
 23 24  2  0
 24 25  1  0
 25 26  2  0
 25 31  1  0
 26 27  1  0
 26 28  1  0
 28 29  2  0
 29 30  1  0
 30 31  2  0
  8 32  1  0
  8 33  1  0
 14 34  1  0
 14 35  1  0
 15 36  1  1
 17 37  1  6
 18 38  1  0
 19 39  1  1
 20 40  1  0
 21 41  1  1
 23 42  1  0
 27 43  1  0
 27 44  1  0
 29 45  1  0
M  CHG  4   3  -1   4  -1   7  -1  11  -1
M  END
>  <filename_input>  (4) 
7WCF_ACP_docked.sdf

>  <pdb_id>  (4) 
7WCF_ACP

>  <pose_rank>  (4) 
3

>  <num_atoms_heavy>  (4) 
31

>  <num_torsions>  (4) 
8

>  <pose>  (4) 
[7.2224373283772545, -23.334174818456393, -20.50709157826684, -0.30076735118204556, -0.05504427884761144, 0.16491495499147762, 0.4317986295303103, -0.08519655473169883, 0.08151895002225347, 1.7331650476197022, -0.1532773411606981, -4.654155378642881, -6.797420890984326, -3.632835863579308]

>  <energy>  (4) 
-1011.0873835991642

>  <inter_energy>  (4) 
-1043.0048667329925

>  <intra_energy>  (4) 
39.81684739077313

>  <rmsd>  (4) 
1.95984

>  <sdf_rank>  (4) 
0

$$$$

     RDKit          3D

 45 47  0  0  0  0  0  0  0  0999 V2000
    7.7527  -19.4879  -24.3692 P   0  0  1  0  0  0  0  0  0  0  0  0
    7.2441  -18.1044  -24.0523 O   0  0  0  0  0  0  0  0  0  0  0  0
    7.6566  -19.7826  -25.8406 O   0  0  0  0  0  0  0  0  0  0  0  0
    9.1335  -19.5706  -23.7989 O   0  0  0  0  0  0  0  0  0  0  0  0
    5.1977  -20.0846  -22.8225 P   0  0  2  0  0  0  0  0  0  0  0  0
    4.5894  -19.8395  -24.1765 O   0  0  0  0  0  0  0  0  0  0  0  0
    5.1925  -18.9180  -21.8752 O   0  0  0  0  0  0  0  0  0  0  0  0
    6.8238  -20.6436  -23.3335 C   0  0  0  0  0  0  0  0  0  0  0  0
    4.4093  -21.6593  -20.4237 P   0  0  2  0  0  0  0  0  0  0  0  0
    3.1878  -22.4776  -20.1097 O   0  0  0  0  0  0  0  0  0  0  0  0
    4.6380  -20.5067  -19.4948 O   0  0  0  0  0  0  0  0  0  0  0  0
    4.4189  -21.2441  -22.0044 O   0  0  0  0  0  0  0  0  0  0  0  0
    5.7194  -22.6094  -20.3352 O   0  0  0  0  0  0  0  0  0  0  0  0
    6.4346  -22.6643  -19.1218 C   0  0  0  0  0  0  0  0  0  0  0  0
    7.4693  -23.8033  -19.2652 C   0  0  1  0  0  0  0  0  0  0  0  0
    8.0894  -23.7099  -20.4399 O   0  0  0  0  0  0  0  0  0  0  0  0
    8.5756  -23.6886  -18.1902 C   0  0  1  0  0  0  0  0  0  0  0  0
    8.2535  -24.2433  -16.9646 O   0  0  0  0  0  0  0  0  0  0  0  0
    9.7230  -24.4195  -18.9053 C   0  0  1  0  0  0  0  0  0  0  0  0
    9.4855  -25.8849  -18.7444 O   0  0  0  0  0  0  0  0  0  0  0  0
    9.6232  -24.0729  -20.1895 C   0  0  2  0  0  0  0  0  0  0  0  0
   10.3827  -22.8926  -20.5573 N   0  0  0  0  0  0  0  0  0  0  0  0
    9.9085  -21.6849  -20.9290 C   0  0  0  0  0  0  0  0  0  0  0  0
   10.9372  -20.8742  -21.1850 N   0  0  0  0  0  0  0  0  0  0  0  0
   12.0679  -21.5847  -20.9911 C   0  0  0  0  0  0  0  0  0  0  0  0
   13.4010  -21.2637  -21.1393 C   0  0  0  0  0  0  0  0  0  0  0  0
   13.8935  -19.9785  -21.5572 N   0  0  0  0  0  0  0  0  0  0  0  0
   14.3307  -22.1792  -20.8858 N   0  0  0  0  0  0  0  0  0  0  0  0
   13.9605  -23.4163  -20.5009 C   0  0  0  0  0  0  0  0  0  0  0  0
   12.6597  -23.7525  -20.3601 N   0  0  0  0  0  0  0  0  0  0  0  0
   11.7184  -22.8263  -20.6267 C   0  0  0  0  0  0  0  0  0  0  0  0
    6.6989  -21.5796  -23.8977 H   0  0  0  0  0  0  0  0  0  0  0  0
    7.4086  -20.7586  -22.4090 H   0  0  0  0  0  0  0  0  0  0  0  0
    6.9469  -21.7078  -18.9405 H   0  0  0  0  0  0  0  0  0  0  0  0
    5.7593  -22.8486  -18.2733 H   0  0  0  0  0  0  0  0  0  0  0  0
    6.9196  -24.7506  -19.1636 H   0  0  0  0  0  0  0  0  0  0  0  0
    8.7950  -22.6530  -17.8914 H   0  0  0  0  0  0  0  0  0  0  0  0
    8.5919  -23.6605  -16.2394 H   0  0  0  0  0  0  0  0  0  0  0  0
   10.7185  -24.1697  -18.5096 H   0  0  0  0  0  0  0  0  0  0  0  0
    9.4492  -26.1095  -17.7809 H   0  0  0  0  0  0  0  0  0  0  0  0
   10.0133  -24.9127  -20.7833 H   0  0  0  0  0  0  0  0  0  0  0  0
    8.8456  -21.4127  -21.0081 H   0  0  0  0  0  0  0  0  0  0  0  0
   14.9073  -19.8187  -21.6437 H   0  0  0  0  0  0  0  0  0  0  0  0
   13.2322  -19.2180  -21.7699 H   0  0  0  0  0  0  0  0  0  0  0  0
   14.7354  -24.1698  -20.2967 H   0  0  0  0  0  0  0  0  0  0  0  0
  1  2  2  0
  1  3  1  6
  1  4  1  0
  1  8  1  0
  5  6  2  0
  5  7  1  1
  5  8  1  0
  5 12  1  0
  9 10  2  0
  9 11  1  1
  9 12  1  0
  9 13  1  0
 13 14  1  0
 15 14  1  0
 15 16  1  0
 15 17  1  0
 16 21  1  0
 17 18  1  0
 17 19  1  0
 19 20  1  0
 19 21  1  0
 21 22  1  0
 22 23  1  0
 22 31  1  0
 23 24  2  0
 24 25  1  0
 25 26  2  0
 25 31  1  0
 26 27  1  0
 26 28  1  0
 28 29  2  0
 29 30  1  0
 30 31  2  0
  8 32  1  0
  8 33  1  0
 14 34  1  0
 14 35  1  0
 15 36  1  6
 17 37  1  1
 18 38  1  0
 19 39  1  1
 20 40  1  0
 21 41  1  6
 23 42  1  0
 27 43  1  0
 27 44  1  0
 29 45  1  0
M  CHG  4   3  -1   4  -1   7  -1  11  -1
M  END
>  <filename_input>  (5) 
7WCF_ACP_docked.sdf

>  <pdb_id>  (5) 
7WCF_ACP

>  <pose_rank>  (5) 
4

>  <num_atoms_heavy>  (5) 
31

>  <num_torsions>  (5) 
8

>  <pose>  (5) 
[7.469297223475506, -23.803285464370827, -19.265171951289553, 0.4807711932167492, 0.5880189559459487, 0.07385848163054022, -6.772636940540963, 26.960026665367433, -0.57554823649058, 3.516379613948167, -42.505573726617776, -22.776817059850394, -2.1385197390057153, -1.245106357067581]

>  <energy>  (5) 
-874.4949073333198

>  <inter_energy>  (5) 
-887.5638548821381

>  <intra_energy>  (5) 
16.75061309730605

>  <rmsd>  (5) 
3.20715

>  <sdf_rank>  (5) 
0

$$$$

     RDKit          3D

 45 47  0  0  0  0  0  0  0  0999 V2000
    0.0508  -23.2574  -21.3714 P   0  0  1  0  0  0  0  0  0  0  0  0
   -0.9900  -22.8571  -20.3567 O   0  0  0  0  0  0  0  0  0  0  0  0
    0.1068  -24.7507  -21.5382 O   0  0  0  0  0  0  0  0  0  0  0  0
   -0.2626  -22.4951  -22.6202 O   0  0  0  0  0  0  0  0  0  0  0  0
    1.8118  -20.7784  -21.1978 P   0  0  2  0  0  0  0  0  0  0  0  0
    1.6942  -20.2310  -19.8013 O   0  0  0  0  0  0  0  0  0  0  0  0
    0.8484  -20.2226  -22.2083 O   0  0  0  0  0  0  0  0  0  0  0  0
    1.6171  -22.5254  -20.8403 C   0  0  0  0  0  0  0  0  0  0  0  0
    4.7513  -20.3149  -21.1950 P   0  0  2  0  0  0  0  0  0  0  0  0
    4.6542  -19.6592  -19.8456 O   0  0  0  0  0  0  0  0  0  0  0  0
    5.7510  -19.6878  -22.1174 O   0  0  0  0  0  0  0  0  0  0  0  0
    3.2631  -20.4804  -21.8499 O   0  0  0  0  0  0  0  0  0  0  0  0
    5.1885  -21.8633  -21.0003 O   0  0  0  0  0  0  0  0  0  0  0  0
    6.3044  -22.3460  -21.7136 C   0  0  0  0  0  0  0  0  0  0  0  0
    7.1698  -23.1363  -20.7061 C   0  0  1  0  0  0  0  0  0  0  0  0
    8.3321  -23.4670  -21.2655 O   0  0  0  0  0  0  0  0  0  0  0  0
    7.5221  -22.2688  -19.4748 C   0  0  1  0  0  0  0  0  0  0  0  0
    6.5500  -22.2352  -18.4913 O   0  0  0  0  0  0  0  0  0  0  0  0
    8.8200  -22.9569  -19.0230 C   0  0  1  0  0  0  0  0  0  0  0  0
    8.4324  -24.1802  -18.2595 O   0  0  0  0  0  0  0  0  0  0  0  0
    9.4562  -23.2945  -20.1458 C   0  0  2  0  0  0  0  0  0  0  0  0
   10.3735  -22.2879  -20.6463 N   0  0  0  0  0  0  0  0  0  0  0  0
   10.0744  -21.1502  -21.3080 C   0  0  0  0  0  0  0  0  0  0  0  0
   11.2061  -20.5028  -21.5925 N   0  0  0  0  0  0  0  0  0  0  0  0
   12.2267  -21.2499  -21.1224 C   0  0  0  0  0  0  0  0  0  0  0  0
   13.5950  -21.0825  -21.1666 C   0  0  0  0  0  0  0  0  0  0  0  0
   14.2649  -19.9615  -21.7697 N   0  0  0  0  0  0  0  0  0  0  0  0
   14.3884  -21.9994  -20.6223 N   0  0  0  0  0  0  0  0  0  0  0  0
   13.8481  -23.0909  -20.0459 C   0  0  0  0  0  0  0  0  0  0  0  0
   12.5109  -23.2775  -20.0018 N   0  0  0  0  0  0  0  0  0  0  0  0
   11.7084  -22.3519  -20.5625 C   0  0  0  0  0  0  0  0  0  0  0  0
    1.7028  -22.6605  -19.7519 H   0  0  0  0  0  0  0  0  0  0  0  0
    2.4018  -23.0409  -21.4134 H   0  0  0  0  0  0  0  0  0  0  0  0
    5.9756  -23.0060  -22.5299 H   0  0  0  0  0  0  0  0  0  0  0  0
    6.8751  -21.5189  -22.1609 H   0  0  0  0  0  0  0  0  0  0  0  0
    6.5886  -24.0218  -20.4094 H   0  0  0  0  0  0  0  0  0  0  0  0
    7.6159  -21.1968  -19.7025 H   0  0  0  0  0  0  0  0  0  0  0  0
    6.9813  -22.2501  -17.6003 H   0  0  0  0  0  0  0  0  0  0  0  0
    9.4569  -22.3226  -18.3889 H   0  0  0  0  0  0  0  0  0  0  0  0
    8.4909  -23.9957  -17.2887 H   0  0  0  0  0  0  0  0  0  0  0  0
   10.0464  -24.1963  -19.9256 H   0  0  0  0  0  0  0  0  0  0  0  0
    9.0613  -20.8113  -21.5703 H   0  0  0  0  0  0  0  0  0  0  0  0
   15.2936  -19.9107  -21.7609 H   0  0  0  0  0  0  0  0  0  0  0  0
   13.7159  -19.2097  -22.2104 H   0  0  0  0  0  0  0  0  0  0  0  0
   14.5111  -23.8475  -19.6010 H   0  0  0  0  0  0  0  0  0  0  0  0
  1  2  2  0
  1  3  1  6
  1  4  1  0
  1  8  1  0
  5  6  2  0
  5  7  1  6
  5  8  1  0
  5 12  1  0
  9 10  2  0
  9 11  1  6
  9 12  1  0
  9 13  1  0
 13 14  1  0
 15 14  1  0
 15 16  1  0
 15 17  1  0
 16 21  1  0
 17 18  1  0
 17 19  1  0
 19 20  1  0
 19 21  1  0
 21 22  1  0
 22 23  1  0
 22 31  1  0
 23 24  2  0
 24 25  1  0
 25 26  2  0
 25 31  1  0
 26 27  1  0
 26 28  1  0
 28 29  2  0
 29 30  1  0
 30 31  2  0
  8 32  1  0
  8 33  1  0
 14 34  1  0
 14 35  1  0
 15 36  1  1
 17 37  1  6
 18 38  1  0
 19 39  1  1
 20 40  1  0
 21 41  1  1
 23 42  1  0
 27 43  1  0
 27 44  1  0
 29 45  1  0
M  CHG  4   3  -1   4  -1   7  -1  11  -1
M  END
>  <filename_input>  (6) 
7WCF_ACP_docked.sdf

>  <pdb_id>  (6) 
7WCF_ACP

>  <pose_rank>  (6) 
5

>  <num_atoms_heavy>  (6) 
31

>  <num_torsions>  (6) 
8

>  <pose>  (6) 
[7.1697867276731735, -23.13627455378703, -20.706093130154336, -4.271647386789215, 1.6683645650115302, 4.554203725556123, 0.12122394501160765, 4.313140797012673, -1.228218622537364, 2.9381974170207186, -1.9267550071926391, -0.5508033019750121, 5.037817540542306, -3.0619530233825873]

>  <energy>  (6) 
-883.1841723016225

>  <inter_energy>  (6) 
-915.187419439445

>  <intra_energy>  (6) 
42.88561200327265

>  <rmsd>  (6) 
3.39993

>  <sdf_rank>  (6) 
0

$$$$

     RDKit          3D

 45 47  0  0  0  0  0  0  0  0999 V2000
    2.0962  -15.7909  -24.4765 P   0  0  1  0  0  0  0  0  0  0  0  0
    2.4099  -14.3774  -24.8969 O   0  0  0  0  0  0  0  0  0  0  0  0
    1.3644  -15.8216  -23.1633 O   0  0  0  0  0  0  0  0  0  0  0  0
    1.3644  -16.4187  -25.6206 O   0  0  0  0  0  0  0  0  0  0  0  0
    3.8191  -17.9369  -23.1715 P   0  0  2  0  0  0  0  0  0  0  0  0
    2.6323  -18.7954  -23.5151 O   0  0  0  0  0  0  0  0  0  0  0  0
    3.8607  -17.3985  -21.7691 O   0  0  0  0  0  0  0  0  0  0  0  0
    3.6611  -16.6976  -24.4587 C   0  0  0  0  0  0  0  0  0  0  0  0
    5.6852  -19.9712  -24.2826 P   0  0  2  0  0  0  0  0  0  0  0  0
    6.8611  -19.5517  -25.1201 O   0  0  0  0  0  0  0  0  0  0  0  0
    4.5633  -20.5914  -25.0573 O   0  0  0  0  0  0  0  0  0  0  0  0
    5.2163  -18.7419  -23.3130 O   0  0  0  0  0  0  0  0  0  0  0  0
    6.1754  -21.0672  -23.1940 O   0  0  0  0  0  0  0  0  0  0  0  0
    6.2485  -20.6884  -21.8383 C   0  0  0  0  0  0  0  0  0  0  0  0
    6.8630  -21.8829  -21.0740 C   0  0  1  0  0  0  0  0  0  0  0  0
    7.9213  -22.3497  -21.7338 O   0  0  0  0  0  0  0  0  0  0  0  0
    7.3865  -21.4453  -19.6858 C   0  0  1  0  0  0  0  0  0  0  0  0
    6.4270  -21.4047  -18.6902 O   0  0  0  0  0  0  0  0  0  0  0  0
    8.4601  -22.5198  -19.4517 C   0  0  1  0  0  0  0  0  0  0  0  0
    7.7602  -23.7534  -18.9846 O   0  0  0  0  0  0  0  0  0  0  0  0
    9.0224  -22.7300  -20.6429 C   0  0  2  0  0  0  0  0  0  0  0  0
   10.1742  -21.8932  -20.9231 N   0  0  0  0  0  0  0  0  0  0  0  0
   10.1860  -20.6441  -21.4341 C   0  0  0  0  0  0  0  0  0  0  0  0
   11.4501  -20.2288  -21.5371 N   0  0  0  0  0  0  0  0  0  0  0  0
   12.2406  -21.2334  -21.1050 C   0  0  0  0  0  0  0  0  0  0  0  0
   13.6111  -21.3644  -21.0225 C   0  0  0  0  0  0  0  0  0  0  0  0
   14.5563  -20.3501  -21.4059 N   0  0  0  0  0  0  0  0  0  0  0  0
   14.1379  -22.4930  -20.5585 N   0  0  0  0  0  0  0  0  0  0  0  0
   13.3276  -23.5036  -20.1875 C   0  0  0  0  0  0  0  0  0  0  0  0
   11.9834  -23.3980  -20.2707 N   0  0  0  0  0  0  0  0  0  0  0  0
   11.4513  -22.2569  -20.7502 C   0  0  0  0  0  0  0  0  0  0  0  0
    3.7721  -17.2015  -25.4302 H   0  0  0  0  0  0  0  0  0  0  0  0
    4.4419  -15.9497  -24.2563 H   0  0  0  0  0  0  0  0  0  0  0  0
    6.8864  -19.7992  -21.7273 H   0  0  0  0  0  0  0  0  0  0  0  0
    5.2527  -20.4375  -21.4441 H   0  0  0  0  0  0  0  0  0  0  0  0
    6.0722  -22.6410  -20.9745 H   0  0  0  0  0  0  0  0  0  0  0  0
    7.7498  -20.4074  -19.6582 H   0  0  0  0  0  0  0  0  0  0  0  0
    6.8694  -21.4234  -17.8047 H   0  0  0  0  0  0  0  0  0  0  0  0
    9.2173  -22.2310  -18.7079 H   0  0  0  0  0  0  0  0  0  0  0  0
    7.7496  -23.7720  -17.9948 H   0  0  0  0  0  0  0  0  0  0  0  0
    9.3639  -23.7755  -20.6605 H   0  0  0  0  0  0  0  0  0  0  0  0
    9.2972  -20.0623  -21.7196 H   0  0  0  0  0  0  0  0  0  0  0  0
   15.5668  -20.5265  -21.3132 H   0  0  0  0  0  0  0  0  0  0  0  0
   14.2226  -19.4475  -21.7731 H   0  0  0  0  0  0  0  0  0  0  0  0
   13.7708  -24.4362  -19.8083 H   0  0  0  0  0  0  0  0  0  0  0  0
  1  2  2  0
  1  3  1  1
  1  4  1  0
  1  8  1  0
  5  6  2  0
  5  7  1  1
  5  8  1  0
  5 12  1  0
  9 10  2  0
  9 11  1  6
  9 12  1  0
  9 13  1  0
 13 14  1  0
 15 14  1  0
 15 16  1  0
 15 17  1  0
 16 21  1  0
 17 18  1  0
 17 19  1  0
 19 20  1  0
 19 21  1  0
 21 22  1  0
 22 23  1  0
 22 31  1  0
 23 24  2  0
 24 25  1  0
 25 26  2  0
 25 31  1  0
 26 27  1  0
 26 28  1  0
 28 29  2  0
 29 30  1  0
 30 31  2  0
  8 32  1  0
  8 33  1  0
 14 34  1  0
 14 35  1  0
 15 36  1  1
 17 37  1  6
 18 38  1  0
 19 39  1  1
 20 40  1  0
 21 41  1  1
 23 42  1  0
 27 43  1  0
 27 44  1  0
 29 45  1  0
M  CHG  4   3  -1   4  -1   7  -1  11  -1
M  END
>  <filename_input>  (7) 
7WCF_ACP_docked.sdf

>  <pdb_id>  (7) 
7WCF_ACP

>  <pose_rank>  (7) 
6

>  <num_atoms_heavy>  (7) 
31

>  <num_torsions>  (7) 
8

>  <pose>  (7) 
[6.862975847009373, -21.88287486914092, -21.073996145049414, -4.2665371363038735, -1.6340471615189363, 4.043572498480055, -0.023288473365754896, 1.8215178733621902, -0.3292645373160945, 0.7643505132765501, -5.503571731291561, -0.5531099055741704, -2.120989571540481, 0.8280430682691721]

>  <energy>  (7) 
-960.2834308863434

>  <inter_energy>  (7) 
-978.450196075303

>  <intra_energy>  (7) 
11.590637175491882

>  <rmsd>  (7) 
1.93272

>  <sdf_rank>  (7) 
0

$$$$

     RDKit          3D

 45 47  0  0  0  0  0  0  0  0999 V2000
    3.1024  -18.1661  -23.1590 P   0  0  1  0  0  0  0  0  0  0  0  0
    2.0791  -17.0842  -23.3948 O   0  0  0  0  0  0  0  0  0  0  0  0
    4.0678  -18.2659  -24.3075 O   0  0  0  0  0  0  0  0  0  0  0  0
    3.7292  -17.8720  -21.8326 O   0  0  0  0  0  0  0  0  0  0  0  0
    3.0158  -20.8730  -21.7655 P   0  0  2  0  0  0  0  0  0  0  0  0
    2.2088  -22.1011  -22.0885 O   0  0  0  0  0  0  0  0  0  0  0  0
    3.0730  -20.4829  -20.3154 O   0  0  0  0  0  0  0  0  0  0  0  0
    2.1917  -19.6956  -22.8391 C   0  0  0  0  0  0  0  0  0  0  0  0
    5.8552  -21.6835  -21.3964 P   0  0  2  0  0  0  0  0  0  0  0  0
    5.7723  -23.1846  -21.4125 O   0  0  0  0  0  0  0  0  0  0  0  0
    6.0973  -21.0913  -20.0421 O   0  0  0  0  0  0  0  0  0  0  0  0
    4.5723  -21.0396  -22.1777 O   0  0  0  0  0  0  0  0  0  0  0  0
    7.0788  -21.2112  -22.3485 O   0  0  0  0  0  0  0  0  0  0  0  0
    6.9103  -20.0613  -23.1461 C   0  0  0  0  0  0  0  0  0  0  0  0
    8.3179  -19.4635  -23.3696 C   0  0  1  0  0  0  0  0  0  0  0  0
    8.9521  -19.3443  -22.2047 O   0  0  0  0  0  0  0  0  0  0  0  0
    9.1905  -20.4031  -24.2346 C   0  0  1  0  0  0  0  0  0  0  0  0
    9.0061  -20.2732  -25.5994 O   0  0  0  0  0  0  0  0  0  0  0  0
   10.5911  -19.9760  -23.7674 C   0  0  1  0  0  0  0  0  0  0  0  0
   10.9360  -18.7158  -24.4902 O   0  0  0  0  0  0  0  0  0  0  0  0
   10.4765  -19.7424  -22.4591 C   0  0  2  0  0  0  0  0  0  0  0  0
   10.7397  -20.8927  -21.6148 N   0  0  0  0  0  0  0  0  0  0  0  0
    9.8474  -21.6413  -20.9329 C   0  0  0  0  0  0  0  0  0  0  0  0
   10.4988  -22.6044  -20.2779 N   0  0  0  0  0  0  0  0  0  0  0  0
   11.8142  -22.4478  -20.5352 C   0  0  0  0  0  0  0  0  0  0  0  0
   12.9312  -23.1304  -20.1008 C   0  0  0  0  0  0  0  0  0  0  0  0
   12.9070  -24.2616  -19.2127 N   0  0  0  0  0  0  0  0  0  0  0  0
   14.1366  -22.7487  -20.5105 N   0  0  0  0  0  0  0  0  0  0  0  0
   14.2561  -21.6892  -21.3343 C   0  0  0  0  0  0  0  0  0  0  0  0
   13.1747  -21.0019  -21.7623 N   0  0  0  0  0  0  0  0  0  0  0  0
   11.9543  -21.3841  -21.3385 C   0  0  0  0  0  0  0  0  0  0  0  0
    1.2313  -19.4276  -22.3746 H   0  0  0  0  0  0  0  0  0  0  0  0
    2.0880  -20.1955  -23.8134 H   0  0  0  0  0  0  0  0  0  0  0  0
    6.4565  -20.3326  -24.1108 H   0  0  0  0  0  0  0  0  0  0  0  0
    6.2458  -19.3345  -22.6560 H   0  0  0  0  0  0  0  0  0  0  0  0
    8.1785  -18.4909  -23.8642 H   0  0  0  0  0  0  0  0  0  0  0  0
    8.9577  -21.4697  -24.1002 H   0  0  0  0  0  0  0  0  0  0  0  0
    8.2090  -19.7122  -25.7728 H   0  0  0  0  0  0  0  0  0  0  0  0
   11.3690  -20.7287  -23.9630 H   0  0  0  0  0  0  0  0  0  0  0  0
   11.1315  -18.0015  -23.8333 H   0  0  0  0  0  0  0  0  0  0  0  0
   11.2161  -18.9699  -22.2016 H   0  0  0  0  0  0  0  0  0  0  0  0
    8.7589  -21.4831  -20.9192 H   0  0  0  0  0  0  0  0  0  0  0  0
   13.7881  -24.7172  -18.9350 H   0  0  0  0  0  0  0  0  0  0  0  0
   12.0087  -24.6162  -18.8546 H   0  0  0  0  0  0  0  0  0  0  0  0
   15.2573  -21.3767  -21.6660 H   0  0  0  0  0  0  0  0  0  0  0  0
  1  2  2  0
  1  3  1  6
  1  4  1  0
  1  8  1  0
  5  6  2  0
  5  7  1  1
  5  8  1  0
  5 12  1  0
  9 10  2  0
  9 11  1  1
  9 12  1  0
  9 13  1  0
 13 14  1  0
 15 14  1  0
 15 16  1  0
 15 17  1  0
 16 21  1  0
 17 18  1  0
 17 19  1  0
 19 20  1  0
 19 21  1  0
 21 22  1  0
 22 23  1  0
 22 31  1  0
 23 24  2  0
 24 25  1  0
 25 26  2  0
 25 31  1  0
 26 27  1  0
 26 28  1  0
 28 29  2  0
 29 30  1  0
 30 31  2  0
  8 32  1  0
  8 33  1  0
 14 34  1  0
 14 35  1  0
 15 36  1  6
 17 37  1  1
 18 38  1  0
 19 39  1  1
 20 40  1  0
 21 41  1  1
 23 42  1  0
 27 43  1  0
 27 44  1  0
 29 45  1  0
M  CHG  4   3  -1   4  -1   7  -1  11  -1
M  END
>  <filename_input>  (8) 
7WCF_ACP_docked.sdf

>  <pdb_id>  (8) 
7WCF_ACP

>  <pose_rank>  (8) 
7

>  <num_atoms_heavy>  (8) 
31

>  <num_torsions>  (8) 
8

>  <pose>  (8) 
[8.31787201681676, -19.46350642072765, -23.369579229096022, -2.9530887475204897, 0.5395694629899284, -1.0395526700667594, -0.3881181197213888, 0.14976248232590725, -0.8941696269255786, 1.3324429716564212, -0.016018616331108716, 3.7102885936063075, 0.29535997677338643, 1.9631433939890415]

>  <energy>  (8) 
-849.6718526780223

>  <inter_energy>  (8) 
-855.4070860581805

>  <intra_energy>  (8) 
17.076601847936637

>  <rmsd>  (8) 
3.82978

>  <sdf_rank>  (8) 
0

$$$$

     RDKit          3D

 45 47  0  0  0  0  0  0  0  0999 V2000
    0.0519  -23.3773  -22.5243 P   0  0  1  0  0  0  0  0  0  0  0  0
    0.5347  -24.4425  -21.5728 O   0  0  0  0  0  0  0  0  0  0  0  0
    0.8032  -23.4248  -23.8259 O   0  0  0  0  0  0  0  0  0  0  0  0
   -1.4285  -23.5585  -22.6442 O   0  0  0  0  0  0  0  0  0  0  0  0
    1.8193  -21.0419  -21.6883 P   0  0  2  0  0  0  0  0  0  0  0  0
    1.6823  -20.1254  -20.5030 O   0  0  0  0  0  0  0  0  0  0  0  0
    2.1992  -20.3890  -22.9874 O   0  0  0  0  0  0  0  0  0  0  0  0
    0.1909  -21.7939  -21.6613 C   0  0  0  0  0  0  0  0  0  0  0  0
    4.1185  -22.3417  -20.3174 P   0  0  2  0  0  0  0  0  0  0  0  0
    3.7762  -23.5051  -19.4289 O   0  0  0  0  0  0  0  0  0  0  0  0
    4.4487  -21.0784  -19.5835 O   0  0  0  0  0  0  0  0  0  0  0  0
    2.9735  -22.1553  -21.4686 O   0  0  0  0  0  0  0  0  0  0  0  0
    5.4134  -22.7241  -21.2139 O   0  0  0  0  0  0  0  0  0  0  0  0
    6.6187  -22.0273  -20.9933 C   0  0  0  0  0  0  0  0  0  0  0  0
    7.5673  -22.9996  -20.2563 C   0  0  1  0  0  0  0  0  0  0  0  0
    8.6196  -23.2781  -21.0234 O   0  0  0  0  0  0  0  0  0  0  0  0
    8.1369  -22.3542  -18.9712 C   0  0  1  0  0  0  0  0  0  0  0  0
    7.3139  -22.4436  -17.8629 O   0  0  0  0  0  0  0  0  0  0  0  0
    9.4423  -23.1522  -18.8246 C   0  0  1  0  0  0  0  0  0  0  0  0
    9.0928  -24.4673  -18.2097 O   0  0  0  0  0  0  0  0  0  0  0  0
    9.8960  -23.3281  -20.0666 C   0  0  2  0  0  0  0  0  0  0  0  0
   10.7927  -22.2880  -20.5350 N   0  0  0  0  0  0  0  0  0  0  0  0
   10.4702  -21.1343  -21.1568 C   0  0  0  0  0  0  0  0  0  0  0  0
   11.5887  -20.4565  -21.4222 N   0  0  0  0  0  0  0  0  0  0  0  0
   12.6246  -21.1999  -20.9805 C   0  0  0  0  0  0  0  0  0  0  0  0
   13.9894  -21.0054  -21.0226 C   0  0  0  0  0  0  0  0  0  0  0  0
   14.6362  -19.8522  -21.5890 N   0  0  0  0  0  0  0  0  0  0  0  0
   14.8016  -21.9253  -20.5119 N   0  0  0  0  0  0  0  0  0  0  0  0
   14.2836  -23.0457  -19.9715 C   0  0  0  0  0  0  0  0  0  0  0  0
   12.9503  -23.2587  -19.9302 N   0  0  0  0  0  0  0  0  0  0  0  0
   12.1289  -22.3298  -20.4570 C   0  0  0  0  0  0  0  0  0  0  0  0
   -0.5152  -21.0907  -22.1269 H   0  0  0  0  0  0  0  0  0  0  0  0
   -0.0273  -22.0054  -20.6041 H   0  0  0  0  0  0  0  0  0  0  0  0
    7.0607  -21.7216  -21.9530 H   0  0  0  0  0  0  0  0  0  0  0  0
    6.4460  -21.1178  -20.3992 H   0  0  0  0  0  0  0  0  0  0  0  0
    6.9818  -23.8997  -20.0175 H   0  0  0  0  0  0  0  0  0  0  0  0
    8.2611  -21.2635  -19.0427 H   0  0  0  0  0  0  0  0  0  0  0  0
    7.8609  -22.3842  -17.0400 H   0  0  0  0  0  0  0  0  0  0  0  0
   10.1969  -22.6512  -18.2004 H   0  0  0  0  0  0  0  0  0  0  0  0
    9.1143  -24.3865  -17.2233 H   0  0  0  0  0  0  0  0  0  0  0  0
   10.4570  -24.2742  -20.0759 H   0  0  0  0  0  0  0  0  0  0  0  0
    9.4501  -20.8058  -21.4047 H   0  0  0  0  0  0  0  0  0  0  0  0
   15.6638  -19.7825  -21.5813 H   0  0  0  0  0  0  0  0  0  0  0  0
   14.0718  -19.0963  -22.0024 H   0  0  0  0  0  0  0  0  0  0  0  0
   14.9621  -23.8043  -19.5543 H   0  0  0  0  0  0  0  0  0  0  0  0
  1  2  2  0
  1  3  1  6
  1  4  1  0
  1  8  1  0
  5  6  2  0
  5  7  1  6
  5  8  1  0
  5 12  1  0
  9 10  2  0
  9 11  1  1
  9 12  1  0
  9 13  1  0
 13 14  1  0
 15 14  1  0
 15 16  1  0
 15 17  1  0
 16 21  1  0
 17 18  1  0
 17 19  1  0
 19 20  1  0
 19 21  1  0
 21 22  1  0
 22 23  1  0
 22 31  1  0
 23 24  2  0
 24 25  1  0
 25 26  2  0
 25 31  1  0
 26 27  1  0
 26 28  1  0
 28 29  2  0
 29 30  1  0
 30 31  2  0
  8 32  1  0
  8 33  1  0
 14 34  1  0
 14 35  1  0
 15 36  1  1
 17 37  1  6
 18 38  1  0
 19 39  1  1
 20 40  1  0
 21 41  1  1
 23 42  1  0
 27 43  1  0
 27 44  1  0
 29 45  1  0
M  CHG  4   3  -1   4  -1   7  -1  11  -1
M  END
>  <filename_input>  (9) 
7WCF_ACP_docked.sdf

>  <pdb_id>  (9) 
7WCF_ACP

>  <pose_rank>  (9) 
8

>  <num_atoms_heavy>  (9) 
31

>  <num_torsions>  (9) 
8

>  <pose>  (9) 
[7.5673164271179525, -22.999622858194282, -20.25626011530771, -1.4386789742694805, -5.280524604187742, -2.6347914149152216, -0.07761275921854255, 9.317863309942775, 4.579262860275886, 3.1756673547003174, 0.5655347075732734, -7.522916716481569, 0.36551277085803785, -6.5365663147516395]

>  <energy>  (9) 
-820.6946721079308

>  <inter_energy>  (9) 
-818.4099480176385

>  <intra_energy>  (9) 
9.358773375744343

>  <rmsd>  (9) 
3.66794

>  <sdf_rank>  (9) 
0

$$$$

     RDKit          3D

 45 47  0  0  0  0  0  0  0  0999 V2000
    2.2504  -18.1283  -23.2902 P   0  0  1  0  0  0  0  0  0  0  0  0
    3.0645  -17.6549  -22.1128 O   0  0  0  0  0  0  0  0  0  0  0  0
    1.3319  -19.2542  -22.9032 O   0  0  0  0  0  0  0  0  0  0  0  0
    1.5657  -16.9183  -23.8434 O   0  0  0  0  0  0  0  0  0  0  0  0
    4.9571  -19.2990  -24.0515 P   0  0  2  0  0  0  0  0  0  0  0  0
    5.7129  -18.0475  -23.6962 O   0  0  0  0  0  0  0  0  0  0  0  0
    5.6193  -20.2103  -25.0461 O   0  0  0  0  0  0  0  0  0  0  0  0
    3.4181  -18.5601  -24.6021 C   0  0  0  0  0  0  0  0  0  0  0  0
    5.2513  -20.1772  -21.2235 P   0  0  2  0  0  0  0  0  0  0  0  0
    4.0903  -20.0872  -20.2726 O   0  0  0  0  0  0  0  0  0  0  0  0
    6.3138  -19.1447  -21.0029 O   0  0  0  0  0  0  0  0  0  0  0  0
    4.7133  -20.2507  -22.7650 O   0  0  0  0  0  0  0  0  0  0  0  0
    5.9559  -21.6278  -21.0618 O   0  0  0  0  0  0  0  0  0  0  0  0
    7.3599  -21.7121  -21.1554 C   0  0  0  0  0  0  0  0  0  0  0  0
    7.7558  -23.1221  -20.6617 C   0  0  1  0  0  0  0  0  0  0  0  0
    8.7774  -23.5855  -21.3793 O   0  0  0  0  0  0  0  0  0  0  0  0
    8.2499  -23.0802  -19.1966 C   0  0  1  0  0  0  0  0  0  0  0  0
    7.2468  -23.1158  -18.2447 O   0  0  0  0  0  0  0  0  0  0  0  0
    9.1483  -24.3271  -19.1794 C   0  0  1  0  0  0  0  0  0  0  0  0
    8.2576  -25.5150  -19.0210 O   0  0  0  0  0  0  0  0  0  0  0  0
    9.7472  -24.3535  -20.3710 C   0  0  2  0  0  0  0  0  0  0  0  0
   11.0185  -23.6561  -20.4237 N   0  0  0  0  0  0  0  0  0  0  0  0
   12.2068  -24.0613  -19.9283 C   0  0  0  0  0  0  0  0  0  0  0  0
   13.1257  -23.1284  -20.1857 N   0  0  0  0  0  0  0  0  0  0  0  0
   12.5051  -22.1193  -20.8317 C   0  0  0  0  0  0  0  0  0  0  0  0
   12.9560  -20.9033  -21.3012 C   0  0  0  0  0  0  0  0  0  0  0  0
   14.3118  -20.4349  -21.1950 N   0  0  0  0  0  0  0  0  0  0  0  0
   12.1088  -20.0750  -21.9036 N   0  0  0  0  0  0  0  0  0  0  0  0
   10.8146  -20.4256  -22.0362 C   0  0  0  0  0  0  0  0  0  0  0  0
   10.3522  -21.6077  -21.5739 N   0  0  0  0  0  0  0  0  0  0  0  0
   11.2101  -22.4419  -20.9549 C   0  0  0  0  0  0  0  0  0  0  0  0
    2.9218  -19.2733  -25.2767 H   0  0  0  0  0  0  0  0  0  0  0  0
    3.6939  -17.6116  -25.0860 H   0  0  0  0  0  0  0  0  0  0  0  0
    7.6790  -21.5726  -22.1988 H   0  0  0  0  0  0  0  0  0  0  0  0
    7.8437  -20.9314  -20.5500 H   0  0  0  0  0  0  0  0  0  0  0  0
    6.8632  -23.7578  -20.7573 H   0  0  0  0  0  0  0  0  0  0  0  0
    8.7509  -22.1390  -18.9264 H   0  0  0  0  0  0  0  0  0  0  0  0
    7.6493  -23.1015  -17.3403 H   0  0  0  0  0  0  0  0  0  0  0  0
    9.8918  -24.3229  -18.3687 H   0  0  0  0  0  0  0  0  0  0  0  0
    8.1201  -25.6983  -18.0579 H   0  0  0  0  0  0  0  0  0  0  0  0
    9.9412  -25.4088  -20.6132 H   0  0  0  0  0  0  0  0  0  0  0  0
   12.3885  -25.0078  -19.3980 H   0  0  0  0  0  0  0  0  0  0  0  0
   14.5688  -19.5116  -21.5722 H   0  0  0  0  0  0  0  0  0  0  0  0
   15.0258  -21.0229  -20.7417 H   0  0  0  0  0  0  0  0  0  0  0  0
   10.1185  -19.7333  -22.5323 H   0  0  0  0  0  0  0  0  0  0  0  0
  1  2  2  0
  1  3  1  1
  1  4  1  0
  1  8  1  0
  5  6  2  0
  5  7  1  6
  5  8  1  0
  5 12  1  0
  9 10  2  0
  9 11  1  6
  9 12  1  0
  9 13  1  0
 13 14  1  0
 15 14  1  0
 15 16  1  0
 15 17  1  0
 16 21  1  0
 17 18  1  0
 17 19  1  0
 19 20  1  0
 19 21  1  0
 21 22  1  0
 22 23  1  0
 22 31  1  0
 23 24  2  0
 24 25  1  0
 25 26  2  0
 25 31  1  0
 26 27  1  0
 26 28  1  0
 28 29  2  0
 29 30  1  0
 30 31  2  0
  8 32  1  0
  8 33  1  0
 14 34  1  0
 14 35  1  0
 15 36  1  1
 17 37  1  6
 18 38  1  0
 19 39  1  1
 20 40  1  0
 21 41  1  6
 23 42  1  0
 27 43  1  0
 27 44  1  0
 29 45  1  0
M  CHG  4   3  -1   4  -1   7  -1  11  -1
M  END
>  <filename_input>  (10) 
7WCF_ACP_docked.sdf

>  <pdb_id>  (10) 
7WCF_ACP

>  <pose_rank>  (10) 
9

>  <num_atoms_heavy>  (10) 
31

>  <num_torsions>  (10) 
8

>  <pose>  (10) 
[7.755823617481445, -23.122063890303004, -20.66173680963064, -4.741424084651101, -0.10573671840947191, 3.4125423146459717, 2.7787335084649496, -2.7574478017156516, -0.6299460558347424, 2.665672668848525, 0.7774084420808526, -1.200173893905764, 1.7021054186437707, -1.069021109044969]

>  <energy>  (10) 
-739.8334194545422

>  <inter_energy>  (10) 
-807.3285155312742

>  <intra_energy>  (10) 
71.67438554582175

>  <rmsd>  (10) 
2.02903

>  <sdf_rank>  (10) 
0

$$$$

     RDKit          3D

 45 47  0  0  0  0  0  0  0  0999 V2000
    2.0897  -17.8495  -23.7442 P   0  0  1  0  0  0  0  0  0  0  0  0
    0.6075  -18.1113  -23.6565 O   0  0  0  0  0  0  0  0  0  0  0  0
    2.3712  -16.4531  -24.2257 O   0  0  0  0  0  0  0  0  0  0  0  0
    2.6565  -18.1786  -22.3991 O   0  0  0  0  0  0  0  0  0  0  0  0
    4.5855  -19.1921  -24.8599 P   0  0  2  0  0  0  0  0  0  0  0  0
    4.8913  -17.9429  -24.0791 O   0  0  0  0  0  0  0  0  0  0  0  0
    5.1755  -19.2693  -26.2398 O   0  0  0  0  0  0  0  0  0  0  0  0
    2.7935  -19.1387  -24.7995 C   0  0  0  0  0  0  0  0  0  0  0  0
    5.7659  -20.7809  -22.6378 P   0  0  2  0  0  0  0  0  0  0  0  0
    6.4063  -22.1394  -22.5703 O   0  0  0  0  0  0  0  0  0  0  0  0
    4.8026  -20.4947  -21.5272 O   0  0  0  0  0  0  0  0  0  0  0  0
    5.1488  -20.5219  -24.1289 O   0  0  0  0  0  0  0  0  0  0  0  0
    6.9221  -19.6473  -22.5695 O   0  0  0  0  0  0  0  0  0  0  0  0
    7.8460  -19.5584  -23.6304 C   0  0  0  0  0  0  0  0  0  0  0  0
    9.2374  -19.3428  -22.9932 C   0  0  1  0  0  0  0  0  0  0  0  0
    9.2208  -19.7341  -21.7204 O   0  0  0  0  0  0  0  0  0  0  0  0
   10.3098  -20.2119  -23.6912 C   0  0  1  0  0  0  0  0  0  0  0  0
   10.8412  -19.6628  -24.8443 O   0  0  0  0  0  0  0  0  0  0  0  0
   11.3338  -20.3425  -22.5526 C   0  0  1  0  0  0  0  0  0  0  0  0
   12.1327  -19.0813  -22.5261 O   0  0  0  0  0  0  0  0  0  0  0  0
   10.6144  -20.4579  -21.4353 C   0  0  2  0  0  0  0  0  0  0  0  0
   10.2917  -21.8226  -21.0629 N   0  0  0  0  0  0  0  0  0  0  0  0
    9.0809  -22.4189  -21.0693 C   0  0  0  0  0  0  0  0  0  0  0  0
    9.2157  -23.6804  -20.6552 N   0  0  0  0  0  0  0  0  0  0  0  0
   10.5199  -23.8728  -20.3676 C   0  0  0  0  0  0  0  0  0  0  0  0
   11.2099  -24.9613  -19.8764 C   0  0  0  0  0  0  0  0  0  0  0  0
   10.6167  -26.2322  -19.5571 N   0  0  0  0  0  0  0  0  0  0  0  0
   12.5200  -24.8722  -19.6706 N   0  0  0  0  0  0  0  0  0  0  0  0
   13.1582  -23.7142  -19.9299 C   0  0  0  0  0  0  0  0  0  0  0  0
   12.4979  -22.6342  -20.4017 N   0  0  0  0  0  0  0  0  0  0  0  0
   11.1684  -22.7231  -20.6006 C   0  0  0  0  0  0  0  0  0  0  0  0
    2.4375  -20.1116  -24.4297 H   0  0  0  0  0  0  0  0  0  0  0  0
    2.4631  -18.9062  -25.8226 H   0  0  0  0  0  0  0  0  0  0  0  0
    7.8385  -20.4882  -24.2181 H   0  0  0  0  0  0  0  0  0  0  0  0
    7.5899  -18.7313  -24.3089 H   0  0  0  0  0  0  0  0  0  0  0  0
    9.4733  -18.2730  -23.0923 H   0  0  0  0  0  0  0  0  0  0  0  0
    9.9207  -21.1638  -24.0818 H   0  0  0  0  0  0  0  0  0  0  0  0
   11.5090  -18.9728  -24.6039 H   0  0  0  0  0  0  0  0  0  0  0  0
   12.0147  -21.1986  -22.6688 H   0  0  0  0  0  0  0  0  0  0  0  0
   12.3005  -18.8165  -21.5871 H   0  0  0  0  0  0  0  0  0  0  0  0
   11.2123  -20.0273  -20.6185 H   0  0  0  0  0  0  0  0  0  0  0  0
    8.1356  -21.9421  -21.3677 H   0  0  0  0  0  0  0  0  0  0  0  0
   11.2026  -26.9972  -19.1934 H   0  0  0  0  0  0  0  0  0  0  0  0
    9.6059  -26.3771  -19.6920 H   0  0  0  0  0  0  0  0  0  0  0  0
   14.2418  -23.6466  -19.7533 H   0  0  0  0  0  0  0  0  0  0  0  0
  1  2  2  0
  1  3  1  6
  1  4  1  0
  1  8  1  0
  5  6  2  0
  5  7  1  6
  5  8  1  0
  5 12  1  0
  9 10  2  0
  9 11  1  1
  9 12  1  0
  9 13  1  0
 13 14  1  0
 15 14  1  0
 15 16  1  0
 15 17  1  0
 16 21  1  0
 17 18  1  0
 17 19  1  0
 19 20  1  0
 19 21  1  0
 21 22  1  0
 22 23  1  0
 22 31  1  0
 23 24  2  0
 24 25  1  0
 25 26  2  0
 25 31  1  0
 26 27  1  0
 26 28  1  0
 28 29  2  0
 29 30  1  0
 30 31  2  0
  8 32  1  0
  8 33  1  0
 14 34  1  0
 14 35  1  0
 15 36  1  1
 17 37  1  6
 18 38  1  0
 19 39  1  6
 20 40  1  0
 21 41  1  1
 23 42  1  0
 27 43  1  0
 27 44  1  0
 29 45  1  0
M  CHG  4   3  -1   4  -1   7  -1  11  -1
M  END
>  <filename_input>  (11) 
7WCF_ACP_docked.sdf

>  <pdb_id>  (11) 
7WCF_ACP

>  <pose_rank>  (11) 
10

>  <num_atoms_heavy>  (11) 
31

>  <num_torsions>  (11) 
8

>  <pose>  (11) 
[9.237388321641069, -19.342818128980433, -22.993169665747292, -2.2646054710388275, 0.9152095486629028, -1.4480422918403362, -0.480749250063824, 1.3753297885224134, 0.32413511360437824, 0.01178859255860198, 2.026973428969076, -0.8907590294937064, 3.0221416327219033, 1.600972387758885]

>  <energy>  (11) 
-695.2694910036678

>  <inter_energy>  (11) 
-734.905883246306

>  <intra_energy>  (11) 
43.46671970640723

>  <rmsd>  (11) 
3.47007

>  <sdf_rank>  (11) 
0

$$$$

     RDKit          3D

 45 47  0  0  0  0  0  0  0  0999 V2000
    7.7773  -27.5630  -17.3747 P   0  0  1  0  0  0  0  0  0  0  0  0
    6.7455  -28.6619  -17.4071 O   0  0  0  0  0  0  0  0  0  0  0  0
    7.5602  -26.6428  -16.2055 O   0  0  0  0  0  0  0  0  0  0  0  0
    9.1126  -28.2373  -17.4065 O   0  0  0  0  0  0  0  0  0  0  0  0
    8.5198  -25.1285  -19.0475 P   0  0  2  0  0  0  0  0  0  0  0  0
    8.5729  -24.9484  -20.5402 O   0  0  0  0  0  0  0  0  0  0  0  0
    9.8349  -25.0447  -18.3251 O   0  0  0  0  0  0  0  0  0  0  0  0
    7.7135  -26.7294  -18.9785 C   0  0  0  0  0  0  0  0  0  0  0  0
    6.0895  -23.4731  -18.5905 P   0  0  2  0  0  0  0  0  0  0  0  0
    5.4988  -22.9350  -17.3170 O   0  0  0  0  0  0  0  0  0  0  0  0
    5.2250  -24.4680  -19.3020 O   0  0  0  0  0  0  0  0  0  0  0  0
    7.6159  -23.9948  -18.3277 O   0  0  0  0  0  0  0  0  0  0  0  0
    6.3444  -22.2441  -19.6159 O   0  0  0  0  0  0  0  0  0  0  0  0
    5.3658  -21.9623  -20.5906 C   0  0  0  0  0  0  0  0  0  0  0  0
    5.9728  -20.9035  -21.5387 C   0  0  1  0  0  0  0  0  0  0  0  0
    6.9648  -20.2595  -20.9267 O   0  0  0  0  0  0  0  0  0  0  0  0
    6.6028  -21.5687  -22.7850 C   0  0  1  0  0  0  0  0  0  0  0  0
    5.7114  -21.8538  -23.8037 O   0  0  0  0  0  0  0  0  0  0  0  0
    7.6393  -20.4997  -23.1661 C   0  0  1  0  0  0  0  0  0  0  0  0
    6.9153  -19.4203  -23.9012 O   0  0  0  0  0  0  0  0  0  0  0  0
    8.1147  -20.0335  -22.0102 C   0  0  2  0  0  0  0  0  0  0  0  0
    9.2831  -20.7343  -21.5110 N   0  0  0  0  0  0  0  0  0  0  0  0
    9.3320  -21.6907  -20.5600 C   0  0  0  0  0  0  0  0  0  0  0  0
   10.5994  -22.0742  -20.3944 N   0  0  0  0  0  0  0  0  0  0  0  0
   11.3561  -21.3385  -21.2353 C   0  0  0  0  0  0  0  0  0  0  0  0
   12.7163  -21.2928  -21.4586 C   0  0  0  0  0  0  0  0  0  0  0  0
   13.6864  -22.1110  -20.7815 N   0  0  0  0  0  0  0  0  0  0  0  0
   13.2078  -20.4464  -22.3579 N   0  0  0  0  0  0  0  0  0  0  0  0
   12.3732  -19.6310  -23.0316 C   0  0  0  0  0  0  0  0  0  0  0  0
   11.0392  -19.6539  -22.8195 N   0  0  0  0  0  0  0  0  0  0  0  0
   10.5437  -20.5056  -21.9006 C   0  0  0  0  0  0  0  0  0  0  0  0
    8.1947  -27.3837  -19.7202 H   0  0  0  0  0  0  0  0  0  0  0  0
    6.6485  -26.5407  -19.1793 H   0  0  0  0  0  0  0  0  0  0  0  0
    5.1164  -22.8748  -21.1518 H   0  0  0  0  0  0  0  0  0  0  0  0
    4.4404  -21.5917  -20.1255 H   0  0  0  0  0  0  0  0  0  0  0  0
    5.1564  -20.2247  -21.8262 H   0  0  0  0  0  0  0  0  0  0  0  0
    7.0139  -22.5703  -22.5905 H   0  0  0  0  0  0  0  0  0  0  0  0
    4.8441  -22.1312  -23.4152 H   0  0  0  0  0  0  0  0  0  0  0  0
    8.4546  -20.8823  -23.7977 H   0  0  0  0  0  0  0  0  0  0  0  0
    6.4993  -18.8001  -23.2513 H   0  0  0  0  0  0  0  0  0  0  0  0
    8.4066  -18.9864  -22.1782 H   0  0  0  0  0  0  0  0  0  0  0  0
    8.4668  -22.0897  -20.0102 H   0  0  0  0  0  0  0  0  0  0  0  0
   14.6871  -22.0159  -21.0062 H   0  0  0  0  0  0  0  0  0  0  0  0
   13.3803  -22.7921  -20.0720 H   0  0  0  0  0  0  0  0  0  0  0  0
   12.7875  -18.9303  -23.7715 H   0  0  0  0  0  0  0  0  0  0  0  0
  1  2  2  0
  1  3  1  1
  1  4  1  0
  1  8  1  0
  5  6  2  0
  5  7  1  1
  5  8  1  0
  5 12  1  0
  9 10  2  0
  9 11  1  6
  9 12  1  0
  9 13  1  0
 13 14  1  0
 15 14  1  0
 15 16  1  0
 15 17  1  0
 16 21  1  0
 17 18  1  0
 17 19  1  0
 19 20  1  0
 19 21  1  0
 21 22  1  0
 22 23  1  0
 22 31  1  0
 23 24  2  0
 24 25  1  0
 25 26  2  0
 25 31  1  0
 26 27  1  0
 26 28  1  0
 28 29  2  0
 29 30  1  0
 30 31  2  0
  8 32  1  0
  8 33  1  0
 14 34  1  0
 14 35  1  0
 15 36  1  6
 17 37  1  1
 18 38  1  0
 19 39  1  6
 20 40  1  0
 21 41  1  6
 23 42  1  0
 27 43  1  0
 27 44  1  0
 29 45  1  0
M  CHG  4   3  -1   4  -1   7  -1  11  -1
M  END
>  <filename_input>  (12) 
7WCF_ACP_docked.sdf

>  <pdb_id>  (12) 
7WCF_ACP

>  <pose_rank>  (12) 
11

>  <num_atoms_heavy>  (12) 
31

>  <num_torsions>  (12) 
8

>  <pose>  (12) 
[5.972838488542611, -20.903513233915657, -21.538726149631835, -3.1945564330561047, -0.2882424310674552, -0.14797156330360525, 6.00847360842977, -5.63570541403901, -12.837845052570726, -15.36952361383545, 1.333985797097566, -0.16553281417703863, 6.040400807355527, 1.1730689665575853]

>  <energy>  (12) 
-683.6785022830154

>  <inter_energy>  (12) 
-690.7216822486533

>  <intra_energy>  (12) 
14.051767649529305

>  <rmsd>  (12) 
6.90268

>  <sdf_rank>  (12) 
0

$$$$

     RDKit          3D

 45 47  0  0  0  0  0  0  0  0999 V2000
    2.2454  -29.2940  -17.4345 P   0  0  1  0  0  0  0  0  0  0  0  0
    2.4684  -29.6536  -15.9874 O   0  0  0  0  0  0  0  0  0  0  0  0
    2.4221  -30.4897  -18.3290 O   0  0  0  0  0  0  0  0  0  0  0  0
    0.8979  -28.6474  -17.5056 O   0  0  0  0  0  0  0  0  0  0  0  0
    5.0779  -28.1776  -17.3509 P   0  0  2  0  0  0  0  0  0  0  0  0
    5.1534  -29.6725  -17.5028 O   0  0  0  0  0  0  0  0  0  0  0  0
    5.4585  -27.6307  -16.0040 O   0  0  0  0  0  0  0  0  0  0  0  0
    3.3645  -27.9261  -17.8187 C   0  0  0  0  0  0  0  0  0  0  0  0
    6.0481  -27.2080  -19.9918 P   0  0  2  0  0  0  0  0  0  0  0  0
    5.1601  -26.0511  -20.3568 O   0  0  0  0  0  0  0  0  0  0  0  0
    5.7683  -28.4675  -20.7528 O   0  0  0  0  0  0  0  0  0  0  0  0
    6.0737  -27.4095  -18.3701 O   0  0  0  0  0  0  0  0  0  0  0  0
    7.5898  -26.8053  -20.2878 O   0  0  0  0  0  0  0  0  0  0  0  0
    7.8843  -25.4745  -20.6475 C   0  0  0  0  0  0  0  0  0  0  0  0
    8.2436  -24.7289  -19.3424 C   0  0  1  0  0  0  0  0  0  0  0  0
    9.5581  -24.5242  -19.2821 O   0  0  0  0  0  0  0  0  0  0  0  0
    7.5928  -23.3261  -19.3058 C   0  0  1  0  0  0  0  0  0  0  0  0
    6.2826  -23.3057  -18.8626 O   0  0  0  0  0  0  0  0  0  0  0  0
    8.5652  -22.6024  -18.3609 C   0  0  1  0  0  0  0  0  0  0  0  0
    8.2018  -22.9912  -16.9657 O   0  0  0  0  0  0  0  0  0  0  0  0
    9.7770  -23.0667  -18.6698 C   0  0  2  0  0  0  0  0  0  0  0  0
   10.4755  -22.3025  -19.6863 N   0  0  0  0  0  0  0  0  0  0  0  0
    9.9616  -21.3847  -20.5320 C   0  0  0  0  0  0  0  0  0  0  0  0
   10.9390  -20.9156  -21.3102 N   0  0  0  0  0  0  0  0  0  0  0  0
   12.0736  -21.5584  -20.9634 C   0  0  0  0  0  0  0  0  0  0  0  0
   13.3616  -21.4943  -21.4524 C   0  0  0  0  0  0  0  0  0  0  0  0
   13.7903  -20.6349  -22.5233 N   0  0  0  0  0  0  0  0  0  0  0  0
   14.3063  -22.2645  -20.9223 N   0  0  0  0  0  0  0  0  0  0  0  0
   13.9924  -23.1112  -19.9223 C   0  0  0  0  0  0  0  0  0  0  0  0
   12.7346  -23.1956  -19.4369 N   0  0  0  0  0  0  0  0  0  0  0  0
   11.7762  -22.4212  -19.9818 C   0  0  0  0  0  0  0  0  0  0  0  0
    3.3310  -27.7554  -18.9049 H   0  0  0  0  0  0  0  0  0  0  0  0
    3.0112  -27.0702  -17.2250 H   0  0  0  0  0  0  0  0  0  0  0  0
    8.7351  -25.4500  -21.3443 H   0  0  0  0  0  0  0  0  0  0  0  0
    7.0269  -25.0020  -21.1491 H   0  0  0  0  0  0  0  0  0  0  0  0
    7.8847  -25.3503  -18.5087 H   0  0  0  0  0  0  0  0  0  0  0  0
    7.4770  -22.8672  -20.2988 H   0  0  0  0  0  0  0  0  0  0  0  0
    6.2690  -23.3055  -17.8727 H   0  0  0  0  0  0  0  0  0  0  0  0
    8.5324  -21.5066  -18.4503 H   0  0  0  0  0  0  0  0  0  0  0  0
    8.7170  -22.4400  -16.3248 H   0  0  0  0  0  0  0  0  0  0  0  0
   10.3836  -23.0253  -17.7531 H   0  0  0  0  0  0  0  0  0  0  0  0
    8.9073  -21.0736  -20.5731 H   0  0  0  0  0  0  0  0  0  0  0  0
   14.7732  -20.6465  -22.8309 H   0  0  0  0  0  0  0  0  0  0  0  0
   13.1143  -20.0079  -22.9825 H   0  0  0  0  0  0  0  0  0  0  0  0
   14.7786  -23.7485  -19.4912 H   0  0  0  0  0  0  0  0  0  0  0  0
  1  2  2  0
  1  3  1  6
  1  4  1  0
  1  8  1  0
  5  6  2  0
  5  7  1  1
  5  8  1  0
  5 12  1  0
  9 10  2  0
  9 11  1  6
  9 12  1  0
  9 13  1  0
 13 14  1  0
 15 14  1  0
 15 16  1  0
 15 17  1  0
 16 21  1  0
 17 18  1  0
 17 19  1  0
 19 20  1  0
 19 21  1  0
 21 22  1  0
 22 23  1  0
 22 31  1  0
 23 24  2  0
 24 25  1  0
 25 26  2  0
 25 31  1  0
 26 27  1  0
 26 28  1  0
 28 29  2  0
 29 30  1  0
 30 31  2  0
  8 32  1  0
  8 33  1  0
 14 34  1  0
 14 35  1  0
 15 36  1  1
 17 37  1  6
 18 38  1  0
 19 39  1  1
 20 40  1  0
 21 41  1  1
 23 42  1  0
 27 43  1  0
 27 44  1  0
 29 45  1  0
M  CHG  4   3  -1   4  -1   7  -1  11  -1
M  END
>  <filename_input>  (13) 
7WCF_ACP_docked.sdf

>  <pdb_id>  (13) 
7WCF_ACP

>  <pose_rank>  (13) 
12

>  <num_atoms_heavy>  (13) 
31

>  <num_torsions>  (13) 
8

>  <pose>  (13) 
[8.243614800562641, -24.728861933978465, -19.342389707137063, -1.042515168939228, -0.34085845331245296, 0.6401078690244355, 1.2008717692018203, -3.4175102765671266, -1.9318145479549482, 5.289129274830459, 0.1339457904803281, 0.14875899411390822, 3.6757936288124182, -0.8164526610762747]

>  <energy>  (13) 
-768.6980276176414

>  <inter_energy>  (13) 
-774.8341818595471

>  <intra_energy>  (13) 
16.682344576984722

>  <rmsd>  (13) 
7.50152

>  <sdf_rank>  (13) 
0

$$$$

     RDKit          3D

 45 47  0  0  0  0  0  0  0  0999 V2000
    6.6285  -29.9989  -16.0949 P   0  0  1  0  0  0  0  0  0  0  0  0
    6.9925  -28.5532  -16.3202 O   0  0  0  0  0  0  0  0  0  0  0  0
    7.8544  -30.8494  -15.9089 O   0  0  0  0  0  0  0  0  0  0  0  0
    5.6681  -30.0181  -14.9477 O   0  0  0  0  0  0  0  0  0  0  0  0
    4.8815  -29.1703  -18.4482 P   0  0  2  0  0  0  0  0  0  0  0  0
    4.1756  -28.4304  -17.3447 O   0  0  0  0  0  0  0  0  0  0  0  0
    4.0265  -29.6011  -19.6065 O   0  0  0  0  0  0  0  0  0  0  0  0
    5.5944  -30.5078  -17.4888 C   0  0  0  0  0  0  0  0  0  0  0  0
    6.0596  -27.3557  -20.4914 P   0  0  2  0  0  0  0  0  0  0  0  0
    5.0185  -26.2751  -20.3995 O   0  0  0  0  0  0  0  0  0  0  0  0
    6.0190  -28.1480  -21.7619 O   0  0  0  0  0  0  0  0  0  0  0  0
    6.0389  -28.2750  -19.1403 O   0  0  0  0  0  0  0  0  0  0  0  0
    7.5307  -26.6822  -20.3968 O   0  0  0  0  0  0  0  0  0  0  0  0
    7.6824  -25.3325  -20.7739 C   0  0  0  0  0  0  0  0  0  0  0  0
    7.9906  -24.5408  -19.4829 C   0  0  1  0  0  0  0  0  0  0  0  0
    9.3052  -24.3701  -19.3564 O   0  0  0  0  0  0  0  0  0  0  0  0
    7.3813  -23.1203  -19.5424 C   0  0  1  0  0  0  0  0  0  0  0  0
    6.0496  -23.0444  -19.1757 O   0  0  0  0  0  0  0  0  0  0  0  0
    8.3209  -22.3833  -18.5749 C   0  0  1  0  0  0  0  0  0  0  0  0
    7.8688  -22.7006  -17.1876 O   0  0  0  0  0  0  0  0  0  0  0  0
    9.5335  -22.8939  -18.7945 C   0  0  2  0  0  0  0  0  0  0  0  0
   10.3102  -22.1944  -19.8008 N   0  0  0  0  0  0  0  0  0  0  0  0
    9.8739  -21.2928  -20.7053 C   0  0  0  0  0  0  0  0  0  0  0  0
   10.9060  -20.8884  -21.4484 N   0  0  0  0  0  0  0  0  0  0  0  0
   11.9972  -21.5564  -21.0196 C   0  0  0  0  0  0  0  0  0  0  0  0
   13.3099  -21.5561  -21.4429 C   0  0  0  0  0  0  0  0  0  0  0  0
   13.8236  -20.7542  -22.5210 N   0  0  0  0  0  0  0  0  0  0  0  0
   14.1975  -22.3376  -20.8363 N   0  0  0  0  0  0  0  0  0  0  0  0
   13.8025  -23.1335  -19.8233 C   0  0  0  0  0  0  0  0  0  0  0  0
   12.5194  -23.1552  -19.4013 N   0  0  0  0  0  0  0  0  0  0  0  0
   11.6190  -22.3697  -20.0236 C   0  0  0  0  0  0  0  0  0  0  0  0
    6.2120  -31.1180  -18.1642 H   0  0  0  0  0  0  0  0  0  0  0  0
    4.7448  -31.0532  -17.0520 H   0  0  0  0  0  0  0  0  0  0  0  0
    8.5123  -25.2298  -21.4885 H   0  0  0  0  0  0  0  0  0  0  0  0
    6.7718  -24.9539  -21.2614 H   0  0  0  0  0  0  0  0  0  0  0  0
    7.5674  -25.1151  -18.6456 H   0  0  0  0  0  0  0  0  0  0  0  0
    7.3348  -22.7022  -20.5587 H   0  0  0  0  0  0  0  0  0  0  0  0
    5.9789  -23.0403  -18.1883 H   0  0  0  0  0  0  0  0  0  0  0  0
    8.3260  -21.2919  -18.7119 H   0  0  0  0  0  0  0  0  0  0  0  0
    8.4787  -22.2725  -16.5357 H   0  0  0  0  0  0  0  0  0  0  0  0
   10.0890  -22.8293  -17.8472 H   0  0  0  0  0  0  0  0  0  0  0  0
    8.8352  -20.9470  -20.8127 H   0  0  0  0  0  0  0  0  0  0  0  0
   14.8197  -20.8119  -22.7763 H   0  0  0  0  0  0  0  0  0  0  0  0
   13.1952  -20.1224  -23.0375 H   0  0  0  0  0  0  0  0  0  0  0  0
   14.5419  -23.7805  -19.3287 H   0  0  0  0  0  0  0  0  0  0  0  0
  1  2  2  0
  1  3  1  1
  1  4  1  0
  1  8  1  0
  5  6  2  0
  5  7  1  6
  5  8  1  0
  5 12  1  0
  9 10  2  0
  9 11  1  6
  9 12  1  0
  9 13  1  0
 13 14  1  0
 15 14  1  0
 15 16  1  0
 15 17  1  0
 16 21  1  0
 17 18  1  0
 17 19  1  0
 19 20  1  0
 19 21  1  0
 21 22  1  0
 22 23  1  0
 22 31  1  0
 23 24  2  0
 24 25  1  0
 25 26  2  0
 25 31  1  0
 26 27  1  0
 26 28  1  0
 28 29  2  0
 29 30  1  0
 30 31  2  0
  8 32  1  0
  8 33  1  0
 14 34  1  0
 14 35  1  0
 15 36  1  1
 17 37  1  6
 18 38  1  0
 19 39  1  6
 20 40  1  0
 21 41  1  1
 23 42  1  0
 27 43  1  0
 27 44  1  0
 29 45  1  0
M  CHG  4   3  -1   4  -1   7  -1  11  -1
M  END
>  <filename_input>  (14) 
7WCF_ACP_docked.sdf

>  <pdb_id>  (14) 
7WCF_ACP

>  <pose_rank>  (14) 
13

>  <num_atoms_heavy>  (14) 
31

>  <num_torsions>  (14) 
8

>  <pose>  (14) 
[7.9906458176723945, -24.540811104845925, -19.48289042455619, -1.1062012950049103, -0.36190769655540206, 0.5950987194210575, 1.2107232805269361, -72.68699593768363, -20.46836947098526, -14.125523459659455, -12.85911874049774, -27.901241772105585, -16.674715301460925, 4.286694297228052]

>  <energy>  (14) 
-762.6756459170226

>  <inter_energy>  (14) 
-767.6070244937014

>  <intra_energy>  (14) 
18.67855001300458

>  <rmsd>  (14) 
7.93539

>  <sdf_rank>  (14) 
0

$$$$

     RDKit          3D

 45 47  0  0  0  0  0  0  0  0999 V2000
    3.2947  -19.5605  -22.5940 P   0  0  1  0  0  0  0  0  0  0  0  0
    3.5675  -18.2096  -21.9824 O   0  0  0  0  0  0  0  0  0  0  0  0
    2.1553  -20.2549  -21.9008 O   0  0  0  0  0  0  0  0  0  0  0  0
    3.0936  -19.3276  -24.0583 O   0  0  0  0  0  0  0  0  0  0  0  0
    6.3301  -19.5199  -22.8410 P   0  0  2  0  0  0  0  0  0  0  0  0
    6.4520  -18.8498  -21.4994 O   0  0  0  0  0  0  0  0  0  0  0  0
    6.2704  -18.6061  -24.0325 O   0  0  0  0  0  0  0  0  0  0  0  0
    4.8476  -20.4863  -22.5472 C   0  0  0  0  0  0  0  0  0  0  0  0
    9.1249  -20.1658  -23.6330 P   0  0  2  0  0  0  0  0  0  0  0  0
    9.4636  -18.7254  -23.3671 O   0  0  0  0  0  0  0  0  0  0  0  0
    9.4354  -20.6282  -25.0235 O   0  0  0  0  0  0  0  0  0  0  0  0
    7.5926  -20.4814  -23.1600 O   0  0  0  0  0  0  0  0  0  0  0  0
    9.9718  -21.1042  -22.6187 O   0  0  0  0  0  0  0  0  0  0  0  0
   11.0973  -20.5563  -21.9706 C   0  0  0  0  0  0  0  0  0  0  0  0
   11.4801  -21.5354  -20.8378 C   0  0  1  0  0  0  0  0  0  0  0  0
   10.6852  -21.3479  -19.7860 O   0  0  0  0  0  0  0  0  0  0  0  0
   11.2667  -23.0036  -21.2756 C   0  0  1  0  0  0  0  0  0  0  0  0
   12.3129  -23.5525  -21.9951 O   0  0  0  0  0  0  0  0  0  0  0  0
   11.0586  -23.6661  -19.9045 C   0  0  1  0  0  0  0  0  0  0  0  0
   12.4083  -23.8674  -19.2984 O   0  0  0  0  0  0  0  0  0  0  0  0
   10.3550  -22.7895  -19.1862 C   0  0  2  0  0  0  0  0  0  0  0  0
    8.9158  -22.9468  -19.2824 N   0  0  0  0  0  0  0  0  0  0  0  0
    8.0295  -22.1181  -19.8734 C   0  0  0  0  0  0  0  0  0  0  0  0
    6.8029  -22.6263  -19.7388 N   0  0  0  0  0  0  0  0  0  0  0  0
    6.9173  -23.7750  -19.0401 C   0  0  0  0  0  0  0  0  0  0  0  0
    5.9820  -24.6835  -18.5907 C   0  0  0  0  0  0  0  0  0  0  0  0
    4.5647  -24.5795  -18.8135 N   0  0  0  0  0  0  0  0  0  0  0  0
    6.3770  -25.7477  -17.8992 N   0  0  0  0  0  0  0  0  0  0  0  0
    7.6862  -25.9202  -17.6315 C   0  0  0  0  0  0  0  0  0  0  0  0
    8.6160  -25.0361  -18.0543 N   0  0  0  0  0  0  0  0  0  0  0  0
    8.2130  -23.9530  -18.7468 C   0  0  0  0  0  0  0  0  0  0  0  0
    4.9363  -20.9499  -21.5536 H   0  0  0  0  0  0  0  0  0  0  0  0
    4.7917  -21.2128  -23.3713 H   0  0  0  0  0  0  0  0  0  0  0  0
   11.9310  -20.4543  -22.6809 H   0  0  0  0  0  0  0  0  0  0  0  0
   10.8745  -19.5564  -21.5699 H   0  0  0  0  0  0  0  0  0  0  0  0
   12.5363  -21.3476  -20.5947 H   0  0  0  0  0  0  0  0  0  0  0  0
   10.4400  -23.1357  -21.9891 H   0  0  0  0  0  0  0  0  0  0  0  0
   12.9924  -23.9090  -21.3695 H   0  0  0  0  0  0  0  0  0  0  0  0
   10.5389  -24.6341  -19.9576 H   0  0  0  0  0  0  0  0  0  0  0  0
   12.3319  -23.8560  -18.3114 H   0  0  0  0  0  0  0  0  0  0  0  0
   10.6318  -22.9377  -18.1319 H   0  0  0  0  0  0  0  0  0  0  0  0
    8.2781  -21.1758  -20.3836 H   0  0  0  0  0  0  0  0  0  0  0  0
    3.9308  -25.3021  -18.4436 H   0  0  0  0  0  0  0  0  0  0  0  0
    4.1838  -23.7823  -19.3430 H   0  0  0  0  0  0  0  0  0  0  0  0
    8.0053  -26.8012  -17.0553 H   0  0  0  0  0  0  0  0  0  0  0  0
  1  2  2  0
  1  3  1  1
  1  4  1  0
  1  8  1  0
  5  6  2  0
  5  7  1  6
  5  8  1  0
  5 12  1  0
  9 10  2  0
  9 11  1  6
  9 12  1  0
  9 13  1  0
 13 14  1  0
 15 14  1  0
 15 16  1  0
 15 17  1  0
 16 21  1  0
 17 18  1  0
 17 19  1  0
 19 20  1  0
 19 21  1  0
 21 22  1  0
 22 23  1  0
 22 31  1  0
 23 24  2  0
 24 25  1  0
 25 26  2  0
 25 31  1  0
 26 27  1  0
 26 28  1  0
 28 29  2  0
 29 30  1  0
 30 31  2  0
  8 32  1  0
  8 33  1  0
 14 34  1  0
 14 35  1  0
 15 36  1  1
 17 37  1  6
 18 38  1  0
 19 39  1  6
 20 40  1  0
 21 41  1  1
 23 42  1  0
 27 43  1  0
 27 44  1  0
 29 45  1  0
M  CHG  4   3  -1   4  -1   7  -1  11  -1
M  END
>  <filename_input>  (15) 
7WCF_ACP_docked.sdf

>  <pdb_id>  (15) 
7WCF_ACP

>  <pose_rank>  (15) 
14

>  <num_atoms_heavy>  (15) 
31

>  <num_torsions>  (15) 
8

>  <pose>  (15) 
[11.480086384950072, -21.535443780045757, -20.837824698113987, -1.1660890465188514, 2.1815827365555878, -2.2243601958523307, -0.4747568279746319, 5.911775718306991, -0.6555352207517761, 4.845042719685919, -1.014343193188296, -2.4160825764854916, -1.7999608213290346, 3.945709429898562]

>  <energy>  (15) 
-747.5333647351063

>  <inter_energy>  (15) 
-747.5365477690145

>  <intra_energy>  (15) 
11.540639746668301

>  <rmsd>  (15) 
4.78068

>  <sdf_rank>  (15) 
0

$$$$

     RDKit          3D

 45 47  0  0  0  0  0  0  0  0999 V2000
    1.0707  -21.5434  -21.3644 P   0  0  1  0  0  0  0  0  0  0  0  0
    1.3672  -23.0098  -21.5517 O   0  0  0  0  0  0  0  0  0  0  0  0
    0.5618  -20.9213  -22.6352 O   0  0  0  0  0  0  0  0  0  0  0  0
    0.1382  -21.4473  -20.1982 O   0  0  0  0  0  0  0  0  0  0  0  0
    3.7338  -20.1995  -21.9796 P   0  0  2  0  0  0  0  0  0  0  0  0
    4.4868  -19.1841  -21.1637 O   0  0  0  0  0  0  0  0  0  0  0  0
    3.1033  -19.6927  -23.2460 O   0  0  0  0  0  0  0  0  0  0  0  0
    2.5806  -20.7746  -20.7317 C   0  0  0  0  0  0  0  0  0  0  0  0
    6.1882  -21.4254  -23.1321 P   0  0  2  0  0  0  0  0  0  0  0  0
    6.8118  -20.0607  -23.0378 O   0  0  0  0  0  0  0  0  0  0  0  0
    6.2493  -22.0410  -24.4962 O   0  0  0  0  0  0  0  0  0  0  0  0
    4.6879  -21.4058  -22.4843 O   0  0  0  0  0  0  0  0  0  0  0  0
    6.9594  -22.4302  -22.1210 O   0  0  0  0  0  0  0  0  0  0  0  0
    7.3190  -21.9587  -20.8423 C   0  0  0  0  0  0  0  0  0  0  0  0
    7.9721  -23.1447  -20.0970 C   0  0  1  0  0  0  0  0  0  0  0  0
    9.0019  -23.6125  -20.7998 O   0  0  0  0  0  0  0  0  0  0  0  0
    8.5551  -22.6941  -18.7370 C   0  0  1  0  0  0  0  0  0  0  0  0
    7.6409  -22.6495  -17.6999 O   0  0  0  0  0  0  0  0  0  0  0  0
    9.6427  -23.7626  -18.5428 C   0  0  1  0  0  0  0  0  0  0  0  0
    8.9696  -24.9952  -18.0355 O   0  0  0  0  0  0  0  0  0  0  0  0
   10.1522  -23.9799  -19.7563 C   0  0  2  0  0  0  0  0  0  0  0  0
   11.2867  -23.1409  -20.0941 N   0  0  0  0  0  0  0  0  0  0  0  0
   12.4635  -23.0368  -19.4415 C   0  0  0  0  0  0  0  0  0  0  0  0
   13.2362  -22.1537  -20.0771 N   0  0  0  0  0  0  0  0  0  0  0  0
   12.5313  -21.6843  -21.1276 C   0  0  0  0  0  0  0  0  0  0  0  0
   12.8216  -20.7420  -22.0919 C   0  0  0  0  0  0  0  0  0  0  0  0
   14.0597  -20.0152  -22.1817 N   0  0  0  0  0  0  0  0  0  0  0  0
   11.9201  -20.4563  -23.0259 N   0  0  0  0  0  0  0  0  0  0  0  0
   10.7257  -21.0797  -23.0121 C   0  0  0  0  0  0  0  0  0  0  0  0
   10.4191  -21.9980  -22.0700 N   0  0  0  0  0  0  0  0  0  0  0  0
   11.3303  -22.2793  -21.1183 C   0  0  0  0  0  0  0  0  0  0  0  0
    2.2890  -19.9111  -20.1157 H   0  0  0  0  0  0  0  0  0  0  0  0
    3.1083  -21.5603  -20.1711 H   0  0  0  0  0  0  0  0  0  0  0  0
    8.0342  -21.1278  -20.9322 H   0  0  0  0  0  0  0  0  0  0  0  0
    6.4394  -21.5858  -20.2970 H   0  0  0  0  0  0  0  0  0  0  0  0
    7.1898  -23.9051  -19.9565 H   0  0  0  0  0  0  0  0  0  0  0  0
    8.9149  -21.6546  -18.7336 H   0  0  0  0  0  0  0  0  0  0  0  0
    8.1218  -22.6730  -16.8348 H   0  0  0  0  0  0  0  0  0  0  0  0
   10.4311  -23.4650  -17.8358 H   0  0  0  0  0  0  0  0  0  0  0  0
    8.9729  -24.9892  -17.0455 H   0  0  0  0  0  0  0  0  0  0  0  0
   10.4970  -25.0241  -19.7811 H   0  0  0  0  0  0  0  0  0  0  0  0
   12.7410  -23.5905  -18.5324 H   0  0  0  0  0  0  0  0  0  0  0  0
   14.1988  -19.3259  -22.9343 H   0  0  0  0  0  0  0  0  0  0  0  0
   14.8071  -20.1841  -21.4934 H   0  0  0  0  0  0  0  0  0  0  0  0
    9.9830  -20.8353  -23.7860 H   0  0  0  0  0  0  0  0  0  0  0  0
  1  2  2  0
  1  3  1  6
  1  4  1  0
  1  8  1  0
  5  6  2  0
  5  7  1  6
  5  8  1  0
  5 12  1  0
  9 10  2  0
  9 11  1  6
  9 12  1  0
  9 13  1  0
 13 14  1  0
 15 14  1  0
 15 16  1  0
 15 17  1  0
 16 21  1  0
 17 18  1  0
 17 19  1  0
 19 20  1  0
 19 21  1  0
 21 22  1  0
 22 23  1  0
 22 31  1  0
 23 24  2  0
 24 25  1  0
 25 26  2  0
 25 31  1  0
 26 27  1  0
 26 28  1  0
 28 29  2  0
 29 30  1  0
 30 31  2  0
  8 32  1  0
  8 33  1  0
 14 34  1  0
 14 35  1  0
 15 36  1  1
 17 37  1  6
 18 38  1  0
 19 39  1  1
 20 40  1  0
 21 41  1  1
 23 42  1  0
 27 43  1  0
 27 44  1  0
 29 45  1  0
M  CHG  4   3  -1   4  -1   7  -1  11  -1
M  END
>  <filename_input>  (16) 
7WCF_ACP_docked.sdf

>  <pdb_id>  (16) 
7WCF_ACP

>  <pose_rank>  (16) 
15

>  <num_atoms_heavy>  (16) 
31

>  <num_torsions>  (16) 
8

>  <pose>  (16) 
[7.972074070610223, -23.14467600626626, -20.09704059279666, -3.718010176920863, -2.9638813933976764, 3.8082786721717943, -3.797419834499571, -4.274877826099737, 5.821352398802213, 5.874059137764255, -1.1569128209006292, -1.8502928663568092, -0.38485098087269665, -0.15577063935152408]

>  <energy>  (16) 
-643.2747193411637

>  <inter_energy>  (16) 
-679.626785020863

>  <intra_energy>  (16) 
49.831997196565254

>  <rmsd>  (16) 
3.04459

>  <sdf_rank>  (16) 
0

$$$$

     RDKit          3D

 45 47  0  0  0  0  0  0  0  0999 V2000
    8.1472  -27.3197  -19.0365 P   0  0  1  0  0  0  0  0  0  0  0  0
    9.3444  -27.4131  -18.1248 O   0  0  0  0  0  0  0  0  0  0  0  0
    8.5638  -27.1560  -20.4720 O   0  0  0  0  0  0  0  0  0  0  0  0
    7.3093  -28.5275  -18.7574 O   0  0  0  0  0  0  0  0  0  0  0  0
    7.9670  -24.4132  -18.1443 P   0  0  2  0  0  0  0  0  0  0  0  0
    8.3648  -24.6062  -16.7061 O   0  0  0  0  0  0  0  0  0  0  0  0
    7.1604  -23.1819  -18.4467 O   0  0  0  0  0  0  0  0  0  0  0  0
    7.1159  -25.9681  -18.4195 C   0  0  0  0  0  0  0  0  0  0  0  0
   10.3963  -23.1214  -19.2780 P   0  0  2  0  0  0  0  0  0  0  0  0
   11.7635  -23.7153  -19.0827 O   0  0  0  0  0  0  0  0  0  0  0  0
   10.1322  -21.8936  -18.4617 O   0  0  0  0  0  0  0  0  0  0  0  0
    9.2516  -24.2771  -19.1198 O   0  0  0  0  0  0  0  0  0  0  0  0
   10.2175  -22.7061  -20.8344 O   0  0  0  0  0  0  0  0  0  0  0  0
    9.0017  -23.0089  -21.4801 C   0  0  0  0  0  0  0  0  0  0  0  0
    9.0180  -22.2636  -22.8339 C   0  0  1  0  0  0  0  0  0  0  0  0
    7.8017  -22.2775  -23.3759 O   0  0  0  0  0  0  0  0  0  0  0  0
    9.3816  -20.7722  -22.6436 C   0  0  1  0  0  0  0  0  0  0  0  0
   10.7380  -20.5100  -22.5737 O   0  0  0  0  0  0  0  0  0  0  0  0
    8.7096  -20.1701  -23.8878 C   0  0  1  0  0  0  0  0  0  0  0  0
    9.6181  -20.4166  -25.0470 O   0  0  0  0  0  0  0  0  0  0  0  0
    7.5697  -20.8457  -24.0416 C   0  0  2  0  0  0  0  0  0  0  0  0
    6.4270  -20.2648  -23.3619 N   0  0  0  0  0  0  0  0  0  0  0  0
    5.9898  -20.5197  -22.1107 C   0  0  0  0  0  0  0  0  0  0  0  0
    4.9073  -19.7776  -21.8692 N   0  0  0  0  0  0  0  0  0  0  0  0
    4.6507  -19.0642  -22.9854 C   0  0  0  0  0  0  0  0  0  0  0  0
    3.6490  -18.1716  -23.3051 C   0  0  0  0  0  0  0  0  0  0  0  0
    2.5869  -17.7788  -22.4181 N   0  0  0  0  0  0  0  0  0  0  0  0
    3.6280  -17.6091  -24.5091 N   0  0  0  0  0  0  0  0  0  0  0  0
    4.5772  -17.9282  -25.4106 C   0  0  0  0  0  0  0  0  0  0  0  0
    5.5603  -18.8079  -25.1196 N   0  0  0  0  0  0  0  0  0  0  0  0
    5.5747  -19.3845  -23.9020 C   0  0  0  0  0  0  0  0  0  0  0  0
    6.3147  -25.7911  -19.1521 H   0  0  0  0  0  0  0  0  0  0  0  0
    6.7507  -26.2918  -17.4337 H   0  0  0  0  0  0  0  0  0  0  0  0
    8.9205  -24.0934  -21.6457 H   0  0  0  0  0  0  0  0  0  0  0  0
    8.1417  -22.6983  -20.8686 H   0  0  0  0  0  0  0  0  0  0  0  0
    9.7584  -22.7704  -23.4701 H   0  0  0  0  0  0  0  0  0  0  0  0
    9.0457  -20.3551  -21.6827 H   0  0  0  0  0  0  0  0  0  0  0  0
   11.0153  -20.4564  -21.6248 H   0  0  0  0  0  0  0  0  0  0  0  0
    8.5157  -19.0906  -23.8046 H   0  0  0  0  0  0  0  0  0  0  0  0
   10.5181  -20.6608  -24.7148 H   0  0  0  0  0  0  0  0  0  0  0  0
    7.3415  -20.8560  -25.1176 H   0  0  0  0  0  0  0  0  0  0  0  0
    6.4512  -21.2253  -21.4041 H   0  0  0  0  0  0  0  0  0  0  0  0
    1.8752  -17.1045  -22.7338 H   0  0  0  0  0  0  0  0  0  0  0  0
    2.5381  -18.1719  -21.4673 H   0  0  0  0  0  0  0  0  0  0  0  0
    4.5511  -17.4618  -26.4064 H   0  0  0  0  0  0  0  0  0  0  0  0
  1  2  2  0
  1  3  1  6
  1  4  1  0
  1  8  1  0
  5  6  2  0
  5  7  1  1
  5  8  1  0
  5 12  1  0
  9 10  2  0
  9 11  1  1
  9 12  1  0
  9 13  1  0
 13 14  1  0
 15 14  1  0
 15 16  1  0
 15 17  1  0
 16 21  1  0
 17 18  1  0
 17 19  1  0
 19 20  1  0
 19 21  1  0
 21 22  1  0
 22 23  1  0
 22 31  1  0
 23 24  2  0
 24 25  1  0
 25 26  2  0
 25 31  1  0
 26 27  1  0
 26 28  1  0
 28 29  2  0
 29 30  1  0
 30 31  2  0
  8 32  1  0
  8 33  1  0
 14 34  1  0
 14 35  1  0
 15 36  1  6
 17 37  1  1
 18 38  1  0
 19 39  1  1
 20 40  1  0
 21 41  1  6
 23 42  1  0
 27 43  1  0
 27 44  1  0
 29 45  1  0
M  CHG  4   3  -1   4  -1   7  -1  11  -1
M  END
>  <filename_input>  (17) 
7WCF_ACP_docked.sdf

>  <pdb_id>  (17) 
7WCF_ACP

>  <pose_rank>  (17) 
16

>  <num_atoms_heavy>  (17) 
31

>  <num_torsions>  (17) 
8

>  <pose>  (17) 
[9.017963296950802, -22.263585191045784, -22.83385120904597, -0.5054891026763676, -2.9587417609990414, -2.1098355312962354, -0.12036146135798279, 4.386222085065066, -0.6070241244191888, -5.0290579477931905, 0.8222431362303494, -2.265886301301655, 1.5614520205000235, -0.8027431725247512]

>  <energy>  (17) 
-684.0639378030544

>  <inter_energy>  (17) 
-697.7002541102985

>  <intra_energy>  (17) 
18.462368301955564

>  <rmsd>  (17) 
8.50547

>  <sdf_rank>  (17) 
0

$$$$

     RDKit          3D

 45 47  0  0  0  0  0  0  0  0999 V2000
   13.1644  -21.2708  -21.3958 P   0  0  1  0  0  0  0  0  0  0  0  0
   14.2055  -21.9523  -20.5444 O   0  0  0  0  0  0  0  0  0  0  0  0
   12.7089  -19.9795  -20.7745 O   0  0  0  0  0  0  0  0  0  0  0  0
   13.7588  -21.1373  -22.7625 O   0  0  0  0  0  0  0  0  0  0  0  0
   10.9859  -23.0120  -20.1717 P   0  0  2  0  0  0  0  0  0  0  0  0
   10.5659  -21.6751  -19.6240 O   0  0  0  0  0  0  0  0  0  0  0  0
   11.8055  -23.8739  -19.2532 O   0  0  0  0  0  0  0  0  0  0  0  0
   11.8299  -22.4634  -21.6564 C   0  0  0  0  0  0  0  0  0  0  0  0
    8.1356  -23.8663  -20.1346 P   0  0  2  0  0  0  0  0  0  0  0  0
    7.9836  -23.8630  -18.6389 O   0  0  0  0  0  0  0  0  0  0  0  0
    7.2785  -24.8707  -20.8417 O   0  0  0  0  0  0  0  0  0  0  0  0
    9.7166  -23.9465  -20.5406 O   0  0  0  0  0  0  0  0  0  0  0  0
    7.7318  -22.4061  -20.7104 O   0  0  0  0  0  0  0  0  0  0  0  0
    6.5090  -22.2641  -21.3971 C   0  0  0  0  0  0  0  0  0  0  0  0
    6.8120  -21.4698  -22.6877 C   0  0  1  0  0  0  0  0  0  0  0  0
    5.7170  -21.3908  -23.4414 O   0  0  0  0  0  0  0  0  0  0  0  0
    7.2106  -20.0110  -22.3627 C   0  0  1  0  0  0  0  0  0  0  0  0
    8.5428  -19.8327  -22.0354 O   0  0  0  0  0  0  0  0  0  0  0  0
    6.8106  -19.3230  -23.6775 C   0  0  1  0  0  0  0  0  0  0  0  0
    7.9026  -19.5784  -24.6633 O   0  0  0  0  0  0  0  0  0  0  0  0
    5.6851  -19.9233  -24.0679 C   0  0  2  0  0  0  0  0  0  0  0  0
    4.4684  -19.3020  -23.5793 N   0  0  0  0  0  0  0  0  0  0  0  0
    3.7386  -19.6472  -22.4977 C   0  0  0  0  0  0  0  0  0  0  0  0
    2.6930  -18.8239  -22.3983 N   0  0  0  0  0  0  0  0  0  0  0  0
    2.7558  -17.9658  -23.4377 C   0  0  0  0  0  0  0  0  0  0  0  0
    1.9287  -16.9394  -23.8435 C   0  0  0  0  0  0  0  0  0  0  0  0
    0.7277  -16.5360  -23.1623 N   0  0  0  0  0  0  0  0  0  0  0  0
    2.2278  -16.2459  -24.9373 N   0  0  0  0  0  0  0  0  0  0  0  0
    3.3285  -16.5628  -25.6470 C   0  0  0  0  0  0  0  0  0  0  0  0
    4.1452  -17.5711  -25.2712 N   0  0  0  0  0  0  0  0  0  0  0  0
    3.8353  -18.2792  -24.1677 C   0  0  0  0  0  0  0  0  0  0  0  0
   11.0843  -21.9988  -22.3184 H   0  0  0  0  0  0  0  0  0  0  0  0
   12.3040  -23.3594  -22.0836 H   0  0  0  0  0  0  0  0  0  0  0  0
    6.0987  -23.2532  -21.6486 H   0  0  0  0  0  0  0  0  0  0  0  0
    5.7661  -21.7412  -20.7768 H   0  0  0  0  0  0  0  0  0  0  0  0
    7.6298  -21.9950  -23.2030 H   0  0  0  0  0  0  0  0  0  0  0  0
    6.7259  -19.6118  -21.4596 H   0  0  0  0  0  0  0  0  0  0  0  0
    8.6417  -19.8194  -21.0504 H   0  0  0  0  0  0  0  0  0  0  0  0
    6.6603  -18.2378  -23.5786 H   0  0  0  0  0  0  0  0  0  0  0  0
    8.7440  -19.7752  -24.1801 H   0  0  0  0  0  0  0  0  0  0  0  0
    5.6582  -19.8789  -25.1667 H   0  0  0  0  0  0  0  0  0  0  0  0
    3.9685  -20.4737  -21.8092 H   0  0  0  0  0  0  0  0  0  0  0  0
    0.1634  -15.7572  -23.5309 H   0  0  0  0  0  0  0  0  0  0  0  0
    0.4321  -17.0260  -22.3059 H   0  0  0  0  0  0  0  0  0  0  0  0
    3.5676  -15.9871  -26.5533 H   0  0  0  0  0  0  0  0  0  0  0  0
  1  2  2  0
  1  3  1  1
  1  4  1  0
  1  8  1  0
  5  6  2  0
  5  7  1  1
  5  8  1  0
  5 12  1  0
  9 10  2  0
  9 11  1  6
  9 12  1  0
  9 13  1  0
 13 14  1  0
 15 14  1  0
 15 16  1  0
 15 17  1  0
 16 21  1  0
 17 18  1  0
 17 19  1  0
 19 20  1  0
 19 21  1  0
 21 22  1  0
 22 23  1  0
 22 31  1  0
 23 24  2  0
 24 25  1  0
 25 26  2  0
 25 31  1  0
 26 27  1  0
 26 28  1  0
 28 29  2  0
 29 30  1  0
 30 31  2  0
  8 32  1  0
  8 33  1  0
 14 34  1  0
 14 35  1  0
 15 36  1  6
 17 37  1  1
 18 38  1  0
 19 39  1  1
 20 40  1  0
 21 41  1  6
 23 42  1  0
 27 43  1  0
 27 44  1  0
 29 45  1  0
M  CHG  4   3  -1   4  -1   7  -1  11  -1
M  END
>  <filename_input>  (18) 
7WCF_ACP_docked.sdf

>  <pdb_id>  (18) 
7WCF_ACP

>  <pose_rank>  (18) 
17

>  <num_atoms_heavy>  (18) 
31

>  <num_torsions>  (18) 
8

>  <pose>  (18) 
[6.812033048852521, -21.46982804478148, -22.68773385078237, -0.4450781270921491, -3.0073890627532234, -2.3499011298959527, -0.21965840630037928, -2.204927605593955, 0.4024902950844259, 3.288589416921457, 3.969601952113364, -1.3571730189916336, 4.116986445494417, -0.6149510025015394]

>  <energy>  (18) 
-712.1233586919803

>  <inter_energy>  (18) 
-706.1289649187813

>  <intra_energy>  (18) 
17.61396582943544

>  <rmsd>  (18) 
9.02159

>  <sdf_rank>  (18) 
0

$$$$

     RDKit          3D

 45 47  0  0  0  0  0  0  0  0999 V2000
    3.7485  -18.7544  -22.2288 P   0  0  1  0  0  0  0  0  0  0  0  0
    3.6507  -19.6762  -21.0398 O   0  0  0  0  0  0  0  0  0  0  0  0
    2.8106  -19.1752  -23.3262 O   0  0  0  0  0  0  0  0  0  0  0  0
    3.5277  -17.3692  -21.7078 O   0  0  0  0  0  0  0  0  0  0  0  0
    6.0381  -20.1272  -23.6950 P   0  0  2  0  0  0  0  0  0  0  0  0
    6.1300  -19.4731  -25.0468 O   0  0  0  0  0  0  0  0  0  0  0  0
    5.1603  -21.3439  -23.6085 O   0  0  0  0  0  0  0  0  0  0  0  0
    5.4859  -18.7194  -22.7302 C   0  0  0  0  0  0  0  0  0  0  0  0
    9.0032  -20.1393  -23.4436 P   0  0  2  0  0  0  0  0  0  0  0  0
    9.2159  -18.7948  -22.8056 O   0  0  0  0  0  0  0  0  0  0  0  0
    9.4225  -20.2165  -24.8795 O   0  0  0  0  0  0  0  0  0  0  0  0
    7.4764  -20.6563  -23.1740 O   0  0  0  0  0  0  0  0  0  0  0  0
    9.8636  -21.2501  -22.6358 O   0  0  0  0  0  0  0  0  0  0  0  0
    9.2058  -22.4043  -22.1648 C   0  0  0  0  0  0  0  0  0  0  0  0
    9.2438  -22.3407  -20.6211 C   0  0  1  0  0  0  0  0  0  0  0  0
    8.0099  -22.4421  -20.1307 O   0  0  0  0  0  0  0  0  0  0  0  0
   10.0338  -23.5341  -20.0344 C   0  0  1  0  0  0  0  0  0  0  0  0
   11.4055  -23.3592  -19.9957 O   0  0  0  0  0  0  0  0  0  0  0  0
    9.3930  -23.6221  -18.6402 C   0  0  1  0  0  0  0  0  0  0  0  0
   10.0270  -22.5694  -17.7920 O   0  0  0  0  0  0  0  0  0  0  0  0
    8.0995  -23.3522  -18.8228 C   0  0  2  0  0  0  0  0  0  0  0  0
    7.2707  -24.5146  -19.0822 N   0  0  0  0  0  0  0  0  0  0  0  0
    6.7583  -24.9198  -20.2632 C   0  0  0  0  0  0  0  0  0  0  0  0
    6.0517  -26.0353  -20.0704 N   0  0  0  0  0  0  0  0  0  0  0  0
    6.1046  -26.3230  -18.7531 C   0  0  0  0  0  0  0  0  0  0  0  0
    5.5360  -27.3293  -18.0007 C   0  0  0  0  0  0  0  0  0  0  0  0
    4.7058  -28.3787  -18.5285 N   0  0  0  0  0  0  0  0  0  0  0  0
    5.7471  -27.3703  -16.6890 N   0  0  0  0  0  0  0  0  0  0  0  0
    6.5024  -26.4192  -16.1055 C   0  0  0  0  0  0  0  0  0  0  0  0
    7.0593  -25.4200  -16.8241 N   0  0  0  0  0  0  0  0  0  0  0  0
    6.8364  -25.3745  -18.1521 C   0  0  0  0  0  0  0  0  0  0  0  0
    5.6473  -17.8122  -23.3310 H   0  0  0  0  0  0  0  0  0  0  0  0
    6.0702  -18.7431  -21.7986 H   0  0  0  0  0  0  0  0  0  0  0  0
    8.1640  -22.4172  -22.5178 H   0  0  0  0  0  0  0  0  0  0  0  0
    9.6960  -23.3169  -22.5347 H   0  0  0  0  0  0  0  0  0  0  0  0
    9.7173  -21.3853  -20.3510 H   0  0  0  0  0  0  0  0  0  0  0  0
    9.9643  -24.4499  -20.6397 H   0  0  0  0  0  0  0  0  0  0  0  0
   11.7069  -23.3208  -19.0535 H   0  0  0  0  0  0  0  0  0  0  0  0
    9.5231  -24.6017  -18.1569 H   0  0  0  0  0  0  0  0  0  0  0  0
    9.8936  -22.7909  -16.8364 H   0  0  0  0  0  0  0  0  0  0  0  0
    7.7315  -22.8865  -17.8967 H   0  0  0  0  0  0  0  0  0  0  0  0
    6.9002  -24.4124  -21.2288 H   0  0  0  0  0  0  0  0  0  0  0  0
    4.3182  -29.0951  -17.8981 H   0  0  0  0  0  0  0  0  0  0  0  0
    4.4990  -28.4138  -19.5369 H   0  0  0  0  0  0  0  0  0  0  0  0
    6.6695  -26.4572  -15.0189 H   0  0  0  0  0  0  0  0  0  0  0  0
  1  2  2  0
  1  3  1  6
  1  4  1  0
  1  8  1  0
  5  6  2  0
  5  7  1  6
  5  8  1  0
  5 12  1  0
  9 10  2  0
  9 11  1  6
  9 12  1  0
  9 13  1  0
 13 14  1  0
 15 14  1  0
 15 16  1  0
 15 17  1  0
 16 21  1  0
 17 18  1  0
 17 19  1  0
 19 20  1  0
 19 21  1  0
 21 22  1  0
 22 23  1  0
 22 31  1  0
 23 24  2  0
 24 25  1  0
 25 26  2  0
 25 31  1  0
 26 27  1  0
 26 28  1  0
 28 29  2  0
 29 30  1  0
 30 31  2  0
  8 32  1  0
  8 33  1  0
 14 34  1  0
 14 35  1  0
 15 36  1  6
 17 37  1  6
 18 38  1  0
 19 39  1  1
 20 40  1  0
 21 41  1  1
 23 42  1  0
 27 43  1  0
 27 44  1  0
 29 45  1  0
M  CHG  4   3  -1   4  -1   7  -1  11  -1
M  END
>  <filename_input>  (19) 
7WCF_ACP_docked.sdf

>  <pdb_id>  (19) 
7WCF_ACP

>  <pose_rank>  (19) 
18

>  <num_atoms_heavy>  (19) 
31

>  <num_torsions>  (19) 
8

>  <pose>  (19) 
[9.243788276547305, -22.34073086405526, -20.62112269461214, -0.9707046483239399, 0.7827368329629236, -2.448763939305375, -0.347758007740197, -3.073760177879723, -30.685986935433863, -17.76154804360789, 24.99113926676393, 37.132939564024156, 23.845111782349527, -0.31285136980576483]

>  <energy>  (19) 
-624.7188522641554

>  <inter_energy>  (19) 
-638.0202626584434

>  <intra_energy>  (19) 
5.827172949562958

>  <rmsd>  (19) 
5.23924

>  <sdf_rank>  (19) 
0

$$$$

     RDKit          3D

 45 47  0  0  0  0  0  0  0  0999 V2000
    1.7573  -28.7052  -20.5979 P   0  0  1  0  0  0  0  0  0  0  0  0
    1.4084  -28.9774  -22.0392 O   0  0  0  0  0  0  0  0  0  0  0  0
    0.7063  -27.8622  -19.9303 O   0  0  0  0  0  0  0  0  0  0  0  0
    1.9931  -30.0389  -19.9620 O   0  0  0  0  0  0  0  0  0  0  0  0
    3.7545  -26.8890  -19.1877 P   0  0  2  0  0  0  0  0  0  0  0  0
    3.3638  -27.8152  -18.0683 O   0  0  0  0  0  0  0  0  0  0  0  0
    3.0595  -25.5569  -19.2156 O   0  0  0  0  0  0  0  0  0  0  0  0
    3.4051  -27.9599  -20.5837 C   0  0  0  0  0  0  0  0  0  0  0  0
    6.6857  -27.4021  -19.1984 P   0  0  2  0  0  0  0  0  0  0  0  0
    6.9458  -27.8536  -20.6087 O   0  0  0  0  0  0  0  0  0  0  0  0
    6.7294  -28.4990  -18.1793 O   0  0  0  0  0  0  0  0  0  0  0  0
    5.3248  -26.4992  -19.1373 O   0  0  0  0  0  0  0  0  0  0  0  0
    7.8100  -26.3141  -18.7756 O   0  0  0  0  0  0  0  0  0  0  0  0
    8.5414  -25.6670  -19.7922 C   0  0  0  0  0  0  0  0  0  0  0  0
    8.0567  -24.1999  -19.8255 C   0  0  1  0  0  0  0  0  0  0  0  0
    8.8089  -23.4535  -19.0190 O   0  0  0  0  0  0  0  0  0  0  0  0
    8.2173  -23.5928  -21.2391 C   0  0  1  0  0  0  0  0  0  0  0  0
    7.1805  -23.8713  -22.1114 O   0  0  0  0  0  0  0  0  0  0  0  0
    8.3265  -22.1021  -20.8813 C   0  0  1  0  0  0  0  0  0  0  0  0
    6.9411  -21.5998  -20.6406 O   0  0  0  0  0  0  0  0  0  0  0  0
    9.0379  -22.0555  -19.7539 C   0  0  2  0  0  0  0  0  0  0  0  0
   10.4704  -21.9315  -19.9483 N   0  0  0  0  0  0  0  0  0  0  0  0
   11.4570  -22.5039  -19.2268 C   0  0  0  0  0  0  0  0  0  0  0  0
   12.6355  -22.1344  -19.7323 N   0  0  0  0  0  0  0  0  0  0  0  0
   12.3875  -21.3068  -20.7689 C   0  0  0  0  0  0  0  0  0  0  0  0
   13.2210  -20.6132  -21.6211 C   0  0  0  0  0  0  0  0  0  0  0  0
   14.6582  -20.6523  -21.5743 N   0  0  0  0  0  0  0  0  0  0  0  0
   12.6991  -19.8427  -22.5701 N   0  0  0  0  0  0  0  0  0  0  0  0
   11.3605  -19.7353  -22.6801 C   0  0  0  0  0  0  0  0  0  0  0  0
   10.5280  -20.3987  -21.8484 N   0  0  0  0  0  0  0  0  0  0  0  0
   11.0587  -21.1717  -20.8810 C   0  0  0  0  0  0  0  0  0  0  0  0
    4.1454  -28.7736  -20.5805 H   0  0  0  0  0  0  0  0  0  0  0  0
    3.4553  -27.3193  -21.4765 H   0  0  0  0  0  0  0  0  0  0  0  0
    9.6175  -25.7055  -19.5676 H   0  0  0  0  0  0  0  0  0  0  0  0
    8.3845  -26.1569  -20.7645 H   0  0  0  0  0  0  0  0  0  0  0  0
    7.0008  -24.2039  -19.5172 H   0  0  0  0  0  0  0  0  0  0  0  0
    9.0694  -24.0025  -21.8012 H   0  0  0  0  0  0  0  0  0  0  0  0
    6.3647  -24.0905  -21.5952 H   0  0  0  0  0  0  0  0  0  0  0  0
    8.7993  -21.4943  -21.6668 H   0  0  0  0  0  0  0  0  0  0  0  0
    6.7764  -21.5401  -19.6662 H   0  0  0  0  0  0  0  0  0  0  0  0
    8.7041  -21.1680  -19.1962 H   0  0  0  0  0  0  0  0  0  0  0  0
   11.3130  -23.1679  -18.3617 H   0  0  0  0  0  0  0  0  0  0  0  0
   15.2105  -20.1035  -22.2485 H   0  0  0  0  0  0  0  0  0  0  0  0
   15.1349  -21.2292  -20.8665 H   0  0  0  0  0  0  0  0  0  0  0  0
   10.9358  -19.0926  -23.4653 H   0  0  0  0  0  0  0  0  0  0  0  0
  1  2  2  0
  1  3  1  1
  1  4  1  0
  1  8  1  0
  5  6  2  0
  5  7  1  6
  5  8  1  0
  5 12  1  0
  9 10  2  0
  9 11  1  1
  9 12  1  0
  9 13  1  0
 13 14  1  0
 15 14  1  0
 15 16  1  0
 15 17  1  0
 16 21  1  0
 17 18  1  0
 17 19  1  0
 19 20  1  0
 19 21  1  0
 21 22  1  0
 22 23  1  0
 22 31  1  0
 23 24  2  0
 24 25  1  0
 25 26  2  0
 25 31  1  0
 26 27  1  0
 26 28  1  0
 28 29  2  0
 29 30  1  0
 30 31  2  0
  8 32  1  0
  8 33  1  0
 14 34  1  0
 14 35  1  0
 15 36  1  1
 17 37  1  6
 18 38  1  0
 19 39  1  6
 20 40  1  0
 21 41  1  1
 23 42  1  0
 27 43  1  0
 27 44  1  0
 29 45  1  0
M  CHG  4   3  -1   4  -1   7  -1  11  -1
M  END
>  <filename_input>  (20) 
7WCF_ACP_docked.sdf

>  <pdb_id>  (20) 
7WCF_ACP

>  <pose_rank>  (20) 
19

>  <num_atoms_heavy>  (20) 
31

>  <num_torsions>  (20) 
8

>  <pose>  (20) 
[8.056720529803624, -24.199919178500362, -19.825467083935543, -2.262860255611983, -1.0068703245461228, 0.21044784163141186, -1.02679908428587, -16.238579456085898, 17.1945696504218, -13.368184892308859, 0.0046274116799714755, -6.327158521040338, -2.2386766006612775, 0.9791993526245694]

>  <energy>  (20) 
-688.4792380025135

>  <inter_energy>  (20) 
-689.7129733540299

>  <intra_energy>  (20) 
18.84669234959462

>  <rmsd>  (20) 
6.97335

>  <sdf_rank>  (20) 
0

$$$$

     RDKit          3D

 45 47  0  0  0  0  0  0  0  0999 V2000
   10.7260  -23.5816  -19.3220 P   0  0  1  0  0  0  0  0  0  0  0  0
   10.7558  -23.0587  -17.9082 O   0  0  0  0  0  0  0  0  0  0  0  0
   12.1007  -23.9709  -19.7906 O   0  0  0  0  0  0  0  0  0  0  0  0
    9.7170  -24.6863  -19.3420 O   0  0  0  0  0  0  0  0  0  0  0  0
   10.7283  -21.9979  -21.9237 P   0  0  2  0  0  0  0  0  0  0  0  0
   11.3116  -23.3616  -22.1764 O   0  0  0  0  0  0  0  0  0  0  0  0
   11.6993  -20.8511  -21.9402 O   0  0  0  0  0  0  0  0  0  0  0  0
    9.9434  -22.3086  -20.3409 C   0  0  0  0  0  0  0  0  0  0  0  0
    8.9189  -20.1633  -23.4121 P   0  0  2  0  0  0  0  0  0  0  0  0
    9.4068  -19.6705  -24.7459 O   0  0  0  0  0  0  0  0  0  0  0  0
    8.9894  -19.1477  -22.3133 O   0  0  0  0  0  0  0  0  0  0  0  0
    9.6321  -21.5862  -23.0413 O   0  0  0  0  0  0  0  0  0  0  0  0
    7.3670  -20.6101  -23.5488 O   0  0  0  0  0  0  0  0  0  0  0  0
    6.4124  -19.6379  -23.9103 C   0  0  0  0  0  0  0  0  0  0  0  0
    5.0554  -20.1132  -23.3438 C   0  0  1  0  0  0  0  0  0  0  0  0
    5.1430  -21.3850  -22.9587 O   0  0  0  0  0  0  0  0  0  0  0  0
    4.6691  -19.3116  -22.0786 C   0  0  1  0  0  0  0  0  0  0  0  0
    4.0506  -18.0992  -22.3261 O   0  0  0  0  0  0  0  0  0  0  0  0
    3.7524  -20.3306  -21.3833 C   0  0  1  0  0  0  0  0  0  0  0  0
    2.4164  -20.2512  -22.0452 O   0  0  0  0  0  0  0  0  0  0  0  0
    4.3086  -21.5226  -21.6052 C   0  0  2  0  0  0  0  0  0  0  0  0
    5.2539  -21.9466  -20.5894 N   0  0  0  0  0  0  0  0  0  0  0  0
    6.3290  -21.2749  -20.1262 C   0  0  0  0  0  0  0  0  0  0  0  0
    6.9357  -22.0146  -19.1958 N   0  0  0  0  0  0  0  0  0  0  0  0
    6.2468  -23.1697  -19.0872 C   0  0  0  0  0  0  0  0  0  0  0  0
    6.4412  -24.2958  -18.3149 C   0  0  0  0  0  0  0  0  0  0  0  0
    7.5140  -24.4684  -17.3724 N   0  0  0  0  0  0  0  0  0  0  0  0
    5.5976  -25.3178  -18.4168 N   0  0  0  0  0  0  0  0  0  0  0  0
    4.5693  -25.2493  -19.2849 C   0  0  0  0  0  0  0  0  0  0  0  0
    4.3684  -24.1592  -20.0571 N   0  0  0  0  0  0  0  0  0  0  0  0
    5.2300  -23.1281  -19.9595 C   0  0  0  0  0  0  0  0  0  0  0  0
    8.9052  -22.6180  -20.5321 H   0  0  0  0  0  0  0  0  0  0  0  0
   10.0281  -21.3711  -19.7719 H   0  0  0  0  0  0  0  0  0  0  0  0
    6.6825  -18.6629  -23.4785 H   0  0  0  0  0  0  0  0  0  0  0  0
    6.3644  -19.5187  -25.0027 H   0  0  0  0  0  0  0  0  0  0  0  0
    4.3091  -19.9743  -24.1399 H   0  0  0  0  0  0  0  0  0  0  0  0
    5.5339  -18.9794  -21.4854 H   0  0  0  0  0  0  0  0  0  0  0  0
    3.8272  -17.6613  -21.4668 H   0  0  0  0  0  0  0  0  0  0  0  0
    3.6321  -20.1505  -20.3048 H   0  0  0  0  0  0  0  0  0  0  0  0
    1.7080  -20.2091  -21.3549 H   0  0  0  0  0  0  0  0  0  0  0  0
    3.4942  -22.2618  -21.6251 H   0  0  0  0  0  0  0  0  0  0  0  0
    6.6528  -20.2785  -20.4614 H   0  0  0  0  0  0  0  0  0  0  0  0
    7.5896  -25.3423  -16.8325 H   0  0  0  0  0  0  0  0  0  0  0  0
    8.2066  -23.7181  -17.2374 H   0  0  0  0  0  0  0  0  0  0  0  0
    3.8776  -26.1006  -19.3667 H   0  0  0  0  0  0  0  0  0  0  0  0
  1  2  2  0
  1  3  1  6
  1  4  1  0
  1  8  1  0
  5  6  2  0
  5  7  1  1
  5  8  1  0
  5 12  1  0
  9 10  2  0
  9 11  1  1
  9 12  1  0
  9 13  1  0
 13 14  1  0
 15 14  1  0
 15 16  1  0
 15 17  1  0
 16 21  1  0
 17 18  1  0
 17 19  1  0
 19 20  1  0
 19 21  1  0
 21 22  1  0
 22 23  1  0
 22 31  1  0
 23 24  2  0
 24 25  1  0
 25 26  2  0
 25 31  1  0
 26 27  1  0
 26 28  1  0
 28 29  2  0
 29 30  1  0
 30 31  2  0
  8 32  1  0
  8 33  1  0
 14 34  1  0
 14 35  1  0
 15 36  1  6
 17 37  1  1
 18 38  1  0
 19 39  1  1
 20 40  1  0
 21 41  1  6
 23 42  1  0
 27 43  1  0
 27 44  1  0
 29 45  1  0
M  CHG  4   3  -1   4  -1   7  -1  11  -1
M  END
>  <filename_input>  (21) 
7WCF_ACP_docked.sdf

>  <pdb_id>  (21) 
7WCF_ACP

>  <pose_rank>  (21) 
20

>  <num_atoms_heavy>  (21) 
31

>  <num_torsions>  (21) 
8

>  <pose>  (21) 
[5.055371905767606, -20.113211169917097, -23.343763546750736, 0.25472908523150956, 3.331284391082097, 3.3534142898877537, 0.5278269910401684, -5.4898311575768535, 0.031889817146381796, -8.493779770542735, 0.6053725428503303, 2.295258245279658, -2.634652662796765, 0.6980250443337994]

>  <energy>  (21) 
-616.494611073555

>  <inter_energy>  (21) 
-653.5147343323491

>  <intra_energy>  (21) 
47.25336850736521

>  <rmsd>  (21) 
7.06691

>  <sdf_rank>  (21) 
0

$$$$

     RDKit          3D

 45 47  0  0  0  0  0  0  0  0999 V2000
    5.5434  -17.9618  -25.8057 P   0  0  1  0  0  0  0  0  0  0  0  0
    6.8450  -18.0483  -25.0498 O   0  0  0  0  0  0  0  0  0  0  0  0
    5.4480  -16.6803  -26.5864 O   0  0  0  0  0  0  0  0  0  0  0  0
    5.4491  -19.2088  -26.6273 O   0  0  0  0  0  0  0  0  0  0  0  0
    4.7032  -18.9186  -23.0388 P   0  0  2  0  0  0  0  0  0  0  0  0
    3.3618  -19.4203  -22.5780 O   0  0  0  0  0  0  0  0  0  0  0  0
    5.4242  -17.9986  -22.0943 O   0  0  0  0  0  0  0  0  0  0  0  0
    4.2144  -18.1787  -24.5982 C   0  0  0  0  0  0  0  0  0  0  0  0
    6.4654  -21.1846  -22.2545 P   0  0  2  0  0  0  0  0  0  0  0  0
    6.8365  -22.4432  -22.9882 O   0  0  0  0  0  0  0  0  0  0  0  0
    5.6966  -21.4095  -20.9888 O   0  0  0  0  0  0  0  0  0  0  0  0
    5.7570  -20.1241  -23.2765 O   0  0  0  0  0  0  0  0  0  0  0  0
    7.8185  -20.3872  -21.8545 O   0  0  0  0  0  0  0  0  0  0  0  0
    8.9660  -20.5574  -22.6553 C   0  0  0  0  0  0  0  0  0  0  0  0
   10.1805  -20.5587  -21.6996 C   0  0  1  0  0  0  0  0  0  0  0  0
    9.8344  -21.0798  -20.5240 O   0  0  0  0  0  0  0  0  0  0  0  0
   11.3164  -21.4563  -22.2446 C   0  0  1  0  0  0  0  0  0  0  0  0
   12.1454  -20.8462  -23.1687 O   0  0  0  0  0  0  0  0  0  0  0  0
   12.0301  -21.8148  -20.9314 C   0  0  1  0  0  0  0  0  0  0  0  0
   12.8958  -20.6547  -20.5647 O   0  0  0  0  0  0  0  0  0  0  0  0
   11.0610  -21.9725  -20.0285 C   0  0  2  0  0  0  0  0  0  0  0  0
   10.5547  -23.3276  -19.9163 N   0  0  0  0  0  0  0  0  0  0  0  0
   11.1132  -24.4623  -20.3877 C   0  0  0  0  0  0  0  0  0  0  0  0
   10.3287  -25.4954  -20.0743 N   0  0  0  0  0  0  0  0  0  0  0  0
    9.2580  -25.0032  -19.4169 C   0  0  0  0  0  0  0  0  0  0  0  0
    8.1318  -25.6064  -18.8972 C   0  0  0  0  0  0  0  0  0  0  0  0
    7.8601  -27.0180  -18.9482 N   0  0  0  0  0  0  0  0  0  0  0  0
    7.2064  -24.8658  -18.2957 N   0  0  0  0  0  0  0  0  0  0  0  0
    7.3711  -23.5310  -18.2130 C   0  0  0  0  0  0  0  0  0  0  0  0
    8.4623  -22.9210  -18.7248 N   0  0  0  0  0  0  0  0  0  0  0  0
    9.3947  -23.6719  -19.3428 C   0  0  0  0  0  0  0  0  0  0  0  0
    3.7857  -17.1886  -24.3842 H   0  0  0  0  0  0  0  0  0  0  0  0
    3.5014  -18.8804  -25.0557 H   0  0  0  0  0  0  0  0  0  0  0  0
    8.9104  -21.5123  -23.1986 H   0  0  0  0  0  0  0  0  0  0  0  0
    9.0506  -19.7526  -23.4003 H   0  0  0  0  0  0  0  0  0  0  0  0
   10.5155  -19.5152  -21.6052 H   0  0  0  0  0  0  0  0  0  0  0  0
   10.9576  -22.3148  -22.8313 H   0  0  0  0  0  0  0  0  0  0  0  0
   12.8454  -20.3310  -22.6946 H   0  0  0  0  0  0  0  0  0  0  0  0
   12.6506  -22.7204  -21.0006 H   0  0  0  0  0  0  0  0  0  0  0  0
   12.9500  -20.5820  -19.5789 H   0  0  0  0  0  0  0  0  0  0  0  0
   11.4813  -21.6969  -19.0501 H   0  0  0  0  0  0  0  0  0  0  0  0
   12.0619  -24.5254  -20.9409 H   0  0  0  0  0  0  0  0  0  0  0  0
    6.9932  -27.3908  -18.5354 H   0  0  0  0  0  0  0  0  0  0  0  0
    8.5324  -27.6559  -19.3974 H   0  0  0  0  0  0  0  0  0  0  0  0
    6.5992  -22.9241  -17.7172 H   0  0  0  0  0  0  0  0  0  0  0  0
  1  2  2  0
  1  3  1  6
  1  4  1  0
  1  8  1  0
  5  6  2  0
  5  7  1  1
  5  8  1  0
  5 12  1  0
  9 10  2  0
  9 11  1  1
  9 12  1  0
  9 13  1  0
 13 14  1  0
 15 14  1  0
 15 16  1  0
 15 17  1  0
 16 21  1  0
 17 18  1  0
 17 19  1  0
 19 20  1  0
 19 21  1  0
 21 22  1  0
 22 23  1  0
 22 31  1  0
 23 24  2  0
 24 25  1  0
 25 26  2  0
 25 31  1  0
 26 27  1  0
 26 28  1  0
 28 29  2  0
 29 30  1  0
 30 31  2  0
  8 32  1  0
  8 33  1  0
 14 34  1  0
 14 35  1  0
 15 36  1  1
 17 37  1  6
 18 38  1  0
 19 39  1  6
 20 40  1  0
 21 41  1  1
 23 42  1  0
 27 43  1  0
 27 44  1  0
 29 45  1  0
M  CHG  4   3  -1   4  -1   7  -1  11  -1
M  END
>  <filename_input>  (22) 
7WCF_ACP_docked.sdf

>  <pdb_id>  (22) 
7WCF_ACP

>  <pose_rank>  (22) 
21

>  <num_atoms_heavy>  (22) 
31

>  <num_torsions>  (22) 
8

>  <pose>  (22) 
[10.180546740918356, -20.558743993112362, -21.6996167173125, -1.9431272154214383, 1.0134776769151235, -1.610039604111501, 8.0106320465467, -10.98741217224622, -24.90359402443258, -0.6509169379339572, 7.646277555362458, -2.2347189054698307, -5.909576205713225, -2.012232977705935]

>  <energy>  (22) 
-616.3336701100607

>  <inter_energy>  (22) 
-638.7798416373976

>  <intra_energy>  (22) 
19.05480524791791

>  <rmsd>  (22) 
4.5703

>  <sdf_rank>  (22) 
0

$$$$

     RDKit          3D

 45 47  0  0  0  0  0  0  0  0999 V2000
    3.8193  -22.2792  -20.3331 P   0  0  1  0  0  0  0  0  0  0  0  0
    4.1879  -22.7899  -21.7030 O   0  0  0  0  0  0  0  0  0  0  0  0
    3.5087  -20.8083  -20.3627 O   0  0  0  0  0  0  0  0  0  0  0  0
    2.7042  -23.1491  -19.8447 O   0  0  0  0  0  0  0  0  0  0  0  0
    5.4015  -24.4686  -18.9262 P   0  0  2  0  0  0  0  0  0  0  0  0
    5.6468  -24.9236  -20.3392 O   0  0  0  0  0  0  0  0  0  0  0  0
    4.2695  -25.1420  -18.2027 O   0  0  0  0  0  0  0  0  0  0  0  0
    5.1792  -22.7135  -19.2226 C   0  0  0  0  0  0  0  0  0  0  0  0
    8.2871  -24.7598  -18.2597 P   0  0  2  0  0  0  0  0  0  0  0  0
    8.7736  -26.1782  -18.3662 O   0  0  0  0  0  0  0  0  0  0  0  0
    9.0831  -23.9006  -17.3260 O   0  0  0  0  0  0  0  0  0  0  0  0
    6.6791  -24.7355  -17.9687 O   0  0  0  0  0  0  0  0  0  0  0  0
    8.3572  -24.0654  -19.7225 O   0  0  0  0  0  0  0  0  0  0  0  0
    9.1938  -24.6363  -20.7029 C   0  0  0  0  0  0  0  0  0  0  0  0
   10.1073  -23.5038  -21.2240 C   0  0  1  0  0  0  0  0  0  0  0  0
    9.5732  -22.9523  -22.3121 O   0  0  0  0  0  0  0  0  0  0  0  0
   10.2281  -22.3640  -20.1853 C   0  0  1  0  0  0  0  0  0  0  0  0
   11.1803  -22.5719  -19.2037 O   0  0  0  0  0  0  0  0  0  0  0  0
   10.5609  -21.1863  -21.1150 C   0  0  1  0  0  0  0  0  0  0  0  0
   12.0162  -21.2723  -21.4381 O   0  0  0  0  0  0  0  0  0  0  0  0
    9.8307  -21.3803  -22.2143 C   0  0  2  0  0  0  0  0  0  0  0  0
    8.5205  -20.7575  -22.1869 N   0  0  0  0  0  0  0  0  0  0  0  0
    7.7312  -20.5353  -21.1149 C   0  0  0  0  0  0  0  0  0  0  0  0
    6.6070  -19.9404  -21.5190 N   0  0  0  0  0  0  0  0  0  0  0  0
    6.6823  -19.8051  -22.8594 C   0  0  0  0  0  0  0  0  0  0  0  0
    5.8014  -19.2957  -23.7904 C   0  0  0  0  0  0  0  0  0  0  0  0
    4.5101  -18.7427  -23.4808 N   0  0  0  0  0  0  0  0  0  0  0  0
    6.1317  -19.2949  -25.0779 N   0  0  0  0  0  0  0  0  0  0  0  0
    7.3180  -19.8057  -25.4619 C   0  0  0  0  0  0  0  0  0  0  0  0
    8.1895  -20.3183  -24.5661 N   0  0  0  0  0  0  0  0  0  0  0  0
    7.8491  -20.3271  -23.2626 C   0  0  0  0  0  0  0  0  0  0  0  0
    6.1107  -22.3224  -19.6579 H   0  0  0  0  0  0  0  0  0  0  0  0
    4.9266  -22.2715  -18.2475 H   0  0  0  0  0  0  0  0  0  0  0  0
    9.8012  -25.4400  -20.2613 H   0  0  0  0  0  0  0  0  0  0  0  0
    8.6023  -25.0742  -21.5205 H   0  0  0  0  0  0  0  0  0  0  0  0
   11.0899  -23.9534  -21.4299 H   0  0  0  0  0  0  0  0  0  0  0  0
    9.3273  -22.2323  -19.5678 H   0  0  0  0  0  0  0  0  0  0  0  0
   10.7604  -22.4802  -18.3119 H   0  0  0  0  0  0  0  0  0  0  0  0
   10.3470  -20.2021  -20.6727 H   0  0  0  0  0  0  0  0  0  0  0  0
   12.5394  -21.3032  -20.5982 H   0  0  0  0  0  0  0  0  0  0  0  0
   10.3865  -20.9391  -23.0549 H   0  0  0  0  0  0  0  0  0  0  0  0
    7.9751  -20.8015  -20.0758 H   0  0  0  0  0  0  0  0  0  0  0  0
    3.9100  -18.3817  -24.2361 H   0  0  0  0  0  0  0  0  0  0  0  0
    4.1856  -18.7078  -22.5039 H   0  0  0  0  0  0  0  0  0  0  0  0
    7.5828  -19.8053  -26.5296 H   0  0  0  0  0  0  0  0  0  0  0  0
  1  2  2  0
  1  3  1  6
  1  4  1  0
  1  8  1  0
  5  6  2  0
  5  7  1  1
  5  8  1  0
  5 12  1  0
  9 10  2  0
  9 11  1  1
  9 12  1  0
  9 13  1  0
 13 14  1  0
 15 14  1  0
 15 16  1  0
 15 17  1  0
 16 21  1  0
 17 18  1  0
 17 19  1  0
 19 20  1  0
 19 21  1  0
 21 22  1  0
 22 23  1  0
 22 31  1  0
 23 24  2  0
 24 25  1  0
 25 26  2  0
 25 31  1  0
 26 27  1  0
 26 28  1  0
 28 29  2  0
 29 30  1  0
 30 31  2  0
  8 32  1  0
  8 33  1  0
 14 34  1  0
 14 35  1  0
 15 36  1  6
 17 37  1  1
 18 38  1  0
 19 39  1  1
 20 40  1  0
 21 41  1  6
 23 42  1  0
 27 43  1  0
 27 44  1  0
 29 45  1  0
M  CHG  4   3  -1   4  -1   7  -1  11  -1
M  END
>  <filename_input>  (23) 
7WCF_ACP_docked.sdf

>  <pdb_id>  (23) 
7WCF_ACP

>  <pose_rank>  (23) 
22

>  <num_atoms_heavy>  (23) 
31

>  <num_torsions>  (23) 
8

>  <pose>  (23) 
[10.107276470317965, -23.503778722975714, -21.223983710905387, -0.23467568892305524, -2.3724852367898506, -3.5130682142163225, 0.9197826653051412, -25.751110685306173, -30.909194808778288, -26.6090486848649, 3.1895971346004046, 5.7480323985573385, 4.184663326851174, -2.864966487508802]

>  <energy>  (23) 
-573.4951461103284

>  <inter_energy>  (23) 
-607.7959521071373

>  <intra_energy>  (23) 
36.94620992132294

>  <rmsd>  (23) 
6.47008

>  <sdf_rank>  (23) 
0

$$$$

     RDKit          3D

 45 47  0  0  0  0  0  0  0  0999 V2000
   11.9723  -23.1503  -20.5824 P   0  0  1  0  0  0  0  0  0  0  0  0
   13.2773  -23.5833  -19.9636 O   0  0  0  0  0  0  0  0  0  0  0  0
   12.0199  -21.7088  -21.0076 O   0  0  0  0  0  0  0  0  0  0  0  0
   11.6841  -24.1227  -21.6825 O   0  0  0  0  0  0  0  0  0  0  0  0
    8.9948  -23.4526  -20.0173 P   0  0  2  0  0  0  0  0  0  0  0  0
    8.2684  -23.0783  -18.7540 O   0  0  0  0  0  0  0  0  0  0  0  0
    8.5274  -24.7067  -20.7009 O   0  0  0  0  0  0  0  0  0  0  0  0
   10.6705  -23.5117  -19.3800 C   0  0  0  0  0  0  0  0  0  0  0  0
    7.7251  -22.0537  -22.3165 P   0  0  2  0  0  0  0  0  0  0  0  0
    7.1644  -23.3612  -22.8027 O   0  0  0  0  0  0  0  0  0  0  0  0
    8.1802  -21.1319  -23.4059 O   0  0  0  0  0  0  0  0  0  0  0  0
    8.8520  -22.3176  -21.1626 O   0  0  0  0  0  0  0  0  0  0  0  0
    6.5837  -21.2693  -21.4747 O   0  0  0  0  0  0  0  0  0  0  0  0
    5.6139  -22.0239  -20.7840 C   0  0  0  0  0  0  0  0  0  0  0  0
    4.3323  -21.1617  -20.7316 C   0  0  1  0  0  0  0  0  0  0  0  0
    4.6409  -19.8769  -20.8970 O   0  0  0  0  0  0  0  0  0  0  0  0
    3.3723  -21.5209  -21.8900 C   0  0  1  0  0  0  0  0  0  0  0  0
    2.5538  -22.6096  -21.6490 O   0  0  0  0  0  0  0  0  0  0  0  0
    2.6010  -20.1979  -22.0208 C   0  0  1  0  0  0  0  0  0  0  0  0
    1.5650  -20.1790  -20.9457 O   0  0  0  0  0  0  0  0  0  0  0  0
    3.5015  -19.2361  -21.8126 C   0  0  2  0  0  0  0  0  0  0  0  0
    4.1665  -18.7615  -23.0117 N   0  0  0  0  0  0  0  0  0  0  0  0
    5.3254  -19.2015  -23.5456 C   0  0  0  0  0  0  0  0  0  0  0  0
    5.5893  -18.4995  -24.6494 N   0  0  0  0  0  0  0  0  0  0  0  0
    4.5972  -17.5973  -24.7999 C   0  0  0  0  0  0  0  0  0  0  0  0
    4.3785  -16.6076  -25.7352 C   0  0  0  0  0  0  0  0  0  0  0  0
    5.2438  -16.3266  -26.8494 N   0  0  0  0  0  0  0  0  0  0  0  0
    3.3006  -15.8361  -25.6376 N   0  0  0  0  0  0  0  0  0  0  0  0
    2.4401  -16.0191  -24.6170 C   0  0  0  0  0  0  0  0  0  0  0  0
    2.6426  -16.9764  -23.6856 N   0  0  0  0  0  0  0  0  0  0  0  0
    3.7407  -17.7512  -23.7805 C   0  0  0  0  0  0  0  0  0  0  0  0
   10.8468  -24.5222  -18.9826 H   0  0  0  0  0  0  0  0  0  0  0  0
   10.7330  -22.7197  -18.6191 H   0  0  0  0  0  0  0  0  0  0  0  0
    5.4156  -22.9651  -21.3177 H   0  0  0  0  0  0  0  0  0  0  0  0
    5.9596  -22.2794  -19.7715 H   0  0  0  0  0  0  0  0  0  0  0  0
    3.8590  -21.3496  -19.7566 H   0  0  0  0  0  0  0  0  0  0  0  0
    3.8875  -21.8541  -22.8030 H   0  0  0  0  0  0  0  0  0  0  0  0
    2.4562  -22.7394  -20.6724 H   0  0  0  0  0  0  0  0  0  0  0  0
    2.1104  -20.0689  -22.9969 H   0  0  0  0  0  0  0  0  0  0  0  0
    2.0080  -20.1871  -20.0604 H   0  0  0  0  0  0  0  0  0  0  0  0
    2.9670  -18.3810  -21.3731 H   0  0  0  0  0  0  0  0  0  0  0  0
    5.9513  -20.0084  -23.1369 H   0  0  0  0  0  0  0  0  0  0  0  0
    5.0091  -15.5678  -27.5051 H   0  0  0  0  0  0  0  0  0  0  0  0
    6.0980  -16.8843  -26.9914 H   0  0  0  0  0  0  0  0  0  0  0  0
    1.5523  -15.3742  -24.5405 H   0  0  0  0  0  0  0  0  0  0  0  0
  1  2  2  0
  1  3  1  6
  1  4  1  0
  1  8  1  0
  5  6  2  0
  5  7  1  6
  5  8  1  0
  5 12  1  0
  9 10  2  0
  9 11  1  6
  9 12  1  0
  9 13  1  0
 13 14  1  0
 15 14  1  0
 15 16  1  0
 15 17  1  0
 16 21  1  0
 17 18  1  0
 17 19  1  0
 19 20  1  0
 19 21  1  0
 21 22  1  0
 22 23  1  0
 22 31  1  0
 23 24  2  0
 24 25  1  0
 25 26  2  0
 25 31  1  0
 26 27  1  0
 26 28  1  0
 28 29  2  0
 29 30  1  0
 30 31  2  0
  8 32  1  0
  8 33  1  0
 14 34  1  0
 14 35  1  0
 15 36  1  1
 17 37  1  6
 18 38  1  0
 19 39  1  6
 20 40  1  0
 21 41  1  1
 23 42  1  0
 27 43  1  0
 27 44  1  0
 29 45  1  0
M  CHG  4   3  -1   4  -1   7  -1  11  -1
M  END
>  <filename_input>  (24) 
7WCF_ACP_docked.sdf

>  <pdb_id>  (24) 
7WCF_ACP

>  <pose_rank>  (24) 
23

>  <num_atoms_heavy>  (24) 
31

>  <num_torsions>  (24) 
8

>  <pose>  (24) 
[4.332321935740331, -21.16169539783429, -20.73161950947525, 2.4119536427134287, 1.6316363000885674, -1.9734470106141084, -0.1443573061562176, 0.6429994484926747, 0.09137361396177276, 5.671712292795415, -1.9039044757022443, 3.684316354195802, 0.4910524049120453, 1.689284857534305]

>  <energy>  (24) 
-584.6406464791642

>  <inter_energy>  (24) 
-601.6498349345975

>  <intra_energy>  (24) 
23.696915258707143

>  <rmsd>  (24) 
8.56323

>  <sdf_rank>  (24) 
0

$$$$

     RDKit          3D

 45 47  0  0  0  0  0  0  0  0999 V2000
   12.2597  -21.7461  -21.1899 P   0  0  1  0  0  0  0  0  0  0  0  0
   12.8499  -23.1035  -21.4768 O   0  0  0  0  0  0  0  0  0  0  0  0
   13.3268  -20.6891  -21.1194 O   0  0  0  0  0  0  0  0  0  0  0  0
   11.2104  -21.5139  -22.2311 O   0  0  0  0  0  0  0  0  0  0  0  0
   10.2496  -23.3603  -19.5680 P   0  0  2  0  0  0  0  0  0  0  0  0
   10.7431  -23.9154  -18.2596 O   0  0  0  0  0  0  0  0  0  0  0  0
   10.3286  -24.2856  -20.7496 O   0  0  0  0  0  0  0  0  0  0  0  0
   11.2879  -21.9013  -19.6725 C   0  0  0  0  0  0  0  0  0  0  0  0
    7.3122  -23.8360  -19.5923 P   0  0  2  0  0  0  0  0  0  0  0  0
    6.2336  -23.2014  -18.7592 O   0  0  0  0  0  0  0  0  0  0  0  0
    7.5170  -25.2968  -19.3316 O   0  0  0  0  0  0  0  0  0  0  0  0
    8.6844  -22.9524  -19.5065 O   0  0  0  0  0  0  0  0  0  0  0  0
    6.9301  -23.6809  -21.1596 O   0  0  0  0  0  0  0  0  0  0  0  0
    6.2507  -22.5190  -21.5785 C   0  0  0  0  0  0  0  0  0  0  0  0
    7.1403  -21.8426  -22.6460 C   0  0  1  0  0  0  0  0  0  0  0  0
    6.4198  -21.5682  -23.7317 O   0  0  0  0  0  0  0  0  0  0  0  0
    7.6813  -20.4847  -22.1403 C   0  0  1  0  0  0  0  0  0  0  0  0
    8.8201  -20.5682  -21.3593 O   0  0  0  0  0  0  0  0  0  0  0  0
    7.9153  -19.7714  -23.4815 C   0  0  1  0  0  0  0  0  0  0  0  0
    9.2100  -20.2722  -24.0316 O   0  0  0  0  0  0  0  0  0  0  0  0
    6.9037  -20.1446  -24.2668 C   0  0  2  0  0  0  0  0  0  0  0  0
    5.7428  -19.2760  -24.2101 N   0  0  0  0  0  0  0  0  0  0  0  0
    5.4983  -18.1709  -24.9453 C   0  0  0  0  0  0  0  0  0  0  0  0
    4.3192  -17.6609  -24.5842 N   0  0  0  0  0  0  0  0  0  0  0  0
    3.8272  -18.4417  -23.5997 C   0  0  0  0  0  0  0  0  0  0  0  0
    2.6750  -18.3663  -22.8454 C   0  0  0  0  0  0  0  0  0  0  0  0
    1.6685  -17.3482  -22.9852 N   0  0  0  0  0  0  0  0  0  0  0  0
    2.4380  -19.2824  -21.9120 N   0  0  0  0  0  0  0  0  0  0  0  0
    3.3334  -20.2671  -21.7020 C   0  0  0  0  0  0  0  0  0  0  0  0
    4.4723  -20.3517  -22.4236 N   0  0  0  0  0  0  0  0  0  0  0  0
    4.7156  -19.4169  -23.3627 C   0  0  0  0  0  0  0  0  0  0  0  0
   11.9863  -21.9205  -18.8229 H   0  0  0  0  0  0  0  0  0  0  0  0
   10.6026  -21.0409  -19.6627 H   0  0  0  0  0  0  0  0  0  0  0  0
    5.2755  -22.7859  -22.0119 H   0  0  0  0  0  0  0  0  0  0  0  0
    6.0666  -21.8420  -20.7313 H   0  0  0  0  0  0  0  0  0  0  0  0
    7.9648  -22.5376  -22.8635 H   0  0  0  0  0  0  0  0  0  0  0  0
    6.9998  -19.9680  -21.4485 H   0  0  0  0  0  0  0  0  0  0  0  0
    8.5662  -20.5495  -20.4026 H   0  0  0  0  0  0  0  0  0  0  0  0
    7.9594  -18.6757  -23.3956 H   0  0  0  0  0  0  0  0  0  0  0  0
    9.8168  -20.5069  -23.2854 H   0  0  0  0  0  0  0  0  0  0  0  0
    7.2746  -20.1299  -25.3023 H   0  0  0  0  0  0  0  0  0  0  0  0
    6.1636  -17.7573  -25.7176 H   0  0  0  0  0  0  0  0  0  0  0  0
    0.8342  -17.3624  -22.3814 H   0  0  0  0  0  0  0  0  0  0  0  0
    1.7821  -16.6050  -23.6892 H   0  0  0  0  0  0  0  0  0  0  0  0
    3.1324  -21.0195  -20.9251 H   0  0  0  0  0  0  0  0  0  0  0  0
  1  2  2  0
  1  3  1  1
  1  4  1  0
  1  8  1  0
  5  6  2  0
  5  7  1  6
  5  8  1  0
  5 12  1  0
  9 10  2  0
  9 11  1  1
  9 12  1  0
  9 13  1  0
 13 14  1  0
 15 14  1  0
 15 16  1  0
 15 17  1  0
 16 21  1  0
 17 18  1  0
 17 19  1  0
 19 20  1  0
 19 21  1  0
 21 22  1  0
 22 23  1  0
 22 31  1  0
 23 24  2  0
 24 25  1  0
 25 26  2  0
 25 31  1  0
 26 27  1  0
 26 28  1  0
 28 29  2  0
 29 30  1  0
 30 31  2  0
  8 32  1  0
  8 33  1  0
 14 34  1  0
 14 35  1  0
 15 36  1  6
 17 37  1  1
 18 38  1  0
 19 39  1  1
 20 40  1  0
 21 41  1  6
 23 42  1  0
 27 43  1  0
 27 44  1  0
 29 45  1  0
M  CHG  4   3  -1   4  -1   7  -1  11  -1
M  END
>  <filename_input>  (25) 
7WCF_ACP_docked.sdf

>  <pdb_id>  (25) 
7WCF_ACP

>  <pose_rank>  (25) 
24

>  <num_atoms_heavy>  (25) 
31

>  <num_torsions>  (25) 
8

>  <pose>  (25) 
[7.140326654575055, -21.84264254366811, -22.646010155456615, 0.19031056366899302, 1.5417046164192625, 1.311372162646863, -3.2847050018198165, -2.9965159778055, -1.444124754141501, 5.75057704382304, 1.259997464811872, -2.454183717096674, -0.9510851607481582, 3.8185325438405306]

>  <energy>  (25) 
-603.1829169003685

>  <inter_energy>  (25) 
-710.794731264076

>  <intra_energy>  (25) 
105.29298910056615

>  <rmsd>  (25) 
8.26097

>  <sdf_rank>  (25) 
0

$$$$

     RDKit          3D

 45 47  0  0  0  0  0  0  0  0999 V2000
    2.6690  -18.0710  -23.3880 P   0  0  1  0  0  0  0  0  0  0  0  0
    3.2330  -18.0120  -21.9910 O   0  0  0  0  0  0  0  0  0  0  0  0
    2.0960  -19.4280  -23.6900 O   0  0  0  0  0  0  0  0  0  0  0  0
    1.6980  -16.9380  -23.4990 O   0  0  0  0  0  0  0  0  0  0  0  0
    4.9030  -18.9180  -25.2770 P   0  0  2  0  0  0  0  0  0  0  0  0
    5.8690  -18.1170  -26.1070 O   0  0  0  0  0  0  0  0  0  0  0  0
    4.0620  -19.9160  -26.0220 O   0  0  0  0  0  0  0  0  0  0  0  0
    3.9930  -17.5730  -24.5150 C   0  0  0  0  0  0  0  0  0  0  0  0
    6.6000  -19.4170  -22.8840 P   0  0  2  0  0  0  0  0  0  0  0  0
    5.7560  -18.8900  -21.7570 O   0  0  0  0  0  0  0  0  0  0  0  0
    7.7660  -18.5480  -23.2430 O   0  0  0  0  0  0  0  0  0  0  0  0
    5.6560  -19.8130  -24.1580 O   0  0  0  0  0  0  0  0  0  0  0  0
    7.1960  -20.8650  -22.4660 O   0  0  0  0  0  0  0  0  0  0  0  0
    6.2990  -21.9340  -22.2670 C   0  0  0  0  0  0  0  0  0  0  0  0
    7.0050  -22.9400  -21.3300 C   0  0  1  0  0  0  0  0  0  0  0  0
    8.1460  -23.3510  -21.8800 O   0  0  0  0  0  0  0  0  0  0  0  0
    7.3950  -22.2730  -19.9900 C   0  0  1  0  0  0  0  0  0  0  0  0
    6.3830  -22.2280  -19.0480 O   0  0  0  0  0  0  0  0  0  0  0  0
    8.5720  -23.1700  -19.5750 C   0  0  1  0  0  0  0  0  0  0  0  0
    7.9960  -24.4130  -18.9810 O   0  0  0  0  0  0  0  0  0  0  0  0
    9.2210  -23.4550  -20.7050 C   0  0  2  0  0  0  0  0  0  0  0  0
   10.2810  -22.5240  -21.0440 N   0  0  0  0  0  0  0  0  0  0  0  0
   10.1720  -21.3440  -21.6900 C   0  0  0  0  0  0  0  0  0  0  0  0
   11.3840  -20.7970  -21.8030 N   0  0  0  0  0  0  0  0  0  0  0  0
   12.2650  -21.6500  -21.2400 C   0  0  0  0  0  0  0  0  0  0  0  0
   13.6370  -21.6100  -21.1050 C   0  0  0  0  0  0  0  0  0  0  0  0
   14.4760  -20.5390  -21.5720 N   0  0  0  0  0  0  0  0  0  0  0  0
   14.2690  -22.6130  -20.5040 N   0  0  0  0  0  0  0  0  0  0  0  0
   13.5640  -23.6660  -20.0460 C   0  0  0  0  0  0  0  0  0  0  0  0
   12.2210  -23.7280  -20.1780 N   0  0  0  0  0  0  0  0  0  0  0  0
   11.5830  -22.7150  -20.7960 C   0  0  0  0  0  0  0  0  0  0  0  0
    3.5456  -16.9685  -25.3178 H   0  0  0  0  0  0  0  0  0  0  0  0
    4.7222  -17.0238  -23.9013 H   0  0  0  0  0  0  0  0  0  0  0  0
    5.3719  -21.5688  -21.8011 H   0  0  0  0  0  0  0  0  0  0  0  0
    6.0297  -22.4067  -23.2230 H   0  0  0  0  0  0  0  0  0  0  0  0
    6.3039  -23.7715  -21.1655 H   0  0  0  0  0  0  0  0  0  0  0  0
    7.6324  -21.2029  -20.0823 H   0  0  0  0  0  0  0  0  0  0  0  0
    6.7766  -22.2455  -18.1398 H   0  0  0  0  0  0  0  0  0  0  0  0
    9.2473  -22.7004  -18.8446 H   0  0  0  0  0  0  0  0  0  0  0  0
    8.0248  -24.3508  -17.9934 H   0  0  0  0  0  0  0  0  0  0  0  0
    9.6828  -24.4446  -20.5730 H   0  0  0  0  0  0  0  0  0  0  0  0
    9.2353  -20.9042  -22.0631 H   0  0  0  0  0  0  0  0  0  0  0  0
   15.4954  -20.5849  -21.4320 H   0  0  0  0  0  0  0  0  0  0  0  0
   14.0574  -19.7262  -22.0464 H   0  0  0  0  0  0  0  0  0  0  0  0
   14.0943  -24.4943  -19.5533 H   0  0  0  0  0  0  0  0  0  0  0  0
  1  2  2  0
  1  3  1  6
  1  4  1  0
  1  8  1  0
  5  6  2  0
  5  7  1  6
  5  8  1  0
  5 12  1  0
  9 10  2  0
  9 11  1  6
  9 12  1  0
  9 13  1  0
 13 14  1  0
 15 14  1  0
 15 16  1  0
 15 17  1  0
 16 21  1  0
 17 18  1  0
 17 19  1  0
 19 20  1  0
 19 21  1  0
 21 22  1  0
 22 23  1  0
 22 31  1  0
 23 24  2  0
 24 25  1  0
 25 26  2  0
 25 31  1  0
 26 27  1  0
 26 28  1  0
 28 29  2  0
 29 30  1  0
 30 31  2  0
  8 32  1  0
  8 33  1  0
 14 34  1  0
 14 35  1  0
 15 36  1  1
 17 37  1  6
 18 38  1  0
 19 39  1  1
 20 40  1  0
 21 41  1  1
 23 42  1  0
 27 43  1  0
 27 44  1  0
 29 45  1  0
M  CHG  4   3  -1   4  -1   7  -1  11  -1
M  END
>  <filename_input>  (26) 
7WCF_ACP_docked.sdf

>  <pdb_id>  (26) 
7WCF_ACP

>  <pose_rank>  (26) 
25

>  <num_atoms_heavy>  (26) 
31

>  <num_torsions>  (26) 
8

>  <pose>  (26) 
[7.005, -22.94, -21.33, 1e-06, 1e-06, 1e-06, 0.0, 0.0, 0.0, 0.0, 0.0, 0.0, 0.0, 0.0]

>  <energy>  (26) 
-969.581540035359

>  <inter_energy>  (26) 
-1007.314411649867

>  <intra_energy>  (26) 
33.90597877630285

>  <rmsd>  (26) 
0.0

>  <sdf_rank>  (26) 
0

$$$$
