
     RDKit          3D

 33 33  0  0  0  0  0  0  0  0999 V2000
   24.9630   -5.7843   -5.6302 C   0  0  2  0  0  0  0  0  0  0  0  0
   24.3072   -4.6615   -6.4304 C   0  0  1  0  0  0  0  0  0  0  0  0
   22.8688   -4.4758   -5.9606 C   0  0  2  0  0  0  0  0  0  0  0  0
   22.3259   -5.7180   -5.2720 C   0  0  1  0  0  0  0  0  0  0  0  0
   23.1559   -6.0558   -4.0361 C   0  0  1  0  0  0  0  0  0  0  0  0
   22.7133   -7.3316   -3.3766 C   0  0  0  0  0  0  0  0  0  0  0  0
   24.6057   -6.8980   -6.3911 O   0  0  0  0  0  0  0  0  0  0  0  0
   22.0950   -4.1835   -7.1156 O   0  0  0  0  0  0  0  0  0  0  0  0
   24.5523   -6.2212   -4.3412 O   0  0  0  0  0  0  0  0  0  0  0  0
   23.2497   -7.3376   -2.0675 O   0  0  0  0  0  0  0  0  0  0  0  0
   24.9949   -3.3905   -6.4275 N   0  0  0  0  0  0  0  0  0  0  0  0
   25.2467   -2.7694   -5.2613 C   0  0  0  0  0  0  0  0  0  0  0  0
   24.9313   -3.2786   -4.1819 O   0  0  0  0  0  0  0  0  0  0  0  0
   25.9763   -1.4582   -5.3447 C   0  0  0  0  0  0  0  0  0  0  0  0
   23.3446   -8.7253   -1.3525 S   0  0  2  0  0  0  0  0  0  0  0  0
   22.0207   -9.2746   -1.4111 O   0  0  0  0  0  0  0  0  0  0  0  0
   23.8415   -8.4600   -0.0456 O   0  0  0  0  0  0  0  0  0  0  0  0
   24.2798   -9.4765   -2.1267 O   0  0  0  0  0  0  0  0  0  0  0  0
   20.9761   -5.4746   -4.8933 O   0  0  0  0  0  0  0  0  0  0  0  0
   25.9790   -5.3984   -5.4604 H   0  0  0  0  0  0  0  0  0  0  0  0
   24.3550   -4.9952   -7.4775 H   0  0  0  0  0  0  0  0  0  0  0  0
   22.8225   -3.6636   -5.2201 H   0  0  0  0  0  0  0  0  0  0  0  0
   22.3792   -6.5708   -5.9648 H   0  0  0  0  0  0  0  0  0  0  0  0
   23.0031   -5.1989   -3.3635 H   0  0  0  0  0  0  0  0  0  0  0  0
   21.6149   -7.3715   -3.3334 H   0  0  0  0  0  0  0  0  0  0  0  0
   23.0646   -8.2055   -3.9450 H   0  0  0  0  0  0  0  0  0  0  0  0
   24.3657   -7.6461   -5.7887 H   0  0  0  0  0  0  0  0  0  0  0  0
   21.2053   -3.8474   -6.8404 H   0  0  0  0  0  0  0  0  0  0  0  0
   25.2914   -2.9616   -7.3158 H   0  0  0  0  0  0  0  0  0  0  0  0
   26.1822   -1.0880   -4.3295 H   0  0  0  0  0  0  0  0  0  0  0  0
   26.9251   -1.6000   -5.8828 H   0  0  0  0  0  0  0  0  0  0  0  0
   25.3554   -0.7267   -5.8828 H   0  0  0  0  0  0  0  0  0  0  0  0
   20.9075   -5.4622   -3.9058 H   0  0  0  0  0  0  0  0  0  0  0  0
  1  2  1  0
  1  7  1  0
  1  9  1  0
  2  3  1  0
  2 11  1  0
  3  4  1  0
  3  8  1  0
  4  5  1  0
  4 19  1  0
  5  6  1  0
  5  9  1  0
  6 10  1  0
 10 15  1  0
 11 12  1  0
 12 13  2  0
 12 14  1  0
 15 16  2  0
 15 17  1  1
 15 18  2  0
  1 20  1  1
  2 21  1  6
  3 22  1  1
  4 23  1  6
  5 24  1  1
  6 25  1  0
  6 26  1  0
  7 27  1  0
  8 28  1  0
 11 29  1  0
 14 30  1  0
 14 31  1  0
 14 32  1  0
 19 33  1  0
M  CHG  1  17  -1
M  END
>  <filename_input>  (1) 
7WDT_NGS_docked.sdf

>  <pdb_id>  (1) 
7WDT_NGS

>  <pose_rank>  (1) 
0

>  <num_atoms_heavy>  (1) 
19

>  <num_torsions>  (1) 
4

>  <pose>  (1) 
[24.962975847268247, -5.784302253841655, -5.630155952774192, -4.1596624807120826, -4.559761379218502, 0.681540714849262, 6.021467585970053, 12.663532424479657, 12.54456369607905, -12.685230783390663]

>  <energy>  (1) 
-938.1768650505562

>  <inter_energy>  (1) 
-946.1088947579093

>  <intra_energy>  (1) 
34.878975016884844

>  <rmsd>  (1) 
0.337808

>  <sdf_rank>  (1) 
0

$$$$

     RDKit          3D

 33 33  0  0  0  0  0  0  0  0999 V2000
   24.9467   -5.8574   -5.0018 C   0  0  2  0  0  0  0  0  0  0  0  0
   24.0506   -4.7300   -5.5090 C   0  0  1  0  0  0  0  0  0  0  0  0
   22.6424   -4.9113   -4.9534 C   0  0  2  0  0  0  0  0  0  0  0  0
   22.3723   -6.3476   -4.5340 C   0  0  1  0  0  0  0  0  0  0  0  0
   23.3411   -6.7804   -3.4364 C   0  0  1  0  0  0  0  0  0  0  0  0
   23.1729   -8.2247   -3.0568 C   0  0  0  0  0  0  0  0  0  0  0  0
   24.7244   -6.8329   -5.9743 O   0  0  0  0  0  0  0  0  0  0  0  0
   21.7429   -4.5290   -5.9843 O   0  0  0  0  0  0  0  0  0  0  0  0
   24.7173   -6.6217   -3.8253 O   0  0  0  0  0  0  0  0  0  0  0  0
   23.1174   -8.9723   -4.2566 O   0  0  0  0  0  0  0  0  0  0  0  0
   24.5121   -3.3846   -5.2537 N   0  0  0  0  0  0  0  0  0  0  0  0
   25.6369   -2.9407   -5.8427 C   0  0  0  0  0  0  0  0  0  0  0  0
   26.2724   -3.6495   -6.6286 O   0  0  0  0  0  0  0  0  0  0  0  0
   26.0414   -1.5266   -5.5342 C   0  0  0  0  0  0  0  0  0  0  0  0
   22.7438  -10.4853   -4.1261 S   0  0  2  0  0  0  0  0  0  0  0  0
   21.3127  -10.5168   -4.0317 O   0  0  0  0  0  0  0  0  0  0  0  0
   23.4446  -10.9652   -2.9842 O   0  0  0  0  0  0  0  0  0  0  0  0
   23.2230  -11.0892   -5.3277 O   0  0  0  0  0  0  0  0  0  0  0  0
   21.0344   -6.4382   -4.0581 O   0  0  0  0  0  0  0  0  0  0  0  0
   25.8931   -5.3376   -4.7916 H   0  0  0  0  0  0  0  0  0  0  0  0
   24.0723   -4.8227   -6.6048 H   0  0  0  0  0  0  0  0  0  0  0  0
   22.5176   -4.2945   -4.0512 H   0  0  0  0  0  0  0  0  0  0  0  0
   22.5147   -7.0122   -5.3989 H   0  0  0  0  0  0  0  0  0  0  0  0
   23.0988   -6.1257   -2.5863 H   0  0  0  0  0  0  0  0  0  0  0  0
   24.0265   -8.5552   -2.4467 H   0  0  0  0  0  0  0  0  0  0  0  0
   22.2557   -8.3675   -2.4666 H   0  0  0  0  0  0  0  0  0  0  0  0
   24.5272   -7.6979   -5.5350 H   0  0  0  0  0  0  0  0  0  0  0  0
   20.9105   -4.1754   -5.5816 H   0  0  0  0  0  0  0  0  0  0  0  0
   23.9812   -2.7674   -4.6227 H   0  0  0  0  0  0  0  0  0  0  0  0
   26.0815   -1.3863   -4.4439 H   0  0  0  0  0  0  0  0  0  0  0  0
   27.0328   -1.3262   -5.9664 H   0  0  0  0  0  0  0  0  0  0  0  0
   25.3058   -0.8323   -5.9664 H   0  0  0  0  0  0  0  0  0  0  0  0
   21.0356   -6.4382   -3.0681 H   0  0  0  0  0  0  0  0  0  0  0  0
  1  2  1  0
  1  7  1  0
  1  9  1  0
  2  3  1  0
  2 11  1  0
  3  4  1  0
  3  8  1  0
  4  5  1  0
  4 19  1  0
  5  6  1  0
  5  9  1  0
  6 10  1  0
 10 15  1  0
 11 12  1  0
 12 13  2  0
 12 14  1  0
 15 16  2  0
 15 17  1  1
 15 18  2  0
  1 20  1  1
  2 21  1  6
  3 22  1  1
  4 23  1  6
  5 24  1  1
  6 25  1  0
  6 26  1  0
  7 27  1  0
  8 28  1  0
 11 29  1  0
 14 30  1  0
 14 31  1  0
 14 32  1  0
 19 33  1  0
M  CHG  1  17  -1
M  END
>  <filename_input>  (2) 
7WDT_NGS_docked.sdf

>  <pdb_id>  (2) 
7WDT_NGS

>  <pose_rank>  (2) 
1

>  <num_atoms_heavy>  (2) 
19

>  <num_torsions>  (2) 
4

>  <pose>  (2) 
[24.946736910175336, -5.85737826935519, -5.001778294359462, -4.633689799340153, -2.097886846629217, -3.081650898032545, -4.389724966677818, -2.521762470883533, -0.222739875700108, 2.25103276698112]

>  <energy>  (2) 
-682.1285197464673

>  <inter_energy>  (2) 
-684.049296639192

>  <intra_energy>  (2) 
11.050057229323661

>  <rmsd>  (2) 
1.98674

>  <sdf_rank>  (2) 
0

$$$$

     RDKit          3D

 33 33  0  0  0  0  0  0  0  0999 V2000
   22.2916   -5.9312   -5.6314 C   0  0  2  0  0  0  0  0  0  0  0  0
   23.7041   -5.4838   -5.2625 C   0  0  1  0  0  0  0  0  0  0  0  0
   24.6630   -6.6606   -5.4040 C   0  0  2  0  0  0  0  0  0  0  0  0
   23.9430   -7.9981   -5.3351 C   0  0  1  0  0  0  0  0  0  0  0  0
   22.9221   -8.1198   -6.4636 C   0  0  1  0  0  0  0  0  0  0  0  0
   22.1191   -9.3872   -6.3792 C   0  0  0  0  0  0  0  0  0  0  0  0
   21.8338   -6.4091   -4.4030 O   0  0  0  0  0  0  0  0  0  0  0  0
   25.5983   -6.5573   -4.3397 O   0  0  0  0  0  0  0  0  0  0  0  0
   21.9728   -7.0385   -6.4639 O   0  0  0  0  0  0  0  0  0  0  0  0
   21.9770   -9.8850   -7.6959 O   0  0  0  0  0  0  0  0  0  0  0  0
   24.2185   -4.3396   -5.9797 N   0  0  0  0  0  0  0  0  0  0  0  0
   24.8887   -3.3806   -5.3160 C   0  0  0  0  0  0  0  0  0  0  0  0
   25.1057   -3.4710   -4.1042 O   0  0  0  0  0  0  0  0  0  0  0  0
   25.4006   -2.2307   -6.1370 C   0  0  0  0  0  0  0  0  0  0  0  0
   20.9414  -11.0382   -7.9040 S   0  0  2  0  0  0  0  0  0  0  0  0
   20.9591  -11.7903   -6.6825 O   0  0  0  0  0  0  0  0  0  0  0  0
   21.3673  -11.7431   -9.0646 O   0  0  0  0  0  0  0  0  0  0  0  0
   19.6932  -10.3795   -8.1190 O   0  0  0  0  0  0  0  0  0  0  0  0
   24.9067   -9.0393   -5.4437 O   0  0  0  0  0  0  0  0  0  0  0  0
   21.9030   -5.0673   -6.1907 H   0  0  0  0  0  0  0  0  0  0  0  0
   23.6291   -5.1412   -4.2199 H   0  0  0  0  0  0  0  0  0  0  0  0
   25.1551   -6.6219   -6.3871 H   0  0  0  0  0  0  0  0  0  0  0  0
   23.4067   -8.0738   -4.3777 H   0  0  0  0  0  0  0  0  0  0  0  0
   23.5284   -8.1059   -7.3814 H   0  0  0  0  0  0  0  0  0  0  0  0
   22.6436  -10.1240   -5.7530 H   0  0  0  0  0  0  0  0  0  0  0  0
   21.1346   -9.1946   -5.9277 H   0  0  0  0  0  0  0  0  0  0  0  0
   22.2940   -5.9287   -3.6698 H   0  0  0  0  0  0  0  0  0  0  0  0
   25.1205   -6.6101   -3.4742 H   0  0  0  0  0  0  0  0  0  0  0  0
   24.0723   -4.2585   -6.9961 H   0  0  0  0  0  0  0  0  0  0  0  0
   25.7560   -1.4326   -5.4687 H   0  0  0  0  0  0  0  0  0  0  0  0
   26.2308   -2.5743   -6.7717 H   0  0  0  0  0  0  0  0  0  0  0  0
   24.5898   -1.8436   -6.7717 H   0  0  0  0  0  0  0  0  0  0  0  0
   25.1786   -9.3330   -4.5382 H   0  0  0  0  0  0  0  0  0  0  0  0
  1  2  1  0
  1  7  1  0
  1  9  1  0
  2  3  1  0
  2 11  1  0
  3  4  1  0
  3  8  1  0
  4  5  1  0
  4 19  1  0
  5  6  1  0
  5  9  1  0
  6 10  1  0
 10 15  1  0
 11 12  1  0
 12 13  2  0
 12 14  1  0
 15 16  2  0
 15 17  1  6
 15 18  2  0
  1 20  1  6
  2 21  1  1
  3 22  1  6
  4 23  1  1
  5 24  1  6
  6 25  1  0
  6 26  1  0
  7 27  1  0
  8 28  1  0
 11 29  1  0
 14 30  1  0
 14 31  1  0
 14 32  1  0
 19 33  1  0
M  CHG  1  17  -1
M  END
>  <filename_input>  (3) 
7WDT_NGS_docked.sdf

>  <pdb_id>  (3) 
7WDT_NGS

>  <pose_rank>  (3) 
2

>  <num_atoms_heavy>  (3) 
19

>  <num_torsions>  (3) 
4

>  <pose>  (3) 
[22.291637207330385, -5.931153302463713, -5.631428866221285, -1.3356066604575132, -2.6716099019252515, 0.8216753422194638, 3.1391639512966245, 0.5052875204339017, 6.1227547244219735, 0.2624773542588826]

>  <energy>  (3) 
-431.6811989048428

>  <inter_energy>  (3) 
-423.42196132987004

>  <intra_energy>  (3) 
3.826930379945086

>  <rmsd>  (3) 
4.5172

>  <sdf_rank>  (3) 
0

$$$$

     RDKit          3D

 33 33  0  0  0  0  0  0  0  0999 V2000
   24.7785   -6.0628   -5.6211 C   0  0  2  0  0  0  0  0  0  0  0  0
   24.1543   -4.9483   -6.4574 C   0  0  1  0  0  0  0  0  0  0  0  0
   22.7353   -4.6802   -5.9686 C   0  0  2  0  0  0  0  0  0  0  0  0
   22.1548   -5.8669   -5.2157 C   0  0  1  0  0  0  0  0  0  0  0  0
   22.9955   -6.1867   -3.9823 C   0  0  1  0  0  0  0  0  0  0  0  0
   22.5132   -7.4124   -3.2589 C   0  0  0  0  0  0  0  0  0  0  0  0
   24.3583   -7.1918   -6.3252 O   0  0  0  0  0  0  0  0  0  0  0  0
   21.9505   -4.4048   -7.1203 O   0  0  0  0  0  0  0  0  0  0  0  0
   24.3769   -6.4255   -4.3066 O   0  0  0  0  0  0  0  0  0  0  0  0
   23.0439   -8.5367   -3.9341 O   0  0  0  0  0  0  0  0  0  0  0  0
   24.8954   -3.7094   -6.5236 N   0  0  0  0  0  0  0  0  0  0  0  0
   25.3672   -3.1515   -5.3943 C   0  0  0  0  0  0  0  0  0  0  0  0
   25.2100   -3.6936   -4.2965 O   0  0  0  0  0  0  0  0  0  0  0  0
   26.1371   -1.8704   -5.5511 C   0  0  0  0  0  0  0  0  0  0  0  0
   22.5437   -9.9413   -3.4624 S   0  0  2  0  0  0  0  0  0  0  0  0
   21.1311   -9.9457   -3.7123 O   0  0  0  0  0  0  0  0  0  0  0  0
   22.9253  -10.0550   -2.0961 O   0  0  0  0  0  0  0  0  0  0  0  0
   23.2438  -10.8773   -4.2821 O   0  0  0  0  0  0  0  0  0  0  0  0
   20.8248   -5.5490   -4.8223 O   0  0  0  0  0  0  0  0  0  0  0  0
   25.8134   -5.7144   -5.4881 H   0  0  0  0  0  0  0  0  0  0  0  0
   24.1658   -5.3286   -7.4894 H   0  0  0  0  0  0  0  0  0  0  0  0
   22.7391   -3.8356   -5.2639 H   0  0  0  0  0  0  0  0  0  0  0  0
   22.1572   -6.7503   -5.8712 H   0  0  0  0  0  0  0  0  0  0  0  0
   22.8935   -5.2957   -3.3453 H   0  0  0  0  0  0  0  0  0  0  0  0
   22.8663   -7.3979   -2.2172 H   0  0  0  0  0  0  0  0  0  0  0  0
   21.4139   -7.4493   -3.2463 H   0  0  0  0  0  0  0  0  0  0  0  0
   24.0947   -7.9003   -5.6860 H   0  0  0  0  0  0  0  0  0  0  0  0
   21.0542   -4.0903   -6.8414 H   0  0  0  0  0  0  0  0  0  0  0  0
   25.0617   -3.2549   -7.4329 H   0  0  0  0  0  0  0  0  0  0  0  0
   26.3807   -1.4651   -4.5580 H   0  0  0  0  0  0  0  0  0  0  0  0
   27.0669   -2.0669   -6.1051 H   0  0  0  0  0  0  0  0  0  0  0  0
   25.5273   -1.1416   -6.1051 H   0  0  0  0  0  0  0  0  0  0  0  0
   20.7673   -5.5353   -3.8341 H   0  0  0  0  0  0  0  0  0  0  0  0
  1  2  1  0
  1  7  1  0
  1  9  1  0
  2  3  1  0
  2 11  1  0
  3  4  1  0
  3  8  1  0
  4  5  1  0
  4 19  1  0
  5  6  1  0
  5  9  1  0
  6 10  1  0
 10 15  1  0
 11 12  1  0
 12 13  2  0
 12 14  1  0
 15 16  2  0
 15 17  1  1
 15 18  2  0
  1 20  1  1
  2 21  1  6
  3 22  1  1
  4 23  1  6
  5 24  1  1
  6 25  1  0
  6 26  1  0
  7 27  1  0
  8 28  1  0
 11 29  1  0
 14 30  1  0
 14 31  1  0
 14 32  1  0
 19 33  1  0
M  CHG  1  17  -1
M  END
>  <filename_input>  (4) 
7WDT_NGS_docked.sdf

>  <pdb_id>  (4) 
7WDT_NGS

>  <pose_rank>  (4) 
3

>  <num_atoms_heavy>  (4) 
19

>  <num_torsions>  (4) 
4

>  <pose>  (4) 
[24.77854634765181, -6.062844328101906, -5.62111319867856, 0.47673959487812967, 5.151988562275308, -3.7215418929531747, -6.375432375881822, -8.202315933106634, -0.24784061980419303, 1.9086981493362272]

>  <energy>  (4) 
-702.2296298915604

>  <inter_energy>  (4) 
-744.499364098702

>  <intra_energy>  (4) 
43.14556607677306

>  <rmsd>  (4) 
1.2747

>  <sdf_rank>  (4) 
0

$$$$

     RDKit          3D

 33 33  0  0  0  0  0  0  0  0999 V2000
   22.7109   -4.8108   -6.4122 C   0  0  2  0  0  0  0  0  0  0  0  0
   23.9899   -4.5972   -5.6061 C   0  0  1  0  0  0  0  0  0  0  0  0
   24.6772   -5.9389   -5.3786 C   0  0  2  0  0  0  0  0  0  0  0  0
   23.7124   -7.1066   -5.5106 C   0  0  1  0  0  0  0  0  0  0  0  0
   23.1070   -7.1505   -6.9113 C   0  0  1  0  0  0  0  0  0  0  0  0
   22.0751   -8.2329   -7.0588 C   0  0  0  0  0  0  0  0  0  0  0  0
   21.7936   -5.0703   -5.3932 O   0  0  0  0  0  0  0  0  0  0  0  0
   25.2203   -5.9037   -4.0663 O   0  0  0  0  0  0  0  0  0  0  0  0
   22.4545   -5.9181   -7.2660 O   0  0  0  0  0  0  0  0  0  0  0  0
   22.7565   -9.4187   -7.4210 O   0  0  0  0  0  0  0  0  0  0  0  0
   24.9331   -3.6453   -6.1471 N   0  0  0  0  0  0  0  0  0  0  0  0
   25.3365   -2.6041   -5.3972 C   0  0  0  0  0  0  0  0  0  0  0  0
   24.9427   -2.4585   -4.2364 O   0  0  0  0  0  0  0  0  0  0  0  0
   26.3274   -1.6675   -6.0293 C   0  0  0  0  0  0  0  0  0  0  0  0
   22.0524  -10.7701   -7.0693 S   0  0  2  0  0  0  0  0  0  0  0  0
   20.6521  -10.4643   -7.0070 O   0  0  0  0  0  0  0  0  0  0  0  0
   22.6385  -11.2122   -5.8502 O   0  0  0  0  0  0  0  0  0  0  0  0
   22.3702  -11.6450   -8.1517 O   0  0  0  0  0  0  0  0  0  0  0  0
   24.4217   -8.3134   -5.2549 O   0  0  0  0  0  0  0  0  0  0  0  0
   22.7109   -3.9506   -7.0979 H   0  0  0  0  0  0  0  0  0  0  0  0
   23.6562   -4.1437   -4.6611 H   0  0  0  0  0  0  0  0  0  0  0  0
   25.4560   -6.0904   -6.1404 H   0  0  0  0  0  0  0  0  0  0  0  0
   22.8932   -6.9856   -4.7864 H   0  0  0  0  0  0  0  0  0  0  0  0
   23.9653   -7.3409   -7.5725 H   0  0  0  0  0  0  0  0  0  0  0  0
   21.5449   -8.3796   -6.1062 H   0  0  0  0  0  0  0  0  0  0  0  0
   21.3332   -7.9614   -7.8242 H   0  0  0  0  0  0  0  0  0  0  0  0
   22.2326   -4.9461   -4.5146 H   0  0  0  0  0  0  0  0  0  0  0  0
   24.4861   -5.9512   -3.4039 H   0  0  0  0  0  0  0  0  0  0  0  0
   25.2955   -3.7639   -7.1039 H   0  0  0  0  0  0  0  0  0  0  0  0
   26.8861   -1.1394   -5.2427 H   0  0  0  0  0  0  0  0  0  0  0  0
   27.0276   -2.2415   -6.6540 H   0  0  0  0  0  0  0  0  0  0  0  0
   25.7937   -0.9361   -6.6540 H   0  0  0  0  0  0  0  0  0  0  0  0
   24.5012   -8.4487   -4.2774 H   0  0  0  0  0  0  0  0  0  0  0  0
  1  2  1  0
  1  7  1  0
  1  9  1  0
  2  3  1  0
  2 11  1  0
  3  4  1  0
  3  8  1  0
  4  5  1  0
  4 19  1  0
  5  6  1  0
  5  9  1  0
  6 10  1  0
 10 15  1  0
 11 12  1  0
 12 13  2  0
 12 14  1  0
 15 16  2  0
 15 17  1  1
 15 18  2  0
  1 20  1  6
  2 21  1  1
  3 22  1  6
  4 23  1  1
  5 24  1  6
  6 25  1  0
  6 26  1  0
  7 27  1  0
  8 28  1  0
 11 29  1  0
 14 30  1  0
 14 31  1  0
 14 32  1  0
 19 33  1  0
M  CHG  1  17  -1
M  END
>  <filename_input>  (5) 
7WDT_NGS_docked.sdf

>  <pdb_id>  (5) 
7WDT_NGS

>  <pose_rank>  (5) 
4

>  <num_atoms_heavy>  (5) 
19

>  <num_torsions>  (5) 
4

>  <pose>  (5) 
[22.7108708067553, -4.810798993687977, -6.412198024400593, -1.8751971826318, -2.697060259444878, 0.7275771161231964, -3.372698753365423, 7.702261253268646, -7.079646713059109, 7.548282158195774]

>  <energy>  (5) 
-554.7322562592271

>  <inter_energy>  (5) 
-543.9282985726535

>  <intra_energy>  (5) 
6.197733391732744

>  <rmsd>  (5) 
3.95618

>  <sdf_rank>  (5) 
0

$$$$

     RDKit          3D

 33 33  0  0  0  0  0  0  0  0999 V2000
   21.9195   -6.6870   -5.1431 C   0  0  2  0  0  0  0  0  0  0  0  0
   22.6201   -8.0317   -4.9637 C   0  0  1  0  0  0  0  0  0  0  0  0
   24.1252   -7.8452   -5.1195 C   0  0  2  0  0  0  0  0  0  0  0  0
   24.4688   -6.5884   -5.9033 C   0  0  1  0  0  0  0  0  0  0  0  0
   23.9397   -5.3465   -5.1904 C   0  0  1  0  0  0  0  0  0  0  0  0
   24.1736   -4.0876   -5.9770 C   0  0  0  0  0  0  0  0  0  0  0  0
   21.7397   -6.6624   -6.5266 O   0  0  0  0  0  0  0  0  0  0  0  0
   24.6116   -8.9918   -5.8029 O   0  0  0  0  0  0  0  0  0  0  0  0
   22.5230   -5.4148   -4.9478 O   0  0  0  0  0  0  0  0  0  0  0  0
   25.4108   -3.5486   -5.5520 O   0  0  0  0  0  0  0  0  0  0  0  0
   22.3354   -8.7405   -3.7370 N   0  0  0  0  0  0  0  0  0  0  0  0
   23.1639   -8.6151   -2.6848 C   0  0  0  0  0  0  0  0  0  0  0  0
   24.1524   -7.8770   -2.7307 O   0  0  0  0  0  0  0  0  0  0  0  0
   22.7901   -9.3755   -1.4436 C   0  0  0  0  0  0  0  0  0  0  0  0
   25.5239   -1.9892   -5.5174 S   0  0  2  0  0  0  0  0  0  0  0  0
   25.8792   -1.6636   -4.1662 O   0  0  0  0  0  0  0  0  0  0  0  0
   24.2638   -1.4947   -5.9565 O   0  0  0  0  0  0  0  0  0  0  0  0
   26.5631   -1.6735   -6.4440 O   0  0  0  0  0  0  0  0  0  0  0  0
   25.8836   -6.5043   -6.0300 O   0  0  0  0  0  0  0  0  0  0  0  0
   21.1327   -6.7202   -4.3751 H   0  0  0  0  0  0  0  0  0  0  0  0
   22.2044   -8.6749   -5.7533 H   0  0  0  0  0  0  0  0  0  0  0  0
   24.5893   -7.7312   -4.1288 H   0  0  0  0  0  0  0  0  0  0  0  0
   23.9998   -6.6396   -6.8970 H   0  0  0  0  0  0  0  0  0  0  0  0
   24.4962   -5.3197   -4.2419 H   0  0  0  0  0  0  0  0  0  0  0  0
   24.2128   -4.3175   -7.0520 H   0  0  0  0  0  0  0  0  0  0  0  0
   23.3583   -3.3681   -5.8111 H   0  0  0  0  0  0  0  0  0  0  0  0
   20.7803   -6.5313   -6.7324 H   0  0  0  0  0  0  0  0  0  0  0  0
   24.8999   -9.6715   -5.1433 H   0  0  0  0  0  0  0  0  0  0  0  0
   21.5006   -9.3399   -3.6685 H   0  0  0  0  0  0  0  0  0  0  0  0
   23.0768   -8.7923   -0.5561 H   0  0  0  0  0  0  0  0  0  0  0  0
   21.7039   -9.5490   -1.4331 H   0  0  0  0  0  0  0  0  0  0  0  0
   23.3159  -10.3416   -1.4331 H   0  0  0  0  0  0  0  0  0  0  0  0
   26.2947   -6.4799   -5.1298 H   0  0  0  0  0  0  0  0  0  0  0  0
  1  2  1  0
  1  7  1  0
  1  9  1  0
  2  3  1  0
  2 11  1  0
  3  4  1  0
  3  8  1  0
  4  5  1  0
  4 19  1  0
  5  6  1  0
  5  9  1  0
  6 10  1  0
 10 15  1  0
 11 12  1  0
 12 13  2  0
 12 14  1  0
 15 16  2  0
 15 17  1  6
 15 18  2  0
  1 20  1  1
  2 21  1  6
  3 22  1  1
  4 23  1  6
  5 24  1  1
  6 25  1  0
  6 26  1  0
  7 27  1  0
  8 28  1  0
 11 29  1  0
 14 30  1  0
 14 31  1  0
 14 32  1  0
 19 33  1  0
M  CHG  1  17  -1
M  END
>  <filename_input>  (6) 
7WDT_NGS_docked.sdf

>  <pdb_id>  (6) 
7WDT_NGS

>  <pose_rank>  (6) 
5

>  <num_atoms_heavy>  (6) 
19

>  <num_torsions>  (6) 
4

>  <pose>  (6) 
[21.919487505188943, -6.687015642004856, -5.143116884654592, -0.4745644548034763, -1.4048158189111843, -2.5967014096252026, -0.9172320870909619, 7.612477682206429, 12.803926130829982, -3.314578784117068]

>  <energy>  (6) 
-463.139021696788

>  <inter_energy>  (6) 
-495.2627585167861

>  <intra_energy>  (6) 
50.1918138251879

>  <rmsd>  (6) 
5.94337

>  <sdf_rank>  (6) 
0

$$$$

     RDKit          3D

 33 33  0  0  0  0  0  0  0  0999 V2000
   23.0022   -5.0883   -6.6941 C   0  0  2  0  0  0  0  0  0  0  0  0
   23.9775   -4.5954   -5.6277 C   0  0  1  0  0  0  0  0  0  0  0  0
   24.6951   -5.7878   -5.0053 C   0  0  2  0  0  0  0  0  0  0  0  0
   23.9195   -7.0828   -5.1882 C   0  0  1  0  0  0  0  0  0  0  0  0
   23.7389   -7.3985   -6.6709 C   0  0  1  0  0  0  0  0  0  0  0  0
   22.8954   -8.6209   -6.9005 C   0  0  0  0  0  0  0  0  0  0  0  0
   21.8640   -5.3288   -5.9237 O   0  0  0  0  0  0  0  0  0  0  0  0
   24.8420   -5.5011   -3.6217 O   0  0  0  0  0  0  0  0  0  0  0  0
   23.1003   -6.3259   -7.3866 O   0  0  0  0  0  0  0  0  0  0  0  0
   23.7481   -9.7457   -6.8038 O   0  0  0  0  0  0  0  0  0  0  0  0
   24.9418   -3.6068   -6.0535 N   0  0  0  0  0  0  0  0  0  0  0  0
   25.2513   -2.5812   -5.2401 C   0  0  0  0  0  0  0  0  0  0  0  0
   24.7521   -2.4809   -4.1156 O   0  0  0  0  0  0  0  0  0  0  0  0
   26.2714   -1.6040   -5.7528 C   0  0  0  0  0  0  0  0  0  0  0  0
   23.0978  -11.0814   -6.3150 S   0  0  2  0  0  0  0  0  0  0  0  0
   21.6854  -10.9043   -6.4935 O   0  0  0  0  0  0  0  0  0  0  0  0
   23.5287  -11.2583   -4.9703 O   0  0  0  0  0  0  0  0  0  0  0  0
   23.6323  -12.0886   -7.1740 O   0  0  0  0  0  0  0  0  0  0  0  0
   24.6376   -8.1360   -4.5560 O   0  0  0  0  0  0  0  0  0  0  0  0
   23.1147   -4.3374   -7.4900 H   0  0  0  0  0  0  0  0  0  0  0  0
   23.3511   -4.0671   -4.8939 H   0  0  0  0  0  0  0  0  0  0  0  0
   25.6672   -5.9345   -5.4987 H   0  0  0  0  0  0  0  0  0  0  0  0
   22.9223   -6.9767   -4.7361 H   0  0  0  0  0  0  0  0  0  0  0  0
   24.7622   -7.5588   -7.0413 H   0  0  0  0  0  0  0  0  0  0  0  0
   22.1050   -8.6813   -6.1380 H   0  0  0  0  0  0  0  0  0  0  0  0
   22.4142   -8.5813   -7.8889 H   0  0  0  0  0  0  0  0  0  0  0  0
   22.0990   -5.2792   -4.9632 H   0  0  0  0  0  0  0  0  0  0  0  0
   24.4617   -6.2436   -3.0886 H   0  0  0  0  0  0  0  0  0  0  0  0
   25.3907   -3.6873   -6.9770 H   0  0  0  0  0  0  0  0  0  0  0  0
   26.7758   -1.1209   -4.9030 H   0  0  0  0  0  0  0  0  0  0  0  0
   27.0139   -2.1366   -6.3653 H   0  0  0  0  0  0  0  0  0  0  0  0
   25.7713   -0.8394   -6.3653 H   0  0  0  0  0  0  0  0  0  0  0  0
   24.5705   -8.0376   -3.5732 H   0  0  0  0  0  0  0  0  0  0  0  0
  1  2  1  0
  1  7  1  0
  1  9  1  0
  2  3  1  0
  2 11  1  0
  3  4  1  0
  3  8  1  0
  4  5  1  0
  4 19  1  0
  5  6  1  0
  5  9  1  0
  6 10  1  0
 10 15  1  0
 11 12  1  0
 12 13  2  0
 12 14  1  0
 15 16  2  0
 15 17  1  1
 15 18  2  0
  1 20  1  6
  2 21  1  1
  3 22  1  6
  4 23  1  1
  5 24  1  6
  6 25  1  0
  6 26  1  0
  7 27  1  0
  8 28  1  0
 11 29  1  0
 14 30  1  0
 14 31  1  0
 14 32  1  0
 19 33  1  0
M  CHG  1  17  -1
M  END
>  <filename_input>  (7) 
7WDT_NGS_docked.sdf

>  <pdb_id>  (7) 
7WDT_NGS

>  <pose_rank>  (7) 
6

>  <num_atoms_heavy>  (7) 
19

>  <num_torsions>  (7) 
4

>  <pose>  (7) 
[23.002198625079657, -5.088264669380102, -6.694057579606786, -2.00310712296726, -3.0212694021753133, 0.7323098956135035, -3.092796823618834, 7.7491533522881175, -7.1558833909274036, 7.421677527458767]

>  <energy>  (7) 
-553.7519294235759

>  <inter_energy>  (7) 
-568.1314395977628

>  <intra_energy>  (7) 
13.51258941233995

>  <rmsd>  (7) 
3.6813

>  <sdf_rank>  (7) 
0

$$$$

     RDKit          3D

 33 33  0  0  0  0  0  0  0  0999 V2000
   22.4615   -4.9088   -6.3747 C   0  0  2  0  0  0  0  0  0  0  0  0
   23.7650   -4.4625   -5.7167 C   0  0  1  0  0  0  0  0  0  0  0  0
   24.7717   -5.6068   -5.7560 C   0  0  2  0  0  0  0  0  0  0  0  0
   24.0960   -6.9594   -5.9162 C   0  0  1  0  0  0  0  0  0  0  0  0
   23.3078   -7.0173   -7.2223 C   0  0  1  0  0  0  0  0  0  0  0  0
   22.5453   -8.3028   -7.3780 C   0  0  0  0  0  0  0  0  0  0  0  0
   21.7989   -5.4850   -5.2903 O   0  0  0  0  0  0  0  0  0  0  0  0
   25.4885   -5.5642   -4.5302 O   0  0  0  0  0  0  0  0  0  0  0  0
   22.3400   -5.9576   -7.3267 O   0  0  0  0  0  0  0  0  0  0  0  0
   22.0470   -8.3399   -8.7016 O   0  0  0  0  0  0  0  0  0  0  0  0
   24.3659   -3.2586   -6.2437 N   0  0  0  0  0  0  0  0  0  0  0  0
   24.9306   -2.3712   -5.4054 C   0  0  0  0  0  0  0  0  0  0  0  0
   24.9779   -2.5775   -4.1892 O   0  0  0  0  0  0  0  0  0  0  0  0
   25.5436   -1.1518   -6.0345 C   0  0  0  0  0  0  0  0  0  0  0  0
   22.0624   -9.7288   -9.4204 S   0  0  2  0  0  0  0  0  0  0  0  0
   21.3413  -10.6143   -8.5521 O   0  0  0  0  0  0  0  0  0  0  0  0
   23.4337  -10.0504   -9.6231 O   0  0  0  0  0  0  0  0  0  0  0  0
   21.3860   -9.5114  -10.6587 O   0  0  0  0  0  0  0  0  0  0  0  0
   25.0969   -7.9708   -5.9130 O   0  0  0  0  0  0  0  0  0  0  0  0
   22.1556   -4.0137   -6.9362 H   0  0  0  0  0  0  0  0  0  0  0  0
   23.4858   -4.1994   -4.6857 H   0  0  0  0  0  0  0  0  0  0  0  0
   25.4367   -5.4859   -6.6239 H   0  0  0  0  0  0  0  0  0  0  0  0
   23.3935   -7.1161   -5.0843 H   0  0  0  0  0  0  0  0  0  0  0  0
   24.0736   -6.9238   -8.0064 H   0  0  0  0  0  0  0  0  0  0  0  0
   23.2126   -9.1596   -7.2030 H   0  0  0  0  0  0  0  0  0  0  0  0
   21.7218   -8.3573   -6.6507 H   0  0  0  0  0  0  0  0  0  0  0  0
   22.1895   -5.1453   -4.4465 H   0  0  0  0  0  0  0  0  0  0  0  0
   24.8510   -5.6020   -3.7737 H   0  0  0  0  0  0  0  0  0  0  0  0
   24.3618   -3.0806   -7.2582 H   0  0  0  0  0  0  0  0  0  0  0  0
   25.8881   -0.4663   -5.2461 H   0  0  0  0  0  0  0  0  0  0  0  0
   26.3981   -1.4516   -6.6589 H   0  0  0  0  0  0  0  0  0  0  0  0
   24.7932   -0.6448   -6.6589 H   0  0  0  0  0  0  0  0  0  0  0  0
   25.3275   -8.2038   -4.9789 H   0  0  0  0  0  0  0  0  0  0  0  0
  1  2  1  0
  1  7  1  0
  1  9  1  0
  2  3  1  0
  2 11  1  0
  3  4  1  0
  3  8  1  0
  4  5  1  0
  4 19  1  0
  5  6  1  0
  5  9  1  0
  6 10  1  0
 10 15  1  0
 11 12  1  0
 12 13  2  0
 12 14  1  0
 15 16  2  0
 15 17  1  6
 15 18  2  0
  1 20  1  6
  2 21  1  1
  3 22  1  6
  4 23  1  1
  5 24  1  6
  6 25  1  0
  6 26  1  0
  7 27  1  0
  8 28  1  0
 11 29  1  0
 14 30  1  0
 14 31  1  0
 14 32  1  0
 19 33  1  0
M  CHG  1  17  -1
M  END
>  <filename_input>  (8) 
7WDT_NGS_docked.sdf

>  <pdb_id>  (8) 
7WDT_NGS

>  <pose_rank>  (8) 
7

>  <num_atoms_heavy>  (8) 
19

>  <num_torsions>  (8) 
4

>  <pose>  (8) 
[22.46148196583585, -4.908769299573203, -6.374742305054511, -1.4308493529681214, -2.835052704915429, 0.6240028421404449, -3.083944258317731, 6.24867060072818, -7.321083930825562, 8.07044706519613]

>  <energy>  (8) 
-489.2500033377349

>  <inter_energy>  (8) 
-485.845456489204

>  <intra_energy>  (8) 
6.46525036612015

>  <rmsd>  (8) 
4.8584

>  <sdf_rank>  (8) 
0

$$$$

     RDKit          3D

 33 33  0  0  0  0  0  0  0  0999 V2000
   24.8862   -6.4255   -4.5803 C   0  0  2  0  0  0  0  0  0  0  0  0
   24.7108   -5.2350   -5.5201 C   0  0  1  0  0  0  0  0  0  0  0  0
   23.3009   -5.2490   -6.1001 C   0  0  2  0  0  0  0  0  0  0  0  0
   22.6712   -6.6318   -6.0426 C   0  0  1  0  0  0  0  0  0  0  0  0
   22.5613   -7.1148   -4.5986 C   0  0  1  0  0  0  0  0  0  0  0  0
   22.0313   -8.5175   -4.4995 C   0  0  0  0  0  0  0  0  0  0  0  0
   25.2999   -7.4130   -5.4752 O   0  0  0  0  0  0  0  0  0  0  0  0
   23.4091   -4.8205   -7.4503 O   0  0  0  0  0  0  0  0  0  0  0  0
   23.8309   -7.1131   -3.9213 O   0  0  0  0  0  0  0  0  0  0  0  0
   23.1060   -9.3472   -4.1020 O   0  0  0  0  0  0  0  0  0  0  0  0
   25.0017   -3.9340   -4.9624 N   0  0  0  0  0  0  0  0  0  0  0  0
   25.5686   -2.9881   -5.7325 C   0  0  0  0  0  0  0  0  0  0  0  0
   25.8185   -3.1952   -6.9236 O   0  0  0  0  0  0  0  0  0  0  0  0
   25.8274   -1.6593   -5.0800 C   0  0  0  0  0  0  0  0  0  0  0  0
   22.8522  -10.2901   -2.8803 S   0  0  2  0  0  0  0  0  0  0  0  0
   23.2729  -11.5922   -3.3111 O   0  0  0  0  0  0  0  0  0  0  0  0
   21.4694  -10.1642   -2.5683 O   0  0  0  0  0  0  0  0  0  0  0  0
   23.6751   -9.7708   -1.8356 O   0  0  0  0  0  0  0  0  0  0  0  0
   21.3759   -6.5661   -6.6279 O   0  0  0  0  0  0  0  0  0  0  0  0
   25.4709   -5.9963   -3.7533 H   0  0  0  0  0  0  0  0  0  0  0  0
   25.4744   -5.3748   -6.2994 H   0  0  0  0  0  0  0  0  0  0  0  0
   22.6508   -4.5857   -5.5106 H   0  0  0  0  0  0  0  0  0  0  0  0
   23.3032   -7.3427   -6.5951 H   0  0  0  0  0  0  0  0  0  0  0  0
   21.8671   -6.4041   -4.1263 H   0  0  0  0  0  0  0  0  0  0  0  0
   21.2247   -8.5630   -3.7530 H   0  0  0  0  0  0  0  0  0  0  0  0
   21.6216   -8.8476   -5.4655 H   0  0  0  0  0  0  0  0  0  0  0  0
   25.6291   -8.1986   -4.9707 H   0  0  0  0  0  0  0  0  0  0  0  0
   23.6513   -3.8608   -7.4735 H   0  0  0  0  0  0  0  0  0  0  0  0
   24.7756   -3.7316   -3.9781 H   0  0  0  0  0  0  0  0  0  0  0  0
   25.8044   -1.7772   -3.9865 H   0  0  0  0  0  0  0  0  0  0  0  0
   26.8151   -1.2858   -5.3878 H   0  0  0  0  0  0  0  0  0  0  0  0
   25.0520   -0.9424   -5.3878 H   0  0  0  0  0  0  0  0  0  0  0  0
   20.6921   -6.5315   -5.9129 H   0  0  0  0  0  0  0  0  0  0  0  0
  1  2  1  0
  1  7  1  0
  1  9  1  0
  2  3  1  0
  2 11  1  0
  3  4  1  0
  3  8  1  0
  4  5  1  0
  4 19  1  0
  5  6  1  0
  5  9  1  0
  6 10  1  0
 10 15  1  0
 11 12  1  0
 12 13  2  0
 12 14  1  0
 15 16  2  0
 15 17  1  1
 15 18  2  0
  1 20  1  1
  2 21  1  6
  3 22  1  1
  4 23  1  6
  5 24  1  1
  6 25  1  0
  6 26  1  0
  7 27  1  0
  8 28  1  0
 11 29  1  0
 14 30  1  0
 14 31  1  0
 14 32  1  0
 19 33  1  0
M  CHG  1  17  -1
M  END
>  <filename_input>  (9) 
7WDT_NGS_docked.sdf

>  <pdb_id>  (9) 
7WDT_NGS

>  <pose_rank>  (9) 
8

>  <num_atoms_heavy>  (9) 
19

>  <num_torsions>  (9) 
4

>  <pose>  (9) 
[24.886205155748915, -6.425506890855194, -4.580333286661152, -1.4933010767381103, 5.242470207941921, -1.2213124280375014, -3.015690238505228, -7.731955506382814, -1.256786704809914, 3.0908132915912385]

>  <energy>  (9) 
-631.3514448957543

>  <inter_energy>  (9) 
-637.3921837934836

>  <intra_energy>  (9) 
13.211246971371136

>  <rmsd>  (9) 
1.70142

>  <sdf_rank>  (9) 
0

$$$$

     RDKit          3D

 33 33  0  0  0  0  0  0  0  0999 V2000
   24.1836   -9.0923   -3.8831 C   0  0  2  0  0  0  0  0  0  0  0  0
   23.5310  -10.1159   -2.9570 C   0  0  1  0  0  0  0  0  0  0  0  0
   22.1599   -9.6086   -2.5247 C   0  0  2  0  0  0  0  0  0  0  0  0
   22.0396   -8.0987   -2.6572 C   0  0  1  0  0  0  0  0  0  0  0  0
   22.2345   -7.6673   -4.1086 C   0  0  1  0  0  0  0  0  0  0  0  0
   22.2181   -6.1736   -4.2724 C   0  0  0  0  0  0  0  0  0  0  0  0
   24.8189   -8.2628   -2.9582 O   0  0  0  0  0  0  0  0  0  0  0  0
   21.9905   -9.9919   -1.1673 O   0  0  0  0  0  0  0  0  0  0  0  0
   23.4874   -8.1204   -4.6522 O   0  0  0  0  0  0  0  0  0  0  0  0
   22.3523   -5.8994   -5.6538 O   0  0  0  0  0  0  0  0  0  0  0  0
   23.4191  -11.4616   -3.4719 N   0  0  0  0  0  0  0  0  0  0  0  0
   22.5765  -11.7207   -4.4878 C   0  0  0  0  0  0  0  0  0  0  0  0
   21.9151  -10.8232   -5.0177 O   0  0  0  0  0  0  0  0  0  0  0  0
   22.5284  -13.1426   -4.9720 C   0  0  0  0  0  0  0  0  0  0  0  0
   23.6170   -5.0898   -6.0907 S   0  0  2  0  0  0  0  0  0  0  0  0
   23.3172   -4.5952   -7.4035 O   0  0  0  0  0  0  0  0  0  0  0  0
   24.7103   -5.9976   -6.0121 O   0  0  0  0  0  0  0  0  0  0  0  0
   23.7353   -4.0417   -5.1286 O   0  0  0  0  0  0  0  0  0  0  0  0
   20.7485   -7.7043   -2.2073 O   0  0  0  0  0  0  0  0  0  0  0  0
   24.6652   -9.7259   -4.6424 H   0  0  0  0  0  0  0  0  0  0  0  0
   24.2205  -10.2063   -2.1047 H   0  0  0  0  0  0  0  0  0  0  0  0
   21.3832  -10.0412   -3.1726 H   0  0  0  0  0  0  0  0  0  0  0  0
   22.8187   -7.6167   -2.0484 H   0  0  0  0  0  0  0  0  0  0  0  0
   21.3896   -8.1250   -4.6440 H   0  0  0  0  0  0  0  0  0  0  0  0
   21.2681   -5.7645   -3.8981 H   0  0  0  0  0  0  0  0  0  0  0  0
   23.0373   -5.7108   -3.7025 H   0  0  0  0  0  0  0  0  0  0  0  0
   24.5930   -8.5578   -2.0406 H   0  0  0  0  0  0  0  0  0  0  0  0
   22.3116   -9.2653   -0.5766 H   0  0  0  0  0  0  0  0  0  0  0  0
   23.9829  -12.2200   -3.0621 H   0  0  0  0  0  0  0  0  0  0  0  0
   22.5053  -13.8234   -4.1083 H   0  0  0  0  0  0  0  0  0  0  0  0
   21.6246  -13.2921   -5.5810 H   0  0  0  0  0  0  0  0  0  0  0  0
   23.4199  -13.3529   -5.5810 H   0  0  0  0  0  0  0  0  0  0  0  0
   20.7314   -7.6991   -1.2175 H   0  0  0  0  0  0  0  0  0  0  0  0
  1  2  1  0
  1  7  1  0
  1  9  1  0
  2  3  1  0
  2 11  1  0
  3  4  1  0
  3  8  1  0
  4  5  1  0
  4 19  1  0
  5  6  1  0
  5  9  1  0
  6 10  1  0
 10 15  1  0
 11 12  1  0
 12 13  2  0
 12 14  1  0
 15 16  2  0
 15 17  1  6
 15 18  2  0
  1 20  1  6
  2 21  1  1
  3 22  1  6
  4 23  1  1
  5 24  1  6
  6 25  1  0
  6 26  1  0
  7 27  1  0
  8 28  1  0
 11 29  1  0
 14 30  1  0
 14 31  1  0
 14 32  1  0
 19 33  1  0
M  CHG  1  17  -1
M  END
>  <filename_input>  (10) 
7WDT_NGS_docked.sdf

>  <pdb_id>  (10) 
7WDT_NGS

>  <pose_rank>  (10) 
9

>  <num_atoms_heavy>  (10) 
19

>  <num_torsions>  (10) 
4

>  <pose>  (10) 
[24.183605747187464, -9.092301282253954, -3.8830753499465045, -2.6908127046097934, 0.6738270967926071, 0.7296850404442393, -0.45462838503305125, -0.163835954298004, 0.711582134321815, -2.0111365262283774]

>  <energy>  (10) 
-398.0857789378539

>  <inter_energy>  (10) 
-437.7085145718028

>  <intra_energy>  (10) 
47.347798312462096

>  <rmsd>  (10) 
6.32226

>  <sdf_rank>  (10) 
0

$$$$

     RDKit          3D

 33 33  0  0  0  0  0  0  0  0999 V2000
   22.1147  -11.9343  -12.7894 C   0  0  2  0  0  0  0  0  0  0  0  0
   20.9055  -11.4660  -13.5955 C   0  0  1  0  0  0  0  0  0  0  0  0
   19.6332  -11.7116  -12.7921 C   0  0  2  0  0  0  0  0  0  0  0  0
   19.8247  -12.7809  -11.7283 C   0  0  1  0  0  0  0  0  0  0  0  0
   20.9042  -12.3641  -10.7326 C   0  0  1  0  0  0  0  0  0  0  0  0
   21.1942  -13.4331   -9.7170 C   0  0  0  0  0  0  0  0  0  0  0  0
   22.1789  -13.2777  -13.1611 O   0  0  0  0  0  0  0  0  0  0  0  0
   18.6365  -12.1207  -13.7181 O   0  0  0  0  0  0  0  0  0  0  0  0
   22.1568  -12.0651  -11.3745 O   0  0  0  0  0  0  0  0  0  0  0  0
   20.8703  -12.9052   -8.4450 O   0  0  0  0  0  0  0  0  0  0  0  0
   20.9394  -10.0977  -14.0594 N   0  0  0  0  0  0  0  0  0  0  0  0
   21.2667   -9.1106  -13.2064 C   0  0  0  0  0  0  0  0  0  0  0  0
   21.5736   -9.3503  -12.0350 O   0  0  0  0  0  0  0  0  0  0  0  0
   21.2902   -7.7180  -13.7708 C   0  0  0  0  0  0  0  0  0  0  0  0
   21.0099  -11.3575   -8.2693 S   0  0  2  0  0  0  0  0  0  0  0  0
   20.1044  -10.7834   -9.2225 O   0  0  0  0  0  0  0  0  0  0  0  0
   22.3865  -11.0619   -8.4758 O   0  0  0  0  0  0  0  0  0  0  0  0
   20.6148  -11.1015   -6.9215 O   0  0  0  0  0  0  0  0  0  0  0  0
   18.5897  -12.9711  -11.0475 O   0  0  0  0  0  0  0  0  0  0  0  0
   22.8615  -11.1543  -12.9990 H   0  0  0  0  0  0  0  0  0  0  0  0
   20.9294  -12.0670  -14.5164 H   0  0  0  0  0  0  0  0  0  0  0  0
   19.3465  -10.7918  -12.2613 H   0  0  0  0  0  0  0  0  0  0  0  0
   20.1435  -13.7182  -12.2077 H   0  0  0  0  0  0  0  0  0  0  0  0
   20.4929  -11.4679  -10.2451 H   0  0  0  0  0  0  0  0  0  0  0  0
   20.5814  -14.3232   -9.9221 H   0  0  0  0  0  0  0  0  0  0  0  0
   22.2525  -13.7306   -9.7567 H   0  0  0  0  0  0  0  0  0  0  0  0
   22.2060  -13.8438  -12.3494 H   0  0  0  0  0  0  0  0  0  0  0  0
   17.8422  -12.4468  -13.2253 H   0  0  0  0  0  0  0  0  0  0  0  0
   20.7136   -9.8791  -15.0403 H   0  0  0  0  0  0  0  0  0  0  0  0
   21.3025   -6.9888  -12.9474 H   0  0  0  0  0  0  0  0  0  0  0  0
   22.1907   -7.5882  -14.3891 H   0  0  0  0  0  0  0  0  0  0  0  0
   20.3946   -7.5578  -14.3891 H   0  0  0  0  0  0  0  0  0  0  0  0
   18.7447  -12.9472  -10.0700 H   0  0  0  0  0  0  0  0  0  0  0  0
  1  2  1  0
  1  7  1  0
  1  9  1  0
  2  3  1  0
  2 11  1  0
  3  4  1  0
  3  8  1  0
  4  5  1  0
  4 19  1  0
  5  6  1  0
  5  9  1  0
  6 10  1  0
 10 15  1  0
 11 12  1  0
 12 13  2  0
 12 14  1  0
 15 16  2  0
 15 17  1  6
 15 18  2  0
  1 20  1  6
  2 21  1  6
  3 22  1  1
  4 23  1  6
  5 24  1  1
  6 25  1  0
  6 26  1  0
  7 27  1  0
  8 28  1  0
 11 29  1  0
 14 30  1  0
 14 31  1  0
 14 32  1  0
 19 33  1  0
M  CHG  1  17  -1
M  END
>  <filename_input>  (11) 
7WDT_NGS_docked.sdf

>  <pdb_id>  (11) 
7WDT_NGS

>  <pose_rank>  (11) 
10

>  <num_atoms_heavy>  (11) 
19

>  <num_torsions>  (11) 
4

>  <pose>  (11) 
[22.11466166397268, -11.934305708551674, -12.789410296830097, -2.952437875124637, 3.557800475467513, 5.056817510880759, 6.194229589222831, 0.8802341413150059, 2.265642352117684, 8.165801736127245]

>  <energy>  (11) 
12.186420648454472

>  <inter_energy>  (11) 
-93.92222698613747

>  <intra_energy>  (11) 
110.4574884494625

>  <rmsd>  (11) 
9.46512

>  <sdf_rank>  (11) 
0

$$$$

     RDKit          3D

 33 33  0  0  0  0  0  0  0  0999 V2000
   22.3701   -8.9965   -5.5669 C   0  0  2  0  0  0  0  0  0  0  0  0
   23.5603   -9.6826   -6.2332 C   0  0  1  0  0  0  0  0  0  0  0  0
   24.8504   -8.9936   -5.8027 C   0  0  2  0  0  0  0  0  0  0  0  0
   24.6065   -7.5750   -5.3129 C   0  0  1  0  0  0  0  0  0  0  0  0
   23.6781   -7.5747   -4.1011 C   0  0  1  0  0  0  0  0  0  0  0  0
   23.3329   -6.1865   -3.6406 C   0  0  0  0  0  0  0  0  0  0  0  0
   22.0970   -7.9834   -6.4866 O   0  0  0  0  0  0  0  0  0  0  0  0
   25.7038   -8.9754   -6.9382 O   0  0  0  0  0  0  0  0  0  0  0  0
   22.4278   -8.2353   -4.3677 O   0  0  0  0  0  0  0  0  0  0  0  0
   22.4414   -5.6363   -4.5915 O   0  0  0  0  0  0  0  0  0  0  0  0
   23.6709  -11.1089   -6.0286 N   0  0  0  0  0  0  0  0  0  0  0  0
   23.4853  -11.9489   -7.0626 C   0  0  0  0  0  0  0  0  0  0  0  0
   23.2534  -11.5263   -8.1990 O   0  0  0  0  0  0  0  0  0  0  0  0
   23.6296  -13.4155   -6.7683 C   0  0  0  0  0  0  0  0  0  0  0  0
   23.0766   -4.7955   -5.7471 S   0  0  2  0  0  0  0  0  0  0  0  0
   21.9939   -4.0380   -6.3056 O   0  0  0  0  0  0  0  0  0  0  0  0
   23.6860   -5.7343   -6.6260 O   0  0  0  0  0  0  0  0  0  0  0  0
   24.0483   -3.9663   -5.1097 O   0  0  0  0  0  0  0  0  0  0  0  0
   25.8571   -6.9943   -4.9610 O   0  0  0  0  0  0  0  0  0  0  0  0
   21.7192   -9.8434   -5.3041 H   0  0  0  0  0  0  0  0  0  0  0  0
   23.3806   -9.5750   -7.3131 H   0  0  0  0  0  0  0  0  0  0  0  0
   25.2999   -9.5409   -4.9610 H   0  0  0  0  0  0  0  0  0  0  0  0
   24.1272   -6.9912   -6.1126 H   0  0  0  0  0  0  0  0  0  0  0  0
   24.2439   -8.1109   -3.3250 H   0  0  0  0  0  0  0  0  0  0  0  0
   22.8513   -6.2268   -2.6525 H   0  0  0  0  0  0  0  0  0  0  0  0
   24.2390   -5.5689   -3.5539 H   0  0  0  0  0  0  0  0  0  0  0  0
   21.8722   -7.1498   -6.0022 H   0  0  0  0  0  0  0  0  0  0  0  0
   26.6480   -8.9552   -6.6411 H   0  0  0  0  0  0  0  0  0  0  0  0
   23.8911  -11.4811   -5.0938 H   0  0  0  0  0  0  0  0  0  0  0  0
   23.6449  -13.5712   -5.6795 H   0  0  0  0  0  0  0  0  0  0  0  0
   22.7809  -13.9623   -7.2050 H   0  0  0  0  0  0  0  0  0  0  0  0
   24.5685  -13.7865   -7.2050 H   0  0  0  0  0  0  0  0  0  0  0  0
   25.9377   -6.9569   -3.9750 H   0  0  0  0  0  0  0  0  0  0  0  0
  1  2  1  0
  1  7  1  0
  1  9  1  0
  2  3  1  0
  2 11  1  0
  3  4  1  0
  3  8  1  0
  4  5  1  0
  4 19  1  0
  5  6  1  0
  5  9  1  0
  6 10  1  0
 10 15  1  0
 11 12  1  0
 12 13  2  0
 12 14  1  0
 15 16  2  0
 15 17  1  6
 15 18  2  0
  1 20  1  1
  2 21  1  6
  3 22  1  1
  4 23  1  6
  5 24  1  1
  6 25  1  0
  6 26  1  0
  7 27  1  0
  8 28  1  0
 11 29  1  0
 14 30  1  0
 14 31  1  0
 14 32  1  0
 19 33  1  0
M  CHG  1  17  -1
M  END
>  <filename_input>  (12) 
7WDT_NGS_docked.sdf

>  <pdb_id>  (12) 
7WDT_NGS

>  <pose_rank>  (12) 
11

>  <num_atoms_heavy>  (12) 
19

>  <num_torsions>  (12) 
4

>  <pose>  (12) 
[22.370131696109954, -8.996525073367176, -5.566850720444687, 0.08714690833969854, -0.23393718391336477, -2.559933712085893, -3.584135372317198, 4.203803240112637, 7.435629150644165, -2.0191528921251494]

>  <energy>  (12) 
-289.8574636397702

>  <inter_energy>  (12) 
-380.017257044093

>  <intra_energy>  (12) 
85.45216743356895

>  <rmsd>  (12) 
6.0753

>  <sdf_rank>  (12) 
0

$$$$

     RDKit          3D

 33 33  0  0  0  0  0  0  0  0999 V2000
   24.2912   -8.9381   -6.3729 C   0  0  2  0  0  0  0  0  0  0  0  0
   22.9501   -9.2264   -7.0433 C   0  0  1  0  0  0  0  0  0  0  0  0
   21.8342   -8.5404   -6.2633 C   0  0  2  0  0  0  0  0  0  0  0  0
   22.2380   -8.2419   -4.8281 C   0  0  1  0  0  0  0  0  0  0  0  0
   23.4445   -7.3073   -4.7906 C   0  0  1  0  0  0  0  0  0  0  0  0
   23.9379   -7.0600   -3.3928 C   0  0  0  0  0  0  0  0  0  0  0  0
   24.3514   -9.9742   -5.4403 O   0  0  0  0  0  0  0  0  0  0  0  0
   20.7202   -9.4219   -6.2809 O   0  0  0  0  0  0  0  0  0  0  0  0
   24.5647   -7.8273   -5.5291 O   0  0  0  0  0  0  0  0  0  0  0  0
   24.1529   -8.3227   -2.7920 O   0  0  0  0  0  0  0  0  0  0  0  0
   22.8519   -8.8883   -8.4449 N   0  0  0  0  0  0  0  0  0  0  0  0
   22.8589   -9.8646   -9.3701 C   0  0  0  0  0  0  0  0  0  0  0  0
   22.9142  -11.0547   -9.0468 O   0  0  0  0  0  0  0  0  0  0  0  0
   22.7411   -9.4296  -10.8038 C   0  0  0  0  0  0  0  0  0  0  0  0
   23.5065   -8.5522   -1.3865 S   0  0  2  0  0  0  0  0  0  0  0  0
   22.4146   -7.6246   -1.3141 O   0  0  0  0  0  0  0  0  0  0  0  0
   24.5478   -8.3493   -0.4380 O   0  0  0  0  0  0  0  0  0  0  0  0
   23.0663   -9.9102   -1.3996 O   0  0  0  0  0  0  0  0  0  0  0  0
   21.1370   -7.6332   -4.1633 O   0  0  0  0  0  0  0  0  0  0  0  0
   24.9615   -8.7817   -7.2310 H   0  0  0  0  0  0  0  0  0  0  0  0
   22.8515  -10.3218   -7.0193 H   0  0  0  0  0  0  0  0  0  0  0  0
   21.5978   -7.5721   -6.7284 H   0  0  0  0  0  0  0  0  0  0  0  0
   22.5151   -9.1802   -4.3253 H   0  0  0  0  0  0  0  0  0  0  0  0
   23.0793   -6.3736   -5.2433 H   0  0  0  0  0  0  0  0  0  0  0  0
   24.8792   -6.4916   -3.4211 H   0  0  0  0  0  0  0  0  0  0  0  0
   23.2035   -6.4760   -2.8187 H   0  0  0  0  0  0  0  0  0  0  0  0
   24.3295   -9.5964   -4.5255 H   0  0  0  0  0  0  0  0  0  0  0  0
   20.4524   -9.6338   -5.3517 H   0  0  0  0  0  0  0  0  0  0  0  0
   22.7769   -7.9027   -8.7345 H   0  0  0  0  0  0  0  0  0  0  0  0
   22.4537   -8.3685  -10.8426 H   0  0  0  0  0  0  0  0  0  0  0  0
   23.7085   -9.5661  -11.3091 H   0  0  0  0  0  0  0  0  0  0  0  0
   21.9747  -10.0358  -11.3091 H   0  0  0  0  0  0  0  0  0  0  0  0
   21.2633   -7.7030   -3.1839 H   0  0  0  0  0  0  0  0  0  0  0  0
  1  2  1  0
  1  7  1  0
  1  9  1  0
  2  3  1  0
  2 11  1  0
  3  4  1  0
  3  8  1  0
  4  5  1  0
  4 19  1  0
  5  6  1  0
  5  9  1  0
  6 10  1  0
 10 15  1  0
 11 12  1  0
 12 13  2  0
 12 14  1  0
 15 16  2  0
 15 17  1  1
 15 18  2  0
  1 20  1  6
  2 21  1  6
  3 22  1  6
  4 23  1  1
  5 24  1  6
  6 25  1  0
  6 26  1  0
  7 27  1  0
  8 28  1  0
 11 29  1  0
 14 30  1  0
 14 31  1  0
 14 32  1  0
 19 33  1  0
M  CHG  1  17  -1
M  END
>  <filename_input>  (13) 
7WDT_NGS_docked.sdf

>  <pdb_id>  (13) 
7WDT_NGS

>  <pose_rank>  (13) 
12

>  <num_atoms_heavy>  (13) 
19

>  <num_torsions>  (13) 
4

>  <pose>  (13) 
[24.291225109813734, -8.93810092456411, -6.372944896291139, -1.1894674402820609, 0.6644545863298614, 0.21761376067867097, 2.598536410880942, -21.269356407817845, -5.7693816866076775, 1.2327317917167544]

>  <energy>  (13) 
-451.3260719758615

>  <inter_energy>  (13) 
-439.9073190862173

>  <intra_energy>  (13) 
6.008605286128841

>  <rmsd>  (13) 
4.59937

>  <sdf_rank>  (13) 
0

$$$$

     RDKit          3D

 33 33  0  0  0  0  0  0  0  0999 V2000
   24.6422   -6.4829   -5.1085 C   0  0  2  0  0  0  0  0  0  0  0  0
   24.1943   -6.1725   -6.5348 C   0  0  1  0  0  0  0  0  0  0  0  0
   22.8803   -6.8901   -6.8223 C   0  0  2  0  0  0  0  0  0  0  0  0
   22.6608   -8.0765   -5.8968 C   0  0  1  0  0  0  0  0  0  0  0  0
   22.6083   -7.6220   -4.4404 C   0  0  1  0  0  0  0  0  0  0  0  0
   22.4875   -8.7732   -3.4821 C   0  0  0  0  0  0  0  0  0  0  0  0
   25.3662   -7.6592   -5.3063 O   0  0  0  0  0  0  0  0  0  0  0  0
   22.9410   -7.3313   -8.1713 O   0  0  0  0  0  0  0  0  0  0  0  0
   23.7858   -6.8926   -4.0504 O   0  0  0  0  0  0  0  0  0  0  0  0
   22.3092   -8.2283   -2.1887 O   0  0  0  0  0  0  0  0  0  0  0  0
   24.0770   -4.7732   -6.8762 N   0  0  0  0  0  0  0  0  0  0  0  0
   23.0102   -4.0699   -6.4562 C   0  0  0  0  0  0  0  0  0  0  0  0
   22.1375   -4.5866   -5.7523 O   0  0  0  0  0  0  0  0  0  0  0  0
   22.9700   -2.6184   -6.8437 C   0  0  0  0  0  0  0  0  0  0  0  0
   22.8807   -9.0565   -0.9915 S   0  0  2  0  0  0  0  0  0  0  0  0
   24.0264   -9.7423   -1.5161 O   0  0  0  0  0  0  0  0  0  0  0  0
   21.8163   -9.8906   -0.5481 O   0  0  0  0  0  0  0  0  0  0  0  0
   23.2323   -8.0860   -0.0053 O   0  0  0  0  0  0  0  0  0  0  0  0
   21.4345   -8.7067   -6.2487 O   0  0  0  0  0  0  0  0  0  0  0  0
   25.0352   -5.5154   -4.7628 H   0  0  0  0  0  0  0  0  0  0  0  0
   25.0097   -6.5419   -7.1741 H   0  0  0  0  0  0  0  0  0  0  0  0
   22.0379   -6.2031   -6.6534 H   0  0  0  0  0  0  0  0  0  0  0  0
   23.4970   -8.7828   -6.0060 H   0  0  0  0  0  0  0  0  0  0  0  0
   21.7171   -6.9793   -4.3881 H   0  0  0  0  0  0  0  0  0  0  0  0
   21.6219   -9.3967   -3.7503 H   0  0  0  0  0  0  0  0  0  0  0  0
   23.3874   -9.4049   -3.5175 H   0  0  0  0  0  0  0  0  0  0  0  0
   25.6068   -8.0501   -4.4292 H   0  0  0  0  0  0  0  0  0  0  0  0
   23.0759   -8.3119   -8.1920 H   0  0  0  0  0  0  0  0  0  0  0  0
   24.8081   -4.3158   -7.4394 H   0  0  0  0  0  0  0  0  0  0  0  0
   22.9528   -1.9970   -5.9362 H   0  0  0  0  0  0  0  0  0  0  0  0
   23.8617   -2.3731   -7.4392 H   0  0  0  0  0  0  0  0  0  0  0  0
   22.0661   -2.4228   -7.4392 H   0  0  0  0  0  0  0  0  0  0  0  0
   20.9448   -8.9583   -5.4259 H   0  0  0  0  0  0  0  0  0  0  0  0
  1  2  1  0
  1  7  1  0
  1  9  1  0
  2  3  1  0
  2 11  1  0
  3  4  1  0
  3  8  1  0
  4  5  1  0
  4 19  1  0
  5  6  1  0
  5  9  1  0
  6 10  1  0
 10 15  1  0
 11 12  1  0
 12 13  2  0
 12 14  1  0
 15 16  2  0
 15 17  1  1
 15 18  2  0
  1 20  1  1
  2 21  1  6
  3 22  1  6
  4 23  1  1
  5 24  1  6
  6 25  1  0
  6 26  1  0
  7 27  1  0
  8 28  1  0
 11 29  1  0
 14 30  1  0
 14 31  1  0
 14 32  1  0
 19 33  1  0
M  CHG  1  17  -1
M  END
>  <filename_input>  (14) 
7WDT_NGS_docked.sdf

>  <pdb_id>  (14) 
7WDT_NGS

>  <pose_rank>  (14) 
13

>  <num_atoms_heavy>  (14) 
19

>  <num_torsions>  (14) 
4

>  <pose>  (14) 
[24.642202294728676, -6.4829069802467165, -5.108517830670644, -2.7031338096639494, -4.201222566951921, 5.1256230375907545, -6.883561784076841, -12.666873812720459, 6.457007909820637, -4.917363658287217]

>  <energy>  (14) 
-437.3243245777915

>  <inter_energy>  (14) 
-466.64164454686227

>  <intra_energy>  (14) 
34.35506227060847

>  <rmsd>  (14) 
2.05598

>  <sdf_rank>  (14) 
0

$$$$

     RDKit          3D

 33 33  0  0  0  0  0  0  0  0999 V2000
   23.1961   -8.1615   -6.5096 C   0  0  2  0  0  0  0  0  0  0  0  0
   23.0167   -7.1671   -5.3650 C   0  0  1  0  0  0  0  0  0  0  0  0
   23.1737   -7.8919   -4.0329 C   0  0  2  0  0  0  0  0  0  0  0  0
   22.9281   -9.3869   -4.1615 C   0  0  1  0  0  0  0  0  0  0  0  0
   23.9271  -10.0164   -5.1291 C   0  0  1  0  0  0  0  0  0  0  0  0
   23.6622  -11.4774   -5.3603 C   0  0  0  0  0  0  0  0  0  0  0  0
   21.8933   -8.6397   -6.6541 O   0  0  0  0  0  0  0  0  0  0  0  0
   22.2277   -7.3194   -3.1410 O   0  0  0  0  0  0  0  0  0  0  0  0
   23.9047   -9.3910   -6.4248 O   0  0  0  0  0  0  0  0  0  0  0  0
   23.4383  -11.6512   -6.7464 O   0  0  0  0  0  0  0  0  0  0  0  0
   23.8684   -6.0000   -5.3947 N   0  0  0  0  0  0  0  0  0  0  0  0
   23.3800   -4.8272   -5.8365 C   0  0  0  0  0  0  0  0  0  0  0  0
   22.2024   -4.7145   -6.1892 O   0  0  0  0  0  0  0  0  0  0  0  0
   24.3267   -3.6601   -5.8242 C   0  0  0  0  0  0  0  0  0  0  0  0
   22.0692  -12.2811   -7.1642 S   0  0  2  0  0  0  0  0  0  0  0  0
   21.2908  -11.1917   -7.6793 O   0  0  0  0  0  0  0  0  0  0  0  0
   21.5517  -12.9058   -5.9949 O   0  0  0  0  0  0  0  0  0  0  0  0
   22.3954  -13.2399   -8.1704 O   0  0  0  0  0  0  0  0  0  0  0  0
   23.0629   -9.9819   -2.8760 O   0  0  0  0  0  0  0  0  0  0  0  0
   23.7725   -7.5815   -7.2454 H   0  0  0  0  0  0  0  0  0  0  0  0
   22.0005   -6.7667   -5.4948 H   0  0  0  0  0  0  0  0  0  0  0  0
   24.2044   -7.7757   -3.6667 H   0  0  0  0  0  0  0  0  0  0  0  0
   21.9152   -9.5568   -4.5554 H   0  0  0  0  0  0  0  0  0  0  0  0
   24.9036   -9.8717   -4.6438 H   0  0  0  0  0  0  0  0  0  0  0  0
   24.5311  -12.0723   -5.0421 H   0  0  0  0  0  0  0  0  0  0  0  0
   22.7891  -11.8110   -4.7803 H   0  0  0  0  0  0  0  0  0  0  0  0
   21.4944   -8.7861   -5.7600 H   0  0  0  0  0  0  0  0  0  0  0  0
   22.5093   -7.4898   -2.2073 H   0  0  0  0  0  0  0  0  0  0  0  0
   24.8465   -6.0660   -5.0786 H   0  0  0  0  0  0  0  0  0  0  0  0
   24.5523   -3.3820   -4.7841 H   0  0  0  0  0  0  0  0  0  0  0  0
   25.2579   -3.9379   -6.3397 H   0  0  0  0  0  0  0  0  0  0  0  0
   23.8629   -2.8062   -6.3397 H   0  0  0  0  0  0  0  0  0  0  0  0
   22.9078   -9.2976   -2.1777 H   0  0  0  0  0  0  0  0  0  0  0  0
  1  2  1  0
  1  7  1  0
  1  9  1  0
  2  3  1  0
  2 11  1  0
  3  4  1  0
  3  8  1  0
  4  5  1  0
  4 19  1  0
  5  6  1  0
  5  9  1  0
  6 10  1  0
 10 15  1  0
 11 12  1  0
 12 13  2  0
 12 14  1  0
 15 16  2  0
 15 17  1  1
 15 18  2  0
  1 20  1  6
  2 21  1  1
  3 22  1  1
  4 23  1  6
  5 24  1  1
  6 25  1  0
  6 26  1  0
  7 27  1  0
  8 28  1  0
 11 29  1  0
 14 30  1  0
 14 31  1  0
 14 32  1  0
 19 33  1  0
M  CHG  1  17  -1
M  END
>  <filename_input>  (15) 
7WDT_NGS_docked.sdf

>  <pdb_id>  (15) 
7WDT_NGS

>  <pose_rank>  (15) 
14

>  <num_atoms_heavy>  (15) 
19

>  <num_torsions>  (15) 
4

>  <pose>  (15) 
[23.196138017539333, -8.161534906021785, -6.509594293374047, -2.4107605837994437, -3.867885208046634, 0.3659626838779598, -3.7774044687319077, -13.80058613935727, 6.925875145480629, -3.6228449626796206]

>  <energy>  (15) 
-290.746853462487

>  <inter_energy>  (15) 
-304.6252841388375

>  <intra_energy>  (15) 
11.702198623749933

>  <rmsd>  (15) 
4.82786

>  <sdf_rank>  (15) 
0

$$$$

     RDKit          3D

 33 33  0  0  0  0  0  0  0  0999 V2000
   22.6301   -5.9764   -4.3667 C   0  0  2  0  0  0  0  0  0  0  0  0
   23.4265   -5.0791   -5.3111 C   0  0  1  0  0  0  0  0  0  0  0  0
   24.7330   -5.7692   -5.6866 C   0  0  2  0  0  0  0  0  0  0  0  0
   25.1335   -6.8289   -4.6724 C   0  0  1  0  0  0  0  0  0  0  0  0
   24.0674   -7.9177   -4.5805 C   0  0  1  0  0  0  0  0  0  0  0  0
   24.3762   -8.9376   -3.5209 C   0  0  0  0  0  0  0  0  0  0  0  0
   23.1504   -5.5909   -3.1307 O   0  0  0  0  0  0  0  0  0  0  0  0
   25.7277   -4.7569   -5.7496 O   0  0  0  0  0  0  0  0  0  0  0  0
   22.7673   -7.3877   -4.2654 O   0  0  0  0  0  0  0  0  0  0  0  0
   23.1520   -9.2901   -2.9054 O   0  0  0  0  0  0  0  0  0  0  0  0
   22.7397   -4.6405   -6.5046 N   0  0  0  0  0  0  0  0  0  0  0  0
   22.5140   -3.3294   -6.7024 C   0  0  0  0  0  0  0  0  0  0  0  0
   22.9118   -2.4814   -5.8983 O   0  0  0  0  0  0  0  0  0  0  0  0
   21.8047   -2.9561   -7.9736 C   0  0  0  0  0  0  0  0  0  0  0  0
   22.6148  -10.7324   -3.1828 S   0  0  2  0  0  0  0  0  0  0  0  0
   23.7740  -11.5775   -3.1776 O   0  0  0  0  0  0  0  0  0  0  0  0
   21.9147  -10.6590   -4.4196 O   0  0  0  0  0  0  0  0  0  0  0  0
   21.7323  -11.0132   -2.0963 O   0  0  0  0  0  0  0  0  0  0  0  0
   26.3718   -7.4009   -5.0774 O   0  0  0  0  0  0  0  0  0  0  0  0
   21.5970   -5.8420   -4.7196 H   0  0  0  0  0  0  0  0  0  0  0  0
   23.6019   -4.1543   -4.7419 H   0  0  0  0  0  0  0  0  0  0  0  0
   24.6150   -6.2881   -6.6493 H   0  0  0  0  0  0  0  0  0  0  0  0
   25.2351   -6.3636   -3.6808 H   0  0  0  0  0  0  0  0  0  0  0  0
   24.0672   -8.3827   -5.5774 H   0  0  0  0  0  0  0  0  0  0  0  0
   24.8375   -9.8261   -3.9768 H   0  0  0  0  0  0  0  0  0  0  0  0
   25.0801   -8.5290   -2.7810 H   0  0  0  0  0  0  0  0  0  0  0  0
   22.6091   -5.9920   -2.4052 H   0  0  0  0  0  0  0  0  0  0  0  0
   25.9878   -4.4922   -4.8318 H   0  0  0  0  0  0  0  0  0  0  0  0
   22.4239   -5.3299   -7.2017 H   0  0  0  0  0  0  0  0  0  0  0  0
   20.8553   -2.4564   -7.7306 H   0  0  0  0  0  0  0  0  0  0  0  0
   22.4381   -2.2745   -8.5603 H   0  0  0  0  0  0  0  0  0  0  0  0
   21.6015   -3.8641   -8.5603 H   0  0  0  0  0  0  0  0  0  0  0  0
   26.9002   -7.6449   -4.2766 H   0  0  0  0  0  0  0  0  0  0  0  0
  1  2  1  0
  1  7  1  0
  1  9  1  0
  2  3  1  0
  2 11  1  0
  3  4  1  0
  3  8  1  0
  4  5  1  0
  4 19  1  0
  5  6  1  0
  5  9  1  0
  6 10  1  0
 10 15  1  0
 11 12  1  0
 12 13  2  0
 12 14  1  0
 15 16  2  0
 15 17  1  6
 15 18  2  0
  1 20  1  1
  2 21  1  1
  3 22  1  6
  4 23  1  1
  5 24  1  6
  6 25  1  0
  6 26  1  0
  7 27  1  0
  8 28  1  0
 11 29  1  0
 14 30  1  0
 14 31  1  0
 14 32  1  0
 19 33  1  0
M  CHG  1  17  -1
M  END
>  <filename_input>  (16) 
7WDT_NGS_docked.sdf

>  <pdb_id>  (16) 
7WDT_NGS

>  <pose_rank>  (16) 
15

>  <num_atoms_heavy>  (16) 
19

>  <num_torsions>  (16) 
4

>  <pose>  (16) 
[22.63014329642555, -5.976355128284958, -4.3666897723592975, -0.21098944210378753, -2.2458569665115906, 1.8529244846298298, -3.488478803637366, 5.414196048442759, -7.867134221479217, 7.787337882969262]

>  <energy>  (16) 
-393.4565361736375

>  <inter_energy>  (16) 
-385.5029700162181

>  <intra_energy>  (16) 
1.359774590872163

>  <rmsd>  (16) 
3.21516

>  <sdf_rank>  (16) 
0

$$$$

     RDKit          3D

 33 33  0  0  0  0  0  0  0  0999 V2000
   24.4515   -7.5088   -4.5012 C   0  0  2  0  0  0  0  0  0  0  0  0
   23.7167   -6.1861   -4.7055 C   0  0  1  0  0  0  0  0  0  0  0  0
   22.5599   -6.0896   -3.7172 C   0  0  2  0  0  0  0  0  0  0  0  0
   22.1244   -7.4551   -3.2096 C   0  0  1  0  0  0  0  0  0  0  0  0
   23.2718   -8.1514   -2.4823 C   0  0  1  0  0  0  0  0  0  0  0  0
   22.9155   -9.5444   -2.0455 C   0  0  0  0  0  0  0  0  0  0  0  0
   23.7149   -8.3541   -5.3318 O   0  0  0  0  0  0  0  0  0  0  0  0
   21.4862   -5.4614   -4.4033 O   0  0  0  0  0  0  0  0  0  0  0  0
   24.4480   -8.2728   -3.3024 O   0  0  0  0  0  0  0  0  0  0  0  0
   22.9728  -10.3731   -3.1908 O   0  0  0  0  0  0  0  0  0  0  0  0
   24.5252   -4.9902   -4.6368 N   0  0  0  0  0  0  0  0  0  0  0  0
   24.5343   -4.1293   -5.6701 C   0  0  0  0  0  0  0  0  0  0  0  0
   23.8375   -4.3205   -6.6709 O   0  0  0  0  0  0  0  0  0  0  0  0
   25.3916   -2.9048   -5.5142 C   0  0  0  0  0  0  0  0  0  0  0  0
   21.6062  -10.7868   -3.8288 S   0  0  2  0  0  0  0  0  0  0  0  0
   21.5305  -10.0656   -5.0665 O   0  0  0  0  0  0  0  0  0  0  0  0
   20.6095  -10.4607   -2.8668 O   0  0  0  0  0  0  0  0  0  0  0  0
   21.7028  -12.1974   -4.0265 O   0  0  0  0  0  0  0  0  0  0  0  0
   21.0268   -7.2808   -2.3210 O   0  0  0  0  0  0  0  0  0  0  0  0
   25.5063   -7.2202   -4.6204 H   0  0  0  0  0  0  0  0  0  0  0  0
   23.3630   -6.2168   -5.7466 H   0  0  0  0  0  0  0  0  0  0  0  0
   22.8740   -5.5143   -2.8337 H   0  0  0  0  0  0  0  0  0  0  0  0
   21.8277   -8.0828   -4.0628 H   0  0  0  0  0  0  0  0  0  0  0  0
   23.4696   -7.5107   -1.6103 H   0  0  0  0  0  0  0  0  0  0  0  0
   23.6329   -9.8969   -1.2898 H   0  0  0  0  0  0  0  0  0  0  0  0
   21.9105   -9.5670   -1.5989 H   0  0  0  0  0  0  0  0  0  0  0  0
   23.1757   -8.9729   -4.7783 H   0  0  0  0  0  0  0  0  0  0  0  0
   20.8477   -5.0879   -3.7454 H   0  0  0  0  0  0  0  0  0  0  0  0
   25.0927   -4.7978   -3.7990 H   0  0  0  0  0  0  0  0  0  0  0  0
   25.5391   -2.6943   -4.4446 H   0  0  0  0  0  0  0  0  0  0  0  0
   26.3674   -3.0772   -5.9919 H   0  0  0  0  0  0  0  0  0  0  0  0
   24.8959   -2.0469   -5.9919 H   0  0  0  0  0  0  0  0  0  0  0  0
   21.3479   -7.3318   -1.3859 H   0  0  0  0  0  0  0  0  0  0  0  0
  1  2  1  0
  1  7  1  0
  1  9  1  0
  2  3  1  0
  2 11  1  0
  3  4  1  0
  3  8  1  0
  4  5  1  0
  4 19  1  0
  5  6  1  0
  5  9  1  0
  6 10  1  0
 10 15  1  0
 11 12  1  0
 12 13  2  0
 12 14  1  0
 15 16  2  0
 15 17  1  1
 15 18  2  0
  1 20  1  6
  2 21  1  6
  3 22  1  1
  4 23  1  6
  5 24  1  1
  6 25  1  0
  6 26  1  0
  7 27  1  0
  8 28  1  0
 11 29  1  0
 14 30  1  0
 14 31  1  0
 14 32  1  0
 19 33  1  0
M  CHG  1  17  -1
M  END
>  <filename_input>  (17) 
7WDT_NGS_docked.sdf

>  <pdb_id>  (17) 
7WDT_NGS

>  <pose_rank>  (17) 
16

>  <num_atoms_heavy>  (17) 
19

>  <num_torsions>  (17) 
4

>  <pose>  (17) 
[24.451515831642453, -7.508844167902341, -4.501221944355335, -3.4663945631575754, -4.4696399374891485, 1.0245673330237837, -3.3723919558292064, -14.572672907385511, 7.24939347291584, -3.553053486767579]

>  <energy>  (17) 
-429.55975663059814

>  <inter_energy>  (17) 
-443.2556497434089

>  <intra_energy>  (17) 
28.708874874495443

>  <rmsd>  (17) 
2.89544

>  <sdf_rank>  (17) 
0

$$$$

     RDKit          3D

 33 33  0  0  0  0  0  0  0  0999 V2000
   22.4145   -9.1223   -4.9424 C   0  0  2  0  0  0  0  0  0  0  0  0
   21.3991   -8.9405   -3.8167 C   0  0  1  0  0  0  0  0  0  0  0  0
   21.1264  -10.2872   -3.1561 C   0  0  2  0  0  0  0  0  0  0  0  0
   21.4720  -11.4535   -4.0684 C   0  0  1  0  0  0  0  0  0  0  0  0
   22.9539  -11.4313   -4.4345 C   0  0  1  0  0  0  0  0  0  0  0  0
   23.3217  -12.5120   -5.4118 C   0  0  0  0  0  0  0  0  0  0  0  0
   21.5745   -9.4388   -6.0107 O   0  0  0  0  0  0  0  0  0  0  0  0
   19.7424  -10.3141   -2.8367 O   0  0  0  0  0  0  0  0  0  0  0  0
   23.3514  -10.1872   -5.0383 O   0  0  0  0  0  0  0  0  0  0  0  0
   24.5617  -13.0519   -4.9964 O   0  0  0  0  0  0  0  0  0  0  0  0
   21.7304   -7.9563   -2.8118 N   0  0  0  0  0  0  0  0  0  0  0  0
   22.7742   -8.1657   -1.9897 C   0  0  0  0  0  0  0  0  0  0  0  0
   23.4825   -9.1712   -2.0951 O   0  0  0  0  0  0  0  0  0  0  0  0
   23.0589   -7.0887   -0.9810 C   0  0  0  0  0  0  0  0  0  0  0  0
   25.7417  -12.9723   -6.0197 S   0  0  2  0  0  0  0  0  0  0  0  0
   26.1969  -11.6127   -5.9701 O   0  0  0  0  0  0  0  0  0  0  0  0
   25.2068  -13.3950   -7.2689 O   0  0  0  0  0  0  0  0  0  0  0  0
   26.7184  -13.8909   -5.5295 O   0  0  0  0  0  0  0  0  0  0  0  0
   21.1614  -12.6667   -3.3927 O   0  0  0  0  0  0  0  0  0  0  0  0
   23.0484   -8.2289   -4.8426 H   0  0  0  0  0  0  0  0  0  0  0  0
   20.5013   -8.5373   -4.3080 H   0  0  0  0  0  0  0  0  0  0  0  0
   21.7557  -10.3951   -2.2604 H   0  0  0  0  0  0  0  0  0  0  0  0
   20.8879  -11.3746   -4.9972 H   0  0  0  0  0  0  0  0  0  0  0  0
   23.4728  -11.5824   -3.4764 H   0  0  0  0  0  0  0  0  0  0  0  0
   22.5509  -13.2968   -5.4125 H   0  0  0  0  0  0  0  0  0  0  0  0
   23.3962  -12.1056   -6.4312 H   0  0  0  0  0  0  0  0  0  0  0  0
   20.7072   -9.7656   -5.6629 H   0  0  0  0  0  0  0  0  0  0  0  0
   19.6307  -10.3163   -1.8530 H   0  0  0  0  0  0  0  0  0  0  0  0
   21.1690   -7.0972   -2.7253 H   0  0  0  0  0  0  0  0  0  0  0  0
   22.9505   -7.4989    0.0339 H   0  0  0  0  0  0  0  0  0  0  0  0
   24.0856   -6.7189   -1.1192 H   0  0  0  0  0  0  0  0  0  0  0  0
   22.3489   -6.2599   -1.1192 H   0  0  0  0  0  0  0  0  0  0  0  0
   21.1993  -12.5187   -2.4146 H   0  0  0  0  0  0  0  0  0  0  0  0
  1  2  1  0
  1  7  1  0
  1  9  1  0
  2  3  1  0
  2 11  1  0
  3  4  1  0
  3  8  1  0
  4  5  1  0
  4 19  1  0
  5  6  1  0
  5  9  1  0
  6 10  1  0
 10 15  1  0
 11 12  1  0
 12 13  2  0
 12 14  1  0
 15 16  2  0
 15 17  1  6
 15 18  2  0
  1 20  1  6
  2 21  1  6
  3 22  1  1
  4 23  1  6
  5 24  1  1
  6 25  1  0
  6 26  1  0
  7 27  1  0
  8 28  1  0
 11 29  1  0
 14 30  1  0
 14 31  1  0
 14 32  1  0
 19 33  1  0
M  CHG  1  17  -1
M  END
>  <filename_input>  (18) 
7WDT_NGS_docked.sdf

>  <pdb_id>  (18) 
7WDT_NGS

>  <pose_rank>  (18) 
17

>  <num_atoms_heavy>  (18) 
19

>  <num_torsions>  (18) 
4

>  <pose>  (18) 
[22.414486194489474, -9.122279794559104, -4.942431200065308, -3.182373334544229, -2.7943082004000224, -1.8664277401256488, -6.70623082649706, -5.763470042793915, 0.661157507395344, 2.170184494780981]

>  <energy>  (18) 
-394.5644203085225

>  <inter_energy>  (18) 
-405.007818586047

>  <intra_energy>  (18) 
33.26755987475471

>  <rmsd>  (18) 
6.32885

>  <sdf_rank>  (18) 
0

$$$$

     RDKit          3D

 33 33  0  0  0  0  0  0  0  0999 V2000
   23.3555   -8.3240   -6.6338 C   0  0  2  0  0  0  0  0  0  0  0  0
   22.7421   -9.2420   -7.6885 C   0  0  1  0  0  0  0  0  0  0  0  0
   22.3366  -10.5609   -7.0402 C   0  0  2  0  0  0  0  0  0  0  0  0
   23.0930  -10.8202   -5.7469 C   0  0  1  0  0  0  0  0  0  0  0  0
   22.8110   -9.7198   -4.7271 C   0  0  1  0  0  0  0  0  0  0  0  0
   23.6121   -9.8843   -3.4664 C   0  0  0  0  0  0  0  0  0  0  0  0
   24.6927   -8.7199   -6.6808 O   0  0  0  0  0  0  0  0  0  0  0  0
   22.6208  -11.5852   -7.9827 O   0  0  0  0  0  0  0  0  0  0  0  0
   23.1195   -8.4092   -5.2346 O   0  0  0  0  0  0  0  0  0  0  0  0
   22.7908   -9.4770   -2.3888 O   0  0  0  0  0  0  0  0  0  0  0  0
   21.6324   -8.6995   -8.4386 N   0  0  0  0  0  0  0  0  0  0  0  0
   21.4405   -9.0768   -9.7153 C   0  0  0  0  0  0  0  0  0  0  0  0
   22.1759   -9.9076  -10.2564 O   0  0  0  0  0  0  0  0  0  0  0  0
   20.2574   -8.4757  -10.4207 C   0  0  0  0  0  0  0  0  0  0  0  0
   23.3918   -8.4179   -1.4075 S   0  0  2  0  0  0  0  0  0  0  0  0
   22.9688   -8.8282   -0.0995 O   0  0  0  0  0  0  0  0  0  0  0  0
   22.8999   -7.1556   -1.8434 O   0  0  0  0  0  0  0  0  0  0  0  0
   24.8058   -8.5170   -1.5777 O   0  0  0  0  0  0  0  0  0  0  0  0
   22.6814  -12.0779   -5.2239 O   0  0  0  0  0  0  0  0  0  0  0  0
   22.9482   -7.3387   -6.9049 H   0  0  0  0  0  0  0  0  0  0  0  0
   23.5354   -9.3819   -8.4375 H   0  0  0  0  0  0  0  0  0  0  0  0
   21.2691  -10.5317   -6.7763 H   0  0  0  0  0  0  0  0  0  0  0  0
   24.1736  -10.8286   -5.9527 H   0  0  0  0  0  0  0  0  0  0  0  0
   21.7352   -9.8128   -4.5174 H   0  0  0  0  0  0  0  0  0  0  0  0
   23.9033  -10.9375   -3.3403 H   0  0  0  0  0  0  0  0  0  0  0  0
   24.5296   -9.2788   -3.5067 H   0  0  0  0  0  0  0  0  0  0  0  0
   25.0390   -8.8224   -5.7590 H   0  0  0  0  0  0  0  0  0  0  0  0
   22.8524  -12.4198   -7.5033 H   0  0  0  0  0  0  0  0  0  0  0  0
   20.9905   -8.0259   -7.9969 H   0  0  0  0  0  0  0  0  0  0  0  0
   19.5348   -8.1086   -9.6771 H   0  0  0  0  0  0  0  0  0  0  0  0
   20.5927   -7.6386  -11.0507 H   0  0  0  0  0  0  0  0  0  0  0  0
   19.7790   -9.2401  -11.0507 H   0  0  0  0  0  0  0  0  0  0  0  0
   22.6927  -12.0435   -4.2346 H   0  0  0  0  0  0  0  0  0  0  0  0
  1  2  1  0
  1  7  1  0
  1  9  1  0
  2  3  1  0
  2 11  1  0
  3  4  1  0
  3  8  1  0
  4  5  1  0
  4 19  1  0
  5  6  1  0
  5  9  1  0
  6 10  1  0
 10 15  1  0
 11 12  1  0
 12 13  2  0
 12 14  1  0
 15 16  2  0
 15 17  1  6
 15 18  2  0
  1 20  1  6
  2 21  1  6
  3 22  1  1
  4 23  1  6
  5 24  1  1
  6 25  1  0
  6 26  1  0
  7 27  1  0
  8 28  1  0
 11 29  1  0
 14 30  1  0
 14 31  1  0
 14 32  1  0
 19 33  1  0
M  CHG  1  17  -1
M  END
>  <filename_input>  (19) 
7WDT_NGS_docked.sdf

>  <pdb_id>  (19) 
7WDT_NGS

>  <pose_rank>  (19) 
18

>  <num_atoms_heavy>  (19) 
19

>  <num_torsions>  (19) 
4

>  <pose>  (19) 
[23.355485077426557, -8.323954882079072, -6.633833367756524, -0.576594516439491, -0.1302946064461428, 1.5490159958438918, 3.3354972341917537, -12.134635427707295, 13.108599293277413, -1.6262958738582711]

>  <energy>  (19) 
-380.4715787385845

>  <inter_energy>  (19) 
-393.52267607477467

>  <intra_energy>  (19) 
14.981085939790834

>  <rmsd>  (19) 
5.30651

>  <sdf_rank>  (19) 
0

$$$$

     RDKit          3D

 33 33  0  0  0  0  0  0  0  0999 V2000
   22.5486  -10.7296   -3.4669 C   0  0  2  0  0  0  0  0  0  0  0  0
   22.7659   -9.2267   -3.6256 C   0  0  1  0  0  0  0  0  0  0  0  0
   22.1392   -8.7580   -4.9340 C   0  0  2  0  0  0  0  0  0  0  0  0
   21.9687   -9.8961   -5.9277 C   0  0  1  0  0  0  0  0  0  0  0  0
   21.0520  -10.9762   -5.3589 C   0  0  1  0  0  0  0  0  0  0  0  0
   20.9302  -12.1658   -6.2689 C   0  0  0  0  0  0  0  0  0  0  0  0
   23.6615  -11.2327   -4.1417 O   0  0  0  0  0  0  0  0  0  0  0  0
   23.0055   -7.7691   -5.4722 O   0  0  0  0  0  0  0  0  0  0  0  0
   21.5169  -11.4802   -4.0939 O   0  0  0  0  0  0  0  0  0  0  0  0
   20.5362  -13.2671   -5.4729 O   0  0  0  0  0  0  0  0  0  0  0  0
   22.3078   -8.3973   -2.5344 N   0  0  0  0  0  0  0  0  0  0  0  0
   23.0766   -8.2465   -1.4410 C   0  0  0  0  0  0  0  0  0  0  0  0
   24.1882   -8.7772   -1.3600 O   0  0  0  0  0  0  0  0  0  0  0  0
   22.5330   -7.3585   -0.3573 C   0  0  0  0  0  0  0  0  0  0  0  0
   21.2892  -14.6160   -5.7162 S   0  0  2  0  0  0  0  0  0  0  0  0
   20.3184  -15.4924   -6.3057 O   0  0  0  0  0  0  0  0  0  0  0  0
   21.7898  -15.0203   -4.4468 O   0  0  0  0  0  0  0  0  0  0  0  0
   22.3471  -14.2912   -6.6181 O   0  0  0  0  0  0  0  0  0  0  0  0
   21.4092   -9.3727   -7.1268 O   0  0  0  0  0  0  0  0  0  0  0  0
   22.3254  -10.8295   -2.3944 H   0  0  0  0  0  0  0  0  0  0  0  0
   23.8583   -9.0974   -3.6266 H   0  0  0  0  0  0  0  0  0  0  0  0
   21.1323   -8.3594   -4.7409 H   0  0  0  0  0  0  0  0  0  0  0  0
   22.9492  -10.3509   -6.1319 H   0  0  0  0  0  0  0  0  0  0  0  0
   20.0796  -10.4748   -5.2445 H   0  0  0  0  0  0  0  0  0  0  0  0
   20.1735  -11.9714   -7.0432 H   0  0  0  0  0  0  0  0  0  0  0  0
   21.8873  -12.3712   -6.7708 H   0  0  0  0  0  0  0  0  0  0  0  0
   24.3360  -11.5377   -3.4843 H   0  0  0  0  0  0  0  0  0  0  0  0
   23.4398   -7.2734   -4.7334 H   0  0  0  0  0  0  0  0  0  0  0  0
   21.3954   -7.9232   -2.5937 H   0  0  0  0  0  0  0  0  0  0  0  0
   22.7908   -7.7797    0.6256 H   0  0  0  0  0  0  0  0  0  0  0  0
   22.9711   -6.3540   -0.4522 H   0  0  0  0  0  0  0  0  0  0  0  0
   21.4391   -7.2919   -0.4522 H   0  0  0  0  0  0  0  0  0  0  0  0
   20.7051   -8.7139   -6.9022 H   0  0  0  0  0  0  0  0  0  0  0  0
  1  2  1  0
  1  7  1  0
  1  9  1  0
  2  3  1  0
  2 11  1  0
  3  4  1  0
  3  8  1  0
  4  5  1  0
  4 19  1  0
  5  6  1  0
  5  9  1  0
  6 10  1  0
 10 15  1  0
 11 12  1  0
 12 13  2  0
 12 14  1  0
 15 16  2  0
 15 17  1  1
 15 18  2  0
  1 20  1  1
  2 21  1  6
  3 22  1  1
  4 23  1  6
  5 24  1  1
  6 25  1  0
  6 26  1  0
  7 27  1  0
  8 28  1  0
 11 29  1  0
 14 30  1  0
 14 31  1  0
 14 32  1  0
 19 33  1  0
M  CHG  1  17  -1
M  END
>  <filename_input>  (20) 
7WDT_NGS_docked.sdf

>  <pdb_id>  (20) 
7WDT_NGS

>  <pose_rank>  (20) 
19

>  <num_atoms_heavy>  (20) 
19

>  <num_torsions>  (20) 
4

>  <pose>  (20) 
[22.548646393530692, -10.729628570125593, -3.4668880077076456, -1.9327102921864934, 4.245570450034323, -0.26880276989853036, 2.174035085780775, -0.6003630137380004, 0.4154619256487376, -1.1184540653677546]

>  <energy>  (20) 
-350.98326334046016

>  <inter_energy>  (20) 
-338.22080005944827

>  <intra_energy>  (20) 
3.355308868704741

>  <rmsd>  (20) 
6.24227

>  <sdf_rank>  (20) 
0

$$$$

     RDKit          3D

 33 33  0  0  0  0  0  0  0  0999 V2000
   18.1809   -8.5854   -1.0083 C   0  0  2  0  0  0  0  0  0  0  0  0
   17.9855   -9.8071   -0.1135 C   0  0  1  0  0  0  0  0  0  0  0  0
   19.3038  -10.5630    0.0093 C   0  0  2  0  0  0  0  0  0  0  0  0
   20.2504  -10.2548   -1.1399 C   0  0  1  0  0  0  0  0  0  0  0  0
   20.5935   -8.7676   -1.1721 C   0  0  1  0  0  0  0  0  0  0  0  0
   21.4521   -8.4002   -2.3495 C   0  0  0  0  0  0  0  0  0  0  0  0
   17.9440   -9.1368   -2.2680 O   0  0  0  0  0  0  0  0  0  0  0  0
   18.9833  -11.9470    0.0167 O   0  0  0  0  0  0  0  0  0  0  0  0
   19.4220   -7.9357   -1.2503 O   0  0  0  0  0  0  0  0  0  0  0  0
   22.5623   -7.6777   -1.8526 O   0  0  0  0  0  0  0  0  0  0  0  0
   17.4374   -9.5547    1.1996 N   0  0  0  0  0  0  0  0  0  0  0  0
   16.2641   -8.9085    1.3213 C   0  0  0  0  0  0  0  0  0  0  0  0
   15.6221   -8.5517    0.3291 O   0  0  0  0  0  0  0  0  0  0  0  0
   15.7580   -8.6967    2.7204 C   0  0  0  0  0  0  0  0  0  0  0  0
   23.8886   -8.4803   -1.6461 S   0  0  2  0  0  0  0  0  0  0  0  0
   23.9263   -8.7992   -0.2479 O   0  0  0  0  0  0  0  0  0  0  0  0
   24.9349   -7.6352   -2.1110 O   0  0  0  0  0  0  0  0  0  0  0  0
   23.7491   -9.6414   -2.4650 O   0  0  0  0  0  0  0  0  0  0  0  0
   21.4383  -11.0190   -0.9678 O   0  0  0  0  0  0  0  0  0  0  0  0
   17.5812   -7.8156   -0.5005 H   0  0  0  0  0  0  0  0  0  0  0  0
   17.2157  -10.4081   -0.6196 H   0  0  0  0  0  0  0  0  0  0  0  0
   19.8219  -10.2575    0.9304 H   0  0  0  0  0  0  0  0  0  0  0  0
   19.7644  -10.5155   -2.0917 H   0  0  0  0  0  0  0  0  0  0  0  0
   21.1331   -8.5926   -0.2296 H   0  0  0  0  0  0  0  0  0  0  0  0
   21.7949   -9.3102   -2.8636 H   0  0  0  0  0  0  0  0  0  0  0  0
   20.8845   -7.7938   -3.0707 H   0  0  0  0  0  0  0  0  0  0  0  0
   17.5552  -10.0413   -2.1645 H   0  0  0  0  0  0  0  0  0  0  0  0
   18.9100  -12.2638    0.9517 H   0  0  0  0  0  0  0  0  0  0  0  0
   17.9438   -9.8687    2.0398 H   0  0  0  0  0  0  0  0  0  0  0  0
   16.5252   -9.0178    3.4403 H   0  0  0  0  0  0  0  0  0  0  0  0
   15.5361   -7.6301    2.8725 H   0  0  0  0  0  0  0  0  0  0  0  0
   14.8425   -9.2870    2.8725 H   0  0  0  0  0  0  0  0  0  0  0  0
   21.6188  -11.1351   -0.0013 H   0  0  0  0  0  0  0  0  0  0  0  0
  1  2  1  0
  1  7  1  0
  1  9  1  0
  2  3  1  0
  2 11  1  0
  3  4  1  0
  3  8  1  0
  4  5  1  0
  4 19  1  0
  5  6  1  0
  5  9  1  0
  6 10  1  0
 10 15  1  0
 11 12  1  0
 12 13  2  0
 12 14  1  0
 15 16  2  0
 15 17  1  6
 15 18  2  0
  1 20  1  1
  2 21  1  6
  3 22  1  1
  4 23  1  6
  5 24  1  1
  6 25  1  0
  6 26  1  0
  7 27  1  0
  8 28  1  0
 11 29  1  0
 14 30  1  0
 14 31  1  0
 14 32  1  0
 19 33  1  0
M  CHG  1  17  -1
M  END
>  <filename_input>  (21) 
7WDT_NGS_docked.sdf

>  <pdb_id>  (21) 
7WDT_NGS

>  <pose_rank>  (21) 
20

>  <num_atoms_heavy>  (21) 
19

>  <num_torsions>  (21) 
4

>  <pose>  (21) 
[18.1809371521326, -8.585390148986813, -1.0083033130852408, 0.7379128931367004, 1.6328924211183327, 1.9281211670396525, 1.719465181983923, 0.6897999687854227, -1.7957591413764176, -0.8975305748548668]

>  <energy>  (21) 
-260.39068255260196

>  <inter_energy>  (21) 
-283.2594124948816

>  <intra_energy>  (21) 
19.456601658686353

>  <rmsd>  (21) 
8.19109

>  <sdf_rank>  (21) 
0

$$$$

     RDKit          3D

 33 33  0  0  0  0  0  0  0  0999 V2000
   15.7635   -8.3734    1.3224 C   0  0  2  0  0  0  0  0  0  0  0  0
   15.6535   -9.0626    2.6803 C   0  0  1  0  0  0  0  0  0  0  0  0
   16.6841  -10.1827    2.7667 C   0  0  2  0  0  0  0  0  0  0  0  0
   17.1344  -10.6543    1.3931 C   0  0  1  0  0  0  0  0  0  0  0  0
   17.7851   -9.5119    0.6171 C   0  0  1  0  0  0  0  0  0  0  0  0
   18.1606   -9.9077   -0.7831 C   0  0  0  0  0  0  0  0  0  0  0  0
   14.9155   -9.1682    0.5503 O   0  0  0  0  0  0  0  0  0  0  0  0
   16.0685  -11.2527    3.4697 O   0  0  0  0  0  0  0  0  0  0  0  0
   16.9204   -8.3681    0.4963 O   0  0  0  0  0  0  0  0  0  0  0  0
   18.9524   -8.8644   -1.3182 O   0  0  0  0  0  0  0  0  0  0  0  0
   15.7569   -8.2068    3.8402 N   0  0  0  0  0  0  0  0  0  0  0  0
   14.6412   -7.7286    4.4196 C   0  0  0  0  0  0  0  0  0  0  0  0
   13.5202   -8.0321    4.0013 O   0  0  0  0  0  0  0  0  0  0  0  0
   14.8352   -6.8559    5.6277 C   0  0  0  0  0  0  0  0  0  0  0  0
   20.1522   -9.2874   -2.2278 S   0  0  2  0  0  0  0  0  0  0  0  0
   20.5476   -8.0924   -2.9158 O   0  0  0  0  0  0  0  0  0  0  0  0
   19.6660  -10.3389   -3.0544 O   0  0  0  0  0  0  0  0  0  0  0  0
   21.1551   -9.7517   -1.3241 O   0  0  0  0  0  0  0  0  0  0  0  0
   18.0676  -11.7154    1.5601 O   0  0  0  0  0  0  0  0  0  0  0  0
   15.6239   -7.3126    1.5779 H   0  0  0  0  0  0  0  0  0  0  0  0
   14.6248   -9.4504    2.7182 H   0  0  0  0  0  0  0  0  0  0  0  0
   17.5852   -9.8186    3.2820 H   0  0  0  0  0  0  0  0  0  0  0  0
   16.2603  -11.0021    0.8231 H   0  0  0  0  0  0  0  0  0  0  0  0
   18.6820   -9.2618    1.2027 H   0  0  0  0  0  0  0  0  0  0  0  0
   18.7348  -10.8458   -0.7678 H   0  0  0  0  0  0  0  0  0  0  0  0
   17.2616  -10.0676   -1.3965 H   0  0  0  0  0  0  0  0  0  0  0  0
   14.3381   -9.7093    1.1452 H   0  0  0  0  0  0  0  0  0  0  0  0
   16.1558  -11.1009    4.4441 H   0  0  0  0  0  0  0  0  0  0  0  0
   16.6821   -7.9637    4.2220 H   0  0  0  0  0  0  0  0  0  0  0  0
   14.7016   -7.4568    6.5393 H   0  0  0  0  0  0  0  0  0  0  0  0
   15.8497   -6.4310    5.6140 H   0  0  0  0  0  0  0  0  0  0  0  0
   14.0962   -6.0412    5.6140 H   0  0  0  0  0  0  0  0  0  0  0  0
   18.2117  -11.8792    2.5258 H   0  0  0  0  0  0  0  0  0  0  0  0
  1  2  1  0
  1  7  1  0
  1  9  1  0
  2  3  1  0
  2 11  1  0
  3  4  1  0
  3  8  1  0
  4  5  1  0
  4 19  1  0
  5  6  1  0
  5  9  1  0
  6 10  1  0
 10 15  1  0
 11 12  1  0
 12 13  2  0
 12 14  1  0
 15 16  2  0
 15 17  1  6
 15 18  2  0
  1 20  1  1
  2 21  1  6
  3 22  1  1
  4 23  1  6
  5 24  1  1
  6 25  1  0
  6 26  1  0
  7 27  1  0
  8 28  1  0
 11 29  1  0
 14 30  1  0
 14 31  1  0
 14 32  1  0
 19 33  1  0
M  CHG  1  17  -1
M  END
>  <filename_input>  (22) 
7WDT_NGS_docked.sdf

>  <pdb_id>  (22) 
7WDT_NGS

>  <pose_rank>  (22) 
21

>  <num_atoms_heavy>  (22) 
19

>  <num_torsions>  (22) 
4

>  <pose>  (22) 
[15.763526410608366, -8.373361420405637, 1.3223860424922644, -1.701109221386699, -2.815047114927416, -1.8262601430049465, 2.399641167351364, -0.030017381030369807, -1.0331420508873093, 3.6998875002704894]

>  <energy>  (22) 
-177.50675877974305

>  <inter_energy>  (22) 
-174.41741202120994

>  <intra_energy>  (22) 
0.23860650374319206

>  <rmsd>  (22) 
10.6533

>  <sdf_rank>  (22) 
0

$$$$

     RDKit          3D

 33 33  0  0  0  0  0  0  0  0999 V2000
   16.3178   -8.2505    4.8410 C   0  0  2  0  0  0  0  0  0  0  0  0
   15.3454   -7.6589    3.8233 C   0  0  1  0  0  0  0  0  0  0  0  0
   14.3825   -8.7425    3.3512 C   0  0  2  0  0  0  0  0  0  0  0  0
   14.9421  -10.1398    3.5664 C   0  0  1  0  0  0  0  0  0  0  0  0
   15.2030  -10.3939    5.0489 C   0  0  1  0  0  0  0  0  0  0  0  0
   15.8457  -11.7290    5.2997 C   0  0  0  0  0  0  0  0  0  0  0  0
   17.3230   -8.7312    4.0011 O   0  0  0  0  0  0  0  0  0  0  0  0
   14.1589   -8.5170    1.9665 O   0  0  0  0  0  0  0  0  0  0  0  0
   16.0767   -9.4088    5.6291 O   0  0  0  0  0  0  0  0  0  0  0  0
   16.6414  -12.0328    4.1701 O   0  0  0  0  0  0  0  0  0  0  0  0
   14.6052   -6.4938    4.2511 N   0  0  0  0  0  0  0  0  0  0  0  0
   15.2355   -5.3129    4.3836 C   0  0  0  0  0  0  0  0  0  0  0  0
   16.4342   -5.1917    4.1146 O   0  0  0  0  0  0  0  0  0  0  0  0
   14.3919   -4.1487    4.8210 C   0  0  0  0  0  0  0  0  0  0  0  0
   16.8854  -13.5478    3.8684 S   0  0  2  0  0  0  0  0  0  0  0  0
   16.7791  -14.2100    5.1366 O   0  0  0  0  0  0  0  0  0  0  0  0
   18.1613  -13.6226    3.2424 O   0  0  0  0  0  0  0  0  0  0  0  0
   15.8386  -13.9193    2.9717 O   0  0  0  0  0  0  0  0  0  0  0  0
   14.0012  -11.0871    3.0742 O   0  0  0  0  0  0  0  0  0  0  0  0
   16.4076   -7.4457    5.5855 H   0  0  0  0  0  0  0  0  0  0  0  0
   15.9814   -7.2925    3.0041 H   0  0  0  0  0  0  0  0  0  0  0  0
   13.4494   -8.6878    3.9311 H   0  0  0  0  0  0  0  0  0  0  0  0
   15.8967  -10.2364    3.0285 H   0  0  0  0  0  0  0  0  0  0  0  0
   14.2060  -10.3509    5.5117 H   0  0  0  0  0  0  0  0  0  0  0  0
   16.4746  -11.6804    6.2009 H   0  0  0  0  0  0  0  0  0  0  0  0
   15.0820  -12.5048    5.4577 H   0  0  0  0  0  0  0  0  0  0  0  0
   18.0676   -9.0873    4.5478 H   0  0  0  0  0  0  0  0  0  0  0  0
   13.4665   -7.8185    1.8535 H   0  0  0  0  0  0  0  0  0  0  0  0
   13.5980   -6.5673    4.4539 H   0  0  0  0  0  0  0  0  0  0  0  0
   14.3632   -4.1091    5.9199 H   0  0  0  0  0  0  0  0  0  0  0  0
   14.8247   -3.2154    4.4317 H   0  0  0  0  0  0  0  0  0  0  0  0
   13.3702   -4.2695    4.4317 H   0  0  0  0  0  0  0  0  0  0  0  0
   13.5555  -11.5358    3.8358 H   0  0  0  0  0  0  0  0  0  0  0  0
  1  2  1  0
  1  7  1  0
  1  9  1  0
  2  3  1  0
  2 11  1  0
  3  4  1  0
  3  8  1  0
  4  5  1  0
  4 19  1  0
  5  6  1  0
  5  9  1  0
  6 10  1  0
 10 15  1  0
 11 12  1  0
 12 13  2  0
 12 14  1  0
 15 16  2  0
 15 17  1  6
 15 18  2  0
  1 20  1  1
  2 21  1  6
  3 22  1  1
  4 23  1  6
  5 24  1  1
  6 25  1  0
  6 26  1  0
  7 27  1  0
  8 28  1  0
 11 29  1  0
 14 30  1  0
 14 31  1  0
 14 32  1  0
 19 33  1  0
M  CHG  1  17  -1
M  END
>  <filename_input>  (23) 
7WDT_NGS_docked.sdf

>  <pdb_id>  (23) 
7WDT_NGS

>  <pose_rank>  (23) 
22

>  <num_atoms_heavy>  (23) 
19

>  <num_torsions>  (23) 
4

>  <pose>  (23) 
[16.317821172345706, -8.250494451074884, 4.840968710201994, 0.3419642765933689, -0.5024103427650022, 0.952291295512842, 2.0007291504148452, -2.8088702038137043, 0.09937003633517438, -5.92858632877912]

>  <energy>  (23) 
-215.5169963211175

>  <inter_energy>  (23) 
-199.84982916988625

>  <intra_energy>  (23) 
10.756480079692347

>  <rmsd>  (23) 
12.4224

>  <sdf_rank>  (23) 
0

$$$$

     RDKit          3D

 33 33  0  0  0  0  0  0  0  0999 V2000
   29.9097  -11.0563   -7.0541 C   0  0  2  0  0  0  0  0  0  0  0  0
   30.4111  -10.2466   -8.2475 C   0  0  1  0  0  0  0  0  0  0  0  0
   29.3347   -9.2564   -8.6780 C   0  0  2  0  0  0  0  0  0  0  0  0
   27.9495   -9.6781   -8.2137 C   0  0  1  0  0  0  0  0  0  0  0  0
   27.8928   -9.7600   -6.6904 C   0  0  1  0  0  0  0  0  0  0  0  0
   26.5690  -10.2652   -6.1899 C   0  0  0  0  0  0  0  0  0  0  0  0
   29.2515  -12.1035   -7.6999 O   0  0  0  0  0  0  0  0  0  0  0  0
   29.3747   -9.1989  -10.0969 O   0  0  0  0  0  0  0  0  0  0  0  0
   28.8930  -10.6426   -6.1508 O   0  0  0  0  0  0  0  0  0  0  0  0
   26.0637   -9.3006   -5.2866 O   0  0  0  0  0  0  0  0  0  0  0  0
   31.6698   -9.5597   -8.0686 N   0  0  0  0  0  0  0  0  0  0  0  0
   31.7490   -8.5197   -7.2192 C   0  0  0  0  0  0  0  0  0  0  0  0
   30.7722   -8.1552   -6.5583 O   0  0  0  0  0  0  0  0  0  0  0  0
   33.0963   -7.8681   -7.0818 C   0  0  0  0  0  0  0  0  0  0  0  0
   24.5239   -9.0313   -5.3336 S   0  0  2  0  0  0  0  0  0  0  0  0
   24.1159   -9.3879   -6.6620 O   0  0  0  0  0  0  0  0  0  0  0  0
   24.3545   -7.6616   -4.9867 O   0  0  0  0  0  0  0  0  0  0  0  0
   23.9673   -9.8959   -4.3433 O   0  0  0  0  0  0  0  0  0  0  0  0
   27.0035   -8.7227   -8.6797 O   0  0  0  0  0  0  0  0  0  0  0  0
   30.8049  -11.1302   -6.4191 H   0  0  0  0  0  0  0  0  0  0  0  0
   30.6160  -10.9926   -9.0295 H   0  0  0  0  0  0  0  0  0  0  0  0
   29.5305   -8.2745   -8.2225 H   0  0  0  0  0  0  0  0  0  0  0  0
   27.7169  -10.6736   -8.6198 H   0  0  0  0  0  0  0  0  0  0  0  0
   28.0645   -8.7262   -6.3560 H   0  0  0  0  0  0  0  0  0  0  0  0
   25.8726  -10.3934   -7.0317 H   0  0  0  0  0  0  0  0  0  0  0  0
   26.6870  -11.2394   -5.6929 H   0  0  0  0  0  0  0  0  0  0  0  0
   28.8660  -12.7170   -7.0252 H   0  0  0  0  0  0  0  0  0  0  0  0
   29.9164   -8.4203  -10.3804 H   0  0  0  0  0  0  0  0  0  0  0  0
   32.5039   -9.8655   -8.5898 H   0  0  0  0  0  0  0  0  0  0  0  0
   33.3396   -7.7505   -6.0156 H   0  0  0  0  0  0  0  0  0  0  0  0
   33.8587   -8.4971   -7.5647 H   0  0  0  0  0  0  0  0  0  0  0  0
   33.0766   -6.8800   -7.5647 H   0  0  0  0  0  0  0  0  0  0  0  0
   26.5691   -8.2839   -7.9059 H   0  0  0  0  0  0  0  0  0  0  0  0
  1  2  1  0
  1  7  1  0
  1  9  1  0
  2  3  1  0
  2 11  1  0
  3  4  1  0
  3  8  1  0
  4  5  1  0
  4 19  1  0
  5  6  1  0
  5  9  1  0
  6 10  1  0
 10 15  1  0
 11 12  1  0
 12 13  2  0
 12 14  1  0
 15 16  2  0
 15 17  1  1
 15 18  2  0
  1 20  1  1
  2 21  1  6
  3 22  1  1
  4 23  1  6
  5 24  1  1
  6 25  1  0
  6 26  1  0
  7 27  1  0
  8 28  1  0
 11 29  1  0
 14 30  1  0
 14 31  1  0
 14 32  1  0
 19 33  1  0
M  CHG  1  17  -1
M  END
>  <filename_input>  (24) 
7WDT_NGS_docked.sdf

>  <pdb_id>  (24) 
7WDT_NGS

>  <pose_rank>  (24) 
23

>  <num_atoms_heavy>  (24) 
19

>  <num_torsions>  (24) 
4

>  <pose>  (24) 
[29.909726802465208, -11.056289540169045, -7.054072294657892, 1.856231115456425, 3.209465149525986, 4.02419726165304, -0.45052656114981765, 0.7643120510949861, -1.0432308283457912, 0.38262434513380966]

>  <energy>  (24) 
-210.34427195028508

>  <inter_energy>  (24) 
-233.36222615416574

>  <intra_energy>  (24) 
32.992849085735756

>  <rmsd>  (24) 
7.24481

>  <sdf_rank>  (24) 
0

$$$$

     RDKit          3D

 33 33  0  0  0  0  0  0  0  0999 V2000
   18.0866  -10.8078    1.4714 C   0  0  2  0  0  0  0  0  0  0  0  0
   18.1171  -10.0725    0.1336 C   0  0  1  0  0  0  0  0  0  0  0  0
   16.9983   -9.0375    0.0970 C   0  0  2  0  0  0  0  0  0  0  0  0
   15.8864   -9.3603    1.0826 C   0  0  1  0  0  0  0  0  0  0  0  0
   16.4224   -9.3835    2.5118 C   0  0  1  0  0  0  0  0  0  0  0  0
   15.3777   -9.7919    3.5119 C   0  0  0  0  0  0  0  0  0  0  0  0
   17.1882  -11.8375    1.1894 O   0  0  0  0  0  0  0  0  0  0  0  0
   16.4866   -9.0339   -1.2282 O   0  0  0  0  0  0  0  0  0  0  0  0
   17.5177  -10.3028    2.6723 O   0  0  0  0  0  0  0  0  0  0  0  0
   14.8701  -11.0475    3.1025 O   0  0  0  0  0  0  0  0  0  0  0  0
   19.3729   -9.4543   -0.2259 N   0  0  0  0  0  0  0  0  0  0  0  0
   19.7399   -9.3889   -1.5183 C   0  0  0  0  0  0  0  0  0  0  0  0
   19.0088   -9.8182   -2.4155 O   0  0  0  0  0  0  0  0  0  0  0  0
   21.0540   -8.7199   -1.8083 C   0  0  0  0  0  0  0  0  0  0  0  0
   14.7898  -12.1638    4.1947 S   0  0  2  0  0  0  0  0  0  0  0  0
   13.5197  -12.8003    3.9953 O   0  0  0  0  0  0  0  0  0  0  0  0
   14.9553  -11.5028    5.4441 O   0  0  0  0  0  0  0  0  0  0  0  0
   15.8849  -13.0355    3.9133 O   0  0  0  0  0  0  0  0  0  0  0  0
   14.8726   -8.3688    0.9650 O   0  0  0  0  0  0  0  0  0  0  0  0
   19.1544  -10.9107    1.7149 H   0  0  0  0  0  0  0  0  0  0  0  0
   17.9725  -10.8571   -0.6237 H   0  0  0  0  0  0  0  0  0  0  0  0
   17.3946   -8.0528    0.3858 H   0  0  0  0  0  0  0  0  0  0  0  0
   15.4751  -10.3546    0.8543 H   0  0  0  0  0  0  0  0  0  0  0  0
   16.7515   -8.3501    2.6956 H   0  0  0  0  0  0  0  0  0  0  0  0
   15.8271   -9.8759    4.5124 H   0  0  0  0  0  0  0  0  0  0  0  0
   14.5726   -9.0440    3.5608 H   0  0  0  0  0  0  0  0  0  0  0  0
   16.8517  -12.2231    2.0369 H   0  0  0  0  0  0  0  0  0  0  0  0
   15.4970   -9.0270   -1.1999 H   0  0  0  0  0  0  0  0  0  0  0  0
   19.9850   -9.0650    0.5053 H   0  0  0  0  0  0  0  0  0  0  0  0
   21.5530   -8.4659   -0.8614 H   0  0  0  0  0  0  0  0  0  0  0  0
   21.6929   -9.4025   -2.3878 H   0  0  0  0  0  0  0  0  0  0  0  0
   20.8780   -7.8017   -2.3878 H   0  0  0  0  0  0  0  0  0  0  0  0
   14.5823   -8.0849    1.8679 H   0  0  0  0  0  0  0  0  0  0  0  0
  1  2  1  0
  1  7  1  0
  1  9  1  0
  2  3  1  0
  2 11  1  0
  3  4  1  0
  3  8  1  0
  4  5  1  0
  4 19  1  0
  5  6  1  0
  5  9  1  0
  6 10  1  0
 10 15  1  0
 11 12  1  0
 12 13  2  0
 12 14  1  0
 15 16  2  0
 15 17  1  1
 15 18  2  0
  1 20  1  1
  2 21  1  6
  3 22  1  1
  4 23  1  6
  5 24  1  1
  6 25  1  0
  6 26  1  0
  7 27  1  0
  8 28  1  0
 11 29  1  0
 14 30  1  0
 14 31  1  0
 14 32  1  0
 19 33  1  0
M  CHG  1  17  -1
M  END
>  <filename_input>  (25) 
7WDT_NGS_docked.sdf

>  <pdb_id>  (25) 
7WDT_NGS

>  <pose_rank>  (25) 
24

>  <num_atoms_heavy>  (25) 
19

>  <num_torsions>  (25) 
4

>  <pose>  (25) 
[18.086586606908263, -10.807751707984966, 1.4714073441352566, 3.3978520667602785, 0.7673162676242719, 4.334440832057241, -2.9737627856546984, -2.3745167908788103, -1.2214809951974357, 3.220372247440256]

>  <energy>  (25) 
-173.88999517439476

>  <inter_energy>  (25) 
-185.29492576283783

>  <intra_energy>  (25) 
16.466669953070955

>  <rmsd>  (25) 
10.1024

>  <sdf_rank>  (25) 
0

$$$$

     RDKit          3D

 33 33  0  0  0  0  0  0  0  0999 V2000
   24.7030   -5.8600   -5.6690 C   0  0  2  0  0  0  0  0  0  0  0  0
   24.0840   -4.7840   -6.5580 C   0  0  1  0  0  0  0  0  0  0  0  0
   22.6210   -4.5890   -6.1760 C   0  0  2  0  0  0  0  0  0  0  0  0
   22.0500   -5.8010   -5.4570 C   0  0  1  0  0  0  0  0  0  0  0  0
   22.8140   -6.0700   -4.1630 C   0  0  1  0  0  0  0  0  0  0  0  0
   22.3450   -7.3160   -3.4660 C   0  0  0  0  0  0  0  0  0  0  0  0
   24.3950   -7.0130   -6.3920 O   0  0  0  0  0  0  0  0  0  0  0  0
   21.9090   -4.3610   -7.3840 O   0  0  0  0  0  0  0  0  0  0  0  0
   24.2260   -6.2370   -4.3840 O   0  0  0  0  0  0  0  0  0  0  0  0
   22.9170   -7.3160   -2.1720 O   0  0  0  0  0  0  0  0  0  0  0  0
   24.7620   -3.5080   -6.5810 N   0  0  0  0  0  0  0  0  0  0  0  0
   25.2150   -2.9710   -5.4340 C   0  0  0  0  0  0  0  0  0  0  0  0
   25.0940   -3.5620   -4.3570 O   0  0  0  0  0  0  0  0  0  0  0  0
   25.9190   -1.6480   -5.5460 C   0  0  0  0  0  0  0  0  0  0  0  0
   23.0100   -8.6970   -1.4440 S   0  0  2  0  0  0  0  0  0  0  0  0
   21.7170   -9.2980   -1.6020 O   0  0  0  0  0  0  0  0  0  0  0  0
   23.3930   -8.4090   -0.1040 O   0  0  0  0  0  0  0  0  0  0  0  0
   24.0310   -9.4130   -2.1390 O   0  0  0  0  0  0  0  0  0  0  0  0
   20.6800   -5.5520   -5.1640 O   0  0  0  0  0  0  0  0  0  0  0  0
   25.7057   -5.4567   -5.4642 H   0  0  0  0  0  0  0  0  0  0  0  0
   24.1907   -5.1682   -7.5832 H   0  0  0  0  0  0  0  0  0  0  0  0
   22.5292   -3.7420   -5.4802 H   0  0  0  0  0  0  0  0  0  0  0  0
   22.1465   -6.6862   -6.1028 H   0  0  0  0  0  0  0  0  0  0  0  0
   22.6193   -5.1826   -3.5428 H   0  0  0  0  0  0  0  0  0  0  0  0
   21.2475   -7.3154   -3.3922 H   0  0  0  0  0  0  0  0  0  0  0  0
   22.6491   -8.2128   -4.0258 H   0  0  0  0  0  0  0  0  0  0  0  0
   24.1973   -7.7529   -5.7647 H   0  0  0  0  0  0  0  0  0  0  0  0
   20.9877   -4.0660   -7.1734 H   0  0  0  0  0  0  0  0  0  0  0  0
   24.8979   -3.0113   -7.4730 H   0  0  0  0  0  0  0  0  0  0  0  0
   26.1271   -1.2570   -4.5391 H   0  0  0  0  0  0  0  0  0  0  0  0
   26.8655   -1.7812   -6.0904 H   0  0  0  0  0  0  0  0  0  0  0  0
   25.2797   -0.9374   -6.0904 H   0  0  0  0  0  0  0  0  0  0  0  0
   20.5514   -5.5286   -4.1827 H   0  0  0  0  0  0  0  0  0  0  0  0
  1  2  1  0
  1  7  1  0
  1  9  1  0
  2  3  1  0
  2 11  1  0
  3  4  1  0
  3  8  1  0
  4  5  1  0
  4 19  1  0
  5  6  1  0
  5  9  1  0
  6 10  1  0
 10 15  1  0
 11 12  1  0
 12 13  2  0
 12 14  1  0
 15 16  2  0
 15 17  1  1
 15 18  2  0
  1 20  1  1
  2 21  1  6
  3 22  1  1
  4 23  1  6
  5 24  1  1
  6 25  1  0
  6 26  1  0
  7 27  1  0
  8 28  1  0
 11 29  1  0
 14 30  1  0
 14 31  1  0
 14 32  1  0
 19 33  1  0
M  CHG  1  17  -1
M  END
>  <filename_input>  (26) 
7WDT_NGS_docked.sdf

>  <pdb_id>  (26) 
7WDT_NGS

>  <pose_rank>  (26) 
25

>  <num_atoms_heavy>  (26) 
19

>  <num_torsions>  (26) 
4

>  <pose>  (26) 
[24.703, -5.86, -5.669, 1e-06, 1e-06, 1e-06, 0.0, 0.0, 0.0, 0.0]

>  <energy>  (26) 
-805.7111691647868

>  <inter_energy>  (26) 
-835.132473250152

>  <intra_energy>  (26) 
41.26852402222161

>  <rmsd>  (26) 
0.0

>  <sdf_rank>  (26) 
0

$$$$
