
     RDKit          3D

 24 24  0  0  0  0  0  0  0  0999 V2000
   54.5923   22.4927   13.9388 C   0  0  2  0  0  0  0  0  0  0  0  0
   54.0618   21.9568   15.2605 C   0  0  2  0  0  0  0  0  0  0  0  0
   53.8870   20.4426   15.1167 C   0  0  1  0  0  0  0  0  0  0  0  0
   55.2471   19.8120   14.8175 C   0  0  1  0  0  0  0  0  0  0  0  0
   55.1704   18.3027   14.5732 C   0  0  0  0  0  0  0  0  0  0  0  0
   55.9343   21.8228   13.6668 C   0  0  2  0  0  0  0  0  0  0  0  0
   56.4740   22.3372   12.4418 O   0  0  0  0  0  0  0  0  0  0  0  0
   54.7487   23.9099   13.9046 O   0  0  0  0  0  0  0  0  0  0  0  0
   52.8318   22.5665   15.5947 O   0  0  0  0  0  0  0  0  0  0  0  0
   53.2791   19.8907   16.2778 O   0  0  0  0  0  0  0  0  0  0  0  0
   55.7444   20.3847   13.6005 O   0  0  0  0  0  0  0  0  0  0  0  0
   54.1222   18.0449   13.6374 O   0  0  0  0  0  0  0  0  0  0  0  0
   53.8470   22.2579   13.1646 H   0  0  0  0  0  0  0  0  0  0  0  0
   54.7708   22.1857   16.0698 H   0  0  0  0  0  0  0  0  0  0  0  0
   53.2105   20.2214   14.2780 H   0  0  0  0  0  0  0  0  0  0  0  0
   55.8861   19.9995   15.6929 H   0  0  0  0  0  0  0  0  0  0  0  0
   56.1272   17.9442   14.1658 H   0  0  0  0  0  0  0  0  0  0  0  0
   54.9670   17.7789   15.5188 H   0  0  0  0  0  0  0  0  0  0  0  0
   56.6469   22.0386   14.4766 H   0  0  0  0  0  0  0  0  0  0  0  0
   57.1753   23.0057   12.6452 H   0  0  0  0  0  0  0  0  0  0  0  0
   54.7873   24.2601   14.8298 H   0  0  0  0  0  0  0  0  0  0  0  0
   52.7423   22.6109   16.5797 H   0  0  0  0  0  0  0  0  0  0  0  0
   53.7023   20.2749   17.0861 H   0  0  0  0  0  0  0  0  0  0  0  0
   53.2863   17.8394   14.1265 H   0  0  0  0  0  0  0  0  0  0  0  0
  1  2  1  0
  1  6  1  0
  1  8  1  0
  2  3  1  0
  2  9  1  0
  3  4  1  0
  3 10  1  0
  4  5  1  0
  4 11  1  0
  5 12  1  0
  6  7  1  0
  6 11  1  0
  1 13  1  6
  2 14  1  1
  3 15  1  6
  4 16  1  1
  5 17  1  0
  5 18  1  0
  6 19  1  1
  7 20  1  0
  8 21  1  0
  9 22  1  0
 10 23  1  0
 12 24  1  0
M  END
>  <filename_input>  (1) 
7WJB_BGC_docked.sdf

>  <pdb_id>  (1) 
7WJB_BGC

>  <pose_rank>  (1) 
0

>  <num_atoms_heavy>  (1) 
12

>  <num_torsions>  (1) 
1

>  <pose>  (1) 
[54.592340527917855, 22.49270296146802, 13.938810508840422, 0.04451964844298528, -0.11406615468954678, 0.056240861775309875, -0.36480238625064776]

>  <energy>  (1) 
-758.0434472270944

>  <inter_energy>  (1) 
-753.2213054172594

>  <intra_energy>  (1) 
0.14675669314582612

>  <rmsd>  (1) 
0.270529

>  <sdf_rank>  (1) 
0

$$$$

     RDKit          3D

 24 24  0  0  0  0  0  0  0  0999 V2000
   54.9235   22.2837   13.8878 C   0  0  2  0  0  0  0  0  0  0  0  0
   54.4859   21.9379   15.3036 C   0  0  2  0  0  0  0  0  0  0  0  0
   54.1167   20.4523   15.3311 C   0  0  1  0  0  0  0  0  0  0  0  0
   55.3493   19.6275   14.9603 C   0  0  1  0  0  0  0  0  0  0  0  0
   55.0660   18.1253   14.8779 C   0  0  0  0  0  0  0  0  0  0  0  0
   56.1366   21.4247   13.5497 C   0  0  2  0  0  0  0  0  0  0  0  0
   56.5916   21.7565   12.2309 O   0  0  0  0  0  0  0  0  0  0  0  0
   55.2428   23.6604   13.6957 O   0  0  0  0  0  0  0  0  0  0  0  0
   53.3832   22.7284   15.6979 O   0  0  0  0  0  0  0  0  0  0  0  0
   53.5827   20.0868   16.5974 O   0  0  0  0  0  0  0  0  0  0  0  0
   55.7703   20.0230   13.6478 O   0  0  0  0  0  0  0  0  0  0  0  0
   54.1623   17.8903   13.7967 O   0  0  0  0  0  0  0  0  0  0  0  0
   54.0727   22.0808   13.2207 H   0  0  0  0  0  0  0  0  0  0  0  0
   55.3042   22.1426   16.0097 H   0  0  0  0  0  0  0  0  0  0  0  0
   53.3281   20.2484   14.5918 H   0  0  0  0  0  0  0  0  0  0  0  0
   56.1011   19.8062   15.7431 H   0  0  0  0  0  0  0  0  0  0  0  0
   56.0050   17.5803   14.7010 H   0  0  0  0  0  0  0  0  0  0  0  0
   54.6225   17.7743   15.8213 H   0  0  0  0  0  0  0  0  0  0  0  0
   56.9568   21.6161   14.2573 H   0  0  0  0  0  0  0  0  0  0  0  0
   57.3899   22.3386   12.2939 H   0  0  0  0  0  0  0  0  0  0  0  0
   55.3451   24.1013   14.5761 H   0  0  0  0  0  0  0  0  0  0  0  0
   53.3373   22.7612   16.6863 H   0  0  0  0  0  0  0  0  0  0  0  0
   54.1447   20.4715   17.3159 H   0  0  0  0  0  0  0  0  0  0  0  0
   53.2698   17.6583   14.1571 H   0  0  0  0  0  0  0  0  0  0  0  0
  1  2  1  0
  1  6  1  0
  1  8  1  0
  2  3  1  0
  2  9  1  0
  3  4  1  0
  3 10  1  0
  4  5  1  0
  4 11  1  0
  5 12  1  0
  6  7  1  0
  6 11  1  0
  1 13  1  6
  2 14  1  1
  3 15  1  6
  4 16  1  1
  5 17  1  0
  5 18  1  0
  6 19  1  1
  7 20  1  0
  8 21  1  0
  9 22  1  0
 10 23  1  0
 12 24  1  0
M  END
>  <filename_input>  (2) 
7WJB_BGC_docked.sdf

>  <pdb_id>  (2) 
7WJB_BGC

>  <pose_rank>  (2) 
1

>  <num_atoms_heavy>  (2) 
12

>  <num_torsions>  (2) 
1

>  <pose>  (2) 
[54.923519015569426, 22.28366805371108, 13.88778850807207, -4.02248230468283, -0.45197702532116263, -4.916307212615323, -0.07306360626472098]

>  <energy>  (2) 
-713.1744250757756

>  <inter_energy>  (2) 
-702.6805743436502

>  <intra_energy>  (2) 
0.0

>  <rmsd>  (2) 
0.452184

>  <sdf_rank>  (2) 
0

$$$$

     RDKit          3D

 24 24  0  0  0  0  0  0  0  0999 V2000
   57.5543   21.5740   14.4170 C   0  0  2  0  0  0  0  0  0  0  0  0
   57.5992   20.5331   15.5262 C   0  0  2  0  0  0  0  0  0  0  0  0
   56.1999   20.4414   16.1407 C   0  0  1  0  0  0  0  0  0  0  0  0
   55.2120   19.9976   15.0616 C   0  0  1  0  0  0  0  0  0  0  0  0
   53.7630   19.9532   15.5535 C   0  0  0  0  0  0  0  0  0  0  0  0
   56.5430   21.1063   13.3768 C   0  0  2  0  0  0  0  0  0  0  0  0
   56.5066   22.0538   12.3009 O   0  0  0  0  0  0  0  0  0  0  0  0
   58.8125   21.8118   13.7889 O   0  0  0  0  0  0  0  0  0  0  0  0
   58.5490   20.8861   16.5109 O   0  0  0  0  0  0  0  0  0  0  0  0
   56.1973   19.5724   17.2662 O   0  0  0  0  0  0  0  0  0  0  0  0
   55.2416   20.9675   14.0059 O   0  0  0  0  0  0  0  0  0  0  0  0
   53.1835   21.2477   15.3826 O   0  0  0  0  0  0  0  0  0  0  0  0
   57.2658   22.5316   14.8748 H   0  0  0  0  0  0  0  0  0  0  0  0
   57.9016   19.5590   15.1144 H   0  0  0  0  0  0  0  0  0  0  0  0
   55.8878   21.4290   16.5111 H   0  0  0  0  0  0  0  0  0  0  0  0
   55.5133   18.9871   14.7482 H   0  0  0  0  0  0  0  0  0  0  0  0
   53.1959   19.2134   14.9695 H   0  0  0  0  0  0  0  0  0  0  0  0
   53.7352   19.6663   16.6151 H   0  0  0  0  0  0  0  0  0  0  0  0
   56.8327   20.1276   12.9665 H   0  0  0  0  0  0  0  0  0  0  0  0
   56.4714   22.9715   12.6705 H   0  0  0  0  0  0  0  0  0  0  0  0
   59.5075   21.9432   14.4816 H   0  0  0  0  0  0  0  0  0  0  0  0
   58.1610   20.7419   17.4103 H   0  0  0  0  0  0  0  0  0  0  0  0
   56.1989   20.1095   18.0978 H   0  0  0  0  0  0  0  0  0  0  0  0
   53.0041   21.6487   16.2698 H   0  0  0  0  0  0  0  0  0  0  0  0
  1  2  1  0
  1  6  1  0
  1  8  1  0
  2  3  1  0
  2  9  1  0
  3  4  1  0
  3 10  1  0
  4  5  1  0
  4 11  1  0
  5 12  1  0
  6  7  1  0
  6 11  1  0
  1 13  1  1
  2 14  1  6
  3 15  1  1
  4 16  1  6
  5 17  1  0
  5 18  1  0
  6 19  1  6
  7 20  1  0
  8 21  1  0
  9 22  1  0
 10 23  1  0
 12 24  1  0
M  END
>  <filename_input>  (3) 
7WJB_BGC_docked.sdf

>  <pdb_id>  (3) 
7WJB_BGC

>  <pose_rank>  (3) 
2

>  <num_atoms_heavy>  (3) 
12

>  <num_torsions>  (3) 
1

>  <pose>  (3) 
[57.55428604717326, 21.573964660990686, 14.417010530483912, 0.5303472588428012, 1.0704405392568317, -1.3757021153211566, -5.974501902287118]

>  <energy>  (3) 
-386.21361463442304

>  <inter_energy>  (3) 
-386.0948066325098

>  <intra_energy>  (3) 
0.0

>  <rmsd>  (3) 
3.15159

>  <sdf_rank>  (3) 
0

$$$$

     RDKit          3D

 24 24  0  0  0  0  0  0  0  0999 V2000
   62.2187   20.6112   15.0261 C   0  0  2  0  0  0  0  0  0  0  0  0
   62.2509   21.2610   13.6505 C   0  0  2  0  0  0  0  0  0  0  0  0
   60.8076   21.3798   13.1537 C   0  0  1  0  0  0  0  0  0  0  0  0
   60.0212   22.2656   14.1202 C   0  0  1  0  0  0  0  0  0  0  0  0
   58.5384   22.3833   13.7582 C   0  0  0  0  0  0  0  0  0  0  0  0
   61.4073   21.5117   15.9504 C   0  0  2  0  0  0  0  0  0  0  0  0
   61.3906   20.9388   17.2650 O   0  0  0  0  0  0  0  0  0  0  0  0
   63.5071   20.3799   15.5924 O   0  0  0  0  0  0  0  0  0  0  0  0
   63.0223   20.4944   12.7485 O   0  0  0  0  0  0  0  0  0  0  0  0
   60.7704   21.8699   11.8193 O   0  0  0  0  0  0  0  0  0  0  0  0
   60.0643   21.6557   15.4172 O   0  0  0  0  0  0  0  0  0  0  0  0
   57.7619   22.1496   14.9343 O   0  0  0  0  0  0  0  0  0  0  0  0
   61.7628   19.6168   14.9106 H   0  0  0  0  0  0  0  0  0  0  0  0
   62.7167   22.2553   13.7162 H   0  0  0  0  0  0  0  0  0  0  0  0
   60.3357   20.3864   13.1321 H   0  0  0  0  0  0  0  0  0  0  0  0
   60.4781   23.2654   14.0815 H   0  0  0  0  0  0  0  0  0  0  0  0
   58.3303   23.3917   13.3711 H   0  0  0  0  0  0  0  0  0  0  0  0
   58.2806   21.6446   12.9849 H   0  0  0  0  0  0  0  0  0  0  0  0
   61.8609   22.5117   16.0143 H   0  0  0  0  0  0  0  0  0  0  0  0
   61.4117   21.6623   17.9405 H   0  0  0  0  0  0  0  0  0  0  0  0
   63.4404   20.3919   16.5800 H   0  0  0  0  0  0  0  0  0  0  0  0
   63.6251   19.8954   13.2563 H   0  0  0  0  0  0  0  0  0  0  0  0
   60.6954   22.8570   11.8323 H   0  0  0  0  0  0  0  0  0  0  0  0
   58.3184   22.3171   15.7358 H   0  0  0  0  0  0  0  0  0  0  0  0
  1  2  1  0
  1  6  1  0
  1  8  1  0
  2  3  1  0
  2  9  1  0
  3  4  1  0
  3 10  1  0
  4  5  1  0
  4 11  1  0
  5 12  1  0
  6  7  1  0
  6 11  1  0
  1 13  1  6
  2 14  1  1
  3 15  1  6
  4 16  1  1
  5 17  1  0
  5 18  1  0
  6 19  1  1
  7 20  1  0
  8 21  1  0
  9 22  1  0
 10 23  1  0
 12 24  1  0
M  END
>  <filename_input>  (4) 
7WJB_BGC_docked.sdf

>  <pdb_id>  (4) 
7WJB_BGC

>  <pose_rank>  (4) 
3

>  <num_atoms_heavy>  (4) 
12

>  <num_torsions>  (4) 
1

>  <pose>  (4) 
[62.218659671364286, 20.611177549559063, 15.026125243507973, 2.4186759769972452, 2.0748799400254123, 1.2019774329698463, -5.198179398537683]

>  <energy>  (4) 
-122.46997333983657

>  <inter_energy>  (4) 
-124.55398148049517

>  <intra_energy>  (4) 
0.0

>  <rmsd>  (4) 
7.62063

>  <sdf_rank>  (4) 
0

$$$$

     RDKit          3D

 24 24  0  0  0  0  0  0  0  0999 V2000
   57.0615   21.5746   14.7578 C   0  0  2  0  0  0  0  0  0  0  0  0
   56.9309   20.0742   14.9752 C   0  0  2  0  0  0  0  0  0  0  0  0
   55.4826   19.7824   15.3766 C   0  0  1  0  0  0  0  0  0  0  0  0
   54.5555   20.2179   14.2416 C   0  0  1  0  0  0  0  0  0  0  0  0
   53.0717   20.0444   14.5760 C   0  0  0  0  0  0  0  0  0  0  0  0
   56.1061   21.9703   13.6379 C   0  0  2  0  0  0  0  0  0  0  0  0
   56.2349   23.3765   13.3883 O   0  0  0  0  0  0  0  0  0  0  0  0
   58.3825   22.0045   14.4348 O   0  0  0  0  0  0  0  0  0  0  0  0
   57.8207   19.6308   15.9793 O   0  0  0  0  0  0  0  0  0  0  0  0
   55.3172   18.4108   15.7134 O   0  0  0  0  0  0  0  0  0  0  0  0
   54.7500   21.6216   14.0228 O   0  0  0  0  0  0  0  0  0  0  0  0
   52.8308   20.5861   15.8758 O   0  0  0  0  0  0  0  0  0  0  0  0
   56.8132   22.0686   15.7088 H   0  0  0  0  0  0  0  0  0  0  0  0
   57.1879   19.5374   14.0502 H   0  0  0  0  0  0  0  0  0  0  0  0
   55.2204   20.3564   16.2776 H   0  0  0  0  0  0  0  0  0  0  0  0
   54.8004   19.5921   13.3708 H   0  0  0  0  0  0  0  0  0  0  0  0
   52.4598   20.5773   13.8333 H   0  0  0  0  0  0  0  0  0  0  0  0
   52.8048   18.9774   14.5583 H   0  0  0  0  0  0  0  0  0  0  0  0
   56.3499   21.4304   12.7110 H   0  0  0  0  0  0  0  0  0  0  0  0
   56.2794   23.8619   14.2500 H   0  0  0  0  0  0  0  0  0  0  0  0
   58.8891   22.1694   15.2692 H   0  0  0  0  0  0  0  0  0  0  0  0
   57.4348   19.8231   16.8705 H   0  0  0  0  0  0  0  0  0  0  0  0
   55.3053   18.3119   16.6983 H   0  0  0  0  0  0  0  0  0  0  0  0
   53.1203   19.9352   16.5634 H   0  0  0  0  0  0  0  0  0  0  0  0
  1  2  1  0
  1  6  1  0
  1  8  1  0
  2  3  1  0
  2  9  1  0
  3  4  1  0
  3 10  1  0
  4  5  1  0
  4 11  1  0
  5 12  1  0
  6  7  1  0
  6 11  1  0
  1 13  1  1
  2 14  1  6
  3 15  1  1
  4 16  1  6
  5 17  1  0
  5 18  1  0
  6 19  1  6
  7 20  1  0
  8 21  1  0
  9 22  1  0
 10 23  1  0
 12 24  1  0
M  END
>  <filename_input>  (5) 
7WJB_BGC_docked.sdf

>  <pdb_id>  (5) 
7WJB_BGC

>  <pose_rank>  (5) 
4

>  <num_atoms_heavy>  (5) 
12

>  <num_torsions>  (5) 
1

>  <pose>  (5) 
[57.061480468445936, 21.574618089337402, 14.757800196556515, 1.116553838333996, 1.4771714027586194, -1.0588090146434048, -6.6712408009084045]

>  <energy>  (5) 
-415.5446639935256

>  <inter_energy>  (5) 
-406.7805044381597

>  <intra_energy>  (5) 
0.25616941720479636

>  <rmsd>  (5) 
3.00857

>  <sdf_rank>  (5) 
0

$$$$

     RDKit          3D

 24 24  0  0  0  0  0  0  0  0999 V2000
   53.8744   22.1576   14.4733 C   0  0  2  0  0  0  0  0  0  0  0  0
   53.5509   21.4916   15.8028 C   0  0  2  0  0  0  0  0  0  0  0  0
   53.5272   19.9777   15.5758 C   0  0  1  0  0  0  0  0  0  0  0  0
   54.9076   19.5254   15.0990 C   0  0  1  0  0  0  0  0  0  0  0  0
   54.9694   18.0332   14.7627 C   0  0  0  0  0  0  0  0  0  0  0  0
   55.2440   21.6628   14.0228 C   0  0  2  0  0  0  0  0  0  0  0  0
   55.5892   22.3031   12.7870 O   0  0  0  0  0  0  0  0  0  0  0  0
   53.8712   23.5831   14.5189 O   0  0  0  0  0  0  0  0  0  0  0  0
   52.3053   21.9361   16.2997 O   0  0  0  0  0  0  0  0  0  0  0  0
   53.1118   19.2959   16.7525 O   0  0  0  0  0  0  0  0  0  0  0  0
   55.2054   20.2183   13.8794 O   0  0  0  0  0  0  0  0  0  0  0  0
   54.0110   17.7562   13.7401 O   0  0  0  0  0  0  0  0  0  0  0  0
   53.0799   21.8818   13.7643 H   0  0  0  0  0  0  0  0  0  0  0  0
   54.3141   21.7553   16.5499 H   0  0  0  0  0  0  0  0  0  0  0  0
   52.7923   19.7270   14.7967 H   0  0  0  0  0  0  0  0  0  0  0  0
   55.6131   19.7364   15.9161 H   0  0  0  0  0  0  0  0  0  0  0  0
   55.9773   17.7754   14.4055 H   0  0  0  0  0  0  0  0  0  0  0  0
   54.7454   17.4365   15.6592 H   0  0  0  0  0  0  0  0  0  0  0  0
   56.0121   21.9138   14.7691 H   0  0  0  0  0  0  0  0  0  0  0  0
   56.0504   23.1585   12.9761 H   0  0  0  0  0  0  0  0  0  0  0  0
   53.8705   23.8830   15.4624 H   0  0  0  0  0  0  0  0  0  0  0  0
   52.3235   21.9296   17.2895 H   0  0  0  0  0  0  0  0  0  0  0  0
   53.4173   19.7972   17.5496 H   0  0  0  0  0  0  0  0  0  0  0  0
   53.1478   17.5066   14.1557 H   0  0  0  0  0  0  0  0  0  0  0  0
  1  2  1  0
  1  6  1  0
  1  8  1  0
  2  3  1  0
  2  9  1  0
  3  4  1  0
  3 10  1  0
  4  5  1  0
  4 11  1  0
  5 12  1  0
  6  7  1  0
  6 11  1  0
  1 13  1  6
  2 14  1  1
  3 15  1  6
  4 16  1  1
  5 17  1  0
  5 18  1  0
  6 19  1  1
  7 20  1  0
  8 21  1  0
  9 22  1  0
 10 23  1  0
 12 24  1  0
M  END
>  <filename_input>  (6) 
7WJB_BGC_docked.sdf

>  <pdb_id>  (6) 
7WJB_BGC

>  <pose_rank>  (6) 
5

>  <num_atoms_heavy>  (6) 
12

>  <num_torsions>  (6) 
1

>  <pose>  (6) 
[53.87440173380814, 22.157567206366924, 14.473318939698087, -3.519123262673856, 0.25274874406566444, -4.956218139645291, -0.18658063386031631]

>  <energy>  (6) 
-600.0233296559954

>  <inter_energy>  (6) 
-616.1436250150232

>  <intra_energy>  (6) 
0.0

>  <rmsd>  (6) 
0.703745

>  <sdf_rank>  (6) 
0

$$$$

     RDKit          3D

 24 24  0  0  0  0  0  0  0  0999 V2000
   54.8301   22.3714   13.8467 C   0  0  2  0  0  0  0  0  0  0  0  0
   54.3826   22.0393   15.2627 C   0  0  2  0  0  0  0  0  0  0  0  0
   54.0404   20.5477   15.3091 C   0  0  1  0  0  0  0  0  0  0  0  0
   55.2921   19.7402   14.9650 C   0  0  1  0  0  0  0  0  0  0  0  0
   55.0374   18.2320   14.9028 C   0  0  0  0  0  0  0  0  0  0  0  0
   56.0625   21.5299   13.5357 C   0  0  2  0  0  0  0  0  0  0  0  0
   56.5265   21.8498   12.2170 O   0  0  0  0  0  0  0  0  0  0  0  0
   55.1263   23.7506   13.6368 O   0  0  0  0  0  0  0  0  0  0  0  0
   53.2611   22.8152   15.6323 O   0  0  0  0  0  0  0  0  0  0  0  0
   53.4987   20.1919   16.5748 O   0  0  0  0  0  0  0  0  0  0  0  0
   55.7209   20.1233   13.6514 O   0  0  0  0  0  0  0  0  0  0  0  0
   54.2150   17.9549   13.7680 O   0  0  0  0  0  0  0  0  0  0  0  0
   53.9909   22.1426   13.1734 H   0  0  0  0  0  0  0  0  0  0  0  0
   55.1888   22.2699   15.9746 H   0  0  0  0  0  0  0  0  0  0  0  0
   53.2643   20.3180   14.5643 H   0  0  0  0  0  0  0  0  0  0  0  0
   56.0314   19.9448   15.7534 H   0  0  0  0  0  0  0  0  0  0  0  0
   55.9943   17.6983   14.8061 H   0  0  0  0  0  0  0  0  0  0  0  0
   54.5342   17.8977   15.8221 H   0  0  0  0  0  0  0  0  0  0  0  0
   56.8709   21.7472   14.2493 H   0  0  0  0  0  0  0  0  0  0  0  0
   57.3400   22.4105   12.2804 H   0  0  0  0  0  0  0  0  0  0  0  0
   55.2237   24.2040   14.5115 H   0  0  0  0  0  0  0  0  0  0  0  0
   53.2000   22.8575   16.6195 H   0  0  0  0  0  0  0  0  0  0  0  0
   54.0674   20.5654   17.2940 H   0  0  0  0  0  0  0  0  0  0  0  0
   53.3224   17.6541   14.0729 H   0  0  0  0  0  0  0  0  0  0  0  0
  1  2  1  0
  1  6  1  0
  1  8  1  0
  2  3  1  0
  2  9  1  0
  3  4  1  0
  3 10  1  0
  4  5  1  0
  4 11  1  0
  5 12  1  0
  6  7  1  0
  6 11  1  0
  1 13  1  6
  2 14  1  1
  3 15  1  6
  4 16  1  1
  5 17  1  0
  5 18  1  0
  6 19  1  1
  7 20  1  0
  8 21  1  0
  9 22  1  0
 10 23  1  0
 12 24  1  0
M  END
>  <filename_input>  (7) 
7WJB_BGC_docked.sdf

>  <pdb_id>  (7) 
7WJB_BGC

>  <pose_rank>  (7) 
6

>  <num_atoms_heavy>  (7) 
12

>  <num_torsions>  (7) 
1

>  <pose>  (7) 
[54.83013125663566, 22.371351259754093, 13.84668653444303, -5.115616465889753, -1.3703802917868837, -3.537448150003031, -0.013682718747470969]

>  <energy>  (7) 
-715.9787429576902

>  <inter_energy>  (7) 
-709.8946256903293

>  <intra_energy>  (7) 
0.0

>  <rmsd>  (7) 
0.368477

>  <sdf_rank>  (7) 
0

$$$$

     RDKit          3D

 24 24  0  0  0  0  0  0  0  0999 V2000
   56.6953   20.4723   15.6601 C   0  0  2  0  0  0  0  0  0  0  0  0
   57.6378   21.0283   16.7176 C   0  0  2  0  0  0  0  0  0  0  0  0
   59.0183   21.1925   16.0762 C   0  0  1  0  0  0  0  0  0  0  0  0
   58.9117   22.1807   14.9146 C   0  0  1  0  0  0  0  0  0  0  0  0
   60.2263   22.3547   14.1496 C   0  0  0  0  0  0  0  0  0  0  0  0
   56.6362   21.4738   14.5125 C   0  0  2  0  0  0  0  0  0  0  0  0
   55.7257   20.9897   13.5159 O   0  0  0  0  0  0  0  0  0  0  0  0
   55.3764   20.2090   16.1347 O   0  0  0  0  0  0  0  0  0  0  0  0
   57.7109   20.1638   17.8328 O   0  0  0  0  0  0  0  0  0  0  0  0
   59.9806   21.5958   17.0424 O   0  0  0  0  0  0  0  0  0  0  0  0
   57.9705   21.6552   13.9691 O   0  0  0  0  0  0  0  0  0  0  0  0
   60.9257   21.1090   14.1556 O   0  0  0  0  0  0  0  0  0  0  0  0
   57.0954   19.4986   15.3409 H   0  0  0  0  0  0  0  0  0  0  0  0
   57.2655   21.9981   17.0793 H   0  0  0  0  0  0  0  0  0  0  0  0
   59.3642   20.2268   15.6788 H   0  0  0  0  0  0  0  0  0  0  0  0
   58.6186   23.1497   15.3450 H   0  0  0  0  0  0  0  0  0  0  0  0
   60.0146   22.6558   13.1130 H   0  0  0  0  0  0  0  0  0  0  0  0
   60.8396   23.1322   14.6284 H   0  0  0  0  0  0  0  0  0  0  0  0
   56.2739   22.4498   14.8675 H   0  0  0  0  0  0  0  0  0  0  0  0
   54.9435   20.5737   13.9577 H   0  0  0  0  0  0  0  0  0  0  0  0
   55.3758   20.2089   17.1247 H   0  0  0  0  0  0  0  0  0  0  0  0
   57.6659   20.6960   18.6664 H   0  0  0  0  0  0  0  0  0  0  0  0
   59.6190   21.4442   17.9514 H   0  0  0  0  0  0  0  0  0  0  0  0
   61.0853   20.8247   15.0904 H   0  0  0  0  0  0  0  0  0  0  0  0
  1  2  1  0
  1  6  1  0
  1  8  1  0
  2  3  1  0
  2  9  1  0
  3  4  1  0
  3 10  1  0
  4  5  1  0
  4 11  1  0
  5 12  1  0
  6  7  1  0
  6 11  1  0
  1 13  1  6
  2 14  1  1
  3 15  1  6
  4 16  1  1
  5 17  1  0
  5 18  1  0
  6 19  1  1
  7 20  1  0
  8 21  1  0
  9 22  1  0
 10 23  1  0
 12 24  1  0
M  END
>  <filename_input>  (8) 
7WJB_BGC_docked.sdf

>  <pdb_id>  (8) 
7WJB_BGC

>  <pose_rank>  (8) 
7

>  <num_atoms_heavy>  (8) 
12

>  <num_torsions>  (8) 
1

>  <pose>  (8) 
[56.69532314771981, 20.472279362177062, 15.660149824830388, -0.0854095471351726, 0.7609828535645805, 1.9138544558798944, -6.912205135549976]

>  <energy>  (8) 
-289.10899673604996

>  <inter_energy>  (8) 
-288.35110821484153

>  <intra_energy>  (8) 
3.144114724940921

>  <rmsd>  (8) 
4.93718

>  <sdf_rank>  (8) 
0

$$$$

     RDKit          3D

 24 24  0  0  0  0  0  0  0  0999 V2000
   54.8416   22.4004   13.8602 C   0  0  2  0  0  0  0  0  0  0  0  0
   54.2964   22.0585   15.2391 C   0  0  2  0  0  0  0  0  0  0  0  0
   53.9564   20.5657   15.2525 C   0  0  1  0  0  0  0  0  0  0  0  0
   55.2318   19.7637   14.9927 C   0  0  1  0  0  0  0  0  0  0  0  0
   54.9868   18.2552   14.9038 C   0  0  0  0  0  0  0  0  0  0  0  0
   56.0955   21.5642   13.6318 C   0  0  2  0  0  0  0  0  0  0  0  0
   56.6502   21.8934   12.3511 O   0  0  0  0  0  0  0  0  0  0  0  0
   55.1475   23.7817   13.6799 O   0  0  0  0  0  0  0  0  0  0  0  0
   53.1492   22.8290   15.5332 O   0  0  0  0  0  0  0  0  0  0  0  0
   53.3280   20.2007   16.4747 O   0  0  0  0  0  0  0  0  0  0  0  0
   55.7509   20.1560   13.7149 O   0  0  0  0  0  0  0  0  0  0  0  0
   54.1367   17.9965   13.7852 O   0  0  0  0  0  0  0  0  0  0  0  0
   54.0526   22.1734   13.1280 H   0  0  0  0  0  0  0  0  0  0  0  0
   55.0497   22.2869   16.0075 H   0  0  0  0  0  0  0  0  0  0  0  0
   53.2355   20.3384   14.4534 H   0  0  0  0  0  0  0  0  0  0  0  0
   55.9131   19.9655   15.8325 H   0  0  0  0  0  0  0  0  0  0  0  0
   55.9449   17.7315   14.7701 H   0  0  0  0  0  0  0  0  0  0  0  0
   54.5107   17.8968   15.8283 H   0  0  0  0  0  0  0  0  0  0  0  0
   56.8509   21.7793   14.4020 H   0  0  0  0  0  0  0  0  0  0  0  0
   57.4948   22.3945   12.4762 H   0  0  0  0  0  0  0  0  0  0  0  0
   55.2438   24.2165   14.5640 H   0  0  0  0  0  0  0  0  0  0  0  0
   53.0426   22.9007   16.5149 H   0  0  0  0  0  0  0  0  0  0  0  0
   53.8759   20.5189   17.2354 H   0  0  0  0  0  0  0  0  0  0  0  0
   53.2412   17.7239   14.1073 H   0  0  0  0  0  0  0  0  0  0  0  0
  1  2  1  0
  1  6  1  0
  1  8  1  0
  2  3  1  0
  2  9  1  0
  3  4  1  0
  3 10  1  0
  4  5  1  0
  4 11  1  0
  5 12  1  0
  6  7  1  0
  6 11  1  0
  1 13  1  6
  2 14  1  1
  3 15  1  6
  4 16  1  1
  5 17  1  0
  5 18  1  0
  6 19  1  1
  7 20  1  0
  8 21  1  0
  9 22  1  0
 10 23  1  0
 12 24  1  0
M  END
>  <filename_input>  (9) 
7WJB_BGC_docked.sdf

>  <pdb_id>  (9) 
7WJB_BGC

>  <pose_rank>  (9) 
8

>  <num_atoms_heavy>  (9) 
12

>  <num_torsions>  (9) 
1

>  <pose>  (9) 
[54.84157038338008, 22.40038463673005, 13.8601521032655, 3.1969116275567537, 4.658964800267986, 2.4673808776468436, -6.395284535932352]

>  <energy>  (9) 
-739.3409940306633

>  <inter_energy>  (9) 
-737.0839163088746

>  <intra_energy>  (9) 
0.0

>  <rmsd>  (9) 
0.359063

>  <sdf_rank>  (9) 
0

$$$$

     RDKit          3D

 24 24  0  0  0  0  0  0  0  0999 V2000
   55.0814   20.8094   14.5324 C   0  0  2  0  0  0  0  0  0  0  0  0
   55.7917   19.7629   15.3785 C   0  0  2  0  0  0  0  0  0  0  0  0
   57.2996   19.9607   15.2013 C   0  0  1  0  0  0  0  0  0  0  0  0
   57.6780   21.3585   15.6914 C   0  0  1  0  0  0  0  0  0  0  0  0
   59.1577   21.6900   15.4817 C   0  0  0  0  0  0  0  0  0  0  0  0
   55.5034   22.1846   15.0369 C   0  0  2  0  0  0  0  0  0  0  0  0
   54.8198   23.1911   14.2779 O   0  0  0  0  0  0  0  0  0  0  0  0
   53.6589   20.7078   14.5518 O   0  0  0  0  0  0  0  0  0  0  0  0
   55.4154   18.4583   14.9879 O   0  0  0  0  0  0  0  0  0  0  0  0
   58.0263   18.9381   15.8707 O   0  0  0  0  0  0  0  0  0  0  0  0
   56.9445   22.3153   14.9152 O   0  0  0  0  0  0  0  0  0  0  0  0
   59.9061   20.4734   15.5101 O   0  0  0  0  0  0  0  0  0  0  0  0
   55.3763   20.6431   13.4858 H   0  0  0  0  0  0  0  0  0  0  0  0
   55.5112   19.8816   16.4355 H   0  0  0  0  0  0  0  0  0  0  0  0
   57.5651   19.8833   14.1366 H   0  0  0  0  0  0  0  0  0  0  0  0
   57.4543   21.3913   16.7680 H   0  0  0  0  0  0  0  0  0  0  0  0
   59.2922   22.1851   14.5086 H   0  0  0  0  0  0  0  0  0  0  0  0
   59.5078   22.3651   16.2764 H   0  0  0  0  0  0  0  0  0  0  0  0
   55.2352   22.3082   16.0965 H   0  0  0  0  0  0  0  0  0  0  0  0
   54.3850   23.8314   14.8952 H   0  0  0  0  0  0  0  0  0  0  0  0
   53.3425   20.6852   15.4896 H   0  0  0  0  0  0  0  0  0  0  0  0
   55.2560   17.9056   15.7937 H   0  0  0  0  0  0  0  0  0  0  0  0
   57.9404   19.0589   16.8495 H   0  0  0  0  0  0  0  0  0  0  0  0
   60.0692   20.2082   16.4499 H   0  0  0  0  0  0  0  0  0  0  0  0
  1  2  1  0
  1  6  1  0
  1  8  1  0
  2  3  1  0
  2  9  1  0
  3  4  1  0
  3 10  1  0
  4  5  1  0
  4 11  1  0
  5 12  1  0
  6  7  1  0
  6 11  1  0
  1 13  1  6
  2 14  1  1
  3 15  1  6
  4 16  1  1
  5 17  1  0
  5 18  1  0
  6 19  1  1
  7 20  1  0
  8 21  1  0
  9 22  1  0
 10 23  1  0
 12 24  1  0
M  END
>  <filename_input>  (10) 
7WJB_BGC_docked.sdf

>  <pdb_id>  (10) 
7WJB_BGC

>  <pose_rank>  (10) 
9

>  <num_atoms_heavy>  (10) 
12

>  <num_torsions>  (10) 
1

>  <pose>  (10) 
[55.08140219999619, 20.809415693805068, 14.532397779923233, 2.565827979808797, -2.1240419956265453, 7.4889830822553485, -1.70550104063237]

>  <energy>  (10) 
-274.6193136661389

>  <inter_energy>  (10) 
-289.5576687700292

>  <intra_energy>  (10) 
26.863510549748465

>  <rmsd>  (10) 
3.94351

>  <sdf_rank>  (10) 
0

$$$$

     RDKit          3D

 24 24  0  0  0  0  0  0  0  0999 V2000
   60.6870   21.5008   16.3486 C   0  0  2  0  0  0  0  0  0  0  0  0
   59.6031   20.4550   16.5661 C   0  0  2  0  0  0  0  0  0  0  0  0
   58.3065   20.9880   15.9508 C   0  0  1  0  0  0  0  0  0  0  0  0
   58.5191   21.2010   14.4519 C   0  0  1  0  0  0  0  0  0  0  0  0
   57.3026   21.8126   13.7521 C   0  0  0  0  0  0  0  0  0  0  0  0
   60.8504   21.7003   14.8463 C   0  0  2  0  0  0  0  0  0  0  0  0
   61.8924   22.6573   14.6122 O   0  0  0  0  0  0  0  0  0  0  0  0
   61.9465   21.1646   16.9271 O   0  0  0  0  0  0  0  0  0  0  0  0
   59.4250   20.1921   17.9429 O   0  0  0  0  0  0  0  0  0  0  0  0
   57.2196   20.1125   16.2234 O   0  0  0  0  0  0  0  0  0  0  0  0
   59.5870   22.1432   14.2840 O   0  0  0  0  0  0  0  0  0  0  0  0
   56.5725   20.7663   13.1094 O   0  0  0  0  0  0  0  0  0  0  0  0
   60.3637   22.4214   16.8566 H   0  0  0  0  0  0  0  0  0  0  0  0
   59.8939   19.5084   16.0873 H   0  0  0  0  0  0  0  0  0  0  0  0
   58.0462   21.9556   16.4047 H   0  0  0  0  0  0  0  0  0  0  0  0
   58.7229   20.2127   14.0141 H   0  0  0  0  0  0  0  0  0  0  0  0
   56.6607   22.3112   14.4932 H   0  0  0  0  0  0  0  0  0  0  0  0
   57.6303   22.5537   13.0083 H   0  0  0  0  0  0  0  0  0  0  0  0
   61.1318   20.7557   14.3578 H   0  0  0  0  0  0  0  0  0  0  0  0
   62.2444   22.9806   15.4792 H   0  0  0  0  0  0  0  0  0  0  0  0
   61.8722   21.1844   17.9141 H   0  0  0  0  0  0  0  0  0  0  0  0
   59.8936   20.8836   18.4742 H   0  0  0  0  0  0  0  0  0  0  0  0
   57.1067   20.0216   17.2027 H   0  0  0  0  0  0  0  0  0  0  0  0
   56.1636   20.1802   13.7945 H   0  0  0  0  0  0  0  0  0  0  0  0
  1  2  1  0
  1  6  1  0
  1  8  1  0
  2  3  1  0
  2  9  1  0
  3  4  1  0
  3 10  1  0
  4  5  1  0
  4 11  1  0
  5 12  1  0
  6  7  1  0
  6 11  1  0
  1 13  1  1
  2 14  1  6
  3 15  1  1
  4 16  1  6
  5 17  1  0
  5 18  1  0
  6 19  1  6
  7 20  1  0
  8 21  1  0
  9 22  1  0
 10 23  1  0
 12 24  1  0
M  END
>  <filename_input>  (11) 
7WJB_BGC_docked.sdf

>  <pdb_id>  (11) 
7WJB_BGC

>  <pose_rank>  (11) 
10

>  <num_atoms_heavy>  (11) 
12

>  <num_torsions>  (11) 
1

>  <pose>  (11) 
[60.686955914200276, 21.500824568228563, 16.348610753903337, 1.5105806112581601, 0.45485642686284566, -1.102050708320576, -15.515125766179231]

>  <energy>  (11) 
-200.44929010273438

>  <inter_energy>  (11) 
-194.426897041773

>  <intra_energy>  (11) 
0.7022699559417909

>  <rmsd>  (11) 
5.59336

>  <sdf_rank>  (11) 
0

$$$$

     RDKit          3D

 24 24  0  0  0  0  0  0  0  0999 V2000
   61.6899   20.4153   20.8729 C   0  0  2  0  0  0  0  0  0  0  0  0
   61.4453   19.9930   22.3143 C   0  0  2  0  0  0  0  0  0  0  0  0
   61.0400   18.5166   22.3084 C   0  0  1  0  0  0  0  0  0  0  0  0
   62.1836   17.6902   21.7197 C   0  0  1  0  0  0  0  0  0  0  0  0
   61.8475   16.2022   21.5921 C   0  0  0  0  0  0  0  0  0  0  0  0
   62.8177   19.5533   20.3174 C   0  0  2  0  0  0  0  0  0  0  0  0
   63.0927   19.9554   18.9687 O   0  0  0  0  0  0  0  0  0  0  0  0
   62.0194   21.7942   20.7170 O   0  0  0  0  0  0  0  0  0  0  0  0
   60.4325   20.7809   22.9057 O   0  0  0  0  0  0  0  0  0  0  0  0
   60.6785   18.0858   23.6145 O   0  0  0  0  0  0  0  0  0  0  0  0
   62.4277   18.1563   20.3858 O   0  0  0  0  0  0  0  0  0  0  0  0
   61.2459   15.7644   22.8116 O   0  0  0  0  0  0  0  0  0  0  0  0
   60.7483   20.2715   20.3227 H   0  0  0  0  0  0  0  0  0  0  0  0
   62.3602   20.1370   22.9077 H   0  0  0  0  0  0  0  0  0  0  0  0
   60.1499   18.3748   21.6779 H   0  0  0  0  0  0  0  0  0  0  0  0
   63.0427   17.8050   22.3970 H   0  0  0  0  0  0  0  0  0  0  0  0
   61.1466   16.0508   20.7579 H   0  0  0  0  0  0  0  0  0  0  0  0
   62.7636   15.6255   21.3969 H   0  0  0  0  0  0  0  0  0  0  0  0
   63.7344   19.6839   20.9113 H   0  0  0  0  0  0  0  0  0  0  0  0
   63.6516   20.7725   18.9753 H   0  0  0  0  0  0  0  0  0  0  0  0
   62.1194   22.2125   21.6087 H   0  0  0  0  0  0  0  0  0  0  0  0
   60.5044   20.7250   23.8915 H   0  0  0  0  0  0  0  0  0  0  0  0
   61.1457   18.6425   24.2867 H   0  0  0  0  0  0  0  0  0  0  0  0
   61.7512   16.1321   23.5795 H   0  0  0  0  0  0  0  0  0  0  0  0
  1  2  1  0
  1  6  1  0
  1  8  1  0
  2  3  1  0
  2  9  1  0
  3  4  1  0
  3 10  1  0
  4  5  1  0
  4 11  1  0
  5 12  1  0
  6  7  1  0
  6 11  1  0
  1 13  1  6
  2 14  1  1
  3 15  1  6
  4 16  1  1
  5 17  1  0
  5 18  1  0
  6 19  1  1
  7 20  1  0
  8 21  1  0
  9 22  1  0
 10 23  1  0
 12 24  1  0
M  END
>  <filename_input>  (12) 
7WJB_BGC_docked.sdf

>  <pdb_id>  (12) 
7WJB_BGC

>  <pose_rank>  (12) 
11

>  <num_atoms_heavy>  (12) 
12

>  <num_torsions>  (12) 
1

>  <pose>  (12) 
[61.689879368063536, 20.41533554250812, 20.872925877348084, 0.08724571510435145, 10.764109904592141, -6.795031031642418, -8.302495178253581]

>  <energy>  (12) 
-24.809997768414583

>  <inter_energy>  (12) 
-45.879510719781734

>  <intra_energy>  (12) 
23.17881165810588

>  <rmsd>  (12) 
10.3201

>  <sdf_rank>  (12) 
0

$$$$

     RDKit          3D

 24 24  0  0  0  0  0  0  0  0999 V2000
   61.5311   21.9387   14.7236 C   0  0  2  0  0  0  0  0  0  0  0  0
   61.5017   21.6301   16.2134 C   0  0  2  0  0  0  0  0  0  0  0  0
   60.0645   21.8238   16.7046 C   0  0  1  0  0  0  0  0  0  0  0  0
   59.1503   20.8494   15.9616 C   0  0  1  0  0  0  0  0  0  0  0  0
   57.6718   21.0180   16.3209 C   0  0  0  0  0  0  0  0  0  0  0  0
   60.5909   20.9633   14.0248 C   0  0  2  0  0  0  0  0  0  0  0  0
   60.6266   21.2100   12.6125 O   0  0  0  0  0  0  0  0  0  0  0  0
   62.8283   21.8576   14.1366 O   0  0  0  0  0  0  0  0  0  0  0  0
   62.3840   22.4766   16.9214 O   0  0  0  0  0  0  0  0  0  0  0  0
   59.9867   21.6686   18.1159 O   0  0  0  0  0  0  0  0  0  0  0  0
   59.2506   21.1280   14.5585 O   0  0  0  0  0  0  0  0  0  0  0  0
   57.3775   22.4138   16.3977 O   0  0  0  0  0  0  0  0  0  0  0  0
   61.2132   22.9841   14.5970 H   0  0  0  0  0  0  0  0  0  0  0  0
   61.8303   20.5950   16.3886 H   0  0  0  0  0  0  0  0  0  0  0  0
   59.7289   22.8484   16.4866 H   0  0  0  0  0  0  0  0  0  0  0  0
   59.4714   19.8346   16.2394 H   0  0  0  0  0  0  0  0  0  0  0  0
   57.0466   20.5495   15.5465 H   0  0  0  0  0  0  0  0  0  0  0  0
   57.4627   20.5362   17.2874 H   0  0  0  0  0  0  0  0  0  0  0  0
   60.9068   19.9248   14.2029 H   0  0  0  0  0  0  0  0  0  0  0  0
   60.7664   22.1765   12.4498 H   0  0  0  0  0  0  0  0  0  0  0  0
   63.5119   21.8149   14.8514 H   0  0  0  0  0  0  0  0  0  0  0  0
   62.2526   22.3505   17.8945 H   0  0  0  0  0  0  0  0  0  0  0  0
   60.3838   22.4608   18.5574 H   0  0  0  0  0  0  0  0  0  0  0  0
   57.3198   22.6871   17.3474 H   0  0  0  0  0  0  0  0  0  0  0  0
  1  2  1  0
  1  6  1  0
  1  8  1  0
  2  3  1  0
  2  9  1  0
  3  4  1  0
  3 10  1  0
  4  5  1  0
  4 11  1  0
  5 12  1  0
  6  7  1  0
  6 11  1  0
  1 13  1  1
  2 14  1  6
  3 15  1  1
  4 16  1  6
  5 17  1  0
  5 18  1  0
  6 19  1  6
  7 20  1  0
  8 21  1  0
  9 22  1  0
 10 23  1  0
 12 24  1  0
M  END
>  <filename_input>  (13) 
7WJB_BGC_docked.sdf

>  <pdb_id>  (13) 
7WJB_BGC

>  <pose_rank>  (13) 
12

>  <num_atoms_heavy>  (13) 
12

>  <num_torsions>  (13) 
1

>  <pose>  (13) 
[61.531051321167745, 21.938715921200156, 14.72362088074183, 0.15811953510831936, 0.6018875567473319, -1.5469404205826174, -6.770326314781628]

>  <energy>  (13) 
-167.59943330972519

>  <inter_energy>  (13) 
-155.69160304858988

>  <intra_energy>  (13) 
1.0619333830554645

>  <rmsd>  (13) 
6.44884

>  <sdf_rank>  (13) 
0

$$$$

     RDKit          3D

 24 24  0  0  0  0  0  0  0  0999 V2000
   60.9289   20.9353   23.3127 C   0  0  2  0  0  0  0  0  0  0  0  0
   60.9224   19.7651   24.2854 C   0  0  2  0  0  0  0  0  0  0  0  0
   62.0426   18.8062   23.8737 C   0  0  1  0  0  0  0  0  0  0  0  0
   63.3813   19.5391   23.9632 C   0  0  1  0  0  0  0  0  0  0  0  0
   64.5650   18.6904   23.4917 C   0  0  0  0  0  0  0  0  0  0  0  0
   62.2858   21.6223   23.4158 C   0  0  2  0  0  0  0  0  0  0  0  0
   62.3061   22.7521   22.5329 O   0  0  0  0  0  0  0  0  0  0  0  0
   59.8915   21.8875   23.5386 O   0  0  0  0  0  0  0  0  0  0  0  0
   59.6744   19.1028   24.2693 O   0  0  0  0  0  0  0  0  0  0  0  0
   62.0176   17.6274   24.6686 O   0  0  0  0  0  0  0  0  0  0  0  0
   63.3292   20.6691   23.0820 O   0  0  0  0  0  0  0  0  0  0  0  0
   64.3029   18.2414   22.1611 O   0  0  0  0  0  0  0  0  0  0  0  0
   60.7449   20.5293   22.3071 H   0  0  0  0  0  0  0  0  0  0  0  0
   61.0865   20.1286   25.3106 H   0  0  0  0  0  0  0  0  0  0  0  0
   61.8944   18.4815   22.8332 H   0  0  0  0  0  0  0  0  0  0  0  0
   63.5309   19.8038   25.0203 H   0  0  0  0  0  0  0  0  0  0  0  0
   65.4833   19.2959   23.5044 H   0  0  0  0  0  0  0  0  0  0  0  0
   64.6982   17.8271   24.1602 H   0  0  0  0  0  0  0  0  0  0  0  0
   62.4624   21.9805   24.4407 H   0  0  0  0  0  0  0  0  0  0  0  0
   62.3212   23.5867   23.0653 H   0  0  0  0  0  0  0  0  0  0  0  0
   59.7603   22.0079   24.5125 H   0  0  0  0  0  0  0  0  0  0  0  0
   59.3735   18.9431   25.1988 H   0  0  0  0  0  0  0  0  0  0  0  0
   62.0229   17.8755   25.6270 H   0  0  0  0  0  0  0  0  0  0  0  0
   63.8040   17.3869   22.1934 H   0  0  0  0  0  0  0  0  0  0  0  0
  1  2  1  0
  1  6  1  0
  1  8  1  0
  2  3  1  0
  2  9  1  0
  3  4  1  0
  3 10  1  0
  4  5  1  0
  4 11  1  0
  5 12  1  0
  6  7  1  0
  6 11  1  0
  1 13  1  6
  2 14  1  1
  3 15  1  6
  4 16  1  1
  5 17  1  0
  5 18  1  0
  6 19  1  1
  7 20  1  0
  8 21  1  0
  9 22  1  0
 10 23  1  0
 12 24  1  0
M  END
>  <filename_input>  (14) 
7WJB_BGC_docked.sdf

>  <pdb_id>  (14) 
7WJB_BGC

>  <pose_rank>  (14) 
13

>  <num_atoms_heavy>  (14) 
12

>  <num_torsions>  (14) 
1

>  <pose>  (14) 
[60.92893080826116, 20.935299348217264, 23.312686373559888, -6.293647065362367, 5.717073577424913, -15.599907660541001, -0.2422398096352282]

>  <energy>  (14) 
-53.5620080663592

>  <inter_energy>  (14) 
-46.40610600195512

>  <intra_energy>  (14) 
0.0

>  <rmsd>  (14) 
12.0464

>  <sdf_rank>  (14) 
0

$$$$

     RDKit          3D

 24 24  0  0  0  0  0  0  0  0999 V2000
   60.5786   22.5030   13.9547 C   0  0  2  0  0  0  0  0  0  0  0  0
   61.0729   22.6735   15.3838 C   0  0  2  0  0  0  0  0  0  0  0  0
   60.7452   21.3892   16.1501 C   0  0  1  0  0  0  0  0  0  0  0  0
   61.4754   20.2184   15.4919 C   0  0  1  0  0  0  0  0  0  0  0  0
   61.1493   18.8677   16.1345 C   0  0  0  0  0  0  0  0  0  0  0  0
   61.3119   21.3142   13.3444 C   0  0  2  0  0  0  0  0  0  0  0  0
   60.8895   21.1527   11.9835 O   0  0  0  0  0  0  0  0  0  0  0  0
   60.7634   23.6535   13.1323 O   0  0  0  0  0  0  0  0  0  0  0  0
   60.4591   23.7869   16.0003 O   0  0  0  0  0  0  0  0  0  0  0  0
   61.0718   21.5244   17.5275 O   0  0  0  0  0  0  0  0  0  0  0  0
   61.0320   20.1264   14.1314 O   0  0  0  0  0  0  0  0  0  0  0  0
   59.8802   18.4264   15.6491 O   0  0  0  0  0  0  0  0  0  0  0  0
   59.4914   22.3417   13.9987 H   0  0  0  0  0  0  0  0  0  0  0  0
   62.1578   22.8552   15.3862 H   0  0  0  0  0  0  0  0  0  0  0  0
   59.6639   21.1920   16.1060 H   0  0  0  0  0  0  0  0  0  0  0  0
   62.5528   20.4130   15.5982 H   0  0  0  0  0  0  0  0  0  0  0  0
   61.9239   18.1337   15.8673 H   0  0  0  0  0  0  0  0  0  0  0  0
   61.1180   18.9702   17.2292 H   0  0  0  0  0  0  0  0  0  0  0  0
   62.3988   21.4833   13.3517 H   0  0  0  0  0  0  0  0  0  0  0  0
   59.9649   20.7993   11.9647 H   0  0  0  0  0  0  0  0  0  0  0  0
   60.8916   24.4511   13.7046 H   0  0  0  0  0  0  0  0  0  0  0  0
   60.5123   23.6902   16.9841 H   0  0  0  0  0  0  0  0  0  0  0  0
   60.3122   21.2101   18.0791 H   0  0  0  0  0  0  0  0  0  0  0  0
   59.2876   18.2203   16.4149 H   0  0  0  0  0  0  0  0  0  0  0  0
  1  2  1  0
  1  6  1  0
  1  8  1  0
  2  3  1  0
  2  9  1  0
  3  4  1  0
  3 10  1  0
  4  5  1  0
  4 11  1  0
  5 12  1  0
  6  7  1  0
  6 11  1  0
  1 13  1  1
  2 14  1  6
  3 15  1  1
  4 16  1  6
  5 17  1  0
  5 18  1  0
  6 19  1  6
  7 20  1  0
  8 21  1  0
  9 22  1  0
 10 23  1  0
 12 24  1  0
M  END
>  <filename_input>  (15) 
7WJB_BGC_docked.sdf

>  <pdb_id>  (15) 
7WJB_BGC

>  <pose_rank>  (15) 
14

>  <num_atoms_heavy>  (15) 
12

>  <num_torsions>  (15) 
1

>  <pose>  (15) 
[60.57856754569253, 22.503011913101783, 13.954697086253315, 2.9909256165115568, -4.404432573609459, 1.4019356604550186, -6.119099084056934]

>  <energy>  (15) 
-204.01893817471702

>  <inter_energy>  (15) 
-175.57928330471327

>  <intra_energy>  (15) 
0.0

>  <rmsd>  (15) 
6.49469

>  <sdf_rank>  (15) 
0

$$$$

     RDKit          3D

 24 24  0  0  0  0  0  0  0  0999 V2000
   46.5340   24.3973    7.5773 C   0  0  2  0  0  0  0  0  0  0  0  0
   47.4502   24.9557    6.4983 C   0  0  2  0  0  0  0  0  0  0  0  0
   47.1175   26.4397    6.3220 C   0  0  1  0  0  0  0  0  0  0  0  0
   47.3776   27.1670    7.6413 C   0  0  1  0  0  0  0  0  0  0  0  0
   46.9969   28.6491    7.5971 C   0  0  0  0  0  0  0  0  0  0  0  0
   46.8074   25.1635    8.8664 C   0  0  2  0  0  0  0  0  0  0  0  0
   45.9803   24.6324    9.9105 O   0  0  0  0  0  0  0  0  0  0  0  0
   46.6903   22.9987    7.8090 O   0  0  0  0  0  0  0  0  0  0  0  0
   47.2755   24.2622    5.2798 O   0  0  0  0  0  0  0  0  0  0  0  0
   47.8547   26.9989    5.2422 O   0  0  0  0  0  0  0  0  0  0  0  0
   46.5445   26.5746    8.6470 O   0  0  0  0  0  0  0  0  0  0  0  0
   46.7261   29.0903    8.9286 O   0  0  0  0  0  0  0  0  0  0  0  0
   45.4983   24.5262    7.2298 H   0  0  0  0  0  0  0  0  0  0  0  0
   48.5014   24.8315    6.7976 H   0  0  0  0  0  0  0  0  0  0  0  0
   46.0544   26.5575    6.0652 H   0  0  0  0  0  0  0  0  0  0  0  0
   48.4548   27.0814    7.8467 H   0  0  0  0  0  0  0  0  0  0  0  0
   47.8284   29.2328    7.1753 H   0  0  0  0  0  0  0  0  0  0  0  0
   46.1068   28.7897    6.9664 H   0  0  0  0  0  0  0  0  0  0  0  0
   47.8595   25.0526    9.1679 H   0  0  0  0  0  0  0  0  0  0  0  0
   46.3618   24.8774   10.7906 H   0  0  0  0  0  0  0  0  0  0  0  0
   46.7097   22.8258    8.7835 H   0  0  0  0  0  0  0  0  0  0  0  0
   47.0381   23.3196    5.4676 H   0  0  0  0  0  0  0  0  0  0  0  0
   48.5905   27.5570    5.5990 H   0  0  0  0  0  0  0  0  0  0  0  0
   47.1187   28.4508    9.5744 H   0  0  0  0  0  0  0  0  0  0  0  0
  1  2  1  0
  1  6  1  0
  1  8  1  0
  2  3  1  0
  2  9  1  0
  3  4  1  0
  3 10  1  0
  4  5  1  0
  4 11  1  0
  5 12  1  0
  6  7  1  0
  6 11  1  0
  1 13  1  6
  2 14  1  1
  3 15  1  6
  4 16  1  1
  5 17  1  0
  5 18  1  0
  6 19  1  1
  7 20  1  0
  8 21  1  0
  9 22  1  0
 10 23  1  0
 12 24  1  0
M  END
>  <filename_input>  (16) 
7WJB_BGC_docked.sdf

>  <pdb_id>  (16) 
7WJB_BGC

>  <pose_rank>  (16) 
15

>  <num_atoms_heavy>  (16) 
12

>  <num_torsions>  (16) 
1

>  <pose>  (16) 
[46.53395578087643, 24.39727472405652, 7.577317585917747, -2.6961922903210724, -0.11782160065448827, -1.4844710028467514, 1.5018653067586238]

>  <energy>  (16) 
-148.46688318889707

>  <inter_energy>  (16) 
-125.66381563551903

>  <intra_energy>  (16) 
0.0

>  <rmsd>  (16) 
12.2842

>  <sdf_rank>  (16) 
0

$$$$

     RDKit          3D

 24 24  0  0  0  0  0  0  0  0999 V2000
   46.5180   28.4033    7.4394 C   0  0  2  0  0  0  0  0  0  0  0  0
   45.7924   28.1530    8.7533 C   0  0  2  0  0  0  0  0  0  0  0  0
   45.5036   26.6527    8.8515 C   0  0  1  0  0  0  0  0  0  0  0  0
   46.8288   25.8905    8.8452 C   0  0  1  0  0  0  0  0  0  0  0  0
   46.6492   24.3703    8.8572 C   0  0  0  0  0  0  0  0  0  0  0  0
   47.8187   27.6088    7.4641 C   0  0  2  0  0  0  0  0  0  0  0  0
   48.5402   27.8550    6.2495 O   0  0  0  0  0  0  0  0  0  0  0  0
   46.8008   29.7772    7.1816 O   0  0  0  0  0  0  0  0  0  0  0  0
   44.5900   28.8925    8.8143 O   0  0  0  0  0  0  0  0  0  0  0  0
   44.7188   26.3625   10.0013 O   0  0  0  0  0  0  0  0  0  0  0  0
   47.5126   26.1982    7.6229 O   0  0  0  0  0  0  0  0  0  0  0  0
   47.3485   23.8196    7.7398 O   0  0  0  0  0  0  0  0  0  0  0  0
   45.8502   28.0806    6.6270 H   0  0  0  0  0  0  0  0  0  0  0  0
   46.4197   28.4786    9.5962 H   0  0  0  0  0  0  0  0  0  0  0  0
   44.9125   26.3271    7.9828 H   0  0  0  0  0  0  0  0  0  0  0  0
   47.3756   26.1922    9.7507 H   0  0  0  0  0  0  0  0  0  0  0  0
   47.0579   23.9562    9.7908 H   0  0  0  0  0  0  0  0  0  0  0  0
   45.5805   24.1177    8.7932 H   0  0  0  0  0  0  0  0  0  0  0  0
   48.4483   27.9213    8.3102 H   0  0  0  0  0  0  0  0  0  0  0  0
   49.4544   28.1669    6.4661 H   0  0  0  0  0  0  0  0  0  0  0  0
   46.9002   30.2603    8.0400 H   0  0  0  0  0  0  0  0  0  0  0  0
   44.3435   29.0442    9.7610 H   0  0  0  0  0  0  0  0  0  0  0  0
   45.2445   26.5569   10.8173 H   0  0  0  0  0  0  0  0  0  0  0  0
   48.0836   23.2407    8.0633 H   0  0  0  0  0  0  0  0  0  0  0  0
  1  2  1  0
  1  6  1  0
  1  8  1  0
  2  3  1  0
  2  9  1  0
  3  4  1  0
  3 10  1  0
  4  5  1  0
  4 11  1  0
  5 12  1  0
  6  7  1  0
  6 11  1  0
  1 13  1  6
  2 14  1  1
  3 15  1  6
  4 16  1  1
  5 17  1  0
  5 18  1  0
  6 19  1  1
  7 20  1  0
  8 21  1  0
  9 22  1  0
 10 23  1  0
 12 24  1  0
M  END
>  <filename_input>  (17) 
7WJB_BGC_docked.sdf

>  <pdb_id>  (17) 
7WJB_BGC

>  <pose_rank>  (17) 
16

>  <num_atoms_heavy>  (17) 
12

>  <num_torsions>  (17) 
1

>  <pose>  (17) 
[46.51802282571395, 28.403289591819323, 7.439352421324858, 3.116744803306476, 5.134226593871669, 0.17724775381237567, 0.9601127760845438]

>  <energy>  (17) 
-134.9311033076198

>  <inter_energy>  (17) 
-84.97398584691547

>  <intra_energy>  (17) 
0.0

>  <rmsd>  (17) 
11.8479

>  <sdf_rank>  (17) 
0

$$$$

     RDKit          3D

 24 24  0  0  0  0  0  0  0  0999 V2000
   60.4249   13.2015   13.8915 C   0  0  2  0  0  0  0  0  0  0  0  0
   59.3087   12.4044   14.5507 C   0  0  2  0  0  0  0  0  0  0  0  0
   59.7867   11.9929   15.9458 C   0  0  1  0  0  0  0  0  0  0  0  0
   60.0695   13.2522   16.7652 C   0  0  1  0  0  0  0  0  0  0  0  0
   60.6339   12.9514   18.1561 C   0  0  0  0  0  0  0  0  0  0  0  0
   60.6913   14.4324   14.7503 C   0  0  2  0  0  0  0  0  0  0  0  0
   61.7170   15.2210   14.1318 O   0  0  0  0  0  0  0  0  0  0  0  0
   60.1423   13.6035   12.5526 O   0  0  0  0  0  0  0  0  0  0  0  0
   58.9829   11.2634   13.7837 O   0  0  0  0  0  0  0  0  0  0  0  0
   58.8381   11.1405   16.5749 O   0  0  0  0  0  0  0  0  0  0  0  0
   61.0794   14.0083   16.0837 O   0  0  0  0  0  0  0  0  0  0  0  0
   60.2522   14.0060   19.0410 O   0  0  0  0  0  0  0  0  0  0  0  0
   61.3044   12.5442   13.8244 H   0  0  0  0  0  0  0  0  0  0  0  0
   58.4002   13.0203   14.6230 H   0  0  0  0  0  0  0  0  0  0  0  0
   60.7189   11.4143   15.8670 H   0  0  0  0  0  0  0  0  0  0  0  0
   59.1126   13.7833   16.8759 H   0  0  0  0  0  0  0  0  0  0  0  0
   60.2290   11.9962   18.5217 H   0  0  0  0  0  0  0  0  0  0  0  0
   61.7305   12.8789   18.1090 H   0  0  0  0  0  0  0  0  0  0  0  0
   59.7847   15.0494   14.8360 H   0  0  0  0  0  0  0  0  0  0  0  0
   62.2722   15.6478   14.8316 H   0  0  0  0  0  0  0  0  0  0  0  0
   59.5731   14.4134   12.5644 H   0  0  0  0  0  0  0  0  0  0  0  0
   58.7677   10.5097   14.3884 H   0  0  0  0  0  0  0  0  0  0  0  0
   58.9251   11.2186   17.5579 H   0  0  0  0  0  0  0  0  0  0  0  0
   60.3608   13.7060   19.9781 H   0  0  0  0  0  0  0  0  0  0  0  0
  1  2  1  0
  1  6  1  0
  1  8  1  0
  2  3  1  0
  2  9  1  0
  3  4  1  0
  3 10  1  0
  4  5  1  0
  4 11  1  0
  5 12  1  0
  6  7  1  0
  6 11  1  0
  1 13  1  6
  2 14  1  1
  3 15  1  6
  4 16  1  1
  5 17  1  0
  5 18  1  0
  6 19  1  1
  7 20  1  0
  8 21  1  0
  9 22  1  0
 10 23  1  0
 12 24  1  0
M  END
>  <filename_input>  (18) 
7WJB_BGC_docked.sdf

>  <pdb_id>  (18) 
7WJB_BGC

>  <pose_rank>  (18) 
17

>  <num_atoms_heavy>  (18) 
12

>  <num_torsions>  (18) 
1

>  <pose>  (18) 
[60.42486133836729, 13.201491044765028, 13.891546408356758, 1.6771326366857287, 2.639271713880279, -2.866199485853639, 2.426686677278331]

>  <energy>  (18) 
-130.40827650243102

>  <inter_energy>  (18) 
-107.8247710057457

>  <intra_energy>  (18) 
0.0

>  <rmsd>  (18) 
10.1602

>  <sdf_rank>  (18) 
0

$$$$

     RDKit          3D

 24 24  0  0  0  0  0  0  0  0999 V2000
   49.0662   27.4122    8.3878 C   0  0  2  0  0  0  0  0  0  0  0  0
   47.9688   26.4072    8.0695 C   0  0  2  0  0  0  0  0  0  0  0  0
   46.6304   27.1502    8.0942 C   0  0  1  0  0  0  0  0  0  0  0  0
   46.6495   28.2431    7.0254 C   0  0  1  0  0  0  0  0  0  0  0  0
   45.3831   29.1032    7.0210 C   0  0  0  0  0  0  0  0  0  0  0  0
   49.0355   28.4945    7.3148 C   0  0  2  0  0  0  0  0  0  0  0  0
   50.0846   29.4377    7.5718 O   0  0  0  0  0  0  0  0  0  0  0  0
   50.3731   26.8457    8.4595 O   0  0  0  0  0  0  0  0  0  0  0  0
   47.9647   25.3508    9.0078 O   0  0  0  0  0  0  0  0  0  0  0  0
   45.5463   26.2460    7.9232 O   0  0  0  0  0  0  0  0  0  0  0  0
   47.7324   29.1353    7.3214 O   0  0  0  0  0  0  0  0  0  0  0  0
   45.7230   30.4129    6.5627 O   0  0  0  0  0  0  0  0  0  0  0  0
   48.8628   27.8162    9.3905 H   0  0  0  0  0  0  0  0  0  0  0  0
   48.1427   25.9634    7.0782 H   0  0  0  0  0  0  0  0  0  0  0  0
   46.4845   27.6270    9.0747 H   0  0  0  0  0  0  0  0  0  0  0  0
   46.7407   27.7376    6.0527 H   0  0  0  0  0  0  0  0  0  0  0  0
   44.6351   28.6579    6.3486 H   0  0  0  0  0  0  0  0  0  0  0  0
   44.9625   29.1577    8.0359 H   0  0  0  0  0  0  0  0  0  0  0  0
   49.1989   28.0578    6.3185 H   0  0  0  0  0  0  0  0  0  0  0  0
   50.2017   29.5429    8.5492 H   0  0  0  0  0  0  0  0  0  0  0  0
   50.6324   26.7333    9.4083 H   0  0  0  0  0  0  0  0  0  0  0  0
   47.9662   25.7240    9.9248 H   0  0  0  0  0  0  0  0  0  0  0  0
   45.2085   25.9643    8.8101 H   0  0  0  0  0  0  0  0  0  0  0  0
   45.8768   31.0053    7.3409 H   0  0  0  0  0  0  0  0  0  0  0  0
  1  2  1  0
  1  6  1  0
  1  8  1  0
  2  3  1  0
  2  9  1  0
  3  4  1  0
  3 10  1  0
  4  5  1  0
  4 11  1  0
  5 12  1  0
  6  7  1  0
  6 11  1  0
  1 13  1  1
  2 14  1  6
  3 15  1  1
  4 16  1  6
  5 17  1  0
  5 18  1  0
  6 19  1  6
  7 20  1  0
  8 21  1  0
  9 22  1  0
 10 23  1  0
 12 24  1  0
M  END
>  <filename_input>  (19) 
7WJB_BGC_docked.sdf

>  <pdb_id>  (19) 
7WJB_BGC

>  <pose_rank>  (19) 
18

>  <num_atoms_heavy>  (19) 
12

>  <num_torsions>  (19) 
1

>  <pose>  (19) 
[49.06621227582872, 27.41220473290512, 8.387800797252961, 1.9992353520162698, 0.9868619698835831, -1.1292344697502372, 1.4100059814466082]

>  <energy>  (19) 
-100.72253764888279

>  <inter_energy>  (19) 
-81.73014428847229

>  <intra_energy>  (19) 
0.0

>  <rmsd>  (19) 
12.2973

>  <sdf_rank>  (19) 
0

$$$$

     RDKit          3D

 24 24  0  0  0  0  0  0  0  0999 V2000
   61.3953   11.9918   13.2646 C   0  0  2  0  0  0  0  0  0  0  0  0
   60.4070   12.6091   14.2433 C   0  0  2  0  0  0  0  0  0  0  0  0
   60.8464   12.2253   15.6588 C   0  0  1  0  0  0  0  0  0  0  0  0
   62.2431   12.7915   15.9158 C   0  0  1  0  0  0  0  0  0  0  0  0
   62.8125   12.3935   17.2800 C   0  0  0  0  0  0  0  0  0  0  0  0
   62.7752   12.5631   13.5697 C   0  0  2  0  0  0  0  0  0  0  0  0
   63.7214   12.0233   12.6371 O   0  0  0  0  0  0  0  0  0  0  0  0
   61.0760   12.2172   11.8930 O   0  0  0  0  0  0  0  0  0  0  0  0
   59.0947   12.1500   13.9919 O   0  0  0  0  0  0  0  0  0  0  0  0
   59.8980   12.6689   16.6210 O   0  0  0  0  0  0  0  0  0  0  0  0
   63.1340   12.2372   14.9385 O   0  0  0  0  0  0  0  0  0  0  0  0
   62.7040   13.5112   18.1630 O   0  0  0  0  0  0  0  0  0  0  0  0
   61.3582   10.9011   13.4023 H   0  0  0  0  0  0  0  0  0  0  0  0
   60.3985   13.7030   14.1280 H   0  0  0  0  0  0  0  0  0  0  0  0
   60.8939   11.1303   15.7525 H   0  0  0  0  0  0  0  0  0  0  0  0
   62.1571   13.8872   15.8711 H   0  0  0  0  0  0  0  0  0  0  0  0
   62.2432   11.5442   17.6856 H   0  0  0  0  0  0  0  0  0  0  0  0
   63.8670   12.0984   17.1753 H   0  0  0  0  0  0  0  0  0  0  0  0
   62.7733   13.6582   13.4662 H   0  0  0  0  0  0  0  0  0  0  0  0
   64.4664   11.5983   13.1316 H   0  0  0  0  0  0  0  0  0  0  0  0
   60.2688   12.7870   11.8314 H   0  0  0  0  0  0  0  0  0  0  0  0
   58.6314   11.9879   14.8517 H   0  0  0  0  0  0  0  0  0  0  0  0
   60.2499   12.5043   17.5316 H   0  0  0  0  0  0  0  0  0  0  0  0
   62.7347   13.1952   19.1007 H   0  0  0  0  0  0  0  0  0  0  0  0
  1  2  1  0
  1  6  1  0
  1  8  1  0
  2  3  1  0
  2  9  1  0
  3  4  1  0
  3 10  1  0
  4  5  1  0
  4 11  1  0
  5 12  1  0
  6  7  1  0
  6 11  1  0
  1 13  1  6
  2 14  1  1
  3 15  1  6
  4 16  1  1
  5 17  1  0
  5 18  1  0
  6 19  1  1
  7 20  1  0
  8 21  1  0
  9 22  1  0
 10 23  1  0
 12 24  1  0
M  END
>  <filename_input>  (20) 
7WJB_BGC_docked.sdf

>  <pdb_id>  (20) 
7WJB_BGC

>  <pose_rank>  (20) 
19

>  <num_atoms_heavy>  (20) 
12

>  <num_torsions>  (20) 
1

>  <pose>  (20) 
[61.39530807472195, 11.991790976533713, 13.264634549621489, 3.817299322422049, 1.053581804749978, -2.6553642417891585, -3.0147301893711402]

>  <energy>  (20) 
-128.34252900497106

>  <inter_energy>  (20) 
-109.61639467165716

>  <intra_energy>  (20) 
0.23883010119064663

>  <rmsd>  (20) 
11.4805

>  <sdf_rank>  (20) 
0

$$$$

     RDKit          3D

 24 24  0  0  0  0  0  0  0  0999 V2000
   46.7911   13.7358   19.8738 C   0  0  2  0  0  0  0  0  0  0  0  0
   47.8015   12.9489   19.0518 C   0  0  2  0  0  0  0  0  0  0  0  0
   47.0293   12.1504   17.9982 C   0  0  1  0  0  0  0  0  0  0  0  0
   46.2774   13.1237   17.0902 C   0  0  1  0  0  0  0  0  0  0  0  0
   45.4036   12.4217   16.0474 C   0  0  0  0  0  0  0  0  0  0  0  0
   46.0486   14.6742   18.9295 C   0  0  2  0  0  0  0  0  0  0  0  0
   45.1127   15.4543   19.6859 O   0  0  0  0  0  0  0  0  0  0  0  0
   47.3659   14.4866   20.9414 O   0  0  0  0  0  0  0  0  0  0  0  0
   48.5551   12.0819   19.8744 O   0  0  0  0  0  0  0  0  0  0  0  0
   47.9026   11.2966   17.2697 O   0  0  0  0  0  0  0  0  0  0  0  0
   45.3809   13.8901   17.9058 O   0  0  0  0  0  0  0  0  0  0  0  0
   44.6731   11.3775   16.6931 O   0  0  0  0  0  0  0  0  0  0  0  0
   46.1172   13.0093   20.3514 H   0  0  0  0  0  0  0  0  0  0  0  0
   48.5093   13.6380   18.5678 H   0  0  0  0  0  0  0  0  0  0  0  0
   46.2939   11.4957   18.4887 H   0  0  0  0  0  0  0  0  0  0  0  0
   47.0360   13.7280   16.5712 H   0  0  0  0  0  0  0  0  0  0  0  0
   44.7030   13.1444   15.6038 H   0  0  0  0  0  0  0  0  0  0  0  0
   46.0344   12.0014   15.2503 H   0  0  0  0  0  0  0  0  0  0  0  0
   46.7505   15.3608   18.4335 H   0  0  0  0  0  0  0  0  0  0  0  0
   45.2755   15.3186   20.6529 H   0  0  0  0  0  0  0  0  0  0  0  0
   47.0742   14.1055   21.8073 H   0  0  0  0  0  0  0  0  0  0  0  0
   48.3747   12.2895   20.8254 H   0  0  0  0  0  0  0  0  0  0  0  0
   48.4471   10.7642   17.9023 H   0  0  0  0  0  0  0  0  0  0  0  0
   44.7462   11.4820   17.6749 H   0  0  0  0  0  0  0  0  0  0  0  0
  1  2  1  0
  1  6  1  0
  1  8  1  0
  2  3  1  0
  2  9  1  0
  3  4  1  0
  3 10  1  0
  4  5  1  0
  4 11  1  0
  5 12  1  0
  6  7  1  0
  6 11  1  0
  1 13  1  1
  2 14  1  6
  3 15  1  1
  4 16  1  6
  5 17  1  0
  5 18  1  0
  6 19  1  6
  7 20  1  0
  8 21  1  0
  9 22  1  0
 10 23  1  0
 12 24  1  0
M  END
>  <filename_input>  (21) 
7WJB_BGC_docked.sdf

>  <pdb_id>  (21) 
7WJB_BGC

>  <pose_rank>  (21) 
20

>  <num_atoms_heavy>  (21) 
12

>  <num_torsions>  (21) 
1

>  <pose>  (21) 
[46.79112959943822, 13.735760821324103, 19.873753777403174, 1.2572355691424335, 1.666098561521343, 0.5471370778046603, -0.4149860358524448]

>  <energy>  (21) 
-128.13724780414825

>  <inter_energy>  (21) 
-93.77339286862309

>  <intra_energy>  (21) 
0.42084670544203445

>  <rmsd>  (21) 
12.3034

>  <sdf_rank>  (21) 
0

$$$$

     RDKit          3D

 24 24  0  0  0  0  0  0  0  0999 V2000
   47.9507   26.7145    7.1869 C   0  0  2  0  0  0  0  0  0  0  0  0
   47.1726   25.7174    8.0331 C   0  0  2  0  0  0  0  0  0  0  0  0
   46.2818   24.8995    7.0942 C   0  0  1  0  0  0  0  0  0  0  0  0
   47.1669   24.1470    6.1004 C   0  0  1  0  0  0  0  0  0  0  0  0
   46.3679   23.3588    5.0593 C   0  0  0  0  0  0  0  0  0  0  0  0
   48.7995   25.9260    6.1963 C   0  0  2  0  0  0  0  0  0  0  0  0
   49.5710   26.8427    5.4082 O   0  0  0  0  0  0  0  0  0  0  0  0
   48.7848   27.5928    7.9398 O   0  0  0  0  0  0  0  0  0  0  0  0
   46.3891   26.3821    9.0029 O   0  0  0  0  0  0  0  0  0  0  0  0
   45.4351   24.0272    7.8320 O   0  0  0  0  0  0  0  0  0  0  0  0
   47.9299   25.1130    5.3649 O   0  0  0  0  0  0  0  0  0  0  0  0
   45.3694   24.2172    4.5052 O   0  0  0  0  0  0  0  0  0  0  0  0
   47.2180   27.3615    6.6824 H   0  0  0  0  0  0  0  0  0  0  0  0
   47.8694   25.0581    8.5714 H   0  0  0  0  0  0  0  0  0  0  0  0
   45.6183   25.5701    6.5284 H   0  0  0  0  0  0  0  0  0  0  0  0
   47.7798   23.4456    6.6855 H   0  0  0  0  0  0  0  0  0  0  0  0
   47.0407   23.0101    4.2621 H   0  0  0  0  0  0  0  0  0  0  0  0
   45.8930   22.4863    5.5319 H   0  0  0  0  0  0  0  0  0  0  0  0
   49.4929   25.2565    6.7263 H   0  0  0  0  0  0  0  0  0  0  0  0
   50.0789   27.4460    6.0067 H   0  0  0  0  0  0  0  0  0  0  0  0
   48.6385   27.4388    8.9067 H   0  0  0  0  0  0  0  0  0  0  0  0
   46.6946   26.1229    9.9082 H   0  0  0  0  0  0  0  0  0  0  0  0
   45.5760   24.1723    8.8011 H   0  0  0  0  0  0  0  0  0  0  0  0
   44.8643   24.6516    5.2374 H   0  0  0  0  0  0  0  0  0  0  0  0
  1  2  1  0
  1  6  1  0
  1  8  1  0
  2  3  1  0
  2  9  1  0
  3  4  1  0
  3 10  1  0
  4  5  1  0
  4 11  1  0
  5 12  1  0
  6  7  1  0
  6 11  1  0
  1 13  1  6
  2 14  1  1
  3 15  1  6
  4 16  1  1
  5 17  1  0
  5 18  1  0
  6 19  1  1
  7 20  1  0
  8 21  1  0
  9 22  1  0
 10 23  1  0
 12 24  1  0
M  END
>  <filename_input>  (22) 
7WJB_BGC_docked.sdf

>  <pdb_id>  (22) 
7WJB_BGC

>  <pose_rank>  (22) 
21

>  <num_atoms_heavy>  (22) 
12

>  <num_torsions>  (22) 
1

>  <pose>  (22) 
[47.95066325231357, 26.714532907453606, 7.186886131492859, -4.451643267197402, -0.04313285062364372, 3.074049225013647, -0.36185404826782064]

>  <energy>  (22) 
-84.2755703714817

>  <inter_energy>  (22) 
-92.1650965290499

>  <intra_energy>  (22) 
0.1350532959036897

>  <rmsd>  (22) 
11.6743

>  <sdf_rank>  (22) 
0

$$$$

     RDKit          3D

 24 24  0  0  0  0  0  0  0  0999 V2000
   59.7810   30.0818    7.5925 C   0  0  2  0  0  0  0  0  0  0  0  0
   60.9884   29.1918    7.8488 C   0  0  2  0  0  0  0  0  0  0  0  0
   61.6390   29.6488    9.1572 C   0  0  1  0  0  0  0  0  0  0  0  0
   60.6319   29.4860   10.2958 C   0  0  1  0  0  0  0  0  0  0  0  0
   61.1569   29.9938   11.6412 C   0  0  0  0  0  0  0  0  0  0  0  0
   58.8153   29.9083    8.7591 C   0  0  2  0  0  0  0  0  0  0  0  0
   57.6503   30.7111    8.5253 O   0  0  0  0  0  0  0  0  0  0  0  0
   59.1051   29.8093    6.3665 O   0  0  0  0  0  0  0  0  0  0  0  0
   61.9117   29.2751    6.7825 O   0  0  0  0  0  0  0  0  0  0  0  0
   62.8464   28.9372    9.3976 O   0  0  0  0  0  0  0  0  0  0  0  0
   59.4832   30.2884    9.9912 O   0  0  0  0  0  0  0  0  0  0  0  0
   61.7181   28.8921   12.3569 O   0  0  0  0  0  0  0  0  0  0  0  0
   60.1458   31.1160    7.5063 H   0  0  0  0  0  0  0  0  0  0  0  0
   60.6707   28.1415    7.9251 H   0  0  0  0  0  0  0  0  0  0  0  0
   61.9144   30.7115    9.0876 H   0  0  0  0  0  0  0  0  0  0  0  0
   60.4158   28.4107   10.3802 H   0  0  0  0  0  0  0  0  0  0  0  0
   61.9296   30.7584   11.4727 H   0  0  0  0  0  0  0  0  0  0  0  0
   60.3352   30.4392   12.2212 H   0  0  0  0  0  0  0  0  0  0  0  0
   58.4999   28.8583    8.8488 H   0  0  0  0  0  0  0  0  0  0  0  0
   57.2569   30.9822    9.3923 H   0  0  0  0  0  0  0  0  0  0  0  0
   58.2046   29.4461    6.5598 H   0  0  0  0  0  0  0  0  0  0  0  0
   62.8289   29.3578    7.1459 H   0  0  0  0  0  0  0  0  0  0  0  0
   62.9906   28.8521   10.3734 H   0  0  0  0  0  0  0  0  0  0  0  0
   61.6355   29.0543   13.3300 H   0  0  0  0  0  0  0  0  0  0  0  0
  1  2  1  0
  1  6  1  0
  1  8  1  0
  2  3  1  0
  2  9  1  0
  3  4  1  0
  3 10  1  0
  4  5  1  0
  4 11  1  0
  5 12  1  0
  6  7  1  0
  6 11  1  0
  1 13  1  6
  2 14  1  1
  3 15  1  6
  4 16  1  1
  5 17  1  0
  5 18  1  0
  6 19  1  1
  7 20  1  0
  8 21  1  0
  9 22  1  0
 10 23  1  0
 12 24  1  0
M  END
>  <filename_input>  (23) 
7WJB_BGC_docked.sdf

>  <pdb_id>  (23) 
7WJB_BGC

>  <pose_rank>  (23) 
22

>  <num_atoms_heavy>  (23) 
12

>  <num_torsions>  (23) 
1

>  <pose>  (23) 
[59.78097056931743, 30.081832389621784, 7.592499279816365, 1.0574200927222825, -2.0896742605272935, 2.300620522558015, -2.8661635689229157]

>  <energy>  (23) 
-112.18360385045004

>  <inter_energy>  (23) 
-86.67749489293263

>  <intra_energy>  (23) 
1.622936685010315

>  <rmsd>  (23) 
12.3833

>  <sdf_rank>  (23) 
0

$$$$

     RDKit          3D

 24 24  0  0  0  0  0  0  0  0999 V2000
   49.2824   28.8172    5.8908 C   0  0  2  0  0  0  0  0  0  0  0  0
   48.5588   29.4908    7.0476 C   0  0  2  0  0  0  0  0  0  0  0  0
   47.6998   28.4320    7.7443 C   0  0  1  0  0  0  0  0  0  0  0  0
   48.6113   27.3292    8.2830 C   0  0  1  0  0  0  0  0  0  0  0  0
   47.8418   26.1744    8.9295 C   0  0  0  0  0  0  0  0  0  0  0  0
   50.1594   27.7116    6.4673 C   0  0  2  0  0  0  0  0  0  0  0  0
   50.8807   27.0823    5.3995 O   0  0  0  0  0  0  0  0  0  0  0  0
   50.0804   29.7022    5.1073 O   0  0  0  0  0  0  0  0  0  0  0  0
   47.7527   30.5558    6.5867 O   0  0  0  0  0  0  0  0  0  0  0  0
   46.9009   29.0190    8.7637 O   0  0  0  0  0  0  0  0  0  0  0  0
   49.3222   26.7597    7.1756 O   0  0  0  0  0  0  0  0  0  0  0  0
   48.7795   25.1871    9.3618 O   0  0  0  0  0  0  0  0  0  0  0  0
   48.5161   28.4244    5.2063 H   0  0  0  0  0  0  0  0  0  0  0  0
   49.2900   29.9150    7.7515 H   0  0  0  0  0  0  0  0  0  0  0  0
   47.0011   27.9826    7.0233 H   0  0  0  0  0  0  0  0  0  0  0  0
   49.2611   27.7927    9.0399 H   0  0  0  0  0  0  0  0  0  0  0  0
   47.2712   26.5468    9.7930 H   0  0  0  0  0  0  0  0  0  0  0  0
   47.1424   25.7355    8.2026 H   0  0  0  0  0  0  0  0  0  0  0  0
   50.8876   28.1259    7.1800 H   0  0  0  0  0  0  0  0  0  0  0  0
   51.5704   26.4806    5.7769 H   0  0  0  0  0  0  0  0  0  0  0  0
   50.6085   30.2878    5.7059 H   0  0  0  0  0  0  0  0  0  0  0  0
   47.3807   31.0473    7.3614 H   0  0  0  0  0  0  0  0  0  0  0  0
   47.2548   28.7590    9.6510 H   0  0  0  0  0  0  0  0  0  0  0  0
   48.8015   25.1639   10.3513 H   0  0  0  0  0  0  0  0  0  0  0  0
  1  2  1  0
  1  6  1  0
  1  8  1  0
  2  3  1  0
  2  9  1  0
  3  4  1  0
  3 10  1  0
  4  5  1  0
  4 11  1  0
  5 12  1  0
  6  7  1  0
  6 11  1  0
  1 13  1  6
  2 14  1  1
  3 15  1  6
  4 16  1  1
  5 17  1  0
  5 18  1  0
  6 19  1  1
  7 20  1  0
  8 21  1  0
  9 22  1  0
 10 23  1  0
 12 24  1  0
M  END
>  <filename_input>  (24) 
7WJB_BGC_docked.sdf

>  <pdb_id>  (24) 
7WJB_BGC

>  <pose_rank>  (24) 
23

>  <num_atoms_heavy>  (24) 
12

>  <num_torsions>  (24) 
1

>  <pose>  (24) 
[49.28239279346805, 28.817154760731935, 5.890832393733188, 4.5310272046316316, 1.8230378561364855, 2.472620352423349, 1.898970897489296]

>  <energy>  (24) 
-98.40488753056034

>  <inter_energy>  (24) 
-86.15965753613594

>  <intra_energy>  (24) 
0.0

>  <rmsd>  (24) 
11.7552

>  <sdf_rank>  (24) 
0

$$$$

     RDKit          3D

 24 24  0  0  0  0  0  0  0  0999 V2000
   52.4743   27.9843   24.0389 C   0  0  2  0  0  0  0  0  0  0  0  0
   51.9540   29.4084   24.1692 C   0  0  2  0  0  0  0  0  0  0  0  0
   50.5960   29.4781   23.4656 C   0  0  1  0  0  0  0  0  0  0  0  0
   49.6296   28.5148   24.1551 C   0  0  1  0  0  0  0  0  0  0  0  0
   48.2599   28.4465   23.4748 C   0  0  0  0  0  0  0  0  0  0  0  0
   51.4727   27.0561   24.7163 C   0  0  2  0  0  0  0  0  0  0  0  0
   51.9572   25.7087   24.6385 O   0  0  0  0  0  0  0  0  0  0  0  0
   53.7698   27.7829   24.6004 O   0  0  0  0  0  0  0  0  0  0  0  0
   52.8568   30.3299   23.5929 O   0  0  0  0  0  0  0  0  0  0  0  0
   50.1052   30.8126   23.4438 O   0  0  0  0  0  0  0  0  0  0  0  0
   50.1809   27.1940   24.0676 O   0  0  0  0  0  0  0  0  0  0  0  0
   47.6104   27.2396   23.8778 O   0  0  0  0  0  0  0  0  0  0  0  0
   52.5796   27.7685   22.9655 H   0  0  0  0  0  0  0  0  0  0  0  0
   51.8494   29.6738   25.2316 H   0  0  0  0  0  0  0  0  0  0  0  0
   50.7019   29.1697   22.4151 H   0  0  0  0  0  0  0  0  0  0  0  0
   49.4984   28.8765   25.1856 H   0  0  0  0  0  0  0  0  0  0  0  0
   47.6527   29.3126   23.7766 H   0  0  0  0  0  0  0  0  0  0  0  0
   48.3822   28.4604   22.3817 H   0  0  0  0  0  0  0  0  0  0  0  0
   51.3546   27.3208   25.7775 H   0  0  0  0  0  0  0  0  0  0  0  0
   52.0858   25.3509   25.5526 H   0  0  0  0  0  0  0  0  0  0  0  0
   53.7064   27.7928   25.5883 H   0  0  0  0  0  0  0  0  0  0  0  0
   53.3341   30.8171   24.3105 H   0  0  0  0  0  0  0  0  0  0  0  0
   49.9863   31.1357   24.3720 H   0  0  0  0  0  0  0  0  0  0  0  0
   47.5851   27.1926   24.8664 H   0  0  0  0  0  0  0  0  0  0  0  0
  1  2  1  0
  1  6  1  0
  1  8  1  0
  2  3  1  0
  2  9  1  0
  3  4  1  0
  3 10  1  0
  4  5  1  0
  4 11  1  0
  5 12  1  0
  6  7  1  0
  6 11  1  0
  1 13  1  6
  2 14  1  1
  3 15  1  6
  4 16  1  1
  5 17  1  0
  5 18  1  0
  6 19  1  1
  7 20  1  0
  8 21  1  0
  9 22  1  0
 10 23  1  0
 12 24  1  0
M  END
>  <filename_input>  (25) 
7WJB_BGC_docked.sdf

>  <pdb_id>  (25) 
7WJB_BGC

>  <pose_rank>  (25) 
24

>  <num_atoms_heavy>  (25) 
12

>  <num_torsions>  (25) 
1

>  <pose>  (25) 
[52.47428084315993, 27.984344797737865, 24.038931411080977, -0.6456211116207073, -1.0851483362197794, -1.5447982351753442, 1.5876663694486988]

>  <energy>  (25) 
-90.82535769569827

>  <inter_energy>  (25) 
-81.92767909666446

>  <intra_energy>  (25) 
0.0

>  <rmsd>  (25) 
13.0046

>  <sdf_rank>  (25) 
0

$$$$

     RDKit          3D

 24 24  0  0  0  0  0  0  0  0999 V2000
   54.4450   22.4680   14.0050 C   0  0  2  0  0  0  0  0  0  0  0  0
   54.0420   22.0190   15.4020 C   0  0  2  0  0  0  0  0  0  0  0  0
   53.7710   20.5130   15.3510 C   0  0  1  0  0  0  0  0  0  0  0  0
   55.0520   19.7920   14.9310 C   0  0  1  0  0  0  0  0  0  0  0  0
   54.8670   18.2810   14.7690 C   0  0  0  0  0  0  0  0  0  0  0  0
   55.7090   21.7100   13.6160 C   0  0  2  0  0  0  0  0  0  0  0  0
   56.1310   22.1410   12.3150 O   0  0  0  0  0  0  0  0  0  0  0  0
   54.6720   23.8710   13.8860 O   0  0  0  0  0  0  0  0  0  0  0  0
   52.8930   22.7130   15.8430 O   0  0  0  0  0  0  0  0  0  0  0  0
   53.2720   20.0460   16.5980 O   0  0  0  0  0  0  0  0  0  0  0  0
   55.4360   20.2840   13.6400 O   0  0  0  0  0  0  0  0  0  0  0  0
   54.0510   18.0420   13.6210 O   0  0  0  0  0  0  0  0  0  0  0  0
   53.6041   22.2456   13.3316 H   0  0  0  0  0  0  0  0  0  0  0  0
   54.8506   22.2390   16.1146 H   0  0  0  0  0  0  0  0  0  0  0  0
   52.9917   20.2975   14.6052 H   0  0  0  0  0  0  0  0  0  0  0  0
   55.7966   19.9777   15.7191 H   0  0  0  0  0  0  0  0  0  0  0  0
   55.8470   17.8001   14.6336 H   0  0  0  0  0  0  0  0  0  0  0  0
   54.3858   17.8632   15.6656 H   0  0  0  0  0  0  0  0  0  0  0  0
   56.5204   21.9168   14.3293 H   0  0  0  0  0  0  0  0  0  0  0  0
   56.8205   22.8452   12.4082 H   0  0  0  0  0  0  0  0  0  0  0  0
   54.7370   24.2725   14.7886 H   0  0  0  0  0  0  0  0  0  0  0  0
   52.8740   22.7245   16.8328 H   0  0  0  0  0  0  0  0  0  0  0  0
   53.7538   20.4969   17.3360 H   0  0  0  0  0  0  0  0  0  0  0  0
   53.1427   17.7760   13.9114 H   0  0  0  0  0  0  0  0  0  0  0  0
  1  2  1  0
  1  6  1  0
  1  8  1  0
  2  3  1  0
  2  9  1  0
  3  4  1  0
  3 10  1  0
  4  5  1  0
  4 11  1  0
  5 12  1  0
  6  7  1  0
  6 11  1  0
  1 13  1  6
  2 14  1  1
  3 15  1  6
  4 16  1  1
  5 17  1  0
  5 18  1  0
  6 19  1  1
  7 20  1  0
  8 21  1  0
  9 22  1  0
 10 23  1  0
 12 24  1  0
M  END
>  <filename_input>  (26) 
7WJB_BGC_docked.sdf

>  <pdb_id>  (26) 
7WJB_BGC

>  <pose_rank>  (26) 
25

>  <num_atoms_heavy>  (26) 
12

>  <num_torsions>  (26) 
1

>  <pose>  (26) 
[54.445, 22.468, 14.005, 1e-06, 1e-06, 1e-06, 0.0]

>  <energy>  (26) 
-668.8858639853094

>  <inter_energy>  (26) 
-680.8218022205513

>  <intra_energy>  (26) 
0.0

>  <rmsd>  (26) 
0.0

>  <sdf_rank>  (26) 
0

$$$$
