
     RDKit          3D

 14 14  0  0  0  0  0  0  0  0999 V2000
   14.4924   31.4150   74.7946 C   0  0  0  0  0  0  0  0  0  0  0  0
   14.8960   32.7374   74.7705 C   0  0  0  0  0  0  0  0  0  0  0  0
   16.2324   33.0540   74.9737 C   0  0  0  0  0  0  0  0  0  0  0  0
   16.6557   34.3779   74.9647 O   0  0  0  0  0  0  0  0  0  0  0  0
   17.1685   32.0691   75.2036 C   0  0  0  0  0  0  0  0  0  0  0  0
   18.5049   32.4357   75.4130 O   0  0  0  0  0  0  0  0  0  0  0  0
   16.7693   30.7383   75.2340 C   0  0  0  0  0  0  0  0  0  0  0  0
   15.4335   30.4166   75.0296 C   0  0  0  0  0  0  0  0  0  0  0  0
   13.4366   31.1542   74.6296 H   0  0  0  0  0  0  0  0  0  0  0  0
   14.1608   33.5356   74.5909 H   0  0  0  0  0  0  0  0  0  0  0  0
   17.6109   34.5931   75.1106 H   0  0  0  0  0  0  0  0  0  0  0  0
   19.1889   31.7395   75.5794 H   0  0  0  0  0  0  0  0  0  0  0  0
   17.5072   29.9438   75.4191 H   0  0  0  0  0  0  0  0  0  0  0  0
   15.1166   29.3635   75.0535 H   0  0  0  0  0  0  0  0  0  0  0  0
  1  2  2  0
  1  8  1  0
  2  3  1  0
  3  4  1  0
  3  5  2  0
  5  6  1  0
  5  7  1  0
  7  8  2  0
  1  9  1  0
  2 10  1  0
  4 11  1  0
  6 12  1  0
  7 13  1  0
  8 14  1  0
M  END
>  <filename_input>  (1) 
7WKL_CAQ_docked.sdf

>  <pdb_id>  (1) 
7WKL_CAQ

>  <pose_rank>  (1) 
0

>  <num_atoms_heavy>  (1) 
8

>  <num_torsions>  (1) 
0

>  <pose>  (1) 
[14.492441988738161, 31.414996793607273, 74.79463971619045, -2.0532301624916776, -5.25182801289325, 2.4914776133546073]

>  <energy>  (1) 
-503.63919987588685

>  <inter_energy>  (1) 
-491.93130760653685

>  <intra_energy>  (1) 
0.0

>  <rmsd>  (1) 
0.411945

>  <sdf_rank>  (1) 
0

$$$$

     RDKit          3D

 14 14  0  0  0  0  0  0  0  0999 V2000
   15.4128   30.4477   75.2276 C   0  0  0  0  0  0  0  0  0  0  0  0
   16.7472   30.7633   75.4063 C   0  0  0  0  0  0  0  0  0  0  0  0
   17.1685   32.0792   75.2697 C   0  0  0  0  0  0  0  0  0  0  0  0
   18.5073   32.4146   75.4339 O   0  0  0  0  0  0  0  0  0  0  0  0
   16.2766   33.0813   74.9543 C   0  0  0  0  0  0  0  0  0  0  0  0
   16.7481   34.3939   74.8171 O   0  0  0  0  0  0  0  0  0  0  0  0
   14.9348   32.7706   74.7686 C   0  0  0  0  0  0  0  0  0  0  0  0
   14.5084   31.4557   74.9059 C   0  0  0  0  0  0  0  0  0  0  0  0
   15.0689   29.4088   75.3388 H   0  0  0  0  0  0  0  0  0  0  0  0
   17.4723   29.9747   75.6558 H   0  0  0  0  0  0  0  0  0  0  0  0
   18.7975   33.3559   75.3344 H   0  0  0  0  0  0  0  0  0  0  0  0
   16.1196   35.1245   74.5908 H   0  0  0  0  0  0  0  0  0  0  0  0
   14.2142   33.5618   74.5142 H   0  0  0  0  0  0  0  0  0  0  0  0
   13.4466   31.2088   74.7591 H   0  0  0  0  0  0  0  0  0  0  0  0
  1  2  2  0
  1  8  1  0
  2  3  1  0
  3  4  1  0
  3  5  2  0
  5  6  1  0
  5  7  1  0
  7  8  2  0
  1  9  1  0
  2 10  1  0
  4 11  1  0
  6 12  1  0
  7 13  1  0
  8 14  1  0
M  END
>  <filename_input>  (2) 
7WKL_CAQ_docked.sdf

>  <pdb_id>  (2) 
7WKL_CAQ

>  <pose_rank>  (2) 
1

>  <num_atoms_heavy>  (2) 
8

>  <num_torsions>  (2) 
0

>  <pose>  (2) 
[15.412808411625461, 30.447694065770463, 75.22763635333831, -2.206402114804185, -2.1826842969085916, -0.21285847498862345]

>  <energy>  (2) 
-503.19023502450574

>  <inter_energy>  (2) 
-487.0899140154647

>  <intra_energy>  (2) 
0.0

>  <rmsd>  (2) 
0.383464

>  <sdf_rank>  (2) 
0

$$$$

     RDKit          3D

 14 14  0  0  0  0  0  0  0  0999 V2000
   14.6284   33.1881   74.6555 C   0  0  0  0  0  0  0  0  0  0  0  0
   14.9326   31.8713   74.9480 C   0  0  0  0  0  0  0  0  0  0  0  0
   16.2388   31.5183   75.2592 C   0  0  0  0  0  0  0  0  0  0  0  0
   16.5666   30.1981   75.5447 O   0  0  0  0  0  0  0  0  0  0  0  0
   17.2437   32.4611   75.2787 C   0  0  0  0  0  0  0  0  0  0  0  0
   18.5495   32.0579   75.5890 O   0  0  0  0  0  0  0  0  0  0  0  0
   16.9462   33.7856   74.9811 C   0  0  0  0  0  0  0  0  0  0  0  0
   15.6404   34.1437   74.6708 C   0  0  0  0  0  0  0  0  0  0  0  0
   13.5955   33.4780   74.4128 H   0  0  0  0  0  0  0  0  0  0  0  0
   14.1424   31.1061   74.9342 H   0  0  0  0  0  0  0  0  0  0  0  0
   17.5010   29.9567   75.7654 H   0  0  0  0  0  0  0  0  0  0  0  0
   19.2821   32.7236   75.6070 H   0  0  0  0  0  0  0  0  0  0  0  0
   17.7406   34.5465   74.9911 H   0  0  0  0  0  0  0  0  0  0  0  0
   15.4040   35.1918   74.4350 H   0  0  0  0  0  0  0  0  0  0  0  0
  1  2  2  0
  1  8  1  0
  2  3  1  0
  3  4  1  0
  3  5  2  0
  5  6  1  0
  5  7  1  0
  7  8  2  0
  1  9  1  0
  2 10  1  0
  4 11  1  0
  6 12  1  0
  7 13  1  0
  8 14  1  0
M  END
>  <filename_input>  (3) 
7WKL_CAQ_docked.sdf

>  <pdb_id>  (3) 
7WKL_CAQ

>  <pose_rank>  (3) 
2

>  <num_atoms_heavy>  (3) 
8

>  <num_torsions>  (3) 
0

>  <pose>  (3) 
[14.628449147492542, 33.1881171278317, 74.65550923278592, 2.9861039556501465, 0.04298131585137559, 0.694362608138949]

>  <energy>  (3) 
-470.3845941872907

>  <inter_energy>  (3) 
-452.9932375956925

>  <intra_energy>  (3) 
0.0

>  <rmsd>  (3) 
2.45581

>  <sdf_rank>  (3) 
0

$$$$

     RDKit          3D

 14 14  0  0  0  0  0  0  0  0999 V2000
   17.2811   33.8426   74.8308 C   0  0  0  0  0  0  0  0  0  0  0  0
   17.7758   32.5875   75.1343 C   0  0  0  0  0  0  0  0  0  0  0  0
   16.8992   31.5256   75.3122 C   0  0  0  0  0  0  0  0  0  0  0  0
   17.3763   30.2591   75.6291 O   0  0  0  0  0  0  0  0  0  0  0  0
   15.5375   31.7015   75.1945 C   0  0  0  0  0  0  0  0  0  0  0  0
   14.6897   30.6032   75.3918 O   0  0  0  0  0  0  0  0  0  0  0  0
   15.0329   32.9612   74.8944 C   0  0  0  0  0  0  0  0  0  0  0  0
   15.9062   34.0262   74.7139 C   0  0  0  0  0  0  0  0  0  0  0  0
   17.9682   34.6887   74.6830 H   0  0  0  0  0  0  0  0  0  0  0  0
   18.8600   32.4309   75.2343 H   0  0  0  0  0  0  0  0  0  0  0  0
   16.7429   29.5086   75.7539 H   0  0  0  0  0  0  0  0  0  0  0  0
   13.7092   30.7138   75.3106 H   0  0  0  0  0  0  0  0  0  0  0  0
   13.9477   33.1140   74.8004 H   0  0  0  0  0  0  0  0  0  0  0  0
   15.5078   35.0236   74.4764 H   0  0  0  0  0  0  0  0  0  0  0  0
  1  2  2  0
  1  8  1  0
  2  3  1  0
  3  4  1  0
  3  5  2  0
  5  6  1  0
  5  7  1  0
  7  8  2  0
  1  9  1  0
  2 10  1  0
  4 11  1  0
  6 12  1  0
  7 13  1  0
  8 14  1  0
M  END
>  <filename_input>  (4) 
7WKL_CAQ_docked.sdf

>  <pdb_id>  (4) 
7WKL_CAQ

>  <pose_rank>  (4) 
3

>  <num_atoms_heavy>  (4) 
8

>  <num_torsions>  (4) 
0

>  <pose>  (4) 
[17.281050458052942, 33.842558885019066, 74.8307952795757, -0.5530846070067563, 0.4579305042891545, 3.7138598056078838]

>  <energy>  (4) 
-451.8494732627978

>  <inter_energy>  (4) 
-432.8671958515158

>  <intra_energy>  (4) 
0.0

>  <rmsd>  (4) 
2.65953

>  <sdf_rank>  (4) 
0

$$$$

     RDKit          3D

 14 14  0  0  0  0  0  0  0  0999 V2000
   16.6562   33.8502   75.1633 C   0  0  0  0  0  0  0  0  0  0  0  0
   15.5010   33.1038   75.0207 C   0  0  0  0  0  0  0  0  0  0  0  0
   15.5658   31.7177   75.0666 C   0  0  0  0  0  0  0  0  0  0  0  0
   14.4175   30.9497   74.9137 O   0  0  0  0  0  0  0  0  0  0  0  0
   16.7678   31.0687   75.2493 C   0  0  0  0  0  0  0  0  0  0  0  0
   16.7872   29.6677   75.2796 O   0  0  0  0  0  0  0  0  0  0  0  0
   17.9335   31.8124   75.3885 C   0  0  0  0  0  0  0  0  0  0  0  0
   17.8732   33.1995   75.3450 C   0  0  0  0  0  0  0  0  0  0  0  0
   16.6139   34.9490   75.1334 H   0  0  0  0  0  0  0  0  0  0  0  0
   14.5340   33.6064   74.8715 H   0  0  0  0  0  0  0  0  0  0  0  0
   14.4745   29.9619   74.9480 H   0  0  0  0  0  0  0  0  0  0  0  0
   17.6429   29.1872   75.4100 H   0  0  0  0  0  0  0  0  0  0  0  0
   18.8990   31.3052   75.5324 H   0  0  0  0  0  0  0  0  0  0  0  0
   18.7954   33.7889   75.4550 H   0  0  0  0  0  0  0  0  0  0  0  0
  1  2  2  0
  1  8  1  0
  2  3  1  0
  3  4  1  0
  3  5  2  0
  5  6  1  0
  5  7  1  0
  7  8  2  0
  1  9  1  0
  2 10  1  0
  4 11  1  0
  6 12  1  0
  7 13  1  0
  8 14  1  0
M  END
>  <filename_input>  (5) 
7WKL_CAQ_docked.sdf

>  <pdb_id>  (5) 
7WKL_CAQ

>  <pose_rank>  (5) 
4

>  <num_atoms_heavy>  (5) 
8

>  <num_torsions>  (5) 
0

>  <pose>  (5) 
[16.65623802598562, 33.85018918902365, 75.16331777103355, -2.499301154621095, 1.8272763844190416, -0.6371285060009986]

>  <energy>  (5) 
-445.975774671423

>  <inter_energy>  (5) 
-423.7233943172842

>  <intra_energy>  (5) 
0.0

>  <rmsd>  (5) 
2.74528

>  <sdf_rank>  (5) 
0

$$$$

     RDKit          3D

 14 14  0  0  0  0  0  0  0  0999 V2000
   18.1010   31.1929   74.9715 C   0  0  0  0  0  0  0  0  0  0  0  0
   17.7676   32.5323   75.0550 C   0  0  0  0  0  0  0  0  0  0  0  0
   16.4318   32.9100   75.0779 C   0  0  0  0  0  0  0  0  0  0  0  0
   16.0764   34.2517   75.1498 O   0  0  0  0  0  0  0  0  0  0  0  0
   15.4267   31.9692   75.0152 C   0  0  0  0  0  0  0  0  0  0  0  0
   14.0922   32.3967   75.0317 O   0  0  0  0  0  0  0  0  0  0  0  0
   15.7545   30.6215   74.9263 C   0  0  0  0  0  0  0  0  0  0  0  0
   17.0897   30.2389   74.9048 C   0  0  0  0  0  0  0  0  0  0  0  0
   19.1567   30.8840   74.9579 H   0  0  0  0  0  0  0  0  0  0  0  0
   18.5580   33.2959   75.1031 H   0  0  0  0  0  0  0  0  0  0  0  0
   15.1210   34.5106   75.1656 H   0  0  0  0  0  0  0  0  0  0  0  0
   13.3591   31.7327   74.9873 H   0  0  0  0  0  0  0  0  0  0  0  0
   14.9607   29.8618   74.8732 H   0  0  0  0  0  0  0  0  0  0  0  0
   17.3500   29.1725   74.8344 H   0  0  0  0  0  0  0  0  0  0  0  0
  1  2  2  0
  1  8  1  0
  2  3  1  0
  3  4  1  0
  3  5  2  0
  5  6  1  0
  5  7  1  0
  7  8  2  0
  1  9  1  0
  2 10  1  0
  4 11  1  0
  6 12  1  0
  7 13  1  0
  8 14  1  0
M  END
>  <filename_input>  (6) 
7WKL_CAQ_docked.sdf

>  <pdb_id>  (6) 
7WKL_CAQ

>  <pose_rank>  (6) 
5

>  <num_atoms_heavy>  (6) 
8

>  <num_torsions>  (6) 
0

>  <pose>  (6) 
[18.101048281566364, 31.19292265756963, 74.97150872331268, -0.009088090977855429, 3.412132949771604, -0.0608339533367211]

>  <energy>  (6) 
-442.1407165106596

>  <inter_energy>  (6) 
-417.85550924560846

>  <intra_energy>  (6) 
0.0

>  <rmsd>  (6) 
2.43751

>  <sdf_rank>  (6) 
0

$$$$

     RDKit          3D

 14 14  0  0  0  0  0  0  0  0999 V2000
   18.4764   34.4879   76.0316 C   0  0  0  0  0  0  0  0  0  0  0  0
   17.2964   34.6890   75.3392 C   0  0  0  0  0  0  0  0  0  0  0  0
   16.6276   33.6047   74.7874 C   0  0  0  0  0  0  0  0  0  0  0  0
   15.4465   33.7876   74.0780 O   0  0  0  0  0  0  0  0  0  0  0  0
   17.1230   32.3250   74.9150 C   0  0  0  0  0  0  0  0  0  0  0  0
   16.4194   31.2616   74.3336 O   0  0  0  0  0  0  0  0  0  0  0  0
   18.3108   32.1160   75.6055 C   0  0  0  0  0  0  0  0  0  0  0  0
   18.9825   33.1977   76.1608 C   0  0  0  0  0  0  0  0  0  0  0  0
   19.0105   35.3404   76.4766 H   0  0  0  0  0  0  0  0  0  0  0  0
   16.8891   35.7046   75.2261 H   0  0  0  0  0  0  0  0  0  0  0  0
   14.9772   33.0078   73.6884 H   0  0  0  0  0  0  0  0  0  0  0  0
   16.7626   30.3367   74.4167 H   0  0  0  0  0  0  0  0  0  0  0  0
   18.7170   31.0993   75.7117 H   0  0  0  0  0  0  0  0  0  0  0  0
   19.9228   33.0333   76.7074 H   0  0  0  0  0  0  0  0  0  0  0  0
  1  2  2  0
  1  8  1  0
  2  3  1  0
  3  4  1  0
  3  5  2  0
  5  6  1  0
  5  7  1  0
  7  8  2  0
  1  9  1  0
  2 10  1  0
  4 11  1  0
  6 12  1  0
  7 13  1  0
  8 14  1  0
M  END
>  <filename_input>  (7) 
7WKL_CAQ_docked.sdf

>  <pdb_id>  (7) 
7WKL_CAQ

>  <pose_rank>  (7) 
6

>  <num_atoms_heavy>  (7) 
8

>  <num_torsions>  (7) 
0

>  <pose>  (7) 
[18.476353003174523, 34.48792173653525, 76.0316230263894, 1.8195241407002232, -2.874146646756447, 0.7643783277584949]

>  <energy>  (7) 
-406.41212454307686

>  <inter_energy>  (7) 
-379.5358970552243

>  <intra_energy>  (7) 
0.0

>  <rmsd>  (7) 
2.90922

>  <sdf_rank>  (7) 
0

$$$$

     RDKit          3D

 14 14  0  0  0  0  0  0  0  0999 V2000
   18.0500   32.7614   74.7753 C   0  0  0  0  0  0  0  0  0  0  0  0
   17.8466   31.4116   74.5543 C   0  0  0  0  0  0  0  0  0  0  0  0
   16.6168   30.8416   74.8546 C   0  0  0  0  0  0  0  0  0  0  0  0
   16.3966   29.4846   74.6505 O   0  0  0  0  0  0  0  0  0  0  0  0
   15.5906   31.6002   75.3750 C   0  0  0  0  0  0  0  0  0  0  0  0
   14.3691   30.9808   75.6720 O   0  0  0  0  0  0  0  0  0  0  0  0
   15.7895   32.9565   75.6042 C   0  0  0  0  0  0  0  0  0  0  0  0
   17.0178   33.5314   75.3037 C   0  0  0  0  0  0  0  0  0  0  0  0
   19.0194   33.2228   74.5357 H   0  0  0  0  0  0  0  0  0  0  0  0
   18.6564   30.7917   74.1420 H   0  0  0  0  0  0  0  0  0  0  0  0
   15.5160   29.0878   74.8679 H   0  0  0  0  0  0  0  0  0  0  0  0
   13.6226   31.5125   76.0463 H   0  0  0  0  0  0  0  0  0  0  0  0
   14.9785   33.5714   76.0215 H   0  0  0  0  0  0  0  0  0  0  0  0
   17.1762   34.6048   75.4848 H   0  0  0  0  0  0  0  0  0  0  0  0
  1  2  2  0
  1  8  1  0
  2  3  1  0
  3  4  1  0
  3  5  2  0
  5  6  1  0
  5  7  1  0
  7  8  2  0
  1  9  1  0
  2 10  1  0
  4 11  1  0
  6 12  1  0
  7 13  1  0
  8 14  1  0
M  END
>  <filename_input>  (8) 
7WKL_CAQ_docked.sdf

>  <pdb_id>  (8) 
7WKL_CAQ

>  <pose_rank>  (8) 
7

>  <num_atoms_heavy>  (8) 
8

>  <num_torsions>  (8) 
0

>  <pose>  (8) 
[18.050037178483937, 32.76140933937193, 74.77534739834663, 0.060288497053946774, -0.23159724781427513, 3.239805562015274]

>  <energy>  (8) 
-340.8237936420974

>  <inter_energy>  (8) 
-339.22461801663127

>  <intra_energy>  (8) 
0.0

>  <rmsd>  (8) 
2.88498

>  <sdf_rank>  (8) 
0

$$$$

     RDKit          3D

 14 14  0  0  0  0  0  0  0  0999 V2000
   15.0175   31.2222   75.3125 C   0  0  0  0  0  0  0  0  0  0  0  0
   15.6103   30.0865   74.7920 C   0  0  0  0  0  0  0  0  0  0  0  0
   16.9250   30.1368   74.3486 C   0  0  0  0  0  0  0  0  0  0  0  0
   17.5348   29.0091   73.8116 O   0  0  0  0  0  0  0  0  0  0  0  0
   17.6527   31.3052   74.4152 C   0  0  0  0  0  0  0  0  0  0  0  0
   18.9737   31.3121   73.9472 O   0  0  0  0  0  0  0  0  0  0  0  0
   17.0617   32.4517   74.9327 C   0  0  0  0  0  0  0  0  0  0  0  0
   15.7471   32.4057   75.3791 C   0  0  0  0  0  0  0  0  0  0  0  0
   13.9780   31.1905   75.6710 H   0  0  0  0  0  0  0  0  0  0  0  0
   15.0423   29.1466   74.7295 H   0  0  0  0  0  0  0  0  0  0  0  0
   18.4727   29.0554   73.4982 H   0  0  0  0  0  0  0  0  0  0  0  0
   19.5091   32.1438   73.9884 H   0  0  0  0  0  0  0  0  0  0  0  0
   17.6320   33.3906   74.9885 H   0  0  0  0  0  0  0  0  0  0  0  0
   15.2785   33.3126   75.7889 H   0  0  0  0  0  0  0  0  0  0  0  0
  1  2  2  0
  1  8  1  0
  2  3  1  0
  3  4  1  0
  3  5  2  0
  5  6  1  0
  5  7  1  0
  7  8  2  0
  1  9  1  0
  2 10  1  0
  4 11  1  0
  6 12  1  0
  7 13  1  0
  8 14  1  0
M  END
>  <filename_input>  (9) 
7WKL_CAQ_docked.sdf

>  <pdb_id>  (9) 
7WKL_CAQ

>  <pose_rank>  (9) 
8

>  <num_atoms_heavy>  (9) 
8

>  <num_torsions>  (9) 
0

>  <pose>  (9) 
[15.017489074954963, 31.222155216990192, 75.31254292906432, 3.551131958784069, 0.37094813900246754, -0.06387521305063885]

>  <energy>  (9) 
-346.4007773700263

>  <inter_energy>  (9) 
-325.85918942100363

>  <intra_energy>  (9) 
0.0

>  <rmsd>  (9) 
2.77549

>  <sdf_rank>  (9) 
0

$$$$

     RDKit          3D

 14 14  0  0  0  0  0  0  0  0999 V2000
   18.0145   31.0181   74.0680 C   0  0  0  0  0  0  0  0  0  0  0  0
   18.2135   32.1498   73.2987 C   0  0  0  0  0  0  0  0  0  0  0  0
   17.6848   33.3655   73.7113 C   0  0  0  0  0  0  0  0  0  0  0  0
   17.8641   34.5118   72.9461 O   0  0  0  0  0  0  0  0  0  0  0  0
   16.9585   33.4645   74.8783 C   0  0  0  0  0  0  0  0  0  0  0  0
   16.4355   34.7102   75.2509 O   0  0  0  0  0  0  0  0  0  0  0  0
   16.7504   32.3303   75.6540 C   0  0  0  0  0  0  0  0  0  0  0  0
   17.2789   31.1122   75.2460 C   0  0  0  0  0  0  0  0  0  0  0  0
   18.4339   30.0517   73.7517 H   0  0  0  0  0  0  0  0  0  0  0  0
   18.7887   32.0871   72.3632 H   0  0  0  0  0  0  0  0  0  0  0  0
   17.4830   35.3738   73.2491 H   0  0  0  0  0  0  0  0  0  0  0  0
   15.9116   34.7972   76.0864 H   0  0  0  0  0  0  0  0  0  0  0  0
   16.1702   32.3968   76.5861 H   0  0  0  0  0  0  0  0  0  0  0  0
   17.1147   30.2139   75.8593 H   0  0  0  0  0  0  0  0  0  0  0  0
  1  2  2  0
  1  8  1  0
  2  3  1  0
  3  4  1  0
  3  5  2  0
  5  6  1  0
  5  7  1  0
  7  8  2  0
  1  9  1  0
  2 10  1  0
  4 11  1  0
  6 12  1  0
  7 13  1  0
  8 14  1  0
M  END
>  <filename_input>  (10) 
7WKL_CAQ_docked.sdf

>  <pdb_id>  (10) 
7WKL_CAQ

>  <pose_rank>  (10) 
9

>  <num_atoms_heavy>  (10) 
8

>  <num_torsions>  (10) 
0

>  <pose>  (10) 
[18.014488363631493, 31.01811156869415, 74.06800370297272, 1.6129131867053592, 3.7089394708842263, -1.3709200230919842]

>  <energy>  (10) 
-320.9617967937862

>  <inter_energy>  (10) 
-318.7830885528387

>  <intra_energy>  (10) 
0.0

>  <rmsd>  (10) 
2.32482

>  <sdf_rank>  (10) 
0

$$$$

     RDKit          3D

 14 14  0  0  0  0  0  0  0  0999 V2000
   18.4631   32.0078   73.5658 C   0  0  0  0  0  0  0  0  0  0  0  0
   17.6318   33.0771   73.8442 C   0  0  0  0  0  0  0  0  0  0  0  0
   16.5381   32.9003   74.6810 C   0  0  0  0  0  0  0  0  0  0  0  0
   15.6842   33.9599   74.9636 O   0  0  0  0  0  0  0  0  0  0  0  0
   16.2626   31.6709   75.2395 C   0  0  0  0  0  0  0  0  0  0  0  0
   15.1424   31.5364   76.0708 O   0  0  0  0  0  0  0  0  0  0  0  0
   17.0911   30.5906   74.9602 C   0  0  0  0  0  0  0  0  0  0  0  0
   18.1875   30.7632   74.1249 C   0  0  0  0  0  0  0  0  0  0  0  0
   19.3348   32.1395   72.9080 H   0  0  0  0  0  0  0  0  0  0  0  0
   17.8363   34.0643   73.4043 H   0  0  0  0  0  0  0  0  0  0  0  0
   14.9071   33.8235   75.5616 H   0  0  0  0  0  0  0  0  0  0  0  0
   14.9315   30.6596   76.4793 H   0  0  0  0  0  0  0  0  0  0  0  0
   16.8797   29.6040   75.3983 H   0  0  0  0  0  0  0  0  0  0  0  0
   18.8438   29.9087   73.9032 H   0  0  0  0  0  0  0  0  0  0  0  0
  1  2  2  0
  1  8  1  0
  2  3  1  0
  3  4  1  0
  3  5  2  0
  5  6  1  0
  5  7  1  0
  7  8  2  0
  1  9  1  0
  2 10  1  0
  4 11  1  0
  6 12  1  0
  7 13  1  0
  8 14  1  0
M  END
>  <filename_input>  (11) 
7WKL_CAQ_docked.sdf

>  <pdb_id>  (11) 
7WKL_CAQ

>  <pose_rank>  (11) 
10

>  <num_atoms_heavy>  (11) 
8

>  <num_torsions>  (11) 
0

>  <pose>  (11) 
[18.46307552116543, 32.007756696110945, 73.56579962071707, -1.0352729835553687, 3.856594088991422, -0.5537342394575646]

>  <energy>  (11) 
-360.56459304984907

>  <inter_energy>  (11) 
-342.76229014750476

>  <intra_energy>  (11) 
0.0

>  <rmsd>  (11) 
2.49016

>  <sdf_rank>  (11) 
0

$$$$

     RDKit          3D

 14 14  0  0  0  0  0  0  0  0999 V2000
   15.3867   41.8403   81.3536 C   0  0  0  0  0  0  0  0  0  0  0  0
   14.8738   42.3807   80.1887 C   0  0  0  0  0  0  0  0  0  0  0  0
   13.8341   41.7380   79.5302 C   0  0  0  0  0  0  0  0  0  0  0  0
   13.3129   42.2591   78.3518 O   0  0  0  0  0  0  0  0  0  0  0  0
   13.3034   40.5632   80.0174 C   0  0  0  0  0  0  0  0  0  0  0  0
   12.2609   39.9441   79.3145 O   0  0  0  0  0  0  0  0  0  0  0  0
   13.8172   40.0118   81.1851 C   0  0  0  0  0  0  0  0  0  0  0  0
   14.8563   40.6522   81.8482 C   0  0  0  0  0  0  0  0  0  0  0  0
   16.2070   42.3451   81.8850 H   0  0  0  0  0  0  0  0  0  0  0  0
   15.2881   43.3164   79.7852 H   0  0  0  0  0  0  0  0  0  0  0  0
   12.5715   41.7932   77.8899 H   0  0  0  0  0  0  0  0  0  0  0  0
   11.8694   39.0998   79.6520 H   0  0  0  0  0  0  0  0  0  0  0  0
   13.4032   39.0732   81.5821 H   0  0  0  0  0  0  0  0  0  0  0  0
   15.2636   40.2166   82.7725 H   0  0  0  0  0  0  0  0  0  0  0  0
  1  2  2  0
  1  8  1  0
  2  3  1  0
  3  4  1  0
  3  5  2  0
  5  6  1  0
  5  7  1  0
  7  8  2  0
  1  9  1  0
  2 10  1  0
  4 11  1  0
  6 12  1  0
  7 13  1  0
  8 14  1  0
M  END
>  <filename_input>  (12) 
7WKL_CAQ_docked.sdf

>  <pdb_id>  (12) 
7WKL_CAQ

>  <pose_rank>  (12) 
11

>  <num_atoms_heavy>  (12) 
8

>  <num_torsions>  (12) 
0

>  <pose>  (12) 
[15.386688784170067, 41.840297454558694, 81.35363022424676, 0.6388907779788485, -3.0082487877301505, 1.6481563552604122]

>  <energy>  (12) 
-131.2512662049768

>  <inter_energy>  (12) 
-126.21408114799729

>  <intra_energy>  (12) 
0.0

>  <rmsd>  (12) 
10.658

>  <sdf_rank>  (12) 
0

$$$$

     RDKit          3D

 14 14  0  0  0  0  0  0  0  0999 V2000
   22.8992   28.2473   67.3679 C   0  0  0  0  0  0  0  0  0  0  0  0
   22.9099   29.5548   67.8179 C   0  0  0  0  0  0  0  0  0  0  0  0
   23.9301   29.9876   68.6542 C   0  0  0  0  0  0  0  0  0  0  0  0
   23.9521   31.2946   69.1264 O   0  0  0  0  0  0  0  0  0  0  0  0
   24.9359   29.1321   69.0489 C   0  0  0  0  0  0  0  0  0  0  0  0
   25.9402   29.6097   69.9017 O   0  0  0  0  0  0  0  0  0  0  0  0
   24.9288   27.8153   68.6044 C   0  0  0  0  0  0  0  0  0  0  0  0
   23.9110   27.3784   67.7661 C   0  0  0  0  0  0  0  0  0  0  0  0
   22.0978   27.8969   66.7009 H   0  0  0  0  0  0  0  0  0  0  0  0
   22.1130   30.2496   67.5142 H   0  0  0  0  0  0  0  0  0  0  0  0
   24.6840   31.5934   69.7224 H   0  0  0  0  0  0  0  0  0  0  0  0
   26.6694   29.0071   70.1939 H   0  0  0  0  0  0  0  0  0  0  0  0
   25.7250   27.1228   68.9148 H   0  0  0  0  0  0  0  0  0  0  0  0
   23.9046   26.3363   67.4138 H   0  0  0  0  0  0  0  0  0  0  0  0
  1  2  2  0
  1  8  1  0
  2  3  1  0
  3  4  1  0
  3  5  2  0
  5  6  1  0
  5  7  1  0
  7  8  2  0
  1  9  1  0
  2 10  1  0
  4 11  1  0
  6 12  1  0
  7 13  1  0
  8 14  1  0
M  END
>  <filename_input>  (13) 
7WKL_CAQ_docked.sdf

>  <pdb_id>  (13) 
7WKL_CAQ

>  <pose_rank>  (13) 
12

>  <num_atoms_heavy>  (13) 
8

>  <num_torsions>  (13) 
0

>  <pose>  (13) 
[22.899181790637922, 28.247321736864244, 67.36791501007579, -3.7381406168057008, 3.7771408251332357, -2.2968470378252057]

>  <energy>  (13) 
-125.24784044269897

>  <inter_energy>  (13) 
-103.06932284552741

>  <intra_energy>  (13) 
0.0

>  <rmsd>  (13) 
10.8536

>  <sdf_rank>  (13) 
0

$$$$

     RDKit          3D

 14 14  0  0  0  0  0  0  0  0999 V2000
   10.2273   39.9655   80.1040 C   0  0  0  0  0  0  0  0  0  0  0  0
   10.8346   41.1821   79.8528 C   0  0  0  0  0  0  0  0  0  0  0  0
   12.2052   41.3177   80.0285 C   0  0  0  0  0  0  0  0  0  0  0  0
   12.8323   42.5354   79.7925 O   0  0  0  0  0  0  0  0  0  0  0  0
   12.9749   40.2567   80.4542 C   0  0  0  0  0  0  0  0  0  0  0  0
   14.3532   40.4418   80.6270 O   0  0  0  0  0  0  0  0  0  0  0  0
   12.3704   39.0324   80.7132 C   0  0  0  0  0  0  0  0  0  0  0  0
   10.9997   38.8917   80.5372 C   0  0  0  0  0  0  0  0  0  0  0  0
    9.1428   39.8474   79.9627 H   0  0  0  0  0  0  0  0  0  0  0  0
   10.2340   42.0396   79.5150 H   0  0  0  0  0  0  0  0  0  0  0  0
   13.8102   42.6216   79.9207 H   0  0  0  0  0  0  0  0  0  0  0  0
   14.9193   39.6892   80.9323 H   0  0  0  0  0  0  0  0  0  0  0  0
   12.9743   38.1792   81.0558 H   0  0  0  0  0  0  0  0  0  0  0  0
   10.5205   37.9230   80.7419 H   0  0  0  0  0  0  0  0  0  0  0  0
  1  2  2  0
  1  8  1  0
  2  3  1  0
  3  4  1  0
  3  5  2  0
  5  6  1  0
  5  7  1  0
  7  8  2  0
  1  9  1  0
  2 10  1  0
  4 11  1  0
  6 12  1  0
  7 13  1  0
  8 14  1  0
M  END
>  <filename_input>  (14) 
7WKL_CAQ_docked.sdf

>  <pdb_id>  (14) 
7WKL_CAQ

>  <pose_rank>  (14) 
13

>  <num_atoms_heavy>  (14) 
8

>  <num_torsions>  (14) 
0

>  <pose>  (14) 
[10.227285764341865, 39.965535832785356, 80.104020498642, 3.0299742697775742, -1.8662437189369376, 4.851258528840951]

>  <energy>  (14) 
-124.78376167296098

>  <inter_energy>  (14) 
-90.0407711991573

>  <intra_energy>  (14) 
0.0

>  <rmsd>  (14) 
10.3643

>  <sdf_rank>  (14) 
0

$$$$

     RDKit          3D

 14 14  0  0  0  0  0  0  0  0999 V2000
   21.2490   23.9633   83.4763 C   0  0  0  0  0  0  0  0  0  0  0  0
   21.5664   25.3039   83.3582 C   0  0  0  0  0  0  0  0  0  0  0  0
   22.8820   25.6831   83.1277 C   0  0  0  0  0  0  0  0  0  0  0  0
   23.2229   27.0260   83.0177 O   0  0  0  0  0  0  0  0  0  0  0  0
   23.8831   24.7425   83.0171 C   0  0  0  0  0  0  0  0  0  0  0  0
   25.1985   25.1714   82.7937 O   0  0  0  0  0  0  0  0  0  0  0  0
   23.5721   23.3935   83.1395 C   0  0  0  0  0  0  0  0  0  0  0  0
   22.2570   23.0094   83.3685 C   0  0  0  0  0  0  0  0  0  0  0  0
   20.2087   23.6532   83.6539 H   0  0  0  0  0  0  0  0  0  0  0  0
   20.7794   26.0673   83.4467 H   0  0  0  0  0  0  0  0  0  0  0  0
   24.1639   27.2860   82.8532 H   0  0  0  0  0  0  0  0  0  0  0  0
   25.9284   24.5076   82.7121 H   0  0  0  0  0  0  0  0  0  0  0  0
   24.3633   22.6339   83.0554 H   0  0  0  0  0  0  0  0  0  0  0  0
   22.0099   21.9419   83.4654 H   0  0  0  0  0  0  0  0  0  0  0  0
  1  2  2  0
  1  8  1  0
  2  3  1  0
  3  4  1  0
  3  5  2  0
  5  6  1  0
  5  7  1  0
  7  8  2  0
  1  9  1  0
  2 10  1  0
  4 11  1  0
  6 12  1  0
  7 13  1  0
  8 14  1  0
M  END
>  <filename_input>  (15) 
7WKL_CAQ_docked.sdf

>  <pdb_id>  (15) 
7WKL_CAQ

>  <pose_rank>  (15) 
14

>  <num_atoms_heavy>  (15) 
8

>  <num_torsions>  (15) 
0

>  <pose>  (15) 
[21.249000989435824, 23.96326846117314, 83.47627037374095, -0.6499015794803352, -5.812388736415316, 0.08745981029363213]

>  <energy>  (15) 
-89.44752640508362

>  <inter_energy>  (15) 
-94.92012862576935

>  <intra_energy>  (15) 
0.0

>  <rmsd>  (15) 
12.8316

>  <sdf_rank>  (15) 
0

$$$$

     RDKit          3D

 14 14  0  0  0  0  0  0  0  0999 V2000
    9.9307   40.4249   71.5960 C   0  0  0  0  0  0  0  0  0  0  0  0
    8.9013   40.2918   72.5097 C   0  0  0  0  0  0  0  0  0  0  0  0
    8.9830   40.9329   73.7385 C   0  0  0  0  0  0  0  0  0  0  0  0
    7.9640   40.8019   74.6746 O   0  0  0  0  0  0  0  0  0  0  0  0
   10.0790   41.7010   74.0672 C   0  0  0  0  0  0  0  0  0  0  0  0
   10.1231   42.3221   75.3226 O   0  0  0  0  0  0  0  0  0  0  0  0
   11.1195   41.8353   73.1557 C   0  0  0  0  0  0  0  0  0  0  0  0
   11.0413   41.1971   71.9244 C   0  0  0  0  0  0  0  0  0  0  0  0
    9.8724   39.9248   70.6180 H   0  0  0  0  0  0  0  0  0  0  0  0
    8.0207   39.6801   72.2637 H   0  0  0  0  0  0  0  0  0  0  0  0
    8.0319   41.2631   75.5479 H   0  0  0  0  0  0  0  0  0  0  0  0
   10.9037   42.8770   75.5732 H   0  0  0  0  0  0  0  0  0  0  0  0
   12.0004   42.4438   73.4080 H   0  0  0  0  0  0  0  0  0  0  0  0
   11.8644   41.3028   71.2023 H   0  0  0  0  0  0  0  0  0  0  0  0
  1  2  2  0
  1  8  1  0
  2  3  1  0
  3  4  1  0
  3  5  2  0
  5  6  1  0
  5  7  1  0
  7  8  2  0
  1  9  1  0
  2 10  1  0
  4 11  1  0
  6 12  1  0
  7 13  1  0
  8 14  1  0
M  END
>  <filename_input>  (16) 
7WKL_CAQ_docked.sdf

>  <pdb_id>  (16) 
7WKL_CAQ

>  <pose_rank>  (16) 
15

>  <num_atoms_heavy>  (16) 
8

>  <num_torsions>  (16) 
0

>  <pose>  (16) 
[9.930666677879175, 40.42492208430522, 71.59604856652112, -2.6152275580434767, 0.15059759037822149, -3.5350079210262977]

>  <energy>  (16) 
-119.63757909458154

>  <inter_energy>  (16) 
-86.50240043861798

>  <intra_energy>  (16) 
0.0

>  <rmsd>  (16) 
11.3691

>  <sdf_rank>  (16) 
0

$$$$

     RDKit          3D

 14 14  0  0  0  0  0  0  0  0999 V2000
   18.3399   38.7905   65.4823 C   0  0  0  0  0  0  0  0  0  0  0  0
   18.7324   40.1160   65.5139 C   0  0  0  0  0  0  0  0  0  0  0  0
   20.0228   40.4436   65.9078 C   0  0  0  0  0  0  0  0  0  0  0  0
   20.4326   41.7707   65.9574 O   0  0  0  0  0  0  0  0  0  0  0  0
   20.9234   39.4664   66.2729 C   0  0  0  0  0  0  0  0  0  0  0  0
   22.2125   39.8438   66.6727 O   0  0  0  0  0  0  0  0  0  0  0  0
   20.5343   38.1324   66.2480 C   0  0  0  0  0  0  0  0  0  0  0  0
   19.2447   37.7999   65.8530 C   0  0  0  0  0  0  0  0  0  0  0  0
   17.3211   38.5211   65.1667 H   0  0  0  0  0  0  0  0  0  0  0  0
   18.0247   40.9082   65.2281 H   0  0  0  0  0  0  0  0  0  0  0  0
   21.3550   41.9938   66.2396 H   0  0  0  0  0  0  0  0  0  0  0  0
   22.8705   39.1534   66.9379 H   0  0  0  0  0  0  0  0  0  0  0  0
   21.2438   37.3441   66.5396 H   0  0  0  0  0  0  0  0  0  0  0  0
   18.9359   36.7443   65.8331 H   0  0  0  0  0  0  0  0  0  0  0  0
  1  2  2  0
  1  8  1  0
  2  3  1  0
  3  4  1  0
  3  5  2  0
  5  6  1  0
  5  7  1  0
  7  8  2  0
  1  9  1  0
  2 10  1  0
  4 11  1  0
  6 12  1  0
  7 13  1  0
  8 14  1  0
M  END
>  <filename_input>  (17) 
7WKL_CAQ_docked.sdf

>  <pdb_id>  (17) 
7WKL_CAQ

>  <pose_rank>  (17) 
16

>  <num_atoms_heavy>  (17) 
8

>  <num_torsions>  (17) 
0

>  <pose>  (17) 
[18.33987106995348, 38.79048002601356, 65.48225279934982, -3.5881899458842743, 3.890469583025333, 3.253364607365734]

>  <energy>  (17) 
-110.89243209395687

>  <inter_energy>  (17) 
-95.4214601230364

>  <intra_energy>  (17) 
0.0

>  <rmsd>  (17) 
12.2618

>  <sdf_rank>  (17) 
0

$$$$

     RDKit          3D

 14 14  0  0  0  0  0  0  0  0999 V2000
   24.6148   31.9147   69.4050 C   0  0  0  0  0  0  0  0  0  0  0  0
   23.8148   31.8394   68.2797 C   0  0  0  0  0  0  0  0  0  0  0  0
   23.5382   30.6029   67.7121 C   0  0  0  0  0  0  0  0  0  0  0  0
   22.7458   30.5075   66.5742 O   0  0  0  0  0  0  0  0  0  0  0  0
   24.0522   29.4433   68.2509 C   0  0  0  0  0  0  0  0  0  0  0  0
   23.7544   28.2181   67.6391 O   0  0  0  0  0  0  0  0  0  0  0  0
   24.8609   29.5118   69.3790 C   0  0  0  0  0  0  0  0  0  0  0  0
   25.1390   30.7466   69.9513 C   0  0  0  0  0  0  0  0  0  0  0  0
   24.8352   32.8895   69.8647 H   0  0  0  0  0  0  0  0  0  0  0  0
   23.3989   32.7559   67.8359 H   0  0  0  0  0  0  0  0  0  0  0  0
   22.5544   29.6210   66.1772 H   0  0  0  0  0  0  0  0  0  0  0  0
   24.1162   27.3765   68.0145 H   0  0  0  0  0  0  0  0  0  0  0  0
   25.2788   28.5931   69.8164 H   0  0  0  0  0  0  0  0  0  0  0  0
   25.7791   30.8019   70.8442 H   0  0  0  0  0  0  0  0  0  0  0  0
  1  2  2  0
  1  8  1  0
  2  3  1  0
  3  4  1  0
  3  5  2  0
  5  6  1  0
  5  7  1  0
  7  8  2  0
  1  9  1  0
  2 10  1  0
  4 11  1  0
  6 12  1  0
  7 13  1  0
  8 14  1  0
M  END
>  <filename_input>  (18) 
7WKL_CAQ_docked.sdf

>  <pdb_id>  (18) 
7WKL_CAQ

>  <pose_rank>  (18) 
17

>  <num_atoms_heavy>  (18) 
8

>  <num_torsions>  (18) 
0

>  <pose>  (18) 
[24.614835171105586, 31.914692264141113, 69.40504575162261, -1.37617285722087, 1.8617251465162672, -0.975744460076911]

>  <energy>  (18) 
-108.55415699974174

>  <inter_energy>  (18) 
-106.7745168407058

>  <intra_energy>  (18) 
0.0

>  <rmsd>  (18) 
10.8429

>  <sdf_rank>  (18) 
0

$$$$

     RDKit          3D

 14 14  0  0  0  0  0  0  0  0999 V2000
   21.7626   28.8315   67.1571 C   0  0  0  0  0  0  0  0  0  0  0  0
   22.2459   29.9912   66.5794 C   0  0  0  0  0  0  0  0  0  0  0  0
   23.6159   30.1844   66.4635 C   0  0  0  0  0  0  0  0  0  0  0  0
   24.1214   31.3483   65.8965 O   0  0  0  0  0  0  0  0  0  0  0  0
   24.5076   29.2377   66.9194 C   0  0  0  0  0  0  0  0  0  0  0  0
   25.8820   29.4792   66.7904 O   0  0  0  0  0  0  0  0  0  0  0  0
   24.0290   28.0720   67.5055 C   0  0  0  0  0  0  0  0  0  0  0  0
   22.6591   27.8736   67.6219 C   0  0  0  0  0  0  0  0  0  0  0  0
   20.6787   28.6675   67.2485 H   0  0  0  0  0  0  0  0  0  0  0  0
   21.5475   30.7579   66.2129 H   0  0  0  0  0  0  0  0  0  0  0  0
   25.1000   31.4764   65.8185 H   0  0  0  0  0  0  0  0  0  0  0  0
   26.5349   28.8086   67.1131 H   0  0  0  0  0  0  0  0  0  0  0  0
   24.7313   27.3103   67.8752 H   0  0  0  0  0  0  0  0  0  0  0  0
   22.2793   26.9512   68.0857 H   0  0  0  0  0  0  0  0  0  0  0  0
  1  2  2  0
  1  8  1  0
  2  3  1  0
  3  4  1  0
  3  5  2  0
  5  6  1  0
  5  7  1  0
  7  8  2  0
  1  9  1  0
  2 10  1  0
  4 11  1  0
  6 12  1  0
  7 13  1  0
  8 14  1  0
M  END
>  <filename_input>  (19) 
7WKL_CAQ_docked.sdf

>  <pdb_id>  (19) 
7WKL_CAQ

>  <pose_rank>  (19) 
18

>  <num_atoms_heavy>  (19) 
8

>  <num_torsions>  (19) 
0

>  <pose>  (19) 
[21.762585234390713, 28.831546618708938, 67.15705528835223, 4.366615526849044, -3.174057997725816, 2.194503648267512]

>  <energy>  (19) 
-106.32138320431368

>  <inter_energy>  (19) 
-92.6861480916233

>  <intra_energy>  (19) 
0.0

>  <rmsd>  (19) 
11.5249

>  <sdf_rank>  (19) 
0

$$$$

     RDKit          3D

 14 14  0  0  0  0  0  0  0  0999 V2000
   10.0603   27.0825   82.7998 C   0  0  0  0  0  0  0  0  0  0  0  0
   10.2921   28.4340   82.9784 C   0  0  0  0  0  0  0  0  0  0  0  0
   11.4961   28.8609   83.5223 C   0  0  0  0  0  0  0  0  0  0  0  0
   11.7433   30.2142   83.7205 O   0  0  0  0  0  0  0  0  0  0  0  0
   12.4682   27.9569   83.8925 C   0  0  0  0  0  0  0  0  0  0  0  0
   13.6646   28.4325   84.4462 O   0  0  0  0  0  0  0  0  0  0  0  0
   12.2402   26.5969   83.7203 C   0  0  0  0  0  0  0  0  0  0  0  0
   11.0377   26.1652   83.1749 C   0  0  0  0  0  0  0  0  0  0  0  0
    9.1114   26.7353   82.3650 H   0  0  0  0  0  0  0  0  0  0  0  0
    9.5253   29.1683   82.6906 H   0  0  0  0  0  0  0  0  0  0  0  0
   12.6050   30.5083   84.1090 H   0  0  0  0  0  0  0  0  0  0  0  0
   14.3723   27.7954   84.7170 H   0  0  0  0  0  0  0  0  0  0  0  0
   13.0079   25.8660   84.0143 H   0  0  0  0  0  0  0  0  0  0  0  0
   10.8563   25.0889   83.0383 H   0  0  0  0  0  0  0  0  0  0  0  0
  1  2  2  0
  1  8  1  0
  2  3  1  0
  3  4  1  0
  3  5  2  0
  5  6  1  0
  5  7  1  0
  7  8  2  0
  1  9  1  0
  2 10  1  0
  4 11  1  0
  6 12  1  0
  7 13  1  0
  8 14  1  0
M  END
>  <filename_input>  (20) 
7WKL_CAQ_docked.sdf

>  <pdb_id>  (20) 
7WKL_CAQ

>  <pose_rank>  (20) 
19

>  <num_atoms_heavy>  (20) 
8

>  <num_torsions>  (20) 
0

>  <pose>  (20) 
[10.060288568516087, 27.082531125848437, 82.79982610221887, -3.9751526582448764, 4.007098644495742, -2.2608282487909985]

>  <energy>  (20) 
-104.44974813130699

>  <inter_energy>  (20) 
-97.17491102345936

>  <intra_energy>  (20) 
0.0

>  <rmsd>  (20) 
10.523

>  <sdf_rank>  (20) 
0

$$$$

     RDKit          3D

 14 14  0  0  0  0  0  0  0  0999 V2000
   19.1857   27.6019   65.8152 C   0  0  0  0  0  0  0  0  0  0  0  0
   19.5046   28.8684   66.2696 C   0  0  0  0  0  0  0  0  0  0  0  0
   20.6371   29.0557   67.0506 C   0  0  0  0  0  0  0  0  0  0  0  0
   20.9680   30.3189   67.5266 O   0  0  0  0  0  0  0  0  0  0  0  0
   21.4517   27.9958   67.3859 C   0  0  0  0  0  0  0  0  0  0  0  0
   22.5794   28.2300   68.1843 O   0  0  0  0  0  0  0  0  0  0  0  0
   21.1347   26.7194   66.9367 C   0  0  0  0  0  0  0  0  0  0  0  0
   20.0035   26.5276   66.1536 C   0  0  0  0  0  0  0  0  0  0  0  0
   18.2933   27.4448   65.1916 H   0  0  0  0  0  0  0  0  0  0  0  0
   18.8633   29.7245   66.0131 H   0  0  0  0  0  0  0  0  0  0  0  0
   21.7777   30.4418   68.0828 H   0  0  0  0  0  0  0  0  0  0  0  0
   23.1741   27.4788   68.4335 H   0  0  0  0  0  0  0  0  0  0  0  0
   21.7762   25.8655   67.2000 H   0  0  0  0  0  0  0  0  0  0  0  0
   19.7518   25.5177   65.7976 H   0  0  0  0  0  0  0  0  0  0  0  0
  1  2  2  0
  1  8  1  0
  2  3  1  0
  3  4  1  0
  3  5  2  0
  5  6  1  0
  5  7  1  0
  7  8  2  0
  1  9  1  0
  2 10  1  0
  4 11  1  0
  6 12  1  0
  7 13  1  0
  8 14  1  0
M  END
>  <filename_input>  (21) 
7WKL_CAQ_docked.sdf

>  <pdb_id>  (21) 
7WKL_CAQ

>  <pose_rank>  (21) 
20

>  <num_atoms_heavy>  (21) 
8

>  <num_torsions>  (21) 
0

>  <pose>  (21) 
[19.18574990625835, 27.60193341349509, 65.81520447033667, -4.089921304157888, 4.174667217629523, 0.4135305850954052]

>  <energy>  (21) 
-100.51672102628908

>  <inter_energy>  (21) 
-86.61094897085849

>  <intra_energy>  (21) 
0.0

>  <rmsd>  (21) 
10.3533

>  <sdf_rank>  (21) 
0

$$$$

     RDKit          3D

 14 14  0  0  0  0  0  0  0  0999 V2000
    9.4054   28.9593   84.2086 C   0  0  0  0  0  0  0  0  0  0  0  0
    9.5794   30.2379   84.7057 C   0  0  0  0  0  0  0  0  0  0  0  0
   10.8615   30.7250   84.9214 C   0  0  0  0  0  0  0  0  0  0  0  0
   11.0568   32.0031   85.4315 O   0  0  0  0  0  0  0  0  0  0  0  0
   11.9698   29.9520   84.6507 C   0  0  0  0  0  0  0  0  0  0  0  0
   13.2446   30.4813   84.8926 O   0  0  0  0  0  0  0  0  0  0  0  0
   11.8023   28.6643   84.1553 C   0  0  0  0  0  0  0  0  0  0  0  0
   10.5215   28.1733   83.9364 C   0  0  0  0  0  0  0  0  0  0  0  0
    8.3936   28.5667   84.0297 H   0  0  0  0  0  0  0  0  0  0  0  0
    8.7051   30.8668   84.9296 H   0  0  0  0  0  0  0  0  0  0  0  0
   11.9751   32.3411   85.5817 H   0  0  0  0  0  0  0  0  0  0  0  0
   14.0503   29.9381   84.7031 H   0  0  0  0  0  0  0  0  0  0  0  0
   12.6795   28.0372   83.9378 H   0  0  0  0  0  0  0  0  0  0  0  0
   10.3880   27.1542   83.5443 H   0  0  0  0  0  0  0  0  0  0  0  0
  1  2  2  0
  1  8  1  0
  2  3  1  0
  3  4  1  0
  3  5  2  0
  5  6  1  0
  5  7  1  0
  7  8  2  0
  1  9  1  0
  2 10  1  0
  4 11  1  0
  6 12  1  0
  7 13  1  0
  8 14  1  0
M  END
>  <filename_input>  (22) 
7WKL_CAQ_docked.sdf

>  <pdb_id>  (22) 
7WKL_CAQ

>  <pose_rank>  (22) 
21

>  <num_atoms_heavy>  (22) 
8

>  <num_torsions>  (22) 
0

>  <pose>  (22) 
[9.40543216144389, 28.95933890979671, 84.20858058234884, -4.842045432241536, -2.524826496280533, -1.811112464985727]

>  <energy>  (22) 
-72.87155905370159

>  <inter_energy>  (22) 
-64.11971939571654

>  <intra_energy>  (22) 
0.0

>  <rmsd>  (22) 
11.0544

>  <sdf_rank>  (22) 
0

$$$$

     RDKit          3D

 14 14  0  0  0  0  0  0  0  0999 V2000
   20.5722   23.9186   81.7679 C   0  0  0  0  0  0  0  0  0  0  0  0
   20.8592   24.5588   82.9594 C   0  0  0  0  0  0  0  0  0  0  0  0
   22.0126   24.2295   83.6586 C   0  0  0  0  0  0  0  0  0  0  0  0
   22.3125   24.8534   84.8638 O   0  0  0  0  0  0  0  0  0  0  0  0
   22.8796   23.2684   83.1855 C   0  0  0  0  0  0  0  0  0  0  0  0
   24.0271   22.9615   83.9292 O   0  0  0  0  0  0  0  0  0  0  0  0
   22.5951   22.6174   81.9911 C   0  0  0  0  0  0  0  0  0  0  0  0
   21.4431   22.9449   81.2873 C   0  0  0  0  0  0  0  0  0  0  0  0
   19.6633   24.1766   81.2045 H   0  0  0  0  0  0  0  0  0  0  0  0
   20.1760   25.3264   83.3520 H   0  0  0  0  0  0  0  0  0  0  0  0
   23.1375   24.6114   85.3546 H   0  0  0  0  0  0  0  0  0  0  0  0
   24.6594   22.2734   83.6024 H   0  0  0  0  0  0  0  0  0  0  0  0
   23.2786   21.8469   81.6049 H   0  0  0  0  0  0  0  0  0  0  0  0
   21.2171   22.4302   80.3418 H   0  0  0  0  0  0  0  0  0  0  0  0
  1  2  2  0
  1  8  1  0
  2  3  1  0
  3  4  1  0
  3  5  2  0
  5  6  1  0
  5  7  1  0
  7  8  2  0
  1  9  1  0
  2 10  1  0
  4 11  1  0
  6 12  1  0
  7 13  1  0
  8 14  1  0
M  END
>  <filename_input>  (23) 
7WKL_CAQ_docked.sdf

>  <pdb_id>  (23) 
7WKL_CAQ

>  <pose_rank>  (23) 
22

>  <num_atoms_heavy>  (23) 
8

>  <num_torsions>  (23) 
0

>  <pose>  (23) 
[20.57221581350483, 23.91858132153824, 81.76786711996571, -5.041262279619193, 1.221379840264933, 0.4638970461729681]

>  <energy>  (23) 
-94.1282745281872

>  <inter_energy>  (23) 
-78.538774547145

>  <intra_energy>  (23) 
0.0

>  <rmsd>  (23) 
13.0563

>  <sdf_rank>  (23) 
0

$$$$

     RDKit          3D

 14 14  0  0  0  0  0  0  0  0999 V2000
   10.1597   24.9436   83.3361 C   0  0  0  0  0  0  0  0  0  0  0  0
   10.9803   26.0555   83.3861 C   0  0  0  0  0  0  0  0  0  0  0  0
   12.2729   25.9366   83.8788 C   0  0  0  0  0  0  0  0  0  0  0  0
   13.1090   27.0447   83.9480 O   0  0  0  0  0  0  0  0  0  0  0  0
   12.7542   24.7246   84.3246 C   0  0  0  0  0  0  0  0  0  0  0  0
   14.0622   24.6533   84.8226 O   0  0  0  0  0  0  0  0  0  0  0  0
   11.9334   23.6040   84.2818 C   0  0  0  0  0  0  0  0  0  0  0  0
   10.6400   23.7178   83.7880 C   0  0  0  0  0  0  0  0  0  0  0  0
    9.1359   25.0272   82.9426 H   0  0  0  0  0  0  0  0  0  0  0  0
   10.6103   27.0307   83.0367 H   0  0  0  0  0  0  0  0  0  0  0  0
   14.0290   26.9493   84.3010 H   0  0  0  0  0  0  0  0  0  0  0  0
   14.4222   23.7897   85.1465 H   0  0  0  0  0  0  0  0  0  0  0  0
   12.3060   22.6319   84.6370 H   0  0  0  0  0  0  0  0  0  0  0  0
    9.9896   22.8314   83.7537 H   0  0  0  0  0  0  0  0  0  0  0  0
  1  2  2  0
  1  8  1  0
  2  3  1  0
  3  4  1  0
  3  5  2  0
  5  6  1  0
  5  7  1  0
  7  8  2  0
  1  9  1  0
  2 10  1  0
  4 11  1  0
  6 12  1  0
  7 13  1  0
  8 14  1  0
M  END
>  <filename_input>  (24) 
7WKL_CAQ_docked.sdf

>  <pdb_id>  (24) 
7WKL_CAQ

>  <pose_rank>  (24) 
23

>  <num_atoms_heavy>  (24) 
8

>  <num_torsions>  (24) 
0

>  <pose>  (24) 
[10.159671655021793, 24.943636803801404, 83.33614075170857, -0.14864313523032763, 1.868874088905361, 5.5699409817874725]

>  <energy>  (24) 
-93.86404995870163

>  <inter_energy>  (24) 
-81.58042756470722

>  <intra_energy>  (24) 
0.0

>  <rmsd>  (24) 
12.2206

>  <sdf_rank>  (24) 
0

$$$$

     RDKit          3D

 14 14  0  0  0  0  0  0  0  0999 V2000
   18.7364   23.7459   67.1251 C   0  0  0  0  0  0  0  0  0  0  0  0
   17.7485   24.6730   66.8483 C   0  0  0  0  0  0  0  0  0  0  0  0
   18.0931   25.9959   66.6057 C   0  0  0  0  0  0  0  0  0  0  0  0
   17.1138   26.9449   66.3372 O   0  0  0  0  0  0  0  0  0  0  0  0
   19.4089   26.4046   66.6392 C   0  0  0  0  0  0  0  0  0  0  0  0
   19.7096   27.7518   66.3975 O   0  0  0  0  0  0  0  0  0  0  0  0
   20.4065   25.4791   66.9215 C   0  0  0  0  0  0  0  0  0  0  0  0
   20.0666   24.1541   67.1632 C   0  0  0  0  0  0  0  0  0  0  0  0
   18.4732   22.6946   67.3136 H   0  0  0  0  0  0  0  0  0  0  0  0
   16.6933   24.3636   66.8205 H   0  0  0  0  0  0  0  0  0  0  0  0
   17.3700   27.8857   66.1656 H   0  0  0  0  0  0  0  0  0  0  0  0
   20.6500   28.0605   66.4181 H   0  0  0  0  0  0  0  0  0  0  0  0
   21.4600   25.7943   66.9533 H   0  0  0  0  0  0  0  0  0  0  0  0
   20.8556   23.4210   67.3867 H   0  0  0  0  0  0  0  0  0  0  0  0
  1  2  2  0
  1  8  1  0
  2  3  1  0
  3  4  1  0
  3  5  2  0
  5  6  1  0
  5  7  1  0
  7  8  2  0
  1  9  1  0
  2 10  1  0
  4 11  1  0
  6 12  1  0
  7 13  1  0
  8 14  1  0
M  END
>  <filename_input>  (25) 
7WKL_CAQ_docked.sdf

>  <pdb_id>  (25) 
7WKL_CAQ

>  <pose_rank>  (25) 
24

>  <num_atoms_heavy>  (25) 
8

>  <num_torsions>  (25) 
0

>  <pose>  (25) 
[18.736373269927398, 23.74591294137236, 67.12509314151585, -0.28090922605426516, 0.3251805614285063, 1.0091040280351293]

>  <energy>  (25) 
-92.95353627819267

>  <inter_energy>  (25) 
-80.31008633646204

>  <intra_energy>  (25) 
0.0

>  <rmsd>  (25) 
11.3378

>  <sdf_rank>  (25) 
0

$$$$

     RDKit          3D

 14 14  0  0  0  0  0  0  0  0999 V2000
   14.6670   31.6060   74.8820 C   0  0  0  0  0  0  0  0  0  0  0  0
   15.0100   32.9450   74.8430 C   0  0  0  0  0  0  0  0  0  0  0  0
   16.3030   33.3350   75.1650 C   0  0  0  0  0  0  0  0  0  0  0  0
   16.6640   34.6770   75.1430 O   0  0  0  0  0  0  0  0  0  0  0  0
   17.2550   32.4070   75.5280 C   0  0  0  0  0  0  0  0  0  0  0  0
   18.5450   32.8470   75.8540 O   0  0  0  0  0  0  0  0  0  0  0  0
   16.9160   31.0600   75.5740 C   0  0  0  0  0  0  0  0  0  0  0  0
   15.6240   30.6650   75.2510 C   0  0  0  0  0  0  0  0  0  0  0  0
   13.6464   31.2871   74.6236 H   0  0  0  0  0  0  0  0  0  0  0  0
   14.2611   33.6985   74.5579 H   0  0  0  0  0  0  0  0  0  0  0  0
   17.5886   34.9447   75.3743 H   0  0  0  0  0  0  0  0  0  0  0  0
   19.2397   32.1924   76.1167 H   0  0  0  0  0  0  0  0  0  0  0  0
   17.6669   30.3105   75.8647 H   0  0  0  0  0  0  0  0  0  0  0  0
   15.3548   29.5991   75.2872 H   0  0  0  0  0  0  0  0  0  0  0  0
  1  2  2  0
  1  8  1  0
  2  3  1  0
  3  4  1  0
  3  5  2  0
  5  6  1  0
  5  7  1  0
  7  8  2  0
  1  9  1  0
  2 10  1  0
  4 11  1  0
  6 12  1  0
  7 13  1  0
  8 14  1  0
M  END
>  <filename_input>  (26) 
7WKL_CAQ_docked.sdf

>  <pdb_id>  (26) 
7WKL_CAQ

>  <pose_rank>  (26) 
25

>  <num_atoms_heavy>  (26) 
8

>  <num_torsions>  (26) 
0

>  <pose>  (26) 
[14.667, 31.606, 74.882, 1e-06, 1e-06, 1e-06]

>  <energy>  (26) 
-463.39117834810804

>  <inter_energy>  (26) 
-460.03354073182606

>  <intra_energy>  (26) 
0.0

>  <rmsd>  (26) 
0.0

>  <sdf_rank>  (26) 
0

$$$$
