
     RDKit          3D

 58 62  0  0  0  0  0  0  0  0999 V2000
    4.1745   12.7303   29.5396 F   0  0  0  0  0  0  0  0  0  0  0  0
    4.5532   11.4739   29.4326 C   0  0  0  0  0  0  0  0  0  0  0  0
    3.6814   10.4899   28.9699 C   0  0  0  0  0  0  0  0  0  0  0  0
    4.1077    9.1874   28.8691 C   0  0  0  0  0  0  0  0  0  0  0  0
    3.3271    8.2433   28.4719 F   0  0  0  0  0  0  0  0  0  0  0  0
    5.3951    8.8548   29.2097 C   0  0  0  0  0  0  0  0  0  0  0  0
    6.2619    9.8234   29.6651 C   0  0  0  0  0  0  0  0  0  0  0  0
    5.8483   11.1331   29.7897 C   0  0  0  0  0  0  0  0  0  0  0  0
    6.9698   12.3253   30.4125 S   0  0  1  0  0  0  0  0  0  0  0  0
    8.2930   11.6125   30.5926 O   0  0  0  0  0  0  0  0  0  0  0  0
    7.0237   13.5154   29.4652 O   0  0  0  0  0  0  0  0  0  0  0  0
    6.4017   12.7652   31.8966 N   0  0  0  0  0  0  0  0  0  0  0  0
    6.2695   11.8336   32.8922 C   0  0  0  0  0  0  0  0  0  0  0  0
    7.3791   11.2316   33.5142 C   0  0  0  0  0  0  0  0  0  0  0  0
    7.1711   10.2958   34.5473 C   0  0  0  0  0  0  0  0  0  0  0  0
    5.9243    9.9851   34.9410 C   0  0  0  0  0  0  0  0  0  0  0  0
    5.4395    9.1492   35.8845 N   0  0  0  0  0  0  0  0  0  0  0  0
    6.3271    8.3084   36.7227 C   0  0  0  0  0  0  0  0  0  0  0  0
    6.6319    6.9690   36.0474 C   0  0  0  0  0  0  0  0  0  0  0  0
    4.0949    9.2413   35.8447 C   0  0  0  0  0  0  0  0  0  0  0  0
    3.3473    8.5904   36.5877 O   0  0  0  0  0  0  0  0  0  0  0  0
    3.7264   10.1340   34.8758 C   0  0  0  0  0  0  0  0  0  0  0  0
    2.5708   10.6378   34.3620 C   0  0  0  0  0  0  0  0  0  0  0  0
    4.8840   10.5733   34.3496 C   0  0  0  0  0  0  0  0  0  0  0  0
    4.9862   11.4998   33.3501 C   0  0  0  0  0  0  0  0  0  0  0  0
    3.8306   11.9946   32.8323 N   0  0  0  0  0  0  0  0  0  0  0  0
    2.6215   11.6221   33.3228 C   0  0  0  0  0  0  0  0  0  0  0  0
    1.5153   12.1791   32.7338 N   0  0  0  0  0  0  0  0  0  0  0  0
    0.2169   11.5543   32.7977 C   0  0  0  0  0  0  0  0  0  0  0  0
   -0.8838   12.5862   32.6307 C   0  0  0  0  0  0  0  0  0  0  0  0
   -0.8092   13.2757   31.3553 N   0  0  1  0  0  0  0  0  0  0  0  0
   -1.9186   14.1856   31.1614 C   0  0  0  0  0  0  0  0  0  0  0  0
    0.4066   14.1141   31.5269 C   0  0  0  0  0  0  0  0  0  0  0  0
    1.6700   13.2678   31.7420 C   0  0  0  0  0  0  0  0  0  0  0  0
    2.6526   10.7557   28.6854 H   0  0  0  0  0  0  0  0  0  0  0  0
    5.7352    7.8126   29.1187 H   0  0  0  0  0  0  0  0  0  0  0  0
    7.2934    9.5499   29.9319 H   0  0  0  0  0  0  0  0  0  0  0  0
    6.1448   13.7464   32.0761 H   0  0  0  0  0  0  0  0  0  0  0  0
    8.4003   11.4894   33.1968 H   0  0  0  0  0  0  0  0  0  0  0  0
    8.0338    9.8171   35.0338 H   0  0  0  0  0  0  0  0  0  0  0  0
    7.2716    8.8457   36.8937 H   0  0  0  0  0  0  0  0  0  0  0  0
    5.8139    8.1065   37.6744 H   0  0  0  0  0  0  0  0  0  0  0  0
    6.8064    6.2021   36.8164 H   0  0  0  0  0  0  0  0  0  0  0  0
    5.7784    6.6720   35.4203 H   0  0  0  0  0  0  0  0  0  0  0  0
    7.5299    7.0705   35.4203 H   0  0  0  0  0  0  0  0  0  0  0  0
    1.5999   10.2896   34.7443 H   0  0  0  0  0  0  0  0  0  0  0  0
    0.1360   10.8068   31.9948 H   0  0  0  0  0  0  0  0  0  0  0  0
    0.1041   11.0727   33.7802 H   0  0  0  0  0  0  0  0  0  0  0  0
   -1.8572   12.0787   32.7012 H   0  0  0  0  0  0  0  0  0  0  0  0
   -0.7616   13.3375   33.4249 H   0  0  0  0  0  0  0  0  0  0  0  0
   -0.8093   12.6158   30.5645 H   0  0  0  0  0  0  0  0  0  0  0  0
   -2.3070   14.5041   32.1400 H   0  0  0  0  0  0  0  0  0  0  0  0
   -1.5763   15.0664   30.5984 H   0  0  0  0  0  0  0  0  0  0  0  0
   -2.7154   13.6775   30.5984 H   0  0  0  0  0  0  0  0  0  0  0  0
    0.5422   14.7300   30.6256 H   0  0  0  0  0  0  0  0  0  0  0  0
    0.2625   14.7387   32.4209 H   0  0  0  0  0  0  0  0  0  0  0  0
    2.4758   13.9335   32.0848 H   0  0  0  0  0  0  0  0  0  0  0  0
    1.8926   12.7856   30.7787 H   0  0  0  0  0  0  0  0  0  0  0  0
  1  2  1  0
  2  3  2  0
  2  8  1  0
  3  4  1  0
  4  5  1  0
  4  6  2  0
  6  7  1  0
  7  8  2  0
  8  9  1  0
  9 10  2  0
  9 11  2  0
  9 12  1  1
 12 13  1  0
 13 14  2  0
 13 25  1  0
 14 15  1  0
 15 16  2  0
 16 17  1  0
 16 24  1  0
 17 18  1  0
 17 20  1  0
 18 19  1  0
 20 21  2  0
 20 22  1  0
 22 23  2  0
 22 24  1  0
 23 27  1  0
 24 25  2  0
 25 26  1  0
 26 27  2  0
 27 28  1  0
 28 29  1  0
 28 34  1  0
 29 30  1  0
 30 31  1  0
 31 32  1  0
 31 33  1  0
 33 34  1  0
  3 35  1  0
  6 36  1  0
  7 37  1  0
 12 38  1  0
 14 39  1  0
 15 40  1  0
 18 41  1  0
 18 42  1  0
 19 43  1  0
 19 44  1  0
 19 45  1  0
 23 46  1  0
 29 47  1  0
 29 48  1  0
 30 49  1  0
 30 50  1  0
 31 51  1  6
 32 52  1  0
 32 53  1  0
 32 54  1  0
 33 55  1  0
 33 56  1  0
 34 57  1  0
 34 58  1  0
M  CHG  1  31   1
M  END
>  <filename_input>  (1) 
7WL4_JFU_docked.sdf

>  <pdb_id>  (1) 
7WL4_JFU

>  <pose_rank>  (1) 
0

>  <num_atoms_heavy>  (1) 
34

>  <num_torsions>  (1) 
4

>  <pose>  (1) 
[6.2695211407041755, 11.833621530900933, 32.892223353114254, -0.08973226606269141, -5.172426238472594, -3.5545039708212927, 0.050197782718332196, 0.022410255014290493, -0.03461904639532176, 0.06879829414943148]

>  <energy>  (1) 
-1624.4532443714643

>  <inter_energy>  (1) 
-1619.0185813517153

>  <intra_energy>  (1) 
11.677333573484944

>  <rmsd>  (1) 
0.214443

>  <sdf_rank>  (1) 
0

$$$$

     RDKit          3D

 58 62  0  0  0  0  0  0  0  0999 V2000
    9.3515   10.7284   32.1193 F   0  0  0  0  0  0  0  0  0  0  0  0
    9.8146   11.8633   31.6387 C   0  0  0  0  0  0  0  0  0  0  0  0
   11.1046   12.3027   31.9307 C   0  0  0  0  0  0  0  0  0  0  0  0
   11.5584   13.4919   31.4128 C   0  0  0  0  0  0  0  0  0  0  0  0
   12.7332   13.9474   31.6789 F   0  0  0  0  0  0  0  0  0  0  0  0
   10.7492   14.2420   30.5963 C   0  0  0  0  0  0  0  0  0  0  0  0
    9.4744   13.8116   30.3022 C   0  0  0  0  0  0  0  0  0  0  0  0
    8.9942   12.6295   30.8259 C   0  0  0  0  0  0  0  0  0  0  0  0
    7.3530   12.1402   30.4604 S   0  0  1  0  0  0  0  0  0  0  0  0
    6.8969   13.0067   29.3060 O   0  0  0  0  0  0  0  0  0  0  0  0
    7.3208   10.6460   30.1723 O   0  0  0  0  0  0  0  0  0  0  0  0
    6.4509   12.5145   31.7889 N   0  0  0  0  0  0  0  0  0  0  0  0
    6.2891   11.6008   32.7968 C   0  0  0  0  0  0  0  0  0  0  0  0
    7.3788   10.9676   33.4230 C   0  0  0  0  0  0  0  0  0  0  0  0
    7.1412   10.0528   34.4685 C   0  0  0  0  0  0  0  0  0  0  0  0
    5.8856    9.7918   34.8699 C   0  0  0  0  0  0  0  0  0  0  0  0
    5.3746    8.9857   35.8255 N   0  0  0  0  0  0  0  0  0  0  0  0
    6.2347    8.1244   36.6716 C   0  0  0  0  0  0  0  0  0  0  0  0
    6.5396    6.7905   35.9857 C   0  0  0  0  0  0  0  0  0  0  0  0
    4.0340    9.1251   35.7887 C   0  0  0  0  0  0  0  0  0  0  0  0
    3.2663    8.5107   36.5422 O   0  0  0  0  0  0  0  0  0  0  0  0
    3.6941   10.0181   34.8096 C   0  0  0  0  0  0  0  0  0  0  0  0
    2.5554   10.5562   34.2929 C   0  0  0  0  0  0  0  0  0  0  0  0
    4.8648   10.4092   34.2743 C   0  0  0  0  0  0  0  0  0  0  0  0
    4.9964   11.3188   33.2628 C   0  0  0  0  0  0  0  0  0  0  0  0
    3.8573   11.8478   32.7423 N   0  0  0  0  0  0  0  0  0  0  0  0
    2.6375   11.5248   33.2411 C   0  0  0  0  0  0  0  0  0  0  0  0
    1.5497   12.1134   32.6484 N   0  0  0  0  0  0  0  0  0  0  0  0
    0.2301   11.5361   32.7243 C   0  0  0  0  0  0  0  0  0  0  0  0
   -0.8338   12.6044   32.5475 C   0  0  0  0  0  0  0  0  0  0  0  0
   -0.7391   13.2745   31.2632 N   0  0  1  0  0  0  0  0  0  0  0  0
   -1.8162   14.2209   31.0611 C   0  0  0  0  0  0  0  0  0  0  0  0
    0.5064   14.0713   31.4204 C   0  0  0  0  0  0  0  0  0  0  0  0
    1.7395   13.1832   31.6424 C   0  0  0  0  0  0  0  0  0  0  0  0
   11.7592   11.6979   32.5755 H   0  0  0  0  0  0  0  0  0  0  0  0
   11.1196   15.1887   30.1762 H   0  0  0  0  0  0  0  0  0  0  0  0
    8.8334   14.4160   29.6435 H   0  0  0  0  0  0  0  0  0  0  0  0
    6.0064   13.4408   31.8615 H   0  0  0  0  0  0  0  0  0  0  0  0
    8.4074   11.1848   33.0992 H   0  0  0  0  0  0  0  0  0  0  0  0
    7.9880    9.5500   34.9585 H   0  0  0  0  0  0  0  0  0  0  0  0
    7.1810    8.6490   36.8700 H   0  0  0  0  0  0  0  0  0  0  0  0
    5.6988    7.9160   37.6093 H   0  0  0  0  0  0  0  0  0  0  0  0
    6.7163    6.0179   36.7485 H   0  0  0  0  0  0  0  0  0  0  0  0
    5.6853    6.4974   35.3578 H   0  0  0  0  0  0  0  0  0  0  0  0
    7.4365    6.8977   35.3578 H   0  0  0  0  0  0  0  0  0  0  0  0
    1.5740   10.2476   34.6826 H   0  0  0  0  0  0  0  0  0  0  0  0
    0.1198   10.7818   31.9312 H   0  0  0  0  0  0  0  0  0  0  0  0
    0.1037   11.0712   33.7132 H   0  0  0  0  0  0  0  0  0  0  0  0
   -1.8243   12.1327   32.6274 H   0  0  0  0  0  0  0  0  0  0  0  0
   -0.6822   13.3607   33.3317 H   0  0  0  0  0  0  0  0  0  0  0  0
   -0.7655   12.6052   30.4808 H   0  0  0  0  0  0  0  0  0  0  0  0
   -2.1977   14.5561   32.0368 H   0  0  0  0  0  0  0  0  0  0  0  0
   -1.4417   15.0874   30.4964 H   0  0  0  0  0  0  0  0  0  0  0  0
   -2.6274   13.7381   30.4964 H   0  0  0  0  0  0  0  0  0  0  0  0
    0.6606   14.6705   30.5109 H   0  0  0  0  0  0  0  0  0  0  0  0
    0.3877   14.7118   32.3067 H   0  0  0  0  0  0  0  0  0  0  0  0
    2.5697   13.8241   31.9742 H   0  0  0  0  0  0  0  0  0  0  0  0
    1.9415   12.6813   30.6847 H   0  0  0  0  0  0  0  0  0  0  0  0
  1  2  1  0
  2  3  2  0
  2  8  1  0
  3  4  1  0
  4  5  1  0
  4  6  2  0
  6  7  1  0
  7  8  2  0
  8  9  1  0
  9 10  2  0
  9 11  2  0
  9 12  1  1
 12 13  1  0
 13 14  2  0
 13 25  1  0
 14 15  1  0
 15 16  2  0
 16 17  1  0
 16 24  1  0
 17 18  1  0
 17 20  1  0
 18 19  1  0
 20 21  2  0
 20 22  1  0
 22 23  2  0
 22 24  1  0
 23 27  1  0
 24 25  2  0
 25 26  1  0
 26 27  2  0
 27 28  1  0
 28 29  1  0
 28 34  1  0
 29 30  1  0
 30 31  1  0
 31 32  1  0
 31 33  1  0
 33 34  1  0
  3 35  1  0
  6 36  1  0
  7 37  1  0
 12 38  1  0
 14 39  1  0
 15 40  1  0
 18 41  1  0
 18 42  1  0
 19 43  1  0
 19 44  1  0
 19 45  1  0
 23 46  1  0
 29 47  1  0
 29 48  1  0
 30 49  1  0
 30 50  1  0
 31 51  1  6
 32 52  1  0
 32 53  1  0
 32 54  1  0
 33 55  1  0
 33 56  1  0
 34 57  1  0
 34 58  1  0
M  CHG  1  31   1
M  END
>  <filename_input>  (2) 
7WL4_JFU_docked.sdf

>  <pdb_id>  (2) 
7WL4_JFU

>  <pose_rank>  (2) 
1

>  <num_atoms_heavy>  (2) 
34

>  <num_torsions>  (2) 
4

>  <pose>  (2) 
[6.2891493160812555, 11.600818233103292, 32.79675817407413, 2.206048865392079, -1.5308864393736445, 5.641346673598377, 0.09364597377713299, 6.02339167781465, -2.6616456169743885, 6.521258602887893]

>  <energy>  (2) 
-1460.3783105574855

>  <inter_energy>  (2) 
-1507.5266193966288

>  <intra_energy>  (2) 
56.791360162458055

>  <rmsd>  (2) 
3.55558

>  <sdf_rank>  (2) 
0

$$$$

     RDKit          3D

 58 62  0  0  0  0  0  0  0  0999 V2000
    4.6504   11.8350   28.1283 F   0  0  0  0  0  0  0  0  0  0  0  0
    4.4776   13.0267   28.6608 C   0  0  0  0  0  0  0  0  0  0  0  0
    3.5514   13.9278   28.1387 C   0  0  0  0  0  0  0  0  0  0  0  0
    3.3944   15.1639   28.7181 C   0  0  0  0  0  0  0  0  0  0  0  0
    2.5695   16.0358   28.2515 F   0  0  0  0  0  0  0  0  0  0  0  0
    4.1376   15.5088   29.8193 C   0  0  0  0  0  0  0  0  0  0  0  0
    5.0527   14.6215   30.3413 C   0  0  0  0  0  0  0  0  0  0  0  0
    5.2374   13.3827   29.7639 C   0  0  0  0  0  0  0  0  0  0  0  0
    6.4409   12.3014   30.4340 S   0  0  1  0  0  0  0  0  0  0  0  0
    5.8850   10.9011   30.2867 O   0  0  0  0  0  0  0  0  0  0  0  0
    7.7717   12.5237   29.7297 O   0  0  0  0  0  0  0  0  0  0  0  0
    6.5446   12.6611   32.0398 N   0  0  0  0  0  0  0  0  0  0  0  0
    6.3579   11.6847   32.9823 C   0  0  0  0  0  0  0  0  0  0  0  0
    7.4301   10.9825   33.5635 C   0  0  0  0  0  0  0  0  0  0  0  0
    7.1676   10.0042   34.5436 C   0  0  0  0  0  0  0  0  0  0  0  0
    5.9051    9.7482   34.9260 C   0  0  0  0  0  0  0  0  0  0  0  0
    5.3721    8.8914   35.8239 N   0  0  0  0  0  0  0  0  0  0  0  0
    6.2086    7.9524   36.6087 C   0  0  0  0  0  0  0  0  0  0  0  0
    5.6332    7.7254   38.0088 C   0  0  0  0  0  0  0  0  0  0  0  0
    4.0356    9.0670   35.7967 C   0  0  0  0  0  0  0  0  0  0  0  0
    3.2512    8.4219   36.5061 O   0  0  0  0  0  0  0  0  0  0  0  0
    3.7201   10.0336   34.8813 C   0  0  0  0  0  0  0  0  0  0  0  0
    2.5963   10.6347   34.4030 C   0  0  0  0  0  0  0  0  0  0  0  0
    4.9012   10.4308   34.3743 C   0  0  0  0  0  0  0  0  0  0  0  0
    5.0576   11.4042   33.4278 C   0  0  0  0  0  0  0  0  0  0  0  0
    3.9332   11.9965   32.9449 N   0  0  0  0  0  0  0  0  0  0  0  0
    2.7047   11.6710   33.4203 C   0  0  0  0  0  0  0  0  0  0  0  0
    1.6333   12.3264   32.8695 N   0  0  0  0  0  0  0  0  0  0  0  0
    0.2994   11.7789   32.9054 C   0  0  0  0  0  0  0  0  0  0  0  0
   -0.7368   12.8835   32.8026 C   0  0  0  0  0  0  0  0  0  0  0  0
   -0.6230   13.6379   31.5675 N   0  0  1  0  0  0  0  0  0  0  0  0
   -1.6753   14.6229   31.4309 C   0  0  0  0  0  0  0  0  0  0  0  0
    0.6420   14.3900   31.7791 C   0  0  0  0  0  0  0  0  0  0  0  0
    1.8519   13.4578   31.9396 C   0  0  0  0  0  0  0  0  0  0  0  0
    2.9463   13.6496   27.2632 H   0  0  0  0  0  0  0  0  0  0  0  0
    4.0022   16.4957   30.2858 H   0  0  0  0  0  0  0  0  0  0  0  0
    5.6414   14.9035   31.2266 H   0  0  0  0  0  0  0  0  0  0  0  0
    6.7509   13.6258   32.3360 H   0  0  0  0  0  0  0  0  0  0  0  0
    8.4644   11.1952   33.2554 H   0  0  0  0  0  0  0  0  0  0  0  0
    8.0005    9.4475   34.9978 H   0  0  0  0  0  0  0  0  0  0  0  0
    6.2556    6.9886   36.0808 H   0  0  0  0  0  0  0  0  0  0  0  0
    7.2123    8.3899   36.7146 H   0  0  0  0  0  0  0  0  0  0  0  0
    6.3778    8.0192   38.7633 H   0  0  0  0  0  0  0  0  0  0  0  0
    4.7245    8.3323   38.1346 H   0  0  0  0  0  0  0  0  0  0  0  0
    5.3839    6.6614   38.1346 H   0  0  0  0  0  0  0  0  0  0  0  0
    1.6067   10.3251   34.7704 H   0  0  0  0  0  0  0  0  0  0  0  0
    0.1714   11.0841   32.0623 H   0  0  0  0  0  0  0  0  0  0  0  0
    0.1595   11.2505   33.8600 H   0  0  0  0  0  0  0  0  0  0  0  0
   -1.7391   12.4328   32.8498 H   0  0  0  0  0  0  0  0  0  0  0  0
   -0.5675   13.5800   33.6370 H   0  0  0  0  0  0  0  0  0  0  0  0
   -0.6649   13.0248   30.7409 H   0  0  0  0  0  0  0  0  0  0  0  0
   -2.0132   14.9392   32.4288 H   0  0  0  0  0  0  0  0  0  0  0  0
   -1.2924   15.4946   30.8801 H   0  0  0  0  0  0  0  0  0  0  0  0
   -2.5199   14.1832   30.8801 H   0  0  0  0  0  0  0  0  0  0  0  0
    0.8130   15.0463   30.9130 H   0  0  0  0  0  0  0  0  0  0  0  0
    0.5380   14.9708   32.7075 H   0  0  0  0  0  0  0  0  0  0  0  0
    2.6975   14.0530   32.3147 H   0  0  0  0  0  0  0  0  0  0  0  0
    2.0428   13.0180   30.9495 H   0  0  0  0  0  0  0  0  0  0  0  0
  1  2  1  0
  2  3  2  0
  2  8  1  0
  3  4  1  0
  4  5  1  0
  4  6  2  0
  6  7  1  0
  7  8  2  0
  8  9  1  0
  9 10  2  0
  9 11  2  0
  9 12  1  1
 12 13  1  0
 13 14  2  0
 13 25  1  0
 14 15  1  0
 15 16  2  0
 16 17  1  0
 16 24  1  0
 17 18  1  0
 17 20  1  0
 18 19  1  0
 20 21  2  0
 20 22  1  0
 22 23  2  0
 22 24  1  0
 23 27  1  0
 24 25  2  0
 25 26  1  0
 26 27  2  0
 27 28  1  0
 28 29  1  0
 28 34  1  0
 29 30  1  0
 30 31  1  0
 31 32  1  0
 31 33  1  0
 33 34  1  0
  3 35  1  0
  6 36  1  0
  7 37  1  0
 12 38  1  0
 14 39  1  0
 15 40  1  0
 18 41  1  0
 18 42  1  0
 19 43  1  0
 19 44  1  0
 19 45  1  0
 23 46  1  0
 29 47  1  0
 29 48  1  0
 30 49  1  0
 30 50  1  0
 31 51  1  6
 32 52  1  0
 32 53  1  0
 32 54  1  0
 33 55  1  0
 33 56  1  0
 34 57  1  0
 34 58  1  0
M  CHG  1  31   1
M  END
>  <filename_input>  (3) 
7WL4_JFU_docked.sdf

>  <pdb_id>  (3) 
7WL4_JFU

>  <pose_rank>  (3) 
2

>  <num_atoms_heavy>  (3) 
34

>  <num_torsions>  (3) 
4

>  <pose>  (3) 
[6.357944625587345, 11.684705138937243, 32.98232137822457, -4.339029324170504, -0.6933650208668912, 4.377427266616537, -2.1498974506578707, -5.800629230364085, -17.7678985113514, -3.7667186318969756]

>  <energy>  (3) 
-1457.2519863167477

>  <inter_energy>  (3) 
-1464.4042580839323

>  <intra_energy>  (3) 
28.365309691166054

>  <rmsd>  (3) 
2.45053

>  <sdf_rank>  (3) 
0

$$$$

     RDKit          3D

 58 62  0  0  0  0  0  0  0  0999 V2000
    7.0260   10.7162   29.5103 F   0  0  0  0  0  0  0  0  0  0  0  0
    5.7748   10.3146   29.4275 C   0  0  0  0  0  0  0  0  0  0  0  0
    5.4485    9.0539   28.9310 C   0  0  0  0  0  0  0  0  0  0  0  0
    4.1326    8.6643   28.8582 C   0  0  0  0  0  0  0  0  0  0  0  0
    3.7859    7.5193   28.3815 F   0  0  0  0  0  0  0  0  0  0  0  0
    3.1388    9.5085   29.2867 C   0  0  0  0  0  0  0  0  0  0  0  0
    3.4554   10.7545   29.7808 C   0  0  0  0  0  0  0  0  0  0  0  0
    4.7686   11.1708   29.8460 C   0  0  0  0  0  0  0  0  0  0  0  0
    5.1240   12.7788   30.4417 S   0  0  1  0  0  0  0  0  0  0  0  0
    5.7100   13.5456   29.2754 O   0  0  0  0  0  0  0  0  0  0  0  0
    3.8604   13.3953   31.0245 O   0  0  0  0  0  0  0  0  0  0  0  0
    6.2901   12.5991   31.5936 N   0  0  0  0  0  0  0  0  0  0  0  0
    6.1343   11.6836   32.6007 C   0  0  0  0  0  0  0  0  0  0  0  0
    7.2174   10.9675   33.1434 C   0  0  0  0  0  0  0  0  0  0  0  0
    6.9887   10.0555   34.1933 C   0  0  0  0  0  0  0  0  0  0  0  0
    5.7483    9.8755   34.6780 C   0  0  0  0  0  0  0  0  0  0  0  0
    5.2489    9.0920   35.6582 N   0  0  0  0  0  0  0  0  0  0  0  0
    6.1027    8.1609   36.4338 C   0  0  0  0  0  0  0  0  0  0  0  0
    5.6917    8.1194   37.9076 C   0  0  0  0  0  0  0  0  0  0  0  0
    3.9219    9.3239   35.7158 C   0  0  0  0  0  0  0  0  0  0  0  0
    3.1666    8.7524   36.5142 O   0  0  0  0  0  0  0  0  0  0  0  0
    3.5789   10.2529   34.7719 C   0  0  0  0  0  0  0  0  0  0  0  0
    2.4478   10.8758   34.3410 C   0  0  0  0  0  0  0  0  0  0  0  0
    4.7346   10.5706   34.1609 C   0  0  0  0  0  0  0  0  0  0  0  0
    4.8598   11.4842   33.1522 C   0  0  0  0  0  0  0  0  0  0  0  0
    3.7275   12.0982   32.7173 N   0  0  0  0  0  0  0  0  0  0  0  0
    2.5251   11.8524   33.2961 C   0  0  0  0  0  0  0  0  0  0  0  0
    1.4430   12.5233   32.7863 N   0  0  0  0  0  0  0  0  0  0  0  0
    0.0947   12.0371   32.9473 C   0  0  0  0  0  0  0  0  0  0  0  0
   -0.9017   13.1787   32.8558 C   0  0  0  0  0  0  0  0  0  0  0  0
   -0.8486   13.8601   31.5750 N   0  0  1  0  0  0  0  0  0  0  0  0
   -1.8684   14.8813   31.4578 C   0  0  0  0  0  0  0  0  0  0  0  0
    0.4572   14.5668   31.6538 C   0  0  0  0  0  0  0  0  0  0  0  0
    1.6377   13.5927   31.7807 C   0  0  0  0  0  0  0  0  0  0  0  0
    6.2437    8.3710   28.5975 H   0  0  0  0  0  0  0  0  0  0  0  0
    2.0874    9.1892   29.2355 H   0  0  0  0  0  0  0  0  0  0  0  0
    2.6537   11.4237   30.1264 H   0  0  0  0  0  0  0  0  0  0  0  0
    7.1407   13.1787   31.5558 H   0  0  0  0  0  0  0  0  0  0  0  0
    8.2340   11.1183   32.7514 H   0  0  0  0  0  0  0  0  0  0  0  0
    7.8299    9.4882   34.6182 H   0  0  0  0  0  0  0  0  0  0  0  0
    6.0089    7.1510   36.0079 H   0  0  0  0  0  0  0  0  0  0  0  0
    7.1423    8.5154   36.3750 H   0  0  0  0  0  0  0  0  0  0  0  0
    6.5868    8.2098   38.5405 H   0  0  0  0  0  0  0  0  0  0  0  0
    5.0062    8.9530   38.1207 H   0  0  0  0  0  0  0  0  0  0  0  0
    5.1866    7.1658   38.1207 H   0  0  0  0  0  0  0  0  0  0  0  0
    1.4763   10.6297   34.7944 H   0  0  0  0  0  0  0  0  0  0  0  0
   -0.1218   11.3044   32.1560 H   0  0  0  0  0  0  0  0  0  0  0  0
    0.0041   11.5671   33.9378 H   0  0  0  0  0  0  0  0  0  0  0  0
   -1.9149   12.7751   32.9991 H   0  0  0  0  0  0  0  0  0  0  0  0
   -0.6445   13.9108   33.6354 H   0  0  0  0  0  0  0  0  0  0  0  0
   -0.9750   13.2061   30.7894 H   0  0  0  0  0  0  0  0  0  0  0  0
   -2.1860   15.1993   32.4618 H   0  0  0  0  0  0  0  0  0  0  0  0
   -1.4614   15.7448   30.9112 H   0  0  0  0  0  0  0  0  0  0  0  0
   -2.7325   14.4755   30.9112 H   0  0  0  0  0  0  0  0  0  0  0  0
    0.5903   15.1677   30.7421 H   0  0  0  0  0  0  0  0  0  0  0  0
    0.4443   15.2004   32.5529 H   0  0  0  0  0  0  0  0  0  0  0  0
    2.5313   14.1698   32.0608 H   0  0  0  0  0  0  0  0  0  0  0  0
    1.7383   13.0927   30.8061 H   0  0  0  0  0  0  0  0  0  0  0  0
  1  2  1  0
  2  3  2  0
  2  8  1  0
  3  4  1  0
  4  5  1  0
  4  6  2  0
  6  7  1  0
  7  8  2  0
  8  9  1  0
  9 10  2  0
  9 11  2  0
  9 12  1  1
 12 13  1  0
 13 14  2  0
 13 25  1  0
 14 15  1  0
 15 16  2  0
 16 17  1  0
 16 24  1  0
 17 18  1  0
 17 20  1  0
 18 19  1  0
 20 21  2  0
 20 22  1  0
 22 23  2  0
 22 24  1  0
 23 27  1  0
 24 25  2  0
 25 26  1  0
 26 27  2  0
 27 28  1  0
 28 29  1  0
 28 34  1  0
 29 30  1  0
 30 31  1  0
 31 32  1  0
 31 33  1  0
 33 34  1  0
  3 35  1  0
  6 36  1  0
  7 37  1  0
 12 38  1  0
 14 39  1  0
 15 40  1  0
 18 41  1  0
 18 42  1  0
 19 43  1  0
 19 44  1  0
 19 45  1  0
 23 46  1  0
 29 47  1  0
 29 48  1  0
 30 49  1  0
 30 50  1  0
 31 51  1  6
 32 52  1  0
 32 53  1  0
 32 54  1  0
 33 55  1  0
 33 56  1  0
 34 57  1  0
 34 58  1  0
M  CHG  1  31   1
M  END
>  <filename_input>  (4) 
7WL4_JFU_docked.sdf

>  <pdb_id>  (4) 
7WL4_JFU

>  <pose_rank>  (4) 
3

>  <num_atoms_heavy>  (4) 
34

>  <num_torsions>  (4) 
4

>  <pose>  (4) 
[6.134258534190427, 11.683620902802602, 32.60071655158906, 0.02396383614994684, -3.7734939809300445, 4.863251467943505, 4.05416373468227, 1.3496320046731751, -1.9670220561760108, 4.272656295650992]

>  <energy>  (4) 
-1238.3282700040222

>  <inter_energy>  (4) 
-1440.2192381107643

>  <intra_energy>  (4) 
200.02155545545543

>  <rmsd>  (4) 
1.53658

>  <sdf_rank>  (4) 
0

$$$$

     RDKit          3D

 58 62  0  0  0  0  0  0  0  0999 V2000
    9.1836   12.1133   32.7526 F   0  0  0  0  0  0  0  0  0  0  0  0
    8.9078   12.8365   31.6875 C   0  0  0  0  0  0  0  0  0  0  0  0
    9.9076   13.5118   30.9899 C   0  0  0  0  0  0  0  0  0  0  0  0
    9.5870   14.2579   29.8813 C   0  0  0  0  0  0  0  0  0  0  0  0
   10.4756   14.9186   29.2238 F   0  0  0  0  0  0  0  0  0  0  0  0
    8.2857   14.3285   29.4503 C   0  0  0  0  0  0  0  0  0  0  0  0
    7.2938   13.6612   30.1342 C   0  0  0  0  0  0  0  0  0  0  0  0
    7.5925   12.9211   31.2590 C   0  0  0  0  0  0  0  0  0  0  0  0
    6.2952   12.1226   32.1228 S   0  0  1  0  0  0  0  0  0  0  0  0
    6.1150   12.8832   33.4192 O   0  0  0  0  0  0  0  0  0  0  0  0
    5.0525   12.0784   31.2452 O   0  0  0  0  0  0  0  0  0  0  0  0
    6.8366   10.6051   32.4729 N   0  0  0  0  0  0  0  0  0  0  0  0
    6.4417    9.9767   33.6243 C   0  0  0  0  0  0  0  0  0  0  0  0
    7.3258    9.2114   34.4074 C   0  0  0  0  0  0  0  0  0  0  0  0
    6.8577    8.6091   35.5925 C   0  0  0  0  0  0  0  0  0  0  0  0
    5.5799    8.7692   35.9765 C   0  0  0  0  0  0  0  0  0  0  0  0
    4.8769    8.3242   37.0404 N   0  0  0  0  0  0  0  0  0  0  0  0
    5.4799    7.4458   38.0710 C   0  0  0  0  0  0  0  0  0  0  0  0
    6.6708    6.6628   37.5128 C   0  0  0  0  0  0  0  0  0  0  0  0
    3.6219    8.8013   36.9159 C   0  0  0  0  0  0  0  0  0  0  0  0
    2.7217    8.5665   37.7338 O   0  0  0  0  0  0  0  0  0  0  0  0
    3.5280    9.5476   35.7731 C   0  0  0  0  0  0  0  0  0  0  0  0
    2.5717   10.2568   35.1130 C   0  0  0  0  0  0  0  0  0  0  0  0
    4.7580    9.5072   35.2296 C   0  0  0  0  0  0  0  0  0  0  0  0
    5.1228   10.1390   34.0739 C   0  0  0  0  0  0  0  0  0  0  0  0
    4.1637   10.8390   33.4116 N   0  0  0  0  0  0  0  0  0  0  0  0
    2.9044   10.9497   33.9044 C   0  0  0  0  0  0  0  0  0  0  0  0
    2.0103   11.6787   33.1627 N   0  0  0  0  0  0  0  0  0  0  0  0
    0.5849   11.4941   33.2829 C   0  0  0  0  0  0  0  0  0  0  0  0
   -0.1561   12.7502   32.8613 C   0  0  0  0  0  0  0  0  0  0  0  0
    0.1078   13.1130   31.4806 N   0  0  1  0  0  0  0  0  0  0  0  0
   -0.6785   14.2523   31.0562 C   0  0  0  0  0  0  0  0  0  0  0  0
    1.5215   13.5692   31.5448 C   0  0  0  0  0  0  0  0  0  0  0  0
    2.4740   12.4478   31.9853 C   0  0  0  0  0  0  0  0  0  0  0  0
   10.9529   13.4476   31.3265 H   0  0  0  0  0  0  0  0  0  0  0  0
    8.0347   14.9192   28.5570 H   0  0  0  0  0  0  0  0  0  0  0  0
    6.2540   13.7190   29.7801 H   0  0  0  0  0  0  0  0  0  0  0  0
    7.4757   10.1267   31.8220 H   0  0  0  0  0  0  0  0  0  0  0  0
    8.3734    9.0844   34.0972 H   0  0  0  0  0  0  0  0  0  0  0  0
    7.5419    8.0048   36.2063 H   0  0  0  0  0  0  0  0  0  0  0  0
    5.8223    8.0653   38.9129 H   0  0  0  0  0  0  0  0  0  0  0  0
    4.7167    6.7253   38.4002 H   0  0  0  0  0  0  0  0  0  0  0  0
    7.2721    6.2675   38.3447 H   0  0  0  0  0  0  0  0  0  0  0  0
    6.3046    5.8287   36.8962 H   0  0  0  0  0  0  0  0  0  0  0  0
    7.2915    7.3296   36.8962 H   0  0  0  0  0  0  0  0  0  0  0  0
    1.5455   10.2976   35.5070 H   0  0  0  0  0  0  0  0  0  0  0  0
    0.2735   10.6580   32.6395 H   0  0  0  0  0  0  0  0  0  0  0  0
    0.3438   11.2772   34.3340 H   0  0  0  0  0  0  0  0  0  0  0  0
   -1.2362   12.5798   32.9812 H   0  0  0  0  0  0  0  0  0  0  0  0
    0.1956   13.5757   33.4974 H   0  0  0  0  0  0  0  0  0  0  0  0
   -0.0999   12.3371   30.8359 H   0  0  0  0  0  0  0  0  0  0  0  0
   -1.0503   14.7910   31.9402 H   0  0  0  0  0  0  0  0  0  0  0  0
   -0.0521   14.9259   30.4529 H   0  0  0  0  0  0  0  0  0  0  0  0
   -1.5304   13.9055   30.4529 H   0  0  0  0  0  0  0  0  0  0  0  0
    1.8258   13.9211   30.5480 H   0  0  0  0  0  0  0  0  0  0  0  0
    1.5824   14.3758   32.2902 H   0  0  0  0  0  0  0  0  0  0  0  0
    3.4467   12.8991   32.2305 H   0  0  0  0  0  0  0  0  0  0  0  0
    2.5301   11.7366   31.1480 H   0  0  0  0  0  0  0  0  0  0  0  0
  1  2  1  0
  2  3  2  0
  2  8  1  0
  3  4  1  0
  4  5  1  0
  4  6  2  0
  6  7  1  0
  7  8  2  0
  8  9  1  0
  9 10  2  0
  9 11  2  0
  9 12  1  1
 12 13  1  0
 13 14  2  0
 13 25  1  0
 14 15  1  0
 15 16  2  0
 16 17  1  0
 16 24  1  0
 17 18  1  0
 17 20  1  0
 18 19  1  0
 20 21  2  0
 20 22  1  0
 22 23  2  0
 22 24  1  0
 23 27  1  0
 24 25  2  0
 25 26  1  0
 26 27  2  0
 27 28  1  0
 28 29  1  0
 28 34  1  0
 29 30  1  0
 30 31  1  0
 31 32  1  0
 31 33  1  0
 33 34  1  0
  3 35  1  0
  6 36  1  0
  7 37  1  0
 12 38  1  0
 14 39  1  0
 15 40  1  0
 18 41  1  0
 18 42  1  0
 19 43  1  0
 19 44  1  0
 19 45  1  0
 23 46  1  0
 29 47  1  0
 29 48  1  0
 30 49  1  0
 30 50  1  0
 31 51  1  6
 32 52  1  0
 32 53  1  0
 32 54  1  0
 33 55  1  0
 33 56  1  0
 34 57  1  0
 34 58  1  0
M  CHG  1  31   1
M  END
>  <filename_input>  (5) 
7WL4_JFU_docked.sdf

>  <pdb_id>  (5) 
7WL4_JFU

>  <pose_rank>  (5) 
4

>  <num_atoms_heavy>  (5) 
34

>  <num_torsions>  (5) 
4

>  <pose>  (5) 
[6.4416929818164625, 9.976668333701445, 33.624341710291986, -0.203235507801504, -0.01410371695849879, -0.30266689077469733, 1.154228862790162, -3.6192535543533526, 1.4782803852596735, 4.3778035333200584]

>  <energy>  (5) 
-738.637110833824

>  <inter_energy>  (5) 
-906.9401883713826

>  <intra_energy>  (5) 
142.26465166904538

>  <rmsd>  (5) 
3.37207

>  <sdf_rank>  (5) 
0

$$$$

     RDKit          3D

 58 62  0  0  0  0  0  0  0  0999 V2000
    7.3055    9.6435   29.1406 F   0  0  0  0  0  0  0  0  0  0  0  0
    6.5229   10.7015   29.0993 C   0  0  0  0  0  0  0  0  0  0  0  0
    5.5555   10.8504   28.1071 C   0  0  0  0  0  0  0  0  0  0  0  0
    4.7538   11.9664   28.0922 C   0  0  0  0  0  0  0  0  0  0  0  0
    3.8661   12.1561   27.1786 F   0  0  0  0  0  0  0  0  0  0  0  0
    4.8934   12.9290   29.0606 C   0  0  0  0  0  0  0  0  0  0  0  0
    5.8460   12.7860   30.0451 C   0  0  0  0  0  0  0  0  0  0  0  0
    6.6719   11.6817   30.0676 C   0  0  0  0  0  0  0  0  0  0  0  0
    7.8976   11.5598   31.3125 S   0  0  1  0  0  0  0  0  0  0  0  0
    8.1551   10.0817   31.5137 O   0  0  0  0  0  0  0  0  0  0  0  0
    9.1249   12.3581   30.8967 O   0  0  0  0  0  0  0  0  0  0  0  0
    7.2233   12.1694   32.6881 N   0  0  0  0  0  0  0  0  0  0  0  0
    6.7674   11.3280   33.6684 C   0  0  0  0  0  0  0  0  0  0  0  0
    7.6356   10.6481   34.5427 C   0  0  0  0  0  0  0  0  0  0  0  0
    7.0978    9.8135   35.5430 C   0  0  0  0  0  0  0  0  0  0  0  0
    5.7671    9.6728   35.6666 C   0  0  0  0  0  0  0  0  0  0  0  0
    4.9925    8.9625   36.5149 N   0  0  0  0  0  0  0  0  0  0  0  0
    5.5698    8.0855   37.5612 C   0  0  0  0  0  0  0  0  0  0  0  0
    4.5526    7.0510   38.0493 C   0  0  0  0  0  0  0  0  0  0  0  0
    3.7092    9.2027   36.1778 C   0  0  0  0  0  0  0  0  0  0  0  0
    2.7456    8.6920   36.7653 O   0  0  0  0  0  0  0  0  0  0  0  0
    3.6693   10.0639   35.1155 C   0  0  0  0  0  0  0  0  0  0  0  0
    2.7213   10.6590   34.3407 C   0  0  0  0  0  0  0  0  0  0  0  0
    4.9578   10.3333   34.8379 C   0  0  0  0  0  0  0  0  0  0  0  0
    5.3848   11.1728   33.8475 C   0  0  0  0  0  0  0  0  0  0  0  0
    4.4365   11.7587   33.0692 N   0  0  0  0  0  0  0  0  0  0  0  0
    3.1140   11.5589   33.2979 C   0  0  0  0  0  0  0  0  0  0  0  0
    2.2365   12.1961   32.4584 N   0  0  0  0  0  0  0  0  0  0  0  0
    0.8866   11.7275   32.2622 C   0  0  0  0  0  0  0  0  0  0  0  0
   -0.0160   12.8633   31.8155 C   0  0  0  0  0  0  0  0  0  0  0  0
    0.4133   13.4523   30.5600 N   0  0  1  0  0  0  0  0  0  0  0  0
   -0.5072   14.4664   30.0902 C   0  0  0  0  0  0  0  0  0  0  0  0
    1.6598   14.1579   30.9588 C   0  0  0  0  0  0  0  0  0  0  0  0
    2.7329   13.1909   31.4803 C   0  0  0  0  0  0  0  0  0  0  0  0
    5.4338   10.0750   27.3364 H   0  0  0  0  0  0  0  0  0  0  0  0
    4.2434   13.8163   29.0505 H   0  0  0  0  0  0  0  0  0  0  0  0
    5.9489   13.5595   30.8204 H   0  0  0  0  0  0  0  0  0  0  0  0
    7.1444   13.1890   32.8112 H   0  0  0  0  0  0  0  0  0  0  0  0
    8.7249   10.7670   34.4462 H   0  0  0  0  0  0  0  0  0  0  0  0
    7.7708    9.2746   36.2261 H   0  0  0  0  0  0  0  0  0  0  0  0
    6.4426    7.5603   37.1460 H   0  0  0  0  0  0  0  0  0  0  0  0
    5.8611    8.7134   38.4161 H   0  0  0  0  0  0  0  0  0  0  0  0
    4.5408    7.0390   39.1491 H   0  0  0  0  0  0  0  0  0  0  0  0
    3.5526    7.3150   37.6747 H   0  0  0  0  0  0  0  0  0  0  0  0
    4.8335    6.0556   37.6747 H   0  0  0  0  0  0  0  0  0  0  0  0
    1.6557   10.4491   34.5151 H   0  0  0  0  0  0  0  0  0  0  0  0
    0.8855   10.9414   31.4927 H   0  0  0  0  0  0  0  0  0  0  0  0
    0.5085   11.3291   33.2153 H   0  0  0  0  0  0  0  0  0  0  0  0
   -1.0376   12.4747   31.6921 H   0  0  0  0  0  0  0  0  0  0  0  0
    0.0274   13.6479   32.5854 H   0  0  0  0  0  0  0  0  0  0  0  0
    0.4989   12.7448   29.8164 H   0  0  0  0  0  0  0  0  0  0  0  0
   -0.9665   14.9723   30.9523 H   0  0  0  0  0  0  0  0  0  0  0  0
    0.0377   15.2023   29.4808 H   0  0  0  0  0  0  0  0  0  0  0  0
   -1.2923   13.9949   29.4808 H   0  0  0  0  0  0  0  0  0  0  0  0
    2.0595   14.6923   30.0843 H   0  0  0  0  0  0  0  0  0  0  0  0
    1.4081   14.8536   31.7728 H   0  0  0  0  0  0  0  0  0  0  0  0
    3.5241   13.7831   31.9633 H   0  0  0  0  0  0  0  0  0  0  0  0
    3.0932   12.6228   30.6100 H   0  0  0  0  0  0  0  0  0  0  0  0
  1  2  1  0
  2  3  2  0
  2  8  1  0
  3  4  1  0
  4  5  1  0
  4  6  2  0
  6  7  1  0
  7  8  2  0
  8  9  1  0
  9 10  2  0
  9 11  2  0
  9 12  1  1
 12 13  1  0
 13 14  2  0
 13 25  1  0
 14 15  1  0
 15 16  2  0
 16 17  1  0
 16 24  1  0
 17 18  1  0
 17 20  1  0
 18 19  1  0
 20 21  2  0
 20 22  1  0
 22 23  2  0
 22 24  1  0
 23 27  1  0
 24 25  2  0
 25 26  1  0
 26 27  2  0
 27 28  1  0
 28 29  1  0
 28 34  1  0
 29 30  1  0
 30 31  1  0
 31 32  1  0
 31 33  1  0
 33 34  1  0
  3 35  1  0
  6 36  1  0
  7 37  1  0
 12 38  1  0
 14 39  1  0
 15 40  1  0
 18 41  1  0
 18 42  1  0
 19 43  1  0
 19 44  1  0
 19 45  1  0
 23 46  1  0
 29 47  1  0
 29 48  1  0
 30 49  1  0
 30 50  1  0
 31 51  1  6
 32 52  1  0
 32 53  1  0
 32 54  1  0
 33 55  1  0
 33 56  1  0
 34 57  1  0
 34 58  1  0
M  CHG  1  31   1
M  END
>  <filename_input>  (6) 
7WL4_JFU_docked.sdf

>  <pdb_id>  (6) 
7WL4_JFU

>  <pose_rank>  (6) 
5

>  <num_atoms_heavy>  (6) 
34

>  <num_torsions>  (6) 
4

>  <pose>  (6) 
[6.767449548901958, 11.328040504696299, 33.66840084456838, 1.3360699608297835, 5.160733517239261, 2.828022139314156, -1.2182425386687714, 0.13111749938313888, -5.587084312951574, 2.6637972316075063]

>  <energy>  (6) 
-1116.2188725521596

>  <inter_energy>  (6) 
-1196.1329446733505

>  <intra_energy>  (6) 
54.26288999214786

>  <rmsd>  (6) 
1.83975

>  <sdf_rank>  (6) 
0

$$$$

     RDKit          3D

 58 62  0  0  0  0  0  0  0  0999 V2000
    8.4580   16.0933   31.3221 F   0  0  0  0  0  0  0  0  0  0  0  0
    9.1200   14.9988   31.6342 C   0  0  0  0  0  0  0  0  0  0  0  0
   10.5002   15.0154   31.8271 C   0  0  0  0  0  0  0  0  0  0  0  0
   11.1618   13.8558   32.1527 C   0  0  0  0  0  0  0  0  0  0  0  0
   12.4391   13.8218   32.3135 F   0  0  0  0  0  0  0  0  0  0  0  0
   10.4647   12.6830   32.3028 C   0  0  0  0  0  0  0  0  0  0  0  0
    9.1003   12.6610   32.1159 C   0  0  0  0  0  0  0  0  0  0  0  0
    8.4203   13.8104   31.7719 C   0  0  0  0  0  0  0  0  0  0  0  0
    6.6917   13.7295   31.5027 S   0  0  1  0  0  0  0  0  0  0  0  0
    6.0390   14.2528   32.7643 O   0  0  0  0  0  0  0  0  0  0  0  0
    6.3367   14.5091   30.2447 O   0  0  0  0  0  0  0  0  0  0  0  0
    6.3220   12.1307   31.3420 N   0  0  0  0  0  0  0  0  0  0  0  0
    6.2709   11.3171   32.4430 C   0  0  0  0  0  0  0  0  0  0  0  0
    7.4265   10.7708   33.0316 C   0  0  0  0  0  0  0  0  0  0  0  0
    7.3030    9.9582   34.1765 C   0  0  0  0  0  0  0  0  0  0  0  0
    6.0931    9.7119   34.7069 C   0  0  0  0  0  0  0  0  0  0  0  0
    5.6867    8.9930   35.7756 N   0  0  0  0  0  0  0  0  0  0  0  0
    6.6385    8.2367   36.6237 C   0  0  0  0  0  0  0  0  0  0  0  0
    6.2594    6.7561   36.7083 C   0  0  0  0  0  0  0  0  0  0  0  0
    4.3442    9.1005   35.8402 C   0  0  0  0  0  0  0  0  0  0  0  0
    3.6597    8.5473   36.7120 O   0  0  0  0  0  0  0  0  0  0  0  0
    3.8986    9.8861   34.8126 C   0  0  0  0  0  0  0  0  0  0  0  0
    2.7058   10.3475   34.3460 C   0  0  0  0  0  0  0  0  0  0  0  0
    5.0090   10.2469   34.1442 C   0  0  0  0  0  0  0  0  0  0  0  0
    5.0299   11.0555   33.0426 C   0  0  0  0  0  0  0  0  0  0  0  0
    3.8368   11.5075   32.5731 N   0  0  0  0  0  0  0  0  0  0  0  0
    2.6724   11.2099   33.2030 C   0  0  0  0  0  0  0  0  0  0  0  0
    1.5227   11.7151   32.6518 N   0  0  0  0  0  0  0  0  0  0  0  0
    0.2312   11.1210   32.8951 C   0  0  0  0  0  0  0  0  0  0  0  0
   -0.8740   12.1448   32.7083 C   0  0  0  0  0  0  0  0  0  0  0  0
   -0.9057   12.6877   31.3623 N   0  0  1  0  0  0  0  0  0  0  0  0
   -2.0226   13.5874   31.1631 C   0  0  0  0  0  0  0  0  0  0  0  0
    0.3251   13.5214   31.3353 C   0  0  0  0  0  0  0  0  0  0  0  0
    1.5975   12.6849   31.5353 C   0  0  0  0  0  0  0  0  0  0  0  0
   11.0597   15.9563   31.7187 H   0  0  0  0  0  0  0  0  0  0  0  0
   10.9968   11.7589   32.5727 H   0  0  0  0  0  0  0  0  0  0  0  0
    8.5480   11.7181   32.2423 H   0  0  0  0  0  0  0  0  0  0  0  0
    6.1284   11.7414   30.4083 H   0  0  0  0  0  0  0  0  0  0  0  0
    8.4180   10.9763   32.6017 H   0  0  0  0  0  0  0  0  0  0  0  0
    8.2017    9.5232   34.6382 H   0  0  0  0  0  0  0  0  0  0  0  0
    7.6473    8.3234   36.1939 H   0  0  0  0  0  0  0  0  0  0  0  0
    6.6079    8.6595   37.6387 H   0  0  0  0  0  0  0  0  0  0  0  0
    6.1828    6.4570   37.7641 H   0  0  0  0  0  0  0  0  0  0  0  0
    5.2914    6.5965   36.2108 H   0  0  0  0  0  0  0  0  0  0  0  0
    7.0315    6.1509   36.2108 H   0  0  0  0  0  0  0  0  0  0  0  0
    1.7696   10.0585   34.8459 H   0  0  0  0  0  0  0  0  0  0  0  0
    0.0771   10.2906   32.1904 H   0  0  0  0  0  0  0  0  0  0  0  0
    0.2008   10.7528   33.9312 H   0  0  0  0  0  0  0  0  0  0  0  0
   -1.8405   11.6630   32.9174 H   0  0  0  0  0  0  0  0  0  0  0  0
   -0.6796   12.9773   33.4005 H   0  0  0  0  0  0  0  0  0  0  0  0
   -0.9777   11.9445   30.6528 H   0  0  0  0  0  0  0  0  0  0  0  0
   -2.4165   13.9047   32.1399 H   0  0  0  0  0  0  0  0  0  0  0  0
   -1.6864   14.4699   30.5991 H   0  0  0  0  0  0  0  0  0  0  0  0
   -2.8133   13.0710   30.5991 H   0  0  0  0  0  0  0  0  0  0  0  0
    0.3860   14.0317   30.3627 H   0  0  0  0  0  0  0  0  0  0  0  0
    0.2621   14.2431   32.1631 H   0  0  0  0  0  0  0  0  0  0  0  0
    2.4336   13.3721   31.7319 H   0  0  0  0  0  0  0  0  0  0  0  0
    1.7335   12.0959   30.6163 H   0  0  0  0  0  0  0  0  0  0  0  0
  1  2  1  0
  2  3  2  0
  2  8  1  0
  3  4  1  0
  4  5  1  0
  4  6  2  0
  6  7  1  0
  7  8  2  0
  8  9  1  0
  9 10  2  0
  9 11  2  0
  9 12  1  6
 12 13  1  0
 13 14  2  0
 13 25  1  0
 14 15  1  0
 15 16  2  0
 16 17  1  0
 16 24  1  0
 17 18  1  0
 17 20  1  0
 18 19  1  0
 20 21  2  0
 20 22  1  0
 22 23  2  0
 22 24  1  0
 23 27  1  0
 24 25  2  0
 25 26  1  0
 26 27  2  0
 27 28  1  0
 28 29  1  0
 28 34  1  0
 29 30  1  0
 30 31  1  0
 31 32  1  0
 31 33  1  0
 33 34  1  0
  3 35  1  0
  6 36  1  0
  7 37  1  0
 12 38  1  0
 14 39  1  0
 15 40  1  0
 18 41  1  0
 18 42  1  0
 19 43  1  0
 19 44  1  0
 19 45  1  0
 23 46  1  0
 29 47  1  0
 29 48  1  0
 30 49  1  0
 30 50  1  0
 31 51  1  6
 32 52  1  0
 32 53  1  0
 32 54  1  0
 33 55  1  0
 33 56  1  0
 34 57  1  0
 34 58  1  0
M  CHG  1  31   1
M  END
>  <filename_input>  (7) 
7WL4_JFU_docked.sdf

>  <pdb_id>  (7) 
7WL4_JFU

>  <pose_rank>  (7) 
6

>  <num_atoms_heavy>  (7) 
34

>  <num_torsions>  (7) 
4

>  <pose>  (7) 
[6.270872828316657, 11.317053039078756, 32.44295912232157, 4.734703130242708, -3.8961422189088366, 0.301535178736832, -0.581164547830567, -2.5901743643459585, 0.23567962757607336, 1.746125374770882]

>  <energy>  (7) 
-1066.0230568478823

>  <inter_energy>  (7) 
-1134.8231192160813

>  <intra_energy>  (7) 
65.53757538967565

>  <rmsd>  (7) 
3.65816

>  <sdf_rank>  (7) 
0

$$$$

     RDKit          3D

 58 62  0  0  0  0  0  0  0  0999 V2000
    6.9294   10.2811   29.8457 F   0  0  0  0  0  0  0  0  0  0  0  0
    5.8528   10.0438   29.1260 C   0  0  0  0  0  0  0  0  0  0  0  0
    5.4934    8.7470   28.7632 C   0  0  0  0  0  0  0  0  0  0  0  0
    4.3630    8.5328   28.0118 C   0  0  0  0  0  0  0  0  0  0  0  0
    4.0095    7.3538   27.6327 F   0  0  0  0  0  0  0  0  0  0  0  0
    3.5782    9.5919   27.6292 C   0  0  0  0  0  0  0  0  0  0  0  0
    3.9270   10.8754   27.9869 C   0  0  0  0  0  0  0  0  0  0  0  0
    5.0668   11.1129   28.7261 C   0  0  0  0  0  0  0  0  0  0  0  0
    5.4959   12.7636   29.1236 S   0  0  1  0  0  0  0  0  0  0  0  0
    7.0031   12.8507   29.0125 O   0  0  0  0  0  0  0  0  0  0  0  0
    4.7446   13.7184   28.2069 O   0  0  0  0  0  0  0  0  0  0  0  0
    5.0698   12.9863   30.7008 N   0  0  0  0  0  0  0  0  0  0  0  0
    3.7513   12.9665   31.0720 C   0  0  0  0  0  0  0  0  0  0  0  0
    2.7535   13.6449   30.3476 C   0  0  0  0  0  0  0  0  0  0  0  0
    1.4124   13.5648   30.7737 C   0  0  0  0  0  0  0  0  0  0  0  0
    1.0868   12.8414   31.8584 C   0  0  0  0  0  0  0  0  0  0  0  0
   -0.0871   12.5887   32.4766 N   0  0  0  0  0  0  0  0  0  0  0  0
   -1.3654   13.1758   32.0092 C   0  0  0  0  0  0  0  0  0  0  0  0
   -2.1046   12.2272   31.0623 C   0  0  0  0  0  0  0  0  0  0  0  0
    0.1809   11.7872   33.5273 C   0  0  0  0  0  0  0  0  0  0  0  0
   -0.6893   11.3755   34.3068 O   0  0  0  0  0  0  0  0  0  0  0  0
    1.5242   11.5323   33.5767 C   0  0  0  0  0  0  0  0  0  0  0  0
    2.3847   10.8319   34.3654 C   0  0  0  0  0  0  0  0  0  0  0  0
    2.0425   12.1947   32.5267 C   0  0  0  0  0  0  0  0  0  0  0  0
    3.3654   12.2027   32.1835 C   0  0  0  0  0  0  0  0  0  0  0  0
    4.2241   11.5100   32.9780 N   0  0  0  0  0  0  0  0  0  0  0  0
    3.7796   10.7954   34.0423 C   0  0  0  0  0  0  0  0  0  0  0  0
    4.7247   10.1296   34.7803 N   0  0  0  0  0  0  0  0  0  0  0  0
    4.4968    9.7492   36.1527 C   0  0  0  0  0  0  0  0  0  0  0  0
    5.3663    8.5642   36.5324 C   0  0  0  0  0  0  0  0  0  0  0  0
    6.7834    8.8519   36.4035 N   0  0  1  0  0  0  0  0  0  0  0  0
    7.6070    7.7528   36.8619 C   0  0  0  0  0  0  0  0  0  0  0  0
    6.9517    8.9261   34.9281 C   0  0  0  0  0  0  0  0  0  0  0  0
    6.1258   10.0615   34.3059 C   0  0  0  0  0  0  0  0  0  0  0  0
    6.1143    7.8954   29.0782 H   0  0  0  0  0  0  0  0  0  0  0  0
    2.6691    9.4152   27.0357 H   0  0  0  0  0  0  0  0  0  0  0  0
    3.2906   11.7186   27.6803 H   0  0  0  0  0  0  0  0  0  0  0  0
    5.7993   13.1412   31.4112 H   0  0  0  0  0  0  0  0  0  0  0  0
    3.0180   14.2327   29.4563 H   0  0  0  0  0  0  0  0  0  0  0  0
    0.6282   14.0973   30.2156 H   0  0  0  0  0  0  0  0  0  0  0  0
   -2.0045   13.3807   32.8807 H   0  0  0  0  0  0  0  0  0  0  0  0
   -1.1400   14.1032   31.4624 H   0  0  0  0  0  0  0  0  0  0  0  0
   -2.6761   11.4939   31.6502 H   0  0  0  0  0  0  0  0  0  0  0  0
   -2.7929   12.8051   30.4280 H   0  0  0  0  0  0  0  0  0  0  0  0
   -1.3761   11.7009   30.4280 H   0  0  0  0  0  0  0  0  0  0  0  0
    2.0095   10.2950   35.2491 H   0  0  0  0  0  0  0  0  0  0  0  0
    4.7386   10.5991   36.8079 H   0  0  0  0  0  0  0  0  0  0  0  0
    3.4407    9.4651   36.2703 H   0  0  0  0  0  0  0  0  0  0  0  0
    5.1550    8.2917   37.5769 H   0  0  0  0  0  0  0  0  0  0  0  0
    5.1281    7.7401   35.8438 H   0  0  0  0  0  0  0  0  0  0  0  0
    7.0538    9.6863   36.9434 H   0  0  0  0  0  0  0  0  0  0  0  0
    7.6187    7.7372   37.9618 H   0  0  0  0  0  0  0  0  0  0  0  0
    7.1953    6.8045   36.4861 H   0  0  0  0  0  0  0  0  0  0  0  0
    8.6328    7.8817   36.4861 H   0  0  0  0  0  0  0  0  0  0  0  0
    8.0146    9.0957   34.7010 H   0  0  0  0  0  0  0  0  0  0  0  0
    6.5971    7.9769   34.4998 H   0  0  0  0  0  0  0  0  0  0  0  0
    6.1132    9.9199   33.2151 H   0  0  0  0  0  0  0  0  0  0  0  0
    6.6065   11.0028   34.6106 H   0  0  0  0  0  0  0  0  0  0  0  0
  1  2  1  0
  2  3  2  0
  2  8  1  0
  3  4  1  0
  4  5  1  0
  4  6  2  0
  6  7  1  0
  7  8  2  0
  8  9  1  0
  9 10  2  0
  9 11  2  0
  9 12  1  1
 12 13  1  0
 13 14  2  0
 13 25  1  0
 14 15  1  0
 15 16  2  0
 16 17  1  0
 16 24  1  0
 17 18  1  0
 17 20  1  0
 18 19  1  0
 20 21  2  0
 20 22  1  0
 22 23  2  0
 22 24  1  0
 23 27  1  0
 24 25  2  0
 25 26  1  0
 26 27  2  0
 27 28  1  0
 28 29  1  0
 28 34  1  0
 29 30  1  0
 30 31  1  0
 31 32  1  0
 31 33  1  0
 33 34  1  0
  3 35  1  0
  6 36  1  0
  7 37  1  0
 12 38  1  0
 14 39  1  0
 15 40  1  0
 18 41  1  0
 18 42  1  0
 19 43  1  0
 19 44  1  0
 19 45  1  0
 23 46  1  0
 29 47  1  0
 29 48  1  0
 30 49  1  0
 30 50  1  0
 31 51  1  1
 32 52  1  0
 32 53  1  0
 32 54  1  0
 33 55  1  0
 33 56  1  0
 34 57  1  0
 34 58  1  0
M  CHG  1  31   1
M  END
>  <filename_input>  (8) 
7WL4_JFU_docked.sdf

>  <pdb_id>  (8) 
7WL4_JFU

>  <pose_rank>  (8) 
7

>  <num_atoms_heavy>  (8) 
34

>  <num_torsions>  (8) 
4

>  <pose>  (8) 
[3.7512696260012848, 12.966548459848141, 31.071956246969073, -2.0699203234587626, -1.3503751197844642, 1.9346051599104361, -3.05900778290039, 4.31388773070075, -2.2498500440464175, -2.4820698976166544]

>  <energy>  (8) 
-837.9981033157939

>  <inter_energy>  (8) 
-854.3535831570485

>  <intra_energy>  (8) 
21.284134536459426

>  <rmsd>  (8) 
5.68841

>  <sdf_rank>  (8) 
0

$$$$

     RDKit          3D

 58 62  0  0  0  0  0  0  0  0999 V2000
   10.3741   14.4606   30.1183 F   0  0  0  0  0  0  0  0  0  0  0  0
   11.0006   13.9262   31.1457 C   0  0  0  0  0  0  0  0  0  0  0  0
   12.2533   14.3840   31.5501 C   0  0  0  0  0  0  0  0  0  0  0  0
   12.8807   13.8054   32.6272 C   0  0  0  0  0  0  0  0  0  0  0  0
   14.0494   14.1798   33.0175 F   0  0  0  0  0  0  0  0  0  0  0  0
   12.2704   12.7866   33.3153 C   0  0  0  0  0  0  0  0  0  0  0  0
   11.0313   12.3318   32.9218 C   0  0  0  0  0  0  0  0  0  0  0  0
   10.3927   12.8876   31.8331 C   0  0  0  0  0  0  0  0  0  0  0  0
    8.8371   12.2512   31.3414 S   0  0  1  0  0  0  0  0  0  0  0  0
    7.8203   13.3316   31.6421 O   0  0  0  0  0  0  0  0  0  0  0  0
    8.8970   11.8381   29.8777 O   0  0  0  0  0  0  0  0  0  0  0  0
    8.5359   10.9573   32.3180 N   0  0  0  0  0  0  0  0  0  0  0  0
    7.3974   10.9131   33.0786 C   0  0  0  0  0  0  0  0  0  0  0  0
    7.4121   11.1167   34.4710 C   0  0  0  0  0  0  0  0  0  0  0  0
    6.2003   11.0785   35.1897 C   0  0  0  0  0  0  0  0  0  0  0  0
    5.0389   10.8567   34.5510 C   0  0  0  0  0  0  0  0  0  0  0  0
    3.7586   10.7747   34.9730 N   0  0  0  0  0  0  0  0  0  0  0  0
    3.3914   10.9024   36.4035 C   0  0  0  0  0  0  0  0  0  0  0  0
    4.2396    9.9818   37.2842 C   0  0  0  0  0  0  0  0  0  0  0  0
    2.9959   10.5379   33.8866 C   0  0  0  0  0  0  0  0  0  0  0  0
    1.7655   10.4033   33.9368 O   0  0  0  0  0  0  0  0  0  0  0  0
    3.7917   10.4684   32.7759 C   0  0  0  0  0  0  0  0  0  0  0  0
    3.6350   10.2557   31.4405 C   0  0  0  0  0  0  0  0  0  0  0  0
    5.0408   10.6776   33.2297 C   0  0  0  0  0  0  0  0  0  0  0  0
    6.1611   10.7093   32.4476 C   0  0  0  0  0  0  0  0  0  0  0  0
    6.0033   10.4875   31.1156 N   0  0  0  0  0  0  0  0  0  0  0  0
    4.7747   10.2925   30.5738 C   0  0  0  0  0  0  0  0  0  0  0  0
    4.7210   10.0788   29.2201 N   0  0  0  0  0  0  0  0  0  0  0  0
    3.6116    9.4017   28.5948 C   0  0  0  0  0  0  0  0  0  0  0  0
    3.4854    9.8109   27.1384 C   0  0  0  0  0  0  0  0  0  0  0  0
    4.6698    9.4836   26.3655 N   0  0  1  0  0  0  0  0  0  0  0  0
    4.5039    9.7849   24.9590 C   0  0  0  0  0  0  0  0  0  0  0  0
    5.6640   10.4534   26.8962 C   0  0  0  0  0  0  0  0  0  0  0  0
    5.9380   10.2437   28.3927 C   0  0  0  0  0  0  0  0  0  0  0  0
   12.7396   15.2080   31.0075 H   0  0  0  0  0  0  0  0  0  0  0  0
   12.7718   12.3324   34.1826 H   0  0  0  0  0  0  0  0  0  0  0  0
   10.5466   11.5179   33.4810 H   0  0  0  0  0  0  0  0  0  0  0  0
    9.2078   10.1776   32.3565 H   0  0  0  0  0  0  0  0  0  0  0  0
    8.3614   11.3042   34.9941 H   0  0  0  0  0  0  0  0  0  0  0  0
    6.2052   11.2311   36.2791 H   0  0  0  0  0  0  0  0  0  0  0  0
    3.5471   11.9440   36.7209 H   0  0  0  0  0  0  0  0  0  0  0  0
    2.3363   10.6125   36.5164 H   0  0  0  0  0  0  0  0  0  0  0  0
    4.0385   10.2001   38.3434 H   0  0  0  0  0  0  0  0  0  0  0  0
    3.9845    8.9332   37.0711 H   0  0  0  0  0  0  0  0  0  0  0  0
    5.3055   10.1504   37.0711 H   0  0  0  0  0  0  0  0  0  0  0  0
    2.6351   10.0560   31.0278 H   0  0  0  0  0  0  0  0  0  0  0  0
    3.7731    8.3151   28.6520 H   0  0  0  0  0  0  0  0  0  0  0  0
    2.6863    9.6782   29.1214 H   0  0  0  0  0  0  0  0  0  0  0  0
    2.6220    9.2898   26.6990 H   0  0  0  0  0  0  0  0  0  0  0  0
    3.3567   10.9029   27.1075 H   0  0  0  0  0  0  0  0  0  0  0  0
    4.9106    8.4850   26.4409 H   0  0  0  0  0  0  0  0  0  0  0  0
    3.9758   10.7437   24.8493 H   0  0  0  0  0  0  0  0  0  0  0  0
    5.4915    9.8533   24.4797 H   0  0  0  0  0  0  0  0  0  0  0  0
    3.9181    8.9867   24.4797 H   0  0  0  0  0  0  0  0  0  0  0  0
    6.6071   10.3322   26.3431 H   0  0  0  0  0  0  0  0  0  0  0  0
    5.2511   11.4648   26.7672 H   0  0  0  0  0  0  0  0  0  0  0  0
    6.4925   11.1171   28.7667 H   0  0  0  0  0  0  0  0  0  0  0  0
    6.5061    9.3058   28.4795 H   0  0  0  0  0  0  0  0  0  0  0  0
  1  2  1  0
  2  3  2  0
  2  8  1  0
  3  4  1  0
  4  5  1  0
  4  6  2  0
  6  7  1  0
  7  8  2  0
  8  9  1  0
  9 10  2  0
  9 11  2  0
  9 12  1  1
 12 13  1  0
 13 14  2  0
 13 25  1  0
 14 15  1  0
 15 16  2  0
 16 17  1  0
 16 24  1  0
 17 18  1  0
 17 20  1  0
 18 19  1  0
 20 21  2  0
 20 22  1  0
 22 23  2  0
 22 24  1  0
 23 27  1  0
 24 25  2  0
 25 26  1  0
 26 27  2  0
 27 28  1  0
 28 29  1  0
 28 34  1  0
 29 30  1  0
 30 31  1  0
 31 32  1  0
 31 33  1  0
 33 34  1  0
  3 35  1  0
  6 36  1  0
  7 37  1  0
 12 38  1  0
 14 39  1  0
 15 40  1  0
 18 41  1  0
 18 42  1  0
 19 43  1  0
 19 44  1  0
 19 45  1  0
 23 46  1  0
 29 47  1  0
 29 48  1  0
 30 49  1  0
 30 50  1  0
 31 51  1  6
 32 52  1  0
 32 53  1  0
 32 54  1  0
 33 55  1  0
 33 56  1  0
 34 57  1  0
 34 58  1  0
M  CHG  1  31   1
M  END
>  <filename_input>  (9) 
7WL4_JFU_docked.sdf

>  <pdb_id>  (9) 
7WL4_JFU

>  <pose_rank>  (9) 
8

>  <num_atoms_heavy>  (9) 
34

>  <num_torsions>  (9) 
4

>  <pose>  (9) 
[7.397388061008122, 10.913137798367638, 33.078642460262714, 3.2678978497734095, 3.833431220996938, 0.5968541744340589, 0.7015721258611479, -3.032686451927056, 1.058895605679222, 1.9313179109737821]

>  <energy>  (9) 
-786.2715037211753

>  <inter_energy>  (9) 
-819.4953104768115

>  <intra_energy>  (9) 
28.15240520074277

>  <rmsd>  (9) 
5.66686

>  <sdf_rank>  (9) 
0

$$$$

     RDKit          3D

 58 62  0  0  0  0  0  0  0  0999 V2000
    7.3278   13.0829   28.4782 F   0  0  0  0  0  0  0  0  0  0  0  0
    8.2222   13.2382   29.4318 C   0  0  0  0  0  0  0  0  0  0  0  0
    9.5884   13.2052   29.1581 C   0  0  0  0  0  0  0  0  0  0  0  0
   10.4966   13.3712   30.1760 C   0  0  0  0  0  0  0  0  0  0  0  0
   11.7670   13.3212   29.9711 F   0  0  0  0  0  0  0  0  0  0  0  0
   10.0618   13.5839   31.4603 C   0  0  0  0  0  0  0  0  0  0  0  0
    8.7129   13.6200   31.7364 C   0  0  0  0  0  0  0  0  0  0  0  0
    7.7856   13.4385   30.7318 C   0  0  0  0  0  0  0  0  0  0  0  0
    6.0811   13.4501   31.1334 S   0  0  1  0  0  0  0  0  0  0  0  0
    5.9803   13.9772   32.5488 O   0  0  0  0  0  0  0  0  0  0  0  0
    5.3222   14.2742   30.1031 O   0  0  0  0  0  0  0  0  0  0  0  0
    5.5912   11.8757   31.1210 N   0  0  0  0  0  0  0  0  0  0  0  0
    5.6421   11.1250   32.2657 C   0  0  0  0  0  0  0  0  0  0  0  0
    6.8543   10.6652   32.8131 C   0  0  0  0  0  0  0  0  0  0  0  0
    6.8355    9.9148   34.0059 C   0  0  0  0  0  0  0  0  0  0  0  0
    5.6710    9.6458   34.6204 C   0  0  0  0  0  0  0  0  0  0  0  0
    5.3612    8.9718   35.7491 N   0  0  0  0  0  0  0  0  0  0  0  0
    6.3950    8.3083   36.5788 C   0  0  0  0  0  0  0  0  0  0  0  0
    6.5917    6.8474   36.1667 C   0  0  0  0  0  0  0  0  0  0  0  0
    4.0211    9.0230   35.8880 C   0  0  0  0  0  0  0  0  0  0  0  0
    3.4148    8.4907   36.8280 O   0  0  0  0  0  0  0  0  0  0  0  0
    3.4804    9.7279   34.8476 C   0  0  0  0  0  0  0  0  0  0  0  0
    2.2422   10.1083   34.4287 C   0  0  0  0  0  0  0  0  0  0  0  0
    4.5322   10.0989   34.0953 C   0  0  0  0  0  0  0  0  0  0  0  0
    4.4514   10.8432   32.9519 C   0  0  0  0  0  0  0  0  0  0  0  0
    3.2131   11.2141   32.5307 N   0  0  0  0  0  0  0  0  0  0  0  0
    2.1023   10.9016   33.2444 C   0  0  0  0  0  0  0  0  0  0  0  0
    0.9001   11.3227   32.7362 N   0  0  0  0  0  0  0  0  0  0  0  0
   -0.3456   10.6867   33.0884 C   0  0  0  0  0  0  0  0  0  0  0  0
   -1.5073   11.6479   32.9125 C   0  0  0  0  0  0  0  0  0  0  0  0
   -1.6419   12.1110   31.5432 N   0  0  1  0  0  0  0  0  0  0  0  0
   -2.8100   12.9472   31.3624 C   0  0  0  0  0  0  0  0  0  0  0  0
   -0.4558   12.9957   31.3972 C   0  0  0  0  0  0  0  0  0  0  0  0
    0.8644   12.2294   31.5660 C   0  0  0  0  0  0  0  0  0  0  0  0
    9.9395   13.0463   28.1278 H   0  0  0  0  0  0  0  0  0  0  0  0
   10.7920   13.7257   32.2707 H   0  0  0  0  0  0  0  0  0  0  0  0
    8.3721   13.7954   32.7675 H   0  0  0  0  0  0  0  0  0  0  0  0
    5.2449   11.4542   30.2473 H   0  0  0  0  0  0  0  0  0  0  0  0
    7.8085   10.8897   32.3141 H   0  0  0  0  0  0  0  0  0  0  0  0
    7.7789    9.5474   34.4361 H   0  0  0  0  0  0  0  0  0  0  0  0
    7.3479    8.8448   36.4594 H   0  0  0  0  0  0  0  0  0  0  0  0
    6.0626    8.3297   37.6271 H   0  0  0  0  0  0  0  0  0  0  0  0
    6.6760    6.2207   37.0668 H   0  0  0  0  0  0  0  0  0  0  0  0
    5.7301    6.5159   35.5686 H   0  0  0  0  0  0  0  0  0  0  0  0
    7.5103    6.7556   35.5686 H   0  0  0  0  0  0  0  0  0  0  0  0
    1.3509    9.8071   34.9987 H   0  0  0  0  0  0  0  0  0  0  0  0
   -0.4999    9.8113   32.4405 H   0  0  0  0  0  0  0  0  0  0  0  0
   -0.2990   10.3774   34.1430 H   0  0  0  0  0  0  0  0  0  0  0  0
   -2.4361   11.1364   33.2050 H   0  0  0  0  0  0  0  0  0  0  0  0
   -1.3136   12.5265   33.5454 H   0  0  0  0  0  0  0  0  0  0  0  0
   -1.7188   11.3259   30.8809 H   0  0  0  0  0  0  0  0  0  0  0  0
   -3.2111   13.2343   32.3456 H   0  0  0  0  0  0  0  0  0  0  0  0
   -2.5303   13.8516   30.8022 H   0  0  0  0  0  0  0  0  0  0  0  0
   -3.5759   12.3910   30.8022 H   0  0  0  0  0  0  0  0  0  0  0  0
   -0.4752   13.4516   30.3963 H   0  0  0  0  0  0  0  0  0  0  0  0
   -0.5057   13.7601   32.1866 H   0  0  0  0  0  0  0  0  0  0  0  0
    1.6766   12.9633   31.6745 H   0  0  0  0  0  0  0  0  0  0  0  0
    0.9756   11.5954   30.6741 H   0  0  0  0  0  0  0  0  0  0  0  0
  1  2  1  0
  2  3  2  0
  2  8  1  0
  3  4  1  0
  4  5  1  0
  4  6  2  0
  6  7  1  0
  7  8  2  0
  8  9  1  0
  9 10  2  0
  9 11  2  0
  9 12  1  1
 12 13  1  0
 13 14  2  0
 13 25  1  0
 14 15  1  0
 15 16  2  0
 16 17  1  0
 16 24  1  0
 17 18  1  0
 17 20  1  0
 18 19  1  0
 20 21  2  0
 20 22  1  0
 22 23  2  0
 22 24  1  0
 23 27  1  0
 24 25  2  0
 25 26  1  0
 26 27  2  0
 27 28  1  0
 28 29  1  0
 28 34  1  0
 29 30  1  0
 30 31  1  0
 31 32  1  0
 31 33  1  0
 33 34  1  0
  3 35  1  0
  6 36  1  0
  7 37  1  0
 12 38  1  0
 14 39  1  0
 15 40  1  0
 18 41  1  0
 18 42  1  0
 19 43  1  0
 19 44  1  0
 19 45  1  0
 23 46  1  0
 29 47  1  0
 29 48  1  0
 30 49  1  0
 30 50  1  0
 31 51  1  6
 32 52  1  0
 32 53  1  0
 32 54  1  0
 33 55  1  0
 33 56  1  0
 34 57  1  0
 34 58  1  0
M  CHG  1  31   1
M  END
>  <filename_input>  (10) 
7WL4_JFU_docked.sdf

>  <pdb_id>  (10) 
7WL4_JFU

>  <pose_rank>  (10) 
9

>  <num_atoms_heavy>  (10) 
34

>  <num_torsions>  (10) 
4

>  <pose>  (10) 
[5.642072290606264, 11.124955283897734, 32.26573960199784, 4.499678323173458, -3.9118957799928578, -1.0561929587310195, -12.592233674476677, -2.451111931855792, -18.356452284327144, 0.20260901034287193]

>  <energy>  (10) 
-1245.6657228114666

>  <inter_energy>  (10) 
-1243.8422123412392

>  <intra_energy>  (10) 
6.895604487065237

>  <rmsd>  (10) 
3.1826

>  <sdf_rank>  (10) 
0

$$$$

     RDKit          3D

 58 62  0  0  0  0  0  0  0  0999 V2000
    9.3172   13.9213   29.5693 F   0  0  0  0  0  0  0  0  0  0  0  0
    9.4038   13.1168   30.6079 C   0  0  0  0  0  0  0  0  0  0  0  0
   10.6348   12.6447   31.0598 C   0  0  0  0  0  0  0  0  0  0  0  0
   10.6913   11.8066   32.1473 C   0  0  0  0  0  0  0  0  0  0  0  0
   11.8049   11.3266   32.5811 F   0  0  0  0  0  0  0  0  0  0  0  0
    9.5392   11.4440   32.7992 C   0  0  0  0  0  0  0  0  0  0  0  0
    8.3200   11.9095   32.3588 C   0  0  0  0  0  0  0  0  0  0  0  0
    8.2405   12.7376   31.2588 C   0  0  0  0  0  0  0  0  0  0  0  0
    6.6669   13.2726   30.7071 S   0  0  1  0  0  0  0  0  0  0  0  0
    6.2870   14.4499   31.5795 O   0  0  0  0  0  0  0  0  0  0  0  0
    6.7312   13.5906   29.2201 O   0  0  0  0  0  0  0  0  0  0  0  0
    5.6231   12.0329   31.0108 N   0  0  0  0  0  0  0  0  0  0  0  0
    5.6958   11.3385   32.1895 C   0  0  0  0  0  0  0  0  0  0  0  0
    6.9208   10.9374   32.7543 C   0  0  0  0  0  0  0  0  0  0  0  0
    6.9240   10.2438   33.9812 C   0  0  0  0  0  0  0  0  0  0  0  0
    5.7682    9.9732   34.6111 C   0  0  0  0  0  0  0  0  0  0  0  0
    5.4783    9.3452   35.7711 N   0  0  0  0  0  0  0  0  0  0  0  0
    6.5308    8.7492   36.6281 C   0  0  0  0  0  0  0  0  0  0  0  0
    6.5776    7.2264   36.4810 C   0  0  0  0  0  0  0  0  0  0  0  0
    4.1375    9.3673   35.9113 C   0  0  0  0  0  0  0  0  0  0  0  0
    3.5472    8.8639   36.8771 O   0  0  0  0  0  0  0  0  0  0  0  0
    3.5765   10.0078   34.8405 C   0  0  0  0  0  0  0  0  0  0  0  0
    2.3279   10.3350   34.4078 C   0  0  0  0  0  0  0  0  0  0  0  0
    4.6167   10.3707   34.0685 C   0  0  0  0  0  0  0  0  0  0  0  0
    4.5142   11.0579   32.8917 C   0  0  0  0  0  0  0  0  0  0  0  0
    3.2658   11.3755   32.4570 N   0  0  0  0  0  0  0  0  0  0  0  0
    2.1649   11.0676   33.1879 C   0  0  0  0  0  0  0  0  0  0  0  0
    0.9510   11.4322   32.6640 N   0  0  0  0  0  0  0  0  0  0  0  0
   -0.2766   10.7806   33.0493 C   0  0  0  0  0  0  0  0  0  0  0  0
   -1.4638   11.7013   32.8318 C   0  0  0  0  0  0  0  0  0  0  0  0
   -1.6130   12.0956   31.4426 N   0  0  1  0  0  0  0  0  0  0  0  0
   -2.8033   12.8910   31.2261 C   0  0  0  0  0  0  0  0  0  0  0  0
   -0.4512   13.0036   31.2517 C   0  0  0  0  0  0  0  0  0  0  0  0
    0.8892   12.2815   31.4525 C   0  0  0  0  0  0  0  0  0  0  0  0
   11.5607   12.9429   30.5461 H   0  0  0  0  0  0  0  0  0  0  0  0
    9.5896   10.7805   33.6751 H   0  0  0  0  0  0  0  0  0  0  0  0
    7.4014   11.6181   32.8891 H   0  0  0  0  0  0  0  0  0  0  0  0
    4.9121   11.7790   30.3102 H   0  0  0  0  0  0  0  0  0  0  0  0
    7.8679   11.1634   32.2425 H   0  0  0  0  0  0  0  0  0  0  0  0
    7.8775    9.9223   34.4255 H   0  0  0  0  0  0  0  0  0  0  0  0
    7.5065    9.1665   36.3384 H   0  0  0  0  0  0  0  0  0  0  0  0
    6.2988    8.9880   37.6765 H   0  0  0  0  0  0  0  0  0  0  0  0
    6.5918    6.7620   37.4781 H   0  0  0  0  0  0  0  0  0  0  0  0
    5.6895    6.8838   35.9297 H   0  0  0  0  0  0  0  0  0  0  0  0
    7.4850    6.9389   35.9297 H   0  0  0  0  0  0  0  0  0  0  0  0
    1.4459   10.0374   34.9939 H   0  0  0  0  0  0  0  0  0  0  0  0
   -0.4086    9.8719   32.4438 H   0  0  0  0  0  0  0  0  0  0  0  0
   -0.2201   10.5227   34.1172 H   0  0  0  0  0  0  0  0  0  0  0  0
   -2.3782   11.1796   33.1507 H   0  0  0  0  0  0  0  0  0  0  0  0
   -1.2926   12.6136   33.4221 H   0  0  0  0  0  0  0  0  0  0  0  0
   -1.6700   11.2784   30.8182 H   0  0  0  0  0  0  0  0  0  0  0  0
   -3.2337   13.1786   32.1967 H   0  0  0  0  0  0  0  0  0  0  0  0
   -2.5412   13.7961   30.6585 H   0  0  0  0  0  0  0  0  0  0  0  0
   -3.5393   12.3026   30.6585 H   0  0  0  0  0  0  0  0  0  0  0  0
   -0.4844   13.4112   30.2305 H   0  0  0  0  0  0  0  0  0  0  0  0
   -0.5202   13.8028   32.0044 H   0  0  0  0  0  0  0  0  0  0  0  0
    1.6818   13.0409   31.5239 H   0  0  0  0  0  0  0  0  0  0  0  0
    1.0159   11.6093   30.5911 H   0  0  0  0  0  0  0  0  0  0  0  0
  1  2  1  0
  2  3  2  0
  2  8  1  0
  3  4  1  0
  4  5  1  0
  4  6  2  0
  6  7  1  0
  7  8  2  0
  8  9  1  0
  9 10  2  0
  9 11  2  0
  9 12  1  6
 12 13  1  0
 13 14  2  0
 13 25  1  0
 14 15  1  0
 15 16  2  0
 16 17  1  0
 16 24  1  0
 17 18  1  0
 17 20  1  0
 18 19  1  0
 20 21  2  0
 20 22  1  0
 22 23  2  0
 22 24  1  0
 23 27  1  0
 24 25  2  0
 25 26  1  0
 26 27  2  0
 27 28  1  0
 28 29  1  0
 28 34  1  0
 29 30  1  0
 30 31  1  0
 31 32  1  0
 31 33  1  0
 33 34  1  0
  3 35  1  0
  6 36  1  0
  7 37  1  0
 12 38  1  0
 14 39  1  0
 15 40  1  0
 18 41  1  0
 18 42  1  0
 19 43  1  0
 19 44  1  0
 19 45  1  0
 23 46  1  0
 29 47  1  0
 29 48  1  0
 30 49  1  0
 30 50  1  0
 31 51  1  6
 32 52  1  0
 32 53  1  0
 32 54  1  0
 33 55  1  0
 33 56  1  0
 34 57  1  0
 34 58  1  0
M  CHG  1  31   1
M  END
>  <filename_input>  (11) 
7WL4_JFU_docked.sdf

>  <pdb_id>  (11) 
7WL4_JFU

>  <pose_rank>  (11) 
10

>  <num_atoms_heavy>  (11) 
34

>  <num_torsions>  (11) 
4

>  <pose>  (11) 
[5.695838873696417, 11.33851145369769, 32.1894763257607, 4.837034965370752, -3.2855281097462523, -1.3964191052493302, -12.7866514835498, -1.9320409207065004, -19.20710792394875, 1.4213444232790862]

>  <energy>  (11) 
-962.0115799313587

>  <inter_energy>  (11) 
-1234.7328978515584

>  <intra_energy>  (11) 
298.78717596209646

>  <rmsd>  (11) 
3.23894

>  <sdf_rank>  (11) 
0

$$$$

     RDKit          3D

 58 62  0  0  0  0  0  0  0  0999 V2000
    6.9020    8.0087   35.1457 F   0  0  0  0  0  0  0  0  0  0  0  0
    6.9601    7.6904   36.4219 C   0  0  0  0  0  0  0  0  0  0  0  0
    8.0751    7.0509   36.9606 C   0  0  0  0  0  0  0  0  0  0  0  0
    8.1050    6.7327   38.2971 C   0  0  0  0  0  0  0  0  0  0  0  0
    9.1038    6.1184   38.8296 F   0  0  0  0  0  0  0  0  0  0  0  0
    7.0448    7.0559   39.1068 C   0  0  0  0  0  0  0  0  0  0  0  0
    5.9413    7.6901   38.5806 C   0  0  0  0  0  0  0  0  0  0  0  0
    5.8847    8.0026   37.2385 C   0  0  0  0  0  0  0  0  0  0  0  0
    4.4453    8.7712   36.6026 S   0  0  1  0  0  0  0  0  0  0  0  0
    4.1225    8.0633   35.3041 O   0  0  0  0  0  0  0  0  0  0  0  0
    3.3352    8.7093   37.6420 O   0  0  0  0  0  0  0  0  0  0  0  0
    4.8634   10.3297   36.2636 N   0  0  0  0  0  0  0  0  0  0  0  0
    5.7170   10.6090   35.2293 C   0  0  0  0  0  0  0  0  0  0  0  0
    7.0864   10.2878   35.2736 C   0  0  0  0  0  0  0  0  0  0  0  0
    7.9040   10.5846   34.1646 C   0  0  0  0  0  0  0  0  0  0  0  0
    7.3803   11.1631   33.0706 C   0  0  0  0  0  0  0  0  0  0  0  0
    7.9115   11.5463   31.8895 N   0  0  0  0  0  0  0  0  0  0  0  0
    9.3556   11.3963   31.5901 C   0  0  0  0  0  0  0  0  0  0  0  0
   10.1658   12.5763   32.1322 C   0  0  0  0  0  0  0  0  0  0  0  0
    6.9106   12.0719   31.1547 C   0  0  0  0  0  0  0  0  0  0  0  0
    7.0716   12.5248   30.0130 O   0  0  0  0  0  0  0  0  0  0  0  0
    5.7451   12.0237   31.8694 C   0  0  0  0  0  0  0  0  0  0  0  0
    4.4446   12.3866   31.6948 C   0  0  0  0  0  0  0  0  0  0  0  0
    6.0785   11.4502   33.0398 C   0  0  0  0  0  0  0  0  0  0  0  0
    5.2059   11.1895   34.0589 C   0  0  0  0  0  0  0  0  0  0  0  0
    3.9096   11.5611   33.8858 N   0  0  0  0  0  0  0  0  0  0  0  0
    3.4860   12.1233   32.7258 C   0  0  0  0  0  0  0  0  0  0  0  0
    2.1590   12.4613   32.6492 N   0  0  0  0  0  0  0  0  0  0  0  0
    1.6751   13.4617   31.7298 C   0  0  0  0  0  0  0  0  0  0  0  0
    0.2098   13.2302   31.4075 C   0  0  0  0  0  0  0  0  0  0  0  0
   -0.6347   13.2962   32.5864 N   0  0  1  0  0  0  0  0  0  0  0  0
   -2.0397   13.1743   32.2584 C   0  0  0  0  0  0  0  0  0  0  0  0
   -0.2551   12.0537   33.3096 C   0  0  0  0  0  0  0  0  0  0  0  0
    1.2243   12.0509   33.7219 C   0  0  0  0  0  0  0  0  0  0  0  0
    8.9309    6.8011   36.3162 H   0  0  0  0  0  0  0  0  0  0  0  0
    7.0766    6.8078   40.1780 H   0  0  0  0  0  0  0  0  0  0  0  0
    5.0974    7.9498   39.2367 H   0  0  0  0  0  0  0  0  0  0  0  0
    4.4804   11.0979   36.8330 H   0  0  0  0  0  0  0  0  0  0  0  0
    7.5151    9.8090   36.1663 H   0  0  0  0  0  0  0  0  0  0  0  0
    8.9764   10.3415   34.1948 H   0  0  0  0  0  0  0  0  0  0  0  0
    9.7222   10.4682   32.0529 H   0  0  0  0  0  0  0  0  0  0  0  0
    9.4803   11.3646   30.4976 H   0  0  0  0  0  0  0  0  0  0  0  0
   10.1520   12.5562   33.2319 H   0  0  0  0  0  0  0  0  0  0  0  0
   11.2043   12.5020   31.7771 H   0  0  0  0  0  0  0  0  0  0  0  0
    9.7234   13.5188   31.7771 H   0  0  0  0  0  0  0  0  0  0  0  0
    4.1308   12.8810   30.7636 H   0  0  0  0  0  0  0  0  0  0  0  0
    1.7921   14.4565   32.1843 H   0  0  0  0  0  0  0  0  0  0  0  0
    2.2566   13.3969   30.7983 H   0  0  0  0  0  0  0  0  0  0  0  0
   -0.1203   13.9989   30.6934 H   0  0  0  0  0  0  0  0  0  0  0  0
    0.1158   12.2191   30.9846 H   0  0  0  0  0  0  0  0  0  0  0  0
   -0.5122   14.1838   33.0942 H   0  0  0  0  0  0  0  0  0  0  0  0
   -2.6296   13.1232   33.1855 H   0  0  0  0  0  0  0  0  0  0  0  0
   -2.3561   14.0484   31.6703 H   0  0  0  0  0  0  0  0  0  0  0  0
   -2.2009   12.2588   31.6703 H   0  0  0  0  0  0  0  0  0  0  0  0
   -0.8750   11.9670   34.2142 H   0  0  0  0  0  0  0  0  0  0  0  0
   -0.4176   11.2044   32.6297 H   0  0  0  0  0  0  0  0  0  0  0  0
    1.4910   11.0321   34.0395 H   0  0  0  0  0  0  0  0  0  0  0  0
    1.3269   12.7922   34.5281 H   0  0  0  0  0  0  0  0  0  0  0  0
  1  2  1  0
  2  3  2  0
  2  8  1  0
  3  4  1  0
  4  5  1  0
  4  6  2  0
  6  7  1  0
  7  8  2  0
  8  9  1  0
  9 10  2  0
  9 11  2  0
  9 12  1  6
 12 13  1  0
 13 14  2  0
 13 25  1  0
 14 15  1  0
 15 16  2  0
 16 17  1  0
 16 24  1  0
 17 18  1  0
 17 20  1  0
 18 19  1  0
 20 21  2  0
 20 22  1  0
 22 23  2  0
 22 24  1  0
 23 27  1  0
 24 25  2  0
 25 26  1  0
 26 27  2  0
 27 28  1  0
 28 29  1  0
 28 34  1  0
 29 30  1  0
 30 31  1  0
 31 32  1  0
 31 33  1  0
 33 34  1  0
  3 35  1  0
  6 36  1  0
  7 37  1  0
 12 38  1  0
 14 39  1  0
 15 40  1  0
 18 41  1  0
 18 42  1  0
 19 43  1  0
 19 44  1  0
 19 45  1  0
 23 46  1  0
 29 47  1  0
 29 48  1  0
 30 49  1  0
 30 50  1  0
 31 51  1  1
 32 52  1  0
 32 53  1  0
 32 54  1  0
 33 55  1  0
 33 56  1  0
 34 57  1  0
 34 58  1  0
M  CHG  1  31   1
M  END
>  <filename_input>  (12) 
7WL4_JFU_docked.sdf

>  <pdb_id>  (12) 
7WL4_JFU

>  <pose_rank>  (12) 
11

>  <num_atoms_heavy>  (12) 
34

>  <num_torsions>  (12) 
4

>  <pose>  (12) 
[5.717007211640191, 10.609043426737077, 35.22925535227562, 2.5332938924545356, -0.8262036487972005, 0.7488431454267405, 0.10707455746281878, -2.4096215688518625, 0.12264409203308974, 3.9020638196649413]

>  <energy>  (12) 
-760.0701879276

>  <inter_energy>  (12) 
-856.6158974879377

>  <intra_energy>  (12) 
100.23311188627466

>  <rmsd>  (12) 
6.14593

>  <sdf_rank>  (12) 
0

$$$$

     RDKit          3D

 58 62  0  0  0  0  0  0  0  0999 V2000
    7.3875    8.9917   35.7909 F   0  0  0  0  0  0  0  0  0  0  0  0
    7.2562    8.2279   36.8553 C   0  0  0  0  0  0  0  0  0  0  0  0
    8.3653    7.6782   37.4956 C   0  0  0  0  0  0  0  0  0  0  0  0
    8.1944    6.8854   38.6050 C   0  0  0  0  0  0  0  0  0  0  0  0
    9.1897    6.3365   39.2106 F   0  0  0  0  0  0  0  0  0  0  0  0
    6.9344    6.6449   39.0933 C   0  0  0  0  0  0  0  0  0  0  0  0
    5.8348    7.1876   38.4662 C   0  0  0  0  0  0  0  0  0  0  0  0
    5.9839    7.9716   37.3415 C   0  0  0  0  0  0  0  0  0  0  0  0
    4.5565    8.6073   36.5507 S   0  0  1  0  0  0  0  0  0  0  0  0
    4.2874    7.7038   35.3663 O   0  0  0  0  0  0  0  0  0  0  0  0
    3.4129    8.6841   37.5520 O   0  0  0  0  0  0  0  0  0  0  0  0
    4.9646   10.1034   35.9904 N   0  0  0  0  0  0  0  0  0  0  0  0
    4.2622   10.6737   34.9618 C   0  0  0  0  0  0  0  0  0  0  0  0
    2.8554   10.6956   34.9300 C   0  0  0  0  0  0  0  0  0  0  0  0
    2.1963   11.3182   33.8509 C   0  0  0  0  0  0  0  0  0  0  0  0
    2.9040   11.8928   32.8636 C   0  0  0  0  0  0  0  0  0  0  0  0
    2.5472   12.5494   31.7385 N   0  0  0  0  0  0  0  0  0  0  0  0
    1.1284   12.7345   31.3514 C   0  0  0  0  0  0  0  0  0  0  0  0
    0.1820   12.3565   32.4934 C   0  0  0  0  0  0  0  0  0  0  0  0
    3.6846   12.9172   31.1148 C   0  0  0  0  0  0  0  0  0  0  0  0
    3.7012   13.5373   30.0425 O   0  0  0  0  0  0  0  0  0  0  0  0
    4.7627   12.4934   31.8427 C   0  0  0  0  0  0  0  0  0  0  0  0
    6.1198   12.5433   31.7486 C   0  0  0  0  0  0  0  0  0  0  0  0
    4.2364   11.8739   32.9147 C   0  0  0  0  0  0  0  0  0  0  0  0
    4.9625   11.3065   33.9239 C   0  0  0  0  0  0  0  0  0  0  0  0
    6.3176   11.3496   33.8231 N   0  0  0  0  0  0  0  0  0  0  0  0
    6.9282   11.9764   32.7862 C   0  0  0  0  0  0  0  0  0  0  0  0
    8.2996   11.9660   32.7763 N   0  0  0  0  0  0  0  0  0  0  0  0
    9.0583   12.1451   31.5628 C   0  0  0  0  0  0  0  0  0  0  0  0
   10.4434   12.6847   31.8708 C   0  0  0  0  0  0  0  0  0  0  0  0
   11.2103   11.7918   32.7205 N   0  0  1  0  0  0  0  0  0  0  0  0
   12.5632   12.2642   32.9278 C   0  0  0  0  0  0  0  0  0  0  0  0
   10.5068   11.9238   34.0238 C   0  0  0  0  0  0  0  0  0  0  0  0
    9.0475   11.4517   33.9462 C   0  0  0  0  0  0  0  0  0  0  0  0
    9.3770    7.8787   37.1131 H   0  0  0  0  0  0  0  0  0  0  0  0
    6.8026    6.0175   39.9872 H   0  0  0  0  0  0  0  0  0  0  0  0
    4.8285    6.9938   38.8661 H   0  0  0  0  0  0  0  0  0  0  0  0
    5.7524   10.6122   36.4163 H   0  0  0  0  0  0  0  0  0  0  0  0
    2.2751   10.2307   35.7405 H   0  0  0  0  0  0  0  0  0  0  0  0
    1.0970   11.3339   33.8168 H   0  0  0  0  0  0  0  0  0  0  0  0
    0.9649   13.7894   31.0858 H   0  0  0  0  0  0  0  0  0  0  0  0
    0.9156   12.0779   30.4948 H   0  0  0  0  0  0  0  0  0  0  0  0
    0.6738   12.5529   33.4575 H   0  0  0  0  0  0  0  0  0  0  0  0
   -0.7372   12.9565   32.4217 H   0  0  0  0  0  0  0  0  0  0  0  0
   -0.0709   11.2883   32.4217 H   0  0  0  0  0  0  0  0  0  0  0  0
    6.5947   13.0181   30.8773 H   0  0  0  0  0  0  0  0  0  0  0  0
    9.1538   11.1765   31.0503 H   0  0  0  0  0  0  0  0  0  0  0  0
    8.5325   12.8666   30.9201 H   0  0  0  0  0  0  0  0  0  0  0  0
   10.9863   12.8243   30.9244 H   0  0  0  0  0  0  0  0  0  0  0  0
   10.3199   13.6356   32.4097 H   0  0  0  0  0  0  0  0  0  0  0  0
   11.2720   10.8444   32.3211 H   0  0  0  0  0  0  0  0  0  0  0  0
   12.7656   12.3349   34.0067 H   0  0  0  0  0  0  0  0  0  0  0  0
   13.2720   11.5604   32.4671 H   0  0  0  0  0  0  0  0  0  0  0  0
   12.6798   13.2562   32.4671 H   0  0  0  0  0  0  0  0  0  0  0  0
   11.0355   11.3182   34.7746 H   0  0  0  0  0  0  0  0  0  0  0  0
   10.5028   12.9888   34.2988 H   0  0  0  0  0  0  0  0  0  0  0  0
    8.5297   11.7832   34.8584 H   0  0  0  0  0  0  0  0  0  0  0  0
    9.0767   10.3569   33.8436 H   0  0  0  0  0  0  0  0  0  0  0  0
  1  2  1  0
  2  3  2  0
  2  8  1  0
  3  4  1  0
  4  5  1  0
  4  6  2  0
  6  7  1  0
  7  8  2  0
  8  9  1  0
  9 10  2  0
  9 11  2  0
  9 12  1  6
 12 13  1  0
 13 14  2  0
 13 25  1  0
 14 15  1  0
 15 16  2  0
 16 17  1  0
 16 24  1  0
 17 18  1  0
 17 20  1  0
 18 19  1  0
 20 21  2  0
 20 22  1  0
 22 23  2  0
 22 24  1  0
 23 27  1  0
 24 25  2  0
 25 26  1  0
 26 27  2  0
 27 28  1  0
 28 29  1  0
 28 34  1  0
 29 30  1  0
 30 31  1  0
 31 32  1  0
 31 33  1  0
 33 34  1  0
  3 35  1  0
  6 36  1  0
  7 37  1  0
 12 38  1  0
 14 39  1  0
 15 40  1  0
 18 41  1  0
 18 42  1  0
 19 43  1  0
 19 44  1  0
 19 45  1  0
 23 46  1  0
 29 47  1  0
 29 48  1  0
 30 49  1  0
 30 50  1  0
 31 51  1  6
 32 52  1  0
 32 53  1  0
 32 54  1  0
 33 55  1  0
 33 56  1  0
 34 57  1  0
 34 58  1  0
M  CHG  1  31   1
M  END
>  <filename_input>  (13) 
7WL4_JFU_docked.sdf

>  <pdb_id>  (13) 
7WL4_JFU

>  <pose_rank>  (13) 
12

>  <num_atoms_heavy>  (13) 
34

>  <num_torsions>  (13) 
4

>  <pose>  (13) 
[4.26216270305611, 10.67370146947121, 34.96178707079028, -0.12051887492932002, -2.026913679207416, -1.470322668282039, 1.7800544290139486, -0.3645643284027327, 1.6631370944119124, 4.5299215604987015]

>  <energy>  (13) 
-635.887299166835

>  <inter_energy>  (13) 
-686.854794131123

>  <intra_energy>  (13) 
55.89993728948849

>  <rmsd>  (13) 
8.07735

>  <sdf_rank>  (13) 
0

$$$$

     RDKit          3D

 58 62  0  0  0  0  0  0  0  0999 V2000
    3.1144    9.0575   37.6371 F   0  0  0  0  0  0  0  0  0  0  0  0
    4.2557    8.6085   37.1582 C   0  0  0  0  0  0  0  0  0  0  0  0
    4.8472    7.4499   37.6585 C   0  0  0  0  0  0  0  0  0  0  0  0
    6.0388    7.0071   37.1365 C   0  0  0  0  0  0  0  0  0  0  0  0
    6.6324    5.9569   37.5874 F   0  0  0  0  0  0  0  0  0  0  0  0
    6.6415    7.6952   36.1132 C   0  0  0  0  0  0  0  0  0  0  0  0
    6.0603    8.8393   35.6129 C   0  0  0  0  0  0  0  0  0  0  0  0
    4.8736    9.3096   36.1347 C   0  0  0  0  0  0  0  0  0  0  0  0
    4.1905   10.7911   35.4978 S   0  0  1  0  0  0  0  0  0  0  0  0
    3.6021   11.5317   36.6796 O   0  0  0  0  0  0  0  0  0  0  0  0
    5.2653   11.5640   34.7469 O   0  0  0  0  0  0  0  0  0  0  0  0
    2.9629   10.3411   34.4933 N   0  0  0  0  0  0  0  0  0  0  0  0
    2.3433   11.2681   33.6974 C   0  0  0  0  0  0  0  0  0  0  0  0
    0.9578   11.5075   33.7564 C   0  0  0  0  0  0  0  0  0  0  0  0
    0.3886   12.4916   32.9233 C   0  0  0  0  0  0  0  0  0  0  0  0
    1.1623   13.2010   32.0843 C   0  0  0  0  0  0  0  0  0  0  0  0
    0.8961   14.1848   31.1980 N   0  0  0  0  0  0  0  0  0  0  0  0
   -0.4813   14.6779   30.9593 C   0  0  0  0  0  0  0  0  0  0  0  0
   -1.4755   14.0642   31.9481 C   0  0  0  0  0  0  0  0  0  0  0  0
    2.0669   14.5346   30.6281 C   0  0  0  0  0  0  0  0  0  0  0  0
    2.1643   15.4135   29.7607 O   0  0  0  0  0  0  0  0  0  0  0  0
    3.0755   13.7725   31.1514 C   0  0  0  0  0  0  0  0  0  0  0  0
    4.4214   13.6431   30.9933 C   0  0  0  0  0  0  0  0  0  0  0  0
    2.4751   12.9703   32.0491 C   0  0  0  0  0  0  0  0  0  0  0  0
    3.1182   12.0478   32.8258 C   0  0  0  0  0  0  0  0  0  0  0  0
    4.4609   11.9139   32.6595 N   0  0  0  0  0  0  0  0  0  0  0  0
    5.1462   12.7011   31.7925 C   0  0  0  0  0  0  0  0  0  0  0  0
    6.4979   12.4892   31.6985 N   0  0  0  0  0  0  0  0  0  0  0  0
    7.2549   12.8767   30.5336 C   0  0  0  0  0  0  0  0  0  0  0  0
    8.7134   13.0990   30.8912 C   0  0  0  0  0  0  0  0  0  0  0  0
    9.3421   11.9044   31.4252 N   0  0  1  0  0  0  0  0  0  0  0  0
   10.7564   12.0951   31.6699 C   0  0  0  0  0  0  0  0  0  0  0  0
    8.6908   11.7799   32.7561 C   0  0  0  0  0  0  0  0  0  0  0  0
    7.1737   11.5701   32.6426 C   0  0  0  0  0  0  0  0  0  0  0  0
    4.3605    6.8903   38.4709 H   0  0  0  0  0  0  0  0  0  0  0  0
    7.5905    7.3321   35.6917 H   0  0  0  0  0  0  0  0  0  0  0  0
    6.5472    9.3828   34.7897 H   0  0  0  0  0  0  0  0  0  0  0  0
    2.6600    9.3570   34.4640 H   0  0  0  0  0  0  0  0  0  0  0  0
    0.3244   10.9314   34.4469 H   0  0  0  0  0  0  0  0  0  0  0  0
   -0.6945   12.6799   32.9602 H   0  0  0  0  0  0  0  0  0  0  0  0
   -0.4940   15.7720   31.0721 H   0  0  0  0  0  0  0  0  0  0  0  0
   -0.7812   14.3859   29.9420 H   0  0  0  0  0  0  0  0  0  0  0  0
   -1.1435   14.2691   32.9766 H   0  0  0  0  0  0  0  0  0  0  0  0
   -2.4705   14.5055   31.7892 H   0  0  0  0  0  0  0  0  0  0  0  0
   -1.5270   12.9770   31.7892 H   0  0  0  0  0  0  0  0  0  0  0  0
    4.9513   14.2608   30.2533 H   0  0  0  0  0  0  0  0  0  0  0  0
    7.1858   12.0813   29.7770 H   0  0  0  0  0  0  0  0  0  0  0  0
    6.8405   13.8160   30.1388 H   0  0  0  0  0  0  0  0  0  0  0  0
    9.2557   13.4084   29.9855 H   0  0  0  0  0  0  0  0  0  0  0  0
    8.7526   13.8746   31.6702 H   0  0  0  0  0  0  0  0  0  0  0  0
    9.2449   11.1034   30.7850 H   0  0  0  0  0  0  0  0  0  0  0  0
   10.9408   12.1200   32.7541 H   0  0  0  0  0  0  0  0  0  0  0  0
   11.3214   11.2650   31.2208 H   0  0  0  0  0  0  0  0  0  0  0  0
   11.0813   13.0452   31.2208 H   0  0  0  0  0  0  0  0  0  0  0  0
    9.1285   10.9209   33.2856 H   0  0  0  0  0  0  0  0  0  0  0  0
    8.8617   12.7180   33.3045 H   0  0  0  0  0  0  0  0  0  0  0  0
    6.7310   11.7141   33.6393 H   0  0  0  0  0  0  0  0  0  0  0  0
    7.0259   10.5530   32.2507 H   0  0  0  0  0  0  0  0  0  0  0  0
  1  2  1  0
  2  3  2  0
  2  8  1  0
  3  4  1  0
  4  5  1  0
  4  6  2  0
  6  7  1  0
  7  8  2  0
  8  9  1  0
  9 10  2  0
  9 11  2  0
  9 12  1  6
 12 13  1  0
 13 14  2  0
 13 25  1  0
 14 15  1  0
 15 16  2  0
 16 17  1  0
 16 24  1  0
 17 18  1  0
 17 20  1  0
 18 19  1  0
 20 21  2  0
 20 22  1  0
 22 23  2  0
 22 24  1  0
 23 27  1  0
 24 25  2  0
 25 26  1  0
 26 27  2  0
 27 28  1  0
 28 29  1  0
 28 34  1  0
 29 30  1  0
 30 31  1  0
 31 32  1  0
 31 33  1  0
 33 34  1  0
  3 35  1  0
  6 36  1  0
  7 37  1  0
 12 38  1  0
 14 39  1  0
 15 40  1  0
 18 41  1  0
 18 42  1  0
 19 43  1  0
 19 44  1  0
 19 45  1  0
 23 46  1  0
 29 47  1  0
 29 48  1  0
 30 49  1  0
 30 50  1  0
 31 51  1  6
 32 52  1  0
 32 53  1  0
 32 54  1  0
 33 55  1  0
 33 56  1  0
 34 57  1  0
 34 58  1  0
M  CHG  1  31   1
M  END
>  <filename_input>  (14) 
7WL4_JFU_docked.sdf

>  <pdb_id>  (14) 
7WL4_JFU

>  <pose_rank>  (14) 
13

>  <num_atoms_heavy>  (14) 
34

>  <num_torsions>  (14) 
4

>  <pose>  (14) 
[2.3433423753945686, 11.268101667360654, 33.69741053275472, -0.19631850361676426, -1.799033118163724, -1.8140308859732448, 1.703743611527506, 2.962909478964274, 2.206754416286449, 3.794709704867139]

>  <energy>  (14) 
-556.2399528195093

>  <inter_energy>  (14) 
-702.2954568991781

>  <intra_energy>  (14) 
147.86417821266286

>  <rmsd>  (14) 
7.56582

>  <sdf_rank>  (14) 
0

$$$$

     RDKit          3D

 58 62  0  0  0  0  0  0  0  0999 V2000
    4.6109   13.2771   29.2628 F   0  0  0  0  0  0  0  0  0  0  0  0
    4.8044   11.9759   29.2095 C   0  0  0  0  0  0  0  0  0  0  0  0
    3.8413   11.1200   28.6784 C   0  0  0  0  0  0  0  0  0  0  0  0
    4.0741    9.7663   28.6365 C   0  0  0  0  0  0  0  0  0  0  0  0
    3.2006    8.9380   28.1787 F   0  0  0  0  0  0  0  0  0  0  0  0
    5.2594    9.2556   29.1037 C   0  0  0  0  0  0  0  0  0  0  0  0
    6.2160   10.0969   29.6274 C   0  0  0  0  0  0  0  0  0  0  0  0
    5.9945   11.4565   29.6940 C   0  0  0  0  0  0  0  0  0  0  0  0
    7.2198   12.4854   30.4058 S   0  0  1  0  0  0  0  0  0  0  0  0
    8.4479   11.6201   30.5912 O   0  0  0  0  0  0  0  0  0  0  0  0
    7.4396   13.7020   29.5180 O   0  0  0  0  0  0  0  0  0  0  0  0
    6.6530   12.9216   31.8915 N   0  0  0  0  0  0  0  0  0  0  0  0
    6.4855   11.9807   32.8730 C   0  0  0  0  0  0  0  0  0  0  0  0
    7.5723   11.3578   33.5142 C   0  0  0  0  0  0  0  0  0  0  0  0
    7.3281   10.4132   34.5313 C   0  0  0  0  0  0  0  0  0  0  0  0
    6.0685   10.1141   34.8917 C   0  0  0  0  0  0  0  0  0  0  0  0
    5.5508    9.2741   35.8139 N   0  0  0  0  0  0  0  0  0  0  0  0
    6.4077    8.4128   36.6633 C   0  0  0  0  0  0  0  0  0  0  0  0
    5.7839    8.1883   38.0429 C   0  0  0  0  0  0  0  0  0  0  0  0
    4.2089    9.3837   35.7433 C   0  0  0  0  0  0  0  0  0  0  0  0
    3.4356    8.7342   36.4608 O   0  0  0  0  0  0  0  0  0  0  0  0
    3.8747   10.2917   34.7761 C   0  0  0  0  0  0  0  0  0  0  0  0
    2.7381   10.8159   34.2408 C   0  0  0  0  0  0  0  0  0  0  0  0
    5.0499   10.7221   34.2826 C   0  0  0  0  0  0  0  0  0  0  0  0
    5.1875   11.6583   33.2964 C   0  0  0  0  0  0  0  0  0  0  0  0
    4.0508   12.1735   32.7571 N   0  0  0  0  0  0  0  0  0  0  0  0
    2.8259   11.8109   33.2144 C   0  0  0  0  0  0  0  0  0  0  0  0
    1.7411   12.3885   32.6057 N   0  0  0  0  0  0  0  0  0  0  0  0
    0.4339   11.7796   32.6317 C   0  0  0  0  0  0  0  0  0  0  0  0
   -0.6496   12.8273   32.4504 C   0  0  0  0  0  0  0  0  0  0  0  0
   -0.5360   13.5298   31.1851 N   0  0  1  0  0  0  0  0  0  0  0  0
   -1.6290   14.4559   30.9752 C   0  0  0  0  0  0  0  0  0  0  0  0
    0.6858   14.3508   31.3950 C   0  0  0  0  0  0  0  0  0  0  0  0
    1.9329   13.4860   31.6304 C   0  0  0  0  0  0  0  0  0  0  0  0
    2.8952   11.5278   28.2928 H   0  0  0  0  0  0  0  0  0  0  0  0
    5.4456    8.1724   29.0598 H   0  0  0  0  0  0  0  0  0  0  0  0
    7.1652    9.6806   29.9957 H   0  0  0  0  0  0  0  0  0  0  0  0
    6.4236   13.9073   32.0827 H   0  0  0  0  0  0  0  0  0  0  0  0
    8.6039   11.6061   33.2241 H   0  0  0  0  0  0  0  0  0  0  0  0
    8.1728    9.9183   35.0327 H   0  0  0  0  0  0  0  0  0  0  0  0
    6.5391    7.4395   36.1677 H   0  0  0  0  0  0  0  0  0  0  0  0
    7.3760    8.9163   36.7998 H   0  0  0  0  0  0  0  0  0  0  0  0
    6.5141    8.4511   38.8225 H   0  0  0  0  0  0  0  0  0  0  0  0
    4.8906    8.8214   38.1488 H   0  0  0  0  0  0  0  0  0  0  0  0
    5.4988    7.1312   38.1488 H   0  0  0  0  0  0  0  0  0  0  0  0
    1.7541   10.4758   34.5959 H   0  0  0  0  0  0  0  0  0  0  0  0
    0.3628   11.0421   31.8186 H   0  0  0  0  0  0  0  0  0  0  0  0
    0.2917   11.2886   33.6057 H   0  0  0  0  0  0  0  0  0  0  0  0
   -1.6306   12.3314   32.4919 H   0  0  0  0  0  0  0  0  0  0  0  0
   -0.5371   13.5680   33.2558 H   0  0  0  0  0  0  0  0  0  0  0  0
   -0.5254   12.8788   30.3870 H   0  0  0  0  0  0  0  0  0  0  0  0
   -2.0205   14.7876   31.9482 H   0  0  0  0  0  0  0  0  0  0  0  0
   -1.2679   15.3271   30.4090 H   0  0  0  0  0  0  0  0  0  0  0  0
   -2.4291   13.9566   30.4090 H   0  0  0  0  0  0  0  0  0  0  0  0
    0.8505   14.9748   30.5043 H   0  0  0  0  0  0  0  0  0  0  0  0
    0.5282   14.9671   32.2924 H   0  0  0  0  0  0  0  0  0  0  0  0
    2.7386   14.1376   31.9997 H   0  0  0  0  0  0  0  0  0  0  0  0
    2.1725   13.0118   30.6672 H   0  0  0  0  0  0  0  0  0  0  0  0
  1  2  1  0
  2  3  2  0
  2  8  1  0
  3  4  1  0
  4  5  1  0
  4  6  2  0
  6  7  1  0
  7  8  2  0
  8  9  1  0
  9 10  2  0
  9 11  2  0
  9 12  1  1
 12 13  1  0
 13 14  2  0
 13 25  1  0
 14 15  1  0
 15 16  2  0
 16 17  1  0
 16 24  1  0
 17 18  1  0
 17 20  1  0
 18 19  1  0
 20 21  2  0
 20 22  1  0
 22 23  2  0
 22 24  1  0
 23 27  1  0
 24 25  2  0
 25 26  1  0
 26 27  2  0
 27 28  1  0
 28 29  1  0
 28 34  1  0
 29 30  1  0
 30 31  1  0
 31 32  1  0
 31 33  1  0
 33 34  1  0
  3 35  1  0
  6 36  1  0
  7 37  1  0
 12 38  1  0
 14 39  1  0
 15 40  1  0
 18 41  1  0
 18 42  1  0
 19 43  1  0
 19 44  1  0
 19 45  1  0
 23 46  1  0
 29 47  1  0
 29 48  1  0
 30 49  1  0
 30 50  1  0
 31 51  1  6
 32 52  1  0
 32 53  1  0
 32 54  1  0
 33 55  1  0
 33 56  1  0
 34 57  1  0
 34 58  1  0
M  CHG  1  31   1
M  END
>  <filename_input>  (15) 
7WL4_JFU_docked.sdf

>  <pdb_id>  (15) 
7WL4_JFU

>  <pose_rank>  (15) 
14

>  <num_atoms_heavy>  (15) 
34

>  <num_torsions>  (15) 
4

>  <pose>  (15) 
[6.48549456936645, 11.98074334488895, 32.872991977420064, -3.0325029639480774, 4.934699361353079, 2.374319661341464, 4.162091049343198, 6.3289626493721425, 0.05800524262142578, 0.1673834287750805]

>  <energy>  (15) 
-1400.6744271760833

>  <inter_energy>  (15) 
-1406.012967430003

>  <intra_energy>  (15) 
27.788579810590363

>  <rmsd>  (15) 
0.503256

>  <sdf_rank>  (15) 
0

$$$$

     RDKit          3D

 58 62  0  0  0  0  0  0  0  0999 V2000
    6.0874   10.4006   33.7502 F   0  0  0  0  0  0  0  0  0  0  0  0
    5.7548    9.3875   34.5226 C   0  0  0  0  0  0  0  0  0  0  0  0
    6.6871    8.4196   34.8919 C   0  0  0  0  0  0  0  0  0  0  0  0
    6.3083    7.3747   35.7000 C   0  0  0  0  0  0  0  0  0  0  0  0
    7.1309    6.4451   36.0431 F   0  0  0  0  0  0  0  0  0  0  0  0
    5.0167    7.2889   36.1564 C   0  0  0  0  0  0  0  0  0  0  0  0
    4.0916    8.2439   35.7968 C   0  0  0  0  0  0  0  0  0  0  0  0
    4.4476    9.2909   34.9727 C   0  0  0  0  0  0  0  0  0  0  0  0
    3.2300   10.4599   34.5060 S   0  0  1  0  0  0  0  0  0  0  0  0
    1.8918    9.8421   34.8508 O   0  0  0  0  0  0  0  0  0  0  0  0
    3.5055   11.7853   35.2017 O   0  0  0  0  0  0  0  0  0  0  0  0
    3.3351   10.6094   32.8673 N   0  0  0  0  0  0  0  0  0  0  0  0
    3.0587   11.8065   32.2614 C   0  0  0  0  0  0  0  0  0  0  0  0
    2.4115   12.8603   32.9331 C   0  0  0  0  0  0  0  0  0  0  0  0
    2.1770   14.0736   32.2554 C   0  0  0  0  0  0  0  0  0  0  0  0
    2.5738   14.2269   30.9807 C   0  0  0  0  0  0  0  0  0  0  0  0
    2.4883   15.2544   30.1083 N   0  0  0  0  0  0  0  0  0  0  0  0
    1.8256   16.5328   30.4601 C   0  0  0  0  0  0  0  0  0  0  0  0
    0.3035   16.3797   30.5105 C   0  0  0  0  0  0  0  0  0  0  0  0
    3.0629   14.8486   28.9580 C   0  0  0  0  0  0  0  0  0  0  0  0
    3.1422   15.5633   27.9493 O   0  0  0  0  0  0  0  0  0  0  0  0
    3.5116   13.5640   29.0996 C   0  0  0  0  0  0  0  0  0  0  0  0
    4.1435   12.6313   28.3353 C   0  0  0  0  0  0  0  0  0  0  0  0
    3.1965   13.2229   30.3622 C   0  0  0  0  0  0  0  0  0  0  0  0
    3.4786   12.0167   30.9394 C   0  0  0  0  0  0  0  0  0  0  0  0
    4.1013   11.0836   30.1713 N   0  0  0  0  0  0  0  0  0  0  0  0
    4.4752   11.3556   28.8957 C   0  0  0  0  0  0  0  0  0  0  0  0
    5.0988   10.3485   28.2044 N   0  0  0  0  0  0  0  0  0  0  0  0
    5.1164   10.3057   26.7628 C   0  0  0  0  0  0  0  0  0  0  0  0
    6.3079    9.5082   26.2643 C   0  0  0  0  0  0  0  0  0  0  0  0
    6.2878    8.1325   26.7275 N   0  0  1  0  0  0  0  0  0  0  0  0
    7.3715    7.3524   26.1676 C   0  0  0  0  0  0  0  0  0  0  0  0
    6.5781    8.2892   28.1772 C   0  0  0  0  0  0  0  0  0  0  0  0
    5.4962    9.1040   28.9013 C   0  0  0  0  0  0  0  0  0  0  0  0
    7.7257    8.4922   34.5369 H   0  0  0  0  0  0  0  0  0  0  0  0
    4.7198    6.4560   36.8106 H   0  0  0  0  0  0  0  0  0  0  0  0
    3.0595    8.1708   36.1701 H   0  0  0  0  0  0  0  0  0  0  0  0
    3.6102    9.7979   32.2958 H   0  0  0  0  0  0  0  0  0  0  0  0
    2.0914   12.7380   33.9783 H   0  0  0  0  0  0  0  0  0  0  0  0
    1.6665   14.8994   32.7726 H   0  0  0  0  0  0  0  0  0  0  0  0
    2.1847   16.8621   31.4463 H   0  0  0  0  0  0  0  0  0  0  0  0
    2.0727   17.2743   29.6861 H   0  0  0  0  0  0  0  0  0  0  0  0
   -0.0272   16.3464   31.5591 H   0  0  0  0  0  0  0  0  0  0  0  0
   -0.1680   17.2350   30.0043 H   0  0  0  0  0  0  0  0  0  0  0  0
    0.0118   15.4477   30.0043 H   0  0  0  0  0  0  0  0  0  0  0  0
    4.3987   12.8570   27.2894 H   0  0  0  0  0  0  0  0  0  0  0  0
    4.1900    9.8332   26.4042 H   0  0  0  0  0  0  0  0  0  0  0  0
    5.1935   11.3338   26.3793 H   0  0  0  0  0  0  0  0  0  0  0  0
    6.2990    9.5104   25.1643 H   0  0  0  0  0  0  0  0  0  0  0  0
    7.2177    9.9818   26.6617 H   0  0  0  0  0  0  0  0  0  0  0  0
    5.4070    7.6595   26.4797 H   0  0  0  0  0  0  0  0  0  0  0  0
    7.9714    6.9207   26.9823 H   0  0  0  0  0  0  0  0  0  0  0  0
    6.9586    6.5431   25.5476 H   0  0  0  0  0  0  0  0  0  0  0  0
    8.0079    8.0010   25.5476 H   0  0  0  0  0  0  0  0  0  0  0  0
    6.6369    7.2915   28.6366 H   0  0  0  0  0  0  0  0  0  0  0  0
    7.5303    8.8315   28.2740 H   0  0  0  0  0  0  0  0  0  0  0  0
    5.8777    9.3741   29.8971 H   0  0  0  0  0  0  0  0  0  0  0  0
    4.5998    8.4678   28.9435 H   0  0  0  0  0  0  0  0  0  0  0  0
  1  2  1  0
  2  3  2  0
  2  8  1  0
  3  4  1  0
  4  5  1  0
  4  6  2  0
  6  7  1  0
  7  8  2  0
  8  9  1  0
  9 10  2  0
  9 11  2  0
  9 12  1  6
 12 13  1  0
 13 14  2  0
 13 25  1  0
 14 15  1  0
 15 16  2  0
 16 17  1  0
 16 24  1  0
 17 18  1  0
 17 20  1  0
 18 19  1  0
 20 21  2  0
 20 22  1  0
 22 23  2  0
 22 24  1  0
 23 27  1  0
 24 25  2  0
 25 26  1  0
 26 27  2  0
 27 28  1  0
 28 29  1  0
 28 34  1  0
 29 30  1  0
 30 31  1  0
 31 32  1  0
 31 33  1  0
 33 34  1  0
  3 35  1  0
  6 36  1  0
  7 37  1  0
 12 38  1  0
 14 39  1  0
 15 40  1  0
 18 41  1  0
 18 42  1  0
 19 43  1  0
 19 44  1  0
 19 45  1  0
 23 46  1  0
 29 47  1  0
 29 48  1  0
 30 49  1  0
 30 50  1  0
 31 51  1  1
 32 52  1  0
 32 53  1  0
 32 54  1  0
 33 55  1  0
 33 56  1  0
 34 57  1  0
 34 58  1  0
M  CHG  1  31   1
M  END
>  <filename_input>  (16) 
7WL4_JFU_docked.sdf

>  <pdb_id>  (16) 
7WL4_JFU

>  <pose_rank>  (16) 
15

>  <num_atoms_heavy>  (16) 
34

>  <num_torsions>  (16) 
4

>  <pose>  (16) 
[3.058694385556117, 11.806537317198952, 32.2613869217856, 1.873162190971044, 1.9135284580628213, 2.385239286745895, -5.979803177631222, 4.8568381594745516, 15.183347415520986, -0.2671087980279865]

>  <energy>  (16) 
-618.1967320548447

>  <inter_energy>  (16) 
-630.0554564558188

>  <intra_energy>  (16) 
30.881497216223295

>  <rmsd>  (16) 
7.56302

>  <sdf_rank>  (16) 
0

$$$$

     RDKit          3D

 58 62  0  0  0  0  0  0  0  0999 V2000
    1.3683   15.2957   31.5156 F   0  0  0  0  0  0  0  0  0  0  0  0
    0.0849   15.0415   31.3675 C   0  0  0  0  0  0  0  0  0  0  0  0
   -0.7730   15.9622   30.7686 C   0  0  0  0  0  0  0  0  0  0  0  0
   -2.1076   15.6662   30.6282 C   0  0  0  0  0  0  0  0  0  0  0  0
   -2.9393   16.4988   30.1051 F   0  0  0  0  0  0  0  0  0  0  0  0
   -2.5960   14.4596   31.0636 C   0  0  0  0  0  0  0  0  0  0  0  0
   -1.7524   13.5448   31.6538 C   0  0  0  0  0  0  0  0  0  0  0  0
   -0.4132   13.8298   31.8195 C   0  0  0  0  0  0  0  0  0  0  0  0
    0.6159   12.6557   32.6128 S   0  0  1  0  0  0  0  0  0  0  0  0
    0.2778   12.7197   34.0870 O   0  0  0  0  0  0  0  0  0  0  0  0
    0.4055   11.2870   31.9813 O   0  0  0  0  0  0  0  0  0  0  0  0
    2.1648   13.1810   32.4040 N   0  0  0  0  0  0  0  0  0  0  0  0
    2.9377   12.6755   31.3921 C   0  0  0  0  0  0  0  0  0  0  0  0
    2.8243   13.1207   30.0619 C   0  0  0  0  0  0  0  0  0  0  0  0
    3.6661   12.5722   29.0736 C   0  0  0  0  0  0  0  0  0  0  0  0
    4.5748   11.6370   29.3985 C   0  0  0  0  0  0  0  0  0  0  0  0
    5.4933   10.9578   28.6779 N   0  0  0  0  0  0  0  0  0  0  0  0
    5.6383   11.1413   27.2141 C   0  0  0  0  0  0  0  0  0  0  0  0
    5.0708    9.9484   26.4409 C   0  0  0  0  0  0  0  0  0  0  0  0
    6.1424   10.1395   29.5306 C   0  0  0  0  0  0  0  0  0  0  0  0
    7.0487    9.3721   29.1783 O   0  0  0  0  0  0  0  0  0  0  0  0
    5.6355   10.2982   30.7914 C   0  0  0  0  0  0  0  0  0  0  0  0
    5.8491    9.7797   32.0319 C   0  0  0  0  0  0  0  0  0  0  0  0
    4.6778   11.2346   30.6656 C   0  0  0  0  0  0  0  0  0  0  0  0
    3.9158   11.7160   31.6930 C   0  0  0  0  0  0  0  0  0  0  0  0
    4.1246   11.1901   32.9292 N   0  0  0  0  0  0  0  0  0  0  0  0
    5.0877   10.2592   33.1462 C   0  0  0  0  0  0  0  0  0  0  0  0
    5.2206    9.7922   34.4289 N   0  0  0  0  0  0  0  0  0  0  0  0
    5.8252    8.5156   34.7206 C   0  0  0  0  0  0  0  0  0  0  0  0
    6.3886    8.4984   36.1301 C   0  0  0  0  0  0  0  0  0  0  0  0
    5.3684    8.7228   37.1382 N   0  0  1  0  0  0  0  0  0  0  0  0
    5.8944    8.6057   38.4821 C   0  0  0  0  0  0  0  0  0  0  0  0
    5.0387   10.1579   36.9315 C   0  0  0  0  0  0  0  0  0  0  0  0
    4.4640   10.4259   35.5328 C   0  0  0  0  0  0  0  0  0  0  0  0
   -0.3821   16.9252   30.4085 H   0  0  0  0  0  0  0  0  0  0  0  0
   -3.6632   14.2228   30.9408 H   0  0  0  0  0  0  0  0  0  0  0  0
   -2.1503   12.5781   31.9962 H   0  0  0  0  0  0  0  0  0  0  0  0
    2.5537   13.8935   33.0381 H   0  0  0  0  0  0  0  0  0  0  0  0
    2.0848   13.8903   29.7958 H   0  0  0  0  0  0  0  0  0  0  0  0
    3.5789   12.9114   28.0308 H   0  0  0  0  0  0  0  0  0  0  0  0
    5.0995   12.0517   26.9128 H   0  0  0  0  0  0  0  0  0  0  0  0
    6.7100   11.2256   26.9811 H   0  0  0  0  0  0  0  0  0  0  0  0
    4.7097    9.1896   27.1507 H   0  0  0  0  0  0  0  0  0  0  0  0
    4.2363   10.2851   25.8082 H   0  0  0  0  0  0  0  0  0  0  0  0
    5.8584    9.5133   25.8082 H   0  0  0  0  0  0  0  0  0  0  0  0
    6.6050    8.9941   32.1781 H   0  0  0  0  0  0  0  0  0  0  0  0
    5.0652    7.7260   34.6258 H   0  0  0  0  0  0  0  0  0  0  0  0
    6.6462    8.3423   34.0093 H   0  0  0  0  0  0  0  0  0  0  0  0
    6.8551    7.5190   36.3118 H   0  0  0  0  0  0  0  0  0  0  0  0
    7.1212    9.3153   36.2077 H   0  0  0  0  0  0  0  0  0  0  0  0
    4.5920    8.0517   37.0511 H   0  0  0  0  0  0  0  0  0  0  0  0
    5.0881    8.7852   39.2084 H   0  0  0  0  0  0  0  0  0  0  0  0
    6.3022    7.5948   38.6294 H   0  0  0  0  0  0  0  0  0  0  0  0
    6.6926    9.3481   38.6294 H   0  0  0  0  0  0  0  0  0  0  0  0
    4.2963   10.4626   37.6838 H   0  0  0  0  0  0  0  0  0  0  0  0
    5.9696   10.7356   37.0304 H   0  0  0  0  0  0  0  0  0  0  0  0
    4.4579   11.5132   35.3660 H   0  0  0  0  0  0  0  0  0  0  0  0
    3.4568    9.9841   35.5173 H   0  0  0  0  0  0  0  0  0  0  0  0
  1  2  1  0
  2  3  2  0
  2  8  1  0
  3  4  1  0
  4  5  1  0
  4  6  2  0
  6  7  1  0
  7  8  2  0
  8  9  1  0
  9 10  2  0
  9 11  2  0
  9 12  1  1
 12 13  1  0
 13 14  2  0
 13 25  1  0
 14 15  1  0
 15 16  2  0
 16 17  1  0
 16 24  1  0
 17 18  1  0
 17 20  1  0
 18 19  1  0
 20 21  2  0
 20 22  1  0
 22 23  2  0
 22 24  1  0
 23 27  1  0
 24 25  2  0
 25 26  1  0
 26 27  2  0
 27 28  1  0
 28 29  1  0
 28 34  1  0
 29 30  1  0
 30 31  1  0
 31 32  1  0
 31 33  1  0
 33 34  1  0
  3 35  1  0
  6 36  1  0
  7 37  1  0
 12 38  1  0
 14 39  1  0
 15 40  1  0
 18 41  1  0
 18 42  1  0
 19 43  1  0
 19 44  1  0
 19 45  1  0
 23 46  1  0
 29 47  1  0
 29 48  1  0
 30 49  1  0
 30 50  1  0
 31 51  1  6
 32 52  1  0
 32 53  1  0
 32 54  1  0
 33 55  1  0
 33 56  1  0
 34 57  1  0
 34 58  1  0
M  CHG  1  31   1
M  END
>  <filename_input>  (17) 
7WL4_JFU_docked.sdf

>  <pdb_id>  (17) 
7WL4_JFU

>  <pose_rank>  (17) 
16

>  <num_atoms_heavy>  (17) 
34

>  <num_torsions>  (17) 
4

>  <pose>  (17) 
[2.937683323591842, 12.675528919458998, 31.392120103445922, -1.1059735958822159, -3.667905369895618, -1.2813154158903095, -0.2670526042301549, 0.21183210162115731, -2.7837215832727784, 4.976367853262576]

>  <energy>  (17) 
-655.7347383913088

>  <inter_energy>  (17) 
-687.8399160538154

>  <intra_energy>  (17) 
33.91275168001541

>  <rmsd>  (17) 
7.27042

>  <sdf_rank>  (17) 
0

$$$$

     RDKit          3D

 58 62  0  0  0  0  0  0  0  0999 V2000
   -3.1455   12.2180   31.7616 F   0  0  0  0  0  0  0  0  0  0  0  0
   -2.6406   13.4331   31.7144 C   0  0  0  0  0  0  0  0  0  0  0  0
   -3.1917   14.4168   30.8951 C   0  0  0  0  0  0  0  0  0  0  0  0
   -2.6416   15.6758   30.8690 C   0  0  0  0  0  0  0  0  0  0  0  0
   -3.1030   16.6058   30.1070 F   0  0  0  0  0  0  0  0  0  0  0  0
   -1.5588   15.9718   31.6589 C   0  0  0  0  0  0  0  0  0  0  0  0
   -1.0116   15.0045   32.4724 C   0  0  0  0  0  0  0  0  0  0  0  0
   -1.5383   13.7302   32.5001 C   0  0  0  0  0  0  0  0  0  0  0  0
   -0.7860   12.5192   33.5171 S   0  0  1  0  0  0  0  0  0  0  0  0
    0.1417   13.2648   34.4525 O   0  0  0  0  0  0  0  0  0  0  0  0
   -1.8635   11.7064   34.2207 O   0  0  0  0  0  0  0  0  0  0  0  0
    0.1220   11.5734   32.5173 N   0  0  0  0  0  0  0  0  0  0  0  0
    1.4249   11.2866   32.8288 C   0  0  0  0  0  0  0  0  0  0  0  0
    1.7933   10.1298   33.5404 C   0  0  0  0  0  0  0  0  0  0  0  0
    3.1552    9.8856   33.8087 C   0  0  0  0  0  0  0  0  0  0  0  0
    4.0958   10.7458   33.3830 C   0  0  0  0  0  0  0  0  0  0  0  0
    5.4421   10.7624   33.4888 N   0  0  0  0  0  0  0  0  0  0  0  0
    6.1877    9.7082   34.2168 C   0  0  0  0  0  0  0  0  0  0  0  0
    5.5734    9.4352   35.5919 C   0  0  0  0  0  0  0  0  0  0  0  0
    5.8766   11.8758   32.8646 C   0  0  0  0  0  0  0  0  0  0  0  0
    7.0728   12.1887   32.7882 O   0  0  0  0  0  0  0  0  0  0  0  0
    4.8068   12.5661   32.3640 C   0  0  0  0  0  0  0  0  0  0  0  0
    4.5904   13.7173   31.6704 C   0  0  0  0  0  0  0  0  0  0  0  0
    3.7311   11.8312   32.6996 C   0  0  0  0  0  0  0  0  0  0  0  0
    2.4397   12.1455   32.3812 C   0  0  0  0  0  0  0  0  0  0  0  0
    2.2254   13.3004   31.6965 N   0  0  0  0  0  0  0  0  0  0  0  0
    3.2573   14.0865   31.2989 C   0  0  0  0  0  0  0  0  0  0  0  0
    2.9370   15.2297   30.6124 N   0  0  0  0  0  0  0  0  0  0  0  0
    3.8280   16.3622   30.5520 C   0  0  0  0  0  0  0  0  0  0  0  0
    3.5537   17.1952   29.3129 C   0  0  0  0  0  0  0  0  0  0  0  0
    2.2007   17.7205   29.2857 N   0  0  1  0  0  0  0  0  0  0  0  0
    1.9775   18.5947   28.1533 C   0  0  0  0  0  0  0  0  0  0  0  0
    1.3966   16.4934   29.0437 C   0  0  0  0  0  0  0  0  0  0  0  0
    1.5412   15.4710   30.1805 C   0  0  0  0  0  0  0  0  0  0  0  0
   -4.0665   14.1854   30.2697 H   0  0  0  0  0  0  0  0  0  0  0  0
   -1.1273   16.9835   31.6421 H   0  0  0  0  0  0  0  0  0  0  0  0
   -0.1466   15.2506   33.1059 H   0  0  0  0  0  0  0  0  0  0  0  0
   -0.2928   11.1959   31.6535 H   0  0  0  0  0  0  0  0  0  0  0  0
    1.0247    9.4220   33.8844 H   0  0  0  0  0  0  0  0  0  0  0  0
    3.4497    8.9863   34.3695 H   0  0  0  0  0  0  0  0  0  0  0  0
    6.1657    8.7812   33.6249 H   0  0  0  0  0  0  0  0  0  0  0  0
    7.2215   10.0546   34.3629 H   0  0  0  0  0  0  0  0  0  0  0  0
    6.2777    9.7481   36.3768 H   0  0  0  0  0  0  0  0  0  0  0  0
    4.6358   10.0015   35.6935 H   0  0  0  0  0  0  0  0  0  0  0  0
    5.3651    8.3599   35.6935 H   0  0  0  0  0  0  0  0  0  0  0  0
    5.4378   14.3628   31.3957 H   0  0  0  0  0  0  0  0  0  0  0  0
    3.6806   16.9858   31.4462 H   0  0  0  0  0  0  0  0  0  0  0  0
    4.8641   15.9952   30.5093 H   0  0  0  0  0  0  0  0  0  0  0  0
    4.2601   18.0381   29.2907 H   0  0  0  0  0  0  0  0  0  0  0  0
    3.6769   16.5420   28.4365 H   0  0  0  0  0  0  0  0  0  0  0  0
    1.9826   18.2570   30.1375 H   0  0  0  0  0  0  0  0  0  0  0  0
    1.7204   19.6020   28.5127 H   0  0  0  0  0  0  0  0  0  0  0  0
    2.8916   18.6452   27.5434 H   0  0  0  0  0  0  0  0  0  0  0  0
    1.1511   18.2009   27.5434 H   0  0  0  0  0  0  0  0  0  0  0  0
    0.3373   16.7760   28.9542 H   0  0  0  0  0  0  0  0  0  0  0  0
    1.7657   16.0249   28.1194 H   0  0  0  0  0  0  0  0  0  0  0  0
    1.1165   14.5152   29.8397 H   0  0  0  0  0  0  0  0  0  0  0  0
    1.0119   15.8901   31.0489 H   0  0  0  0  0  0  0  0  0  0  0  0
  1  2  1  0
  2  3  2  0
  2  8  1  0
  3  4  1  0
  4  5  1  0
  4  6  2  0
  6  7  1  0
  7  8  2  0
  8  9  1  0
  9 10  2  0
  9 11  2  0
  9 12  1  6
 12 13  1  0
 13 14  2  0
 13 25  1  0
 14 15  1  0
 15 16  2  0
 16 17  1  0
 16 24  1  0
 17 18  1  0
 17 20  1  0
 18 19  1  0
 20 21  2  0
 20 22  1  0
 22 23  2  0
 22 24  1  0
 23 27  1  0
 24 25  2  0
 25 26  1  0
 26 27  2  0
 27 28  1  0
 28 29  1  0
 28 34  1  0
 29 30  1  0
 30 31  1  0
 31 32  1  0
 31 33  1  0
 33 34  1  0
  3 35  1  0
  6 36  1  0
  7 37  1  0
 12 38  1  0
 14 39  1  0
 15 40  1  0
 18 41  1  0
 18 42  1  0
 19 43  1  0
 19 44  1  0
 19 45  1  0
 23 46  1  0
 29 47  1  0
 29 48  1  0
 30 49  1  0
 30 50  1  0
 31 51  1  1
 32 52  1  0
 32 53  1  0
 32 54  1  0
 33 55  1  0
 33 56  1  0
 34 57  1  0
 34 58  1  0
M  CHG  1  31   1
M  END
>  <filename_input>  (18) 
7WL4_JFU_docked.sdf

>  <pdb_id>  (18) 
7WL4_JFU

>  <pose_rank>  (18) 
17

>  <num_atoms_heavy>  (18) 
34

>  <num_torsions>  (18) 
4

>  <pose>  (18) 
[1.4248726233741742, 11.28660397550318, 32.82878439366919, 1.8405688459380973, -2.1794085292860434, 1.8337320242171422, 0.739896471985961, 0.4383476215370387, 1.197114844676034, 0.23117008244857976]

>  <energy>  (18) 
-495.50070689204495

>  <inter_energy>  (18) 
-523.0259421255378

>  <intra_energy>  (18) 
32.509980509462274

>  <rmsd>  (18) 
6.39457

>  <sdf_rank>  (18) 
0

$$$$

     RDKit          3D

 58 62  0  0  0  0  0  0  0  0999 V2000
    2.7909   13.4333   32.4036 F   0  0  0  0  0  0  0  0  0  0  0  0
    2.3978   12.2467   31.9901 C   0  0  0  0  0  0  0  0  0  0  0  0
    1.2025   11.6830   32.4327 C   0  0  0  0  0  0  0  0  0  0  0  0
    0.8200   10.4427   31.9815 C   0  0  0  0  0  0  0  0  0  0  0  0
   -0.2629    9.8743   32.3853 F   0  0  0  0  0  0  0  0  0  0  0  0
    1.6053    9.7627   31.0844 C   0  0  0  0  0  0  0  0  0  0  0  0
    2.7864   10.3159   30.6415 C   0  0  0  0  0  0  0  0  0  0  0  0
    3.1964   11.5519   31.0955 C   0  0  0  0  0  0  0  0  0  0  0  0
    4.7252   12.1999   30.5389 S   0  0  1  0  0  0  0  0  0  0  0  0
    4.6122   12.3264   29.0347 O   0  0  0  0  0  0  0  0  0  0  0  0
    5.0130   13.5105   31.2574 O   0  0  0  0  0  0  0  0  0  0  0  0
    5.8657   11.0615   30.8880 N   0  0  0  0  0  0  0  0  0  0  0  0
    7.1071   11.4366   31.3295 C   0  0  0  0  0  0  0  0  0  0  0  0
    8.0194   12.1317   30.5140 C   0  0  0  0  0  0  0  0  0  0  0  0
    9.2726   12.5059   31.0393 C   0  0  0  0  0  0  0  0  0  0  0  0
    9.5923   12.2083   32.3101 C   0  0  0  0  0  0  0  0  0  0  0  0
   10.6904   12.4419   33.0609 N   0  0  0  0  0  0  0  0  0  0  0  0
   11.8861   13.1272   32.5150 C   0  0  0  0  0  0  0  0  0  0  0  0
   11.6162   14.6133   32.2674 C   0  0  0  0  0  0  0  0  0  0  0  0
   10.4568   11.9187   34.2814 C   0  0  0  0  0  0  0  0  0  0  0  0
   11.2784   11.9618   35.2075 O   0  0  0  0  0  0  0  0  0  0  0  0
    9.2117   11.3522   34.3050 C   0  0  0  0  0  0  0  0  0  0  0  0
    8.4284   10.6867   35.1977 C   0  0  0  0  0  0  0  0  0  0  0  0
    8.7119   11.5598   33.0734 C   0  0  0  0  0  0  0  0  0  0  0  0
    7.4706   11.1676   32.6574 C   0  0  0  0  0  0  0  0  0  0  0  0
    6.6937   10.4950   33.5477 N   0  0  0  0  0  0  0  0  0  0  0  0
    7.1131   10.2658   34.8176 C   0  0  0  0  0  0  0  0  0  0  0  0
    6.2555    9.5803   35.6394 N   0  0  0  0  0  0  0  0  0  0  0  0
    6.7182    8.8612   36.8009 C   0  0  0  0  0  0  0  0  0  0  0  0
    5.6054    8.7217   37.8240 C   0  0  0  0  0  0  0  0  0  0  0  0
    4.4620    7.9937   37.3044 N   0  0  1  0  0  0  0  0  0  0  0  0
    3.4477    7.7778   38.3148 C   0  0  0  0  0  0  0  0  0  0  0  0
    3.8949    8.9624   36.3293 C   0  0  0  0  0  0  0  0  0  0  0  0
    4.8757    9.2827   35.1918 C   0  0  0  0  0  0  0  0  0  0  0  0
    0.5656   12.2307   33.1429 H   0  0  0  0  0  0  0  0  0  0  0  0
    1.2909    8.7742   30.7185 H   0  0  0  0  0  0  0  0  0  0  0  0
    3.4082    9.7668   29.9191 H   0  0  0  0  0  0  0  0  0  0  0  0
    5.6434   10.0623   30.7735 H   0  0  0  0  0  0  0  0  0  0  0  0
    7.7567   12.3809   29.4754 H   0  0  0  0  0  0  0  0  0  0  0  0
    9.9928   13.0443   30.4056 H   0  0  0  0  0  0  0  0  0  0  0  0
   12.7136   13.0289   33.2331 H   0  0  0  0  0  0  0  0  0  0  0  0
   12.1443   12.6582   31.5540 H   0  0  0  0  0  0  0  0  0  0  0  0
   11.5215   15.1344   33.2315 H   0  0  0  0  0  0  0  0  0  0  0  0
   12.4501   15.0473   31.6963 H   0  0  0  0  0  0  0  0  0  0  0  0
   10.6828   14.7262   31.6963 H   0  0  0  0  0  0  0  0  0  0  0  0
    8.8048   10.4726   36.2088 H   0  0  0  0  0  0  0  0  0  0  0  0
    7.0552    7.8597   36.4951 H   0  0  0  0  0  0  0  0  0  0  0  0
    7.5488    9.4209   37.2558 H   0  0  0  0  0  0  0  0  0  0  0  0
    5.9971    8.1847   38.7005 H   0  0  0  0  0  0  0  0  0  0  0  0
    5.2656    9.7338   38.0890 H   0  0  0  0  0  0  0  0  0  0  0  0
    4.7327    7.0705   36.9365 H   0  0  0  0  0  0  0  0  0  0  0  0
    3.8987    7.8738   39.3135 H   0  0  0  0  0  0  0  0  0  0  0  0
    2.6499    8.5263   38.1993 H   0  0  0  0  0  0  0  0  0  0  0  0
    3.0239    6.7693   38.1993 H   0  0  0  0  0  0  0  0  0  0  0  0
    2.9786    8.5341   35.8967 H   0  0  0  0  0  0  0  0  0  0  0  0
    3.6844    9.8986   36.8671 H   0  0  0  0  0  0  0  0  0  0  0  0
    4.4949   10.1582   34.6454 H   0  0  0  0  0  0  0  0  0  0  0  0
    4.9365    8.3800   34.5661 H   0  0  0  0  0  0  0  0  0  0  0  0
  1  2  1  0
  2  3  2  0
  2  8  1  0
  3  4  1  0
  4  5  1  0
  4  6  2  0
  6  7  1  0
  7  8  2  0
  8  9  1  0
  9 10  2  0
  9 11  2  0
  9 12  1  6
 12 13  1  0
 13 14  2  0
 13 25  1  0
 14 15  1  0
 15 16  2  0
 16 17  1  0
 16 24  1  0
 17 18  1  0
 17 20  1  0
 18 19  1  0
 20 21  2  0
 20 22  1  0
 22 23  2  0
 22 24  1  0
 23 27  1  0
 24 25  2  0
 25 26  1  0
 26 27  2  0
 27 28  1  0
 28 29  1  0
 28 34  1  0
 29 30  1  0
 30 31  1  0
 31 32  1  0
 31 33  1  0
 33 34  1  0
  3 35  1  0
  6 36  1  0
  7 37  1  0
 12 38  1  0
 14 39  1  0
 15 40  1  0
 18 41  1  0
 18 42  1  0
 19 43  1  0
 19 44  1  0
 19 45  1  0
 23 46  1  0
 29 47  1  0
 29 48  1  0
 30 49  1  0
 30 50  1  0
 31 51  1  6
 32 52  1  0
 32 53  1  0
 32 54  1  0
 33 55  1  0
 33 56  1  0
 34 57  1  0
 34 58  1  0
M  CHG  1  31   1
M  END
>  <filename_input>  (19) 
7WL4_JFU_docked.sdf

>  <pdb_id>  (19) 
7WL4_JFU

>  <pose_rank>  (19) 
18

>  <num_atoms_heavy>  (19) 
34

>  <num_torsions>  (19) 
4

>  <pose>  (19) 
[7.107097351750198, 11.436601597876427, 31.329454867713046, -0.5975198733535951, 1.0777840451965623, 1.0508510594923284, 2.8146283502219918, -2.350938144389274, 2.724313229041153, -5.236969706015653]

>  <energy>  (19) 
-700.6192365651514

>  <inter_energy>  (19) 
-697.6142520402246

>  <intra_energy>  (19) 
21.189716145521572

>  <rmsd>  (19) 
5.89648

>  <sdf_rank>  (19) 
0

$$$$

     RDKit          3D

 58 62  0  0  0  0  0  0  0  0999 V2000
    6.9502   10.6531   33.0642 F   0  0  0  0  0  0  0  0  0  0  0  0
    6.9333   11.5395   32.0908 C   0  0  0  0  0  0  0  0  0  0  0  0
    8.1070   11.9452   31.4580 C   0  0  0  0  0  0  0  0  0  0  0  0
    8.0554   12.8719   30.4446 C   0  0  0  0  0  0  0  0  0  0  0  0
    9.1179   13.2938   29.8517 F   0  0  0  0  0  0  0  0  0  0  0  0
    6.8488   13.3890   30.0438 C   0  0  0  0  0  0  0  0  0  0  0  0
    5.6854   12.9899   30.6636 C   0  0  0  0  0  0  0  0  0  0  0  0
    5.7177   12.0739   31.6941 C   0  0  0  0  0  0  0  0  0  0  0  0
    4.2197   11.6255   32.4827 S   0  0  1  0  0  0  0  0  0  0  0  0
    4.1086   10.1207   32.3625 O   0  0  0  0  0  0  0  0  0  0  0  0
    4.2260   12.1403   33.9151 O   0  0  0  0  0  0  0  0  0  0  0  0
    3.0080   12.3156   31.6027 N   0  0  0  0  0  0  0  0  0  0  0  0
    1.7143   12.2720   32.0511 C   0  0  0  0  0  0  0  0  0  0  0  0
    1.1667   11.1302   32.6650 C   0  0  0  0  0  0  0  0  0  0  0  0
   -0.1660   11.1612   33.1224 C   0  0  0  0  0  0  0  0  0  0  0  0
   -0.9066   12.2735   32.9807 C   0  0  0  0  0  0  0  0  0  0  0  0
   -2.1765   12.5823   33.3216 N   0  0  0  0  0  0  0  0  0  0  0  0
   -3.0810   11.5982   33.9626 C   0  0  0  0  0  0  0  0  0  0  0  0
   -3.6315   12.1248   35.2902 C   0  0  0  0  0  0  0  0  0  0  0  0
   -2.3925   13.8570   32.9390 C   0  0  0  0  0  0  0  0  0  0  0  0
   -3.4714   14.4426   33.1056 O   0  0  0  0  0  0  0  0  0  0  0  0
   -1.2611   14.3567   32.3544 C   0  0  0  0  0  0  0  0  0  0  0  0
   -0.8589   15.5243   31.7815 C   0  0  0  0  0  0  0  0  0  0  0  0
   -0.3691   13.3510   32.4077 C   0  0  0  0  0  0  0  0  0  0  0  0
    0.9151   13.4201   31.9453 C   0  0  0  0  0  0  0  0  0  0  0  0
    1.3115   14.5840   31.3653 N   0  0  0  0  0  0  0  0  0  0  0  0
    0.4813   15.6548   31.2933 C   0  0  0  0  0  0  0  0  0  0  0  0
    0.9758   16.7833   30.6908 N   0  0  0  0  0  0  0  0  0  0  0  0
    0.1126   17.7883   30.1207 C   0  0  0  0  0  0  0  0  0  0  0  0
    0.8119   19.1350   30.0787 C   0  0  0  0  0  0  0  0  0  0  0  0
    2.0190   19.1085   29.2728 N   0  0  1  0  0  0  0  0  0  0  0  0
    2.6254   20.4181   29.1554 C   0  0  0  0  0  0  0  0  0  0  0  0
    2.9329   18.2875   30.1103 C   0  0  0  0  0  0  0  0  0  0  0  0
    2.4063   16.8596   30.3159 C   0  0  0  0  0  0  0  0  0  0  0  0
    9.0741   11.5238   31.7696 H   0  0  0  0  0  0  0  0  0  0  0  0
    6.8109   14.1236   29.2259 H   0  0  0  0  0  0  0  0  0  0  0  0
    4.7218   13.4055   30.3338 H   0  0  0  0  0  0  0  0  0  0  0  0
    3.2251   12.7821   30.7105 H   0  0  0  0  0  0  0  0  0  0  0  0
    1.7738   10.2210   32.7867 H   0  0  0  0  0  0  0  0  0  0  0  0
   -0.6022   10.2703   33.5979 H   0  0  0  0  0  0  0  0  0  0  0  0
   -3.9217   11.3905   33.2842 H   0  0  0  0  0  0  0  0  0  0  0  0
   -2.5066   10.6824   34.1658 H   0  0  0  0  0  0  0  0  0  0  0  0
   -3.1133   11.6291   36.1244 H   0  0  0  0  0  0  0  0  0  0  0  0
   -3.4676   13.2108   35.3501 H   0  0  0  0  0  0  0  0  0  0  0  0
   -4.7092   11.9128   35.3501 H   0  0  0  0  0  0  0  0  0  0  0  0
   -1.5618   16.3659   31.6937 H   0  0  0  0  0  0  0  0  0  0  0  0
   -0.1607   17.4912   29.0974 H   0  0  0  0  0  0  0  0  0  0  0  0
   -0.7882   17.8768   30.7458 H   0  0  0  0  0  0  0  0  0  0  0  0
    0.1208   19.8785   29.6550 H   0  0  0  0  0  0  0  0  0  0  0  0
    1.1020   19.3937   31.1077 H   0  0  0  0  0  0  0  0  0  0  0  0
    1.8332   18.7678   28.3187 H   0  0  0  0  0  0  0  0  0  0  0  0
    2.8143   20.8260   30.1593 H   0  0  0  0  0  0  0  0  0  0  0  0
    3.5763   20.3342   28.6088 H   0  0  0  0  0  0  0  0  0  0  0  0
    1.9463   21.0890   28.6088 H   0  0  0  0  0  0  0  0  0  0  0  0
    3.9146   18.2353   29.6166 H   0  0  0  0  0  0  0  0  0  0  0  0
    3.0063   18.7657   31.0982 H   0  0  0  0  0  0  0  0  0  0  0  0
    2.9970   16.3867   31.1144 H   0  0  0  0  0  0  0  0  0  0  0  0
    2.5050   16.3462   29.3481 H   0  0  0  0  0  0  0  0  0  0  0  0
  1  2  1  0
  2  3  2  0
  2  8  1  0
  3  4  1  0
  4  5  1  0
  4  6  2  0
  6  7  1  0
  7  8  2  0
  8  9  1  0
  9 10  2  0
  9 11  2  0
  9 12  1  6
 12 13  1  0
 13 14  2  0
 13 25  1  0
 14 15  1  0
 15 16  2  0
 16 17  1  0
 16 24  1  0
 17 18  1  0
 17 20  1  0
 18 19  1  0
 20 21  2  0
 20 22  1  0
 22 23  2  0
 22 24  1  0
 23 27  1  0
 24 25  2  0
 25 26  1  0
 26 27  2  0
 27 28  1  0
 28 29  1  0
 28 34  1  0
 29 30  1  0
 30 31  1  0
 31 32  1  0
 31 33  1  0
 33 34  1  0
  3 35  1  0
  6 36  1  0
  7 37  1  0
 12 38  1  0
 14 39  1  0
 15 40  1  0
 18 41  1  0
 18 42  1  0
 19 43  1  0
 19 44  1  0
 19 45  1  0
 23 46  1  0
 29 47  1  0
 29 48  1  0
 30 49  1  0
 30 50  1  0
 31 51  1  6
 32 52  1  0
 32 53  1  0
 32 54  1  0
 33 55  1  0
 33 56  1  0
 34 57  1  0
 34 58  1  0
M  CHG  1  31   1
M  END
>  <filename_input>  (20) 
7WL4_JFU_docked.sdf

>  <pdb_id>  (20) 
7WL4_JFU

>  <pose_rank>  (20) 
19

>  <num_atoms_heavy>  (20) 
34

>  <num_torsions>  (20) 
4

>  <pose>  (20) 
[1.714303234240111, 12.272026229014509, 32.05114965662419, -0.6603529815488351, 1.916121947257208, 4.50398404598057, -2.5387133444671885, -1.8830704570133303, -4.103925643961009, -10.423133908771083]

>  <energy>  (20) 
-524.6367442615403

>  <inter_energy>  (20) 
-542.6303035300293

>  <intra_energy>  (20) 
13.978261526085399

>  <rmsd>  (20) 
6.4111

>  <sdf_rank>  (20) 
0

$$$$

     RDKit          3D

 58 62  0  0  0  0  0  0  0  0999 V2000
   10.2171   10.9902   33.9188 F   0  0  0  0  0  0  0  0  0  0  0  0
   10.8952   11.9374   33.3053 C   0  0  0  0  0  0  0  0  0  0  0  0
   12.0742   12.4505   33.8429 C   0  0  0  0  0  0  0  0  0  0  0  0
   12.7591   13.4387   33.1773 C   0  0  0  0  0  0  0  0  0  0  0  0
   13.8375   13.9589   33.6515 F   0  0  0  0  0  0  0  0  0  0  0  0
   12.2925   13.9123   31.9765 C   0  0  0  0  0  0  0  0  0  0  0  0
   11.1293   13.4072   31.4390 C   0  0  0  0  0  0  0  0  0  0  0  0
   10.4182   12.4275   32.0998 C   0  0  0  0  0  0  0  0  0  0  0  0
    8.9222   11.8431   31.4017 S   0  0  1  0  0  0  0  0  0  0  0  0
    7.9294   12.9808   31.5078 O   0  0  0  0  0  0  0  0  0  0  0  0
    9.1779   11.3660   29.9792 O   0  0  0  0  0  0  0  0  0  0  0  0
    8.4125   10.6069   32.3664 N   0  0  0  0  0  0  0  0  0  0  0  0
    7.2770   10.7396   33.1212 C   0  0  0  0  0  0  0  0  0  0  0  0
    7.3163   10.9739   34.5083 C   0  0  0  0  0  0  0  0  0  0  0  0
    6.1092   11.1216   35.2206 C   0  0  0  0  0  0  0  0  0  0  0  0
    4.9298   11.0467   34.5807 C   0  0  0  0  0  0  0  0  0  0  0  0
    3.6495   11.1532   34.9971 N   0  0  0  0  0  0  0  0  0  0  0  0
    3.3000   11.3661   36.4218 C   0  0  0  0  0  0  0  0  0  0  0  0
    3.8373   10.2376   37.3053 C   0  0  0  0  0  0  0  0  0  0  0  0
    2.8640   10.9972   33.9123 C   0  0  0  0  0  0  0  0  0  0  0  0
    1.6267   11.0354   33.9585 O   0  0  0  0  0  0  0  0  0  0  0  0
    3.6451   10.7906   32.8083 C   0  0  0  0  0  0  0  0  0  0  0  0
    3.4638   10.5684   31.4775 C   0  0  0  0  0  0  0  0  0  0  0  0
    4.9101   10.8362   33.2641 C   0  0  0  0  0  0  0  0  0  0  0  0
    6.0259   10.6931   32.4881 C   0  0  0  0  0  0  0  0  0  0  0  0
    5.8421   10.4621   31.1610 N   0  0  0  0  0  0  0  0  0  0  0  0
    4.5997   10.4256   30.6169 C   0  0  0  0  0  0  0  0  0  0  0  0
    4.5203   10.1877   29.2686 N   0  0  0  0  0  0  0  0  0  0  0  0
    3.3293    9.6552   28.6534 C   0  0  0  0  0  0  0  0  0  0  0  0
    3.2645   10.0415   27.1868 C   0  0  0  0  0  0  0  0  0  0  0  0
    4.3940    9.5343   26.4290 N   0  0  1  0  0  0  0  0  0  0  0  0
    4.2748    9.8206   25.0147 C   0  0  0  0  0  0  0  0  0  0  0  0
    5.5117   10.3702   26.9418 C   0  0  0  0  0  0  0  0  0  0  0  0
    5.7503   10.1620   28.4445 C   0  0  0  0  0  0  0  0  0  0  0  0
   12.4564   12.0647   34.7994 H   0  0  0  0  0  0  0  0  0  0  0  0
   12.8487   14.6967   31.4423 H   0  0  0  0  0  0  0  0  0  0  0  0
   10.7641   13.7887   30.4741 H   0  0  0  0  0  0  0  0  0  0  0  0
    8.9510    9.7296   32.4018 H   0  0  0  0  0  0  0  0  0  0  0  0
    8.2812   11.0411   35.0322 H   0  0  0  0  0  0  0  0  0  0  0  0
    6.1325   11.2991   36.3059 H   0  0  0  0  0  0  0  0  0  0  0  0
    3.7330   12.3200   36.7575 H   0  0  0  0  0  0  0  0  0  0  0  0
    2.2036   11.3815   36.5099 H   0  0  0  0  0  0  0  0  0  0  0  0
    3.7087   10.5078   38.3638 H   0  0  0  0  0  0  0  0  0  0  0  0
    3.2837    9.3109   37.0935 H   0  0  0  0  0  0  0  0  0  0  0  0
    4.9056   10.0831   37.0935 H   0  0  0  0  0  0  0  0  0  0  0  0
    2.4469   10.4988   31.0640 H   0  0  0  0  0  0  0  0  0  0  0  0
    3.3386    8.5585   28.7380 H   0  0  0  0  0  0  0  0  0  0  0  0
    2.4499   10.0701   29.1677 H   0  0  0  0  0  0  0  0  0  0  0  0
    2.3383    9.6341   26.7551 H   0  0  0  0  0  0  0  0  0  0  0  0
    3.2882   11.1397   27.1285 H   0  0  0  0  0  0  0  0  0  0  0  0
    4.4941    8.5142   26.5301 H   0  0  0  0  0  0  0  0  0  0  0  0
    3.8551   10.8282   24.8786 H   0  0  0  0  0  0  0  0  0  0  0  0
    5.2685    9.7708   24.5455 H   0  0  0  0  0  0  0  0  0  0  0  0
    3.6103    9.0802   24.5455 H   0  0  0  0  0  0  0  0  0  0  0  0
    6.4303   10.1059   26.3974 H   0  0  0  0  0  0  0  0  0  0  0  0
    5.2431   11.4254   26.7857 H   0  0  0  0  0  0  0  0  0  0  0  0
    6.4195   10.9592   28.8003 H   0  0  0  0  0  0  0  0  0  0  0  0
    6.1829    9.1569   28.5574 H   0  0  0  0  0  0  0  0  0  0  0  0
  1  2  1  0
  2  3  2  0
  2  8  1  0
  3  4  1  0
  4  5  1  0
  4  6  2  0
  6  7  1  0
  7  8  2  0
  8  9  1  0
  9 10  2  0
  9 11  2  0
  9 12  1  1
 12 13  1  0
 13 14  2  0
 13 25  1  0
 14 15  1  0
 15 16  2  0
 16 17  1  0
 16 24  1  0
 17 18  1  0
 17 20  1  0
 18 19  1  0
 20 21  2  0
 20 22  1  0
 22 23  2  0
 22 24  1  0
 23 27  1  0
 24 25  2  0
 25 26  1  0
 26 27  2  0
 27 28  1  0
 28 29  1  0
 28 34  1  0
 29 30  1  0
 30 31  1  0
 31 32  1  0
 31 33  1  0
 33 34  1  0
  3 35  1  0
  6 36  1  0
  7 37  1  0
 12 38  1  0
 14 39  1  0
 15 40  1  0
 18 41  1  0
 18 42  1  0
 19 43  1  0
 19 44  1  0
 19 45  1  0
 23 46  1  0
 29 47  1  0
 29 48  1  0
 30 49  1  0
 30 50  1  0
 31 51  1  6
 32 52  1  0
 32 53  1  0
 32 54  1  0
 33 55  1  0
 33 56  1  0
 34 57  1  0
 34 58  1  0
M  CHG  1  31   1
M  END
>  <filename_input>  (21) 
7WL4_JFU_docked.sdf

>  <pdb_id>  (21) 
7WL4_JFU

>  <pose_rank>  (21) 
20

>  <num_atoms_heavy>  (21) 
34

>  <num_torsions>  (21) 
4

>  <pose>  (21) 
[7.276964659350257, 10.73960078173805, 33.121225216575986, -48.683887384884336, -48.74832197578651, -14.320706039733363, -12.014468012696923, -2.9937935190774603, -17.979141355077804, -1.2175370430860042]

>  <energy>  (21) 
-754.7615916904534

>  <inter_energy>  (21) 
-812.4443709358432

>  <intra_energy>  (21) 
56.62974950080677

>  <rmsd>  (21) 
5.7153

>  <sdf_rank>  (21) 
0

$$$$

     RDKit          3D

 58 62  0  0  0  0  0  0  0  0999 V2000
   -3.4611   13.6544   32.0968 F   0  0  0  0  0  0  0  0  0  0  0  0
   -3.6180   13.8980   33.3811 C   0  0  0  0  0  0  0  0  0  0  0  0
   -4.5542   13.2012   34.1431 C   0  0  0  0  0  0  0  0  0  0  0  0
   -4.6930   13.4787   35.4818 C   0  0  0  0  0  0  0  0  0  0  0  0
   -5.5636   12.8774   36.2160 F   0  0  0  0  0  0  0  0  0  0  0  0
   -3.9019   14.4310   36.0744 C   0  0  0  0  0  0  0  0  0  0  0  0
   -2.9732   15.1209   35.3270 C   0  0  0  0  0  0  0  0  0  0  0  0
   -2.8304   14.8693   33.9786 C   0  0  0  0  0  0  0  0  0  0  0  0
   -1.6669   15.7988   33.0570 S   0  0  1  0  0  0  0  0  0  0  0  0
   -2.4644   16.8047   32.2548 O   0  0  0  0  0  0  0  0  0  0  0  0
   -0.6485   16.4188   34.0030 O   0  0  0  0  0  0  0  0  0  0  0  0
   -0.9508   14.7414   32.0140 N   0  0  0  0  0  0  0  0  0  0  0  0
   -0.0112   15.1800   31.1188 C   0  0  0  0  0  0  0  0  0  0  0  0
   -0.2468   16.2579   30.2452 C   0  0  0  0  0  0  0  0  0  0  0  0
    0.7724   16.6709   29.3636 C   0  0  0  0  0  0  0  0  0  0  0  0
    1.9621   16.0461   29.3611 C   0  0  0  0  0  0  0  0  0  0  0  0
    3.0942   16.2271   28.6472 N   0  0  0  0  0  0  0  0  0  0  0  0
    3.2023   17.2623   27.5916 C   0  0  0  0  0  0  0  0  0  0  0  0
    3.1066   18.6728   28.1781 C   0  0  0  0  0  0  0  0  0  0  0  0
    3.9830   15.3056   29.0701 C   0  0  0  0  0  0  0  0  0  0  0  0
    5.1267   15.2017   28.6056 O   0  0  0  0  0  0  0  0  0  0  0  0
    3.4151   14.5393   30.0508 C   0  0  0  0  0  0  0  0  0  0  0  0
    3.7744   13.4882   30.8380 C   0  0  0  0  0  0  0  0  0  0  0  0
    2.1735   15.0342   30.2035 C   0  0  0  0  0  0  0  0  0  0  0  0
    1.2528   14.5716   31.1012 C   0  0  0  0  0  0  0  0  0  0  0  0
    1.6106   13.5160   31.8797 N   0  0  0  0  0  0  0  0  0  0  0  0
    2.8521   12.9737   31.8055 C   0  0  0  0  0  0  0  0  0  0  0  0
    3.1157   11.9129   32.6338 N   0  0  0  0  0  0  0  0  0  0  0  0
    4.1589   10.9587   32.3483 C   0  0  0  0  0  0  0  0  0  0  0  0
    4.6405   10.2925   33.6244 C   0  0  0  0  0  0  0  0  0  0  0  0
    3.5823    9.5697   34.3065 N   0  0  1  0  0  0  0  0  0  0  0  0
    4.0702    8.8550   35.4673 C   0  0  0  0  0  0  0  0  0  0  0  0
    2.7281   10.6762   34.8134 C   0  0  0  0  0  0  0  0  0  0  0  0
    2.1384   11.5224   33.6755 C   0  0  0  0  0  0  0  0  0  0  0  0
   -5.1815   12.4295   33.6731 H   0  0  0  0  0  0  0  0  0  0  0  0
   -4.0097   14.6435   37.1483 H   0  0  0  0  0  0  0  0  0  0  0  0
   -2.3398   15.8795   35.8100 H   0  0  0  0  0  0  0  0  0  0  0  0
   -1.2115   13.7452   32.0356 H   0  0  0  0  0  0  0  0  0  0  0  0
   -1.2183   16.7738   30.2503 H   0  0  0  0  0  0  0  0  0  0  0  0
    0.5930   17.5089   28.6741 H   0  0  0  0  0  0  0  0  0  0  0  0
    4.1703   17.1523   27.0808 H   0  0  0  0  0  0  0  0  0  0  0  0
    2.3697   17.1244   26.8861 H   0  0  0  0  0  0  0  0  0  0  0  0
    3.1106   18.6143   29.2765 H   0  0  0  0  0  0  0  0  0  0  0  0
    3.9663   19.2697   27.8396 H   0  0  0  0  0  0  0  0  0  0  0  0
    2.1742   19.1482   27.8396 H   0  0  0  0  0  0  0  0  0  0  0  0
    4.7710   13.0351   30.7311 H   0  0  0  0  0  0  0  0  0  0  0  0
    3.7683   10.1903   31.6649 H   0  0  0  0  0  0  0  0  0  0  0  0
    5.0047   11.4875   31.8844 H   0  0  0  0  0  0  0  0  0  0  0  0
    5.4446    9.5856   33.3718 H   0  0  0  0  0  0  0  0  0  0  0  0
    4.9959   11.0833   34.3014 H   0  0  0  0  0  0  0  0  0  0  0  0
    3.1303    8.8815   33.6878 H   0  0  0  0  0  0  0  0  0  0  0  0
    3.7250    9.3607   36.3812 H   0  0  0  0  0  0  0  0  0  0  0  0
    3.6865    7.8243   35.4514 H   0  0  0  0  0  0  0  0  0  0  0  0
    5.1700    8.8371   35.4514 H   0  0  0  0  0  0  0  0  0  0  0  0
    1.9025   10.2463   35.3995 H   0  0  0  0  0  0  0  0  0  0  0  0
    3.3582   11.3332   35.4310 H   0  0  0  0  0  0  0  0  0  0  0  0
    1.7161   12.4395   34.1120 H   0  0  0  0  0  0  0  0  0  0  0  0
    1.3827   10.8967   33.1782 H   0  0  0  0  0  0  0  0  0  0  0  0
  1  2  1  0
  2  3  2  0
  2  8  1  0
  3  4  1  0
  4  5  1  0
  4  6  2  0
  6  7  1  0
  7  8  2  0
  8  9  1  0
  9 10  2  0
  9 11  2  0
  9 12  1  6
 12 13  1  0
 13 14  2  0
 13 25  1  0
 14 15  1  0
 15 16  2  0
 16 17  1  0
 16 24  1  0
 17 18  1  0
 17 20  1  0
 18 19  1  0
 20 21  2  0
 20 22  1  0
 22 23  2  0
 22 24  1  0
 23 27  1  0
 24 25  2  0
 25 26  1  0
 26 27  2  0
 27 28  1  0
 28 29  1  0
 28 34  1  0
 29 30  1  0
 30 31  1  0
 31 32  1  0
 31 33  1  0
 33 34  1  0
  3 35  1  0
  6 36  1  0
  7 37  1  0
 12 38  1  0
 14 39  1  0
 15 40  1  0
 18 41  1  0
 18 42  1  0
 19 43  1  0
 19 44  1  0
 19 45  1  0
 23 46  1  0
 29 47  1  0
 29 48  1  0
 30 49  1  0
 30 50  1  0
 31 51  1  6
 32 52  1  0
 32 53  1  0
 32 54  1  0
 33 55  1  0
 33 56  1  0
 34 57  1  0
 34 58  1  0
M  CHG  1  31   1
M  END
>  <filename_input>  (22) 
7WL4_JFU_docked.sdf

>  <pdb_id>  (22) 
7WL4_JFU

>  <pose_rank>  (22) 
21

>  <num_atoms_heavy>  (22) 
34

>  <num_torsions>  (22) 
4

>  <pose>  (22) 
[-0.011167830263223587, 15.18002120878954, 31.11876116130212, 0.4877535755161688, 1.7993469154679183, 1.5826083874434043, 2.7244341167811728, -2.1023557302114955, 2.017666352228499, -1.8299329119887584]

>  <energy>  (22) 
-461.91240882159207

>  <inter_energy>  (22) 
-483.6358174247382

>  <intra_energy>  (22) 
26.47344127868431

>  <rmsd>  (22) 
9.01977

>  <sdf_rank>  (22) 
0

$$$$

     RDKit          3D

 58 62  0  0  0  0  0  0  0  0999 V2000
    6.0105    6.2387   25.4410 F   0  0  0  0  0  0  0  0  0  0  0  0
    6.9500    6.4924   24.5541 C   0  0  0  0  0  0  0  0  0  0  0  0
    7.6483    5.4650   23.9224 C   0  0  0  0  0  0  0  0  0  0  0  0
    8.6229    5.7631   23.0006 C   0  0  0  0  0  0  0  0  0  0  0  0
    9.3099    4.8454   22.4137 F   0  0  0  0  0  0  0  0  0  0  0  0
    8.9010    7.0707   22.6894 C   0  0  0  0  0  0  0  0  0  0  0  0
    8.2124    8.0902   23.3086 C   0  0  0  0  0  0  0  0  0  0  0  0
    7.2426    7.8123   24.2490 C   0  0  0  0  0  0  0  0  0  0  0  0
    6.4205    9.1392   25.0428 S   0  0  1  0  0  0  0  0  0  0  0  0
    7.3079   10.3536   24.8722 O   0  0  0  0  0  0  0  0  0  0  0  0
    5.0251    9.2961   24.4556 O   0  0  0  0  0  0  0  0  0  0  0  0
    6.3572    8.7534   26.6447 N   0  0  0  0  0  0  0  0  0  0  0  0
    5.1943    8.9137   27.3508 C   0  0  0  0  0  0  0  0  0  0  0  0
    3.9638    8.3961   26.9054 C   0  0  0  0  0  0  0  0  0  0  0  0
    2.8092    8.5795   27.6925 C   0  0  0  0  0  0  0  0  0  0  0  0
    2.8825    9.2369   28.8623 C   0  0  0  0  0  0  0  0  0  0  0  0
    1.9630    9.5481   29.8013 N   0  0  0  0  0  0  0  0  0  0  0  0
    0.5320    9.1917   29.6506 C   0  0  0  0  0  0  0  0  0  0  0  0
    0.1186    8.1014   30.6420 C   0  0  0  0  0  0  0  0  0  0  0  0
    2.6041   10.2199   30.7789 C   0  0  0  0  0  0  0  0  0  0  0  0
    2.0357   10.6536   31.7904 O   0  0  0  0  0  0  0  0  0  0  0  0
    3.9295   10.3362   30.4600 C   0  0  0  0  0  0  0  0  0  0  0  0
    5.0488   10.8861   31.0059 C   0  0  0  0  0  0  0  0  0  0  0  0
    4.0583    9.7109   29.2759 C   0  0  0  0  0  0  0  0  0  0  0  0
    5.2317    9.5719   28.5891 C   0  0  0  0  0  0  0  0  0  0  0  0
    6.3464   10.1298   29.1318 N   0  0  0  0  0  0  0  0  0  0  0  0
    6.3073   10.7570   30.3344 C   0  0  0  0  0  0  0  0  0  0  0  0
    7.4855   11.2853   30.7966 N   0  0  0  0  0  0  0  0  0  0  0  0
    7.5183   12.3529   31.7658 C   0  0  0  0  0  0  0  0  0  0  0  0
    8.8276   12.3400   32.5340 C   0  0  0  0  0  0  0  0  0  0  0  0
    9.9800   12.5188   31.6695 N   0  0  1  0  0  0  0  0  0  0  0  0
   11.2158   12.6056   32.4188 C   0  0  0  0  0  0  0  0  0  0  0  0
   10.0170   11.2286   30.9315 C   0  0  0  0  0  0  0  0  0  0  0  0
    8.7544   11.0069   30.0858 C   0  0  0  0  0  0  0  0  0  0  0  0
    7.4195    4.4159   24.1615 H   0  0  0  0  0  0  0  0  0  0  0  0
    9.6754    7.3048   21.9441 H   0  0  0  0  0  0  0  0  0  0  0  0
    8.4378    9.1354   23.0507 H   0  0  0  0  0  0  0  0  0  0  0  0
    7.1971    8.3898   27.1172 H   0  0  0  0  0  0  0  0  0  0  0  0
    3.9037    7.8527   25.9508 H   0  0  0  0  0  0  0  0  0  0  0  0
    1.8431    8.1825   27.3476 H   0  0  0  0  0  0  0  0  0  0  0  0
   -0.0803   10.0880   29.8288 H   0  0  0  0  0  0  0  0  0  0  0  0
    0.3771    8.8083   28.6312 H   0  0  0  0  0  0  0  0  0  0  0  0
    0.2577    8.4683   31.6697 H   0  0  0  0  0  0  0  0  0  0  0  0
   -0.9394    7.8446   30.4845 H   0  0  0  0  0  0  0  0  0  0  0  0
    0.7402    7.2077   30.4845 H   0  0  0  0  0  0  0  0  0  0  0  0
    4.9869   11.4284   31.9609 H   0  0  0  0  0  0  0  0  0  0  0  0
    7.4145   13.3164   31.2454 H   0  0  0  0  0  0  0  0  0  0  0  0
    6.6902   12.2116   32.4759 H   0  0  0  0  0  0  0  0  0  0  0  0
    8.8111   13.1544   33.2733 H   0  0  0  0  0  0  0  0  0  0  0  0
    8.9218   11.3568   33.0183 H   0  0  0  0  0  0  0  0  0  0  0  0
    9.9021   13.3750   31.1023 H   0  0  0  0  0  0  0  0  0  0  0  0
   10.9934   12.5900   33.4960 H   0  0  0  0  0  0  0  0  0  0  0  0
   11.8595   11.7505   32.1649 H   0  0  0  0  0  0  0  0  0  0  0  0
   11.7336   13.5424   32.1649 H   0  0  0  0  0  0  0  0  0  0  0  0
   10.8935   11.2258   30.2668 H   0  0  0  0  0  0  0  0  0  0  0  0
   10.0737   10.4175   31.6724 H   0  0  0  0  0  0  0  0  0  0  0  0
    8.7410    9.9576   29.7561 H   0  0  0  0  0  0  0  0  0  0  0  0
    8.8081   11.7188   29.2489 H   0  0  0  0  0  0  0  0  0  0  0  0
  1  2  1  0
  2  3  2  0
  2  8  1  0
  3  4  1  0
  4  5  1  0
  4  6  2  0
  6  7  1  0
  7  8  2  0
  8  9  1  0
  9 10  2  0
  9 11  2  0
  9 12  1  1
 12 13  1  0
 13 14  2  0
 13 25  1  0
 14 15  1  0
 15 16  2  0
 16 17  1  0
 16 24  1  0
 17 18  1  0
 17 20  1  0
 18 19  1  0
 20 21  2  0
 20 22  1  0
 22 23  2  0
 22 24  1  0
 23 27  1  0
 24 25  2  0
 25 26  1  0
 26 27  2  0
 27 28  1  0
 28 29  1  0
 28 34  1  0
 29 30  1  0
 30 31  1  0
 31 32  1  0
 31 33  1  0
 33 34  1  0
  3 35  1  0
  6 36  1  0
  7 37  1  0
 12 38  1  0
 14 39  1  0
 15 40  1  0
 18 41  1  0
 18 42  1  0
 19 43  1  0
 19 44  1  0
 19 45  1  0
 23 46  1  0
 29 47  1  0
 29 48  1  0
 30 49  1  0
 30 50  1  0
 31 51  1  6
 32 52  1  0
 32 53  1  0
 32 54  1  0
 33 55  1  0
 33 56  1  0
 34 57  1  0
 34 58  1  0
M  CHG  1  31   1
M  END
>  <filename_input>  (23) 
7WL4_JFU_docked.sdf

>  <pdb_id>  (23) 
7WL4_JFU

>  <pose_rank>  (23) 
22

>  <num_atoms_heavy>  (23) 
34

>  <num_torsions>  (23) 
4

>  <pose>  (23) 
[5.194310985876922, 8.913745198888908, 27.35081420537011, 0.9804994358318734, 0.3616050777658904, -2.1026504162618123, 3.5077576406805036, 5.987315314681128, 2.8490688363666568, -0.3608899857148925]

>  <energy>  (23) 
-444.2257594212683

>  <inter_energy>  (23) 
-451.78481429768027

>  <intra_energy>  (23) 
27.107403398108314

>  <rmsd>  (23) 
7.46636

>  <sdf_rank>  (23) 
0

$$$$

     RDKit          3D

 58 62  0  0  0  0  0  0  0  0999 V2000
    3.6021   10.0147   31.3416 F   0  0  0  0  0  0  0  0  0  0  0  0
    4.0525   11.0751   30.7043 C   0  0  0  0  0  0  0  0  0  0  0  0
    3.6345   12.3598   31.0467 C   0  0  0  0  0  0  0  0  0  0  0  0
    4.1241   13.4462   30.3623 C   0  0  0  0  0  0  0  0  0  0  0  0
    3.7443   14.6475   30.6286 F   0  0  0  0  0  0  0  0  0  0  0  0
    5.0352   13.2707   29.3508 C   0  0  0  0  0  0  0  0  0  0  0  0
    5.4539   12.0036   29.0097 C   0  0  0  0  0  0  0  0  0  0  0  0
    4.9615   10.8993   29.6730 C   0  0  0  0  0  0  0  0  0  0  0  0
    5.4886    9.3039   29.1795 S   0  0  1  0  0  0  0  0  0  0  0  0
    6.5334    8.8701   30.1853 O   0  0  0  0  0  0  0  0  0  0  0  0
    4.2849    8.3770   29.0881 O   0  0  0  0  0  0  0  0  0  0  0  0
    6.2155    9.4895   27.7111 N   0  0  0  0  0  0  0  0  0  0  0  0
    6.7564    8.4099   27.0640 C   0  0  0  0  0  0  0  0  0  0  0  0
    7.9282    7.7717   27.5112 C   0  0  0  0  0  0  0  0  0  0  0  0
    8.4184    6.6521   26.8094 C   0  0  0  0  0  0  0  0  0  0  0  0
    7.7694    6.1924   25.7262 C   0  0  0  0  0  0  0  0  0  0  0  0
    8.0007    5.1621   24.8841 N   0  0  0  0  0  0  0  0  0  0  0  0
    9.1836    4.2800   25.0256 C   0  0  0  0  0  0  0  0  0  0  0  0
   10.3434    4.7525   24.1456 C   0  0  0  0  0  0  0  0  0  0  0  0
    7.0115    5.1672   23.9679 C   0  0  0  0  0  0  0  0  0  0  0  0
    6.9369    4.3449   23.0444 O   0  0  0  0  0  0  0  0  0  0  0  0
    6.1535    6.2007   24.2274 C   0  0  0  0  0  0  0  0  0  0  0  0
    5.0165    6.7208   23.6890 C   0  0  0  0  0  0  0  0  0  0  0  0
    6.6537    6.8011   25.3225 C   0  0  0  0  0  0  0  0  0  0  0  0
    6.0962    7.8830   25.9440 C   0  0  0  0  0  0  0  0  0  0  0  0
    4.9658    8.4063   25.3991 N   0  0  0  0  0  0  0  0  0  0  0  0
    4.3833    7.8459   24.3093 C   0  0  0  0  0  0  0  0  0  0  0  0
    3.2450    8.4473   23.8367 N   0  0  0  0  0  0  0  0  0  0  0  0
    2.8027    8.2858   22.4734 C   0  0  0  0  0  0  0  0  0  0  0  0
    1.3053    8.5103   22.3650 C   0  0  0  0  0  0  0  0  0  0  0  0
    0.9127    9.8445   22.7811 N   0  0  1  0  0  0  0  0  0  0  0  0
   -0.5010   10.0845   22.5809 C   0  0  0  0  0  0  0  0  0  0  0  0
    1.1330    9.7883   24.2505 C   0  0  0  0  0  0  0  0  0  0  0  0
    2.6055    9.5379   24.6076 C   0  0  0  0  0  0  0  0  0  0  0  0
    2.9131   12.5040   31.8645 H   0  0  0  0  0  0  0  0  0  0  0  0
    5.4318   14.1436   28.8117 H   0  0  0  0  0  0  0  0  0  0  0  0
    6.1877   11.8714   28.2010 H   0  0  0  0  0  0  0  0  0  0  0  0
    6.2633   10.4227   27.2779 H   0  0  0  0  0  0  0  0  0  0  0  0
    8.4572    8.1436   28.4011 H   0  0  0  0  0  0  0  0  0  0  0  0
    9.3370    6.1520   27.1500 H   0  0  0  0  0  0  0  0  0  0  0  0
    9.5081    4.2829   26.0766 H   0  0  0  0  0  0  0  0  0  0  0  0
    8.8988    3.2665   24.7067 H   0  0  0  0  0  0  0  0  0  0  0  0
   11.1735    5.0907   24.7833 H   0  0  0  0  0  0  0  0  0  0  0  0
   10.6840    3.9215   23.5105 H   0  0  0  0  0  0  0  0  0  0  0  0
   10.0063    5.5850   23.5105 H   0  0  0  0  0  0  0  0  0  0  0  0
    4.5848    6.2779   22.7794 H   0  0  0  0  0  0  0  0  0  0  0  0
    3.3242    9.0148   21.8358 H   0  0  0  0  0  0  0  0  0  0  0  0
    3.0312    7.2606   22.1465 H   0  0  0  0  0  0  0  0  0  0  0  0
    1.0011    8.3632   21.3182 H   0  0  0  0  0  0  0  0  0  0  0  0
    0.8098    7.7916   23.0344 H   0  0  0  0  0  0  0  0  0  0  0  0
    1.4257   10.5720   22.2631 H   0  0  0  0  0  0  0  0  0  0  0  0
   -1.0005   10.1693   23.5573 H   0  0  0  0  0  0  0  0  0  0  0  0
   -0.6380   11.0188   22.0166 H   0  0  0  0  0  0  0  0  0  0  0  0
   -0.9387    9.2478   22.0166 H   0  0  0  0  0  0  0  0  0  0  0  0
    0.8193   10.7455   24.6925 H   0  0  0  0  0  0  0  0  0  0  0  0
    0.5420    8.9504   24.6486 H   0  0  0  0  0  0  0  0  0  0  0  0
    2.6618    9.2827   25.6761 H   0  0  0  0  0  0  0  0  0  0  0  0
    3.1504   10.4602   24.3578 H   0  0  0  0  0  0  0  0  0  0  0  0
  1  2  1  0
  2  3  2  0
  2  8  1  0
  3  4  1  0
  4  5  1  0
  4  6  2  0
  6  7  1  0
  7  8  2  0
  8  9  1  0
  9 10  2  0
  9 11  2  0
  9 12  1  6
 12 13  1  0
 13 14  2  0
 13 25  1  0
 14 15  1  0
 15 16  2  0
 16 17  1  0
 16 24  1  0
 17 18  1  0
 17 20  1  0
 18 19  1  0
 20 21  2  0
 20 22  1  0
 22 23  2  0
 22 24  1  0
 23 27  1  0
 24 25  2  0
 25 26  1  0
 26 27  2  0
 27 28  1  0
 28 29  1  0
 28 34  1  0
 29 30  1  0
 30 31  1  0
 31 32  1  0
 31 33  1  0
 33 34  1  0
  3 35  1  0
  6 36  1  0
  7 37  1  0
 12 38  1  0
 14 39  1  0
 15 40  1  0
 18 41  1  0
 18 42  1  0
 19 43  1  0
 19 44  1  0
 19 45  1  0
 23 46  1  0
 29 47  1  0
 29 48  1  0
 30 49  1  0
 30 50  1  0
 31 51  1  6
 32 52  1  0
 32 53  1  0
 32 54  1  0
 33 55  1  0
 33 56  1  0
 34 57  1  0
 34 58  1  0
M  CHG  1  31   1
M  END
>  <filename_input>  (24) 
7WL4_JFU_docked.sdf

>  <pdb_id>  (24) 
7WL4_JFU

>  <pose_rank>  (24) 
23

>  <num_atoms_heavy>  (24) 
34

>  <num_torsions>  (24) 
4

>  <pose>  (24) 
[6.7563755770876375, 8.409915518789601, 27.064047089686397, -3.899503538446771, 1.7871035234999044, -1.7808253396704945, -0.06516428288209444, -2.422138257552454, -4.2475180341496666, -4.525188491658734]

>  <energy>  (24) 
-369.8961926542167

>  <inter_energy>  (24) 
-393.4249596150685

>  <intra_energy>  (24) 
7.870660066293249

>  <rmsd>  (24) 
8.72829

>  <sdf_rank>  (24) 
0

$$$$

     RDKit          3D

 58 62  0  0  0  0  0  0  0  0999 V2000
   14.5728   15.3709   36.3362 F   0  0  0  0  0  0  0  0  0  0  0  0
   13.8242   16.3012   35.7817 C   0  0  0  0  0  0  0  0  0  0  0  0
   14.3563   17.5339   35.4078 C   0  0  0  0  0  0  0  0  0  0  0  0
   13.5482   18.4838   34.8306 C   0  0  0  0  0  0  0  0  0  0  0  0
   13.9933   19.6446   34.4947 F   0  0  0  0  0  0  0  0  0  0  0  0
   12.2205   18.2167   34.6080 C   0  0  0  0  0  0  0  0  0  0  0  0
   11.6895   16.9993   34.9731 C   0  0  0  0  0  0  0  0  0  0  0  0
   12.4799   16.0392   35.5694 C   0  0  0  0  0  0  0  0  0  0  0  0
   11.7552   14.5210   36.0560 S   0  0  1  0  0  0  0  0  0  0  0  0
   12.3321   14.1899   37.4158 O   0  0  0  0  0  0  0  0  0  0  0  0
   10.2390   14.6520   36.0343 O   0  0  0  0  0  0  0  0  0  0  0  0
   12.2752   13.3912   34.9735 N   0  0  0  0  0  0  0  0  0  0  0  0
   12.3143   13.6801   33.6349 C   0  0  0  0  0  0  0  0  0  0  0  0
   13.4192   14.3081   33.0307 C   0  0  0  0  0  0  0  0  0  0  0  0
   13.4018   14.5569   31.6436 C   0  0  0  0  0  0  0  0  0  0  0  0
   12.3425   14.1917   30.9016 C   0  0  0  0  0  0  0  0  0  0  0  0
   12.0623   14.2967   29.5846 N   0  0  0  0  0  0  0  0  0  0  0  0
   12.9922   14.9478   28.6313 C   0  0  0  0  0  0  0  0  0  0  0  0
   14.0535   13.9675   28.1257 C   0  0  0  0  0  0  0  0  0  0  0  0
   10.8440   13.7520   29.3923 C   0  0  0  0  0  0  0  0  0  0  0  0
   10.2920   13.6964   28.2847 O   0  0  0  0  0  0  0  0  0  0  0  0
   10.3507   13.3025   30.5866 C   0  0  0  0  0  0  0  0  0  0  0  0
    9.2218   12.6919   31.0405 C   0  0  0  0  0  0  0  0  0  0  0  0
   11.3086   13.5868   31.4874 C   0  0  0  0  0  0  0  0  0  0  0  0
   11.2398   13.2929   32.8204 C   0  0  0  0  0  0  0  0  0  0  0  0
   10.1075   12.6915   33.2728 N   0  0  0  0  0  0  0  0  0  0  0  0
    9.1041   12.3490   32.4261 C   0  0  0  0  0  0  0  0  0  0  0  0
    8.0045   11.7451   32.9802 N   0  0  0  0  0  0  0  0  0  0  0  0
    6.7142   11.7636   32.3359 C   0  0  0  0  0  0  0  0  0  0  0  0
    5.8705   10.5865   32.7909 C   0  0  0  0  0  0  0  0  0  0  0  0
    5.6280   10.5980   34.2222 N   0  0  1  0  0  0  0  0  0  0  0  0
    4.7410    9.5302   34.6338 C   0  0  0  0  0  0  0  0  0  0  0  0
    6.9723   10.2712   34.7669 C   0  0  0  0  0  0  0  0  0  0  0  0
    8.0204   11.3330   34.4024 C   0  0  0  0  0  0  0  0  0  0  0  0
   15.4227   17.7463   35.5746 H   0  0  0  0  0  0  0  0  0  0  0  0
   11.5791   18.9763   34.1372 H   0  0  0  0  0  0  0  0  0  0  0  0
   10.6255   16.7910   34.7875 H   0  0  0  0  0  0  0  0  0  0  0  0
   12.5724   12.4626   35.3056 H   0  0  0  0  0  0  0  0  0  0  0  0
   14.2893   14.6023   33.6360 H   0  0  0  0  0  0  0  0  0  0  0  0
   14.2597   15.0526   31.1658 H   0  0  0  0  0  0  0  0  0  0  0  0
   12.4174   15.3263   27.7732 H   0  0  0  0  0  0  0  0  0  0  0  0
   13.5027   15.7702   29.1539 H   0  0  0  0  0  0  0  0  0  0  0  0
   14.5593   13.5002   28.9835 H   0  0  0  0  0  0  0  0  0  0  0  0
   13.5724   13.1891   27.5151 H   0  0  0  0  0  0  0  0  0  0  0  0
   14.7913   14.5086   27.5151 H   0  0  0  0  0  0  0  0  0  0  0  0
    8.4015   12.4624   30.3444 H   0  0  0  0  0  0  0  0  0  0  0  0
    6.1962   12.6996   32.5918 H   0  0  0  0  0  0  0  0  0  0  0  0
    6.8611   11.6938   31.2479 H   0  0  0  0  0  0  0  0  0  0  0  0
    4.9030   10.6229   32.2687 H   0  0  0  0  0  0  0  0  0  0  0  0
    6.4237    9.6661   32.5525 H   0  0  0  0  0  0  0  0  0  0  0  0
    5.2063   11.4857   34.5305 H   0  0  0  0  0  0  0  0  0  0  0  0
    4.7048    9.4866   35.7323 H   0  0  0  0  0  0  0  0  0  0  0  0
    3.7313    9.7203   34.2409 H   0  0  0  0  0  0  0  0  0  0  0  0
    5.1130    8.5725   34.2409 H   0  0  0  0  0  0  0  0  0  0  0  0
    6.9035   10.2031   35.8626 H   0  0  0  0  0  0  0  0  0  0  0  0
    7.2922    9.3158   34.3255 H   0  0  0  0  0  0  0  0  0  0  0  0
    9.0163   10.9262   34.6316 H   0  0  0  0  0  0  0  0  0  0  0  0
    7.7772   12.2294   34.9917 H   0  0  0  0  0  0  0  0  0  0  0  0
  1  2  1  0
  2  3  2  0
  2  8  1  0
  3  4  1  0
  4  5  1  0
  4  6  2  0
  6  7  1  0
  7  8  2  0
  8  9  1  0
  9 10  2  0
  9 11  2  0
  9 12  1  6
 12 13  1  0
 13 14  2  0
 13 25  1  0
 14 15  1  0
 15 16  2  0
 16 17  1  0
 16 24  1  0
 17 18  1  0
 17 20  1  0
 18 19  1  0
 20 21  2  0
 20 22  1  0
 22 23  2  0
 22 24  1  0
 23 27  1  0
 24 25  2  0
 25 26  1  0
 26 27  2  0
 27 28  1  0
 28 29  1  0
 28 34  1  0
 29 30  1  0
 30 31  1  0
 31 32  1  0
 31 33  1  0
 33 34  1  0
  3 35  1  0
  6 36  1  0
  7 37  1  0
 12 38  1  0
 14 39  1  0
 15 40  1  0
 18 41  1  0
 18 42  1  0
 19 43  1  0
 19 44  1  0
 19 45  1  0
 23 46  1  0
 29 47  1  0
 29 48  1  0
 30 49  1  0
 30 50  1  0
 31 51  1  1
 32 52  1  0
 32 53  1  0
 32 54  1  0
 33 55  1  0
 33 56  1  0
 34 57  1  0
 34 58  1  0
M  CHG  1  31   1
M  END
>  <filename_input>  (25) 
7WL4_JFU_docked.sdf

>  <pdb_id>  (25) 
7WL4_JFU

>  <pose_rank>  (25) 
24

>  <num_atoms_heavy>  (25) 
34

>  <num_torsions>  (25) 
4

>  <pose>  (25) 
[12.314263787512317, 13.68010892265704, 33.63493789299866, 2.5650196258191897, 0.4092442613896973, 0.4118726288763299, -3.2165495409263576, 0.32103746624235274, -1.834506007943786, -2.418487417359382]

>  <energy>  (25) 
-340.6156460322049

>  <inter_energy>  (25) 
-340.92149030833457

>  <intra_energy>  (25) 
23.294829510060012

>  <rmsd>  (25) 
9.57798

>  <sdf_rank>  (25) 
0

$$$$

     RDKit          3D

 58 62  0  0  0  0  0  0  0  0999 V2000
    4.3800   12.8300   29.6360 F   0  0  0  0  0  0  0  0  0  0  0  0
    4.7650   11.5840   29.4550 C   0  0  0  0  0  0  0  0  0  0  0  0
    3.8920   10.6200   28.9540 C   0  0  0  0  0  0  0  0  0  0  0  0
    4.3250    9.3280   28.7760 C   0  0  0  0  0  0  0  0  0  0  0  0
    3.5440    8.4010   28.3410 F   0  0  0  0  0  0  0  0  0  0  0  0
    5.6200    8.9870   29.0770 C   0  0  0  0  0  0  0  0  0  0  0  0
    6.4880    9.9360   29.5700 C   0  0  0  0  0  0  0  0  0  0  0  0
    6.0680   11.2340   29.7720 C   0  0  0  0  0  0  0  0  0  0  0  0
    7.1920   12.3990   30.4400 S   0  0  1  0  0  0  0  0  0  0  0  0
    8.4960   11.6600   30.6520 O   0  0  0  0  0  0  0  0  0  0  0  0
    7.2960   13.5970   29.5070 O   0  0  0  0  0  0  0  0  0  0  0  0
    6.5880   12.8350   31.9110 N   0  0  0  0  0  0  0  0  0  0  0  0
    6.4470   11.9040   32.9060 C   0  0  0  0  0  0  0  0  0  0  0  0
    7.5510   11.2980   33.5340 C   0  0  0  0  0  0  0  0  0  0  0  0
    7.3340   10.3630   34.5660 C   0  0  0  0  0  0  0  0  0  0  0  0
    6.0840   10.0570   34.9530 C   0  0  0  0  0  0  0  0  0  0  0  0
    5.5910    9.2230   35.8940 N   0  0  0  0  0  0  0  0  0  0  0  0
    6.4710    8.3790   36.7370 C   0  0  0  0  0  0  0  0  0  0  0  0
    6.7170    7.0110   36.0960 C   0  0  0  0  0  0  0  0  0  0  0  0
    4.2470    9.3200   35.8470 C   0  0  0  0  0  0  0  0  0  0  0  0
    3.4930    8.6720   36.5860 O   0  0  0  0  0  0  0  0  0  0  0  0
    3.8870   10.2140   34.8760 C   0  0  0  0  0  0  0  0  0  0  0  0
    2.7360   10.7220   34.3560 C   0  0  0  0  0  0  0  0  0  0  0  0
    5.0490   10.6490   34.3560 C   0  0  0  0  0  0  0  0  0  0  0  0
    5.1600   11.5750   33.3570 C   0  0  0  0  0  0  0  0  0  0  0  0
    4.0090   12.0740   32.8330 N   0  0  0  0  0  0  0  0  0  0  0  0
    2.7960   11.7060   33.3170 C   0  0  0  0  0  0  0  0  0  0  0  0
    1.6950   12.2670   32.7220 N   0  0  0  0  0  0  0  0  0  0  0  0
    0.3940   11.6470   32.7790 C   0  0  0  0  0  0  0  0  0  0  0  0
   -0.7020   12.6830   32.6060 C   0  0  0  0  0  0  0  0  0  0  0  0
   -0.6180   13.3720   31.3310 N   0  0  1  0  0  0  0  0  0  0  0  0
   -1.7230   14.2860   31.1310 C   0  0  0  0  0  0  0  0  0  0  0  0
    0.6000   14.2060   31.5090 C   0  0  0  0  0  0  0  0  0  0  0  0
    1.8590   13.3550   31.7310 C   0  0  0  0  0  0  0  0  0  0  0  0
    2.8569   10.8932   28.7012 H   0  0  0  0  0  0  0  0  0  0  0  0
    5.9653    7.9538   28.9242 H   0  0  0  0  0  0  0  0  0  0  0  0
    7.5256    9.6561   29.8047 H   0  0  0  0  0  0  0  0  0  0  0  0
    6.3151   13.8132   32.0828 H   0  0  0  0  0  0  0  0  0  0  0  0
    8.5748   11.5520   33.2220 H   0  0  0  0  0  0  0  0  0  0  0  0
    8.1923    9.8812   35.0572 H   0  0  0  0  0  0  0  0  0  0  0  0
    7.4359    8.8901   36.8702 H   0  0  0  0  0  0  0  0  0  0  0  0
    5.9742    8.2221   37.7058 H   0  0  0  0  0  0  0  0  0  0  0  0
    6.8528    6.2558   36.8842 H   0  0  0  0  0  0  0  0  0  0  0  0
    5.8535    6.7381   35.4716 H   0  0  0  0  0  0  0  0  0  0  0  0
    7.6215    7.0560   35.4716 H   0  0  0  0  0  0  0  0  0  0  0  0
    1.7618   10.3774   34.7331 H   0  0  0  0  0  0  0  0  0  0  0  0
    0.3146   10.8997   31.9757 H   0  0  0  0  0  0  0  0  0  0  0  0
    0.2742   11.1659   33.7609 H   0  0  0  0  0  0  0  0  0  0  0  0
   -1.6776   12.1790   32.6713 H   0  0  0  0  0  0  0  0  0  0  0  0
   -0.5813   13.4338   33.4008 H   0  0  0  0  0  0  0  0  0  0  0  0
   -0.6163   12.7121   30.5402 H   0  0  0  0  0  0  0  0  0  0  0  0
   -2.1132   14.6088   32.1075 H   0  0  0  0  0  0  0  0  0  0  0  0
   -1.3752   15.1639   30.5668 H   0  0  0  0  0  0  0  0  0  0  0  0
   -2.5201   13.7797   30.5668 H   0  0  0  0  0  0  0  0  0  0  0  0
    0.7427   14.8213   30.6084 H   0  0  0  0  0  0  0  0  0  0  0  0
    0.4534   14.8312   32.4021 H   0  0  0  0  0  0  0  0  0  0  0  0
    2.6654   14.0177   32.0780 H   0  0  0  0  0  0  0  0  0  0  0  0
    2.0850   12.8719   30.7690 H   0  0  0  0  0  0  0  0  0  0  0  0
  1  2  1  0
  2  3  2  0
  2  8  1  0
  3  4  1  0
  4  5  1  0
  4  6  2  0
  6  7  1  0
  7  8  2  0
  8  9  1  0
  9 10  2  0
  9 11  2  0
  9 12  1  1
 12 13  1  0
 13 14  2  0
 13 25  1  0
 14 15  1  0
 15 16  2  0
 16 17  1  0
 16 24  1  0
 17 18  1  0
 17 20  1  0
 18 19  1  0
 20 21  2  0
 20 22  1  0
 22 23  2  0
 22 24  1  0
 23 27  1  0
 24 25  2  0
 25 26  1  0
 26 27  2  0
 27 28  1  0
 28 29  1  0
 28 34  1  0
 29 30  1  0
 30 31  1  0
 31 32  1  0
 31 33  1  0
 33 34  1  0
  3 35  1  0
  6 36  1  0
  7 37  1  0
 12 38  1  0
 14 39  1  0
 15 40  1  0
 18 41  1  0
 18 42  1  0
 19 43  1  0
 19 44  1  0
 19 45  1  0
 23 46  1  0
 29 47  1  0
 29 48  1  0
 30 49  1  0
 30 50  1  0
 31 51  1  6
 32 52  1  0
 32 53  1  0
 32 54  1  0
 33 55  1  0
 33 56  1  0
 34 57  1  0
 34 58  1  0
M  CHG  1  31   1
M  END
>  <filename_input>  (26) 
7WL4_JFU_docked.sdf

>  <pdb_id>  (26) 
7WL4_JFU

>  <pose_rank>  (26) 
25

>  <num_atoms_heavy>  (26) 
34

>  <num_torsions>  (26) 
4

>  <pose>  (26) 
[6.447, 11.904, 32.906, 1e-06, 1e-06, 1e-06, 0.0, 0.0, 0.0, 0.0]

>  <energy>  (26) 
-1506.9460792573004

>  <inter_energy>  (26) 
-1525.674182524951

>  <intra_energy>  (26) 
12.21255256613782

>  <rmsd>  (26) 
0.0

>  <sdf_rank>  (26) 
0

$$$$
