
     RDKit          3D

 46 45  0  0  0  0  0  0  0  0999 V2000
    5.6921  -16.0516   -1.5160 C   0  0  0  0  0  0  0  0  0  0  0  0
    4.4382  -15.8508   -1.6350 O   0  0  0  0  0  0  0  0  0  0  0  0
    6.5115  -15.1365   -1.2698 O   0  0  0  0  0  0  0  0  0  0  0  0
    6.1781  -17.4670   -1.6704 C   0  0  0  0  0  0  0  0  0  0  0  0
    7.4912  -17.7998   -1.0445 C   0  0  0  0  0  0  0  0  0  0  0  0
    6.7517  -19.7879    0.3148 C   0  0  0  0  0  0  0  0  0  0  0  0
    7.3281  -20.7700    1.3258 C   0  0  0  0  0  0  0  0  0  0  0  0
    7.4051  -18.4324    0.3335 C   0  0  0  0  0  0  0  0  0  0  0  0
    7.3332  -22.2115    0.9066 C   0  0  0  0  0  0  0  0  0  0  0  0
    6.8815  -22.4097   -0.5106 C   0  0  0  0  0  0  0  0  0  0  0  0
    7.1045  -23.8530   -0.9058 C   0  0  0  0  0  0  0  0  0  0  0  0
    6.3660  -24.3194   -2.1039 C   0  0  0  0  0  0  0  0  0  0  0  0
    7.0086  -25.3978   -2.8550 C   0  0  0  0  0  0  0  0  0  0  0  0
    7.5960  -25.0353   -4.1714 C   0  0  0  0  0  0  0  0  0  0  0  0
    7.0546  -23.6913   -4.4904 C   0  0  0  0  0  0  0  0  0  0  0  0
    6.6388  -23.4326   -5.9242 C   0  0  0  0  0  0  0  0  0  0  0  0
    6.8887  -21.9791   -6.2593 C   0  0  0  0  0  0  0  0  0  0  0  0
    5.4205  -18.1293   -1.2261 H   0  0  0  0  0  0  0  0  0  0  0  0
    6.3320  -17.6022   -2.7511 H   0  0  0  0  0  0  0  0  0  0  0  0
    8.0178  -18.5006   -1.7091 H   0  0  0  0  0  0  0  0  0  0  0  0
    8.0184  -16.8437   -0.9108 H   0  0  0  0  0  0  0  0  0  0  0  0
    6.8735  -20.2163   -0.6910 H   0  0  0  0  0  0  0  0  0  0  0  0
    5.6968  -19.6354    0.5866 H   0  0  0  0  0  0  0  0  0  0  0  0
    8.3678  -20.4738    1.5290 H   0  0  0  0  0  0  0  0  0  0  0  0
    6.6680  -20.7165    2.2041 H   0  0  0  0  0  0  0  0  0  0  0  0
    8.4235  -18.5390    0.7352 H   0  0  0  0  0  0  0  0  0  0  0  0
    6.7849  -17.7751    0.9607 H   0  0  0  0  0  0  0  0  0  0  0  0
    8.3565  -22.6023    1.0066 H   0  0  0  0  0  0  0  0  0  0  0  0
    6.6250  -22.7464    1.5563 H   0  0  0  0  0  0  0  0  0  0  0  0
    5.8119  -22.1665   -0.5935 H   0  0  0  0  0  0  0  0  0  0  0  0
    7.4564  -21.7505   -1.1777 H   0  0  0  0  0  0  0  0  0  0  0  0
    8.1791  -23.9870   -1.0993 H   0  0  0  0  0  0  0  0  0  0  0  0
    6.7203  -24.4531   -0.0678 H   0  0  0  0  0  0  0  0  0  0  0  0
    5.3780  -24.6754   -1.7766 H   0  0  0  0  0  0  0  0  0  0  0  0
    6.3208  -23.4585   -2.7871 H   0  0  0  0  0  0  0  0  0  0  0  0
    7.8172  -25.8040   -2.2295 H   0  0  0  0  0  0  0  0  0  0  0  0
    6.2031  -26.1110   -3.0839 H   0  0  0  0  0  0  0  0  0  0  0  0
    8.6936  -25.0021   -4.1067 H   0  0  0  0  0  0  0  0  0  0  0  0
    7.3430  -25.7721   -4.9481 H   0  0  0  0  0  0  0  0  0  0  0  0
    6.1702  -23.5322   -3.8559 H   0  0  0  0  0  0  0  0  0  0  0  0
    7.8905  -22.9996   -4.3093 H   0  0  0  0  0  0  0  0  0  0  0  0
    7.2267  -24.0722   -6.5990 H   0  0  0  0  0  0  0  0  0  0  0  0
    5.5699  -23.6618   -6.0464 H   0  0  0  0  0  0  0  0  0  0  0  0
    6.9882  -21.4002   -5.3293 H   0  0  0  0  0  0  0  0  0  0  0  0
    7.8149  -21.8921   -6.8462 H   0  0  0  0  0  0  0  0  0  0  0  0
    6.0446  -21.5877   -6.8462 H   0  0  0  0  0  0  0  0  0  0  0  0
  1  2  1  0
  1  3  2  0
  1  4  1  0
  4  5  1  0
  5  8  1  0
  6  7  1  0
  6  8  1  0
  7  9  1  0
  9 10  1  0
 10 11  1  0
 11 12  1  0
 12 13  1  0
 13 14  1  0
 14 15  1  0
 15 16  1  0
 16 17  1  0
  4 18  1  0
  4 19  1  0
  5 20  1  0
  5 21  1  0
  6 22  1  0
  6 23  1  0
  7 24  1  0
  7 25  1  0
  8 26  1  0
  8 27  1  0
  9 28  1  0
  9 29  1  0
 10 30  1  0
 10 31  1  0
 11 32  1  0
 11 33  1  0
 12 34  1  0
 12 35  1  0
 13 36  1  0
 13 37  1  0
 14 38  1  0
 14 39  1  0
 15 40  1  0
 15 41  1  0
 16 42  1  0
 16 43  1  0
 17 44  1  0
 17 45  1  0
 17 46  1  0
M  CHG  1   2  -1
M  END
>  <filename_input>  (1) 
7WPW_F15_docked.sdf

>  <pdb_id>  (1) 
7WPW_F15

>  <pose_rank>  (1) 
0

>  <num_atoms_heavy>  (1) 
17

>  <num_torsions>  (1) 
13

>  <pose>  (1) 
[7.333195621361956, -22.21146313857693, 0.9065655580839052, -1.171884029619391, -3.2848038910402746, -0.2927649452888488, 19.99860685028163, 17.25951498853922, 11.845286016150745, 4.143487109944764, -1.4579328462728711, 0.26361336949263386, 12.515191795117776, 6.1570389674718, 1.5466254032152813, -2.452774315575297, -3.116435667135483, 1.1114190626766909, 5.294817324312979]

>  <energy>  (1) 
-652.2662555313909

>  <inter_energy>  (1) 
-643.3117015644087

>  <intra_energy>  (1) 
1.3406258645750542

>  <rmsd>  (1) 
4.36021

>  <sdf_rank>  (1) 
0

$$$$

     RDKit          3D

 46 45  0  0  0  0  0  0  0  0999 V2000
    5.9062  -16.6483   -1.6914 C   0  0  0  0  0  0  0  0  0  0  0  0
    5.5122  -16.9850   -2.8569 O   0  0  0  0  0  0  0  0  0  0  0  0
    5.8006  -15.4833   -1.2432 O   0  0  0  0  0  0  0  0  0  0  0  0
    6.5095  -17.7265   -0.8330 C   0  0  0  0  0  0  0  0  0  0  0  0
    6.0865  -19.1289   -1.1176 C   0  0  0  0  0  0  0  0  0  0  0  0
    7.3700  -21.0883   -0.1898 C   0  0  0  0  0  0  0  0  0  0  0  0
    7.2441  -22.3650    0.6306 C   0  0  0  0  0  0  0  0  0  0  0  0
    6.2584  -20.0996    0.0377 C   0  0  0  0  0  0  0  0  0  0  0  0
    6.9579  -23.6162   -0.1480 C   0  0  0  0  0  0  0  0  0  0  0  0
    7.5071  -23.5746   -1.5439 C   0  0  0  0  0  0  0  0  0  0  0  0
    6.4019  -23.9054   -2.5226 C   0  0  0  0  0  0  0  0  0  0  0  0
    6.8201  -24.6031   -3.7623 C   0  0  0  0  0  0  0  0  0  0  0  0
    7.4365  -23.7536   -4.7813 C   0  0  0  0  0  0  0  0  0  0  0  0
    6.6539  -22.5704   -5.2254 C   0  0  0  0  0  0  0  0  0  0  0  0
    7.6584  -21.5204   -5.5244 C   0  0  0  0  0  0  0  0  0  0  0  0
    7.3232  -20.1013   -5.1127 C   0  0  0  0  0  0  0  0  0  0  0  0
    8.1987  -19.1399   -5.8851 C   0  0  0  0  0  0  0  0  0  0  0  0
    7.6015  -17.6770   -0.9551 H   0  0  0  0  0  0  0  0  0  0  0  0
    6.1495  -17.5185    0.1855 H   0  0  0  0  0  0  0  0  0  0  0  0
    5.0223  -19.1144   -1.3953 H   0  0  0  0  0  0  0  0  0  0  0  0
    6.7438  -19.4903   -1.9222 H   0  0  0  0  0  0  0  0  0  0  0  0
    8.3224  -20.6032    0.0702 H   0  0  0  0  0  0  0  0  0  0  0  0
    7.3192  -21.3849   -1.2478 H   0  0  0  0  0  0  0  0  0  0  0  0
    8.1902  -22.5132    1.1718 H   0  0  0  0  0  0  0  0  0  0  0  0
    6.3730  -22.2147    1.2854 H   0  0  0  0  0  0  0  0  0  0  0  0
    6.4805  -19.5251    0.9491 H   0  0  0  0  0  0  0  0  0  0  0  0
    5.3227  -20.6702    0.1320 H   0  0  0  0  0  0  0  0  0  0  0  0
    7.4081  -24.4693    0.3808 H   0  0  0  0  0  0  0  0  0  0  0  0
    5.8650  -23.7132   -0.2264 H   0  0  0  0  0  0  0  0  0  0  0  0
    7.8975  -22.5683   -1.7559 H   0  0  0  0  0  0  0  0  0  0  0  0
    8.3209  -24.3080   -1.6432 H   0  0  0  0  0  0  0  0  0  0  0  0
    5.6740  -24.5470   -2.0044 H   0  0  0  0  0  0  0  0  0  0  0  0
    5.9951  -22.9371   -2.8496 H   0  0  0  0  0  0  0  0  0  0  0  0
    7.5456  -25.3822   -3.4854 H   0  0  0  0  0  0  0  0  0  0  0  0
    5.8984  -24.9989   -4.2138 H   0  0  0  0  0  0  0  0  0  0  0  0
    8.3925  -23.3887   -4.3775 H   0  0  0  0  0  0  0  0  0  0  0  0
    7.5284  -24.3912   -5.6729 H   0  0  0  0  0  0  0  0  0  0  0  0
    6.0702  -22.8116   -6.1260 H   0  0  0  0  0  0  0  0  0  0  0  0
    5.9376  -22.2431   -4.4574 H   0  0  0  0  0  0  0  0  0  0  0  0
    8.5917  -21.8009   -5.0142 H   0  0  0  0  0  0  0  0  0  0  0  0
    7.7169  -21.4897   -6.6224 H   0  0  0  0  0  0  0  0  0  0  0  0
    6.2656  -19.8942   -5.3331 H   0  0  0  0  0  0  0  0  0  0  0  0
    7.5002  -19.9776   -4.0341 H   0  0  0  0  0  0  0  0  0  0  0  0
    8.7676  -18.5152   -5.1808 H   0  0  0  0  0  0  0  0  0  0  0  0
    8.8967  -19.7074   -6.5182 H   0  0  0  0  0  0  0  0  0  0  0  0
    7.5686  -18.4979   -6.5182 H   0  0  0  0  0  0  0  0  0  0  0  0
  1  2  1  0
  1  3  2  0
  1  4  1  0
  4  5  1  0
  5  8  1  0
  6  7  1  0
  6  8  1  0
  7  9  1  0
  9 10  1  0
 10 11  1  0
 11 12  1  0
 12 13  1  0
 13 14  1  0
 14 15  1  0
 15 16  1  0
 16 17  1  0
  4 18  1  0
  4 19  1  0
  5 20  1  0
  5 21  1  0
  6 22  1  0
  6 23  1  0
  7 24  1  0
  7 25  1  0
  8 26  1  0
  8 27  1  0
  9 28  1  0
  9 29  1  0
 10 30  1  0
 10 31  1  0
 11 32  1  0
 11 33  1  0
 12 34  1  0
 12 35  1  0
 13 36  1  0
 13 37  1  0
 14 38  1  0
 14 39  1  0
 15 40  1  0
 15 41  1  0
 16 42  1  0
 16 43  1  0
 17 44  1  0
 17 45  1  0
 17 46  1  0
M  CHG  1   2  -1
M  END
>  <filename_input>  (2) 
7WPW_F15_docked.sdf

>  <pdb_id>  (2) 
7WPW_F15

>  <pose_rank>  (2) 
1

>  <num_atoms_heavy>  (2) 
17

>  <num_torsions>  (2) 
13

>  <pose>  (2) 
[6.957904757589137, -23.616223163237812, -0.14803994216439248, 1.2635846420463972, 1.6893668704196032, 0.5412780127652472, 1.5602936914371384, -3.3534683681785977, 0.2766134731616122, 1.1034165745273075, 0.3963053346767966, 2.5631950775145307, 1.0048179413726992, 0.7251814678482885, -2.4572932406820787, -1.5242914996813426, -0.3267545094898133, 1.0943082299776907, -1.2271688011666928]

>  <energy>  (2) 
-616.7450391195684

>  <inter_energy>  (2) 
-609.0466035274228

>  <intra_energy>  (2) 
0.008090942304431034

>  <rmsd>  (2) 
4.19965

>  <sdf_rank>  (2) 
0

$$$$

     RDKit          3D

 46 45  0  0  0  0  0  0  0  0999 V2000
    5.7425  -16.1659   -1.4252 C   0  0  0  0  0  0  0  0  0  0  0  0
    6.3491  -15.0439   -1.4262 O   0  0  0  0  0  0  0  0  0  0  0  0
    4.6656  -16.3612   -0.8156 O   0  0  0  0  0  0  0  0  0  0  0  0
    6.3674  -17.2846   -2.2135 C   0  0  0  0  0  0  0  0  0  0  0  0
    6.6828  -17.0048   -3.6449 C   0  0  0  0  0  0  0  0  0  0  0  0
    6.3163  -19.2910   -4.6382 C   0  0  0  0  0  0  0  0  0  0  0  0
    6.8916  -20.4637   -5.4208 C   0  0  0  0  0  0  0  0  0  0  0  0
    7.2915  -18.1679   -4.4087 C   0  0  0  0  0  0  0  0  0  0  0  0
    5.8904  -21.3340   -6.1235 C   0  0  0  0  0  0  0  0  0  0  0  0
    5.3226  -22.4041   -5.2380 C   0  0  0  0  0  0  0  0  0  0  0  0
    6.3993  -23.4237   -4.9379 C   0  0  0  0  0  0  0  0  0  0  0  0
    6.1680  -24.2816   -3.7508 C   0  0  0  0  0  0  0  0  0  0  0  0
    7.1675  -24.1641   -2.6892 C   0  0  0  0  0  0  0  0  0  0  0  0
    6.8047  -23.3171   -1.5227 C   0  0  0  0  0  0  0  0  0  0  0  0
    7.6217  -23.8263   -0.3939 C   0  0  0  0  0  0  0  0  0  0  0  0
    7.8177  -22.9047    0.7926 C   0  0  0  0  0  0  0  0  0  0  0  0
    6.9593  -21.6726    0.6118 C   0  0  0  0  0  0  0  0  0  0  0  0
    7.3077  -17.5595   -1.7132 H   0  0  0  0  0  0  0  0  0  0  0  0
    5.6077  -18.0798   -2.2365 H   0  0  0  0  0  0  0  0  0  0  0  0
    5.7490  -16.7167   -4.1499 H   0  0  0  0  0  0  0  0  0  0  0  0
    7.4421  -16.2089   -3.6419 H   0  0  0  0  0  0  0  0  0  0  0  0
    5.4556  -18.8927   -5.1955 H   0  0  0  0  0  0  0  0  0  0  0  0
    6.0383  -19.6773   -3.6465 H   0  0  0  0  0  0  0  0  0  0  0  0
    7.5782  -20.0590   -6.1791 H   0  0  0  0  0  0  0  0  0  0  0  0
    7.3787  -21.1100   -4.6758 H   0  0  0  0  0  0  0  0  0  0  0  0
    7.6417  -17.8019   -5.3851 H   0  0  0  0  0  0  0  0  0  0  0  0
    8.1174  -18.5662   -3.8011 H   0  0  0  0  0  0  0  0  0  0  0  0
    5.0654  -20.7008   -6.4819 H   0  0  0  0  0  0  0  0  0  0  0  0
    6.4126  -21.8345   -6.9523 H   0  0  0  0  0  0  0  0  0  0  0  0
    4.9689  -21.9548   -4.2982 H   0  0  0  0  0  0  0  0  0  0  0  0
    4.4792  -22.8952   -5.7454 H   0  0  0  0  0  0  0  0  0  0  0  0
    6.4946  -24.0808   -5.8149 H   0  0  0  0  0  0  0  0  0  0  0  0
    7.3048  -22.8416   -4.7117 H   0  0  0  0  0  0  0  0  0  0  0  0
    5.1885  -24.0168   -3.3260 H   0  0  0  0  0  0  0  0  0  0  0  0
    6.2271  -25.3196   -4.1101 H   0  0  0  0  0  0  0  0  0  0  0  0
    7.3761  -25.1768   -2.3139 H   0  0  0  0  0  0  0  0  0  0  0  0
    8.0275  -23.6613   -3.1557 H   0  0  0  0  0  0  0  0  0  0  0  0
    7.0429  -22.2624   -1.7246 H   0  0  0  0  0  0  0  0  0  0  0  0
    5.7282  -23.3659   -1.3020 H   0  0  0  0  0  0  0  0  0  0  0  0
    7.1394  -24.7432   -0.0241 H   0  0  0  0  0  0  0  0  0  0  0  0
    8.6289  -23.9646   -0.8138 H   0  0  0  0  0  0  0  0  0  0  0  0
    7.5238  -23.4257    1.7158 H   0  0  0  0  0  0  0  0  0  0  0  0
    8.8756  -22.6114    0.8623 H   0  0  0  0  0  0  0  0  0  0  0  0
    6.6803  -21.2722    1.5976 H   0  0  0  0  0  0  0  0  0  0  0  0
    7.5236  -20.9114    0.0531 H   0  0  0  0  0  0  0  0  0  0  0  0
    6.0497  -21.9382    0.0531 H   0  0  0  0  0  0  0  0  0  0  0  0
  1  2  1  0
  1  3  2  0
  1  4  1  0
  4  5  1  0
  5  8  1  0
  6  7  1  0
  6  8  1  0
  7  9  1  0
  9 10  1  0
 10 11  1  0
 11 12  1  0
 12 13  1  0
 13 14  1  0
 14 15  1  0
 15 16  1  0
 16 17  1  0
  4 18  1  0
  4 19  1  0
  5 20  1  0
  5 21  1  0
  6 22  1  0
  6 23  1  0
  7 24  1  0
  7 25  1  0
  8 26  1  0
  8 27  1  0
  9 28  1  0
  9 29  1  0
 10 30  1  0
 10 31  1  0
 11 32  1  0
 11 33  1  0
 12 34  1  0
 12 35  1  0
 13 36  1  0
 13 37  1  0
 14 38  1  0
 14 39  1  0
 15 40  1  0
 15 41  1  0
 16 42  1  0
 16 43  1  0
 17 44  1  0
 17 45  1  0
 17 46  1  0
M  CHG  1   2  -1
M  END
>  <filename_input>  (3) 
7WPW_F15_docked.sdf

>  <pdb_id>  (3) 
7WPW_F15

>  <pose_rank>  (3) 
2

>  <num_atoms_heavy>  (3) 
17

>  <num_torsions>  (3) 
13

>  <pose>  (3) 
[5.890410382270949, -21.334020399531898, -6.123530324394422, -1.5403287382573103, 4.817289483809852, 1.8979717302295902, -0.4389112685159738, 4.512380231913399, -0.129810113024404, -2.0671914561231355, 0.018459898348079727, 2.077508287985609, 2.0164549928087214, -0.16549207849030123, -3.168737169658887, -5.099487190632384, -0.17433789455159293, 0.05900189675866927, 1.7025040518568018]

>  <energy>  (3) 
-639.2138311118799

>  <inter_energy>  (3) 
-628.3206518940174

>  <intra_energy>  (3) 
0.0

>  <rmsd>  (3) 
1.17148

>  <sdf_rank>  (3) 
0

$$$$

     RDKit          3D

 46 45  0  0  0  0  0  0  0  0999 V2000
    5.8791  -16.0596   -1.1985 C   0  0  0  0  0  0  0  0  0  0  0  0
    6.2537  -14.8460   -1.3147 O   0  0  0  0  0  0  0  0  0  0  0  0
    4.7323  -16.3884   -0.8161 O   0  0  0  0  0  0  0  0  0  0  0  0
    6.8797  -17.1241   -1.5582 C   0  0  0  0  0  0  0  0  0  0  0  0
    6.7448  -18.4372   -0.8623 C   0  0  0  0  0  0  0  0  0  0  0  0
    8.2817  -19.2218   -2.6980 C   0  0  0  0  0  0  0  0  0  0  0  0
    7.2584  -19.1585   -3.8239 C   0  0  0  0  0  0  0  0  0  0  0  0
    7.6908  -19.5220   -1.3468 C   0  0  0  0  0  0  0  0  0  0  0  0
    6.7831  -20.4819   -4.3497 C   0  0  0  0  0  0  0  0  0  0  0  0
    7.6958  -21.0588   -5.3917 C   0  0  0  0  0  0  0  0  0  0  0  0
    7.0032  -22.2197   -6.0710 C   0  0  0  0  0  0  0  0  0  0  0  0
    7.2848  -23.5626   -5.5089 C   0  0  0  0  0  0  0  0  0  0  0  0
    6.2030  -24.1499   -4.7185 C   0  0  0  0  0  0  0  0  0  0  0  0
    6.0755  -23.6838   -3.3128 C   0  0  0  0  0  0  0  0  0  0  0  0
    7.4269  -23.8375   -2.7202 C   0  0  0  0  0  0  0  0  0  0  0  0
    7.5503  -24.7135   -1.4902 C   0  0  0  0  0  0  0  0  0  0  0  0
    8.3100  -25.9709   -1.8499 C   0  0  0  0  0  0  0  0  0  0  0  0
    6.7938  -17.3099   -2.6390 H   0  0  0  0  0  0  0  0  0  0  0  0
    7.8525  -16.7256   -1.2346 H   0  0  0  0  0  0  0  0  0  0  0  0
    6.9316  -18.2758    0.2096 H   0  0  0  0  0  0  0  0  0  0  0  0
    5.7283  -18.7969   -1.0801 H   0  0  0  0  0  0  0  0  0  0  0  0
    9.0116  -20.0088   -2.9384 H   0  0  0  0  0  0  0  0  0  0  0  0
    8.7399  -18.2241   -2.6293 H   0  0  0  0  0  0  0  0  0  0  0  0
    6.3814  -18.6082   -3.4523 H   0  0  0  0  0  0  0  0  0  0  0  0
    7.7701  -18.6688   -4.6656 H   0  0  0  0  0  0  0  0  0  0  0  0
    8.5102  -19.6238   -0.6200 H   0  0  0  0  0  0  0  0  0  0  0  0
    7.1088  -20.4508   -1.4396 H   0  0  0  0  0  0  0  0  0  0  0  0
    6.7171  -21.1897   -3.5103 H   0  0  0  0  0  0  0  0  0  0  0  0
    5.8044  -20.3161   -4.8238 H   0  0  0  0  0  0  0  0  0  0  0  0
    7.9375  -20.2871   -6.1374 H   0  0  0  0  0  0  0  0  0  0  0  0
    8.6245  -21.4086   -4.9172 H   0  0  0  0  0  0  0  0  0  0  0  0
    5.9184  -22.0487   -6.0072 H   0  0  0  0  0  0  0  0  0  0  0  0
    7.3955  -22.2396   -7.0985 H   0  0  0  0  0  0  0  0  0  0  0  0
    7.5017  -24.2425   -6.3460 H   0  0  0  0  0  0  0  0  0  0  0  0
    8.1297  -23.4311   -4.8169 H   0  0  0  0  0  0  0  0  0  0  0  0
    5.2559  -23.9260   -5.2313 H   0  0  0  0  0  0  0  0  0  0  0  0
    6.4447  -25.2206   -4.6477 H   0  0  0  0  0  0  0  0  0  0  0  0
    5.7607  -22.6302   -3.2841 H   0  0  0  0  0  0  0  0  0  0  0  0
    5.3192  -24.2594   -2.7590 H   0  0  0  0  0  0  0  0  0  0  0  0
    8.0814  -24.2623   -3.4956 H   0  0  0  0  0  0  0  0  0  0  0  0
    7.7016  -22.8289   -2.3776 H   0  0  0  0  0  0  0  0  0  0  0  0
    8.0922  -24.1686   -0.7031 H   0  0  0  0  0  0  0  0  0  0  0  0
    6.5478  -24.9793   -1.1234 H   0  0  0  0  0  0  0  0  0  0  0  0
    8.6217  -26.4868   -0.9298 H   0  0  0  0  0  0  0  0  0  0  0  0
    7.6617  -26.6346   -2.4408 H   0  0  0  0  0  0  0  0  0  0  0  0
    9.1991  -25.7056   -2.4408 H   0  0  0  0  0  0  0  0  0  0  0  0
  1  2  1  0
  1  3  2  0
  1  4  1  0
  4  5  1  0
  5  8  1  0
  6  7  1  0
  6  8  1  0
  7  9  1  0
  9 10  1  0
 10 11  1  0
 11 12  1  0
 12 13  1  0
 13 14  1  0
 14 15  1  0
 15 16  1  0
 16 17  1  0
  4 18  1  0
  4 19  1  0
  5 20  1  0
  5 21  1  0
  6 22  1  0
  6 23  1  0
  7 24  1  0
  7 25  1  0
  8 26  1  0
  8 27  1  0
  9 28  1  0
  9 29  1  0
 10 30  1  0
 10 31  1  0
 11 32  1  0
 11 33  1  0
 12 34  1  0
 12 35  1  0
 13 36  1  0
 13 37  1  0
 14 38  1  0
 14 39  1  0
 15 40  1  0
 15 41  1  0
 16 42  1  0
 16 43  1  0
 17 44  1  0
 17 45  1  0
 17 46  1  0
M  CHG  1   2  -1
M  END
>  <filename_input>  (4) 
7WPW_F15_docked.sdf

>  <pdb_id>  (4) 
7WPW_F15

>  <pose_rank>  (4) 
3

>  <num_atoms_heavy>  (4) 
17

>  <num_torsions>  (4) 
13

>  <pose>  (4) 
[6.783092450155352, -20.481856940299025, -4.349719237317795, 1.1153913719998587, 1.1828458133839397, 0.2863108143833718, 5.861431191555792, 5.887871444128791, 1.9133469430668997, 2.6938413598366893, -0.09290653810711869, -0.6200299868170619, -5.9847525233147225, -4.603757615322652, 0.741588348033603, -1.9716991822998227, 2.5032265062191423, 1.4081465348062592, 3.5184542372235135]

>  <energy>  (4) 
-618.0873137326137

>  <inter_energy>  (4) 
-618.5465799623579

>  <intra_energy>  (4) 
20.38622358729217

>  <rmsd>  (4) 
2.6608

>  <sdf_rank>  (4) 
0

$$$$

     RDKit          3D

 46 45  0  0  0  0  0  0  0  0999 V2000
    5.7819  -16.0544   -1.6519 C   0  0  0  0  0  0  0  0  0  0  0  0
    6.1916  -14.9312   -1.2076 O   0  0  0  0  0  0  0  0  0  0  0  0
    4.7882  -16.6553   -1.1818 O   0  0  0  0  0  0  0  0  0  0  0  0
    6.5403  -16.6543   -2.8045 C   0  0  0  0  0  0  0  0  0  0  0  0
    5.8141  -17.6550   -3.6399 C   0  0  0  0  0  0  0  0  0  0  0  0
    7.9858  -18.9135   -3.4220 C   0  0  0  0  0  0  0  0  0  0  0  0
    8.2159  -20.2305   -2.6932 C   0  0  0  0  0  0  0  0  0  0  0  0
    6.6568  -18.8229   -4.1223 C   0  0  0  0  0  0  0  0  0  0  0  0
    7.3240  -20.4888   -1.5136 C   0  0  0  0  0  0  0  0  0  0  0  0
    7.8849  -21.5112   -0.5693 C   0  0  0  0  0  0  0  0  0  0  0  0
    8.1492  -22.7943   -1.3262 C   0  0  0  0  0  0  0  0  0  0  0  0
    7.3637  -23.9757   -0.8952 C   0  0  0  0  0  0  0  0  0  0  0  0
    7.0189  -24.9199   -1.9580 C   0  0  0  0  0  0  0  0  0  0  0  0
    7.3631  -24.5156   -3.3464 C   0  0  0  0  0  0  0  0  0  0  0  0
    6.2016  -23.7290   -3.8295 C   0  0  0  0  0  0  0  0  0  0  0  0
    6.3797  -22.9454   -5.1140 C   0  0  0  0  0  0  0  0  0  0  0  0
    6.7237  -23.9006   -6.2350 C   0  0  0  0  0  0  0  0  0  0  0  0
    6.8483  -15.8304   -3.4649 H   0  0  0  0  0  0  0  0  0  0  0  0
    7.3698  -17.2113   -2.3444 H   0  0  0  0  0  0  0  0  0  0  0  0
    4.9825  -18.0581   -3.0433 H   0  0  0  0  0  0  0  0  0  0  0  0
    5.4856  -17.1201   -4.5431 H   0  0  0  0  0  0  0  0  0  0  0  0
    8.0455  -18.0970   -2.6873 H   0  0  0  0  0  0  0  0  0  0  0  0
    8.7599  -18.8422   -4.2003 H   0  0  0  0  0  0  0  0  0  0  0  0
    8.0654  -21.0467   -3.4152 H   0  0  0  0  0  0  0  0  0  0  0  0
    9.2373  -20.1738   -2.2887 H   0  0  0  0  0  0  0  0  0  0  0  0
    6.1009  -19.7549   -3.9426 H   0  0  0  0  0  0  0  0  0  0  0  0
    6.8571  -18.6661   -5.1925 H   0  0  0  0  0  0  0  0  0  0  0  0
    7.1842  -19.5450   -0.9661 H   0  0  0  0  0  0  0  0  0  0  0  0
    6.3725  -20.8833   -1.8996 H   0  0  0  0  0  0  0  0  0  0  0  0
    8.8255  -21.1376   -0.1385 H   0  0  0  0  0  0  0  0  0  0  0  0
    7.1650  -21.7011    0.2405 H   0  0  0  0  0  0  0  0  0  0  0  0
    7.9267  -22.6110   -2.3877 H   0  0  0  0  0  0  0  0  0  0  0  0
    9.2006  -23.0470   -1.1243 H   0  0  0  0  0  0  0  0  0  0  0  0
    7.9507  -24.5161   -0.1380 H   0  0  0  0  0  0  0  0  0  0  0  0
    6.4086  -23.5835   -0.5157 H   0  0  0  0  0  0  0  0  0  0  0  0
    7.5408  -25.8649   -1.7467 H   0  0  0  0  0  0  0  0  0  0  0  0
    5.9212  -24.9878   -1.9399 H   0  0  0  0  0  0  0  0  0  0  0  0
    8.2742  -23.8994   -3.3527 H   0  0  0  0  0  0  0  0  0  0  0  0
    7.5611  -25.3870   -3.9880 H   0  0  0  0  0  0  0  0  0  0  0  0
    5.3683  -24.4304   -3.9830 H   0  0  0  0  0  0  0  0  0  0  0  0
    6.0344  -22.9667   -3.0543 H   0  0  0  0  0  0  0  0  0  0  0  0
    5.4457  -22.4164   -5.3548 H   0  0  0  0  0  0  0  0  0  0  0  0
    7.1906  -22.2125   -4.9907 H   0  0  0  0  0  0  0  0  0  0  0  0
    7.0676  -24.8554   -5.8106 H   0  0  0  0  0  0  0  0  0  0  0  0
    5.8319  -24.0749   -6.8549 H   0  0  0  0  0  0  0  0  0  0  0  0
    7.5219  -23.4662   -6.8549 H   0  0  0  0  0  0  0  0  0  0  0  0
  1  2  1  0
  1  3  2  0
  1  4  1  0
  4  5  1  0
  5  8  1  0
  6  7  1  0
  6  8  1  0
  7  9  1  0
  9 10  1  0
 10 11  1  0
 11 12  1  0
 12 13  1  0
 13 14  1  0
 14 15  1  0
 15 16  1  0
 16 17  1  0
  4 18  1  0
  4 19  1  0
  5 20  1  0
  5 21  1  0
  6 22  1  0
  6 23  1  0
  7 24  1  0
  7 25  1  0
  8 26  1  0
  8 27  1  0
  9 28  1  0
  9 29  1  0
 10 30  1  0
 10 31  1  0
 11 32  1  0
 11 33  1  0
 12 34  1  0
 12 35  1  0
 13 36  1  0
 13 37  1  0
 14 38  1  0
 14 39  1  0
 15 40  1  0
 15 41  1  0
 16 42  1  0
 16 43  1  0
 17 44  1  0
 17 45  1  0
 17 46  1  0
M  CHG  1   2  -1
M  END
>  <filename_input>  (5) 
7WPW_F15_docked.sdf

>  <pdb_id>  (5) 
7WPW_F15

>  <pose_rank>  (5) 
4

>  <num_atoms_heavy>  (5) 
17

>  <num_torsions>  (5) 
13

>  <pose>  (5) 
[7.323956931244082, -20.48878126932112, -1.5135526953525267, 1.190222515720231, -3.278446597912298, 3.865953262871677, -1.7350698856339228, 6.096124440563008, -1.1369776100113318, -3.055301913682791, 0.662298704886425, 0.2551964864279307, 2.2416858246604203, 7.560254374586311, 7.751525604109826, 5.604587949021825, 1.879018688696319, 0.18802129682201427, -3.654633350396795]

>  <energy>  (5) 
-600.5849299769554

>  <inter_energy>  (5) 
-590.6988643502576

>  <intra_energy>  (5) 
7.303734262861214

>  <rmsd>  (5) 
3.35196

>  <sdf_rank>  (5) 
0

$$$$

     RDKit          3D

 46 45  0  0  0  0  0  0  0  0999 V2000
    7.6050  -19.7168    0.2223 C   0  0  0  0  0  0  0  0  0  0  0  0
    7.3228  -20.7701   -0.4393 O   0  0  0  0  0  0  0  0  0  0  0  0
    7.6261  -19.6800    1.4743 O   0  0  0  0  0  0  0  0  0  0  0  0
    7.9373  -18.4795   -0.5665 C   0  0  0  0  0  0  0  0  0  0  0  0
    6.7870  -17.6780   -1.0776 C   0  0  0  0  0  0  0  0  0  0  0  0
    6.6146  -17.8751   -3.5833 C   0  0  0  0  0  0  0  0  0  0  0  0
    7.9039  -18.5918   -3.9613 C   0  0  0  0  0  0  0  0  0  0  0  0
    6.0472  -18.2920   -2.2532 C   0  0  0  0  0  0  0  0  0  0  0  0
    7.8655  -19.3727   -5.2429 C   0  0  0  0  0  0  0  0  0  0  0  0
    6.5033  -19.9200   -5.5535 C   0  0  0  0  0  0  0  0  0  0  0  0
    6.3916  -21.3213   -4.9943 C   0  0  0  0  0  0  0  0  0  0  0  0
    6.9812  -22.3999   -5.8234 C   0  0  0  0  0  0  0  0  0  0  0  0
    7.1870  -23.6754   -5.1374 C   0  0  0  0  0  0  0  0  0  0  0  0
    7.3940  -23.6155   -3.6666 C   0  0  0  0  0  0  0  0  0  0  0  0
    7.1651  -24.9974   -3.1777 C   0  0  0  0  0  0  0  0  0  0  0  0
    7.5004  -25.2857   -1.7285 C   0  0  0  0  0  0  0  0  0  0  0  0
    6.8568  -24.2351   -0.8512 C   0  0  0  0  0  0  0  0  0  0  0  0
    8.5382  -17.8237    0.0807 H   0  0  0  0  0  0  0  0  0  0  0  0
    8.4572  -18.8422   -1.4654 H   0  0  0  0  0  0  0  0  0  0  0  0
    6.0697  -17.5474   -0.2539 H   0  0  0  0  0  0  0  0  0  0  0  0
    7.2111  -16.7310   -1.4427 H   0  0  0  0  0  0  0  0  0  0  0  0
    6.8173  -16.7945   -3.5490 H   0  0  0  0  0  0  0  0  0  0  0  0
    5.8676  -18.1433   -4.3449 H   0  0  0  0  0  0  0  0  0  0  0  0
    8.6970  -17.8349   -4.0509 H   0  0  0  0  0  0  0  0  0  0  0  0
    8.0790  -19.3312   -3.1660 H   0  0  0  0  0  0  0  0  0  0  0  0
    6.1082  -19.3874   -2.1732 H   0  0  0  0  0  0  0  0  0  0  0  0
    5.0071  -17.9364   -2.2114 H   0  0  0  0  0  0  0  0  0  0  0  0
    8.1740  -18.7114   -6.0661 H   0  0  0  0  0  0  0  0  0  0  0  0
    8.5466  -20.2288   -5.1280 H   0  0  0  0  0  0  0  0  0  0  0  0
    5.7358  -19.2787   -5.0954 H   0  0  0  0  0  0  0  0  0  0  0  0
    6.3537  -19.9435   -6.6430 H   0  0  0  0  0  0  0  0  0  0  0  0
    6.8953  -21.3348   -4.0164 H   0  0  0  0  0  0  0  0  0  0  0  0
    5.3141  -21.5376   -4.9480 H   0  0  0  0  0  0  0  0  0  0  0  0
    6.3102  -22.5776   -6.6768 H   0  0  0  0  0  0  0  0  0  0  0  0
    7.9814  -22.0468   -6.1147 H   0  0  0  0  0  0  0  0  0  0  0  0
    6.3020  -24.3013   -5.3244 H   0  0  0  0  0  0  0  0  0  0  0  0
    8.1267  -24.0755   -5.5459 H   0  0  0  0  0  0  0  0  0  0  0  0
    8.4193  -23.2909   -3.4356 H   0  0  0  0  0  0  0  0  0  0  0  0
    6.7143  -22.8954   -3.1878 H   0  0  0  0  0  0  0  0  0  0  0  0
    6.0991  -25.2269   -3.3223 H   0  0  0  0  0  0  0  0  0  0  0  0
    7.8606  -25.6214   -3.7582 H   0  0  0  0  0  0  0  0  0  0  0  0
    7.1181  -26.2797   -1.4530 H   0  0  0  0  0  0  0  0  0  0  0  0
    8.5915  -25.2652   -1.5902 H   0  0  0  0  0  0  0  0  0  0  0  0
    7.0150  -24.4934    0.2063 H   0  0  0  0  0  0  0  0  0  0  0  0
    7.3096  -23.2548   -1.0610 H   0  0  0  0  0  0  0  0  0  0  0  0
    5.7778  -24.1931   -1.0610 H   0  0  0  0  0  0  0  0  0  0  0  0
  1  2  1  0
  1  3  2  0
  1  4  1  0
  4  5  1  0
  5  8  1  0
  6  7  1  0
  6  8  1  0
  7  9  1  0
  9 10  1  0
 10 11  1  0
 11 12  1  0
 12 13  1  0
 13 14  1  0
 14 15  1  0
 15 16  1  0
 16 17  1  0
  4 18  1  0
  4 19  1  0
  5 20  1  0
  5 21  1  0
  6 22  1  0
  6 23  1  0
  7 24  1  0
  7 25  1  0
  8 26  1  0
  8 27  1  0
  9 28  1  0
  9 29  1  0
 10 30  1  0
 10 31  1  0
 11 32  1  0
 11 33  1  0
 12 34  1  0
 12 35  1  0
 13 36  1  0
 13 37  1  0
 14 38  1  0
 14 39  1  0
 15 40  1  0
 15 41  1  0
 16 42  1  0
 16 43  1  0
 17 44  1  0
 17 45  1  0
 17 46  1  0
M  CHG  1   2  -1
M  END
>  <filename_input>  (6) 
7WPW_F15_docked.sdf

>  <pdb_id>  (6) 
7WPW_F15

>  <pose_rank>  (6) 
5

>  <num_atoms_heavy>  (6) 
17

>  <num_torsions>  (6) 
13

>  <pose>  (6) 
[7.865521799061363, -19.37267207398229, -5.2429254660891464, 0.10870033671917402, -2.041800555780798, -0.5003665012866104, -12.045775407428197, 3.0870367816508826, -1.9112141549786057, 1.4402213790285592, 1.85524392973709, -1.8399135997359017, -4.670767895956439, -10.673904681318117, -4.510402710470971, 11.526434312931428, -0.029886855631068927, 0.2520022986995543, 2.4555053441346524]

>  <energy>  (6) 
-587.7166380098013

>  <inter_energy>  (6) 
-587.2752403207879

>  <intra_energy>  (6) 
7.72603806589694

>  <rmsd>  (6) 
3.45257

>  <sdf_rank>  (6) 
0

$$$$

     RDKit          3D

 46 45  0  0  0  0  0  0  0  0999 V2000
    7.0762  -18.7153   -4.9821 C   0  0  0  0  0  0  0  0  0  0  0  0
    6.2282  -19.0592   -5.8707 O   0  0  0  0  0  0  0  0  0  0  0  0
    8.0071  -19.4612   -4.5995 O   0  0  0  0  0  0  0  0  0  0  0  0
    6.9338  -17.3378   -4.3943 C   0  0  0  0  0  0  0  0  0  0  0  0
    6.4355  -17.2534   -2.9903 C   0  0  0  0  0  0  0  0  0  0  0  0
    7.2512  -17.8969   -0.6951 C   0  0  0  0  0  0  0  0  0  0  0  0
    8.0745  -19.1746   -0.6038 C   0  0  0  0  0  0  0  0  0  0  0  0
    7.5137  -17.0841   -1.9342 C   0  0  0  0  0  0  0  0  0  0  0  0
    7.2992  -20.4344   -0.3475 C   0  0  0  0  0  0  0  0  0  0  0  0
    7.8926  -21.2738    0.7456 C   0  0  0  0  0  0  0  0  0  0  0  0
    6.9814  -22.4503    1.0186 C   0  0  0  0  0  0  0  0  0  0  0  0
    6.8231  -23.4201   -0.0918 C   0  0  0  0  0  0  0  0  0  0  0  0
    8.0295  -24.1671   -0.4473 C   0  0  0  0  0  0  0  0  0  0  0  0
    8.1086  -24.6826   -1.8393 C   0  0  0  0  0  0  0  0  0  0  0  0
    6.9821  -24.0437   -2.5631 C   0  0  0  0  0  0  0  0  0  0  0  0
    6.6834  -24.5427   -3.9622 C   0  0  0  0  0  0  0  0  0  0  0  0
    6.2702  -23.3740   -4.8287 C   0  0  0  0  0  0  0  0  0  0  0  0
    7.9236  -16.8588   -4.4255 H   0  0  0  0  0  0  0  0  0  0  0  0
    6.1629  -16.8433   -5.0034 H   0  0  0  0  0  0  0  0  0  0  0  0
    5.7532  -16.3933   -2.9218 H   0  0  0  0  0  0  0  0  0  0  0  0
    5.9480  -18.2166   -2.7793 H   0  0  0  0  0  0  0  0  0  0  0  0
    6.1859  -18.1706   -0.6808 H   0  0  0  0  0  0  0  0  0  0  0  0
    7.5406  -17.2711    0.1620 H   0  0  0  0  0  0  0  0  0  0  0  0
    8.6135  -19.2976   -1.5548 H   0  0  0  0  0  0  0  0  0  0  0  0
    8.7313  -19.0452    0.2690 H   0  0  0  0  0  0  0  0  0  0  0  0
    8.4771  -17.3979   -2.3625 H   0  0  0  0  0  0  0  0  0  0  0  0
    7.5234  -16.0246   -1.6386 H   0  0  0  0  0  0  0  0  0  0  0  0
    6.2721  -20.1624   -0.0627 H   0  0  0  0  0  0  0  0  0  0  0  0
    7.3238  -21.0306   -1.2715 H   0  0  0  0  0  0  0  0  0  0  0  0
    8.8819  -21.6393    0.4331 H   0  0  0  0  0  0  0  0  0  0  0  0
    8.0005  -20.6699    1.6586 H   0  0  0  0  0  0  0  0  0  0  0  0
    7.3843  -22.9942    1.8858 H   0  0  0  0  0  0  0  0  0  0  0  0
    5.9822  -22.0204    1.1822 H   0  0  0  0  0  0  0  0  0  0  0  0
    6.0480  -24.1447    0.1980 H   0  0  0  0  0  0  0  0  0  0  0  0
    6.5615  -22.8254   -0.9794 H   0  0  0  0  0  0  0  0  0  0  0  0
    8.8920  -23.5031   -0.2881 H   0  0  0  0  0  0  0  0  0  0  0  0
    8.0150  -25.0619    0.1923 H   0  0  0  0  0  0  0  0  0  0  0  0
    9.0683  -24.4035   -2.2987 H   0  0  0  0  0  0  0  0  0  0  0  0
    8.0447  -25.7802   -1.8723 H   0  0  0  0  0  0  0  0  0  0  0  0
    6.0748  -24.1913   -1.9588 H   0  0  0  0  0  0  0  0  0  0  0  0
    7.2897  -22.9960   -2.6963 H   0  0  0  0  0  0  0  0  0  0  0  0
    7.5830  -25.0141   -4.3846 H   0  0  0  0  0  0  0  0  0  0  0  0
    5.8695  -25.2817   -3.9253 H   0  0  0  0  0  0  0  0  0  0  0  0
    5.9719  -22.5305   -4.1889 H   0  0  0  0  0  0  0  0  0  0  0  0
    7.1158  -23.0714   -5.4638 H   0  0  0  0  0  0  0  0  0  0  0  0
    5.4223  -23.6702   -5.4638 H   0  0  0  0  0  0  0  0  0  0  0  0
  1  2  1  0
  1  3  2  0
  1  4  1  0
  4  5  1  0
  5  8  1  0
  6  7  1  0
  6  8  1  0
  7  9  1  0
  9 10  1  0
 10 11  1  0
 11 12  1  0
 12 13  1  0
 13 14  1  0
 14 15  1  0
 15 16  1  0
 16 17  1  0
  4 18  1  0
  4 19  1  0
  5 20  1  0
  5 21  1  0
  6 22  1  0
  6 23  1  0
  7 24  1  0
  7 25  1  0
  8 26  1  0
  8 27  1  0
  9 28  1  0
  9 29  1  0
 10 30  1  0
 10 31  1  0
 11 32  1  0
 11 33  1  0
 12 34  1  0
 12 35  1  0
 13 36  1  0
 13 37  1  0
 14 38  1  0
 14 39  1  0
 15 40  1  0
 15 41  1  0
 16 42  1  0
 16 43  1  0
 17 44  1  0
 17 45  1  0
 17 46  1  0
M  CHG  1   2  -1
M  END
>  <filename_input>  (7) 
7WPW_F15_docked.sdf

>  <pdb_id>  (7) 
7WPW_F15

>  <pose_rank>  (7) 
6

>  <num_atoms_heavy>  (7) 
17

>  <num_torsions>  (7) 
13

>  <pose>  (7) 
[7.299187620509642, -20.434350125233603, -0.3474707812779514, -5.243979765715034, 1.6695122811479748, -2.893188508170875, -1.2565358696895497, 5.024280968650841, -1.4773903563266961, -5.717002552761168, 4.85788399626106, -1.3895085322603966, -0.0013956314717151314, -8.123484548700414, -6.230758451521167, 3.0154968074055715, 3.5822553942518782, 0.5568110606218795, -0.908757457911243]

>  <energy>  (7) 
-580.732472570947

>  <inter_energy>  (7) 
-573.1999865963431

>  <intra_energy>  (7) 
0.0

>  <rmsd>  (7) 
4.43017

>  <sdf_rank>  (7) 
0

$$$$

     RDKit          3D

 46 45  0  0  0  0  0  0  0  0999 V2000
    5.7103  -16.0740   -1.3587 C   0  0  0  0  0  0  0  0  0  0  0  0
    5.2056  -14.9103   -1.2249 O   0  0  0  0  0  0  0  0  0  0  0  0
    5.1260  -17.1198   -0.9923 O   0  0  0  0  0  0  0  0  0  0  0  0
    7.0669  -16.1636   -2.0029 C   0  0  0  0  0  0  0  0  0  0  0  0
    7.9373  -17.3009   -1.5837 C   0  0  0  0  0  0  0  0  0  0  0  0
    8.5971  -18.8392   -3.4666 C   0  0  0  0  0  0  0  0  0  0  0  0
    8.2351  -20.1085   -2.7073 C   0  0  0  0  0  0  0  0  0  0  0  0
    9.0106  -17.6923   -2.5844 C   0  0  0  0  0  0  0  0  0  0  0  0
    9.1772  -20.5026   -1.6068 C   0  0  0  0  0  0  0  0  0  0  0  0
    8.6099  -20.2642   -0.2382 C   0  0  0  0  0  0  0  0  0  0  0  0
    8.4382  -21.5919    0.4665 C   0  0  0  0  0  0  0  0  0  0  0  0
    7.0432  -22.0711    0.6174 C   0  0  0  0  0  0  0  0  0  0  0  0
    6.7254  -23.3079   -0.0962 C   0  0  0  0  0  0  0  0  0  0  0  0
    5.7019  -23.2139   -1.1700 C   0  0  0  0  0  0  0  0  0  0  0  0
    6.4455  -23.3846   -2.4423 C   0  0  0  0  0  0  0  0  0  0  0  0
    7.1447  -24.7102   -2.6655 C   0  0  0  0  0  0  0  0  0  0  0  0
    6.1067  -25.7959   -2.8417 C   0  0  0  0  0  0  0  0  0  0  0  0
    6.9147  -16.2440   -3.0893 H   0  0  0  0  0  0  0  0  0  0  0  0
    7.6003  -15.2581   -1.6777 H   0  0  0  0  0  0  0  0  0  0  0  0
    8.4339  -17.0214   -0.6428 H   0  0  0  0  0  0  0  0  0  0  0  0
    7.2754  -18.1741   -1.4865 H   0  0  0  0  0  0  0  0  0  0  0  0
    9.4302  -19.0695   -4.1470 H   0  0  0  0  0  0  0  0  0  0  0  0
    7.6897  -18.5186   -3.9994 H   0  0  0  0  0  0  0  0  0  0  0  0
    7.2391  -19.9637   -2.2632 H   0  0  0  0  0  0  0  0  0  0  0  0
    8.2815  -20.9222   -3.4460 H   0  0  0  0  0  0  0  0  0  0  0  0
    9.2320  -16.8223   -3.2201 H   0  0  0  0  0  0  0  0  0  0  0  0
    9.8929  -18.0162   -2.0129 H   0  0  0  0  0  0  0  0  0  0  0  0
    9.4082  -21.5731   -1.7093 H   0  0  0  0  0  0  0  0  0  0  0  0
   10.0775  -19.8780   -1.7040 H   0  0  0  0  0  0  0  0  0  0  0  0
    9.2963  -19.6272    0.3389 H   0  0  0  0  0  0  0  0  0  0  0  0
    7.6348  -19.7624   -0.3243 H   0  0  0  0  0  0  0  0  0  0  0  0
    8.9949  -22.3502   -0.1037 H   0  0  0  0  0  0  0  0  0  0  0  0
    8.8108  -21.4355    1.4896 H   0  0  0  0  0  0  0  0  0  0  0  0
    6.8557  -22.2390    1.6882 H   0  0  0  0  0  0  0  0  0  0  0  0
    6.4049  -21.2923    0.1745 H   0  0  0  0  0  0  0  0  0  0  0  0
    7.6552  -23.6776   -0.5531 H   0  0  0  0  0  0  0  0  0  0  0  0
    6.2894  -23.9755    0.6617 H   0  0  0  0  0  0  0  0  0  0  0  0
    4.9497  -24.0083   -1.0548 H   0  0  0  0  0  0  0  0  0  0  0  0
    5.1631  -22.2554   -1.1376 H   0  0  0  0  0  0  0  0  0  0  0  0
    5.7288  -23.2464   -3.2652 H   0  0  0  0  0  0  0  0  0  0  0  0
    7.2556  -22.6418   -2.3981 H   0  0  0  0  0  0  0  0  0  0  0  0
    7.7702  -24.6490   -3.5683 H   0  0  0  0  0  0  0  0  0  0  0  0
    7.7804  -24.9435   -1.7986 H   0  0  0  0  0  0  0  0  0  0  0  0
    5.7715  -26.1465   -1.8544 H   0  0  0  0  0  0  0  0  0  0  0  0
    5.2476  -25.3948   -3.3995 H   0  0  0  0  0  0  0  0  0  0  0  0
    6.5459  -26.6361   -3.3995 H   0  0  0  0  0  0  0  0  0  0  0  0
  1  2  1  0
  1  3  2  0
  1  4  1  0
  4  5  1  0
  5  8  1  0
  6  7  1  0
  6  8  1  0
  7  9  1  0
  9 10  1  0
 10 11  1  0
 11 12  1  0
 12 13  1  0
 13 14  1  0
 14 15  1  0
 15 16  1  0
 16 17  1  0
  4 18  1  0
  4 19  1  0
  5 20  1  0
  5 21  1  0
  6 22  1  0
  6 23  1  0
  7 24  1  0
  7 25  1  0
  8 26  1  0
  8 27  1  0
  9 28  1  0
  9 29  1  0
 10 30  1  0
 10 31  1  0
 11 32  1  0
 11 33  1  0
 12 34  1  0
 12 35  1  0
 13 36  1  0
 13 37  1  0
 14 38  1  0
 14 39  1  0
 15 40  1  0
 15 41  1  0
 16 42  1  0
 16 43  1  0
 17 44  1  0
 17 45  1  0
 17 46  1  0
M  CHG  1   2  -1
M  END
>  <filename_input>  (8) 
7WPW_F15_docked.sdf

>  <pdb_id>  (8) 
7WPW_F15

>  <pose_rank>  (8) 
7

>  <num_atoms_heavy>  (8) 
17

>  <num_torsions>  (8) 
13

>  <pose>  (8) 
[9.177193046591148, -20.502555117223313, -1.6068496029411203, -0.42703947164483613, -0.9429819812258684, 2.0032749349644074, -9.64697028871192, 6.470687314373462, 2.0075849289113283, 1.3260924146234212, -0.40097191578877417, -0.6452189386158823, -7.323408486153207, 1.4432076518526884, 0.919758642843476, -2.6025286783606156, -0.9704950179244858, -1.6420878409096051, -3.5086198209273687]

>  <energy>  (8) 
-570.2344004474535

>  <inter_energy>  (8) 
-578.790414742643

>  <intra_energy>  (8) 
13.629816677658702

>  <rmsd>  (8) 
3.56859

>  <sdf_rank>  (8) 
0

$$$$

     RDKit          3D

 46 45  0  0  0  0  0  0  0  0999 V2000
    8.2816  -17.0364   -2.4025 C   0  0  0  0  0  0  0  0  0  0  0  0
    8.3966  -18.1482   -3.0170 O   0  0  0  0  0  0  0  0  0  0  0  0
    9.2595  -16.4083   -1.9351 O   0  0  0  0  0  0  0  0  0  0  0  0
    6.8945  -16.4714   -2.2600 C   0  0  0  0  0  0  0  0  0  0  0  0
    5.8171  -17.4243   -1.8626 C   0  0  0  0  0  0  0  0  0  0  0  0
    6.3354  -19.4810   -0.5030 C   0  0  0  0  0  0  0  0  0  0  0  0
    7.0711  -19.9607    0.7409 C   0  0  0  0  0  0  0  0  0  0  0  0
    5.9669  -18.0221   -0.4746 C   0  0  0  0  0  0  0  0  0  0  0  0
    6.7268  -21.3445    1.2105 C   0  0  0  0  0  0  0  0  0  0  0  0
    7.6896  -22.3851    0.7187 C   0  0  0  0  0  0  0  0  0  0  0  0
    6.9145  -23.5961    0.2480 C   0  0  0  0  0  0  0  0  0  0  0  0
    7.2614  -24.1046   -1.1010 C   0  0  0  0  0  0  0  0  0  0  0  0
    6.9463  -23.2039   -2.2097 C   0  0  0  0  0  0  0  0  0  0  0  0
    7.2048  -23.7178   -3.5803 C   0  0  0  0  0  0  0  0  0  0  0  0
    6.0876  -23.2070   -4.4122 C   0  0  0  0  0  0  0  0  0  0  0  0
    6.4438  -22.5859   -5.7476 C   0  0  0  0  0  0  0  0  0  0  0  0
    7.6822  -21.7331   -5.5843 C   0  0  0  0  0  0  0  0  0  0  0  0
    6.9348  -15.6785   -1.4987 H   0  0  0  0  0  0  0  0  0  0  0  0
    6.6184  -16.1290   -3.2682 H   0  0  0  0  0  0  0  0  0  0  0  0
    4.8570  -16.8888   -1.9015 H   0  0  0  0  0  0  0  0  0  0  0  0
    5.8772  -18.2666   -2.5676 H   0  0  0  0  0  0  0  0  0  0  0  0
    6.9812  -19.6572   -1.3759 H   0  0  0  0  0  0  0  0  0  0  0  0
    5.3925  -20.0454   -0.5513 H   0  0  0  0  0  0  0  0  0  0  0  0
    8.1496  -19.9358    0.5258 H   0  0  0  0  0  0  0  0  0  0  0  0
    6.7608  -19.2844    1.5511 H   0  0  0  0  0  0  0  0  0  0  0  0
    6.7538  -17.4716    0.0618 H   0  0  0  0  0  0  0  0  0  0  0  0
    4.9926  -17.9370    0.0289 H   0  0  0  0  0  0  0  0  0  0  0  0
    6.7323  -21.3532    2.3104 H   0  0  0  0  0  0  0  0  0  0  0  0
    5.7357  -21.5937    0.8037 H   0  0  0  0  0  0  0  0  0  0  0  0
    8.2777  -21.9770   -0.1166 H   0  0  0  0  0  0  0  0  0  0  0  0
    8.3692  -22.6748    1.5337 H   0  0  0  0  0  0  0  0  0  0  0  0
    7.0884  -24.4084    0.9690 H   0  0  0  0  0  0  0  0  0  0  0  0
    5.8659  -23.2703    0.1820 H   0  0  0  0  0  0  0  0  0  0  0  0
    8.3431  -24.3030   -1.1214 H   0  0  0  0  0  0  0  0  0  0  0  0
    6.6451  -25.0027   -1.2548 H   0  0  0  0  0  0  0  0  0  0  0  0
    5.8771  -22.9544   -2.1432 H   0  0  0  0  0  0  0  0  0  0  0  0
    7.6258  -22.3473   -2.0888 H   0  0  0  0  0  0  0  0  0  0  0  0
    8.1675  -23.3417   -3.9567 H   0  0  0  0  0  0  0  0  0  0  0  0
    7.2597  -24.8162   -3.6007 H   0  0  0  0  0  0  0  0  0  0  0  0
    5.4103  -24.0508   -4.6103 H   0  0  0  0  0  0  0  0  0  0  0  0
    5.6513  -22.3851   -3.8257 H   0  0  0  0  0  0  0  0  0  0  0  0
    6.6385  -23.3806   -6.4828 H   0  0  0  0  0  0  0  0  0  0  0  0
    5.6090  -21.9621   -6.0997 H   0  0  0  0  0  0  0  0  0  0  0  0
    7.8902  -21.5899   -4.5137 H   0  0  0  0  0  0  0  0  0  0  0  0
    8.5379  -22.2344   -6.0602 H   0  0  0  0  0  0  0  0  0  0  0  0
    7.5191  -20.7549   -6.0602 H   0  0  0  0  0  0  0  0  0  0  0  0
  1  2  1  0
  1  3  2  0
  1  4  1  0
  4  5  1  0
  5  8  1  0
  6  7  1  0
  6  8  1  0
  7  9  1  0
  9 10  1  0
 10 11  1  0
 11 12  1  0
 12 13  1  0
 13 14  1  0
 14 15  1  0
 15 16  1  0
 16 17  1  0
  4 18  1  0
  4 19  1  0
  5 20  1  0
  5 21  1  0
  6 22  1  0
  6 23  1  0
  7 24  1  0
  7 25  1  0
  8 26  1  0
  8 27  1  0
  9 28  1  0
  9 29  1  0
 10 30  1  0
 10 31  1  0
 11 32  1  0
 11 33  1  0
 12 34  1  0
 12 35  1  0
 13 36  1  0
 13 37  1  0
 14 38  1  0
 14 39  1  0
 15 40  1  0
 15 41  1  0
 16 42  1  0
 16 43  1  0
 17 44  1  0
 17 45  1  0
 17 46  1  0
M  CHG  1   2  -1
M  END
>  <filename_input>  (9) 
7WPW_F15_docked.sdf

>  <pdb_id>  (9) 
7WPW_F15

>  <pose_rank>  (9) 
8

>  <num_atoms_heavy>  (9) 
17

>  <num_torsions>  (9) 
13

>  <pose>  (9) 
[6.726828391431895, -21.344473606803625, 1.210460222612314, 0.4602334106881758, 1.232376553540632, -0.07963386350533068, -9.833852523179536, 3.4660376192435054, -0.5580346922584334, 1.1030421957131422, 4.275940184839404, -2.498899298864379, -11.717641245867657, -6.9857547366819, -8.529487509243726, -3.645346229049132, -0.40131341296475675, -0.41163426576335266, 0.8689016242334675]

>  <energy>  (9) 
-567.3263742552025

>  <inter_energy>  (9) 
-559.0983788319908

>  <intra_energy>  (9) 
1.1012948740298467

>  <rmsd>  (9) 
4.48273

>  <sdf_rank>  (9) 
0

$$$$

     RDKit          3D

 46 45  0  0  0  0  0  0  0  0999 V2000
   10.2817  -17.9059   -3.0622 C   0  0  0  0  0  0  0  0  0  0  0  0
   10.2547  -19.1610   -2.8368 O   0  0  0  0  0  0  0  0  0  0  0  0
   10.9644  -17.3892   -3.9768 O   0  0  0  0  0  0  0  0  0  0  0  0
    9.4325  -17.0318   -2.1801 C   0  0  0  0  0  0  0  0  0  0  0  0
    7.9943  -16.8938   -2.5535 C   0  0  0  0  0  0  0  0  0  0  0  0
    7.1830  -18.2566   -0.5960 C   0  0  0  0  0  0  0  0  0  0  0  0
    5.8878  -19.0254   -0.3720 C   0  0  0  0  0  0  0  0  0  0  0  0
    7.0168  -16.9924   -1.3954 C   0  0  0  0  0  0  0  0  0  0  0  0
    6.0003  -20.2636    0.4693 C   0  0  0  0  0  0  0  0  0  0  0  0
    7.3900  -20.8292    0.4942 C   0  0  0  0  0  0  0  0  0  0  0  0
    7.3575  -22.1987    1.1364 C   0  0  0  0  0  0  0  0  0  0  0  0
    7.7011  -23.3384    0.2524 C   0  0  0  0  0  0  0  0  0  0  0  0
    6.6332  -23.7784   -0.6453 C   0  0  0  0  0  0  0  0  0  0  0  0
    7.0369  -24.6310   -1.7941 C   0  0  0  0  0  0  0  0  0  0  0  0
    6.8646  -23.7814   -2.9980 C   0  0  0  0  0  0  0  0  0  0  0  0
    6.5732  -24.4844   -4.3082 C   0  0  0  0  0  0  0  0  0  0  0  0
    6.4710  -23.4556   -5.4120 C   0  0  0  0  0  0  0  0  0  0  0  0
    9.4736  -17.4465   -1.1621 H   0  0  0  0  0  0  0  0  0  0  0  0
    9.8549  -16.0215   -2.2838 H   0  0  0  0  0  0  0  0  0  0  0  0
    7.8588  -15.9124   -3.0314 H   0  0  0  0  0  0  0  0  0  0  0  0
    7.7677  -17.7397   -3.2192 H   0  0  0  0  0  0  0  0  0  0  0  0
    7.6018  -17.9918    0.3861 H   0  0  0  0  0  0  0  0  0  0  0  0
    7.8459  -18.9145   -1.1771 H   0  0  0  0  0  0  0  0  0  0  0  0
    5.1736  -18.3477    0.1186 H   0  0  0  0  0  0  0  0  0  0  0  0
    5.5679  -19.3682   -1.3670 H   0  0  0  0  0  0  0  0  0  0  0  0
    7.1744  -16.1320   -0.7285 H   0  0  0  0  0  0  0  0  0  0  0  0
    6.0018  -17.0005   -1.8194 H   0  0  0  0  0  0  0  0  0  0  0  0
    5.7037  -20.0162    1.4993 H   0  0  0  0  0  0  0  0  0  0  0  0
    5.3422  -21.0250    0.0252 H   0  0  0  0  0  0  0  0  0  0  0  0
    7.7713  -20.9139   -0.5341 H   0  0  0  0  0  0  0  0  0  0  0  0
    8.0493  -20.1651    1.0723 H   0  0  0  0  0  0  0  0  0  0  0  0
    8.0710  -22.1949    1.9737 H   0  0  0  0  0  0  0  0  0  0  0  0
    6.3120  -22.3609    1.4374 H   0  0  0  0  0  0  0  0  0  0  0  0
    8.5627  -23.0425   -0.3641 H   0  0  0  0  0  0  0  0  0  0  0  0
    7.9069  -24.1887    0.9192 H   0  0  0  0  0  0  0  0  0  0  0  0
    5.9074  -24.3479   -0.0462 H   0  0  0  0  0  0  0  0  0  0  0  0
    6.2348  -22.8568   -1.0947 H   0  0  0  0  0  0  0  0  0  0  0  0
    8.0866  -24.9432   -1.6909 H   0  0  0  0  0  0  0  0  0  0  0  0
    6.4338  -25.5491   -1.8528 H   0  0  0  0  0  0  0  0  0  0  0  0
    6.0301  -23.0926   -2.7998 H   0  0  0  0  0  0  0  0  0  0  0  0
    7.8426  -23.3003   -3.1468 H   0  0  0  0  0  0  0  0  0  0  0  0
    7.3863  -25.1893   -4.5363 H   0  0  0  0  0  0  0  0  0  0  0  0
    5.6253  -25.0368   -4.2286 H   0  0  0  0  0  0  0  0  0  0  0  0
    6.3714  -22.4529   -4.9707 H   0  0  0  0  0  0  0  0  0  0  0  0
    7.3774  -23.4940   -6.0341 H   0  0  0  0  0  0  0  0  0  0  0  0
    5.5899  -23.6715   -6.0341 H   0  0  0  0  0  0  0  0  0  0  0  0
  1  2  1  0
  1  3  2  0
  1  4  1  0
  4  5  1  0
  5  8  1  0
  6  7  1  0
  6  8  1  0
  7  9  1  0
  9 10  1  0
 10 11  1  0
 11 12  1  0
 12 13  1  0
 13 14  1  0
 14 15  1  0
 15 16  1  0
 16 17  1  0
  4 18  1  0
  4 19  1  0
  5 20  1  0
  5 21  1  0
  6 22  1  0
  6 23  1  0
  7 24  1  0
  7 25  1  0
  8 26  1  0
  8 27  1  0
  9 28  1  0
  9 29  1  0
 10 30  1  0
 10 31  1  0
 11 32  1  0
 11 33  1  0
 12 34  1  0
 12 35  1  0
 13 36  1  0
 13 37  1  0
 14 38  1  0
 14 39  1  0
 15 40  1  0
 15 41  1  0
 16 42  1  0
 16 43  1  0
 17 44  1  0
 17 45  1  0
 17 46  1  0
M  CHG  1   2  -1
M  END
>  <filename_input>  (10) 
7WPW_F15_docked.sdf

>  <pdb_id>  (10) 
7WPW_F15

>  <pose_rank>  (10) 
9

>  <num_atoms_heavy>  (10) 
17

>  <num_torsions>  (10) 
13

>  <pose>  (10) 
[6.000295660304574, -20.263634430539877, 0.4693260588830909, -0.07032202372467496, 1.055246482902114, 0.16931386259517783, -37.04541497347884, -20.9733918330295, -11.797397320846333, -4.232343401651894, -0.7656906488529079, 1.5559003834544733, -49.99190330157379, -13.53597058740242, 16.377713827887597, -16.571267929712445, -4.796065944130569, 0.8800984752707941, -1.5295938855825542]

>  <energy>  (10) 
-564.8566788944194

>  <inter_energy>  (10) 
-551.7084506452413

>  <intra_energy>  (10) 
0.10371117383143924

>  <rmsd>  (10) 
4.83205

>  <sdf_rank>  (10) 
0

$$$$

     RDKit          3D

 46 45  0  0  0  0  0  0  0  0999 V2000
    7.5233  -22.1810   -0.1454 C   0  0  0  0  0  0  0  0  0  0  0  0
    8.3701  -21.8349   -1.0342 O   0  0  0  0  0  0  0  0  0  0  0  0
    7.2612  -23.3766    0.1216 O   0  0  0  0  0  0  0  0  0  0  0  0
    6.8328  -21.0787    0.6106 C   0  0  0  0  0  0  0  0  0  0  0  0
    6.2993  -19.9417   -0.1951 C   0  0  0  0  0  0  0  0  0  0  0  0
    7.7524  -17.9999   -0.8772 C   0  0  0  0  0  0  0  0  0  0  0  0
    7.1226  -16.8775   -1.6911 C   0  0  0  0  0  0  0  0  0  0  0  0
    6.8475  -18.5755    0.1786 C   0  0  0  0  0  0  0  0  0  0  0  0
    7.5770  -16.7712   -3.1180 C   0  0  0  0  0  0  0  0  0  0  0  0
    6.8321  -17.6926   -4.0389 C   0  0  0  0  0  0  0  0  0  0  0  0
    7.7240  -18.8594   -4.4024 C   0  0  0  0  0  0  0  0  0  0  0  0
    7.2263  -20.2017   -4.0163 C   0  0  0  0  0  0  0  0  0  0  0  0
    7.7991  -21.3207   -4.7644 C   0  0  0  0  0  0  0  0  0  0  0  0
    7.1199  -21.6914   -6.0337 C   0  0  0  0  0  0  0  0  0  0  0  0
    6.3042  -22.8881   -5.7118 C   0  0  0  0  0  0  0  0  0  0  0  0
    6.9537  -23.9640   -4.8654 C   0  0  0  0  0  0  0  0  0  0  0  0
    6.0214  -24.3365   -3.7342 C   0  0  0  0  0  0  0  0  0  0  0  0
    5.9879  -21.5267    1.1541 H   0  0  0  0  0  0  0  0  0  0  0  0
    7.6110  -20.6376    1.2507 H   0  0  0  0  0  0  0  0  0  0  0  0
    6.5418  -20.1290   -1.2515 H   0  0  0  0  0  0  0  0  0  0  0  0
    5.2184  -19.9039    0.0057 H   0  0  0  0  0  0  0  0  0  0  0  0
    8.0373  -18.8085   -1.5663 H   0  0  0  0  0  0  0  0  0  0  0  0
    8.6158  -17.5651   -0.3523 H   0  0  0  0  0  0  0  0  0  0  0  0
    6.0337  -17.0329   -1.6943 H   0  0  0  0  0  0  0  0  0  0  0  0
    7.4397  -15.9425   -1.2062 H   0  0  0  0  0  0  0  0  0  0  0  0
    6.0027  -17.8876    0.3302 H   0  0  0  0  0  0  0  0  0  0  0  0
    7.4443  -18.6981    1.0945 H   0  0  0  0  0  0  0  0  0  0  0  0
    7.4248  -15.7364   -3.4586 H   0  0  0  0  0  0  0  0  0  0  0  0
    8.6377  -17.0609   -3.1489 H   0  0  0  0  0  0  0  0  0  0  0  0
    5.9274  -18.0639   -3.5353 H   0  0  0  0  0  0  0  0  0  0  0  0
    6.5431  -17.1498   -4.9509 H   0  0  0  0  0  0  0  0  0  0  0  0
    7.8602  -18.8518   -5.4939 H   0  0  0  0  0  0  0  0  0  0  0  0
    8.6531  -18.7118   -3.8324 H   0  0  0  0  0  0  0  0  0  0  0  0
    7.4526  -20.3543   -2.9507 H   0  0  0  0  0  0  0  0  0  0  0  0
    6.1501  -20.2036   -4.2435 H   0  0  0  0  0  0  0  0  0  0  0  0
    8.8403  -21.0618   -5.0067 H   0  0  0  0  0  0  0  0  0  0  0  0
    7.6846  -22.1963   -4.1084 H   0  0  0  0  0  0  0  0  0  0  0  0
    6.4763  -20.8691   -6.3796 H   0  0  0  0  0  0  0  0  0  0  0  0
    7.8416  -21.8939   -6.8387 H   0  0  0  0  0  0  0  0  0  0  0  0
    5.4076  -22.5427   -5.1763 H   0  0  0  0  0  0  0  0  0  0  0  0
    6.1129  -23.3691   -6.6824 H   0  0  0  0  0  0  0  0  0  0  0  0
    7.1521  -24.8504   -5.4858 H   0  0  0  0  0  0  0  0  0  0  0  0
    7.9025  -23.5887   -4.4544 H   0  0  0  0  0  0  0  0  0  0  0  0
    6.5158  -24.1390   -2.7716 H   0  0  0  0  0  0  0  0  0  0  0  0
    5.1020  -23.7366   -3.8042 H   0  0  0  0  0  0  0  0  0  0  0  0
    5.7685  -25.4047   -3.8042 H   0  0  0  0  0  0  0  0  0  0  0  0
  1  2  1  0
  1  3  2  0
  1  4  1  0
  4  5  1  0
  5  8  1  0
  6  7  1  0
  6  8  1  0
  7  9  1  0
  9 10  1  0
 10 11  1  0
 11 12  1  0
 12 13  1  0
 13 14  1  0
 14 15  1  0
 15 16  1  0
 16 17  1  0
  4 18  1  0
  4 19  1  0
  5 20  1  0
  5 21  1  0
  6 22  1  0
  6 23  1  0
  7 24  1  0
  7 25  1  0
  8 26  1  0
  8 27  1  0
  9 28  1  0
  9 29  1  0
 10 30  1  0
 10 31  1  0
 11 32  1  0
 11 33  1  0
 12 34  1  0
 12 35  1  0
 13 36  1  0
 13 37  1  0
 14 38  1  0
 14 39  1  0
 15 40  1  0
 15 41  1  0
 16 42  1  0
 16 43  1  0
 17 44  1  0
 17 45  1  0
 17 46  1  0
M  CHG  1   2  -1
M  END
>  <filename_input>  (11) 
7WPW_F15_docked.sdf

>  <pdb_id>  (11) 
7WPW_F15

>  <pose_rank>  (11) 
10

>  <num_atoms_heavy>  (11) 
17

>  <num_torsions>  (11) 
13

>  <pose>  (11) 
[7.576984691588256, -16.771248991575412, -3.1180365615762344, 1.10882174358766, -1.865249020154044, -0.6072138979162244, 21.364590232996047, 4.672838154545992, -7.6991973817886965, -1.349998956132909, -5.265299572186862, 3.815499366331952, -11.168461147891172, -0.8793775633208557, 1.667952921883858, -8.377545265967058, 1.6315530681717059, 2.7772937902026493, -2.414523579748091]

>  <energy>  (11) 
-550.0186394691386

>  <inter_energy>  (11) 
-543.9155240944377

>  <intra_energy>  (11) 
1.568776789545403

>  <rmsd>  (11) 
5.40496

>  <sdf_rank>  (11) 
0

$$$$

     RDKit          3D

 46 45  0  0  0  0  0  0  0  0999 V2000
    9.7837  -18.1487   -5.2564 C   0  0  0  0  0  0  0  0  0  0  0  0
    9.9650  -16.9263   -4.9407 O   0  0  0  0  0  0  0  0  0  0  0  0
   10.6731  -19.0238   -5.1441 O   0  0  0  0  0  0  0  0  0  0  0  0
    8.4228  -18.5296   -5.7723 C   0  0  0  0  0  0  0  0  0  0  0  0
    7.2964  -18.4874   -4.7945 C   0  0  0  0  0  0  0  0  0  0  0  0
    6.9062  -19.9707   -2.7957 C   0  0  0  0  0  0  0  0  0  0  0  0
    7.6964  -18.8599   -2.1169 C   0  0  0  0  0  0  0  0  0  0  0  0
    6.8286  -19.8426   -4.2932 C   0  0  0  0  0  0  0  0  0  0  0  0
    8.1221  -19.1314   -0.7031 C   0  0  0  0  0  0  0  0  0  0  0  0
    7.1098  -19.9245    0.0702 C   0  0  0  0  0  0  0  0  0  0  0  0
    7.8178  -21.0184    0.8390 C   0  0  0  0  0  0  0  0  0  0  0  0
    7.0318  -22.2512    1.0860 C   0  0  0  0  0  0  0  0  0  0  0  0
    6.4412  -22.8659   -0.1028 C   0  0  0  0  0  0  0  0  0  0  0  0
    7.3493  -23.6783   -0.9543 C   0  0  0  0  0  0  0  0  0  0  0  0
    6.4643  -24.4006   -1.9008 C   0  0  0  0  0  0  0  0  0  0  0  0
    7.0566  -24.8027   -3.2362 C   0  0  0  0  0  0  0  0  0  0  0  0
    6.4200  -23.9762   -4.3311 C   0  0  0  0  0  0  0  0  0  0  0  0
    8.1748  -17.8433   -6.5953 H   0  0  0  0  0  0  0  0  0  0  0  0
    8.5111  -19.5866   -6.0639 H   0  0  0  0  0  0  0  0  0  0  0  0
    7.6210  -17.8960   -3.9257 H   0  0  0  0  0  0  0  0  0  0  0  0
    6.4422  -18.0466   -5.3294 H   0  0  0  0  0  0  0  0  0  0  0  0
    7.3848  -20.9315   -2.5555 H   0  0  0  0  0  0  0  0  0  0  0  0
    5.8754  -19.9032   -2.4177 H   0  0  0  0  0  0  0  0  0  0  0  0
    8.6026  -18.6775   -2.7131 H   0  0  0  0  0  0  0  0  0  0  0  0
    7.0149  -17.9981   -2.0635 H   0  0  0  0  0  0  0  0  0  0  0  0
    5.7841  -19.9908   -4.6047 H   0  0  0  0  0  0  0  0  0  0  0  0
    7.4959  -20.6030   -4.7250 H   0  0  0  0  0  0  0  0  0  0  0  0
    9.0674  -19.6935   -0.7231 H   0  0  0  0  0  0  0  0  0  0  0  0
    8.2339  -18.1596   -0.2000 H   0  0  0  0  0  0  0  0  0  0  0  0
    6.5826  -19.2627    0.7731 H   0  0  0  0  0  0  0  0  0  0  0  0
    6.3819  -20.3713   -0.6231 H   0  0  0  0  0  0  0  0  0  0  0  0
    8.7172  -21.3005    0.2719 H   0  0  0  0  0  0  0  0  0  0  0  0
    8.0270  -20.5955    1.8326 H   0  0  0  0  0  0  0  0  0  0  0  0
    7.6977  -22.9903    1.5553 H   0  0  0  0  0  0  0  0  0  0  0  0
    6.1874  -21.9504    1.7237 H   0  0  0  0  0  0  0  0  0  0  0  0
    5.6232  -23.5208    0.2318 H   0  0  0  0  0  0  0  0  0  0  0  0
    6.1253  -22.0245   -0.7371 H   0  0  0  0  0  0  0  0  0  0  0  0
    8.0478  -23.0278   -1.5012 H   0  0  0  0  0  0  0  0  0  0  0  0
    7.9588  -24.3712   -0.3556 H   0  0  0  0  0  0  0  0  0  0  0  0
    6.1243  -25.3191   -1.4000 H   0  0  0  0  0  0  0  0  0  0  0  0
    5.6695  -23.6818   -2.1491 H   0  0  0  0  0  0  0  0  0  0  0  0
    8.1422  -24.6258   -3.2254 H   0  0  0  0  0  0  0  0  0  0  0  0
    6.8645  -25.8702   -3.4195 H   0  0  0  0  0  0  0  0  0  0  0  0
    5.8076  -23.1809   -3.8812 H   0  0  0  0  0  0  0  0  0  0  0  0
    7.2063  -23.5252   -4.9543 H   0  0  0  0  0  0  0  0  0  0  0  0
    5.7832  -24.6212   -4.9543 H   0  0  0  0  0  0  0  0  0  0  0  0
  1  2  1  0
  1  3  2  0
  1  4  1  0
  4  5  1  0
  5  8  1  0
  6  7  1  0
  6  8  1  0
  7  9  1  0
  9 10  1  0
 10 11  1  0
 11 12  1  0
 12 13  1  0
 13 14  1  0
 14 15  1  0
 15 16  1  0
 16 17  1  0
  4 18  1  0
  4 19  1  0
  5 20  1  0
  5 21  1  0
  6 22  1  0
  6 23  1  0
  7 24  1  0
  7 25  1  0
  8 26  1  0
  8 27  1  0
  9 28  1  0
  9 29  1  0
 10 30  1  0
 10 31  1  0
 11 32  1  0
 11 33  1  0
 12 34  1  0
 12 35  1  0
 13 36  1  0
 13 37  1  0
 14 38  1  0
 14 39  1  0
 15 40  1  0
 15 41  1  0
 16 42  1  0
 16 43  1  0
 17 44  1  0
 17 45  1  0
 17 46  1  0
M  CHG  1   2  -1
M  END
>  <filename_input>  (12) 
7WPW_F15_docked.sdf

>  <pdb_id>  (12) 
7WPW_F15

>  <pose_rank>  (12) 
11

>  <num_atoms_heavy>  (12) 
17

>  <num_torsions>  (12) 
13

>  <pose>  (12) 
[8.122071391673712, -19.131368358995616, -0.7030778496977345, -0.5258509191135324, -1.9880537774439053, 2.356313239407697, 6.715519566159461, -8.167298783326215, -3.469049879758704, -1.1418743116381562, 1.3224316984831646, 1.811908617902935, -0.6992917581110248, -5.592847125294031, 6.1146997538744765, 7.091382850650917, 0.060628269631481685, -0.06285090665535545, -0.34699319341136076]

>  <energy>  (12) 
-548.4589635725725

>  <inter_energy>  (12) 
-533.9340874735778

>  <intra_energy>  (12) 
0.10276184911608227

>  <rmsd>  (12) 
4.59744

>  <sdf_rank>  (12) 
0

$$$$

     RDKit          3D

 46 45  0  0  0  0  0  0  0  0999 V2000
    9.0140  -17.3866   -4.1903 C   0  0  0  0  0  0  0  0  0  0  0  0
   10.2507  -17.2921   -3.8927 O   0  0  0  0  0  0  0  0  0  0  0  0
    8.1008  -16.9018   -3.4829 O   0  0  0  0  0  0  0  0  0  0  0  0
    8.6679  -18.1083   -5.4642 C   0  0  0  0  0  0  0  0  0  0  0  0
    8.0635  -19.4656   -5.3259 C   0  0  0  0  0  0  0  0  0  0  0  0
    5.9428  -20.7647   -5.7287 C   0  0  0  0  0  0  0  0  0  0  0  0
    6.8504  -21.9803   -5.5973 C   0  0  0  0  0  0  0  0  0  0  0  0
    6.5490  -19.4869   -5.2143 C   0  0  0  0  0  0  0  0  0  0  0  0
    6.1861  -23.2445   -5.1344 C   0  0  0  0  0  0  0  0  0  0  0  0
    6.8701  -23.8651   -3.9518 C   0  0  0  0  0  0  0  0  0  0  0  0
    6.0692  -23.5691   -2.7028 C   0  0  0  0  0  0  0  0  0  0  0  0
    6.7172  -23.9234   -1.4171 C   0  0  0  0  0  0  0  0  0  0  0  0
    7.6052  -22.9024   -0.8613 C   0  0  0  0  0  0  0  0  0  0  0  0
    7.1168  -22.1767    0.3406 C   0  0  0  0  0  0  0  0  0  0  0  0
    6.5836  -20.8876   -0.1644 C   0  0  0  0  0  0  0  0  0  0  0  0
    7.5780  -19.7683   -0.3971 C   0  0  0  0  0  0  0  0  0  0  0  0
    6.8654  -18.4391   -0.2832 C   0  0  0  0  0  0  0  0  0  0  0  0
    7.9542  -17.4811   -6.0186 H   0  0  0  0  0  0  0  0  0  0  0  0
    9.6296  -18.2721   -5.9725 H   0  0  0  0  0  0  0  0  0  0  0  0
    8.3487  -20.0573   -6.2082 H   0  0  0  0  0  0  0  0  0  0  0  0
    8.4466  -19.8772   -4.3805 H   0  0  0  0  0  0  0  0  0  0  0  0
    5.7001  -20.6281   -6.7928 H   0  0  0  0  0  0  0  0  0  0  0  0
    5.0537  -20.9645   -5.1125 H   0  0  0  0  0  0  0  0  0  0  0  0
    7.2978  -22.1756   -6.5831 H   0  0  0  0  0  0  0  0  0  0  0  0
    7.5820  -21.7241   -4.8169 H   0  0  0  0  0  0  0  0  0  0  0  0
    6.2732  -19.3684   -4.1561 H   0  0  0  0  0  0  0  0  0  0  0  0
    6.1604  -18.6643   -5.8327 H   0  0  0  0  0  0  0  0  0  0  0  0
    5.1469  -23.0136   -4.8573 H   0  0  0  0  0  0  0  0  0  0  0  0
    6.2385  -23.9669   -5.9623 H   0  0  0  0  0  0  0  0  0  0  0  0
    6.9387  -24.9535   -4.0956 H   0  0  0  0  0  0  0  0  0  0  0  0
    7.8828  -23.4480   -3.8493 H   0  0  0  0  0  0  0  0  0  0  0  0
    5.8571  -22.4898   -2.6868 H   0  0  0  0  0  0  0  0  0  0  0  0
    5.1724  -24.2027   -2.7680 H   0  0  0  0  0  0  0  0  0  0  0  0
    5.9246  -24.1216   -0.6806 H   0  0  0  0  0  0  0  0  0  0  0  0
    7.3523  -24.7965   -1.6275 H   0  0  0  0  0  0  0  0  0  0  0  0
    8.5516  -23.3943   -0.5922 H   0  0  0  0  0  0  0  0  0  0  0  0
    7.6929  -22.1367   -1.6461 H   0  0  0  0  0  0  0  0  0  0  0  0
    6.3234  -22.7514    0.8407 H   0  0  0  0  0  0  0  0  0  0  0  0
    7.9175  -22.0257    1.0795 H   0  0  0  0  0  0  0  0  0  0  0  0
    6.0832  -21.0897   -1.1229 H   0  0  0  0  0  0  0  0  0  0  0  0
    5.9267  -20.5199    0.6376 H   0  0  0  0  0  0  0  0  0  0  0  0
    8.3770  -19.8232    0.3569 H   0  0  0  0  0  0  0  0  0  0  0  0
    8.0180  -19.8672   -1.4004 H   0  0  0  0  0  0  0  0  0  0  0  0
    6.7295  -18.1857    0.7785 H   0  0  0  0  0  0  0  0  0  0  0  0
    7.4657  -17.6581   -0.7727 H   0  0  0  0  0  0  0  0  0  0  0  0
    5.8826  -18.5069   -0.7727 H   0  0  0  0  0  0  0  0  0  0  0  0
  1  2  1  0
  1  3  2  0
  1  4  1  0
  4  5  1  0
  5  8  1  0
  6  7  1  0
  6  8  1  0
  7  9  1  0
  9 10  1  0
 10 11  1  0
 11 12  1  0
 12 13  1  0
 13 14  1  0
 14 15  1  0
 15 16  1  0
 16 17  1  0
  4 18  1  0
  4 19  1  0
  5 20  1  0
  5 21  1  0
  6 22  1  0
  6 23  1  0
  7 24  1  0
  7 25  1  0
  8 26  1  0
  8 27  1  0
  9 28  1  0
  9 29  1  0
 10 30  1  0
 10 31  1  0
 11 32  1  0
 11 33  1  0
 12 34  1  0
 12 35  1  0
 13 36  1  0
 13 37  1  0
 14 38  1  0
 14 39  1  0
 15 40  1  0
 15 41  1  0
 16 42  1  0
 16 43  1  0
 17 44  1  0
 17 45  1  0
 17 46  1  0
M  CHG  1   2  -1
M  END
>  <filename_input>  (13) 
7WPW_F15_docked.sdf

>  <pdb_id>  (13) 
7WPW_F15

>  <pose_rank>  (13) 
12

>  <num_atoms_heavy>  (13) 
17

>  <num_torsions>  (13) 
13

>  <pose>  (13) 
[6.186073075408674, -23.244514478790954, -5.134395813027305, 3.8693480917976055, -0.6485766249617585, -4.722215962046741, -1.1671006159149406, 3.382909695790615, 3.534176507772138, -0.6178937427667425, -1.5899243954744748, -1.4029476482777996, -1.2555273703288863, -5.942700106548624, -5.883540539990572, -4.966329589045119, 1.6692167494351549, 2.089804512809491, -1.1093489632695162]

>  <energy>  (13) 
-539.0402283145309

>  <inter_energy>  (13) 
-533.8176821143862

>  <intra_energy>  (13) 
0.6101593254699309

>  <rmsd>  (13) 
2.77546

>  <sdf_rank>  (13) 
0

$$$$

     RDKit          3D

 46 45  0  0  0  0  0  0  0  0999 V2000
    6.7024  -20.1257   -4.6473 C   0  0  0  0  0  0  0  0  0  0  0  0
    6.1922  -20.3357   -3.4973 O   0  0  0  0  0  0  0  0  0  0  0  0
    6.1054  -19.5070   -5.5584 O   0  0  0  0  0  0  0  0  0  0  0  0
    8.0938  -20.6459   -4.8860 C   0  0  0  0  0  0  0  0  0  0  0  0
    9.2115  -19.9015   -4.2355 C   0  0  0  0  0  0  0  0  0  0  0  0
    9.8125  -17.7343   -3.1000 C   0  0  0  0  0  0  0  0  0  0  0  0
    8.9238  -17.0447   -2.0737 C   0  0  0  0  0  0  0  0  0  0  0  0
    9.0575  -18.3907   -4.2243 C   0  0  0  0  0  0  0  0  0  0  0  0
    7.4704  -17.4188   -2.1117 C   0  0  0  0  0  0  0  0  0  0  0  0
    6.9617  -17.9225   -0.7929 C   0  0  0  0  0  0  0  0  0  0  0  0
    7.5802  -19.2728   -0.5049 C   0  0  0  0  0  0  0  0  0  0  0  0
    7.0588  -19.9847    0.6867 C   0  0  0  0  0  0  0  0  0  0  0  0
    7.3685  -21.4130    0.7479 C   0  0  0  0  0  0  0  0  0  0  0  0
    7.6188  -22.0971   -0.5478 C   0  0  0  0  0  0  0  0  0  0  0  0
    6.5606  -23.1308   -0.6611 C   0  0  0  0  0  0  0  0  0  0  0  0
    6.1985  -23.6041   -2.0541 C   0  0  0  0  0  0  0  0  0  0  0  0
    6.8068  -24.9688   -2.2888 C   0  0  0  0  0  0  0  0  0  0  0  0
    8.1283  -21.6832   -4.5216 H   0  0  0  0  0  0  0  0  0  0  0  0
    8.2623  -20.5311   -5.9670 H   0  0  0  0  0  0  0  0  0  0  0  0
    9.2882  -20.2442   -3.1930 H   0  0  0  0  0  0  0  0  0  0  0  0
   10.1103  -20.1139   -4.8331 H   0  0  0  0  0  0  0  0  0  0  0  0
   10.4897  -16.9825   -3.5313 H   0  0  0  0  0  0  0  0  0  0  0  0
   10.3489  -18.5343   -2.5686 H   0  0  0  0  0  0  0  0  0  0  0  0
    9.3096  -17.2908   -1.0734 H   0  0  0  0  0  0  0  0  0  0  0  0
    8.9628  -15.9726   -2.3169 H   0  0  0  0  0  0  0  0  0  0  0  0
    9.4324  -17.9924   -5.1787 H   0  0  0  0  0  0  0  0  0  0  0  0
    7.9899  -18.1683   -4.0797 H   0  0  0  0  0  0  0  0  0  0  0  0
    6.8869  -16.5309   -2.3968 H   0  0  0  0  0  0  0  0  0  0  0  0
    7.3587  -18.2342   -2.8415 H   0  0  0  0  0  0  0  0  0  0  0  0
    7.2370  -17.2144    0.0026 H   0  0  0  0  0  0  0  0  0  0  0  0
    5.8665  -18.0178   -0.8309 H   0  0  0  0  0  0  0  0  0  0  0  0
    7.4104  -19.9149   -1.3818 H   0  0  0  0  0  0  0  0  0  0  0  0
    8.6409  -19.0743   -0.2917 H   0  0  0  0  0  0  0  0  0  0  0  0
    7.4841  -19.5063    1.5813 H   0  0  0  0  0  0  0  0  0  0  0  0
    5.9627  -19.9139    0.6274 H   0  0  0  0  0  0  0  0  0  0  0  0
    8.2695  -21.5326    1.3677 H   0  0  0  0  0  0  0  0  0  0  0  0
    6.4643  -21.8881    1.1562 H   0  0  0  0  0  0  0  0  0  0  0  0
    7.5480  -21.3816   -1.3803 H   0  0  0  0  0  0  0  0  0  0  0  0
    8.6258  -22.5378   -0.5889 H   0  0  0  0  0  0  0  0  0  0  0  0
    6.8944  -24.0095   -0.0898 H   0  0  0  0  0  0  0  0  0  0  0  0
    5.6494  -22.6451   -0.2819 H   0  0  0  0  0  0  0  0  0  0  0  0
    5.1044  -23.6677   -2.1484 H   0  0  0  0  0  0  0  0  0  0  0  0
    6.5864  -22.8934   -2.7987 H   0  0  0  0  0  0  0  0  0  0  0  0
    7.0197  -25.4467   -1.3212 H   0  0  0  0  0  0  0  0  0  0  0  0
    6.1011  -25.5918   -2.8580 H   0  0  0  0  0  0  0  0  0  0  0  0
    7.7418  -24.8605   -2.8580 H   0  0  0  0  0  0  0  0  0  0  0  0
  1  2  1  0
  1  3  2  0
  1  4  1  0
  4  5  1  0
  5  8  1  0
  6  7  1  0
  6  8  1  0
  7  9  1  0
  9 10  1  0
 10 11  1  0
 11 12  1  0
 12 13  1  0
 13 14  1  0
 14 15  1  0
 15 16  1  0
 16 17  1  0
  4 18  1  0
  4 19  1  0
  5 20  1  0
  5 21  1  0
  6 22  1  0
  6 23  1  0
  7 24  1  0
  7 25  1  0
  8 26  1  0
  8 27  1  0
  9 28  1  0
  9 29  1  0
 10 30  1  0
 10 31  1  0
 11 32  1  0
 11 33  1  0
 12 34  1  0
 12 35  1  0
 13 36  1  0
 13 37  1  0
 14 38  1  0
 14 39  1  0
 15 40  1  0
 15 41  1  0
 16 42  1  0
 16 43  1  0
 17 44  1  0
 17 45  1  0
 17 46  1  0
M  CHG  1   2  -1
M  END
>  <filename_input>  (14) 
7WPW_F15_docked.sdf

>  <pdb_id>  (14) 
7WPW_F15

>  <pose_rank>  (14) 
13

>  <num_atoms_heavy>  (14) 
17

>  <num_torsions>  (14) 
13

>  <pose>  (14) 
[7.470359139394585, -17.41875781856822, -2.1116869787000505, -0.2455877388777926, -0.4855748754968661, -0.667768358010774, -3.0603362284923237, 7.534258286924777, 1.019420124344975, -0.576993607618097, 2.466184616142799, 1.717936411890911, 8.30142050294437, -5.98558203457266, 8.03574352990299, -7.290645763270248, 1.3402812653691953, -0.01832222579926791, -2.8834038625158542]

>  <energy>  (14) 
-532.7232553110018

>  <inter_energy>  (14) 
-518.2220346323029

>  <intra_energy>  (14) 
2.4208424896140874

>  <rmsd>  (14) 
4.59845

>  <sdf_rank>  (14) 
0

$$$$

     RDKit          3D

 46 45  0  0  0  0  0  0  0  0999 V2000
    7.0622  -21.0412   -5.6679 C   0  0  0  0  0  0  0  0  0  0  0  0
    7.7939  -20.0230   -5.4338 O   0  0  0  0  0  0  0  0  0  0  0  0
    6.4109  -21.1869   -6.7281 O   0  0  0  0  0  0  0  0  0  0  0  0
    7.0099  -22.1071   -4.6074 C   0  0  0  0  0  0  0  0  0  0  0  0
    7.0578  -23.5237   -5.0741 C   0  0  0  0  0  0  0  0  0  0  0  0
    7.6813  -24.3491   -2.7769 C   0  0  0  0  0  0  0  0  0  0  0  0
    6.8965  -24.2056   -1.4798 C   0  0  0  0  0  0  0  0  0  0  0  0
    6.8227  -24.5650   -3.9939 C   0  0  0  0  0  0  0  0  0  0  0  0
    5.8332  -23.1458   -1.4737 C   0  0  0  0  0  0  0  0  0  0  0  0
    5.6979  -22.4612   -0.1452 C   0  0  0  0  0  0  0  0  0  0  0  0
    7.0687  -22.3069    0.4760 C   0  0  0  0  0  0  0  0  0  0  0  0
    7.8164  -21.0822    0.1024 C   0  0  0  0  0  0  0  0  0  0  0  0
    7.0205  -20.0322   -0.5332 C   0  0  0  0  0  0  0  0  0  0  0  0
    7.7434  -18.7952   -0.9294 C   0  0  0  0  0  0  0  0  0  0  0  0
    6.8351  -17.6759   -0.5783 C   0  0  0  0  0  0  0  0  0  0  0  0
    6.2583  -16.8651   -1.7209 C   0  0  0  0  0  0  0  0  0  0  0  0
    5.3189  -15.8192   -1.1633 C   0  0  0  0  0  0  0  0  0  0  0  0
    7.8657  -21.9493   -3.9346 H   0  0  0  0  0  0  0  0  0  0  0  0
    6.0237  -21.9935   -4.1336 H   0  0  0  0  0  0  0  0  0  0  0  0
    6.2863  -23.6542   -5.8472 H   0  0  0  0  0  0  0  0  0  0  0  0
    8.0803  -23.6905   -5.4437 H   0  0  0  0  0  0  0  0  0  0  0  0
    8.2701  -23.4323   -2.9277 H   0  0  0  0  0  0  0  0  0  0  0  0
    8.3104  -25.2451   -2.6695 H   0  0  0  0  0  0  0  0  0  0  0  0
    6.4123  -25.1707   -1.2697 H   0  0  0  0  0  0  0  0  0  0  0  0
    7.6295  -23.8979   -0.7195 H   0  0  0  0  0  0  0  0  0  0  0  0
    5.7663  -24.5236   -3.6901 H   0  0  0  0  0  0  0  0  0  0  0  0
    7.0885  -25.5453   -4.4163 H   0  0  0  0  0  0  0  0  0  0  0  0
    6.0856  -22.3912   -2.2332 H   0  0  0  0  0  0  0  0  0  0  0  0
    4.8742  -23.6395   -1.6895 H   0  0  0  0  0  0  0  0  0  0  0  0
    5.2442  -21.4692   -0.2869 H   0  0  0  0  0  0  0  0  0  0  0  0
    5.0573  -23.0621    0.5170 H   0  0  0  0  0  0  0  0  0  0  0  0
    6.9449  -22.3055    1.5690 H   0  0  0  0  0  0  0  0  0  0  0  0
    7.6651  -23.1477    0.0921 H   0  0  0  0  0  0  0  0  0  0  0  0
    8.2620  -20.6639    1.0170 H   0  0  0  0  0  0  0  0  0  0  0  0
    8.5587  -21.3960   -0.6463 H   0  0  0  0  0  0  0  0  0  0  0  0
    6.5686  -20.4594   -1.4406 H   0  0  0  0  0  0  0  0  0  0  0  0
    6.2983  -19.7128    0.2325 H   0  0  0  0  0  0  0  0  0  0  0  0
    8.6905  -18.7096   -0.3766 H   0  0  0  0  0  0  0  0  0  0  0  0
    7.9961  -18.7953   -2.0000 H   0  0  0  0  0  0  0  0  0  0  0  0
    5.9910  -18.0996   -0.0145 H   0  0  0  0  0  0  0  0  0  0  0  0
    7.4631  -16.9676   -0.0179 H   0  0  0  0  0  0  0  0  0  0  0  0
    7.0736  -16.3719   -2.2705 H   0  0  0  0  0  0  0  0  0  0  0  0
    5.7088  -17.5287   -2.4048 H   0  0  0  0  0  0  0  0  0  0  0  0
    5.3467  -15.8501   -0.0640 H   0  0  0  0  0  0  0  0  0  0  0  0
    5.6316  -14.8232   -1.5101 H   0  0  0  0  0  0  0  0  0  0  0  0
    4.2952  -16.0235   -1.5101 H   0  0  0  0  0  0  0  0  0  0  0  0
  1  2  1  0
  1  3  2  0
  1  4  1  0
  4  5  1  0
  5  8  1  0
  6  7  1  0
  6  8  1  0
  7  9  1  0
  9 10  1  0
 10 11  1  0
 11 12  1  0
 12 13  1  0
 13 14  1  0
 14 15  1  0
 15 16  1  0
 16 17  1  0
  4 18  1  0
  4 19  1  0
  5 20  1  0
  5 21  1  0
  6 22  1  0
  6 23  1  0
  7 24  1  0
  7 25  1  0
  8 26  1  0
  8 27  1  0
  9 28  1  0
  9 29  1  0
 10 30  1  0
 10 31  1  0
 11 32  1  0
 11 33  1  0
 12 34  1  0
 12 35  1  0
 13 36  1  0
 13 37  1  0
 14 38  1  0
 14 39  1  0
 15 40  1  0
 15 41  1  0
 16 42  1  0
 16 43  1  0
 17 44  1  0
 17 45  1  0
 17 46  1  0
M  CHG  1   2  -1
M  END
>  <filename_input>  (15) 
7WPW_F15_docked.sdf

>  <pdb_id>  (15) 
7WPW_F15

>  <pose_rank>  (15) 
14

>  <num_atoms_heavy>  (15) 
17

>  <num_torsions>  (15) 
13

>  <pose>  (15) 
[5.833218627165413, -23.1457946272506, -1.4736651364519804, -1.102571520311781, -0.33894989960964117, -1.4750925343399188, -7.7515403476482, -18.825586452559797, -19.952631552533468, -10.434423847672596, 6.417098834580388, 0.6018876018121634, 3.8729938184511337, -1.4370367377941489, -0.8401046415330282, 2.582318722348631, 0.9728296602116426, 1.564414758139862, 4.683766599862923]

>  <energy>  (15) 
-532.0666822342384

>  <inter_energy>  (15) 
-507.7135530821872

>  <intra_energy>  (15) 
7.032550829382263

>  <rmsd>  (15) 
5.52521

>  <sdf_rank>  (15) 
0

$$$$

     RDKit          3D

 46 45  0  0  0  0  0  0  0  0999 V2000
    7.6037  -22.5726   -4.8600 C   0  0  0  0  0  0  0  0  0  0  0  0
    7.1054  -23.6702   -5.2770 O   0  0  0  0  0  0  0  0  0  0  0  0
    8.5622  -22.5181   -4.0552 O   0  0  0  0  0  0  0  0  0  0  0  0
    6.9992  -21.3002   -5.3881 C   0  0  0  0  0  0  0  0  0  0  0  0
    6.9820  -20.1289   -4.4637 C   0  0  0  0  0  0  0  0  0  0  0  0
    8.5429  -18.5061   -3.3335 C   0  0  0  0  0  0  0  0  0  0  0  0
    7.8553  -19.0838   -2.1038 C   0  0  0  0  0  0  0  0  0  0  0  0
    8.1431  -19.1637   -4.6268 C   0  0  0  0  0  0  0  0  0  0  0  0
    7.3783  -18.0831   -1.0916 C   0  0  0  0  0  0  0  0  0  0  0  0
    6.9029  -18.7201    0.1812 C   0  0  0  0  0  0  0  0  0  0  0  0
    6.1484  -19.9889   -0.1500 C   0  0  0  0  0  0  0  0  0  0  0  0
    6.4883  -21.1783    0.6675 C   0  0  0  0  0  0  0  0  0  0  0  0
    7.8807  -21.6188    0.5831 C   0  0  0  0  0  0  0  0  0  0  0  0
    8.1080  -23.0609    0.3031 C   0  0  0  0  0  0  0  0  0  0  0  0
    6.7991  -23.5863   -0.1572 C   0  0  0  0  0  0  0  0  0  0  0  0
    6.7432  -24.1919   -1.5450 C   0  0  0  0  0  0  0  0  0  0  0  0
    7.9623  -25.0616   -1.7569 C   0  0  0  0  0  0  0  0  0  0  0  0
    7.5671  -21.0087   -6.2839 H   0  0  0  0  0  0  0  0  0  0  0  0
    5.9408  -21.5384   -5.5703 H   0  0  0  0  0  0  0  0  0  0  0  0
    6.0490  -19.5723   -4.6359 H   0  0  0  0  0  0  0  0  0  0  0  0
    7.0651  -20.5396   -3.4466 H   0  0  0  0  0  0  0  0  0  0  0  0
    8.2937  -17.4366   -3.3982 H   0  0  0  0  0  0  0  0  0  0  0  0
    9.6210  -18.6841   -3.2072 H   0  0  0  0  0  0  0  0  0  0  0  0
    6.9832  -19.6611   -2.4447 H   0  0  0  0  0  0  0  0  0  0  0  0
    8.6185  -19.6873   -1.5906 H   0  0  0  0  0  0  0  0  0  0  0  0
    9.0077  -19.7178   -5.0210 H   0  0  0  0  0  0  0  0  0  0  0  0
    7.8183  -18.3693   -5.3150 H   0  0  0  0  0  0  0  0  0  0  0  0
    8.2082  -17.4013   -0.8540 H   0  0  0  0  0  0  0  0  0  0  0  0
    6.5234  -17.5496   -1.5327 H   0  0  0  0  0  0  0  0  0  0  0  0
    7.7673  -18.9613    0.8172 H   0  0  0  0  0  0  0  0  0  0  0  0
    6.2402  -18.0250    0.7177 H   0  0  0  0  0  0  0  0  0  0  0  0
    5.0751  -19.7862   -0.0196 H   0  0  0  0  0  0  0  0  0  0  0  0
    6.4356  -20.2448   -1.1805 H   0  0  0  0  0  0  0  0  0  0  0  0
    6.2702  -20.9412    1.7192 H   0  0  0  0  0  0  0  0  0  0  0  0
    5.8833  -22.0052    0.2669 H   0  0  0  0  0  0  0  0  0  0  0  0
    8.3646  -21.0429   -0.2195 H   0  0  0  0  0  0  0  0  0  0  0  0
    8.2992  -21.4492    1.5861 H   0  0  0  0  0  0  0  0  0  0  0  0
    8.8693  -23.1849   -0.4810 H   0  0  0  0  0  0  0  0  0  0  0  0
    8.4731  -23.5966    1.1918 H   0  0  0  0  0  0  0  0  0  0  0  0
    6.4858  -24.3635    0.5554 H   0  0  0  0  0  0  0  0  0  0  0  0
    6.1425  -22.7052   -0.2067 H   0  0  0  0  0  0  0  0  0  0  0  0
    5.8337  -24.8027   -1.6436 H   0  0  0  0  0  0  0  0  0  0  0  0
    6.7255  -23.3901   -2.2979 H   0  0  0  0  0  0  0  0  0  0  0  0
    8.3761  -25.3569   -0.7815 H   0  0  0  0  0  0  0  0  0  0  0  0
    7.6770  -25.9614   -2.3217 H   0  0  0  0  0  0  0  0  0  0  0  0
    8.7203  -24.4991   -2.3217 H   0  0  0  0  0  0  0  0  0  0  0  0
  1  2  1  0
  1  3  2  0
  1  4  1  0
  4  5  1  0
  5  8  1  0
  6  7  1  0
  6  8  1  0
  7  9  1  0
  9 10  1  0
 10 11  1  0
 11 12  1  0
 12 13  1  0
 13 14  1  0
 14 15  1  0
 15 16  1  0
 16 17  1  0
  4 18  1  0
  4 19  1  0
  5 20  1  0
  5 21  1  0
  6 22  1  0
  6 23  1  0
  7 24  1  0
  7 25  1  0
  8 26  1  0
  8 27  1  0
  9 28  1  0
  9 29  1  0
 10 30  1  0
 10 31  1  0
 11 32  1  0
 11 33  1  0
 12 34  1  0
 12 35  1  0
 13 36  1  0
 13 37  1  0
 14 38  1  0
 14 39  1  0
 15 40  1  0
 15 41  1  0
 16 42  1  0
 16 43  1  0
 17 44  1  0
 17 45  1  0
 17 46  1  0
M  CHG  1   2  -1
M  END
>  <filename_input>  (16) 
7WPW_F15_docked.sdf

>  <pdb_id>  (16) 
7WPW_F15

>  <pose_rank>  (16) 
15

>  <num_atoms_heavy>  (16) 
17

>  <num_torsions>  (16) 
13

>  <pose>  (16) 
[7.378255134222593, -18.08305035456504, -1.0915656739515338, 0.3564896331605767, -1.270273173331811, 4.0130881215757706, -8.220446163226825, -1.4291807291479561, -15.672241287416428, -12.142487150305046, -7.75645578679061, -0.7017413678845142, -3.7343535407284647, -44.60653423926353, -46.14197753338236, -9.116435139655929, 22.499533847787024, 5.641558080103842, -3.948990771327514]

>  <energy>  (16) 
-494.0331463667037

>  <inter_energy>  (16) 
-499.6730748688777

>  <intra_energy>  (16) 
2.6736616583695385

>  <rmsd>  (16) 
5.00644

>  <sdf_rank>  (16) 
0

$$$$

     RDKit          3D

 46 45  0  0  0  0  0  0  0  0999 V2000
    6.6485  -16.6554   -1.5329 C   0  0  0  0  0  0  0  0  0  0  0  0
    7.3485  -16.1994   -0.5691 O   0  0  0  0  0  0  0  0  0  0  0  0
    5.5075  -16.2219   -1.8150 O   0  0  0  0  0  0  0  0  0  0  0  0
    7.2544  -17.7560   -2.3604 C   0  0  0  0  0  0  0  0  0  0  0  0
    6.9208  -17.7662   -3.8148 C   0  0  0  0  0  0  0  0  0  0  0  0
    5.9370  -18.9941   -5.7825 C   0  0  0  0  0  0  0  0  0  0  0  0
    7.1580  -19.3088   -6.6362 C   0  0  0  0  0  0  0  0  0  0  0  0
    6.2018  -19.0125   -4.3011 C   0  0  0  0  0  0  0  0  0  0  0  0
    7.7594  -20.6702   -6.4394 C   0  0  0  0  0  0  0  0  0  0  0  0
    9.0119  -20.6421   -5.6135 C   0  0  0  0  0  0  0  0  0  0  0  0
    8.6712  -20.9957   -4.1824 C   0  0  0  0  0  0  0  0  0  0  0  0
    7.4773  -21.8543   -3.9926 C   0  0  0  0  0  0  0  0  0  0  0  0
    7.2176  -22.2694   -2.6142 C   0  0  0  0  0  0  0  0  0  0  0  0
    5.9992  -23.0891   -2.3831 C   0  0  0  0  0  0  0  0  0  0  0  0
    6.4815  -24.4851   -2.2431 C   0  0  0  0  0  0  0  0  0  0  0  0
    7.9795  -24.7094   -2.2814 C   0  0  0  0  0  0  0  0  0  0  0  0
    8.2567  -26.1899   -2.4182 C   0  0  0  0  0  0  0  0  0  0  0  0
    8.3478  -17.6766   -2.2704 H   0  0  0  0  0  0  0  0  0  0  0  0
    6.8252  -18.6864   -1.9603 H   0  0  0  0  0  0  0  0  0  0  0  0
    6.2777  -16.8984   -4.0232 H   0  0  0  0  0  0  0  0  0  0  0  0
    7.8813  -17.7376   -4.3501 H   0  0  0  0  0  0  0  0  0  0  0  0
    5.5730  -17.9928   -6.0559 H   0  0  0  0  0  0  0  0  0  0  0  0
    5.1980  -19.7840   -5.9824 H   0  0  0  0  0  0  0  0  0  0  0  0
    6.8636  -19.2193   -7.6923 H   0  0  0  0  0  0  0  0  0  0  0  0
    7.9326  -18.5922   -6.3256 H   0  0  0  0  0  0  0  0  0  0  0  0
    6.8221  -19.8899   -4.0661 H   0  0  0  0  0  0  0  0  0  0  0  0
    5.2277  -19.0521   -3.7917 H   0  0  0  0  0  0  0  0  0  0  0  0
    7.0207  -21.3104   -5.9350 H   0  0  0  0  0  0  0  0  0  0  0  0
    8.0281  -21.0588   -7.4328 H   0  0  0  0  0  0  0  0  0  0  0  0
    9.7317  -21.3724   -6.0116 H   0  0  0  0  0  0  0  0  0  0  0  0
    9.4567  -19.6368   -5.6502 H   0  0  0  0  0  0  0  0  0  0  0  0
    9.5358  -21.5209   -3.7504 H   0  0  0  0  0  0  0  0  0  0  0  0
    8.4324  -20.0417   -3.6896 H   0  0  0  0  0  0  0  0  0  0  0  0
    6.5986  -21.2982   -4.3512 H   0  0  0  0  0  0  0  0  0  0  0  0
    7.6749  -22.7782   -4.5559 H   0  0  0  0  0  0  0  0  0  0  0  0
    8.0836  -22.8560   -2.2737 H   0  0  0  0  0  0  0  0  0  0  0  0
    7.0482  -21.3358   -2.0577 H   0  0  0  0  0  0  0  0  0  0  0  0
    5.4866  -22.7656   -1.4652 H   0  0  0  0  0  0  0  0  0  0  0  0
    5.2768  -22.9875   -3.2063 H   0  0  0  0  0  0  0  0  0  0  0  0
    6.1148  -24.8663   -1.2786 H   0  0  0  0  0  0  0  0  0  0  0  0
    6.0946  -25.0081   -3.1301 H   0  0  0  0  0  0  0  0  0  0  0  0
    8.4100  -24.1735   -3.1402 H   0  0  0  0  0  0  0  0  0  0  0  0
    8.4338  -24.3323   -1.3533 H   0  0  0  0  0  0  0  0  0  0  0  0
    8.3412  -26.6410   -1.4185 H   0  0  0  0  0  0  0  0  0  0  0  0
    7.4325  -26.6681   -2.9678 H   0  0  0  0  0  0  0  0  0  0  0  0
    9.1981  -26.3374   -2.9678 H   0  0  0  0  0  0  0  0  0  0  0  0
  1  2  1  0
  1  3  2  0
  1  4  1  0
  4  5  1  0
  5  8  1  0
  6  7  1  0
  6  8  1  0
  7  9  1  0
  9 10  1  0
 10 11  1  0
 11 12  1  0
 12 13  1  0
 13 14  1  0
 14 15  1  0
 15 16  1  0
 16 17  1  0
  4 18  1  0
  4 19  1  0
  5 20  1  0
  5 21  1  0
  6 22  1  0
  6 23  1  0
  7 24  1  0
  7 25  1  0
  8 26  1  0
  8 27  1  0
  9 28  1  0
  9 29  1  0
 10 30  1  0
 10 31  1  0
 11 32  1  0
 11 33  1  0
 12 34  1  0
 12 35  1  0
 13 36  1  0
 13 37  1  0
 14 38  1  0
 14 39  1  0
 15 40  1  0
 15 41  1  0
 16 42  1  0
 16 43  1  0
 17 44  1  0
 17 45  1  0
 17 46  1  0
M  CHG  1   2  -1
M  END
>  <filename_input>  (17) 
7WPW_F15_docked.sdf

>  <pdb_id>  (17) 
7WPW_F15

>  <pose_rank>  (17) 
16

>  <num_atoms_heavy>  (17) 
17

>  <num_torsions>  (17) 
13

>  <pose>  (17) 
[7.759406817047133, -20.670159572023753, -6.439433439557743, 0.12112328714870202, 0.25042427569394177, 0.9497309915406167, -0.7471876622451036, -4.228860895362364, 4.37141842618398, -0.09624480731603702, 1.0626812071538605, 0.4695194015330593, 4.936108347817553, 10.073047077806539, -4.316578965825296, -3.747307090981586, -13.667817234411011, 3.6004741537415725, -1.3503492142046527]

>  <energy>  (17) 
-404.5059745629373

>  <inter_energy>  (17) 
-436.0757073454257

>  <intra_energy>  (17) 
34.756237944903205

>  <rmsd>  (17) 
2.59003

>  <sdf_rank>  (17) 
0

$$$$

     RDKit          3D

 46 45  0  0  0  0  0  0  0  0999 V2000
    7.0967  -22.9219   -1.4474 C   0  0  0  0  0  0  0  0  0  0  0  0
    6.3038  -23.5225   -0.6489 O   0  0  0  0  0  0  0  0  0  0  0  0
    7.2046  -23.2215   -2.6590 O   0  0  0  0  0  0  0  0  0  0  0  0
    7.9181  -21.7959   -0.8810 C   0  0  0  0  0  0  0  0  0  0  0  0
    7.1737  -20.5945   -0.4022 C   0  0  0  0  0  0  0  0  0  0  0  0
    6.7676  -18.1136   -0.5681 C   0  0  0  0  0  0  0  0  0  0  0  0
    6.7621  -16.9031   -1.4919 C   0  0  0  0  0  0  0  0  0  0  0  0
    7.5221  -19.2973   -1.1109 C   0  0  0  0  0  0  0  0  0  0  0  0
    5.9858  -17.0584   -2.7675 C   0  0  0  0  0  0  0  0  0  0  0  0
    6.8093  -16.7801   -3.9906 C   0  0  0  0  0  0  0  0  0  0  0  0
    6.2125  -17.5168   -5.1695 C   0  0  0  0  0  0  0  0  0  0  0  0
    6.9609  -18.7085   -5.6367 C   0  0  0  0  0  0  0  0  0  0  0  0
    6.8777  -19.8810   -4.7659 C   0  0  0  0  0  0  0  0  0  0  0  0
    8.0918  -20.7343   -4.6789 C   0  0  0  0  0  0  0  0  0  0  0  0
    8.9597  -20.3044   -5.8027 C   0  0  0  0  0  0  0  0  0  0  0  0
   10.0194  -19.2637   -5.5028 C   0  0  0  0  0  0  0  0  0  0  0  0
    9.9215  -18.1479   -6.5191 C   0  0  0  0  0  0  0  0  0  0  0  0
    8.4880  -22.1955   -0.0292 H   0  0  0  0  0  0  0  0  0  0  0  0
    8.5329  -21.4379   -1.7200 H   0  0  0  0  0  0  0  0  0  0  0  0
    6.0987  -20.7814   -0.5420 H   0  0  0  0  0  0  0  0  0  0  0  0
    7.4604  -20.4554    0.6507 H   0  0  0  0  0  0  0  0  0  0  0  0
    7.2286  -17.8180    0.3859 H   0  0  0  0  0  0  0  0  0  0  0  0
    5.7204  -18.4302   -0.4539 H   0  0  0  0  0  0  0  0  0  0  0  0
    6.3325  -16.0565   -0.9363 H   0  0  0  0  0  0  0  0  0  0  0  0
    7.8088  -16.7540   -1.7954 H   0  0  0  0  0  0  0  0  0  0  0  0
    8.5997  -19.1110   -0.9928 H   0  0  0  0  0  0  0  0  0  0  0  0
    7.2405  -19.4122   -2.1680 H   0  0  0  0  0  0  0  0  0  0  0  0
    5.6090  -18.0902   -2.8255 H   0  0  0  0  0  0  0  0  0  0  0  0
    5.1672  -16.3238   -2.7469 H   0  0  0  0  0  0  0  0  0  0  0  0
    6.8114  -15.6992   -4.1948 H   0  0  0  0  0  0  0  0  0  0  0  0
    7.8424  -17.1205   -3.8262 H   0  0  0  0  0  0  0  0  0  0  0  0
    5.2015  -17.8442   -4.8852 H   0  0  0  0  0  0  0  0  0  0  0  0
    6.2353  -16.8045   -6.0074 H   0  0  0  0  0  0  0  0  0  0  0  0
    6.5680  -18.9906   -6.6246 H   0  0  0  0  0  0  0  0  0  0  0  0
    8.0210  -18.4152   -5.6507 H   0  0  0  0  0  0  0  0  0  0  0  0
    6.6457  -19.5267   -3.7507 H   0  0  0  0  0  0  0  0  0  0  0  0
    6.1052  -20.5218   -5.2162 H   0  0  0  0  0  0  0  0  0  0  0  0
    8.6028  -20.5790   -3.7172 H   0  0  0  0  0  0  0  0  0  0  0  0
    7.8439  -21.8043   -4.7409 H   0  0  0  0  0  0  0  0  0  0  0  0
    9.4737  -21.1989   -6.1843 H   0  0  0  0  0  0  0  0  0  0  0  0
    8.2784  -19.8168   -6.5154 H   0  0  0  0  0  0  0  0  0  0  0  0
    9.8604  -18.8569   -4.4932 H   0  0  0  0  0  0  0  0  0  0  0  0
   11.0164  -19.7254   -5.5554 H   0  0  0  0  0  0  0  0  0  0  0  0
    9.8369  -17.1832   -5.9975 H   0  0  0  0  0  0  0  0  0  0  0  0
   10.8229  -18.1461   -7.1495 H   0  0  0  0  0  0  0  0  0  0  0  0
    9.0335  -18.3030   -7.1495 H   0  0  0  0  0  0  0  0  0  0  0  0
  1  2  1  0
  1  3  2  0
  1  4  1  0
  4  5  1  0
  5  8  1  0
  6  7  1  0
  6  8  1  0
  7  9  1  0
  9 10  1  0
 10 11  1  0
 11 12  1  0
 12 13  1  0
 13 14  1  0
 14 15  1  0
 15 16  1  0
 16 17  1  0
  4 18  1  0
  4 19  1  0
  5 20  1  0
  5 21  1  0
  6 22  1  0
  6 23  1  0
  7 24  1  0
  7 25  1  0
  8 26  1  0
  8 27  1  0
  9 28  1  0
  9 29  1  0
 10 30  1  0
 10 31  1  0
 11 32  1  0
 11 33  1  0
 12 34  1  0
 12 35  1  0
 13 36  1  0
 13 37  1  0
 14 38  1  0
 14 39  1  0
 15 40  1  0
 15 41  1  0
 16 42  1  0
 16 43  1  0
 17 44  1  0
 17 45  1  0
 17 46  1  0
M  CHG  1   2  -1
M  END
>  <filename_input>  (18) 
7WPW_F15_docked.sdf

>  <pdb_id>  (18) 
7WPW_F15

>  <pose_rank>  (18) 
17

>  <num_atoms_heavy>  (18) 
17

>  <num_torsions>  (18) 
13

>  <pose>  (18) 
[5.9857622414781835, -17.05836439562919, -2.7674649672243157, 2.1186510251891715, 0.845221686608165, 0.5984688993873953, -7.405717687627671, 8.447690290114723, 6.472539545987688, -0.11132353613645374, 1.0583707900484132, 1.8802625129655242, -0.3481316310805563, -4.824687575279803, 0.1738505325644331, 3.1819877475796257, -3.122761573303827, -1.0933116879103015, -0.6762370446284895]

>  <energy>  (18) 
-419.3280679783771

>  <inter_energy>  (18) 
-450.8923773804814

>  <intra_energy>  (18) 
31.19913438017118

>  <rmsd>  (18) 
6.09752

>  <sdf_rank>  (18) 
0

$$$$

     RDKit          3D

 46 45  0  0  0  0  0  0  0  0999 V2000
    5.6279  -16.5249   -1.5431 C   0  0  0  0  0  0  0  0  0  0  0  0
    4.9612  -15.4376   -1.5485 O   0  0  0  0  0  0  0  0  0  0  0  0
    5.9643  -17.1163   -0.4912 O   0  0  0  0  0  0  0  0  0  0  0  0
    6.0016  -17.1075   -2.8789 C   0  0  0  0  0  0  0  0  0  0  0  0
    6.9155  -18.2869   -2.8669 C   0  0  0  0  0  0  0  0  0  0  0  0
    6.5790  -19.6629   -4.9504 C   0  0  0  0  0  0  0  0  0  0  0  0
    6.4902  -21.0326   -4.2910 C   0  0  0  0  0  0  0  0  0  0  0  0
    7.4661  -18.6878   -4.2244 C   0  0  0  0  0  0  0  0  0  0  0  0
    7.6004  -21.3726   -3.3393 C   0  0  0  0  0  0  0  0  0  0  0  0
    7.1594  -21.3793   -1.9050 C   0  0  0  0  0  0  0  0  0  0  0  0
    7.2341  -22.7921   -1.3690 C   0  0  0  0  0  0  0  0  0  0  0  0
    6.2616  -23.7551   -1.9397 C   0  0  0  0  0  0  0  0  0  0  0  0
    6.7133  -25.1455   -1.9898 C   0  0  0  0  0  0  0  0  0  0  0  0
    7.3339  -25.5995   -3.2620 C   0  0  0  0  0  0  0  0  0  0  0  0
    8.7749  -25.7790   -2.9580 C   0  0  0  0  0  0  0  0  0  0  0  0
    9.2388  -27.1742   -2.5920 C   0  0  0  0  0  0  0  0  0  0  0  0
    9.4407  -27.9784   -3.8570 C   0  0  0  0  0  0  0  0  0  0  0  0
    5.0715  -17.4124   -3.3809 H   0  0  0  0  0  0  0  0  0  0  0  0
    6.5635  -16.3132   -3.3921 H   0  0  0  0  0  0  0  0  0  0  0  0
    7.7659  -18.0527   -2.2097 H   0  0  0  0  0  0  0  0  0  0  0  0
    6.3133  -19.1382   -2.5166 H   0  0  0  0  0  0  0  0  0  0  0  0
    6.9719  -19.7948   -5.9693 H   0  0  0  0  0  0  0  0  0  0  0  0
    5.5642  -19.2385   -4.9380 H   0  0  0  0  0  0  0  0  0  0  0  0
    5.5426  -21.0785   -3.7343 H   0  0  0  0  0  0  0  0  0  0  0  0
    6.5640  -21.7637   -5.1096 H   0  0  0  0  0  0  0  0  0  0  0  0
    7.5725  -17.7833   -4.8413 H   0  0  0  0  0  0  0  0  0  0  0  0
    8.4335  -19.1835   -4.0554 H   0  0  0  0  0  0  0  0  0  0  0  0
    7.9861  -22.3712   -3.5925 H   0  0  0  0  0  0  0  0  0  0  0  0
    8.3731  -20.5965   -3.4432 H   0  0  0  0  0  0  0  0  0  0  0  0
    7.8186  -20.7262   -1.3143 H   0  0  0  0  0  0  0  0  0  0  0  0
    6.1253  -21.0110   -1.8343 H   0  0  0  0  0  0  0  0  0  0  0  0
    8.2453  -23.1756   -1.5701 H   0  0  0  0  0  0  0  0  0  0  0  0
    6.9858  -22.7177   -0.3000 H   0  0  0  0  0  0  0  0  0  0  0  0
    5.3475  -23.7167   -1.3291 H   0  0  0  0  0  0  0  0  0  0  0  0
    6.1075  -23.4479   -2.9846 H   0  0  0  0  0  0  0  0  0  0  0  0
    7.4546  -25.2844   -1.1890 H   0  0  0  0  0  0  0  0  0  0  0  0
    5.8011  -25.7503   -1.8807 H   0  0  0  0  0  0  0  0  0  0  0  0
    6.8886  -26.5506   -3.5890 H   0  0  0  0  0  0  0  0  0  0  0  0
    7.1754  -24.8753   -4.0746 H   0  0  0  0  0  0  0  0  0  0  0  0
    9.3418  -25.4647   -3.8467 H   0  0  0  0  0  0  0  0  0  0  0  0
    8.9503  -25.1768   -2.0544 H   0  0  0  0  0  0  0  0  0  0  0  0
   10.1879  -27.1133   -2.0392 H   0  0  0  0  0  0  0  0  0  0  0  0
    8.4815  -27.6620   -1.9607 H   0  0  0  0  0  0  0  0  0  0  0  0
    9.7009  -29.0146   -3.5951 H   0  0  0  0  0  0  0  0  0  0  0  0
    8.5129  -27.9714   -4.4479 H   0  0  0  0  0  0  0  0  0  0  0  0
   10.2551  -27.5339   -4.4479 H   0  0  0  0  0  0  0  0  0  0  0  0
  1  2  1  0
  1  3  2  0
  1  4  1  0
  4  5  1  0
  5  8  1  0
  6  7  1  0
  6  8  1  0
  7  9  1  0
  9 10  1  0
 10 11  1  0
 11 12  1  0
 12 13  1  0
 13 14  1  0
 14 15  1  0
 15 16  1  0
 16 17  1  0
  4 18  1  0
  4 19  1  0
  5 20  1  0
  5 21  1  0
  6 22  1  0
  6 23  1  0
  7 24  1  0
  7 25  1  0
  8 26  1  0
  8 27  1  0
  9 28  1  0
  9 29  1  0
 10 30  1  0
 10 31  1  0
 11 32  1  0
 11 33  1  0
 12 34  1  0
 12 35  1  0
 13 36  1  0
 13 37  1  0
 14 38  1  0
 14 39  1  0
 15 40  1  0
 15 41  1  0
 16 42  1  0
 16 43  1  0
 17 44  1  0
 17 45  1  0
 17 46  1  0
M  CHG  1   2  -1
M  END
>  <filename_input>  (19) 
7WPW_F15_docked.sdf

>  <pdb_id>  (19) 
7WPW_F15

>  <pose_rank>  (19) 
18

>  <num_atoms_heavy>  (19) 
17

>  <num_torsions>  (19) 
13

>  <pose>  (19) 
[7.600442718454557, -21.37258773105009, -3.3393396678024128, -0.18485013486416693, -1.050577380423388, 2.0861603445494485, -9.61815232511663, 6.910520952664218, 1.858858216124371, 1.4566018313099371, 0.18614066089246778, -0.25204529164487705, -7.358772292148473, 2.1275170384841178, 1.5179520909123618, -2.2147477672113056, -0.9690184483526283, -1.0770797499552098, -3.280702554298371]

>  <energy>  (19) 
-502.2790558286172

>  <inter_energy>  (19) 
-521.9974613463338

>  <intra_energy>  (19) 
23.091110295165805

>  <rmsd>  (19) 
3.32449

>  <sdf_rank>  (19) 
0

$$$$

     RDKit          3D

 46 45  0  0  0  0  0  0  0  0999 V2000
    6.6012  -23.3952    0.0539 C   0  0  0  0  0  0  0  0  0  0  0  0
    7.1177  -23.7196    1.1741 O   0  0  0  0  0  0  0  0  0  0  0  0
    6.9530  -23.9046   -1.0352 O   0  0  0  0  0  0  0  0  0  0  0  0
    5.5108  -22.3589    0.0755 C   0  0  0  0  0  0  0  0  0  0  0  0
    5.5543  -21.3589    1.1822 C   0  0  0  0  0  0  0  0  0  0  0  0
    7.2139  -20.2540   -0.3581 C   0  0  0  0  0  0  0  0  0  0  0  0
    7.7516  -18.9001   -0.8015 C   0  0  0  0  0  0  0  0  0  0  0  0
    6.5694  -20.2438    1.0019 C   0  0  0  0  0  0  0  0  0  0  0  0
    6.7177  -17.8706   -1.1549 C   0  0  0  0  0  0  0  0  0  0  0  0
    7.3170  -16.5607   -1.5753 C   0  0  0  0  0  0  0  0  0  0  0  0
    6.6575  -16.1014   -2.8572 C   0  0  0  0  0  0  0  0  0  0  0  0
    7.4062  -16.3768   -4.1070 C   0  0  0  0  0  0  0  0  0  0  0  0
    7.5629  -17.7916   -4.4441 C   0  0  0  0  0  0  0  0  0  0  0  0
    6.9498  -18.2449   -5.7201 C   0  0  0  0  0  0  0  0  0  0  0  0
    6.0725  -19.3844   -5.3553 C   0  0  0  0  0  0  0  0  0  0  0  0
    6.7475  -20.6868   -4.9759 C   0  0  0  0  0  0  0  0  0  0  0  0
    7.2755  -21.3552   -6.2256 C   0  0  0  0  0  0  0  0  0  0  0  0
    5.5582  -21.8062   -0.8744 H   0  0  0  0  0  0  0  0  0  0  0  0
    4.5803  -22.9236    0.2345 H   0  0  0  0  0  0  0  0  0  0  0  0
    4.5575  -20.9020    1.2683 H   0  0  0  0  0  0  0  0  0  0  0  0
    5.8618  -21.9110    2.0826 H   0  0  0  0  0  0  0  0  0  0  0  0
    6.4652  -20.5858   -1.0926 H   0  0  0  0  0  0  0  0  0  0  0  0
    8.0770  -20.9330   -0.2950 H   0  0  0  0  0  0  0  0  0  0  0  0
    8.3645  -18.4957    0.0175 H   0  0  0  0  0  0  0  0  0  0  0  0
    8.3128  -19.0904   -1.7283 H   0  0  0  0  0  0  0  0  0  0  0  0
    6.0598  -19.2790    1.1417 H   0  0  0  0  0  0  0  0  0  0  0  0
    7.3650  -20.3975    1.7458 H   0  0  0  0  0  0  0  0  0  0  0  0
    6.1053  -18.2580   -1.9825 H   0  0  0  0  0  0  0  0  0  0  0  0
    6.1165  -17.6838   -0.2528 H   0  0  0  0  0  0  0  0  0  0  0  0
    7.1522  -15.8108   -0.7875 H   0  0  0  0  0  0  0  0  0  0  0  0
    8.3977  -16.6839   -1.7389 H   0  0  0  0  0  0  0  0  0  0  0  0
    5.6813  -16.6027   -2.9320 H   0  0  0  0  0  0  0  0  0  0  0  0
    6.5957  -15.0056   -2.7833 H   0  0  0  0  0  0  0  0  0  0  0  0
    6.8748  -15.8870   -4.9363 H   0  0  0  0  0  0  0  0  0  0  0  0
    8.4226  -15.9890   -3.9440 H   0  0  0  0  0  0  0  0  0  0  0  0
    8.6409  -18.0042   -4.4981 H   0  0  0  0  0  0  0  0  0  0  0  0
    7.0263  -18.3384   -3.6547 H   0  0  0  0  0  0  0  0  0  0  0  0
    6.3592  -17.4344   -6.1721 H   0  0  0  0  0  0  0  0  0  0  0  0
    7.7116  -18.5363   -6.4581 H   0  0  0  0  0  0  0  0  0  0  0  0
    5.4591  -19.0683   -4.4987 H   0  0  0  0  0  0  0  0  0  0  0  0
    5.5111  -19.6140   -6.2730 H   0  0  0  0  0  0  0  0  0  0  0  0
    7.5810  -20.4824   -4.2877 H   0  0  0  0  0  0  0  0  0  0  0  0
    6.0219  -21.3489   -4.4808 H   0  0  0  0  0  0  0  0  0  0  0  0
    7.9347  -22.1897   -5.9446 H   0  0  0  0  0  0  0  0  0  0  0  0
    6.4331  -21.7377   -6.8207 H   0  0  0  0  0  0  0  0  0  0  0  0
    7.8427  -20.6242   -6.8207 H   0  0  0  0  0  0  0  0  0  0  0  0
  1  2  1  0
  1  3  2  0
  1  4  1  0
  4  5  1  0
  5  8  1  0
  6  7  1  0
  6  8  1  0
  7  9  1  0
  9 10  1  0
 10 11  1  0
 11 12  1  0
 12 13  1  0
 13 14  1  0
 14 15  1  0
 15 16  1  0
 16 17  1  0
  4 18  1  0
  4 19  1  0
  5 20  1  0
  5 21  1  0
  6 22  1  0
  6 23  1  0
  7 24  1  0
  7 25  1  0
  8 26  1  0
  8 27  1  0
  9 28  1  0
  9 29  1  0
 10 30  1  0
 10 31  1  0
 11 32  1  0
 11 33  1  0
 12 34  1  0
 12 35  1  0
 13 36  1  0
 13 37  1  0
 14 38  1  0
 14 39  1  0
 15 40  1  0
 15 41  1  0
 16 42  1  0
 16 43  1  0
 17 44  1  0
 17 45  1  0
 17 46  1  0
M  CHG  1   2  -1
M  END
>  <filename_input>  (20) 
7WPW_F15_docked.sdf

>  <pdb_id>  (20) 
7WPW_F15

>  <pose_rank>  (20) 
19

>  <num_atoms_heavy>  (20) 
17

>  <num_torsions>  (20) 
13

>  <pose>  (20) 
[6.7176966404368805, -17.870587486689182, -1.1548722578729833, -2.650228968996712, -0.46827888804849277, -0.6561303521038723, 4.1877855117252025, -0.26771465696835395, -0.5434903867822615, -3.1387305714177316, -1.7823717029673887, -2.7750142223105274, -0.7533100394649239, 1.5903113484404594, 0.05018425728487072, 1.493386551972001, 1.2077428029875878, -4.004907401906951, 0.27981456465035875]

>  <energy>  (20) 
-492.2935588736411

>  <inter_energy>  (20) 
-485.43273213166316

>  <intra_energy>  (20) 
14.908834939814321

>  <rmsd>  (20) 
6.70436

>  <sdf_rank>  (20) 
0

$$$$

     RDKit          3D

 46 45  0  0  0  0  0  0  0  0999 V2000
    7.6581  -22.0111    1.2449 C   0  0  0  0  0  0  0  0  0  0  0  0
    6.3866  -22.1062    1.2102 O   0  0  0  0  0  0  0  0  0  0  0  0
    8.3819  -22.7613    1.9397 O   0  0  0  0  0  0  0  0  0  0  0  0
    8.2902  -20.9470    0.3896 C   0  0  0  0  0  0  0  0  0  0  0  0
    8.2737  -21.1713   -1.0856 C   0  0  0  0  0  0  0  0  0  0  0  0
    7.8960  -22.7931   -2.9762 C   0  0  0  0  0  0  0  0  0  0  0  0
    7.1287  -21.9228   -3.9624 C   0  0  0  0  0  0  0  0  0  0  0  0
    7.6249  -22.4700   -1.5315 C   0  0  0  0  0  0  0  0  0  0  0  0
    7.3169  -22.2585   -5.4135 C   0  0  0  0  0  0  0  0  0  0  0  0
    7.8131  -21.0963   -6.2228 C   0  0  0  0  0  0  0  0  0  0  0  0
    6.6314  -20.2734   -6.6868 C   0  0  0  0  0  0  0  0  0  0  0  0
    6.5829  -18.8743   -6.1983 C   0  0  0  0  0  0  0  0  0  0  0  0
    7.2403  -18.6367   -4.9133 C   0  0  0  0  0  0  0  0  0  0  0  0
    7.5520  -17.2232   -4.5751 C   0  0  0  0  0  0  0  0  0  0  0  0
    6.8140  -16.9443   -3.3187 C   0  0  0  0  0  0  0  0  0  0  0  0
    7.2223  -15.7157   -2.5316 C   0  0  0  0  0  0  0  0  0  0  0  0
    6.3183  -15.5742   -1.3273 C   0  0  0  0  0  0  0  0  0  0  0  0
    7.7620  -20.0029    0.5885 H   0  0  0  0  0  0  0  0  0  0  0  0
    9.3542  -20.9479    0.6688 H   0  0  0  0  0  0  0  0  0  0  0  0
    7.7254  -20.3389   -1.5509 H   0  0  0  0  0  0  0  0  0  0  0  0
    9.3265  -21.2310   -1.3987 H   0  0  0  0  0  0  0  0  0  0  0  0
    7.6187  -23.8428   -3.1533 H   0  0  0  0  0  0  0  0  0  0  0  0
    8.9653  -22.6013   -3.1489 H   0  0  0  0  0  0  0  0  0  0  0  0
    6.0573  -22.0145   -3.7309 H   0  0  0  0  0  0  0  0  0  0  0  0
    7.5281  -20.9056   -3.8368 H   0  0  0  0  0  0  0  0  0  0  0  0
    8.0148  -23.2891   -0.9093 H   0  0  0  0  0  0  0  0  0  0  0  0
    6.5372  -22.3523   -1.4176 H   0  0  0  0  0  0  0  0  0  0  0  0
    8.0464  -23.0779   -5.4923 H   0  0  0  0  0  0  0  0  0  0  0  0
    6.3340  -22.5448   -5.8159 H   0  0  0  0  0  0  0  0  0  0  0  0
    8.4754  -20.4730   -5.6040 H   0  0  0  0  0  0  0  0  0  0  0  0
    8.3724  -21.4651   -7.0952 H   0  0  0  0  0  0  0  0  0  0  0  0
    6.6512  -20.2458   -7.7863 H   0  0  0  0  0  0  0  0  0  0  0  0
    5.7427  -20.7661   -6.2654 H   0  0  0  0  0  0  0  0  0  0  0  0
    7.0672  -18.2348   -6.9510 H   0  0  0  0  0  0  0  0  0  0  0  0
    5.5187  -18.6438   -6.0422 H   0  0  0  0  0  0  0  0  0  0  0  0
    6.5831  -19.0312   -4.1244 H   0  0  0  0  0  0  0  0  0  0  0  0
    8.2165  -19.1379   -4.9906 H   0  0  0  0  0  0  0  0  0  0  0  0
    8.6336  -17.0939   -4.4224 H   0  0  0  0  0  0  0  0  0  0  0  0
    7.2580  -16.5360   -5.3822 H   0  0  0  0  0  0  0  0  0  0  0  0
    5.7508  -16.8327   -3.5777 H   0  0  0  0  0  0  0  0  0  0  0  0
    7.0479  -17.7931   -2.6592 H   0  0  0  0  0  0  0  0  0  0  0  0
    8.2652  -15.8219   -2.1984 H   0  0  0  0  0  0  0  0  0  0  0  0
    7.1335  -14.8227   -3.1676 H   0  0  0  0  0  0  0  0  0  0  0  0
    6.9149  -15.6676   -0.4080 H   0  0  0  0  0  0  0  0  0  0  0  0
    5.8301  -14.5887   -1.3491 H   0  0  0  0  0  0  0  0  0  0  0  0
    5.5523  -16.3633   -1.3491 H   0  0  0  0  0  0  0  0  0  0  0  0
  1  2  1  0
  1  3  2  0
  1  4  1  0
  4  5  1  0
  5  8  1  0
  6  7  1  0
  6  8  1  0
  7  9  1  0
  9 10  1  0
 10 11  1  0
 11 12  1  0
 12 13  1  0
 13 14  1  0
 14 15  1  0
 15 16  1  0
 16 17  1  0
  4 18  1  0
  4 19  1  0
  5 20  1  0
  5 21  1  0
  6 22  1  0
  6 23  1  0
  7 24  1  0
  7 25  1  0
  8 26  1  0
  8 27  1  0
  9 28  1  0
  9 29  1  0
 10 30  1  0
 10 31  1  0
 11 32  1  0
 11 33  1  0
 12 34  1  0
 12 35  1  0
 13 36  1  0
 13 37  1  0
 14 38  1  0
 14 39  1  0
 15 40  1  0
 15 41  1  0
 16 42  1  0
 16 43  1  0
 17 44  1  0
 17 45  1  0
 17 46  1  0
M  CHG  1   2  -1
M  END
>  <filename_input>  (21) 
7WPW_F15_docked.sdf

>  <pdb_id>  (21) 
7WPW_F15

>  <pose_rank>  (21) 
20

>  <num_atoms_heavy>  (21) 
17

>  <num_torsions>  (21) 
13

>  <pose>  (21) 
[7.316877053546639, -22.258463267513207, -5.413499106736699, 1.3956072735478815, 1.6290608949058785, 1.5804821011405317, -7.384519606525179, -27.246553058331244, 1.7483254076490893, 12.650915288050957, 9.4154947110233, 1.7678084519800894, 1.7172888692040003, 5.3764541494504465, -1.5827044379597588, 2.281876212796124, -0.7859639296494926, 0.12114832566354296, -1.6000524027365521]

>  <energy>  (21) 
-416.8182351841538

>  <inter_energy>  (21) 
-427.2529498933442

>  <intra_energy>  (21) 
14.657837769651032

>  <rmsd>  (21) 
5.53978

>  <sdf_rank>  (21) 
0

$$$$

     RDKit          3D

 46 45  0  0  0  0  0  0  0  0999 V2000
    6.3620  -24.0586   -0.8123 C   0  0  0  0  0  0  0  0  0  0  0  0
    6.7740  -22.9275   -0.3907 O   0  0  0  0  0  0  0  0  0  0  0  0
    5.3498  -24.6341   -0.3500 O   0  0  0  0  0  0  0  0  0  0  0  0
    7.1415  -24.7007   -1.9274 C   0  0  0  0  0  0  0  0  0  0  0  0
    6.4888  -24.7405   -3.2687 C   0  0  0  0  0  0  0  0  0  0  0  0
    6.6659  -23.1590   -5.2218 C   0  0  0  0  0  0  0  0  0  0  0  0
    6.2789  -21.8200   -5.8352 C   0  0  0  0  0  0  0  0  0  0  0  0
    6.1117  -23.3853   -3.8410 C   0  0  0  0  0  0  0  0  0  0  0  0
    6.3212  -20.6401   -4.9080 C   0  0  0  0  0  0  0  0  0  0  0  0
    7.7066  -20.3260   -4.4246 C   0  0  0  0  0  0  0  0  0  0  0  0
    7.6952  -20.2259   -2.9150 C   0  0  0  0  0  0  0  0  0  0  0  0
    8.0715  -18.9082   -2.3490 C   0  0  0  0  0  0  0  0  0  0  0  0
    8.0447  -17.7908   -3.2927 C   0  0  0  0  0  0  0  0  0  0  0  0
    9.3124  -17.0342   -3.4663 C   0  0  0  0  0  0  0  0  0  0  0  0
    8.9899  -15.9304   -4.4037 C   0  0  0  0  0  0  0  0  0  0  0  0
    9.8853  -15.7637   -5.6145 C   0  0  0  0  0  0  0  0  0  0  0  0
    9.7749  -16.9941   -6.4872 C   0  0  0  0  0  0  0  0  0  0  0  0
    8.0868  -24.1483   -2.0336 H   0  0  0  0  0  0  0  0  0  0  0  0
    7.2537  -25.7540   -1.6307 H   0  0  0  0  0  0  0  0  0  0  0  0
    7.1823  -25.2262   -3.9710 H   0  0  0  0  0  0  0  0  0  0  0  0
    5.5455  -25.2903   -3.1347 H   0  0  0  0  0  0  0  0  0  0  0  0
    6.2952  -23.9598   -5.8784 H   0  0  0  0  0  0  0  0  0  0  0  0
    7.7619  -23.1599   -5.1278 H   0  0  0  0  0  0  0  0  0  0  0  0
    6.9677  -21.6190   -6.6690 H   0  0  0  0  0  0  0  0  0  0  0  0
    5.2268  -21.9236   -6.1393 H   0  0  0  0  0  0  0  0  0  0  0  0
    5.0148  -23.3165   -3.8873 H   0  0  0  0  0  0  0  0  0  0  0  0
    6.5421  -22.6168   -3.1820 H   0  0  0  0  0  0  0  0  0  0  0  0
    5.9276  -19.7615   -5.4401 H   0  0  0  0  0  0  0  0  0  0  0  0
    5.7134  -20.8915   -4.0264 H   0  0  0  0  0  0  0  0  0  0  0  0
    8.3950  -21.1257   -4.7352 H   0  0  0  0  0  0  0  0  0  0  0  0
    8.0413  -19.3710   -4.8560 H   0  0  0  0  0  0  0  0  0  0  0  0
    6.6781  -20.4628   -2.5695 H   0  0  0  0  0  0  0  0  0  0  0  0
    8.4643  -20.9301   -2.5649 H   0  0  0  0  0  0  0  0  0  0  0  0
    7.3736  -18.6783   -1.5304 H   0  0  0  0  0  0  0  0  0  0  0  0
    9.1176  -19.0052   -2.0228 H   0  0  0  0  0  0  0  0  0  0  0  0
    7.7582  -18.1916   -4.2761 H   0  0  0  0  0  0  0  0  0  0  0  0
    7.3328  -17.0687   -2.8662 H   0  0  0  0  0  0  0  0  0  0  0  0
    9.6552  -16.6317   -2.5017 H   0  0  0  0  0  0  0  0  0  0  0  0
   10.1200  -17.6740   -3.8517 H   0  0  0  0  0  0  0  0  0  0  0  0
    7.9661  -16.0964   -4.7700 H   0  0  0  0  0  0  0  0  0  0  0  0
    9.1334  -15.0108   -3.8174 H   0  0  0  0  0  0  0  0  0  0  0  0
    9.5706  -14.8779   -6.1858 H   0  0  0  0  0  0  0  0  0  0  0  0
   10.9278  -15.6339   -5.2885 H   0  0  0  0  0  0  0  0  0  0  0  0
    9.6946  -17.8883   -5.8516 H   0  0  0  0  0  0  0  0  0  0  0  0
    8.8803  -16.9141   -7.1222 H   0  0  0  0  0  0  0  0  0  0  0  0
   10.6694  -17.0746   -7.1222 H   0  0  0  0  0  0  0  0  0  0  0  0
  1  2  1  0
  1  3  2  0
  1  4  1  0
  4  5  1  0
  5  8  1  0
  6  7  1  0
  6  8  1  0
  7  9  1  0
  9 10  1  0
 10 11  1  0
 11 12  1  0
 12 13  1  0
 13 14  1  0
 14 15  1  0
 15 16  1  0
 16 17  1  0
  4 18  1  0
  4 19  1  0
  5 20  1  0
  5 21  1  0
  6 22  1  0
  6 23  1  0
  7 24  1  0
  7 25  1  0
  8 26  1  0
  8 27  1  0
  9 28  1  0
  9 29  1  0
 10 30  1  0
 10 31  1  0
 11 32  1  0
 11 33  1  0
 12 34  1  0
 12 35  1  0
 13 36  1  0
 13 37  1  0
 14 38  1  0
 14 39  1  0
 15 40  1  0
 15 41  1  0
 16 42  1  0
 16 43  1  0
 17 44  1  0
 17 45  1  0
 17 46  1  0
M  CHG  1   2  -1
M  END
>  <filename_input>  (22) 
7WPW_F15_docked.sdf

>  <pdb_id>  (22) 
7WPW_F15

>  <pose_rank>  (22) 
21

>  <num_atoms_heavy>  (22) 
17

>  <num_torsions>  (22) 
13

>  <pose>  (22) 
[6.321243526874211, -20.640101516438946, -4.90802916227949, 3.5122687766567577, -1.6244153221974458, 1.5473678757910923, 2.1867046060657707, 1.6995610255702125, -0.13652620496722329, -1.0708670693128526, -2.116774474354816, 1.1126088018119118, 0.988851588441739, -5.026800797663603, 5.466598608976392, 3.5806480498095046, 0.31345926262918467, 1.3024529022404625, 2.691778323699658]

>  <energy>  (22) 
-408.60725739027714

>  <inter_energy>  (22) 
-399.80115661720623

>  <intra_energy>  (22) 
3.953125803204814

>  <rmsd>  (22) 
6.43388

>  <sdf_rank>  (22) 
0

$$$$

     RDKit          3D

 46 45  0  0  0  0  0  0  0  0999 V2000
    5.6885  -21.9312    0.9903 C   0  0  0  0  0  0  0  0  0  0  0  0
    6.2265  -21.6620    2.1150 O   0  0  0  0  0  0  0  0  0  0  0  0
    4.5523  -21.5202    0.6592 O   0  0  0  0  0  0  0  0  0  0  0  0
    6.4863  -22.7728    0.0319 C   0  0  0  0  0  0  0  0  0  0  0  0
    5.9848  -22.8535   -1.3712 C   0  0  0  0  0  0  0  0  0  0  0  0
    6.4943  -22.7832   -3.8375 C   0  0  0  0  0  0  0  0  0  0  0  0
    7.5456  -22.8776   -4.9351 C   0  0  0  0  0  0  0  0  0  0  0  0
    7.0595  -22.7958   -2.4427 C   0  0  0  0  0  0  0  0  0  0  0  0
    7.1587  -22.2919   -6.2622 C   0  0  0  0  0  0  0  0  0  0  0  0
    7.5261  -20.8427   -6.3911 C   0  0  0  0  0  0  0  0  0  0  0  0
    6.9169  -20.0716   -5.2408 C   0  0  0  0  0  0  0  0  0  0  0  0
    7.8643  -19.2929   -4.4074 C   0  0  0  0  0  0  0  0  0  0  0  0
    7.4604  -19.0999   -3.0147 C   0  0  0  0  0  0  0  0  0  0  0  0
    8.3619  -18.2764   -2.1670 C   0  0  0  0  0  0  0  0  0  0  0  0
    7.5227  -17.8043   -1.0383 C   0  0  0  0  0  0  0  0  0  0  0  0
    7.5716  -18.6063    0.2462 C   0  0  0  0  0  0  0  0  0  0  0  0
    8.5727  -19.7296    0.0928 C   0  0  0  0  0  0  0  0  0  0  0  0
    7.5061  -22.3618   -0.0024 H   0  0  0  0  0  0  0  0  0  0  0  0
    6.4155  -23.7988    0.4222 H   0  0  0  0  0  0  0  0  0  0  0  0
    5.4407  -23.8028   -1.4847 H   0  0  0  0  0  0  0  0  0  0  0  0
    5.3527  -21.9661   -1.5226 H   0  0  0  0  0  0  0  0  0  0  0  0
    5.9345  -21.8464   -3.9750 H   0  0  0  0  0  0  0  0  0  0  0  0
    5.8581  -23.6758   -3.9301 H   0  0  0  0  0  0  0  0  0  0  0  0
    8.4472  -22.3536   -4.5849 H   0  0  0  0  0  0  0  0  0  0  0  0
    7.6944  -23.9525   -5.1148 H   0  0  0  0  0  0  0  0  0  0  0  0
    7.6529  -21.8813   -2.2960 H   0  0  0  0  0  0  0  0  0  0  0  0
    7.6743  -23.7025   -2.3434 H   0  0  0  0  0  0  0  0  0  0  0  0
    7.6697  -22.8554   -7.0567 H   0  0  0  0  0  0  0  0  0  0  0  0
    6.0644  -22.3636   -6.3479 H   0  0  0  0  0  0  0  0  0  0  0  0
    8.6208  -20.7370   -6.3663 H   0  0  0  0  0  0  0  0  0  0  0  0
    7.1448  -20.4478   -7.3443 H   0  0  0  0  0  0  0  0  0  0  0  0
    6.1804  -19.3695   -5.6587 H   0  0  0  0  0  0  0  0  0  0  0  0
    6.4855  -20.8296   -4.5705 H   0  0  0  0  0  0  0  0  0  0  0  0
    8.8308  -19.8182   -4.4110 H   0  0  0  0  0  0  0  0  0  0  0  0
    7.9064  -18.2883   -4.8535 H   0  0  0  0  0  0  0  0  0  0  0  0
    6.4722  -18.6167   -3.0181 H   0  0  0  0  0  0  0  0  0  0  0  0
    7.4786  -20.1041   -2.5662 H   0  0  0  0  0  0  0  0  0  0  0  0
    9.2004  -18.8834   -1.7950 H   0  0  0  0  0  0  0  0  0  0  0  0
    8.7982  -17.4380   -2.7298 H   0  0  0  0  0  0  0  0  0  0  0  0
    7.8375  -16.7777   -0.7993 H   0  0  0  0  0  0  0  0  0  0  0  0
    6.4870  -17.9046   -1.3950 H   0  0  0  0  0  0  0  0  0  0  0  0
    7.8764  -17.9526    1.0768 H   0  0  0  0  0  0  0  0  0  0  0  0
    6.5767  -19.0242    0.4594 H   0  0  0  0  0  0  0  0  0  0  0  0
    8.8854  -20.0805    1.0873 H   0  0  0  0  0  0  0  0  0  0  0  0
    8.1098  -20.5602   -0.4603 H   0  0  0  0  0  0  0  0  0  0  0  0
    9.4509  -19.3651   -0.4603 H   0  0  0  0  0  0  0  0  0  0  0  0
  1  2  1  0
  1  3  2  0
  1  4  1  0
  4  5  1  0
  5  8  1  0
  6  7  1  0
  6  8  1  0
  7  9  1  0
  9 10  1  0
 10 11  1  0
 11 12  1  0
 12 13  1  0
 13 14  1  0
 14 15  1  0
 15 16  1  0
 16 17  1  0
  4 18  1  0
  4 19  1  0
  5 20  1  0
  5 21  1  0
  6 22  1  0
  6 23  1  0
  7 24  1  0
  7 25  1  0
  8 26  1  0
  8 27  1  0
  9 28  1  0
  9 29  1  0
 10 30  1  0
 10 31  1  0
 11 32  1  0
 11 33  1  0
 12 34  1  0
 12 35  1  0
 13 36  1  0
 13 37  1  0
 14 38  1  0
 14 39  1  0
 15 40  1  0
 15 41  1  0
 16 42  1  0
 16 43  1  0
 17 44  1  0
 17 45  1  0
 17 46  1  0
M  CHG  1   2  -1
M  END
>  <filename_input>  (23) 
7WPW_F15_docked.sdf

>  <pdb_id>  (23) 
7WPW_F15

>  <pose_rank>  (23) 
22

>  <num_atoms_heavy>  (23) 
17

>  <num_torsions>  (23) 
13

>  <pose>  (23) 
[7.15873191996829, -22.291922565988433, -6.262178160319237, -2.064857281347713, -1.257708478548659, -1.8842435230355357, 2.6241967312760472, -1.7205053988913128, -0.004876076068302439, -0.06430410085508109, -0.7092230411714673, 0.08183653431877783, 2.267311856180556, -0.8064942475212826, 2.537791832449436, 2.6164883409147386, -0.11047221896388065, -1.0683228155194542, 1.633903880727173]

>  <energy>  (23) 
-466.1959971722483

>  <inter_energy>  (23) 
-481.218555459543

>  <intra_energy>  (23) 
22.574960860699502

>  <rmsd>  (23) 
4.65302

>  <sdf_rank>  (23) 
0

$$$$

     RDKit          3D

 46 45  0  0  0  0  0  0  0  0999 V2000
    6.4050  -17.8610   -0.4976 C   0  0  0  0  0  0  0  0  0  0  0  0
    5.1686  -17.9078   -0.1879 O   0  0  0  0  0  0  0  0  0  0  0  0
    7.2060  -18.7943   -0.2596 O   0  0  0  0  0  0  0  0  0  0  0  0
    6.8917  -16.6189   -1.1931 C   0  0  0  0  0  0  0  0  0  0  0  0
    6.7997  -16.6014   -2.6823 C   0  0  0  0  0  0  0  0  0  0  0  0
    6.7559  -17.9800   -4.7906 C   0  0  0  0  0  0  0  0  0  0  0  0
    7.3895  -19.2871   -5.2476 C   0  0  0  0  0  0  0  0  0  0  0  0
    6.4393  -17.9318   -3.3201 C   0  0  0  0  0  0  0  0  0  0  0  0
    6.7508  -20.5407   -4.7238 C   0  0  0  0  0  0  0  0  0  0  0  0
    7.4634  -21.1050   -3.5298 C   0  0  0  0  0  0  0  0  0  0  0  0
    6.8199  -22.4181   -3.1420 C   0  0  0  0  0  0  0  0  0  0  0  0
    7.7164  -23.5990   -3.1210 C   0  0  0  0  0  0  0  0  0  0  0  0
    7.0610  -24.8866   -3.3502 C   0  0  0  0  0  0  0  0  0  0  0  0
    7.9203  -25.9929   -3.8477 C   0  0  0  0  0  0  0  0  0  0  0  0
    8.5972  -26.5399   -2.6462 C   0  0  0  0  0  0  0  0  0  0  0  0
    9.8562  -27.3530   -2.8684 C   0  0  0  0  0  0  0  0  0  0  0  0
    9.4901  -28.6675   -3.5206 C   0  0  0  0  0  0  0  0  0  0  0  0
    6.3014  -15.7719   -0.8133 H   0  0  0  0  0  0  0  0  0  0  0  0
    7.9678  -16.5675   -0.9707 H   0  0  0  0  0  0  0  0  0  0  0  0
    6.0319  -15.8673   -2.9679 H   0  0  0  0  0  0  0  0  0  0  0  0
    7.8053  -16.3479   -3.0489 H   0  0  0  0  0  0  0  0  0  0  0  0
    7.4516  -17.1597   -5.0213 H   0  0  0  0  0  0  0  0  0  0  0  0
    5.7986  -17.8878   -5.3244 H   0  0  0  0  0  0  0  0  0  0  0  0
    7.3435  -19.3185   -6.3462 H   0  0  0  0  0  0  0  0  0  0  0  0
    8.4122  -19.2811   -4.8427 H   0  0  0  0  0  0  0  0  0  0  0  0
    7.0034  -18.7285   -2.8132 H   0  0  0  0  0  0  0  0  0  0  0  0
    5.3531  -18.0671   -3.2113 H   0  0  0  0  0  0  0  0  0  0  0  0
    5.7134  -20.3129   -4.4379 H   0  0  0  0  0  0  0  0  0  0  0  0
    6.7993  -21.2945   -5.5235 H   0  0  0  0  0  0  0  0  0  0  0  0
    8.5218  -21.2730   -3.7783 H   0  0  0  0  0  0  0  0  0  0  0  0
    7.3956  -20.3976   -2.6902 H   0  0  0  0  0  0  0  0  0  0  0  0
    6.3948  -22.3001   -2.1344 H   0  0  0  0  0  0  0  0  0  0  0  0
    6.0739  -22.6254   -3.9233 H   0  0  0  0  0  0  0  0  0  0  0  0
    8.4777  -23.4615   -3.9030 H   0  0  0  0  0  0  0  0  0  0  0  0
    8.1322  -23.6466   -2.1038 H   0  0  0  0  0  0  0  0  0  0  0  0
    6.6195  -25.2105   -2.3962 H   0  0  0  0  0  0  0  0  0  0  0  0
    6.3328  -24.7019   -4.1537 H   0  0  0  0  0  0  0  0  0  0  0  0
    7.3074  -26.7684   -4.3303 H   0  0  0  0  0  0  0  0  0  0  0  0
    8.6430  -25.6420   -4.5991 H   0  0  0  0  0  0  0  0  0  0  0  0
    8.8623  -25.6899   -2.0004 H   0  0  0  0  0  0  0  0  0  0  0  0
    7.8757  -27.2487   -2.2135 H   0  0  0  0  0  0  0  0  0  0  0  0
   10.5432  -26.7963   -3.5227 H   0  0  0  0  0  0  0  0  0  0  0  0
   10.3485  -27.5436   -1.9033 H   0  0  0  0  0  0  0  0  0  0  0  0
    9.2813  -29.4171   -2.7431 H   0  0  0  0  0  0  0  0  0  0  0  0
    8.5961  -28.5298   -4.1466 H   0  0  0  0  0  0  0  0  0  0  0  0
   10.3265  -29.0118   -4.1466 H   0  0  0  0  0  0  0  0  0  0  0  0
  1  2  1  0
  1  3  2  0
  1  4  1  0
  4  5  1  0
  5  8  1  0
  6  7  1  0
  6  8  1  0
  7  9  1  0
  9 10  1  0
 10 11  1  0
 11 12  1  0
 12 13  1  0
 13 14  1  0
 14 15  1  0
 15 16  1  0
 16 17  1  0
  4 18  1  0
  4 19  1  0
  5 20  1  0
  5 21  1  0
  6 22  1  0
  6 23  1  0
  7 24  1  0
  7 25  1  0
  8 26  1  0
  8 27  1  0
  9 28  1  0
  9 29  1  0
 10 30  1  0
 10 31  1  0
 11 32  1  0
 11 33  1  0
 12 34  1  0
 12 35  1  0
 13 36  1  0
 13 37  1  0
 14 38  1  0
 14 39  1  0
 15 40  1  0
 15 41  1  0
 16 42  1  0
 16 43  1  0
 17 44  1  0
 17 45  1  0
 17 46  1  0
M  CHG  1   2  -1
M  END
>  <filename_input>  (24) 
7WPW_F15_docked.sdf

>  <pdb_id>  (24) 
7WPW_F15

>  <pose_rank>  (24) 
23

>  <num_atoms_heavy>  (24) 
17

>  <num_torsions>  (24) 
13

>  <pose>  (24) 
[6.750817530541065, -20.54072759783024, -4.723805891082918, 4.312081283680581, -1.1338447605096336, -4.1635732692668865, 5.628268980365854, 1.7606521107958157, -0.8551716418928857, 0.16570866895063702, 2.973954161037808, 1.4697729797742178, -6.1168943524856285, -0.83108946742261, -3.7777433772347195, -4.104066953136988, -1.45750445434358, 0.7441229416641015, 0.366222045341769]

>  <energy>  (24) 
-413.7941812559991

>  <inter_energy>  (24) 
-432.0408666263855

>  <intra_energy>  (24) 
11.01869091325526

>  <rmsd>  (24) 
3.55543

>  <sdf_rank>  (24) 
0

$$$$

     RDKit          3D

 46 45  0  0  0  0  0  0  0  0999 V2000
    8.2350  -23.7528   -0.7774 C   0  0  0  0  0  0  0  0  0  0  0  0
    7.6774  -24.8926   -0.9074 O   0  0  0  0  0  0  0  0  0  0  0  0
    9.0813  -23.3085   -1.5872 O   0  0  0  0  0  0  0  0  0  0  0  0
    7.8263  -22.9201    0.4071 C   0  0  0  0  0  0  0  0  0  0  0  0
    7.2743  -21.5642    0.1182 C   0  0  0  0  0  0  0  0  0  0  0  0
    7.6719  -19.1413    0.6829 C   0  0  0  0  0  0  0  0  0  0  0  0
    7.6394  -19.0470   -0.8366 C   0  0  0  0  0  0  0  0  0  0  0  0
    7.4857  -20.5363    1.2160 C   0  0  0  0  0  0  0  0  0  0  0  0
    8.6881  -18.1716   -1.4593 C   0  0  0  0  0  0  0  0  0  0  0  0
    8.2329  -17.5340   -2.7391 C   0  0  0  0  0  0  0  0  0  0  0  0
    8.5033  -18.4795   -3.8888 C   0  0  0  0  0  0  0  0  0  0  0  0
    7.3267  -19.2097   -4.4191 C   0  0  0  0  0  0  0  0  0  0  0  0
    7.5314  -20.6386   -4.6561 C   0  0  0  0  0  0  0  0  0  0  0  0
    7.1002  -21.1636   -5.9782 C   0  0  0  0  0  0  0  0  0  0  0  0
    7.0574  -22.6386   -5.8241 C   0  0  0  0  0  0  0  0  0  0  0  0
    6.2039  -23.1951   -4.7028 C   0  0  0  0  0  0  0  0  0  0  0  0
    6.7538  -24.5391   -4.2799 C   0  0  0  0  0  0  0  0  0  0  0  0
    7.0582  -23.4813    0.9593 H   0  0  0  0  0  0  0  0  0  0  0  0
    8.7562  -22.7390    0.9661 H   0  0  0  0  0  0  0  0  0  0  0  0
    7.7543  -21.1886   -0.7976 H   0  0  0  0  0  0  0  0  0  0  0  0
    6.1858  -21.6903    0.0214 H   0  0  0  0  0  0  0  0  0  0  0  0
    8.6450  -18.7652    1.0316 H   0  0  0  0  0  0  0  0  0  0  0  0
    6.8270  -18.5438    1.0559 H   0  0  0  0  0  0  0  0  0  0  0  0
    7.7640  -20.0625   -1.2405 H   0  0  0  0  0  0  0  0  0  0  0  0
    6.6746  -18.5814   -1.0865 H   0  0  0  0  0  0  0  0  0  0  0  0
    6.6078  -20.5447    1.8788 H   0  0  0  0  0  0  0  0  0  0  0  0
    8.4059  -20.8105    1.7528 H   0  0  0  0  0  0  0  0  0  0  0  0
    8.9509  -17.3770   -0.7455 H   0  0  0  0  0  0  0  0  0  0  0  0
    9.5515  -18.8101   -1.6978 H   0  0  0  0  0  0  0  0  0  0  0  0
    7.1548  -17.3229   -2.6819 H   0  0  0  0  0  0  0  0  0  0  0  0
    8.7792  -16.5926   -2.8981 H   0  0  0  0  0  0  0  0  0  0  0  0
    8.9350  -17.8927   -4.7130 H   0  0  0  0  0  0  0  0  0  0  0  0
    9.1754  -19.2517   -3.4864 H   0  0  0  0  0  0  0  0  0  0  0  0
    6.5046  -19.0995   -3.6966 H   0  0  0  0  0  0  0  0  0  0  0  0
    7.1121  -18.7663   -5.4027 H   0  0  0  0  0  0  0  0  0  0  0  0
    8.6070  -20.8435   -4.5506 H   0  0  0  0  0  0  0  0  0  0  0  0
    6.8927  -21.1485   -3.9199 H   0  0  0  0  0  0  0  0  0  0  0  0
    6.1049  -20.7754   -6.2401 H   0  0  0  0  0  0  0  0  0  0  0  0
    7.7854  -20.8570   -6.7823 H   0  0  0  0  0  0  0  0  0  0  0  0
    6.6786  -23.0586   -6.7676 H   0  0  0  0  0  0  0  0  0  0  0  0
    8.0871  -22.9256   -5.5646 H   0  0  0  0  0  0  0  0  0  0  0  0
    6.2236  -22.5038   -3.8474 H   0  0  0  0  0  0  0  0  0  0  0  0
    5.1670  -23.3127   -5.0508 H   0  0  0  0  0  0  0  0  0  0  0  0
    6.7773  -24.5965   -3.1817 H   0  0  0  0  0  0  0  0  0  0  0  0
    6.1108  -25.3392   -4.6753 H   0  0  0  0  0  0  0  0  0  0  0  0
    7.7733  -24.6589   -4.6753 H   0  0  0  0  0  0  0  0  0  0  0  0
  1  2  1  0
  1  3  2  0
  1  4  1  0
  4  5  1  0
  5  8  1  0
  6  7  1  0
  6  8  1  0
  7  9  1  0
  9 10  1  0
 10 11  1  0
 11 12  1  0
 12 13  1  0
 13 14  1  0
 14 15  1  0
 15 16  1  0
 16 17  1  0
  4 18  1  0
  4 19  1  0
  5 20  1  0
  5 21  1  0
  6 22  1  0
  6 23  1  0
  7 24  1  0
  7 25  1  0
  8 26  1  0
  8 27  1  0
  9 28  1  0
  9 29  1  0
 10 30  1  0
 10 31  1  0
 11 32  1  0
 11 33  1  0
 12 34  1  0
 12 35  1  0
 13 36  1  0
 13 37  1  0
 14 38  1  0
 14 39  1  0
 15 40  1  0
 15 41  1  0
 16 42  1  0
 16 43  1  0
 17 44  1  0
 17 45  1  0
 17 46  1  0
M  CHG  1   2  -1
M  END
>  <filename_input>  (25) 
7WPW_F15_docked.sdf

>  <pdb_id>  (25) 
7WPW_F15

>  <pose_rank>  (25) 
24

>  <num_atoms_heavy>  (25) 
17

>  <num_torsions>  (25) 
13

>  <pose>  (25) 
[8.6881116371595, -18.17164738509497, -1.4592707845334474, 1.4142111998425073, -2.112761741888386, -1.870698317730869, -1.5574225754552353, -1.4068735595586581, 3.0068822145463505, -0.709835024075251, 0.4880046594485836, 0.8769206054083899, 1.7187840131629037, -1.166250146338049, -3.4495668932316788, -2.8539910308123493, 0.5290599522651276, -1.7761112825902996, -1.0949131251684756]

>  <energy>  (25) 
-511.6453697210662

>  <inter_energy>  (25) 
-508.270766348568

>  <intra_energy>  (25) 
1.4213568710319247

>  <rmsd>  (25) 
6.16526

>  <sdf_rank>  (25) 
0

$$$$

     RDKit          3D

 46 45  0  0  0  0  0  0  0  0999 V2000
    5.7350  -16.5420   -1.6550 C   0  0  0  0  0  0  0  0  0  0  0  0
    4.7250  -16.2870   -0.9190 O   0  0  0  0  0  0  0  0  0  0  0  0
    6.8210  -15.9240   -1.5650 O   0  0  0  0  0  0  0  0  0  0  0  0
    5.5890  -17.6520   -2.6600 C   0  0  0  0  0  0  0  0  0  0  0  0
    6.8210  -18.0590   -3.3970 C   0  0  0  0  0  0  0  0  0  0  0  0
    7.9270  -19.6800   -4.9770 C   0  0  0  0  0  0  0  0  0  0  0  0
    7.7600  -20.6970   -6.0980 C   0  0  0  0  0  0  0  0  0  0  0  0
    6.6290  -19.1840   -4.3990 C   0  0  0  0  0  0  0  0  0  0  0  0
    6.9520  -21.9160   -5.7590 C   0  0  0  0  0  0  0  0  0  0  0  0
    7.5400  -22.7120   -4.6310 C   0  0  0  0  0  0  0  0  0  0  0  0
    6.6000  -23.8440   -4.2790 C   0  0  0  0  0  0  0  0  0  0  0  0
    7.1330  -24.8630   -3.3430 C   0  0  0  0  0  0  0  0  0  0  0  0
    7.4690  -24.3710   -2.0070 C   0  0  0  0  0  0  0  0  0  0  0  0
    6.6350  -23.2610   -1.4760 C   0  0  0  0  0  0  0  0  0  0  0  0
    6.9250  -23.2080   -0.0220 C   0  0  0  0  0  0  0  0  0  0  0  0
    6.6630  -21.8970    0.6910 C   0  0  0  0  0  0  0  0  0  0  0  0
    7.9190  -21.0550    0.6600 C   0  0  0  0  0  0  0  0  0  0  0  0
    5.2131  -18.5371   -2.1259 H   0  0  0  0  0  0  0  0  0  0  0  0
    4.9108  -17.2556   -3.4300 H   0  0  0  0  0  0  0  0  0  0  0  0
    7.1998  -17.1802   -3.9394 H   0  0  0  0  0  0  0  0  0  0  0  0
    7.5206  -18.4399   -2.6384 H   0  0  0  0  0  0  0  0  0  0  0  0
    8.5082  -20.1486   -4.1692 H   0  0  0  0  0  0  0  0  0  0  0  0
    8.4340  -18.8069   -5.4137 H   0  0  0  0  0  0  0  0  0  0  0  0
    7.2693  -20.1910   -6.9425 H   0  0  0  0  0  0  0  0  0  0  0  0
    8.7727  -21.0628   -6.3229 H   0  0  0  0  0  0  0  0  0  0  0  0
    6.1265  -20.0221   -3.8940 H   0  0  0  0  0  0  0  0  0  0  0  0
    6.0273  -18.7873   -5.2300 H   0  0  0  0  0  0  0  0  0  0  0  0
    5.9390  -21.5970   -5.4726 H   0  0  0  0  0  0  0  0  0  0  0  0
    6.9416  -22.5627   -6.6487 H   0  0  0  0  0  0  0  0  0  0  0  0
    8.5126  -23.1235   -4.9388 H   0  0  0  0  0  0  0  0  0  0  0  0
    7.6815  -22.0626   -3.7545 H   0  0  0  0  0  0  0  0  0  0  0  0
    5.7005  -23.4052   -3.8225 H   0  0  0  0  0  0  0  0  0  0  0  0
    6.4109  -24.3773   -5.2223 H   0  0  0  0  0  0  0  0  0  0  0  0
    6.3753  -25.6529   -3.2335 H   0  0  0  0  0  0  0  0  0  0  0  0
    8.0774  -25.2154   -3.7833 H   0  0  0  0  0  0  0  0  0  0  0  0
    7.3826  -25.2166   -1.3087 H   0  0  0  0  0  0  0  0  0  0  0  0
    8.4825  -23.9533   -2.0988 H   0  0  0  0  0  0  0  0  0  0  0  0
    6.9083  -22.3105   -1.9574 H   0  0  0  0  0  0  0  0  0  0  0  0
    5.5652  -23.4240   -1.6731 H   0  0  0  0  0  0  0  0  0  0  0  0
    6.3099  -23.9783    0.4660 H   0  0  0  0  0  0  0  0  0  0  0  0
    8.0118  -23.3594    0.0551 H   0  0  0  0  0  0  0  0  0  0  0  0
    5.8472  -21.3597    0.1853 H   0  0  0  0  0  0  0  0  0  0  0  0
    6.3758  -22.0944    1.7343 H   0  0  0  0  0  0  0  0  0  0  0  0
    8.2412  -20.8390    1.6894 H   0  0  0  0  0  0  0  0  0  0  0  0
    8.7148  -21.6028    0.1340 H   0  0  0  0  0  0  0  0  0  0  0  0
    7.7146  -20.1108    0.1340 H   0  0  0  0  0  0  0  0  0  0  0  0
  1  2  1  0
  1  3  2  0
  1  4  1  0
  4  5  1  0
  5  8  1  0
  6  7  1  0
  6  8  1  0
  7  9  1  0
  9 10  1  0
 10 11  1  0
 11 12  1  0
 12 13  1  0
 13 14  1  0
 14 15  1  0
 15 16  1  0
 16 17  1  0
  4 18  1  0
  4 19  1  0
  5 20  1  0
  5 21  1  0
  6 22  1  0
  6 23  1  0
  7 24  1  0
  7 25  1  0
  8 26  1  0
  8 27  1  0
  9 28  1  0
  9 29  1  0
 10 30  1  0
 10 31  1  0
 11 32  1  0
 11 33  1  0
 12 34  1  0
 12 35  1  0
 13 36  1  0
 13 37  1  0
 14 38  1  0
 14 39  1  0
 15 40  1  0
 15 41  1  0
 16 42  1  0
 16 43  1  0
 17 44  1  0
 17 45  1  0
 17 46  1  0
M  CHG  1   2  -1
M  END
>  <filename_input>  (26) 
7WPW_F15_docked.sdf

>  <pdb_id>  (26) 
7WPW_F15

>  <pose_rank>  (26) 
25

>  <num_atoms_heavy>  (26) 
17

>  <num_torsions>  (26) 
13

>  <pose>  (26) 
[6.952, -21.916, -5.759, 1e-06, 1e-06, 1e-06, 0.0, 0.0, 0.0, 0.0, 0.0, 0.0, 0.0, 0.0, 0.0, 0.0, 0.0, 0.0, 0.0]

>  <energy>  (26) 
-605.8280985692552

>  <inter_energy>  (26) 
-618.0030270130383

>  <intra_energy>  (26) 
7.353480966054447

>  <rmsd>  (26) 
0.0

>  <sdf_rank>  (26) 
0

$$$$
