
     RDKit          3D

 54 55  0  0  0  0  0  0  0  0999 V2000
   29.5177   -5.4095    9.8460 C   0  0  0  0  0  0  0  0  0  0  0  0
   30.6331   -5.3216   12.6381 C   0  0  0  0  0  0  0  0  0  0  0  0
   31.8814   -4.1310   14.2714 C   0  0  0  0  0  0  0  0  0  0  0  0
   31.6991   -3.2370   12.0686 C   0  0  0  0  0  0  0  0  0  0  0  0
   28.3501   -6.4102    6.3271 C   0  0  0  0  0  0  0  0  0  0  0  0
   27.4689   -7.2774    5.7358 C   0  0  0  0  0  0  0  0  0  0  0  0
   29.0684   -7.7631    3.8709 C   0  0  0  0  0  0  0  0  0  0  0  0
   26.9789   -6.3139    3.5138 C   0  0  0  0  0  0  0  0  0  0  0  0
   26.0945   -9.2750    9.8867 C   0  0  0  0  0  0  0  0  0  0  0  0
   25.4425   -8.5131    8.7361 C   0  0  2  0  0  0  0  0  0  0  0  0
   24.4934   -7.4753    9.3587 C   0  0  0  0  0  0  0  0  0  0  0  0
   24.6421   -9.5004    7.8885 C   0  0  0  0  0  0  0  0  0  0  0  0
   26.4815   -7.8052    7.8486 C   0  0  0  0  0  0  0  0  0  0  0  0
   27.3549   -6.9251    8.4325 C   0  0  0  0  0  0  0  0  0  0  0  0
   28.2776   -6.2277    7.6993 C   0  0  0  0  0  0  0  0  0  0  0  0
   29.2754   -5.2859    8.3466 C   0  0  0  0  0  0  0  0  0  0  0  0
   30.4872   -4.3609   10.2499 C   0  0  0  0  0  0  0  0  0  0  0  0
   30.9468   -4.3315   11.7212 C   0  0  0  0  0  0  0  0  0  0  0  0
   31.1456   -5.2252   13.9425 C   0  0  0  0  0  0  0  0  0  0  0  0
   32.4613   -4.0346   15.6823 C   0  0  0  0  0  0  0  0  0  0  0  0
   32.2136   -3.1385   13.3558 C   0  0  0  0  0  0  0  0  0  0  0  0
   27.6105   -7.4769    4.2481 C   0  0  2  0  0  0  0  0  0  0  0  0
   26.8012   -8.7427    3.9519 C   0  0  0  0  0  0  0  0  0  0  0  0
   26.5282   -7.9738    6.4650 C   0  0  0  0  0  0  0  0  0  0  0  0
   29.9348   -4.5393    7.7020 O   0  0  0  0  0  0  0  0  0  0  0  0
   33.1980   -3.0581   15.9663 O   0  0  0  0  0  0  0  0  0  0  0  0
   32.2449   -5.0054   16.4541 O   0  0  0  0  0  0  0  0  0  0  0  0
   29.0536   -6.1494   10.5147 H   0  0  0  0  0  0  0  0  0  0  0  0
   29.9935   -6.1687   12.3496 H   0  0  0  0  0  0  0  0  0  0  0  0
   31.8933   -2.4428   11.3327 H   0  0  0  0  0  0  0  0  0  0  0  0
   29.0978   -5.8713    5.7266 H   0  0  0  0  0  0  0  0  0  0  0  0
   29.6675   -7.8807    4.7859 H   0  0  0  0  0  0  0  0  0  0  0  0
   29.1189   -8.6883    3.2781 H   0  0  0  0  0  0  0  0  0  0  0  0
   29.4649   -6.9256    3.2781 H   0  0  0  0  0  0  0  0  0  0  0  0
   26.5858   -5.5899    4.2428 H   0  0  0  0  0  0  0  0  0  0  0  0
   27.7352   -5.8246    2.8825 H   0  0  0  0  0  0  0  0  0  0  0  0
   26.1567   -6.6818    2.8825 H   0  0  0  0  0  0  0  0  0  0  0  0
   25.7428   -8.8640   10.8445 H   0  0  0  0  0  0  0  0  0  0  0  0
   25.8230  -10.3390    9.8225 H   0  0  0  0  0  0  0  0  0  0  0  0
   27.1877   -9.1710    9.8225 H   0  0  0  0  0  0  0  0  0  0  0  0
   24.5505   -7.5377   10.4555 H   0  0  0  0  0  0  0  0  0  0  0  0
   24.7883   -6.4668    9.0330 H   0  0  0  0  0  0  0  0  0  0  0  0
   23.4627   -7.6790    9.0330 H   0  0  0  0  0  0  0  0  0  0  0  0
   24.0876  -10.1843    8.5479 H   0  0  0  0  0  0  0  0  0  0  0  0
   23.9335   -8.9482    7.2536 H   0  0  0  0  0  0  0  0  0  0  0  0
   25.3289  -10.0794    7.2536 H   0  0  0  0  0  0  0  0  0  0  0  0
   27.3135   -6.7746    9.5214 H   0  0  0  0  0  0  0  0  0  0  0  0
   30.8658   -3.6277    9.5224 H   0  0  0  0  0  0  0  0  0  0  0  0
   30.9556   -6.0178   14.6812 H   0  0  0  0  0  0  0  0  0  0  0  0
   32.8649   -2.2995   13.6421 H   0  0  0  0  0  0  0  0  0  0  0  0
   26.4994   -9.2148    4.8985 H   0  0  0  0  0  0  0  0  0  0  0  0
   25.9047   -8.4775    3.3722 H   0  0  0  0  0  0  0  0  0  0  0  0
   27.4181   -9.4451    3.3722 H   0  0  0  0  0  0  0  0  0  0  0  0
   25.8241   -8.6531    5.9621 H   0  0  0  0  0  0  0  0  0  0  0  0
  1 16  1  0
  1 17  2  3
  2 18  2  0
  2 19  1  0
  3 19  2  0
  3 20  1  0
  3 21  1  0
  4 18  1  0
  4 21  2  0
  5  6  2  0
  5 15  1  0
  6 22  1  0
  6 24  1  0
 22  7  1  1
  8 22  1  0
 10  9  1  1
 10 11  1  0
 10 12  1  0
 10 13  1  0
 13 14  1  0
 13 24  2  0
 14 15  2  0
 15 16  1  0
 16 25  2  0
 17 18  1  0
 20 26  2  0
 20 27  1  0
 22 23  1  0
  1 28  1  0
  2 29  1  0
  4 30  1  0
  5 31  1  0
  7 32  1  0
  7 33  1  0
  7 34  1  0
  8 35  1  0
  8 36  1  0
  8 37  1  0
  9 38  1  0
  9 39  1  0
  9 40  1  0
 11 41  1  0
 11 42  1  0
 11 43  1  0
 12 44  1  0
 12 45  1  0
 12 46  1  0
 14 47  1  0
 17 48  1  0
 19 49  1  0
 21 50  1  0
 23 51  1  0
 23 52  1  0
 23 53  1  0
 24 54  1  0
M  CHG  1  27  -1
M  END
>  <filename_input>  (1) 
7WQQ_5Z6_docked.sdf

>  <pdb_id>  (1) 
7WQQ_5Z6

>  <pose_rank>  (1) 
0

>  <num_atoms_heavy>  (1) 
27

>  <num_torsions>  (1) 
6

>  <pose>  (1) 
[28.35011639830116, -6.410161909521294, 6.3270728919494985, 5.942376172354255, 0.3037256438034931, 1.9215647932634918, 1.342035807817972, 0.23779870119904417, -6.406919519816739, -0.33898418723855284, 0.2624726473800498, -0.3035778893732987]

>  <energy>  (1) 
-1215.5083685913078

>  <inter_energy>  (1) 
-1199.4304899093477

>  <intra_energy>  (1) 
0.0

>  <rmsd>  (1) 
0.477294

>  <sdf_rank>  (1) 
0

$$$$

     RDKit          3D

 54 55  0  0  0  0  0  0  0  0999 V2000
   29.7430   -5.5253    9.6502 C   0  0  0  0  0  0  0  0  0  0  0  0
   30.3519   -5.3041   12.6751 C   0  0  0  0  0  0  0  0  0  0  0  0
   31.8514   -4.2480   14.1850 C   0  0  0  0  0  0  0  0  0  0  0  0
   31.4600   -3.2572   12.0519 C   0  0  0  0  0  0  0  0  0  0  0  0
   27.4327   -6.9763    8.3980 C   0  0  0  0  0  0  0  0  0  0  0  0
   26.6098   -7.8961    7.8020 C   0  0  0  0  0  0  0  0  0  0  0  0
   26.4036   -9.6069    9.6193 C   0  0  0  0  0  0  0  0  0  0  0  0
   24.5493   -9.2578    7.8776 C   0  0  0  0  0  0  0  0  0  0  0  0
   27.8572   -8.9999    3.7411 C   0  0  0  0  0  0  0  0  0  0  0  0
   27.5735   -7.5479    4.1162 C   0  0  2  0  0  0  0  0  0  0  0  0
   26.2424   -7.1588    3.4511 C   0  0  0  0  0  0  0  0  0  0  0  0
   28.6991   -6.6731    3.5673 C   0  0  0  0  0  0  0  0  0  0  0  0
   27.4734   -7.3529    5.6395 C   0  0  0  0  0  0  0  0  0  0  0  0
   28.3049   -6.4456    6.2425 C   0  0  0  0  0  0  0  0  0  0  0  0
   28.3011   -6.2502    7.5980 C   0  0  0  0  0  0  0  0  0  0  0  0
   29.1882   -5.2158    8.2650 C   0  0  0  0  0  0  0  0  0  0  0  0
   29.9783   -4.2412   10.3560 C   0  0  0  0  0  0  0  0  0  0  0  0
   30.6105   -4.2956   11.7611 C   0  0  0  0  0  0  0  0  0  0  0  0
   31.0205   -5.2877   13.9105 C   0  0  0  0  0  0  0  0  0  0  0  0
   32.5994   -4.2394   15.5178 C   0  0  0  0  0  0  0  0  0  0  0  0
   32.1287   -3.2381   13.2700 C   0  0  0  0  0  0  0  0  0  0  0  0
   25.6527   -8.6331    8.7041 C   0  0  2  0  0  0  0  0  0  0  0  0
   25.0449   -7.5430    9.5914 C   0  0  0  0  0  0  0  0  0  0  0  0
   26.6165   -8.1083    6.4395 C   0  0  0  0  0  0  0  0  0  0  0  0
   29.5361   -4.2347    7.6958 O   0  0  0  0  0  0  0  0  0  0  0  0
   33.3974   -3.2995   15.7558 O   0  0  0  0  0  0  0  0  0  0  0  0
   32.4448   -5.2418   16.2636 O   0  0  0  0  0  0  0  0  0  0  0  0
   29.9360   -6.5288   10.0573 H   0  0  0  0  0  0  0  0  0  0  0  0
   29.6352   -6.1040   12.4376 H   0  0  0  0  0  0  0  0  0  0  0  0
   31.6105   -2.4452   11.3252 H   0  0  0  0  0  0  0  0  0  0  0  0
   27.4046   -6.8179    9.4861 H   0  0  0  0  0  0  0  0  0  0  0  0
   26.2051   -9.3495   10.6701 H   0  0  0  0  0  0  0  0  0  0  0  0
   26.0610  -10.6335    9.4222 H   0  0  0  0  0  0  0  0  0  0  0  0
   27.4835   -9.5366    9.4222 H   0  0  0  0  0  0  0  0  0  0  0  0
   23.7892   -9.6881    8.5462 H   0  0  0  0  0  0  0  0  0  0  0  0
   24.0860   -8.4880    7.2430 H   0  0  0  0  0  0  0  0  0  0  0  0
   24.9709  -10.0512    7.2430 H   0  0  0  0  0  0  0  0  0  0  0  0
   27.9742   -9.5989    4.6563 H   0  0  0  0  0  0  0  0  0  0  0  0
   27.0194   -9.3959    3.1483 H   0  0  0  0  0  0  0  0  0  0  0  0
   28.7824   -9.0515    3.1483 H   0  0  0  0  0  0  0  0  0  0  0  0
   25.4946   -6.9402    4.2276 H   0  0  0  0  0  0  0  0  0  0  0  0
   26.3923   -6.2669    2.8249 H   0  0  0  0  0  0  0  0  0  0  0  0
   25.8884   -7.9911    2.8249 H   0  0  0  0  0  0  0  0  0  0  0  0
   29.2635   -6.2344    4.4033 H   0  0  0  0  0  0  0  0  0  0  0  0
   29.3733   -7.2866    2.9516 H   0  0  0  0  0  0  0  0  0  0  0  0
   28.2710   -5.8683    2.9516 H   0  0  0  0  0  0  0  0  0  0  0  0
   28.9952   -5.8574    5.6199 H   0  0  0  0  0  0  0  0  0  0  0  0
   29.7102   -3.2809    9.8913 H   0  0  0  0  0  0  0  0  0  0  0  0
   30.8746   -6.0985   14.6395 H   0  0  0  0  0  0  0  0  0  0  0  0
   32.8563   -2.4469   13.5038 H   0  0  0  0  0  0  0  0  0  0  0  0
   25.1920   -7.8068   10.6491 H   0  0  0  0  0  0  0  0  0  0  0  0
   25.5375   -6.5822    9.3812 H   0  0  0  0  0  0  0  0  0  0  0  0
   23.9686   -7.4569    9.3812 H   0  0  0  0  0  0  0  0  0  0  0  0
   25.9548   -8.8632    5.9897 H   0  0  0  0  0  0  0  0  0  0  0  0
  1 16  1  0
  1 17  2  3
  2 18  2  0
  2 19  1  0
  3 19  2  0
  3 20  1  0
  3 21  1  0
  4 18  1  0
  4 21  2  0
  5  6  2  0
  5 15  1  0
  6 22  1  0
  6 24  1  0
 22  7  1  1
  8 22  1  0
 10  9  1  1
 10 11  1  0
 10 12  1  0
 10 13  1  0
 13 14  1  0
 13 24  2  0
 14 15  2  0
 15 16  1  0
 16 25  2  0
 17 18  1  0
 20 26  2  0
 20 27  1  0
 22 23  1  0
  1 28  1  0
  2 29  1  0
  4 30  1  0
  5 31  1  0
  7 32  1  0
  7 33  1  0
  7 34  1  0
  8 35  1  0
  8 36  1  0
  8 37  1  0
  9 38  1  0
  9 39  1  0
  9 40  1  0
 11 41  1  0
 11 42  1  0
 11 43  1  0
 12 44  1  0
 12 45  1  0
 12 46  1  0
 14 47  1  0
 17 48  1  0
 19 49  1  0
 21 50  1  0
 23 51  1  0
 23 52  1  0
 23 53  1  0
 24 54  1  0
M  CHG  1  27  -1
M  END
>  <filename_input>  (2) 
7WQQ_5Z6_docked.sdf

>  <pdb_id>  (2) 
7WQQ_5Z6

>  <pose_rank>  (2) 
1

>  <num_atoms_heavy>  (2) 
27

>  <num_torsions>  (2) 
6

>  <pose>  (2) 
[27.432661922933583, -6.976295292312713, 8.397978160636562, -1.9342656925301127, -2.026184557093563, -1.3792564787978703, -0.732361131127723, 3.3667848434973813, 3.3115816001427865, 0.10277891424956168, -0.49366576272494395, -0.27653704843382926]

>  <energy>  (2) 
-1179.27982833852

>  <inter_energy>  (2) 
-1162.7899709972487

>  <intra_energy>  (2) 
0.0

>  <rmsd>  (2) 
0.425883

>  <sdf_rank>  (2) 
0

$$$$

     RDKit          3D

 54 55  0  0  0  0  0  0  0  0999 V2000
   29.0774   -5.5373    9.7058 C   0  0  0  0  0  0  0  0  0  0  0  0
   30.6815   -5.6203   13.0554 C   0  0  0  0  0  0  0  0  0  0  0  0
   32.2220   -3.8322   13.3264 C   0  0  0  0  0  0  0  0  0  0  0  0
   30.5581   -3.6851   11.6251 C   0  0  0  0  0  0  0  0  0  0  0  0
   27.3380   -7.8758    7.5012 C   0  0  0  0  0  0  0  0  0  0  0  0
   27.3229   -8.3770    6.2257 C   0  0  0  0  0  0  0  0  0  0  0  0
   26.0303  -10.2325    7.3017 C   0  0  0  0  0  0  0  0  0  0  0  0
   27.9298  -10.6990    5.6380 C   0  0  0  0  0  0  0  0  0  0  0  0
   28.9560   -6.2078    2.9392 C   0  0  0  0  0  0  0  0  0  0  0  0
   28.6201   -5.4063    4.1940 C   0  0  2  0  0  0  0  0  0  0  0  0
   27.5202   -4.4019    3.8104 C   0  0  0  0  0  0  0  0  0  0  0  0
   29.8717   -4.6539    4.6421 C   0  0  0  0  0  0  0  0  0  0  0  0
   28.1289   -6.3067    5.3413 C   0  0  0  0  0  0  0  0  0  0  0  0
   28.1566   -5.8160    6.6206 C   0  0  0  0  0  0  0  0  0  0  0  0
   27.7751   -6.5747    7.6950 C   0  0  0  0  0  0  0  0  0  0  0  0
   27.7622   -6.0216    9.1076 C   0  0  0  0  0  0  0  0  0  0  0  0
   28.9197   -5.4619   11.1796 C   0  0  0  0  0  0  0  0  0  0  0  0
   30.1054   -4.9241   12.0054 C   0  0  0  0  0  0  0  0  0  0  0  0
   31.7924   -5.0630   13.7104 C   0  0  0  0  0  0  0  0  0  0  0  0
   33.4453   -3.2334   14.0199 C   0  0  0  0  0  0  0  0  0  0  0  0
   31.6599   -3.1308   12.2653 C   0  0  0  0  0  0  0  0  0  0  0  0
   26.8012   -9.7812    6.0561 C   0  0  2  0  0  0  0  0  0  0  0  0
   25.7971   -9.6811    4.9043 C   0  0  0  0  0  0  0  0  0  0  0  0
   27.7177   -7.6241    5.1399 C   0  0  0  0  0  0  0  0  0  0  0  0
   26.7492   -5.8653    9.7053 O   0  0  0  0  0  0  0  0  0  0  0  0
   33.9560   -2.1884   13.5465 O   0  0  0  0  0  0  0  0  0  0  0  0
   33.9348   -3.8890   14.9768 O   0  0  0  0  0  0  0  0  0  0  0  0
   29.9879   -5.2865    9.1418 H   0  0  0  0  0  0  0  0  0  0  0  0
   30.2761   -6.5929   13.3710 H   0  0  0  0  0  0  0  0  0  0  0  0
   30.0517   -3.1345   10.8186 H   0  0  0  0  0  0  0  0  0  0  0  0
   27.0108   -8.4920    8.3517 H   0  0  0  0  0  0  0  0  0  0  0  0
   26.5733   -9.9147    8.2041 H   0  0  0  0  0  0  0  0  0  0  0  0
   25.0285   -9.7783    7.2975 H   0  0  0  0  0  0  0  0  0  0  0  0
   25.9360  -11.3285    7.2975 H   0  0  0  0  0  0  0  0  0  0  0  0
   28.4255  -11.1020    6.5335 H   0  0  0  0  0  0  0  0  0  0  0  0
   27.5254  -11.5278    5.0383 H   0  0  0  0  0  0  0  0  0  0  0  0
   28.6587  -10.1341    5.0383 H   0  0  0  0  0  0  0  0  0  0  0  0
   29.3661   -7.1867    3.2282 H   0  0  0  0  0  0  0  0  0  0  0  0
   28.0435   -6.3542    2.3425 H   0  0  0  0  0  0  0  0  0  0  0  0
   29.7003   -5.6600    2.3425 H   0  0  0  0  0  0  0  0  0  0  0  0
   27.0671   -3.9881    4.7233 H   0  0  0  0  0  0  0  0  0  0  0  0
   27.9592   -3.5865    3.2168 H   0  0  0  0  0  0  0  0  0  0  0  0
   26.7479   -4.9129    3.2168 H   0  0  0  0  0  0  0  0  0  0  0  0
   29.9114   -4.6300    5.7411 H   0  0  0  0  0  0  0  0  0  0  0  0
   30.7653   -5.1646    4.2539 H   0  0  0  0  0  0  0  0  0  0  0  0
   29.8398   -3.6251    4.2539 H   0  0  0  0  0  0  0  0  0  0  0  0
   28.4951   -4.7830    6.7893 H   0  0  0  0  0  0  0  0  0  0  0  0
   27.9864   -5.7797   11.6674 H   0  0  0  0  0  0  0  0  0  0  0  0
   32.3031   -5.6107   14.5161 H   0  0  0  0  0  0  0  0  0  0  0  0
   32.0756   -2.1650   11.9420 H   0  0  0  0  0  0  0  0  0  0  0  0
   24.7804   -9.5797    5.3119 H   0  0  0  0  0  0  0  0  0  0  0  0
   26.0338   -8.8021    4.2867 H   0  0  0  0  0  0  0  0  0  0  0  0
   25.8556  -10.5895    4.2867 H   0  0  0  0  0  0  0  0  0  0  0  0
   27.7085   -8.0567    4.1286 H   0  0  0  0  0  0  0  0  0  0  0  0
  1 16  1  0
  1 17  2  3
  2 18  2  0
  2 19  1  0
  3 19  2  0
  3 20  1  0
  3 21  1  0
  4 18  1  0
  4 21  2  0
  5  6  2  0
  5 15  1  0
  6 22  1  0
  6 24  1  0
 22  7  1  1
  8 22  1  0
 10  9  1  6
 10 11  1  0
 10 12  1  0
 10 13  1  0
 13 14  1  0
 13 24  2  0
 14 15  2  0
 15 16  1  0
 16 25  2  0
 17 18  1  0
 20 26  2  0
 20 27  1  0
 22 23  1  0
  1 28  1  0
  2 29  1  0
  4 30  1  0
  5 31  1  0
  7 32  1  0
  7 33  1  0
  7 34  1  0
  8 35  1  0
  8 36  1  0
  8 37  1  0
  9 38  1  0
  9 39  1  0
  9 40  1  0
 11 41  1  0
 11 42  1  0
 11 43  1  0
 12 44  1  0
 12 45  1  0
 12 46  1  0
 14 47  1  0
 17 48  1  0
 19 49  1  0
 21 50  1  0
 23 51  1  0
 23 52  1  0
 23 53  1  0
 24 54  1  0
M  CHG  1  27  -1
M  END
>  <filename_input>  (3) 
7WQQ_5Z6_docked.sdf

>  <pdb_id>  (3) 
7WQQ_5Z6

>  <pose_rank>  (3) 
2

>  <num_atoms_heavy>  (3) 
27

>  <num_torsions>  (3) 
6

>  <pose>  (3) 
[27.338018104998486, -7.875845674683431, 7.501201626546635, 1.0817048033292012, 2.142455616635614, 2.564170896500271, 0.7612970284219799, -2.2488439861131444, -14.058255437296895, 6.22314194234523, 4.21779765007629, 5.871383344755973]

>  <energy>  (3) 
-816.7646616578061

>  <inter_energy>  (3) 
-815.0140568130107

>  <intra_energy>  (3) 
0.0

>  <rmsd>  (3) 
2.26911

>  <sdf_rank>  (3) 
0

$$$$

     RDKit          3D

 54 55  0  0  0  0  0  0  0  0999 V2000
   28.6986   -5.5779    9.8389 C   0  0  0  0  0  0  0  0  0  0  0  0
   30.3029   -5.4027   13.3047 C   0  0  0  0  0  0  0  0  0  0  0  0
   31.9916   -3.7331   13.2374 C   0  0  0  0  0  0  0  0  0  0  0  0
   30.4401   -3.8904   11.4338 C   0  0  0  0  0  0  0  0  0  0  0  0
   27.9491   -5.8823    6.9175 C   0  0  0  0  0  0  0  0  0  0  0  0
   27.9287   -6.3208    5.6192 C   0  0  0  0  0  0  0  0  0  0  0  0
   29.1926   -6.3108    3.4572 C   0  0  0  0  0  0  0  0  0  0  0  0
   29.6493   -4.5772    5.2955 C   0  0  0  0  0  0  0  0  0  0  0  0
   24.7826   -9.8214    6.7726 C   0  0  0  0  0  0  0  0  0  0  0  0
   26.0442   -9.6351    5.9339 C   0  0  2  0  0  0  0  0  0  0  0  0
   25.6154   -9.6607    4.4570 C   0  0  0  0  0  0  0  0  0  0  0  0
   26.9935  -10.7984    6.2152 C   0  0  0  0  0  0  0  0  0  0  0  0
   26.7572   -8.3081    6.2484 C   0  0  0  0  0  0  0  0  0  0  0  0
   26.7670   -7.8573    7.5425 C   0  0  0  0  0  0  0  0  0  0  0  0
   27.3450   -6.6650    7.8890 C   0  0  0  0  0  0  0  0  0  0  0  0
   27.3971   -6.1830    9.3265 C   0  0  0  0  0  0  0  0  0  0  0  0
   28.6642   -5.5856   11.3226 C   0  0  0  0  0  0  0  0  0  0  0  0
   29.8515   -4.9521   12.0749 C   0  0  0  0  0  0  0  0  0  0  0  0
   31.4266   -4.7879   13.8817 C   0  0  0  0  0  0  0  0  0  0  0  0
   33.2290   -3.0775   13.8496 C   0  0  0  0  0  0  0  0  0  0  0  0
   31.5553   -3.2815   11.9966 C   0  0  0  0  0  0  0  0  0  0  0  0
   28.6333   -5.4591    4.6023 C   0  0  2  0  0  0  0  0  0  0  0  0
   27.5291   -4.5722    4.0198 C   0  0  0  0  0  0  0  0  0  0  0  0
   27.3375   -7.5137    5.2598 C   0  0  0  0  0  0  0  0  0  0  0  0
   26.4307   -6.1728   10.0147 O   0  0  0  0  0  0  0  0  0  0  0  0
   33.5610   -1.9315   13.4578 O   0  0  0  0  0  0  0  0  0  0  0  0
   33.9079   -3.7765   14.6468 O   0  0  0  0  0  0  0  0  0  0  0  0
   29.5224   -5.2000    9.2156 H   0  0  0  0  0  0  0  0  0  0  0  0
   29.7902   -6.2278   13.8207 H   0  0  0  0  0  0  0  0  0  0  0  0
   30.0314   -3.5239   10.4806 H   0  0  0  0  0  0  0  0  0  0  0  0
   28.4337   -4.9310    7.1825 H   0  0  0  0  0  0  0  0  0  0  0  0
   29.7517   -7.1621    3.8727 H   0  0  0  0  0  0  0  0  0  0  0  0
   28.3631   -6.6837    2.8386 H   0  0  0  0  0  0  0  0  0  0  0  0
   29.8645   -5.6977    2.8386 H   0  0  0  0  0  0  0  0  0  0  0  0
   29.5368   -4.6749    6.3854 H   0  0  0  0  0  0  0  0  0  0  0  0
   30.6636   -4.8861    5.0025 H   0  0  0  0  0  0  0  0  0  0  0  0
   29.4861   -3.5295    5.0025 H   0  0  0  0  0  0  0  0  0  0  0  0
   25.0434   -9.7829    7.8405 H   0  0  0  0  0  0  0  0  0  0  0  0
   24.0665   -9.0193    6.5408 H   0  0  0  0  0  0  0  0  0  0  0  0
   24.3289  -10.7963    6.5408 H   0  0  0  0  0  0  0  0  0  0  0  0
   24.5192   -9.7259    4.3945 H   0  0  0  0  0  0  0  0  0  0  0  0
   25.9569   -8.7406    3.9601 H   0  0  0  0  0  0  0  0  0  0  0  0
   26.0636  -10.5337    3.9601 H   0  0  0  0  0  0  0  0  0  0  0  0
   27.1007  -10.9296    7.3020 H   0  0  0  0  0  0  0  0  0  0  0  0
   26.5860  -11.7194    5.7730 H   0  0  0  0  0  0  0  0  0  0  0  0
   27.9776  -10.5837    5.7730 H   0  0  0  0  0  0  0  0  0  0  0  0
   26.2971   -8.4706    8.3255 H   0  0  0  0  0  0  0  0  0  0  0  0
   27.8184   -6.0292   11.8683 H   0  0  0  0  0  0  0  0  0  0  0  0
   31.8399   -5.1521   14.8338 H   0  0  0  0  0  0  0  0  0  0  0  0
   32.0779   -2.4657   11.4756 H   0  0  0  0  0  0  0  0  0  0  0  0
   26.9571   -4.1128    4.8394 H   0  0  0  0  0  0  0  0  0  0  0  0
   27.9809   -3.7831    3.4008 H   0  0  0  0  0  0  0  0  0  0  0  0
   26.8561   -5.1837    3.4008 H   0  0  0  0  0  0  0  0  0  0  0  0
   27.3238   -7.8343    4.2077 H   0  0  0  0  0  0  0  0  0  0  0  0
  1 16  1  0
  1 17  2  3
  2 18  2  0
  2 19  1  0
  3 19  2  0
  3 20  1  0
  3 21  1  0
  4 18  1  0
  4 21  2  0
  5  6  2  0
  5 15  1  0
  6 22  1  0
  6 24  1  0
 22  7  1  6
  8 22  1  0
 10  9  1  1
 10 11  1  0
 10 12  1  0
 10 13  1  0
 13 14  1  0
 13 24  2  0
 14 15  2  0
 15 16  1  0
 16 25  2  0
 17 18  1  0
 20 26  2  0
 20 27  1  0
 22 23  1  0
  1 28  1  0
  2 29  1  0
  4 30  1  0
  5 31  1  0
  7 32  1  0
  7 33  1  0
  7 34  1  0
  8 35  1  0
  8 36  1  0
  8 37  1  0
  9 38  1  0
  9 39  1  0
  9 40  1  0
 11 41  1  0
 11 42  1  0
 11 43  1  0
 12 44  1  0
 12 45  1  0
 12 46  1  0
 14 47  1  0
 17 48  1  0
 19 49  1  0
 21 50  1  0
 23 51  1  0
 23 52  1  0
 23 53  1  0
 24 54  1  0
M  CHG  1  27  -1
M  END
>  <filename_input>  (4) 
7WQQ_5Z6_docked.sdf

>  <pdb_id>  (4) 
7WQQ_5Z6

>  <pose_rank>  (4) 
3

>  <num_atoms_heavy>  (4) 
27

>  <num_torsions>  (4) 
6

>  <pose>  (4) 
[27.949113148481793, -5.882272572651683, 6.917480035911339, -3.55193762435146, 3.143174343722297, -2.5075278563617447, -3.1858025873972062, 1.854618483669863, -16.89542296666275, -6.346266684480501, -2.458901405949689, 0.0574786988666833]

>  <energy>  (4) 
-777.0603415460686

>  <inter_energy>  (4) 
-772.1884230999714

>  <intra_energy>  (4) 
0.0

>  <rmsd>  (4) 
2.33505

>  <sdf_rank>  (4) 
0

$$$$

     RDKit          3D

 54 55  0  0  0  0  0  0  0  0999 V2000
   29.5712   -5.4429    9.6819 C   0  0  0  0  0  0  0  0  0  0  0  0
   31.4549   -5.9431   12.4927 C   0  0  0  0  0  0  0  0  0  0  0  0
   31.9415   -4.2511   14.0878 C   0  0  0  0  0  0  0  0  0  0  0  0
   31.4713   -3.6248   11.8358 C   0  0  0  0  0  0  0  0  0  0  0  0
   28.3158   -7.0051    6.3807 C   0  0  0  0  0  0  0  0  0  0  0  0
   27.3983   -7.9314    5.9583 C   0  0  0  0  0  0  0  0  0  0  0  0
   28.6653   -8.4865    3.8707 C   0  0  0  0  0  0  0  0  0  0  0  0
   26.5866   -6.9796    3.8274 C   0  0  0  0  0  0  0  0  0  0  0  0
   24.8737   -8.3472    9.8473 C   0  0  0  0  0  0  0  0  0  0  0  0
   25.9893   -9.2172    9.2745 C   0  0  2  0  0  0  0  0  0  0  0  0
   25.3237  -10.4516    8.6430 C   0  0  0  0  0  0  0  0  0  0  0  0
   26.9041   -9.6531   10.4177 C   0  0  0  0  0  0  0  0  0  0  0  0
   26.8187   -8.4708    8.2146 C   0  0  0  0  0  0  0  0  0  0  0  0
   27.7265   -7.5322    8.6309 C   0  0  0  0  0  0  0  0  0  0  0  0
   28.4684   -6.7996    7.7430 C   0  0  0  0  0  0  0  0  0  0  0  0
   29.5059   -5.7913    8.1998 C   0  0  0  0  0  0  0  0  0  0  0  0
   30.9949   -5.2479   10.0529 C   0  0  0  0  0  0  0  0  0  0  0  0
   31.3216   -4.9550   11.5308 C   0  0  0  0  0  0  0  0  0  0  0  0
   31.8054   -5.5727   13.8017 C   0  0  0  0  0  0  0  0  0  0  0  0
   32.3469   -3.8457   15.5045 C   0  0  0  0  0  0  0  0  0  0  0  0
   31.8234   -3.2523   13.1274 C   0  0  0  0  0  0  0  0  0  0  0  0
   27.2949   -8.1524    4.4706 C   0  0  2  0  0  0  0  0  0  0  0  0
   26.4139   -9.3968    4.3278 C   0  0  0  0  0  0  0  0  0  0  0  0
   26.6379   -8.6641    6.8453 C   0  0  0  0  0  0  0  0  0  0  0  0
   30.3204   -5.3559    7.4549 O   0  0  0  0  0  0  0  0  0  0  0  0
   32.2215   -4.6838   16.4312 O   0  0  0  0  0  0  0  0  0  0  0  0
   32.6912   -2.6470   15.6769 O   0  0  0  0  0  0  0  0  0  0  0  0
   28.7104   -5.3515   10.3606 H   0  0  0  0  0  0  0  0  0  0  0  0
   31.2890   -6.9997   12.2359 H   0  0  0  0  0  0  0  0  0  0  0  0
   31.3134   -2.8587   11.0624 H   0  0  0  0  0  0  0  0  0  0  0  0
   28.9174   -6.4378    5.6552 H   0  0  0  0  0  0  0  0  0  0  0  0
   29.3875   -8.6625    4.6815 H   0  0  0  0  0  0  0  0  0  0  0  0
   28.5832   -9.3909    3.2500 H   0  0  0  0  0  0  0  0  0  0  0  0
   29.0087   -7.6457    3.2500 H   0  0  0  0  0  0  0  0  0  0  0  0
   26.1872   -6.3183    4.6104 H   0  0  0  0  0  0  0  0  0  0  0  0
   27.2977   -6.4198    3.2022 H   0  0  0  0  0  0  0  0  0  0  0  0
   25.7601   -7.3484    3.2022 H   0  0  0  0  0  0  0  0  0  0  0  0
   24.9126   -8.3775   10.9462 H   0  0  0  0  0  0  0  0  0  0  0  0
   25.0045   -7.3103    9.5042 H   0  0  0  0  0  0  0  0  0  0  0  0
   23.8999   -8.7268    9.5042 H   0  0  0  0  0  0  0  0  0  0  0  0
   24.9629  -11.1207    9.4380 H   0  0  0  0  0  0  0  0  0  0  0  0
   24.4756  -10.1321    8.0196 H   0  0  0  0  0  0  0  0  0  0  0  0
   26.0566  -10.9847    8.0196 H   0  0  0  0  0  0  0  0  0  0  0  0
   26.4230   -9.4239   11.3800 H   0  0  0  0  0  0  0  0  0  0  0  0
   27.0876  -10.7354   10.3481 H   0  0  0  0  0  0  0  0  0  0  0  0
   27.8603   -9.1138   10.3481 H   0  0  0  0  0  0  0  0  0  0  0  0
   27.8631   -7.3625    9.7091 H   0  0  0  0  0  0  0  0  0  0  0  0
   31.7919   -5.3103    9.2972 H   0  0  0  0  0  0  0  0  0  0  0  0
   31.9662   -6.3354   14.5779 H   0  0  0  0  0  0  0  0  0  0  0  0
   32.0036   -2.1976   13.3829 H   0  0  0  0  0  0  0  0  0  0  0  0
   26.1471   -9.7737    5.3262 H   0  0  0  0  0  0  0  0  0  0  0  0
   25.4979   -9.1364    3.7773 H   0  0  0  0  0  0  0  0  0  0  0  0
   26.9640  -10.1742    3.7773 H   0  0  0  0  0  0  0  0  0  0  0  0
   25.8988   -9.3911    6.4778 H   0  0  0  0  0  0  0  0  0  0  0  0
  1 16  1  0
  1 17  2  3
  2 18  2  0
  2 19  1  0
  3 19  2  0
  3 20  1  0
  3 21  1  0
  4 18  1  0
  4 21  2  0
  5  6  2  0
  5 15  1  0
  6 22  1  0
  6 24  1  0
 22  7  1  6
  8 22  1  0
 10  9  1  1
 10 11  1  0
 10 12  1  0
 10 13  1  0
 13 14  1  0
 13 24  2  0
 14 15  2  0
 15 16  1  0
 16 25  2  0
 17 18  1  0
 20 26  2  0
 20 27  1  0
 22 23  1  0
  1 28  1  0
  2 29  1  0
  4 30  1  0
  5 31  1  0
  7 32  1  0
  7 33  1  0
  7 34  1  0
  8 35  1  0
  8 36  1  0
  8 37  1  0
  9 38  1  0
  9 39  1  0
  9 40  1  0
 11 41  1  0
 11 42  1  0
 11 43  1  0
 12 44  1  0
 12 45  1  0
 12 46  1  0
 14 47  1  0
 17 48  1  0
 19 49  1  0
 21 50  1  0
 23 51  1  0
 23 52  1  0
 23 53  1  0
 24 54  1  0
M  CHG  1  27  -1
M  END
>  <filename_input>  (5) 
7WQQ_5Z6_docked.sdf

>  <pdb_id>  (5) 
7WQQ_5Z6

>  <pose_rank>  (5) 
4

>  <num_atoms_heavy>  (5) 
27

>  <num_torsions>  (5) 
6

>  <pose>  (5) 
[28.315836248391328, -7.005101656508961, 6.380686409629128, -0.04478295027005161, 0.16986733976202165, 0.050092035840742476, 1.4286585353075028, -3.744579202750888, 5.698267905619664, -1.0154405809298637, 1.5747223782623285, 2.596964831933927]

>  <energy>  (5) 
-997.8482008190293

>  <inter_energy>  (5) 
-997.0553708901905

>  <intra_energy>  (5) 
0.0

>  <rmsd>  (5) 
0.981981

>  <sdf_rank>  (5) 
0

$$$$

     RDKit          3D

 54 55  0  0  0  0  0  0  0  0999 V2000
   28.0104   -6.0152   10.8596 C   0  0  0  0  0  0  0  0  0  0  0  0
   30.9038   -3.7491   11.5886 C   0  0  0  0  0  0  0  0  0  0  0  0
   31.8282   -4.2494   13.7190 C   0  0  0  0  0  0  0  0  0  0  0  0
   30.4143   -5.8509   12.6604 C   0  0  0  0  0  0  0  0  0  0  0  0
   29.1052   -5.4265    8.2418 C   0  0  0  0  0  0  0  0  0  0  0  0
   29.7291   -5.1983    7.0431 C   0  0  0  0  0  0  0  0  0  0  0  0
   30.7718   -3.1327    8.0011 C   0  0  0  0  0  0  0  0  0  0  0  0
   31.3931   -3.9992    5.6652 C   0  0  0  0  0  0  0  0  0  0  0  0
   28.5073   -8.2992    4.0349 C   0  0  0  0  0  0  0  0  0  0  0  0
   27.5782   -7.2448    4.6304 C   0  0  2  0  0  0  0  0  0  0  0  0
   26.2525   -7.9472    4.9695 C   0  0  0  0  0  0  0  0  0  0  0  0
   27.3339   -6.1612    3.5818 C   0  0  0  0  0  0  0  0  0  0  0  0
   28.1689   -6.6030    5.8983 C   0  0  0  0  0  0  0  0  0  0  0  0
   27.5399   -6.8152    7.0972 C   0  0  0  0  0  0  0  0  0  0  0  0
   27.9842   -6.2417    8.2588 C   0  0  0  0  0  0  0  0  0  0  0  0
   27.3177   -6.5090    9.5952 C   0  0  0  0  0  0  0  0  0  0  0  0
   29.3402   -5.4750   10.4822 C   0  0  0  0  0  0  0  0  0  0  0  0
   30.2637   -4.9776   11.6120 C   0  0  0  0  0  0  0  0  0  0  0  0
   31.6834   -3.3692   12.6938 C   0  0  0  0  0  0  0  0  0  0  0  0
   32.6554   -3.8300   14.9339 C   0  0  0  0  0  0  0  0  0  0  0  0
   31.1797   -5.4789   13.7591 C   0  0  0  0  0  0  0  0  0  0  0  0
   30.9680   -4.3400    7.0772 C   0  0  2  0  0  0  0  0  0  0  0  0
   32.0376   -5.2349    7.7098 C   0  0  0  0  0  0  0  0  0  0  0  0
   29.2806   -5.7614    5.8669 C   0  0  0  0  0  0  0  0  0  0  0  0
   26.2371   -6.9939    9.6655 O   0  0  0  0  0  0  0  0  0  0  0  0
   32.1154   -3.8497   16.0674 O   0  0  0  0  0  0  0  0  0  0  0  0
   33.8124   -3.3874   14.7093 O   0  0  0  0  0  0  0  0  0  0  0  0
   27.5957   -6.0528   11.8777 H   0  0  0  0  0  0  0  0  0  0  0  0
   30.8031   -3.0824   10.7195 H   0  0  0  0  0  0  0  0  0  0  0  0
   29.9321   -6.8392   12.6311 H   0  0  0  0  0  0  0  0  0  0  0  0
   29.4854   -4.9733    9.1692 H   0  0  0  0  0  0  0  0  0  0  0  0
   30.8251   -3.4609    9.0497 H   0  0  0  0  0  0  0  0  0  0  0  0
   31.5612   -2.3913    7.8084 H   0  0  0  0  0  0  0  0  0  0  0  0
   29.7882   -2.6795    7.8084 H   0  0  0  0  0  0  0  0  0  0  0  0
   32.2509   -3.3114    5.6964 H   0  0  0  0  0  0  0  0  0  0  0  0
   31.6804   -4.9200    5.1364 H   0  0  0  0  0  0  0  0  0  0  0  0
   30.5567   -3.5185    5.1364 H   0  0  0  0  0  0  0  0  0  0  0  0
   28.9980   -8.8561    4.8467 H   0  0  0  0  0  0  0  0  0  0  0  0
   27.9228   -8.9945    3.4143 H   0  0  0  0  0  0  0  0  0  0  0  0
   29.2706   -7.8069    3.4143 H   0  0  0  0  0  0  0  0  0  0  0  0
   26.1385   -8.0076    6.0619 H   0  0  0  0  0  0  0  0  0  0  0  0
   25.4150   -7.3745    4.5446 H   0  0  0  0  0  0  0  0  0  0  0  0
   26.2560   -8.9618    4.5446 H   0  0  0  0  0  0  0  0  0  0  0  0
   27.1187   -5.2066    4.0843 H   0  0  0  0  0  0  0  0  0  0  0  0
   28.2297   -6.0508    2.9530 H   0  0  0  0  0  0  0  0  0  0  0  0
   26.4774   -6.4458    2.9530 H   0  0  0  0  0  0  0  0  0  0  0  0
   26.6528   -7.4649    7.1274 H   0  0  0  0  0  0  0  0  0  0  0  0
   29.6569   -5.4310    9.4297 H   0  0  0  0  0  0  0  0  0  0  0  0
   32.1659   -2.3813   12.7284 H   0  0  0  0  0  0  0  0  0  0  0  0
   31.2700   -6.1380   14.6351 H   0  0  0  0  0  0  0  0  0  0  0  0
   31.9651   -5.1743    8.8057 H   0  0  0  0  0  0  0  0  0  0  0  0
   31.8816   -6.2755    7.3890 H   0  0  0  0  0  0  0  0  0  0  0  0
   33.0343   -4.8978    7.3890 H   0  0  0  0  0  0  0  0  0  0  0  0
   29.7928   -5.5496    4.9167 H   0  0  0  0  0  0  0  0  0  0  0  0
  1 16  1  0
  1 17  2  3
  2 18  2  0
  2 19  1  0
  3 19  2  0
  3 20  1  0
  3 21  1  0
  4 18  1  0
  4 21  2  0
  5  6  2  0
  5 15  1  0
  6 22  1  0
  6 24  1  0
 22  7  1  1
  8 22  1  0
 10  9  1  6
 10 11  1  0
 10 12  1  0
 10 13  1  0
 13 14  1  0
 13 24  2  0
 14 15  2  0
 15 16  1  0
 16 25  2  0
 17 18  1  0
 20 26  2  0
 20 27  1  0
 22 23  1  0
  1 28  1  0
  2 29  1  0
  4 30  1  0
  5 31  1  0
  7 32  1  0
  7 33  1  0
  7 34  1  0
  8 35  1  0
  8 36  1  0
  8 37  1  0
  9 38  1  0
  9 39  1  0
  9 40  1  0
 11 41  1  0
 11 42  1  0
 11 43  1  0
 12 44  1  0
 12 45  1  0
 12 46  1  0
 14 47  1  0
 17 48  1  0
 19 49  1  0
 21 50  1  0
 23 51  1  0
 23 52  1  0
 23 53  1  0
 24 54  1  0
M  CHG  1  27  -1
M  END
>  <filename_input>  (6) 
7WQQ_5Z6_docked.sdf

>  <pdb_id>  (6) 
7WQQ_5Z6

>  <pose_rank>  (6) 
5

>  <num_atoms_heavy>  (6) 
27

>  <num_torsions>  (6) 
6

>  <pose>  (6) 
[29.105210059311247, -5.4265457250196185, 8.241832190914998, -2.8562847427721825, 3.716814610935507, -0.41270667292752583, -0.25657203913000615, -0.7761827961197132, -16.304512426954634, 2.6569230772688774, -2.1653063505418557, -1.2418201160613942]

>  <energy>  (6) 
-726.9552553829433

>  <inter_energy>  (6) 
-812.2548423844929

>  <intra_energy>  (6) 
77.34745824488503

>  <rmsd>  (6) 
3.45571

>  <sdf_rank>  (6) 
0

$$$$

     RDKit          3D

 54 55  0  0  0  0  0  0  0  0999 V2000
   29.6138   -5.3022    9.6152 C   0  0  0  0  0  0  0  0  0  0  0  0
   31.9423   -3.4670   11.9813 C   0  0  0  0  0  0  0  0  0  0  0  0
   31.8675   -4.5084   14.1152 C   0  0  0  0  0  0  0  0  0  0  0  0
   30.2231   -5.0782   12.4856 C   0  0  0  0  0  0  0  0  0  0  0  0
   28.3899   -6.0684    6.1259 C   0  0  0  0  0  0  0  0  0  0  0  0
   27.6809   -7.0254    5.4480 C   0  0  0  0  0  0  0  0  0  0  0  0
   28.6345   -8.3985    3.5834 C   0  0  0  0  0  0  0  0  0  0  0  0
   28.5654   -5.8341    3.4723 C   0  0  0  0  0  0  0  0  0  0  0  0
   26.5216   -9.5306    9.3678 C   0  0  0  0  0  0  0  0  0  0  0  0
   25.7803   -8.7562    8.2814 C   0  0  2  0  0  0  0  0  0  0  0  0
   24.6984   -7.9158    8.9808 C   0  0  0  0  0  0  0  0  0  0  0  0
   25.1227   -9.7558    7.3317 C   0  0  0  0  0  0  0  0  0  0  0  0
   26.7208   -7.8369    7.4821 C   0  0  0  0  0  0  0  0  0  0  0  0
   27.4202   -6.8679    8.1530 C   0  0  0  0  0  0  0  0  0  0  0  0
   28.2424   -5.9873    7.5019 C   0  0  0  0  0  0  0  0  0  0  0  0
   29.0525   -4.9418    8.2450 C   0  0  0  0  0  0  0  0  0  0  0  0
   30.1273   -4.0628   10.2496 C   0  0  0  0  0  0  0  0  0  0  0  0
   30.8139   -4.1873   11.6244 C   0  0  0  0  0  0  0  0  0  0  0  0
   32.4599   -3.6161   13.2787 C   0  0  0  0  0  0  0  0  0  0  0  0
   32.4126   -4.6553   15.5355 C   0  0  0  0  0  0  0  0  0  0  0  0
   30.7269   -5.2262   13.7722 C   0  0  0  0  0  0  0  0  0  0  0  0
   27.9030   -7.1049    3.9590 C   0  0  2  0  0  0  0  0  0  0  0  0
   26.4940   -7.1833    3.3644 C   0  0  0  0  0  0  0  0  0  0  0  0
   26.8408   -7.9076    6.0944 C   0  0  0  0  0  0  0  0  0  0  0  0
   29.3397   -3.9054    7.7439 O   0  0  0  0  0  0  0  0  0  0  0  0
   33.2683   -5.5455   15.7643 O   0  0  0  0  0  0  0  0  0  0  0  0
   31.8893   -3.9325   16.4236 O   0  0  0  0  0  0  0  0  0  0  0  0
   29.6347   -6.3089   10.0581 H   0  0  0  0  0  0  0  0  0  0  0  0
   32.4247   -2.7899   11.2610 H   0  0  0  0  0  0  0  0  0  0  0  0
   29.3561   -5.6714   12.1592 H   0  0  0  0  0  0  0  0  0  0  0  0
   29.0605   -5.3802    5.5905 H   0  0  0  0  0  0  0  0  0  0  0  0
   28.9345   -8.9292    4.4990 H   0  0  0  0  0  0  0  0  0  0  0  0
   27.9651   -9.0394    2.9908 H   0  0  0  0  0  0  0  0  0  0  0  0
   29.5287   -8.1553    2.9908 H   0  0  0  0  0  0  0  0  0  0  0  0
   28.8801   -5.2305    4.3364 H   0  0  0  0  0  0  0  0  0  0  0  0
   29.4453   -6.0892    2.8634 H   0  0  0  0  0  0  0  0  0  0  0  0
   27.8524   -5.2589    2.8634 H   0  0  0  0  0  0  0  0  0  0  0  0
   26.1893   -9.1834   10.3572 H   0  0  0  0  0  0  0  0  0  0  0  0
   26.3062  -10.6044    9.2645 H   0  0  0  0  0  0  0  0  0  0  0  0
   27.6038   -9.3622    9.2645 H   0  0  0  0  0  0  0  0  0  0  0  0
   24.8130   -8.0048   10.0712 H   0  0  0  0  0  0  0  0  0  0  0  0
   24.8053   -6.8616    8.6856 H   0  0  0  0  0  0  0  0  0  0  0  0
   23.7034   -8.2802    8.6856 H   0  0  0  0  0  0  0  0  0  0  0  0
   24.6105  -10.5344    7.9161 H   0  0  0  0  0  0  0  0  0  0  0  0
   24.3917   -9.2328    6.6976 H   0  0  0  0  0  0  0  0  0  0  0  0
   25.8924  -10.2200    6.6976 H   0  0  0  0  0  0  0  0  0  0  0  0
   27.3182   -6.7954    9.2459 H   0  0  0  0  0  0  0  0  0  0  0  0
   30.0214   -3.0861    9.7547 H   0  0  0  0  0  0  0  0  0  0  0  0
   33.3255   -3.0237   13.6102 H   0  0  0  0  0  0  0  0  0  0  0  0
   30.2377   -5.8920   14.4984 H   0  0  0  0  0  0  0  0  0  0  0  0
   25.7546   -7.2244    4.1777 H   0  0  0  0  0  0  0  0  0  0  0  0
   26.3077   -6.2941    2.7442 H   0  0  0  0  0  0  0  0  0  0  0  0
   26.4075   -8.0876    2.7442 H   0  0  0  0  0  0  0  0  0  0  0  0
   26.2732   -8.6569    5.5232 H   0  0  0  0  0  0  0  0  0  0  0  0
  1 16  1  0
  1 17  2  3
  2 18  2  0
  2 19  1  0
  3 19  2  0
  3 20  1  0
  3 21  1  0
  4 18  1  0
  4 21  2  0
  5  6  2  0
  5 15  1  0
  6 22  1  0
  6 24  1  0
 22  7  1  1
  8 22  1  0
 10  9  1  1
 10 11  1  0
 10 12  1  0
 10 13  1  0
 13 14  1  0
 13 24  2  0
 14 15  2  0
 15 16  1  0
 16 25  2  0
 17 18  1  0
 20 26  2  0
 20 27  1  0
 22 23  1  0
  1 28  1  0
  2 29  1  0
  4 30  1  0
  5 31  1  0
  7 32  1  0
  7 33  1  0
  7 34  1  0
  8 35  1  0
  8 36  1  0
  8 37  1  0
  9 38  1  0
  9 39  1  0
  9 40  1  0
 11 41  1  0
 11 42  1  0
 11 43  1  0
 12 44  1  0
 12 45  1  0
 12 46  1  0
 14 47  1  0
 17 48  1  0
 19 49  1  0
 21 50  1  0
 23 51  1  0
 23 52  1  0
 23 53  1  0
 24 54  1  0
M  CHG  1  27  -1
M  END
>  <filename_input>  (7) 
7WQQ_5Z6_docked.sdf

>  <pdb_id>  (7) 
7WQQ_5Z6

>  <pose_rank>  (7) 
6

>  <num_atoms_heavy>  (7) 
27

>  <num_torsions>  (7) 
6

>  <pose>  (7) 
[28.389857599077306, -6.068350816581099, 6.12593686132957, -1.2283246695119723, 1.6209364656751457, -5.775256516152182, -3.853663415485384, 0.18632424124953478, 0.18868531440585923, -12.749635270390169, -3.712601970923403, 1.2652290321218806]

>  <energy>  (7) 
-1103.4030370640876

>  <inter_energy>  (7) 
-1089.250567490088

>  <intra_energy>  (7) 
0.0

>  <rmsd>  (7) 
0.553776

>  <sdf_rank>  (7) 
0

$$$$

     RDKit          3D

 54 55  0  0  0  0  0  0  0  0999 V2000
   30.6260   -5.5192    8.2035 C   0  0  0  0  0  0  0  0  0  0  0  0
   32.6943   -2.9169    6.2647 C   0  0  0  0  0  0  0  0  0  0  0  0
   34.9453   -3.6761    6.2510 C   0  0  0  0  0  0  0  0  0  0  0  0
   33.3363   -4.8336    7.5762 C   0  0  0  0  0  0  0  0  0  0  0  0
   28.2988   -6.4647    6.5420 C   0  0  0  0  0  0  0  0  0  0  0  0
   27.4143   -7.2590    5.8600 C   0  0  0  0  0  0  0  0  0  0  0  0
   26.7052   -8.4514    3.7751 C   0  0  0  0  0  0  0  0  0  0  0  0
   29.0859   -7.5329    4.0611 C   0  0  0  0  0  0  0  0  0  0  0  0
   25.7950   -9.5702    9.7192 C   0  0  0  0  0  0  0  0  0  0  0  0
   25.2172   -8.6046    8.6880 C   0  0  2  0  0  0  0  0  0  0  0  0
   24.3665   -7.5775    9.4542 C   0  0  0  0  0  0  0  0  0  0  0  0
   24.3308   -9.3922    7.7249 C   0  0  0  0  0  0  0  0  0  0  0  0
   26.3180   -7.8817    7.8918 C   0  0  0  0  0  0  0  0  0  0  0  0
   27.1954   -7.0739    8.5669 C   0  0  0  0  0  0  0  0  0  0  0  0
   28.1731   -6.3668    7.9190 C   0  0  0  0  0  0  0  0  0  0  0  0
   29.1742   -5.5062    8.6665 C   0  0  0  0  0  0  0  0  0  0  0  0
   30.9802   -4.1544    7.7406 C   0  0  0  0  0  0  0  0  0  0  0  0
   32.3887   -3.9347    7.1535 C   0  0  0  0  0  0  0  0  0  0  0  0
   34.0220   -2.7725    5.8291 C   0  0  0  0  0  0  0  0  0  0  0  0
   36.3956   -3.5078    5.7990 C   0  0  0  0  0  0  0  0  0  0  0  0
   34.6526   -4.6929    7.1534 C   0  0  0  0  0  0  0  0  0  0  0  0
   27.6133   -7.3691    4.3696 C   0  0  2  0  0  0  0  0  0  0  0  0
   27.1431   -6.0198    3.8189 C   0  0  0  0  0  0  0  0  0  0  0  0
   26.4189   -7.9641    6.5032 C   0  0  0  0  0  0  0  0  0  0  0  0
   28.8346   -4.7578    9.5223 O   0  0  0  0  0  0  0  0  0  0  0  0
   36.8625   -2.3473    5.6890 O   0  0  0  0  0  0  0  0  0  0  0  0
   37.0116   -4.5528    5.4623 O   0  0  0  0  0  0  0  0  0  0  0  0
   31.2966   -6.3911    8.2111 H   0  0  0  0  0  0  0  0  0  0  0  0
   31.9105   -2.2334    5.9061 H   0  0  0  0  0  0  0  0  0  0  0  0
   33.0554   -5.6601    8.2455 H   0  0  0  0  0  0  0  0  0  0  0  0
   29.0902   -5.9175    6.0090 H   0  0  0  0  0  0  0  0  0  0  0  0
   26.2294   -9.0185    4.5887 H   0  0  0  0  0  0  0  0  0  0  0  0
   25.9292   -7.9790    3.1549 H   0  0  0  0  0  0  0  0  0  0  0  0
   27.3053   -9.1336    3.1549 H   0  0  0  0  0  0  0  0  0  0  0  0
   29.6528   -7.5960    5.0017 H   0  0  0  0  0  0  0  0  0  0  0  0
   29.2384   -8.4536    3.4787 H   0  0  0  0  0  0  0  0  0  0  0  0
   29.4370   -6.6683    3.4787 H   0  0  0  0  0  0  0  0  0  0  0  0
   25.5740   -9.2008   10.7315 H   0  0  0  0  0  0  0  0  0  0  0  0
   25.3431  -10.5640    9.5847 H   0  0  0  0  0  0  0  0  0  0  0  0
   26.8844   -9.6415    9.5847 H   0  0  0  0  0  0  0  0  0  0  0  0
   24.4933   -7.7306   10.5361 H   0  0  0  0  0  0  0  0  0  0  0  0
   24.6907   -6.5608    9.1872 H   0  0  0  0  0  0  0  0  0  0  0  0
   23.3073   -7.7066    9.1872 H   0  0  0  0  0  0  0  0  0  0  0  0
   23.6292  -10.0155    8.2987 H   0  0  0  0  0  0  0  0  0  0  0  0
   23.7659   -8.6926    7.0912 H   0  0  0  0  0  0  0  0  0  0  0  0
   24.9589  -10.0355    7.0912 H   0  0  0  0  0  0  0  0  0  0  0  0
   27.1120   -6.9911    9.6606 H   0  0  0  0  0  0  0  0  0  0  0  0
   30.2605   -3.3257    7.8140 H   0  0  0  0  0  0  0  0  0  0  0  0
   34.3080   -1.9465    5.1614 H   0  0  0  0  0  0  0  0  0  0  0  0
   35.4403   -5.3665    7.5219 H   0  0  0  0  0  0  0  0  0  0  0  0
   26.9077   -5.3446    4.6547 H   0  0  0  0  0  0  0  0  0  0  0  0
   27.9399   -5.5773    3.2031 H   0  0  0  0  0  0  0  0  0  0  0  0
   26.2437   -6.1684    3.2031 H   0  0  0  0  0  0  0  0  0  0  0  0
   25.7140   -8.5831    5.9288 H   0  0  0  0  0  0  0  0  0  0  0  0
  1 16  1  0
  1 17  2  3
  2 18  2  0
  2 19  1  0
  3 19  2  0
  3 20  1  0
  3 21  1  0
  4 18  1  0
  4 21  2  0
  5  6  2  0
  5 15  1  0
  6 22  1  0
  6 24  1  0
 22  7  1  6
  8 22  1  0
 10  9  1  1
 10 11  1  0
 10 12  1  0
 10 13  1  0
 13 14  1  0
 13 24  2  0
 14 15  2  0
 15 16  1  0
 16 25  2  0
 17 18  1  0
 20 26  2  0
 20 27  1  0
 22 23  1  0
  1 28  1  0
  2 29  1  0
  4 30  1  0
  5 31  1  0
  7 32  1  0
  7 33  1  0
  7 34  1  0
  8 35  1  0
  8 36  1  0
  8 37  1  0
  9 38  1  0
  9 39  1  0
  9 40  1  0
 11 41  1  0
 11 42  1  0
 11 43  1  0
 12 44  1  0
 12 45  1  0
 12 46  1  0
 14 47  1  0
 17 48  1  0
 19 49  1  0
 21 50  1  0
 23 51  1  0
 23 52  1  0
 23 53  1  0
 24 54  1  0
M  CHG  1  27  -1
M  END
>  <filename_input>  (8) 
7WQQ_5Z6_docked.sdf

>  <pdb_id>  (8) 
7WQQ_5Z6

>  <pose_rank>  (8) 
7

>  <num_atoms_heavy>  (8) 
27

>  <num_torsions>  (8) 
6

>  <pose>  (8) 
[28.298758163867667, -6.4647419642556505, 6.542027418681315, -3.02684598544652, 3.6849400074914027, 3.9789438434131017, -2.812633262598124, 0.1365496193902538, -4.272574584829165, -1.4773374694869479, -3.451108339587511, -2.7470257955707864]

>  <energy>  (8) 
-604.6630827942878

>  <inter_energy>  (8) 
-605.0404430499733

>  <intra_energy>  (8) 
0.11959104432357001

>  <rmsd>  (8) 
5.03419

>  <sdf_rank>  (8) 
0

$$$$

     RDKit          3D

 54 55  0  0  0  0  0  0  0  0999 V2000
   26.7412   -6.0870    9.9121 C   0  0  0  0  0  0  0  0  0  0  0  0
   26.5653   -9.5233    8.3147 C   0  0  0  0  0  0  0  0  0  0  0  0
   26.0165   -9.2696    6.0173 C   0  0  0  0  0  0  0  0  0  0  0  0
   26.7305   -7.3636    7.2590 C   0  0  0  0  0  0  0  0  0  0  0  0
   29.4150   -4.6228   12.2875 C   0  0  0  0  0  0  0  0  0  0  0  0
   30.7219   -4.2126   12.2425 C   0  0  0  0  0  0  0  0  0  0  0  0
   31.1086   -4.8214   14.6408 C   0  0  0  0  0  0  0  0  0  0  0  0
   30.8664   -2.3775   13.8909 C   0  0  0  0  0  0  0  0  0  0  0  0
   32.9729   -5.4026    8.6691 C   0  0  0  0  0  0  0  0  0  0  0  0
   31.5946   -4.7564    8.5577 C   0  0  2  0  0  0  0  0  0  0  0  0
   30.7851   -5.5850    7.5459 C   0  0  0  0  0  0  0  0  0  0  0  0
   31.7647   -3.3303    8.0372 C   0  0  0  0  0  0  0  0  0  0  0  0
   30.8612   -4.7210    9.9102 C   0  0  0  0  0  0  0  0  0  0  0  0
   29.5496   -5.1154    9.9577 C   0  0  0  0  0  0  0  0  0  0  0  0
   28.8220   -5.0701   11.1171 C   0  0  0  0  0  0  0  0  0  0  0  0
   27.3834   -5.5471   11.1843 C   0  0  0  0  0  0  0  0  0  0  0  0
   27.2905   -7.4408    9.6507 C   0  0  0  0  0  0  0  0  0  0  0  0
   26.8401   -8.1664    8.3672 C   0  0  0  0  0  0  0  0  0  0  0  0
   26.1112  -10.0772    7.1062 C   0  0  0  0  0  0  0  0  0  0  0  0
   25.4995   -9.8631    4.7072 C   0  0  0  0  0  0  0  0  0  0  0  0
   26.2766   -7.9043    6.0620 C   0  0  0  0  0  0  0  0  0  0  0  0
   31.3389   -3.7734   13.5461 C   0  0  2  0  0  0  0  0  0  0  0  0
   32.8430   -3.7268   13.2623 C   0  0  0  0  0  0  0  0  0  0  0  0
   31.4576   -4.2427   11.0766 C   0  0  0  0  0  0  0  0  0  0  0  0
   26.7941   -5.6036   12.2125 O   0  0  0  0  0  0  0  0  0  0  0  0
   25.8909   -9.3648    3.6230 O   0  0  0  0  0  0  0  0  0  0  0  0
   24.6222  -10.7617    4.7966 O   0  0  0  0  0  0  0  0  0  0  0  0
   25.9977   -5.5631    9.2935 H   0  0  0  0  0  0  0  0  0  0  0  0
   26.7004  -10.1561    9.2042 H   0  0  0  0  0  0  0  0  0  0  0  0
   27.0004   -6.2988    7.3182 H   0  0  0  0  0  0  0  0  0  0  0  0
   28.8496   -4.5978   13.2308 H   0  0  0  0  0  0  0  0  0  0  0  0
   31.2125   -4.3487   15.6286 H   0  0  0  0  0  0  0  0  0  0  0  0
   30.0969   -5.2410   14.5396 H   0  0  0  0  0  0  0  0  0  0  0  0
   31.8513   -5.6265   14.5396 H   0  0  0  0  0  0  0  0  0  0  0  0
   30.8277   -2.2631   14.9843 H   0  0  0  0  0  0  0  0  0  0  0  0
   31.5647   -1.6394   13.4695 H   0  0  0  0  0  0  0  0  0  0  0  0
   29.8633   -2.2154   13.4695 H   0  0  0  0  0  0  0  0  0  0  0  0
   33.2354   -5.5257    9.7302 H   0  0  0  0  0  0  0  0  0  0  0  0
   32.9570   -6.3871    8.1787 H   0  0  0  0  0  0  0  0  0  0  0  0
   33.7195   -4.7607    8.1787 H   0  0  0  0  0  0  0  0  0  0  0  0
   30.1153   -6.2706    8.0859 H   0  0  0  0  0  0  0  0  0  0  0  0
   30.1880   -4.9109    6.9142 H   0  0  0  0  0  0  0  0  0  0  0  0
   31.4729   -6.1662    6.9142 H   0  0  0  0  0  0  0  0  0  0  0  0
   31.8474   -2.6372    8.8873 H   0  0  0  0  0  0  0  0  0  0  0  0
   32.6765   -3.2699    7.4248 H   0  0  0  0  0  0  0  0  0  0  0  0
   30.8928   -3.0571    7.4248 H   0  0  0  0  0  0  0  0  0  0  0  0
   29.0673   -5.4787    9.0383 H   0  0  0  0  0  0  0  0  0  0  0  0
   27.9966   -7.9115   10.3506 H   0  0  0  0  0  0  0  0  0  0  0  0
   25.8383  -11.1409    7.0427 H   0  0  0  0  0  0  0  0  0  0  0  0
   26.1273   -7.2705    5.1754 H   0  0  0  0  0  0  0  0  0  0  0  0
   33.3953   -3.7097   14.2134 H   0  0  0  0  0  0  0  0  0  0  0  0
   33.1349   -4.6164   12.6847 H   0  0  0  0  0  0  0  0  0  0  0  0
   33.0793   -2.8209   12.6847 H   0  0  0  0  0  0  0  0  0  0  0  0
   32.5009   -3.8941   11.0667 H   0  0  0  0  0  0  0  0  0  0  0  0
  1 16  1  0
  1 17  2  3
  2 18  2  0
  2 19  1  0
  3 19  2  0
  3 20  1  0
  3 21  1  0
  4 18  1  0
  4 21  2  0
  5  6  2  0
  5 15  1  0
  6 22  1  0
  6 24  1  0
 22  7  1  1
  8 22  1  0
 10  9  1  1
 10 11  1  0
 10 12  1  0
 10 13  1  0
 13 14  1  0
 13 24  2  0
 14 15  2  0
 15 16  1  0
 16 25  2  0
 17 18  1  0
 20 26  2  0
 20 27  1  0
 22 23  1  0
  1 28  1  0
  2 29  1  0
  4 30  1  0
  5 31  1  0
  7 32  1  0
  7 33  1  0
  7 34  1  0
  8 35  1  0
  8 36  1  0
  8 37  1  0
  9 38  1  0
  9 39  1  0
  9 40  1  0
 11 41  1  0
 11 42  1  0
 11 43  1  0
 12 44  1  0
 12 45  1  0
 12 46  1  0
 14 47  1  0
 17 48  1  0
 19 49  1  0
 21 50  1  0
 23 51  1  0
 23 52  1  0
 23 53  1  0
 24 54  1  0
M  CHG  1  27  -1
M  END
>  <filename_input>  (9) 
7WQQ_5Z6_docked.sdf

>  <pdb_id>  (9) 
7WQQ_5Z6

>  <pose_rank>  (9) 
8

>  <num_atoms_heavy>  (9) 
27

>  <num_torsions>  (9) 
6

>  <pose>  (9) 
[29.41498862888375, -4.62284324353665, 12.287525624340665, -1.7732248538216986, 3.221067724210363, -0.38251747739244796, -4.916297605422985, -1.1126827138978137, -0.4278352892794653, 4.071057248199059, -2.331650811127111, 0.25932443046517767]

>  <energy>  (9) 
-511.3024752806924

>  <inter_energy>  (9) 
-512.3625503125485

>  <intra_energy>  (9) 
8.860949063273306

>  <rmsd>  (9) 
8.54817

>  <sdf_rank>  (9) 
0

$$$$

     RDKit          3D

 54 55  0  0  0  0  0  0  0  0999 V2000
   28.7375   -5.8923    8.8353 C   0  0  0  0  0  0  0  0  0  0  0  0
   26.8512   -6.7075    6.3293 C   0  0  0  0  0  0  0  0  0  0  0  0
   25.9659   -8.7941    5.6178 C   0  0  0  0  0  0  0  0  0  0  0  0
   26.3734   -8.4353    7.9395 C   0  0  0  0  0  0  0  0  0  0  0  0
   31.4466   -5.5280    9.7951 C   0  0  0  0  0  0  0  0  0  0  0  0
   32.7468   -5.4268   10.2162 C   0  0  0  0  0  0  0  0  0  0  0  0
   33.5782   -7.3434    8.8352 C   0  0  0  0  0  0  0  0  0  0  0  0
   35.1802   -5.5959    9.8218 C   0  0  0  0  0  0  0  0  0  0  0  0
   31.2595   -4.2250   14.6768 C   0  0  0  0  0  0  0  0  0  0  0  0
   32.3372   -3.8326   13.6697 C   0  0  2  0  0  0  0  0  0  0  0  0
   33.6758   -4.3683   14.2052 C   0  0  0  0  0  0  0  0  0  0  0  0
   32.3905   -2.3085   13.5807 C   0  0  0  0  0  0  0  0  0  0  0  0
   32.0625   -4.4153   12.2720 C   0  0  0  0  0  0  0  0  0  0  0  0
   30.7632   -4.5332   11.8523 C   0  0  0  0  0  0  0  0  0  0  0  0
   30.4418   -5.0814   10.6391 C   0  0  0  0  0  0  0  0  0  0  0  0
   29.0081   -5.1736   10.1515 C   0  0  0  0  0  0  0  0  0  0  0  0
   27.3280   -6.3569    8.8388 C   0  0  0  0  0  0  0  0  0  0  0  0
   26.8369   -7.1803    7.6315 C   0  0  0  0  0  0  0  0  0  0  0  0
   26.4293   -7.5582    5.2940 C   0  0  0  0  0  0  0  0  0  0  0  0
   25.5292   -9.7314    4.4923 C   0  0  0  0  0  0  0  0  0  0  0  0
   25.9598   -9.2837    6.9194 C   0  0  0  0  0  0  0  0  0  0  0  0
   33.8092   -5.8860    9.2501 C   0  0  2  0  0  0  0  0  0  0  0  0
   33.6005   -5.0150    8.0079 C   0  0  0  0  0  0  0  0  0  0  0  0
   33.0784   -4.8881   11.4416 C   0  0  0  0  0  0  0  0  0  0  0  0
   28.0999   -4.7952   10.8147 O   0  0  0  0  0  0  0  0  0  0  0  0
   24.7387  -10.6694    4.7608 O   0  0  0  0  0  0  0  0  0  0  0  0
   26.0750   -9.5658    3.3699 O   0  0  0  0  0  0  0  0  0  0  0  0
   29.4628   -6.0414    8.0219 H   0  0  0  0  0  0  0  0  0  0  0  0
   27.1872   -5.6834    6.1098 H   0  0  0  0  0  0  0  0  0  0  0  0
   26.3295   -8.7673    8.9873 H   0  0  0  0  0  0  0  0  0  0  0  0
   31.2058   -5.9539    8.8099 H   0  0  0  0  0  0  0  0  0  0  0  0
   33.4790   -7.9692    9.7344 H   0  0  0  0  0  0  0  0  0  0  0  0
   32.6578   -7.4128    8.2368 H   0  0  0  0  0  0  0  0  0  0  0  0
   34.4319   -7.6941    8.2368 H   0  0  0  0  0  0  0  0  0  0  0  0
   35.1290   -5.6067   10.9205 H   0  0  0  0  0  0  0  0  0  0  0  0
   35.8899   -6.3638    9.4802 H   0  0  0  0  0  0  0  0  0  0  0  0
   35.5181   -4.6064    9.4802 H   0  0  0  0  0  0  0  0  0  0  0  0
   31.6436   -4.0851   15.6980 H   0  0  0  0  0  0  0  0  0  0  0  0
   30.3718   -3.5924   14.5291 H   0  0  0  0  0  0  0  0  0  0  0  0
   30.9864   -5.2803   14.5291 H   0  0  0  0  0  0  0  0  0  0  0  0
   33.6597   -4.3618   15.3051 H   0  0  0  0  0  0  0  0  0  0  0  0
   33.8288   -5.3969   13.8468 H   0  0  0  0  0  0  0  0  0  0  0  0
   34.4962   -3.7292   13.8468 H   0  0  0  0  0  0  0  0  0  0  0  0
   32.4054   -1.8823   14.5947 H   0  0  0  0  0  0  0  0  0  0  0  0
   33.2998   -2.0043   13.0417 H   0  0  0  0  0  0  0  0  0  0  0  0
   31.5046   -1.9415   13.0417 H   0  0  0  0  0  0  0  0  0  0  0  0
   29.9554   -4.1773   12.5086 H   0  0  0  0  0  0  0  0  0  0  0  0
   26.6549   -6.1211    9.6763 H   0  0  0  0  0  0  0  0  0  0  0  0
   26.4732   -7.2313    4.2447 H   0  0  0  0  0  0  0  0  0  0  0  0
   25.6370  -10.3128    7.1353 H   0  0  0  0  0  0  0  0  0  0  0  0
   33.3546   -3.9884    8.3170 H   0  0  0  0  0  0  0  0  0  0  0  0
   34.5220   -5.0063    7.4072 H   0  0  0  0  0  0  0  0  0  0  0  0
   32.7751   -5.4248    7.4072 H   0  0  0  0  0  0  0  0  0  0  0  0
   34.1299   -4.8320   11.7598 H   0  0  0  0  0  0  0  0  0  0  0  0
  1 16  1  0
  1 17  2  3
  2 18  2  0
  2 19  1  0
  3 19  2  0
  3 20  1  0
  3 21  1  0
  4 18  1  0
  4 21  2  0
  5  6  2  0
  5 15  1  0
  6 22  1  0
  6 24  1  0
 22  7  1  6
  8 22  1  0
 10  9  1  1
 10 11  1  0
 10 12  1  0
 10 13  1  0
 13 14  1  0
 13 24  2  0
 14 15  2  0
 15 16  1  0
 16 25  2  0
 17 18  1  0
 20 26  2  0
 20 27  1  0
 22 23  1  0
  1 28  1  0
  2 29  1  0
  4 30  1  0
  5 31  1  0
  7 32  1  0
  7 33  1  0
  7 34  1  0
  8 35  1  0
  8 36  1  0
  8 37  1  0
  9 38  1  0
  9 39  1  0
  9 40  1  0
 11 41  1  0
 11 42  1  0
 11 43  1  0
 12 44  1  0
 12 45  1  0
 12 46  1  0
 14 47  1  0
 17 48  1  0
 19 49  1  0
 21 50  1  0
 23 51  1  0
 23 52  1  0
 23 53  1  0
 24 54  1  0
M  CHG  1  27  -1
M  END
>  <filename_input>  (10) 
7WQQ_5Z6_docked.sdf

>  <pdb_id>  (10) 
7WQQ_5Z6

>  <pose_rank>  (10) 
9

>  <num_atoms_heavy>  (10) 
27

>  <num_torsions>  (10) 
6

>  <pose>  (10) 
[31.446563818682744, -5.528002280552352, 9.79507311249866, -1.1964405043973216, 0.2781858512560489, 2.253056385746637, -0.5053123306140155, 1.8195811821062369, 2.794738920901283, -0.7832094061699769, -0.9155551742459415, 0.14027916222952086]

>  <energy>  (10) 
-557.589763417154

>  <inter_energy>  (10) 
-531.6308712983273

>  <intra_energy>  (10) 
0.0

>  <rmsd>  (10) 
8.9413

>  <sdf_rank>  (10) 
0

$$$$

     RDKit          3D

 54 55  0  0  0  0  0  0  0  0999 V2000
   28.0450   -5.6156    8.2613 C   0  0  0  0  0  0  0  0  0  0  0  0
   26.6610   -8.0708    5.8065 C   0  0  0  0  0  0  0  0  0  0  0  0
   25.4248   -9.7787    6.9013 C   0  0  0  0  0  0  0  0  0  0  0  0
   26.8946   -8.4053    8.1813 C   0  0  0  0  0  0  0  0  0  0  0  0
   30.2181   -4.6268   10.4468 C   0  0  0  0  0  0  0  0  0  0  0  0
   31.3050   -4.8249   11.2578 C   0  0  0  0  0  0  0  0  0  0  0  0
   31.6901   -5.8746   13.4987 C   0  0  0  0  0  0  0  0  0  0  0  0
   29.6052   -4.4566   13.0130 C   0  0  0  0  0  0  0  0  0  0  0  0
   34.2052   -5.0370    7.3648 C   0  0  0  0  0  0  0  0  0  0  0  0
   34.0312   -5.7094    8.7239 C   0  0  2  0  0  0  0  0  0  0  0  0
   35.1880   -5.2321    9.6182 C   0  0  0  0  0  0  0  0  0  0  0  0
   34.1170   -7.2228    8.5343 C   0  0  0  0  0  0  0  0  0  0  0  0
   32.6841   -5.3534    9.3773 C   0  0  0  0  0  0  0  0  0  0  0  0
   31.5977   -5.1388    8.5698 C   0  0  0  0  0  0  0  0  0  0  0  0
   30.3786   -4.7772    9.0782 C   0  0  0  0  0  0  0  0  0  0  0  0
   29.1625   -4.5819    8.1924 C   0  0  0  0  0  0  0  0  0  0  0  0
   28.2795   -6.6274    7.2011 C   0  0  0  0  0  0  0  0  0  0  0  0
   27.2319   -7.7449    7.0260 C   0  0  0  0  0  0  0  0  0  0  0  0
   25.7535   -9.1415    5.7469 C   0  0  0  0  0  0  0  0  0  0  0  0
   24.4570  -10.9598    6.8369 C   0  0  0  0  0  0  0  0  0  0  0  0
   26.0018   -9.4689    8.1281 C   0  0  0  0  0  0  0  0  0  0  0  0
   31.0756   -4.6917   12.7419 C   0  0  2  0  0  0  0  0  0  0  0  0
   31.8555   -3.4353   13.1396 C   0  0  0  0  0  0  0  0  0  0  0  0
   32.5392   -5.1765   10.7531 C   0  0  0  0  0  0  0  0  0  0  0  0
   29.0213   -3.6032    7.5367 O   0  0  0  0  0  0  0  0  0  0  0  0
   23.3926  -10.9046    7.5010 O   0  0  0  0  0  0  0  0  0  0  0  0
   24.8374  -11.9729    6.1936 O   0  0  0  0  0  0  0  0  0  0  0  0
   27.2077   -5.6125    8.9747 H   0  0  0  0  0  0  0  0  0  0  0  0
   26.9139   -7.5008    4.9004 H   0  0  0  0  0  0  0  0  0  0  0  0
   27.3284   -8.0945    9.1432 H   0  0  0  0  0  0  0  0  0  0  0  0
   29.2408   -4.3547   10.8721 H   0  0  0  0  0  0  0  0  0  0  0  0
   31.6011   -5.7032   14.5816 H   0  0  0  0  0  0  0  0  0  0  0  0
   31.1582   -6.7988   13.2288 H   0  0  0  0  0  0  0  0  0  0  0  0
   32.7522   -5.9706   13.2288 H   0  0  0  0  0  0  0  0  0  0  0  0
   29.4324   -4.4290   14.0990 H   0  0  0  0  0  0  0  0  0  0  0  0
   29.2991   -3.4981   12.5685 H   0  0  0  0  0  0  0  0  0  0  0  0
   29.0155   -5.2718   12.5685 H   0  0  0  0  0  0  0  0  0  0  0  0
   34.4784   -3.9814    7.5103 H   0  0  0  0  0  0  0  0  0  0  0  0
   35.0009   -5.5475    6.8023 H   0  0  0  0  0  0  0  0  0  0  0  0
   33.2619   -5.0975    6.8023 H   0  0  0  0  0  0  0  0  0  0  0  0
   34.9064   -5.3483   10.6751 H   0  0  0  0  0  0  0  0  0  0  0  0
   36.0851   -5.8335    9.4094 H   0  0  0  0  0  0  0  0  0  0  0  0
   35.3998   -4.1730    9.4094 H   0  0  0  0  0  0  0  0  0  0  0  0
   34.1448   -7.7145    9.5179 H   0  0  0  0  0  0  0  0  0  0  0  0
   33.2372   -7.5726    7.9743 H   0  0  0  0  0  0  0  0  0  0  0  0
   35.0306   -7.4710    7.9743 H   0  0  0  0  0  0  0  0  0  0  0  0
   31.7082   -5.2606    7.4822 H   0  0  0  0  0  0  0  0  0  0  0  0
   29.1725   -6.5814    6.5604 H   0  0  0  0  0  0  0  0  0  0  0  0
   25.3187   -9.4571    4.7870 H   0  0  0  0  0  0  0  0  0  0  0  0
   25.7585  -10.0491    9.0305 H   0  0  0  0  0  0  0  0  0  0  0  0
   31.9003   -3.3633   14.2363 H   0  0  0  0  0  0  0  0  0  0  0  0
   32.8764   -3.4938   12.7340 H   0  0  0  0  0  0  0  0  0  0  0  0
   31.3502   -2.5464   12.7340 H   0  0  0  0  0  0  0  0  0  0  0  0
   33.3978   -5.3155   11.4265 H   0  0  0  0  0  0  0  0  0  0  0  0
  1 16  1  0
  1 17  2  3
  2 18  2  0
  2 19  1  0
  3 19  2  0
  3 20  1  0
  3 21  1  0
  4 18  1  0
  4 21  2  0
  5  6  2  0
  5 15  1  0
  6 22  1  0
  6 24  1  0
 22  7  1  1
  8 22  1  0
 10  9  1  6
 10 11  1  0
 10 12  1  0
 10 13  1  0
 13 14  1  0
 13 24  2  0
 14 15  2  0
 15 16  1  0
 16 25  2  0
 17 18  1  0
 20 26  2  0
 20 27  1  0
 22 23  1  0
  1 28  1  0
  2 29  1  0
  4 30  1  0
  5 31  1  0
  7 32  1  0
  7 33  1  0
  7 34  1  0
  8 35  1  0
  8 36  1  0
  8 37  1  0
  9 38  1  0
  9 39  1  0
  9 40  1  0
 11 41  1  0
 11 42  1  0
 11 43  1  0
 12 44  1  0
 12 45  1  0
 12 46  1  0
 14 47  1  0
 17 48  1  0
 19 49  1  0
 21 50  1  0
 23 51  1  0
 23 52  1  0
 23 53  1  0
 24 54  1  0
M  CHG  1  27  -1
M  END
>  <filename_input>  (11) 
7WQQ_5Z6_docked.sdf

>  <pdb_id>  (11) 
7WQQ_5Z6

>  <pose_rank>  (11) 
10

>  <num_atoms_heavy>  (11) 
27

>  <num_torsions>  (11) 
6

>  <pose>  (11) 
[30.21810278116517, -4.626813295371315, 10.446791480713285, -0.7249493292467895, 2.9704783820111196, -0.37775547899420375, 2.7951847500983367, 1.7888852663157093, 1.471767096199811, 1.132784688967816, 2.3751771881319854, 0.7788298962873607]

>  <energy>  (11) 
-488.5864002280847

>  <inter_energy>  (11) 
-499.5448913358433

>  <intra_energy>  (11) 
0.0

>  <rmsd>  (11) 
8.41503

>  <sdf_rank>  (11) 
0

$$$$

     RDKit          3D

 54 55  0  0  0  0  0  0  0  0999 V2000
   29.6110   -5.5049    8.9404 C   0  0  0  0  0  0  0  0  0  0  0  0
   27.5402   -6.9287    7.2547 C   0  0  0  0  0  0  0  0  0  0  0  0
   26.9669   -7.7680    5.1074 C   0  0  0  0  0  0  0  0  0  0  0  0
   28.8638   -6.3405    5.3291 C   0  0  0  0  0  0  0  0  0  0  0  0
   30.9201   -5.8373   11.5522 C   0  0  0  0  0  0  0  0  0  0  0  0
   31.3214   -5.9634   12.8565 C   0  0  0  0  0  0  0  0  0  0  0  0
   32.1889   -8.3074   12.6992 C   0  0  0  0  0  0  0  0  0  0  0  0
   29.8209   -7.7992   13.5523 C   0  0  0  0  0  0  0  0  0  0  0  0
   32.3497   -2.5638   15.2187 C   0  0  0  0  0  0  0  0  0  0  0  0
   32.3923   -2.3896   13.7029 C   0  0  2  0  0  0  0  0  0  0  0  0
   33.8526   -2.0948   13.3206 C   0  0  0  0  0  0  0  0  0  0  0  0
   31.5102   -1.2016   13.3232 C   0  0  0  0  0  0  0  0  0  0  0  0
   31.9014   -3.6461   12.9622 C   0  0  0  0  0  0  0  0  0  0  0  0
   31.4842   -3.5225   11.6626 C   0  0  0  0  0  0  0  0  0  0  0  0
   30.9952   -4.5885   10.9553 C   0  0  0  0  0  0  0  0  0  0  0  0
   30.5737   -4.4662    9.5031 C   0  0  0  0  0  0  0  0  0  0  0  0
   29.5673   -5.3494    7.4651 C   0  0  0  0  0  0  0  0  0  0  0  0
   28.5992   -6.2508    6.6731 C   0  0  0  0  0  0  0  0  0  0  0  0
   26.6854   -7.6835    6.4343 C   0  0  0  0  0  0  0  0  0  0  0  0
   26.0254   -8.5679    4.2077 C   0  0  0  0  0  0  0  0  0  0  0  0
   28.0188   -7.0810    4.5112 C   0  0  0  0  0  0  0  0  0  0  0  0
   31.2618   -7.3469   13.4526 C   0  0  2  0  0  0  0  0  0  0  0  0
   31.8234   -7.1798   14.8674 C   0  0  0  0  0  0  0  0  0  0  0  0
   31.8027   -4.8926   13.5799 C   0  0  0  0  0  0  0  0  0  0  0  0
   30.8914   -3.5355    8.8393 O   0  0  0  0  0  0  0  0  0  0  0  0
   25.4460   -9.5749    4.6844 O   0  0  0  0  0  0  0  0  0  0  0  0
   25.9651   -8.2239    2.9982 O   0  0  0  0  0  0  0  0  0  0  0  0
   29.0452   -6.2434    9.5273 H   0  0  0  0  0  0  0  0  0  0  0  0
   27.3715   -6.8768    8.3404 H   0  0  0  0  0  0  0  0  0  0  0  0
   29.7392   -5.8293    4.9021 H   0  0  0  0  0  0  0  0  0  0  0  0
   30.5469   -6.7072   10.9917 H   0  0  0  0  0  0  0  0  0  0  0  0
   32.7647   -8.9039   13.4221 H   0  0  0  0  0  0  0  0  0  0  0  0
   31.5875   -8.9775   12.0673 H   0  0  0  0  0  0  0  0  0  0  0  0
   32.8799   -7.7300   12.0673 H   0  0  0  0  0  0  0  0  0  0  0  0
   29.5371   -7.8883   14.6113 H   0  0  0  0  0  0  0  0  0  0  0  0
   29.1703   -7.0621   13.0590 H   0  0  0  0  0  0  0  0  0  0  0  0
   29.7082   -8.7759   13.0590 H   0  0  0  0  0  0  0  0  0  0  0  0
   32.5840   -1.6052   15.7047 H   0  0  0  0  0  0  0  0  0  0  0  0
   31.3448   -2.8926   15.5219 H   0  0  0  0  0  0  0  0  0  0  0  0
   33.0897   -3.3191   15.5219 H   0  0  0  0  0  0  0  0  0  0  0  0
   34.4534   -1.9735   14.2340 H   0  0  0  0  0  0  0  0  0  0  0  0
   34.2521   -2.9304   12.7272 H   0  0  0  0  0  0  0  0  0  0  0  0
   33.8966   -1.1696   12.7272 H   0  0  0  0  0  0  0  0  0  0  0  0
   31.1447   -0.7095   14.2365 H   0  0  0  0  0  0  0  0  0  0  0  0
   32.0963   -0.4846   12.7297 H   0  0  0  0  0  0  0  0  0  0  0  0
   30.6542   -1.5555   12.7297 H   0  0  0  0  0  0  0  0  0  0  0  0
   31.5438   -2.5390   11.1736 H   0  0  0  0  0  0  0  0  0  0  0  0
   30.2055   -4.6144    6.9528 H   0  0  0  0  0  0  0  0  0  0  0  0
   25.8077   -8.1948    6.8564 H   0  0  0  0  0  0  0  0  0  0  0  0
   28.1775   -7.1226    3.4235 H   0  0  0  0  0  0  0  0  0  0  0  0
   31.0395   -7.4131   15.6030 H   0  0  0  0  0  0  0  0  0  0  0  0
   32.6733   -7.8639   15.0078 H   0  0  0  0  0  0  0  0  0  0  0  0
   32.1608   -6.1422   15.0078 H   0  0  0  0  0  0  0  0  0  0  0  0
   32.1048   -5.0198   14.6299 H   0  0  0  0  0  0  0  0  0  0  0  0
  1 16  1  0
  1 17  2  3
  2 18  2  0
  2 19  1  0
  3 19  2  0
  3 20  1  0
  3 21  1  0
  4 18  1  0
  4 21  2  0
  5  6  2  0
  5 15  1  0
  6 22  1  0
  6 24  1  0
 22  7  1  6
  8 22  1  0
 10  9  1  1
 10 11  1  0
 10 12  1  0
 10 13  1  0
 13 14  1  0
 13 24  2  0
 14 15  2  0
 15 16  1  0
 16 25  2  0
 17 18  1  0
 20 26  2  0
 20 27  1  0
 22 23  1  0
  1 28  1  0
  2 29  1  0
  4 30  1  0
  5 31  1  0
  7 32  1  0
  7 33  1  0
  7 34  1  0
  8 35  1  0
  8 36  1  0
  8 37  1  0
  9 38  1  0
  9 39  1  0
  9 40  1  0
 11 41  1  0
 11 42  1  0
 11 43  1  0
 12 44  1  0
 12 45  1  0
 12 46  1  0
 14 47  1  0
 17 48  1  0
 19 49  1  0
 21 50  1  0
 23 51  1  0
 23 52  1  0
 23 53  1  0
 24 54  1  0
M  CHG  1  27  -1
M  END
>  <filename_input>  (12) 
7WQQ_5Z6_docked.sdf

>  <pdb_id>  (12) 
7WQQ_5Z6

>  <pose_rank>  (12) 
11

>  <num_atoms_heavy>  (12) 
27

>  <num_torsions>  (12) 
6

>  <pose>  (12) 
[30.920083019515165, -5.8373428465979025, 11.55217144430329, -1.6341181643575373, 1.2818058648476889, 0.5969520602757897, 1.5667429085500926, -2.276569845466015, 3.08898920078752, -0.173598944717234, 0.4257980859730646, 2.328577052897743]

>  <energy>  (12) 
-511.40778378161843

>  <inter_energy>  (12) 
-502.7296652554543

>  <intra_energy>  (12) 
0.0

>  <rmsd>  (12) 
9.21031

>  <sdf_rank>  (12) 
0

$$$$

     RDKit          3D

 54 55  0  0  0  0  0  0  0  0999 V2000
   29.9048   -5.3187    9.2978 C   0  0  0  0  0  0  0  0  0  0  0  0
   27.8775   -6.8902    7.4169 C   0  0  0  0  0  0  0  0  0  0  0  0
   25.8126   -8.0325    7.6907 C   0  0  0  0  0  0  0  0  0  0  0  0
   27.2909   -7.8415    9.5516 C   0  0  0  0  0  0  0  0  0  0  0  0
   31.6583   -5.3006   12.4386 C   0  0  0  0  0  0  0  0  0  0  0  0
   31.7155   -4.7231   13.6802 C   0  0  0  0  0  0  0  0  0  0  0  0
   31.2292   -5.4573   16.0246 C   0  0  0  0  0  0  0  0  0  0  0  0
   33.6268   -5.3610   15.1105 C   0  0  0  0  0  0  0  0  0  0  0  0
   31.0447   -0.3195   11.6570 C   0  0  0  0  0  0  0  0  0  0  0  0
   30.7117   -1.1109   12.9190 C   0  0  2  0  0  0  0  0  0  0  0  0
   29.1987   -0.9704   13.1570 C   0  0  0  0  0  0  0  0  0  0  0  0
   31.4768   -0.5025   14.0928 C   0  0  0  0  0  0  0  0  0  0  0  0
   31.0838   -2.5981   12.7842 C   0  0  0  0  0  0  0  0  0  0  0  0
   31.0132   -3.1844   11.5475 C   0  0  0  0  0  0  0  0  0  0  0  0
   31.2885   -4.5127   11.3597 C   0  0  0  0  0  0  0  0  0  0  0  0
   31.2546   -5.1559    9.9861 C   0  0  0  0  0  0  0  0  0  0  0  0
   29.4821   -6.7353    9.4292 C   0  0  0  0  0  0  0  0  0  0  0  0
   28.1690   -7.1628    8.7436 C   0  0  0  0  0  0  0  0  0  0  0  0
   26.6737   -7.3698    6.8745 C   0  0  0  0  0  0  0  0  0  0  0  0
   24.5133   -8.5773    7.0983 C   0  0  0  0  0  0  0  0  0  0  0  0
   26.1010   -8.3234    9.0197 C   0  0  0  0  0  0  0  0  0  0  0  0
   32.1623   -5.6061   14.8177 C   0  0  2  0  0  0  0  0  0  0  0  0
   32.0000   -7.0320   14.2832 C   0  0  0  0  0  0  0  0  0  0  0  0
   31.4273   -3.3895   13.8800 C   0  0  0  0  0  0  0  0  0  0  0  0
   32.2507   -5.4339    9.4046 O   0  0  0  0  0  0  0  0  0  0  0  0
   24.4045   -9.8153    6.9188 O   0  0  0  0  0  0  0  0  0  0  0  0
   23.6584   -7.7310    6.7269 O   0  0  0  0  0  0  0  0  0  0  0  0
   29.3403   -4.5226    8.7903 H   0  0  0  0  0  0  0  0  0  0  0  0
   28.5768   -6.3080    6.7988 H   0  0  0  0  0  0  0  0  0  0  0  0
   27.5278   -8.0029   10.6136 H   0  0  0  0  0  0  0  0  0  0  0  0
   31.9003   -6.3648   12.3014 H   0  0  0  0  0  0  0  0  0  0  0  0
   31.8124   -5.5503   16.9526 H   0  0  0  0  0  0  0  0  0  0  0  0
   30.7442   -4.4704   15.9937 H   0  0  0  0  0  0  0  0  0  0  0  0
   30.4613   -6.2443   15.9937 H   0  0  0  0  0  0  0  0  0  0  0  0
   33.7837   -5.3347   16.1989 H   0  0  0  0  0  0  0  0  0  0  0  0
   34.2288   -6.1709   14.6727 H   0  0  0  0  0  0  0  0  0  0  0  0
   33.9323   -4.3992   14.6727 H   0  0  0  0  0  0  0  0  0  0  0  0
   31.4573    0.6609   11.9373 H   0  0  0  0  0  0  0  0  0  0  0  0
   31.7862   -0.8729   11.0622 H   0  0  0  0  0  0  0  0  0  0  0  0
   30.1306   -0.1762   11.0622 H   0  0  0  0  0  0  0  0  0  0  0  0
   28.9978   -0.9518   14.2383 H   0  0  0  0  0  0  0  0  0  0  0  0
   28.8411   -0.0352   12.7014 H   0  0  0  0  0  0  0  0  0  0  0  0
   28.6750   -1.8238   12.7014 H   0  0  0  0  0  0  0  0  0  0  0  0
   31.0367   -0.8524   15.0382 H   0  0  0  0  0  0  0  0  0  0  0  0
   32.5313   -0.8114   14.0427 H   0  0  0  0  0  0  0  0  0  0  0  0
   31.4133    0.5946   14.0427 H   0  0  0  0  0  0  0  0  0  0  0  0
   30.7272   -2.5704   10.6807 H   0  0  0  0  0  0  0  0  0  0  0  0
   30.0865   -7.4574    9.9978 H   0  0  0  0  0  0  0  0  0  0  0  0
   26.4335   -7.2125    5.8126 H   0  0  0  0  0  0  0  0  0  0  0  0
   25.4071   -8.9179    9.6322 H   0  0  0  0  0  0  0  0  0  0  0  0
   31.9202   -7.7330   15.1271 H   0  0  0  0  0  0  0  0  0  0  0  0
   31.0892   -7.0920   13.6693 H   0  0  0  0  0  0  0  0  0  0  0  0
   32.8740   -7.2951   13.6693 H   0  0  0  0  0  0  0  0  0  0  0  0
   31.4679   -2.9556   14.8901 H   0  0  0  0  0  0  0  0  0  0  0  0
  1 16  1  0
  1 17  2  3
  2 18  2  0
  2 19  1  0
  3 19  2  0
  3 20  1  0
  3 21  1  0
  4 18  1  0
  4 21  2  0
  5  6  2  0
  5 15  1  0
  6 22  1  0
  6 24  1  0
 22  7  1  1
  8 22  1  0
 10  9  1  6
 10 11  1  0
 10 12  1  0
 10 13  1  0
 13 14  1  0
 13 24  2  0
 14 15  2  0
 15 16  1  0
 16 25  2  0
 17 18  1  0
 20 26  2  0
 20 27  1  0
 22 23  1  0
  1 28  1  0
  2 29  1  0
  4 30  1  0
  5 31  1  0
  7 32  1  0
  7 33  1  0
  7 34  1  0
  8 35  1  0
  8 36  1  0
  8 37  1  0
  9 38  1  0
  9 39  1  0
  9 40  1  0
 11 41  1  0
 11 42  1  0
 11 43  1  0
 12 44  1  0
 12 45  1  0
 12 46  1  0
 14 47  1  0
 17 48  1  0
 19 49  1  0
 21 50  1  0
 23 51  1  0
 23 52  1  0
 23 53  1  0
 24 54  1  0
M  CHG  1  27  -1
M  END
>  <filename_input>  (13) 
7WQQ_5Z6_docked.sdf

>  <pdb_id>  (13) 
7WQQ_5Z6

>  <pose_rank>  (13) 
12

>  <num_atoms_heavy>  (13) 
27

>  <num_torsions>  (13) 
6

>  <pose>  (13) 
[31.658313460662093, -5.300575918792934, 12.438626717929145, -2.3744878973203805, 0.8714928976004382, 0.5171660352854788, -1.8336209686827258, 0.6680244675204761, -1.6338698184414884, 0.9777309022488457, 0.9996895525263456, -1.5222012549306825]

>  <energy>  (13) 
-481.72390674385474

>  <inter_energy>  (13) 
-499.63803306274457

>  <intra_energy>  (13) 
0.0

>  <rmsd>  (13) 
9.00208

>  <sdf_rank>  (13) 
0

$$$$

     RDKit          3D

 54 55  0  0  0  0  0  0  0  0999 V2000
   30.8370   -6.3846   11.0972 C   0  0  0  0  0  0  0  0  0  0  0  0
   28.1064   -6.9105    8.5436 C   0  0  0  0  0  0  0  0  0  0  0  0
   28.5553   -5.6143    6.6040 C   0  0  0  0  0  0  0  0  0  0  0  0
   29.7759   -5.1740    8.6043 C   0  0  0  0  0  0  0  0  0  0  0  0
   31.2112   -5.8063   14.8963 C   0  0  0  0  0  0  0  0  0  0  0  0
   31.5551   -4.7996   15.7604 C   0  0  0  0  0  0  0  0  0  0  0  0
   30.2407   -5.9332   17.5657 C   0  0  0  0  0  0  0  0  0  0  0  0
   31.6698   -3.8533   18.0400 C   0  0  0  0  0  0  0  0  0  0  0  0
   31.8231   -0.8127   14.0495 C   0  0  0  0  0  0  0  0  0  0  0  0
   32.5109   -1.9840   13.3534 C   0  0  2  0  0  0  0  0  0  0  0  0
   34.0264   -1.7933   13.5342 C   0  0  0  0  0  0  0  0  0  0  0  0
   32.1599   -1.9429   11.8672 C   0  0  0  0  0  0  0  0  0  0  0  0
   32.0808   -3.3397   13.9411 C   0  0  0  0  0  0  0  0  0  0  0  0
   31.7209   -4.3447   13.0817 C   0  0  0  0  0  0  0  0  0  0  0  0
   31.2873   -5.5626   13.5339 C   0  0  0  0  0  0  0  0  0  0  0  0
   30.9300   -6.6926   12.5868 C   0  0  0  0  0  0  0  0  0  0  0  0
   29.4045   -6.3873   10.7090 C   0  0  0  0  0  0  0  0  0  0  0  0
   29.0597   -6.1689    9.2223 C   0  0  0  0  0  0  0  0  0  0  0  0
   27.8312   -6.5964    7.2023 C   0  0  0  0  0  0  0  0  0  0  0  0
   28.2418   -5.2531    5.1524 C   0  0  0  0  0  0  0  0  0  0  0  0
   29.5045   -4.8548    7.2793 C   0  0  0  0  0  0  0  0  0  0  0  0
   31.4974   -5.1214   17.2322 C   0  0  2  0  0  0  0  0  0  0  0  0
   32.7083   -6.0269   17.4747 C   0  0  0  0  0  0  0  0  0  0  0  0
   31.9803   -3.5663   15.3136 C   0  0  0  0  0  0  0  0  0  0  0  0
   30.8263   -7.8123   12.9653 O   0  0  0  0  0  0  0  0  0  0  0  0
   27.7802   -4.1127    4.9006 O   0  0  0  0  0  0  0  0  0  0  0  0
   28.3714   -6.1681    4.2975 O   0  0  0  0  0  0  0  0  0  0  0  0
   31.6862   -6.1931   10.4248 H   0  0  0  0  0  0  0  0  0  0  0  0
   27.5741   -7.7313    9.0464 H   0  0  0  0  0  0  0  0  0  0  0  0
   30.5597   -4.6329    9.1545 H   0  0  0  0  0  0  0  0  0  0  0  0
   30.8823   -6.7852   15.2753 H   0  0  0  0  0  0  0  0  0  0  0  0
   30.1297   -6.0049   18.6578 H   0  0  0  0  0  0  0  0  0  0  0  0
   29.3580   -5.4342   17.1394 H   0  0  0  0  0  0  0  0  0  0  0  0
   30.3326   -6.9430   17.1394 H   0  0  0  0  0  0  0  0  0  0  0  0
   31.6370   -4.0946   19.1127 H   0  0  0  0  0  0  0  0  0  0  0  0
   32.6388   -3.3927   17.7973 H   0  0  0  0  0  0  0  0  0  0  0  0
   30.8589   -3.1508   17.7973 H   0  0  0  0  0  0  0  0  0  0  0  0
   31.8974   -0.9392   15.1397 H   0  0  0  0  0  0  0  0  0  0  0  0
   32.3126    0.1275   13.7553 H   0  0  0  0  0  0  0  0  0  0  0  0
   30.7637   -0.7821   13.7553 H   0  0  0  0  0  0  0  0  0  0  0  0
   34.2667   -1.7630   14.6072 H   0  0  0  0  0  0  0  0  0  0  0  0
   34.5603   -2.6313   13.0623 H   0  0  0  0  0  0  0  0  0  0  0  0
   34.3360   -0.8491   13.0623 H   0  0  0  0  0  0  0  0  0  0  0  0
   31.0736   -1.8156   11.7504 H   0  0  0  0  0  0  0  0  0  0  0  0
   32.6812   -1.0996   11.3905 H   0  0  0  0  0  0  0  0  0  0  0  0
   32.4723   -2.8837   11.3905 H   0  0  0  0  0  0  0  0  0  0  0  0
   31.7821   -4.1682   11.9977 H   0  0  0  0  0  0  0  0  0  0  0  0
   28.6138   -6.5402   11.4583 H   0  0  0  0  0  0  0  0  0  0  0  0
   27.0469   -7.1335    6.6486 H   0  0  0  0  0  0  0  0  0  0  0  0
   30.0255   -4.0251    6.7790 H   0  0  0  0  0  0  0  0  0  0  0  0
   32.8667   -6.1454   18.5568 H   0  0  0  0  0  0  0  0  0  0  0  0
   32.5262   -7.0122   17.0208 H   0  0  0  0  0  0  0  0  0  0  0  0
   33.6019   -5.5736   17.0208 H   0  0  0  0  0  0  0  0  0  0  0  0
   32.2367   -2.7719   16.0300 H   0  0  0  0  0  0  0  0  0  0  0  0
  1 16  1  0
  1 17  2  3
  2 18  2  0
  2 19  1  0
  3 19  2  0
  3 20  1  0
  3 21  1  0
  4 18  1  0
  4 21  2  0
  5  6  2  0
  5 15  1  0
  6 22  1  0
  6 24  1  0
 22  7  1  6
  8 22  1  0
 10  9  1  1
 10 11  1  0
 10 12  1  0
 10 13  1  0
 13 14  1  0
 13 24  2  0
 14 15  2  0
 15 16  1  0
 16 25  2  0
 17 18  1  0
 20 26  2  0
 20 27  1  0
 22 23  1  0
  1 28  1  0
  2 29  1  0
  4 30  1  0
  5 31  1  0
  7 32  1  0
  7 33  1  0
  7 34  1  0
  8 35  1  0
  8 36  1  0
  8 37  1  0
  9 38  1  0
  9 39  1  0
  9 40  1  0
 11 41  1  0
 11 42  1  0
 11 43  1  0
 12 44  1  0
 12 45  1  0
 12 46  1  0
 14 47  1  0
 17 48  1  0
 19 49  1  0
 21 50  1  0
 23 51  1  0
 23 52  1  0
 23 53  1  0
 24 54  1  0
M  CHG  1  27  -1
M  END
>  <filename_input>  (14) 
7WQQ_5Z6_docked.sdf

>  <pdb_id>  (14) 
7WQQ_5Z6

>  <pose_rank>  (14) 
13

>  <num_atoms_heavy>  (14) 
27

>  <num_torsions>  (14) 
6

>  <pose>  (14) 
[31.21118149649034, -5.806284378355825, 14.896331528127625, -2.4081756726387433, 1.6281658516266764, -0.06972688224403296, -0.2509410445421262, 3.53103079479695, -0.6005817323834168, 0.9021694726949048, -3.779991715173654, -1.3848793806084054]

>  <energy>  (14) 
-393.8911881779234

>  <inter_energy>  (14) 
-382.1873559250117

>  <intra_energy>  (14) 
0.0

>  <rmsd>  (14) 
9.30193

>  <sdf_rank>  (14) 
0

$$$$

     RDKit          3D

 54 55  0  0  0  0  0  0  0  0999 V2000
   30.6978   -4.4875    6.5920 C   0  0  0  0  0  0  0  0  0  0  0  0
   28.8061   -5.2949    4.0922 C   0  0  0  0  0  0  0  0  0  0  0  0
   28.4522   -7.3517    2.9572 C   0  0  0  0  0  0  0  0  0  0  0  0
   29.0468   -7.3855    5.2659 C   0  0  0  0  0  0  0  0  0  0  0  0
   30.5990   -4.5160   10.4393 C   0  0  0  0  0  0  0  0  0  0  0  0
   29.8935   -5.1050   11.4560 C   0  0  0  0  0  0  0  0  0  0  0  0
   29.2138   -4.7846   13.8449 C   0  0  0  0  0  0  0  0  0  0  0  0
   31.2941   -3.6391   12.8684 C   0  0  0  0  0  0  0  0  0  0  0  0
   25.9228   -6.6355   10.5260 C   0  0  0  0  0  0  0  0  0  0  0  0
   27.0761   -6.8571    9.5512 C   0  0  2  0  0  0  0  0  0  0  0  0
   26.5673   -6.4742    8.1511 C   0  0  0  0  0  0  0  0  0  0  0  0
   27.4575   -8.3361    9.5743 C   0  0  0  0  0  0  0  0  0  0  0  0
   28.3082   -6.0076    9.9101 C   0  0  0  0  0  0  0  0  0  0  0  0
   29.0264   -5.4293    8.8961 C   0  0  0  0  0  0  0  0  0  0  0  0
   30.1574   -4.6958    9.1377 C   0  0  0  0  0  0  0  0  0  0  0  0
   30.9306   -4.0171    8.0227 C   0  0  0  0  0  0  0  0  0  0  0  0
   29.4938   -5.3551    6.5764 C   0  0  0  0  0  0  0  0  0  0  0  0
   29.0968   -6.0138    5.2403 C   0  0  0  0  0  0  0  0  0  0  0  0
   28.5053   -5.9945    2.9117 C   0  0  0  0  0  0  0  0  0  0  0  0
   28.1495   -8.1171    1.6694 C   0  0  0  0  0  0  0  0  0  0  0  0
   28.7552   -8.0836    4.1002 C   0  0  0  0  0  0  0  0  0  0  0  0
   30.3850   -4.8491   12.8581 C   0  0  2  0  0  0  0  0  0  0  0  0
   31.2133   -6.0890   13.2067 C   0  0  0  0  0  0  0  0  0  0  0  0
   28.7611   -5.8559   11.2204 C   0  0  0  0  0  0  0  0  0  0  0  0
   31.6217   -3.0750    8.2289 O   0  0  0  0  0  0  0  0  0  0  0  0
   26.9539   -8.2325    1.3029 O   0  0  0  0  0  0  0  0  0  0  0  0
   29.1211   -8.6800    1.1002 O   0  0  0  0  0  0  0  0  0  0  0  0
   31.3164   -4.2283    5.7201 H   0  0  0  0  0  0  0  0  0  0  0  0
   28.8109   -4.1950    4.1048 H   0  0  0  0  0  0  0  0  0  0  0  0
   29.2364   -7.9287    6.2035 H   0  0  0  0  0  0  0  0  0  0  0  0
   31.4952   -3.9144   10.6513 H   0  0  0  0  0  0  0  0  0  0  0  0
   29.6004   -4.8059   14.8746 H   0  0  0  0  0  0  0  0  0  0  0  0
   28.6497   -3.8541   13.6842 H   0  0  0  0  0  0  0  0  0  0  0  0
   28.5510   -5.6477   13.6842 H   0  0  0  0  0  0  0  0  0  0  0  0
   31.5101   -3.3516   13.9079 H   0  0  0  0  0  0  0  0  0  0  0  0
   32.2345   -3.8827   12.3523 H   0  0  0  0  0  0  0  0  0  0  0  0
   30.7984   -2.8036   12.3523 H   0  0  0  0  0  0  0  0  0  0  0  0
   26.2961   -6.7072   11.5582 H   0  0  0  0  0  0  0  0  0  0  0  0
   25.4899   -5.6377   10.3611 H   0  0  0  0  0  0  0  0  0  0  0  0
   25.1510   -7.4017   10.3611 H   0  0  0  0  0  0  0  0  0  0  0  0
   25.6917   -5.8152    8.2468 H   0  0  0  0  0  0  0  0  0  0  0  0
   27.3632   -5.9491    7.6027 H   0  0  0  0  0  0  0  0  0  0  0  0
   26.2831   -7.3843    7.6027 H   0  0  0  0  0  0  0  0  0  0  0  0
   27.5451   -8.6759   10.6169 H   0  0  0  0  0  0  0  0  0  0  0  0
   26.6813   -8.9230    9.0614 H   0  0  0  0  0  0  0  0  0  0  0  0
   28.4207   -8.4745    9.0614 H   0  0  0  0  0  0  0  0  0  0  0  0
   28.6846   -5.5580    7.8585 H   0  0  0  0  0  0  0  0  0  0  0  0
   28.9034   -5.5228    7.4892 H   0  0  0  0  0  0  0  0  0  0  0  0
   28.3169   -5.4557    1.9714 H   0  0  0  0  0  0  0  0  0  0  0  0
   28.7639   -9.1834    4.0821 H   0  0  0  0  0  0  0  0  0  0  0  0
   31.2804   -6.1895   14.3000 H   0  0  0  0  0  0  0  0  0  0  0  0
   30.7303   -6.9829   12.7853 H   0  0  0  0  0  0  0  0  0  0  0  0
   32.2240   -5.9851   12.7853 H   0  0  0  0  0  0  0  0  0  0  0  0
   28.2223   -6.3288   12.0546 H   0  0  0  0  0  0  0  0  0  0  0  0
  1 16  1  0
  1 17  2  3
  2 18  2  0
  2 19  1  0
  3 19  2  0
  3 20  1  0
  3 21  1  0
  4 18  1  0
  4 21  2  0
  5  6  2  0
  5 15  1  0
  6 22  1  0
  6 24  1  0
 22  7  1  1
  8 22  1  0
 10  9  1  1
 10 11  1  0
 10 12  1  0
 10 13  1  0
 13 14  1  0
 13 24  2  0
 14 15  2  0
 15 16  1  0
 16 25  2  0
 17 18  1  0
 20 26  2  0
 20 27  1  0
 22 23  1  0
  1 28  1  0
  2 29  1  0
  4 30  1  0
  5 31  1  0
  7 32  1  0
  7 33  1  0
  7 34  1  0
  8 35  1  0
  8 36  1  0
  8 37  1  0
  9 38  1  0
  9 39  1  0
  9 40  1  0
 11 41  1  0
 11 42  1  0
 11 43  1  0
 12 44  1  0
 12 45  1  0
 12 46  1  0
 14 47  1  0
 17 48  1  0
 19 49  1  0
 21 50  1  0
 23 51  1  0
 23 52  1  0
 23 53  1  0
 24 54  1  0
M  CHG  1  27  -1
M  END
>  <filename_input>  (15) 
7WQQ_5Z6_docked.sdf

>  <pdb_id>  (15) 
7WQQ_5Z6

>  <pose_rank>  (15) 
14

>  <num_atoms_heavy>  (15) 
27

>  <num_torsions>  (15) 
6

>  <pose>  (15) 
[30.599046425628238, -4.516003199259915, 10.439320110767055, 2.602788749468841, 2.0218173491698925, -0.6020594525313786, -3.2470170787225694, -1.2341589474229493, -0.743140778907309, -3.297876815069563, -0.9066885645360355, 1.4754674138945556]

>  <energy>  (15) 
-417.838721591245

>  <inter_energy>  (15) 
-471.5693209482697

>  <intra_energy>  (15) 
65.6488607122076

>  <rmsd>  (15) 
8.37316

>  <sdf_rank>  (15) 
0

$$$$

     RDKit          3D

 54 55  0  0  0  0  0  0  0  0999 V2000
   28.1813   -7.9186    4.0728 C   0  0  0  0  0  0  0  0  0  0  0  0
   27.9875   -4.9454    1.7491 C   0  0  0  0  0  0  0  0  0  0  0  0
   30.1793   -4.2352    1.1704 C   0  0  0  0  0  0  0  0  0  0  0  0
   29.8915   -5.7584    2.9820 C   0  0  0  0  0  0  0  0  0  0  0  0
   26.1367   -8.7443    7.2469 C   0  0  0  0  0  0  0  0  0  0  0  0
   26.0561   -8.3450    8.5555 C   0  0  0  0  0  0  0  0  0  0  0  0
   25.6792   -9.3802   10.8045 C   0  0  0  0  0  0  0  0  0  0  0  0
   24.5400  -10.2914    8.6914 C   0  0  0  0  0  0  0  0  0  0  0  0
   30.1475   -5.7574    8.1815 C   0  0  0  0  0  0  0  0  0  0  0  0
   28.7244   -5.6080    8.7126 C   0  0  2  0  0  0  0  0  0  0  0  0
   28.1893   -4.2586    8.2041 C   0  0  0  0  0  0  0  0  0  0  0  0
   28.7713   -5.6016   10.2394 C   0  0  0  0  0  0  0  0  0  0  0  0
   27.8064   -6.7475    8.2358 C   0  0  0  0  0  0  0  0  0  0  0  0
   27.8719   -7.1400    6.9244 C   0  0  0  0  0  0  0  0  0  0  0  0
   27.0559   -8.1174    6.4201 C   0  0  0  0  0  0  0  0  0  0  0  0
   27.1551   -8.5859    4.9805 C   0  0  0  0  0  0  0  0  0  0  0  0
   27.6944   -6.5565    3.7407 C   0  0  0  0  0  0  0  0  0  0  0  0
   28.5364   -5.7067    2.7682 C   0  0  0  0  0  0  0  0  0  0  0  0
   28.8401   -4.1655    0.9503 C   0  0  0  0  0  0  0  0  0  0  0  0
   31.1082   -3.3694    0.3197 C   0  0  0  0  0  0  0  0  0  0  0  0
   30.7398   -4.9850    2.1987 C   0  0  0  0  0  0  0  0  0  0  0  0
   25.0725   -9.0818    9.4288 C   0  0  2  0  0  0  0  0  0  0  0  0
   23.9254   -8.0889    9.6370 C   0  0  0  0  0  0  0  0  0  0  0  0
   26.8650   -7.3527    9.0680 C   0  0  0  0  0  0  0  0  0  0  0  0
   26.5331   -9.5154    4.5845 O   0  0  0  0  0  0  0  0  0  0  0  0
   31.5456   -3.8357   -0.7611 O   0  0  0  0  0  0  0  0  0  0  0  0
   31.4643   -2.2656    0.8094 O   0  0  0  0  0  0  0  0  0  0  0  0
   29.1219   -8.3694    3.7234 H   0  0  0  0  0  0  0  0  0  0  0  0
   26.9024   -4.9516    1.5686 H   0  0  0  0  0  0  0  0  0  0  0  0
   30.3032   -6.4080    3.7684 H   0  0  0  0  0  0  0  0  0  0  0  0
   25.4869   -9.5438    6.8616 H   0  0  0  0  0  0  0  0  0  0  0  0
   24.9891   -9.0407   11.5910 H   0  0  0  0  0  0  0  0  0  0  0  0
   25.8454  -10.4629   10.9049 H   0  0  0  0  0  0  0  0  0  0  0  0
   26.6383   -8.8511   10.9049 H   0  0  0  0  0  0  0  0  0  0  0  0
   24.2074  -11.0469    9.4183 H   0  0  0  0  0  0  0  0  0  0  0  0
   23.6908   -9.9913    8.0599 H   0  0  0  0  0  0  0  0  0  0  0  0
   25.3348  -10.7151    8.0599 H   0  0  0  0  0  0  0  0  0  0  0  0
   30.8482   -5.8310    9.0262 H   0  0  0  0  0  0  0  0  0  0  0  0
   30.2161   -6.6677    7.5677 H   0  0  0  0  0  0  0  0  0  0  0  0
   30.4037   -4.8812    7.5677 H   0  0  0  0  0  0  0  0  0  0  0  0
   27.9354   -3.6183    9.0617 H   0  0  0  0  0  0  0  0  0  0  0  0
   28.9598   -3.7652    7.5935 H   0  0  0  0  0  0  0  0  0  0  0  0
   27.2900   -4.4274    7.5935 H   0  0  0  0  0  0  0  0  0  0  0  0
   27.7555   -5.7403   10.6381 H   0  0  0  0  0  0  0  0  0  0  0  0
   29.4176   -6.4198   10.5898 H   0  0  0  0  0  0  0  0  0  0  0  0
   29.1746   -4.6400   10.5898 H   0  0  0  0  0  0  0  0  0  0  0  0
   28.6008   -6.6560    6.2577 H   0  0  0  0  0  0  0  0  0  0  0  0
   26.7623   -6.1656    4.1747 H   0  0  0  0  0  0  0  0  0  0  0  0
   28.4328   -3.5130    0.1640 H   0  0  0  0  0  0  0  0  0  0  0  0
   31.8235   -4.9665    2.3868 H   0  0  0  0  0  0  0  0  0  0  0  0
   23.7573   -7.9434   10.7143 H   0  0  0  0  0  0  0  0  0  0  0  0
   24.1852   -7.1259    9.1731 H   0  0  0  0  0  0  0  0  0  0  0  0
   23.0097   -8.4841    9.1731 H   0  0  0  0  0  0  0  0  0  0  0  0
   26.7689   -7.0426   10.1191 H   0  0  0  0  0  0  0  0  0  0  0  0
  1 16  1  0
  1 17  2  3
  2 18  2  0
  2 19  1  0
  3 19  2  0
  3 20  1  0
  3 21  1  0
  4 18  1  0
  4 21  2  0
  5  6  2  0
  5 15  1  0
  6 22  1  0
  6 24  1  0
 22  7  1  1
  8 22  1  0
 10  9  1  6
 10 11  1  0
 10 12  1  0
 10 13  1  0
 13 14  1  0
 13 24  2  0
 14 15  2  0
 15 16  1  0
 16 25  2  0
 17 18  1  0
 20 26  2  0
 20 27  1  0
 22 23  1  0
  1 28  1  0
  2 29  1  0
  4 30  1  0
  5 31  1  0
  7 32  1  0
  7 33  1  0
  7 34  1  0
  8 35  1  0
  8 36  1  0
  8 37  1  0
  9 38  1  0
  9 39  1  0
  9 40  1  0
 11 41  1  0
 11 42  1  0
 11 43  1  0
 12 44  1  0
 12 45  1  0
 12 46  1  0
 14 47  1  0
 17 48  1  0
 19 49  1  0
 21 50  1  0
 23 51  1  0
 23 52  1  0
 23 53  1  0
 24 54  1  0
M  CHG  1  27  -1
M  END
>  <filename_input>  (16) 
7WQQ_5Z6_docked.sdf

>  <pdb_id>  (16) 
7WQQ_5Z6

>  <pose_rank>  (16) 
15

>  <num_atoms_heavy>  (16) 
27

>  <num_torsions>  (16) 
6

>  <pose>  (16) 
[26.13672346941935, -8.744279652193722, 7.246922358473223, -1.5421011360143917, 1.5219831915236346, -0.35871791192545927, -3.394416468998148, 0.45125696445713676, -0.4463548050010488, -11.076216685907772, -3.768735011752416, 1.3401813327139205]

>  <energy>  (16) 
-425.3161483659844

>  <inter_energy>  (16) 
-439.18898793078984

>  <intra_energy>  (16) 
9.355367010743965

>  <rmsd>  (16) 
8.40048

>  <sdf_rank>  (16) 
0

$$$$

     RDKit          3D

 54 55  0  0  0  0  0  0  0  0999 V2000
   29.6558   -5.1828   11.6015 C   0  0  0  0  0  0  0  0  0  0  0  0
   27.6865   -6.5535    8.8167 C   0  0  0  0  0  0  0  0  0  0  0  0
   28.6373   -6.1273    6.6818 C   0  0  0  0  0  0  0  0  0  0  0  0
   29.3218   -4.8049    8.5439 C   0  0  0  0  0  0  0  0  0  0  0  0
   31.6622   -3.9755   13.4896 C   0  0  0  0  0  0  0  0  0  0  0  0
   32.7080   -3.7573   14.3480 C   0  0  0  0  0  0  0  0  0  0  0  0
   34.7215   -4.0522   12.8883 C   0  0  0  0  0  0  0  0  0  0  0  0
   34.7253   -2.4341   14.8821 C   0  0  0  0  0  0  0  0  0  0  0  0
   30.0716   -5.9522   17.8669 C   0  0  0  0  0  0  0  0  0  0  0  0
   31.3092   -5.0852   17.6519 C   0  0  2  0  0  0  0  0  0  0  0  0
   32.5282   -5.9198   18.0796 C   0  0  0  0  0  0  0  0  0  0  0  0
   31.1968   -3.8457   18.5376 C   0  0  0  0  0  0  0  0  0  0  0  0
   31.4627   -4.6500   16.1837 C   0  0  0  0  0  0  0  0  0  0  0  0
   30.4258   -4.8802   15.3176 C   0  0  0  0  0  0  0  0  0  0  0  0
   30.5079   -4.5585   13.9890 C   0  0  0  0  0  0  0  0  0  0  0  0
   29.3469   -4.7707   13.0357 C   0  0  0  0  0  0  0  0  0  0  0  0
   28.4059   -5.0816   10.8076 C   0  0  0  0  0  0  0  0  0  0  0  0
   28.4524   -5.5195    9.3302 C   0  0  0  0  0  0  0  0  0  0  0  0
   27.7655   -6.8390    7.4435 C   0  0  0  0  0  0  0  0  0  0  0  0
   28.7081   -6.4183    5.1830 C   0  0  0  0  0  0  0  0  0  0  0  0
   29.4005   -5.0788    7.1838 C   0  0  0  0  0  0  0  0  0  0  0  0
   33.9275   -3.0835   13.7719 C   0  0  2  0  0  0  0  0  0  0  0  0
   33.3664   -1.9860   12.8634 C   0  0  0  0  0  0  0  0  0  0  0  0
   32.6384   -4.0901   15.6844 C   0  0  0  0  0  0  0  0  0  0  0  0
   28.2209   -4.7244   13.4067 O   0  0  0  0  0  0  0  0  0  0  0  0
   28.9240   -7.5967    4.8067 O   0  0  0  0  0  0  0  0  0  0  0  0
   28.6459   -5.4284    4.4075 O   0  0  0  0  0  0  0  0  0  0  0  0
   30.6373   -5.5008   11.2199 H   0  0  0  0  0  0  0  0  0  0  0  0
   27.0277   -7.1409    9.4731 H   0  0  0  0  0  0  0  0  0  0  0  0
   29.9522   -4.0203    8.9878 H   0  0  0  0  0  0  0  0  0  0  0  0
   31.7370   -3.6945   12.4288 H   0  0  0  0  0  0  0  0  0  0  0  0
   35.2904   -4.7464   13.5243 H   0  0  0  0  0  0  0  0  0  0  0  0
   34.0273   -4.6221   12.2532 H   0  0  0  0  0  0  0  0  0  0  0  0
   35.4165   -3.4834   12.2532 H   0  0  0  0  0  0  0  0  0  0  0  0
   34.3286   -2.7570   15.8559 H   0  0  0  0  0  0  0  0  0  0  0  0
   35.7806   -2.7333   14.7986 H   0  0  0  0  0  0  0  0  0  0  0  0
   34.6466   -1.3401   14.7986 H   0  0  0  0  0  0  0  0  0  0  0  0
   29.8939   -6.0766   18.9453 H   0  0  0  0  0  0  0  0  0  0  0  0
   29.1991   -5.4668   17.4052 H   0  0  0  0  0  0  0  0  0  0  0  0
   30.2297   -6.9380   17.4052 H   0  0  0  0  0  0  0  0  0  0  0  0
   32.5809   -5.9559   19.1777 H   0  0  0  0  0  0  0  0  0  0  0  0
   32.4304   -6.9413   17.6834 H   0  0  0  0  0  0  0  0  0  0  0  0
   33.4452   -5.4592   17.6834 H   0  0  0  0  0  0  0  0  0  0  0  0
   31.2241   -4.1470   19.5952 H   0  0  0  0  0  0  0  0  0  0  0  0
   32.0371   -3.1676   18.3277 H   0  0  0  0  0  0  0  0  0  0  0  0
   30.2481   -3.3298   18.3277 H   0  0  0  0  0  0  0  0  0  0  0  0
   29.5010   -5.3364   15.7006 H   0  0  0  0  0  0  0  0  0  0  0  0
   27.4758   -4.7061   11.2592 H   0  0  0  0  0  0  0  0  0  0  0  0
   27.1357   -7.6213    6.9948 H   0  0  0  0  0  0  0  0  0  0  0  0
   30.0479   -4.4833    6.5232 H   0  0  0  0  0  0  0  0  0  0  0  0
   32.9519   -1.1753   13.4806 H   0  0  0  0  0  0  0  0  0  0  0  0
   34.1717   -1.5882   12.2284 H   0  0  0  0  0  0  0  0  0  0  0  0
   32.5724   -2.4060   12.2284 H   0  0  0  0  0  0  0  0  0  0  0  0
   33.4985   -3.9163   16.3477 H   0  0  0  0  0  0  0  0  0  0  0  0
  1 16  1  0
  1 17  2  3
  2 18  2  0
  2 19  1  0
  3 19  2  0
  3 20  1  0
  3 21  1  0
  4 18  1  0
  4 21  2  0
  5  6  2  0
  5 15  1  0
  6 22  1  0
  6 24  1  0
 22  7  1  6
  8 22  1  0
 10  9  1  6
 10 11  1  0
 10 12  1  0
 10 13  1  0
 13 14  1  0
 13 24  2  0
 14 15  2  0
 15 16  1  0
 16 25  2  0
 17 18  1  0
 20 26  2  0
 20 27  1  0
 22 23  1  0
  1 28  1  0
  2 29  1  0
  4 30  1  0
  5 31  1  0
  7 32  1  0
  7 33  1  0
  7 34  1  0
  8 35  1  0
  8 36  1  0
  8 37  1  0
  9 38  1  0
  9 39  1  0
  9 40  1  0
 11 41  1  0
 11 42  1  0
 11 43  1  0
 12 44  1  0
 12 45  1  0
 12 46  1  0
 14 47  1  0
 17 48  1  0
 19 49  1  0
 21 50  1  0
 23 51  1  0
 23 52  1  0
 23 53  1  0
 24 54  1  0
M  CHG  1  27  -1
M  END
>  <filename_input>  (17) 
7WQQ_5Z6_docked.sdf

>  <pdb_id>  (17) 
7WQQ_5Z6

>  <pose_rank>  (17) 
16

>  <num_atoms_heavy>  (17) 
27

>  <num_torsions>  (17) 
6

>  <pose>  (17) 
[31.662175628936378, -3.975513117874052, 13.489628916910792, -1.2098482934040333, -0.8849313387032713, 2.2228512256706123, -0.80913329862325, 1.3941781009203933, -2.952858087382982, -0.19166984956049216, -4.089832346024301, 1.944873615238121]

>  <energy>  (17) 
-431.50162577397896

>  <inter_energy>  (17) 
-432.88317021668837

>  <intra_energy>  (17) 
0.0

>  <rmsd>  (17) 
9.50121

>  <sdf_rank>  (17) 
0

$$$$

     RDKit          3D

 54 55  0  0  0  0  0  0  0  0999 V2000
   29.6998   -5.8269    8.6469 C   0  0  0  0  0  0  0  0  0  0  0  0
   26.4001   -7.3229    9.3419 C   0  0  0  0  0  0  0  0  0  0  0  0
   25.5020   -8.4987    7.4833 C   0  0  0  0  0  0  0  0  0  0  0  0
   27.2540   -6.9217    7.1248 C   0  0  0  0  0  0  0  0  0  0  0  0
   31.3209   -3.6385   11.3578 C   0  0  0  0  0  0  0  0  0  0  0  0
   31.7064   -3.7313   12.6697 C   0  0  0  0  0  0  0  0  0  0  0  0
   33.5133   -2.0470   13.0819 C   0  0  0  0  0  0  0  0  0  0  0  0
   31.6981   -2.5347   14.8315 C   0  0  0  0  0  0  0  0  0  0  0  0
   29.9885   -8.1654   13.2858 C   0  0  0  0  0  0  0  0  0  0  0  0
   31.3525   -7.4822   13.3340 C   0  0  2  0  0  0  0  0  0  0  0  0
   32.3439   -8.3946   12.5922 C   0  0  0  0  0  0  0  0  0  0  0  0
   31.7762   -7.3406   14.7948 C   0  0  0  0  0  0  0  0  0  0  0  0
   31.3269   -6.0922   12.6740 C   0  0  0  0  0  0  0  0  0  0  0  0
   30.9572   -5.9957   11.3578 C   0  0  0  0  0  0  0  0  0  0  0  0
   30.9522   -4.7980   10.6937 C   0  0  0  0  0  0  0  0  0  0  0  0
   30.5016   -4.6797    9.2499 C   0  0  0  0  0  0  0  0  0  0  0  0
   28.2619   -5.5884    8.9264 C   0  0  0  0  0  0  0  0  0  0  0  0
   27.2514   -6.6606    8.4725 C   0  0  0  0  0  0  0  0  0  0  0  0
   25.4799   -8.2464    8.8184 C   0  0  0  0  0  0  0  0  0  0  0  0
   24.4861   -9.4843    6.9066 C   0  0  0  0  0  0  0  0  0  0  0  0
   26.3425   -7.8301    6.5999 C   0  0  0  0  0  0  0  0  0  0  0  0
   32.0591   -2.4408   13.3647 C   0  0  2  0  0  0  0  0  0  0  0  0
   31.1609   -1.3911   12.7039 C   0  0  0  0  0  0  0  0  0  0  0  0
   31.7268   -4.9351   13.3421 C   0  0  0  0  0  0  0  0  0  0  0  0
   30.6687   -3.6847    8.6255 O   0  0  0  0  0  0  0  0  0  0  0  0
   23.3637   -9.5871    7.4603 O   0  0  0  0  0  0  0  0  0  0  0  0
   24.8776  -10.2166    5.9602 O   0  0  0  0  0  0  0  0  0  0  0  0
   30.1157   -6.6849    8.0985 H   0  0  0  0  0  0  0  0  0  0  0  0
   26.4439   -7.1290   10.4238 H   0  0  0  0  0  0  0  0  0  0  0  0
   27.9731   -6.4151    6.4643 H   0  0  0  0  0  0  0  0  0  0  0  0
   31.3045   -2.6662   10.8436 H   0  0  0  0  0  0  0  0  0  0  0  0
   34.0458   -1.9028   14.0336 H   0  0  0  0  0  0  0  0  0  0  0  0
   34.0036   -2.8447   12.5046 H   0  0  0  0  0  0  0  0  0  0  0  0
   33.5340   -1.1108   12.5046 H   0  0  0  0  0  0  0  0  0  0  0  0
   32.5834   -2.3044   15.4424 H   0  0  0  0  0  0  0  0  0  0  0  0
   30.8982   -1.8147   15.0590 H   0  0  0  0  0  0  0  0  0  0  0  0
   31.3505   -3.5532   15.0590 H   0  0  0  0  0  0  0  0  0  0  0  0
   29.6316   -8.3443   14.3108 H   0  0  0  0  0  0  0  0  0  0  0  0
   29.2733   -7.5192   12.7559 H   0  0  0  0  0  0  0  0  0  0  0  0
   30.0778   -9.1253   12.7559 H   0  0  0  0  0  0  0  0  0  0  0  0
   32.9483   -8.9508   13.3239 H   0  0  0  0  0  0  0  0  0  0  0  0
   31.7880   -9.1036   11.9611 H   0  0  0  0  0  0  0  0  0  0  0  0
   33.0044   -7.7819   11.9611 H   0  0  0  0  0  0  0  0  0  0  0  0
   30.9373   -7.6209   15.4487 H   0  0  0  0  0  0  0  0  0  0  0  0
   32.6329   -8.0013   14.9938 H   0  0  0  0  0  0  0  0  0  0  0  0
   32.0636   -6.2976   14.9938 H   0  0  0  0  0  0  0  0  0  0  0  0
   30.6560   -6.9064   10.8194 H   0  0  0  0  0  0  0  0  0  0  0  0
   27.9277   -4.6755    9.4411 H   0  0  0  0  0  0  0  0  0  0  0  0
   24.7576   -8.7540    9.4747 H   0  0  0  0  0  0  0  0  0  0  0  0
   26.2875   -8.0148    5.5169 H   0  0  0  0  0  0  0  0  0  0  0  0
   30.6549   -0.7998   13.4812 H   0  0  0  0  0  0  0  0  0  0  0  0
   31.7738   -0.7259   12.0779 H   0  0  0  0  0  0  0  0  0  0  0  0
   30.4090   -1.8938   12.0779 H   0  0  0  0  0  0  0  0  0  0  0  0
   32.0541   -4.9821   14.3912 H   0  0  0  0  0  0  0  0  0  0  0  0
  1 16  1  0
  1 17  2  3
  2 18  2  0
  2 19  1  0
  3 19  2  0
  3 20  1  0
  3 21  1  0
  4 18  1  0
  4 21  2  0
  5  6  2  0
  5 15  1  0
  6 22  1  0
  6 24  1  0
 22  7  1  1
  8 22  1  0
 10  9  1  1
 10 11  1  0
 10 12  1  0
 10 13  1  0
 13 14  1  0
 13 24  2  0
 14 15  2  0
 15 16  1  0
 16 25  2  0
 17 18  1  0
 20 26  2  0
 20 27  1  0
 22 23  1  0
  1 28  1  0
  2 29  1  0
  4 30  1  0
  5 31  1  0
  7 32  1  0
  7 33  1  0
  7 34  1  0
  8 35  1  0
  8 36  1  0
  8 37  1  0
  9 38  1  0
  9 39  1  0
  9 40  1  0
 11 41  1  0
 11 42  1  0
 11 43  1  0
 12 44  1  0
 12 45  1  0
 12 46  1  0
 14 47  1  0
 17 48  1  0
 19 49  1  0
 21 50  1  0
 23 51  1  0
 23 52  1  0
 23 53  1  0
 24 54  1  0
M  CHG  1  27  -1
M  END
>  <filename_input>  (18) 
7WQQ_5Z6_docked.sdf

>  <pdb_id>  (18) 
7WQQ_5Z6

>  <pose_rank>  (18) 
17

>  <num_atoms_heavy>  (18) 
27

>  <num_torsions>  (18) 
6

>  <pose>  (18) 
[31.320926961454003, -3.638518173394974, 11.357777185312969, -1.1436821766021976, -2.416494416985528, 1.7071747039516034, -0.9792887719041858, 0.1896156234432724, -0.14017724743289256, -1.977949762872649, -4.052758139701088, 3.4335500343595844]

>  <energy>  (18) 
-522.2008280735567

>  <inter_energy>  (18) 
-518.4576726706316

>  <intra_energy>  (18) 
0.6505972594454781

>  <rmsd>  (18) 
8.77502

>  <sdf_rank>  (18) 
0

$$$$

     RDKit          3D

 54 55  0  0  0  0  0  0  0  0999 V2000
   29.3807   -5.5325   10.3759 C   0  0  0  0  0  0  0  0  0  0  0  0
   27.6287   -7.5009    7.7706 C   0  0  0  0  0  0  0  0  0  0  0  0
   28.3606   -6.9553    5.5773 C   0  0  0  0  0  0  0  0  0  0  0  0
   28.8286   -5.4507    7.3667 C   0  0  0  0  0  0  0  0  0  0  0  0
   30.8273   -3.5075   12.4058 C   0  0  0  0  0  0  0  0  0  0  0  0
   31.8414   -3.0719   13.2183 C   0  0  0  0  0  0  0  0  0  0  0  0
   32.0832   -1.3150   11.4501 C   0  0  0  0  0  0  0  0  0  0  0  0
   33.9499   -1.7853   13.1494 C   0  0  0  0  0  0  0  0  0  0  0  0
   30.9696   -5.8157   16.9600 C   0  0  0  0  0  0  0  0  0  0  0  0
   32.0048   -5.8540   15.8391 C   0  0  2  0  0  0  0  0  0  0  0  0
   32.1351   -7.3197   15.3912 C   0  0  0  0  0  0  0  0  0  0  0  0
   33.3415   -5.3633   16.3922 C   0  0  0  0  0  0  0  0  0  0  0  0
   31.5953   -4.9764   14.6431 C   0  0  0  0  0  0  0  0  0  0  0  0
   30.5923   -5.4148   13.8184 C   0  0  0  0  0  0  0  0  0  0  0  0
   30.2043   -4.7074   12.7118 C   0  0  0  0  0  0  0  0  0  0  0  0
   29.0652   -5.1663   11.8211 C   0  0  0  0  0  0  0  0  0  0  0  0
   28.1044   -5.8382    9.6829 C   0  0  0  0  0  0  0  0  0  0  0  0
   28.1745   -6.3080    8.2162 C   0  0  0  0  0  0  0  0  0  0  0  0
   27.7023   -7.8113    6.4025 C   0  0  0  0  0  0  0  0  0  0  0  0
   28.4214   -7.2773    4.0845 C   0  0  0  0  0  0  0  0  0  0  0  0
   28.9000   -5.7493    6.0113 C   0  0  0  0  0  0  0  0  0  0  0  0
   32.4626   -1.7424   12.8724 C   0  0  2  0  0  0  0  0  0  0  0  0
   31.8109   -0.7509   13.8405 C   0  0  0  0  0  0  0  0  0  0  0  0
   32.2470   -3.7846   14.3270 C   0  0  0  0  0  0  0  0  0  0  0  0
   27.9727   -5.3420   12.2492 O   0  0  0  0  0  0  0  0  0  0  0  0
   28.6954   -8.4508    3.7310 O   0  0  0  0  0  0  0  0  0  0  0  0
   28.2914   -6.3110    3.2881 O   0  0  0  0  0  0  0  0  0  0  0  0
   30.3829   -5.5647    9.9237 H   0  0  0  0  0  0  0  0  0  0  0  0
   27.1460   -8.1932    8.4760 H   0  0  0  0  0  0  0  0  0  0  0  0
   29.2933   -4.5330    7.7564 H   0  0  0  0  0  0  0  0  0  0  0  0
   30.5149   -2.9184   11.5310 H   0  0  0  0  0  0  0  0  0  0  0  0
   31.3536   -0.4930   11.4966 H   0  0  0  0  0  0  0  0  0  0  0  0
   32.9835   -0.9764   10.9165 H   0  0  0  0  0  0  0  0  0  0  0  0
   31.6401   -2.1688   10.9165 H   0  0  0  0  0  0  0  0  0  0  0  0
   34.1204   -1.7903   14.2361 H   0  0  0  0  0  0  0  0  0  0  0  0
   34.3792   -2.6962   12.7067 H   0  0  0  0  0  0  0  0  0  0  0  0
   34.4310   -0.9007   12.7067 H   0  0  0  0  0  0  0  0  0  0  0  0
   31.4820   -5.8347   17.9332 H   0  0  0  0  0  0  0  0  0  0  0  0
   30.3736   -4.8949   16.8773 H   0  0  0  0  0  0  0  0  0  0  0  0
   30.3071   -6.6899   16.8773 H   0  0  0  0  0  0  0  0  0  0  0  0
   32.1929   -7.9698   16.2766 H   0  0  0  0  0  0  0  0  0  0  0  0
   31.2582   -7.5982   14.7884 H   0  0  0  0  0  0  0  0  0  0  0  0
   33.0474   -7.4391   14.7884 H   0  0  0  0  0  0  0  0  0  0  0  0
   33.3099   -5.3749   17.4917 H   0  0  0  0  0  0  0  0  0  0  0  0
   34.1482   -6.0239   16.0416 H   0  0  0  0  0  0  0  0  0  0  0  0
   33.5291   -4.3377   16.0416 H   0  0  0  0  0  0  0  0  0  0  0  0
   30.0844   -6.3621   14.0520 H   0  0  0  0  0  0  0  0  0  0  0  0
   27.1389   -5.7329   10.1995 H   0  0  0  0  0  0  0  0  0  0  0  0
   27.2375   -8.7268    6.0079 H   0  0  0  0  0  0  0  0  0  0  0  0
   29.3697   -5.0518    5.3022 H   0  0  0  0  0  0  0  0  0  0  0  0
   32.0149   -1.0614   14.8759 H   0  0  0  0  0  0  0  0  0  0  0  0
   32.2253    0.2538   13.6705 H   0  0  0  0  0  0  0  0  0  0  0  0
   30.7242   -0.7329   13.6705 H   0  0  0  0  0  0  0  0  0  0  0  0
   33.0734   -3.4180   14.9537 H   0  0  0  0  0  0  0  0  0  0  0  0
  1 16  1  0
  1 17  2  3
  2 18  2  0
  2 19  1  0
  3 19  2  0
  3 20  1  0
  3 21  1  0
  4 18  1  0
  4 21  2  0
  5  6  2  0
  5 15  1  0
  6 22  1  0
  6 24  1  0
 22  7  1  6
  8 22  1  0
 10  9  1  1
 10 11  1  0
 10 12  1  0
 10 13  1  0
 13 14  1  0
 13 24  2  0
 14 15  2  0
 15 16  1  0
 16 25  2  0
 17 18  1  0
 20 26  2  0
 20 27  1  0
 22 23  1  0
  1 28  1  0
  2 29  1  0
  4 30  1  0
  5 31  1  0
  7 32  1  0
  7 33  1  0
  7 34  1  0
  8 35  1  0
  8 36  1  0
  8 37  1  0
  9 38  1  0
  9 39  1  0
  9 40  1  0
 11 41  1  0
 11 42  1  0
 11 43  1  0
 12 44  1  0
 12 45  1  0
 12 46  1  0
 14 47  1  0
 17 48  1  0
 19 49  1  0
 21 50  1  0
 23 51  1  0
 23 52  1  0
 23 53  1  0
 24 54  1  0
M  CHG  1  27  -1
M  END
>  <filename_input>  (19) 
7WQQ_5Z6_docked.sdf

>  <pdb_id>  (19) 
7WQQ_5Z6

>  <pose_rank>  (19) 
18

>  <num_atoms_heavy>  (19) 
27

>  <num_torsions>  (19) 
6

>  <pose>  (19) 
[30.827305566003858, -3.507462320733245, 12.405826874334172, -0.6784674828128238, -1.5814596674053814, 2.330538936896411, 0.21851918300084253, -0.07089649795662636, -2.4565432326217636, -0.2932968711970485, -4.005260173364727, 2.1125818397845557]

>  <energy>  (19) 
-440.4517929931316

>  <inter_energy>  (19) 
-442.37366402673774

>  <intra_energy>  (19) 
0.0

>  <rmsd>  (19) 
9.28958

>  <sdf_rank>  (19) 
0

$$$$

     RDKit          3D

 54 55  0  0  0  0  0  0  0  0999 V2000
   33.5684   -5.8929   10.4627 C   0  0  0  0  0  0  0  0  0  0  0  0
   31.6180   -5.5634   13.1321 C   0  0  0  0  0  0  0  0  0  0  0  0
   31.8516   -4.0220   14.9246 C   0  0  0  0  0  0  0  0  0  0  0  0
   32.6384   -3.4129   12.7578 C   0  0  0  0  0  0  0  0  0  0  0  0
   35.4409   -5.2288    7.2877 C   0  0  0  0  0  0  0  0  0  0  0  0
   36.7074   -5.3081    6.7699 C   0  0  0  0  0  0  0  0  0  0  0  0
   36.1282   -4.6637    4.4202 C   0  0  0  0  0  0  0  0  0  0  0  0
   38.5153   -4.4249    5.3358 C   0  0  0  0  0  0  0  0  0  0  0  0
   37.6126   -9.1903    9.5581 C   0  0  0  0  0  0  0  0  0  0  0  0
   38.3183   -7.9475    9.0225 C   0  0  2  0  0  0  0  0  0  0  0  0
   39.3274   -8.4198    7.9622 C   0  0  0  0  0  0  0  0  0  0  0  0
   39.0597   -7.2723   10.1749 C   0  0  0  0  0  0  0  0  0  0  0  0
   37.3314   -6.9467    8.3957 C   0  0  0  0  0  0  0  0  0  0  0  0
   36.0589   -6.8746    8.8995 C   0  0  0  0  0  0  0  0  0  0  0  0
   35.1153   -6.0385    8.3647 C   0  0  0  0  0  0  0  0  0  0  0  0
   33.7190   -5.9229    8.9466 C   0  0  0  0  0  0  0  0  0  0  0  0
   32.5174   -4.9034   10.8076 C   0  0  0  0  0  0  0  0  0  0  0  0
   32.2342   -4.6426   12.3004 C   0  0  0  0  0  0  0  0  0  0  0  0
   31.4533   -5.2468   14.4907 C   0  0  0  0  0  0  0  0  0  0  0  0
   31.6966   -3.6832   16.4068 C   0  0  0  0  0  0  0  0  0  0  0  0
   32.4833   -3.0957   14.1019 C   0  0  0  0  0  0  0  0  0  0  0  0
   37.0307   -4.3803    5.6264 C   0  0  2  0  0  0  0  0  0  0  0  0
   36.6744   -2.9863    6.1507 C   0  0  0  0  0  0  0  0  0  0  0  0
   37.6595   -6.1567    7.2942 C   0  0  0  0  0  0  0  0  0  0  0  0
   32.7692   -5.7536    8.2559 O   0  0  0  0  0  0  0  0  0  0  0  0
   30.8587   -4.3243   17.0879 O   0  0  0  0  0  0  0  0  0  0  0  0
   32.3546   -2.7002   16.8377 O   0  0  0  0  0  0  0  0  0  0  0  0
   34.1408   -6.5007   11.1790 H   0  0  0  0  0  0  0  0  0  0  0  0
   31.2638   -6.5263   12.7352 H   0  0  0  0  0  0  0  0  0  0  0  0
   33.0824   -2.6832   12.0647 H   0  0  0  0  0  0  0  0  0  0  0  0
   34.6998   -4.5386    6.8584 H   0  0  0  0  0  0  0  0  0  0  0  0
   35.1338   -4.9760    4.7717 H   0  0  0  0  0  0  0  0  0  0  0  0
   36.0326   -3.7524    3.8117 H   0  0  0  0  0  0  0  0  0  0  0  0
   36.5707   -5.4661    3.8117 H   0  0  0  0  0  0  0  0  0  0  0  0
   39.0741   -4.4417    6.2832 H   0  0  0  0  0  0  0  0  0  0  0  0
   38.7485   -5.3305    4.7565 H   0  0  0  0  0  0  0  0  0  0  0  0
   38.8025   -3.5350    4.7565 H   0  0  0  0  0  0  0  0  0  0  0  0
   37.6227   -9.1724   10.6579 H   0  0  0  0  0  0  0  0  0  0  0  0
   36.5721   -9.2036    9.2012 H   0  0  0  0  0  0  0  0  0  0  0  0
   38.1341  -10.0906    9.2012 H   0  0  0  0  0  0  0  0  0  0  0  0
   40.2155   -8.8355    8.4607 H   0  0  0  0  0  0  0  0  0  0  0  0
   38.8634   -9.1943    7.3338 H   0  0  0  0  0  0  0  0  0  0  0  0
   39.6250   -7.5674    7.3338 H   0  0  0  0  0  0  0  0  0  0  0  0
   38.6592   -7.6371   11.1323 H   0  0  0  0  0  0  0  0  0  0  0  0
   40.1316   -7.5109   10.1112 H   0  0  0  0  0  0  0  0  0  0  0  0
   38.9221   -6.1828   10.1112 H   0  0  0  0  0  0  0  0  0  0  0  0
   35.7876   -7.5065    9.7581 H   0  0  0  0  0  0  0  0  0  0  0  0
   31.9582   -4.3729   10.0228 H   0  0  0  0  0  0  0  0  0  0  0  0
   31.0116   -5.9740   15.1880 H   0  0  0  0  0  0  0  0  0  0  0  0
   32.8496   -2.1394   14.5035 H   0  0  0  0  0  0  0  0  0  0  0  0
   36.6770   -2.9965    7.2507 H   0  0  0  0  0  0  0  0  0  0  0  0
   37.4152   -2.2581    5.7890 H   0  0  0  0  0  0  0  0  0  0  0  0
   35.6749   -2.7030    5.7890 H   0  0  0  0  0  0  0  0  0  0  0  0
   38.6643   -6.2098    6.8497 H   0  0  0  0  0  0  0  0  0  0  0  0
  1 16  1  0
  1 17  2  3
  2 18  2  0
  2 19  1  0
  3 19  2  0
  3 20  1  0
  3 21  1  0
  4 18  1  0
  4 21  2  0
  5  6  2  0
  5 15  1  0
  6 22  1  0
  6 24  1  0
 22  7  1  6
  8 22  1  0
 10  9  1  1
 10 11  1  0
 10 12  1  0
 10 13  1  0
 13 14  1  0
 13 24  2  0
 14 15  2  0
 15 16  1  0
 16 25  2  0
 17 18  1  0
 20 26  2  0
 20 27  1  0
 22 23  1  0
  1 28  1  0
  2 29  1  0
  4 30  1  0
  5 31  1  0
  7 32  1  0
  7 33  1  0
  7 34  1  0
  8 35  1  0
  8 36  1  0
  8 37  1  0
  9 38  1  0
  9 39  1  0
  9 40  1  0
 11 41  1  0
 11 42  1  0
 11 43  1  0
 12 44  1  0
 12 45  1  0
 12 46  1  0
 14 47  1  0
 17 48  1  0
 19 49  1  0
 21 50  1  0
 23 51  1  0
 23 52  1  0
 23 53  1  0
 24 54  1  0
M  CHG  1  27  -1
M  END
>  <filename_input>  (20) 
7WQQ_5Z6_docked.sdf

>  <pdb_id>  (20) 
7WQQ_5Z6

>  <pose_rank>  (20) 
19

>  <num_atoms_heavy>  (20) 
27

>  <num_torsions>  (20) 
6

>  <pose>  (20) 
[35.44090424667522, -5.228827284050977, 7.287663308780833, 0.1513329874024132, -0.662520872266466, 1.9737572202583487, -0.5893571937656927, 1.7603563045134167, 0.29698395750344847, -1.0674905767706653, -1.1105387776484732, 2.515451413042731]

>  <energy>  (20) 
-299.483158241576

>  <inter_energy>  (20) 
-293.189740235399

>  <intra_energy>  (20) 
0.0

>  <rmsd>  (20) 
7.8078

>  <sdf_rank>  (20) 
0

$$$$

     RDKit          3D

 54 55  0  0  0  0  0  0  0  0999 V2000
   33.2977   -6.3825   11.0245 C   0  0  0  0  0  0  0  0  0  0  0  0
   32.4316   -3.2406   12.9549 C   0  0  0  0  0  0  0  0  0  0  0  0
   31.5701   -3.8369   15.0871 C   0  0  0  0  0  0  0  0  0  0  0  0
   31.7957   -5.5193   13.4126 C   0  0  0  0  0  0  0  0  0  0  0  0
   36.0209   -7.1448    9.2370 C   0  0  0  0  0  0  0  0  0  0  0  0
   37.0319   -8.0239    8.9479 C   0  0  0  0  0  0  0  0  0  0  0  0
   39.1275   -7.5362    7.6664 C   0  0  0  0  0  0  0  0  0  0  0  0
   39.1851   -8.1942   10.1478 C   0  0  0  0  0  0  0  0  0  0  0  0
   33.7875  -11.3323    7.4931 C   0  0  0  0  0  0  0  0  0  0  0  0
   35.0995  -11.2551    8.2691 C   0  0  2  0  0  0  0  0  0  0  0  0
   36.1929  -11.8626    7.3741 C   0  0  0  0  0  0  0  0  0  0  0  0
   34.9606  -12.0818    9.5462 C   0  0  0  0  0  0  0  0  0  0  0  0
   35.4697   -9.8074    8.6371 C   0  0  0  0  0  0  0  0  0  0  0  0
   34.4619   -8.9203    8.9118 C   0  0  0  0  0  0  0  0  0  0  0  0
   34.7143   -7.6065    9.2049 C   0  0  0  0  0  0  0  0  0  0  0  0
   33.6053   -6.6315    9.5529 C   0  0  0  0  0  0  0  0  0  0  0  0
   32.6238   -5.0655   11.1437 C   0  0  0  0  0  0  0  0  0  0  0  0
   32.2759   -4.5587   12.5575 C   0  0  0  0  0  0  0  0  0  0  0  0
   32.0356   -2.8717   14.2513 C   0  0  0  0  0  0  0  0  0  0  0  0
   31.1153   -3.4352   16.4898 C   0  0  0  0  0  0  0  0  0  0  0  0
   31.3970   -5.1597   14.6945 C   0  0  0  0  0  0  0  0  0  0  0  0
   38.4391   -7.4899    9.0352 C   0  0  2  0  0  0  0  0  0  0  0  0
   38.2675   -6.0163    9.4147 C   0  0  0  0  0  0  0  0  0  0  0  0
   36.7855   -9.3451    8.6390 C   0  0  0  0  0  0  0  0  0  0  0  0
   33.0539   -5.9930    8.7186 O   0  0  0  0  0  0  0  0  0  0  0  0
   30.6619   -4.3223   17.2543 O   0  0  0  0  0  0  0  0  0  0  0  0
   31.1281   -2.2061   16.7620 O   0  0  0  0  0  0  0  0  0  0  0  0
   33.5346   -7.0624   11.8561 H   0  0  0  0  0  0  0  0  0  0  0  0
   32.8580   -2.4957   12.2671 H   0  0  0  0  0  0  0  0  0  0  0  0
   31.7268   -6.5671   13.0852 H   0  0  0  0  0  0  0  0  0  0  0  0
   36.2414   -6.0969    9.4887 H   0  0  0  0  0  0  0  0  0  0  0  0
   40.2162   -7.6095    7.8059 H   0  0  0  0  0  0  0  0  0  0  0  0
   38.7699   -8.4123    7.1056 H   0  0  0  0  0  0  0  0  0  0  0  0
   38.8905   -6.6201    7.1056 H   0  0  0  0  0  0  0  0  0  0  0  0
   38.8115   -7.8415   11.1204 H   0  0  0  0  0  0  0  0  0  0  0  0
   39.0266   -9.2796   10.0658 H   0  0  0  0  0  0  0  0  0  0  0  0
   40.2596   -7.9734   10.0658 H   0  0  0  0  0  0  0  0  0  0  0  0
   32.9459  -11.3817    8.1997 H   0  0  0  0  0  0  0  0  0  0  0  0
   33.6828  -10.4387    6.8601 H   0  0  0  0  0  0  0  0  0  0  0  0
   33.7882  -12.2319    6.8601 H   0  0  0  0  0  0  0  0  0  0  0  0
   36.9811  -12.3005    8.0041 H   0  0  0  0  0  0  0  0  0  0  0  0
   35.7536  -12.6460    6.7390 H   0  0  0  0  0  0  0  0  0  0  0  0
   36.6260  -11.0757    6.7390 H   0  0  0  0  0  0  0  0  0  0  0  0
   35.0710  -11.4252   10.4218 H   0  0  0  0  0  0  0  0  0  0  0  0
   33.9697  -12.5588    9.5682 H   0  0  0  0  0  0  0  0  0  0  0  0
   35.7411  -12.8566    9.5682 H   0  0  0  0  0  0  0  0  0  0  0  0
   33.4203   -9.2736    8.8963 H   0  0  0  0  0  0  0  0  0  0  0  0
   32.3802   -4.4700   10.2515 H   0  0  0  0  0  0  0  0  0  0  0  0
   32.1008   -1.8248   14.5825 H   0  0  0  0  0  0  0  0  0  0  0  0
   30.9573   -5.9002   15.3789 H   0  0  0  0  0  0  0  0  0  0  0  0
   38.2561   -5.9187   10.5103 H   0  0  0  0  0  0  0  0  0  0  0  0
   39.1037   -5.4319    9.0032 H   0  0  0  0  0  0  0  0  0  0  0  0
   37.3194   -5.6396    9.0032 H   0  0  0  0  0  0  0  0  0  0  0  0
   37.6157  -10.0252    8.3974 H   0  0  0  0  0  0  0  0  0  0  0  0
  1 16  1  0
  1 17  2  3
  2 18  2  0
  2 19  1  0
  3 19  2  0
  3 20  1  0
  3 21  1  0
  4 18  1  0
  4 21  2  0
  5  6  2  0
  5 15  1  0
  6 22  1  0
  6 24  1  0
 22  7  1  6
  8 22  1  0
 10  9  1  6
 10 11  1  0
 10 12  1  0
 10 13  1  0
 13 14  1  0
 13 24  2  0
 14 15  2  0
 15 16  1  0
 16 25  2  0
 17 18  1  0
 20 26  2  0
 20 27  1  0
 22 23  1  0
  1 28  1  0
  2 29  1  0
  4 30  1  0
  5 31  1  0
  7 32  1  0
  7 33  1  0
  7 34  1  0
  8 35  1  0
  8 36  1  0
  8 37  1  0
  9 38  1  0
  9 39  1  0
  9 40  1  0
 11 41  1  0
 11 42  1  0
 11 43  1  0
 12 44  1  0
 12 45  1  0
 12 46  1  0
 14 47  1  0
 17 48  1  0
 19 49  1  0
 21 50  1  0
 23 51  1  0
 23 52  1  0
 23 53  1  0
 24 54  1  0
M  CHG  1  27  -1
M  END
>  <filename_input>  (21) 
7WQQ_5Z6_docked.sdf

>  <pdb_id>  (21) 
7WQQ_5Z6

>  <pose_rank>  (21) 
20

>  <num_atoms_heavy>  (21) 
27

>  <num_torsions>  (21) 
6

>  <pose>  (21) 
[36.0209312867831, -7.144829108897739, 9.23697760844468, -0.15449221473114205, -1.5377526438141467, 0.794217735073914, -1.5552420269274252, 1.8016890362822016, 1.2461666787376524, -0.7684128028205738, -3.7334712345061525, -0.2631310478586615]

>  <energy>  (21) 
-282.66146155116314

>  <inter_energy>  (21) 
-285.6035429102561

>  <intra_energy>  (21) 
0.0

>  <rmsd>  (21) 
7.51961

>  <sdf_rank>  (21) 
0

$$$$

     RDKit          3D

 54 55  0  0  0  0  0  0  0  0999 V2000
   32.7749   -9.3847   12.6245 C   0  0  0  0  0  0  0  0  0  0  0  0
   35.2163  -12.0743   13.9771 C   0  0  0  0  0  0  0  0  0  0  0  0
   36.4211  -12.8823   12.0958 C   0  0  0  0  0  0  0  0  0  0  0  0
   34.6962  -11.2696   11.7662 C   0  0  0  0  0  0  0  0  0  0  0  0
   31.2157   -6.7047   11.7390 C   0  0  0  0  0  0  0  0  0  0  0  0
   31.1127   -5.3712   11.4402 C   0  0  0  0  0  0  0  0  0  0  0  0
   30.6194   -3.5056    9.8439 C   0  0  0  0  0  0  0  0  0  0  0  0
   29.2776   -5.6948    9.8175 C   0  0  0  0  0  0  0  0  0  0  0  0
   33.6918   -3.6074   14.8920 C   0  0  0  0  0  0  0  0  0  0  0  0
   32.1796   -3.7390   14.7316 C   0  0  2  0  0  0  0  0  0  0  0  0
   31.6412   -2.3503   14.3479 C   0  0  0  0  0  0  0  0  0  0  0  0
   31.5826   -4.1718   16.0694 C   0  0  0  0  0  0  0  0  0  0  0  0
   31.7999   -4.7644   13.6486 C   0  0  0  0  0  0  0  0  0  0  0  0
   31.9160   -6.0992   13.9370 C   0  0  0  0  0  0  0  0  0  0  0  0
   31.6367   -7.0668   13.0090 C   0  0  0  0  0  0  0  0  0  0  0  0
   31.7212   -8.5456   13.3372 C   0  0  0  0  0  0  0  0  0  0  0  0
   33.3239  -10.3656   13.5936 C   0  0  0  0  0  0  0  0  0  0  0  0
   34.4662  -11.2861   13.1195 C   0  0  0  0  0  0  0  0  0  0  0  0
   36.2013  -12.9175   13.4365 C   0  0  0  0  0  0  0  0  0  0  0  0
   37.4748  -13.8160   11.5010 C   0  0  0  0  0  0  0  0  0  0  0  0
   35.6653  -12.1054   11.2245 C   0  0  0  0  0  0  0  0  0  0  0  0
   30.6117   -5.0229   10.0615 C   0  0  2  0  0  0  0  0  0  0  0  0
   31.6484   -5.6297    9.1118 C   0  0  0  0  0  0  0  0  0  0  0  0
   31.4045   -4.3904   12.3646 C   0  0  0  0  0  0  0  0  0  0  0  0
   31.0644   -9.0304   14.1982 O   0  0  0  0  0  0  0  0  0  0  0  0
   38.3644  -13.3283   10.7610 O   0  0  0  0  0  0  0  0  0  0  0  0
   37.3256  -15.0486   11.7093 O   0  0  0  0  0  0  0  0  0  0  0  0
   33.0770   -9.2811   11.5718 H   0  0  0  0  0  0  0  0  0  0  0  0
   35.0435  -12.0404   15.0629 H   0  0  0  0  0  0  0  0  0  0  0  0
   34.1169  -10.5989   11.1146 H   0  0  0  0  0  0  0  0  0  0  0  0
   30.9699   -7.4701   10.9882 H   0  0  0  0  0  0  0  0  0  0  0  0
   30.6220   -2.9954   10.8184 H   0  0  0  0  0  0  0  0  0  0  0  0
   31.5190   -3.2209    9.2785 H   0  0  0  0  0  0  0  0  0  0  0  0
   29.7227   -3.2117    9.2785 H   0  0  0  0  0  0  0  0  0  0  0  0
   28.8051   -5.9328   10.7819 H   0  0  0  0  0  0  0  0  0  0  0  0
   28.6251   -5.0178    9.2466 H   0  0  0  0  0  0  0  0  0  0  0  0
   29.4331   -6.6221    9.2466 H   0  0  0  0  0  0  0  0  0  0  0  0
   33.9464   -3.5852   15.9619 H   0  0  0  0  0  0  0  0  0  0  0  0
   34.1872   -4.4658   14.4149 H   0  0  0  0  0  0  0  0  0  0  0  0
   34.0315   -2.6763   14.4149 H   0  0  0  0  0  0  0  0  0  0  0  0
   31.4193   -1.7781   15.2607 H   0  0  0  0  0  0  0  0  0  0  0  0
   32.3970   -1.8151   13.7543 H   0  0  0  0  0  0  0  0  0  0  0  0
   30.7222   -2.4645   13.7543 H   0  0  0  0  0  0  0  0  0  0  0  0
   32.1747   -3.7426   16.8911 H   0  0  0  0  0  0  0  0  0  0  0  0
   30.5445   -3.8150   16.1402 H   0  0  0  0  0  0  0  0  0  0  0  0
   31.5987   -5.2694   16.1402 H   0  0  0  0  0  0  0  0  0  0  0  0
   32.2429   -6.4019   14.9428 H   0  0  0  0  0  0  0  0  0  0  0  0
   32.9283  -10.4336   14.6177 H   0  0  0  0  0  0  0  0  0  0  0  0
   36.7817  -13.5912   14.0839 H   0  0  0  0  0  0  0  0  0  0  0  0
   35.8299  -12.1512   10.1379 H   0  0  0  0  0  0  0  0  0  0  0  0
   32.4518   -6.0998    9.6979 H   0  0  0  0  0  0  0  0  0  0  0  0
   31.1654   -6.3877    8.4776 H   0  0  0  0  0  0  0  0  0  0  0  0
   32.0727   -4.8374    8.4776 H   0  0  0  0  0  0  0  0  0  0  0  0
   31.3264   -3.3273   12.0929 H   0  0  0  0  0  0  0  0  0  0  0  0
  1 16  1  0
  1 17  2  3
  2 18  2  0
  2 19  1  0
  3 19  2  0
  3 20  1  0
  3 21  1  0
  4 18  1  0
  4 21  2  0
  5  6  2  0
  5 15  1  0
  6 22  1  0
  6 24  1  0
 22  7  1  1
  8 22  1  0
 10  9  1  1
 10 11  1  0
 10 12  1  0
 10 13  1  0
 13 14  1  0
 13 24  2  0
 14 15  2  0
 15 16  1  0
 16 25  2  0
 17 18  1  0
 20 26  2  0
 20 27  1  0
 22 23  1  0
  1 28  1  0
  2 29  1  0
  4 30  1  0
  5 31  1  0
  7 32  1  0
  7 33  1  0
  7 34  1  0
  8 35  1  0
  8 36  1  0
  8 37  1  0
  9 38  1  0
  9 39  1  0
  9 40  1  0
 11 41  1  0
 11 42  1  0
 11 43  1  0
 12 44  1  0
 12 45  1  0
 12 46  1  0
 14 47  1  0
 17 48  1  0
 19 49  1  0
 21 50  1  0
 23 51  1  0
 23 52  1  0
 23 53  1  0
 24 54  1  0
M  CHG  1  27  -1
M  END
>  <filename_input>  (22) 
7WQQ_5Z6_docked.sdf

>  <pdb_id>  (22) 
7WQQ_5Z6

>  <pose_rank>  (22) 
21

>  <num_atoms_heavy>  (22) 
27

>  <num_torsions>  (22) 
6

>  <pose>  (22) 
[31.21570695445138, -6.7047228323878345, 11.738963084400938, 0.19778325632011903, -0.6291825445072777, 3.8786576628016824, -2.6022651198148656, 2.5361642884641498, 3.854289133998779, -1.0401563733378538, 3.0601830387536366, 0.6642809566514999]

>  <energy>  (22) 
-360.0224803464128

>  <inter_energy>  (22) 
-358.65913398195556

>  <intra_energy>  (22) 
0.0

>  <rmsd>  (22) 
8.81402

>  <sdf_rank>  (22) 
0

$$$$

     RDKit          3D

 54 55  0  0  0  0  0  0  0  0999 V2000
   33.7662   -6.7181   10.3571 C   0  0  0  0  0  0  0  0  0  0  0  0
   31.4577   -5.9096   12.7161 C   0  0  0  0  0  0  0  0  0  0  0  0
   31.7288   -4.1665   14.3073 C   0  0  0  0  0  0  0  0  0  0  0  0
   32.8112   -3.9866   12.1905 C   0  0  0  0  0  0  0  0  0  0  0  0
   35.6067   -8.1924    7.3695 C   0  0  0  0  0  0  0  0  0  0  0  0
   36.3690   -9.2854    7.0494 C   0  0  0  0  0  0  0  0  0  0  0  0
   36.3955   -9.5128    4.5555 C   0  0  0  0  0  0  0  0  0  0  0  0
   38.4782   -9.9973    5.9771 C   0  0  0  0  0  0  0  0  0  0  0  0
   34.6732  -12.7472    9.4132 C   0  0  0  0  0  0  0  0  0  0  0  0
   35.6018  -11.6606    9.9486 C   0  0  2  0  0  0  0  0  0  0  0  0
   37.0037  -12.2812   10.0714 C   0  0  0  0  0  0  0  0  0  0  0  0
   35.1058  -11.2307   11.3280 C   0  0  0  0  0  0  0  0  0  0  0  0
   35.6526  -10.4341    9.0204 C   0  0  0  0  0  0  0  0  0  0  0  0
   34.8802   -9.3444    9.3275 C   0  0  0  0  0  0  0  0  0  0  0  0
   34.8425   -8.2351    8.5251 C   0  0  0  0  0  0  0  0  0  0  0  0
   34.0235   -7.0094    8.8836 C   0  0  0  0  0  0  0  0  0  0  0  0
   32.6743   -5.7173   10.4510 C   0  0  0  0  0  0  0  0  0  0  0  0
   32.2819   -5.2072   11.8519 C   0  0  0  0  0  0  0  0  0  0  0  0
   31.2035   -5.3796   13.9920 C   0  0  0  0  0  0  0  0  0  0  0  0
   31.4748   -3.5981   15.7031 C   0  0  0  0  0  0  0  0  0  0  0  0
   32.5680   -3.4595   13.4531 C   0  0  0  0  0  0  0  0  0  0  0  0
   37.2160   -9.1797    5.8067 C   0  0  2  0  0  0  0  0  0  0  0  0
   37.5970   -7.6987    5.7267 C   0  0  0  0  0  0  0  0  0  0  0  0
   36.4027  -10.4113    7.8449 C   0  0  0  0  0  0  0  0  0  0  0  0
   33.6749   -6.2311    8.0588 O   0  0  0  0  0  0  0  0  0  0  0  0
   31.1759   -4.3890   16.6315 O   0  0  0  0  0  0  0  0  0  0  0  0
   31.4812   -2.3442   15.8167 O   0  0  0  0  0  0  0  0  0  0  0  0
   34.2986   -7.1720   11.2060 H   0  0  0  0  0  0  0  0  0  0  0  0
   31.0100   -6.8661   12.4084 H   0  0  0  0  0  0  0  0  0  0  0  0
   33.4240   -3.4293   11.4667 H   0  0  0  0  0  0  0  0  0  0  0  0
   35.6015   -7.3016    6.7241 H   0  0  0  0  0  0  0  0  0  0  0  0
   35.4148   -9.9108    4.8554 H   0  0  0  0  0  0  0  0  0  0  0  0
   36.2536   -8.6010    3.9566 H   0  0  0  0  0  0  0  0  0  0  0  0
   36.9292  -10.2655    3.9566 H   0  0  0  0  0  0  0  0  0  0  0  0
   38.6860  -10.1319    7.0488 H   0  0  0  0  0  0  0  0  0  0  0  0
   38.3447  -10.9809    5.5031 H   0  0  0  0  0  0  0  0  0  0  0  0
   39.3213   -9.4733    5.5031 H   0  0  0  0  0  0  0  0  0  0  0  0
   34.2138  -13.2848   10.2558 H   0  0  0  0  0  0  0  0  0  0  0  0
   33.8855  -12.2865    8.7990 H   0  0  0  0  0  0  0  0  0  0  0  0
   35.2511  -13.4534    8.7990 H   0  0  0  0  0  0  0  0  0  0  0  0
   37.2622  -12.3957   11.1345 H   0  0  0  0  0  0  0  0  0  0  0  0
   37.0121  -13.2672    9.5838 H   0  0  0  0  0  0  0  0  0  0  0  0
   37.7393  -11.6247    9.5838 H   0  0  0  0  0  0  0  0  0  0  0  0
   35.6944  -11.7408   12.1047 H   0  0  0  0  0  0  0  0  0  0  0  0
   35.2211  -10.1421   11.4362 H   0  0  0  0  0  0  0  0  0  0  0  0
   34.0446  -11.4995   11.4362 H   0  0  0  0  0  0  0  0  0  0  0  0
   34.2732   -9.3612   10.2446 H   0  0  0  0  0  0  0  0  0  0  0  0
   32.1613   -5.3510    9.5495 H   0  0  0  0  0  0  0  0  0  0  0  0
   30.5929   -5.9342   14.7197 H   0  0  0  0  0  0  0  0  0  0  0  0
   33.0262   -2.5102   13.7678 H   0  0  0  0  0  0  0  0  0  0  0  0
   37.7017   -7.2916    6.7433 H   0  0  0  0  0  0  0  0  0  0  0  0
   38.5513   -7.5940    5.1897 H   0  0  0  0  0  0  0  0  0  0  0  0
   36.8117   -7.1465    5.1897 H   0  0  0  0  0  0  0  0  0  0  0  0
   37.0130  -11.2798    7.5562 H   0  0  0  0  0  0  0  0  0  0  0  0
  1 16  1  0
  1 17  2  3
  2 18  2  0
  2 19  1  0
  3 19  2  0
  3 20  1  0
  3 21  1  0
  4 18  1  0
  4 21  2  0
  5  6  2  0
  5 15  1  0
  6 22  1  0
  6 24  1  0
 22  7  1  6
  8 22  1  0
 10  9  1  6
 10 11  1  0
 10 12  1  0
 10 13  1  0
 13 14  1  0
 13 24  2  0
 14 15  2  0
 15 16  1  0
 16 25  2  0
 17 18  1  0
 20 26  2  0
 20 27  1  0
 22 23  1  0
  1 28  1  0
  2 29  1  0
  4 30  1  0
  5 31  1  0
  7 32  1  0
  7 33  1  0
  7 34  1  0
  8 35  1  0
  8 36  1  0
  8 37  1  0
  9 38  1  0
  9 39  1  0
  9 40  1  0
 11 41  1  0
 11 42  1  0
 11 43  1  0
 12 44  1  0
 12 45  1  0
 12 46  1  0
 14 47  1  0
 17 48  1  0
 19 49  1  0
 21 50  1  0
 23 51  1  0
 23 52  1  0
 23 53  1  0
 24 54  1  0
M  CHG  1  27  -1
M  END
>  <filename_input>  (23) 
7WQQ_5Z6_docked.sdf

>  <pdb_id>  (23) 
7WQQ_5Z6

>  <pose_rank>  (23) 
22

>  <num_atoms_heavy>  (23) 
27

>  <num_torsions>  (23) 
6

>  <pose>  (23) 
[35.60673110298319, -8.19236561475469, 7.369468205590982, 1.0509697301112355, 1.5592590263555357, -4.588713777442791, -0.9712278662776584, -3.345386785209508, 0.06442670972220244, -0.11450475394959644, -1.2842080173535029, 3.286199967194789]

>  <energy>  (23) 
-336.27992646617855

>  <inter_energy>  (23) 
-320.5951835839083

>  <intra_energy>  (23) 
0.0

>  <rmsd>  (23) 
7.118

>  <sdf_rank>  (23) 
0

$$$$

     RDKit          3D

 54 55  0  0  0  0  0  0  0  0999 V2000
   24.0576  -12.1228   13.0000 C   0  0  0  0  0  0  0  0  0  0  0  0
   25.7044  -10.3488   10.9017 C   0  0  0  0  0  0  0  0  0  0  0  0
   25.1610   -9.1468    8.9259 C   0  0  0  0  0  0  0  0  0  0  0  0
   23.8076  -11.0021    9.5670 C   0  0  0  0  0  0  0  0  0  0  0  0
   24.5711  -13.9428   15.9957 C   0  0  0  0  0  0  0  0  0  0  0  0
   24.3929  -13.9252   17.3545 C   0  0  0  0  0  0  0  0  0  0  0  0
   25.0573  -15.4720   19.2086 C   0  0  0  0  0  0  0  0  0  0  0  0
   26.2882  -13.2573   18.7922 C   0  0  0  0  0  0  0  0  0  0  0  0
   20.5314  -13.0356   18.9952 C   0  0  0  0  0  0  0  0  0  0  0  0
   20.9120  -12.3707   17.6751 C   0  0  2  0  0  0  0  0  0  0  0  0
   21.0350  -10.8616   17.9455 C   0  0  0  0  0  0  0  0  0  0  0  0
   19.7972  -12.6237   16.6618 C   0  0  0  0  0  0  0  0  0  0  0  0
   22.2402  -12.9117   17.1168 C   0  0  0  0  0  0  0  0  0  0  0  0
   22.4173  -12.9460   15.7582 C   0  0  0  0  0  0  0  0  0  0  0  0
   23.5554  -13.4530   15.1896 C   0  0  0  0  0  0  0  0  0  0  0  0
   23.7746  -13.4526   13.6884 C   0  0  0  0  0  0  0  0  0  0  0  0
   24.2557  -12.3802   11.5518 C   0  0  0  0  0  0  0  0  0  0  0  0
   24.6291  -11.1857   10.6514 C   0  0  0  0  0  0  0  0  0  0  0  0
   25.9894   -9.3193    9.9894 C   0  0  0  0  0  0  0  0  0  0  0  0
   25.4819   -8.0435    7.9181 C   0  0  0  0  0  0  0  0  0  0  0  0
   24.0873   -9.9889    8.6578 C   0  0  0  0  0  0  0  0  0  0  0  0
   25.5393  -14.4287   18.1943 C   0  0  2  0  0  0  0  0  0  0  0  0
   26.4585  -15.1436   17.1998 C   0  0  0  0  0  0  0  0  0  0  0  0
   23.2448  -13.4284   17.9347 C   0  0  0  0  0  0  0  0  0  0  0  0
   23.8322  -14.4622   13.0678 O   0  0  0  0  0  0  0  0  0  0  0  0
   26.0527   -7.0017    8.3252 O   0  0  0  0  0  0  0  0  0  0  0  0
   25.0580   -8.2047    6.7436 O   0  0  0  0  0  0  0  0  0  0  0  0
   24.1066  -11.1403   13.4922 H   0  0  0  0  0  0  0  0  0  0  0  0
   26.3245  -10.4881   11.7995 H   0  0  0  0  0  0  0  0  0  0  0  0
   22.9333  -11.6529    9.4185 H   0  0  0  0  0  0  0  0  0  0  0  0
   25.4989  -14.3365   15.5550 H   0  0  0  0  0  0  0  0  0  0  0  0
   25.2298  -15.0986   20.2288 H   0  0  0  0  0  0  0  0  0  0  0  0
   23.9827  -15.6564   19.0625 H   0  0  0  0  0  0  0  0  0  0  0  0
   25.6134  -16.4097   19.0625 H   0  0  0  0  0  0  0  0  0  0  0  0
   26.2489  -13.3187   19.8898 H   0  0  0  0  0  0  0  0  0  0  0  0
   27.3367  -13.2847   18.4607 H   0  0  0  0  0  0  0  0  0  0  0  0
   25.8233  -12.3171   18.4607 H   0  0  0  0  0  0  0  0  0  0  0  0
   20.8856  -12.4169   19.8329 H   0  0  0  0  0  0  0  0  0  0  0  0
   19.4376  -13.1382   19.0520 H   0  0  0  0  0  0  0  0  0  0  0  0
   20.9965  -14.0308   19.0520 H   0  0  0  0  0  0  0  0  0  0  0  0
   21.0495  -10.6836   19.0309 H   0  0  0  0  0  0  0  0  0  0  0  0
   21.9668  -10.4839   17.4995 H   0  0  0  0  0  0  0  0  0  0  0  0
   20.1765  -10.3381   17.4995 H   0  0  0  0  0  0  0  0  0  0  0  0
   18.8587  -12.8366   17.1947 H   0  0  0  0  0  0  0  0  0  0  0  0
   19.6663  -11.7324   16.0306 H   0  0  0  0  0  0  0  0  0  0  0  0
   20.0637  -13.4842   16.0306 H   0  0  0  0  0  0  0  0  0  0  0  0
   21.6226  -12.5551   15.1058 H   0  0  0  0  0  0  0  0  0  0  0  0
   24.1399  -13.3912   11.1341 H   0  0  0  0  0  0  0  0  0  0  0  0
   26.8636   -8.6672   10.1326 H   0  0  0  0  0  0  0  0  0  0  0  0
   23.4771   -9.8569    7.7522 H   0  0  0  0  0  0  0  0  0  0  0  0
   27.2102  -15.7283   17.7504 H   0  0  0  0  0  0  0  0  0  0  0  0
   25.8614  -15.8170   16.5674 H   0  0  0  0  0  0  0  0  0  0  0  0
   26.9642  -14.3991   16.5674 H   0  0  0  0  0  0  0  0  0  0  0  0
   23.1228  -13.4395   19.0279 H   0  0  0  0  0  0  0  0  0  0  0  0
  1 16  1  0
  1 17  2  3
  2 18  2  0
  2 19  1  0
  3 19  2  0
  3 20  1  0
  3 21  1  0
  4 18  1  0
  4 21  2  0
  5  6  2  0
  5 15  1  0
  6 22  1  0
  6 24  1  0
 22  7  1  1
  8 22  1  0
 10  9  1  1
 10 11  1  0
 10 12  1  0
 10 13  1  0
 13 14  1  0
 13 24  2  0
 14 15  2  0
 15 16  1  0
 16 25  2  0
 17 18  1  0
 20 26  2  0
 20 27  1  0
 22 23  1  0
  1 28  1  0
  2 29  1  0
  4 30  1  0
  5 31  1  0
  7 32  1  0
  7 33  1  0
  7 34  1  0
  8 35  1  0
  8 36  1  0
  8 37  1  0
  9 38  1  0
  9 39  1  0
  9 40  1  0
 11 41  1  0
 11 42  1  0
 11 43  1  0
 12 44  1  0
 12 45  1  0
 12 46  1  0
 14 47  1  0
 17 48  1  0
 19 49  1  0
 21 50  1  0
 23 51  1  0
 23 52  1  0
 23 53  1  0
 24 54  1  0
M  CHG  1  27  -1
M  END
>  <filename_input>  (24) 
7WQQ_5Z6_docked.sdf

>  <pdb_id>  (24) 
7WQQ_5Z6

>  <pose_rank>  (24) 
23

>  <num_atoms_heavy>  (24) 
27

>  <num_torsions>  (24) 
6

>  <pose>  (24) 
[24.57109877731938, -13.94278083704003, 15.995740919777798, -2.3051795533256842, -0.30494627152974857, 0.9478995877736317, -1.7690035916923383, -2.462065878937018, 0.8286406723310378, -0.38914243124726355, 1.060357333054608, 2.350858417044012]

>  <energy>  (24) 
-227.2349938389396

>  <inter_energy>  (24) 
-213.80696617582356

>  <intra_energy>  (24) 
0.0

>  <rmsd>  (24) 
12.0754

>  <sdf_rank>  (24) 
0

$$$$

     RDKit          3D

 54 55  0  0  0  0  0  0  0  0999 V2000
   34.3463   -9.3753    8.8926 C   0  0  0  0  0  0  0  0  0  0  0  0
   33.2004   -5.9619    8.1891 C   0  0  0  0  0  0  0  0  0  0  0  0
   31.4012   -5.2756    9.5804 C   0  0  0  0  0  0  0  0  0  0  0  0
   32.8049   -7.0658   10.2942 C   0  0  0  0  0  0  0  0  0  0  0  0
   36.0298  -12.5917    8.4168 C   0  0  0  0  0  0  0  0  0  0  0  0
   36.0676  -13.8854    8.8677 C   0  0  0  0  0  0  0  0  0  0  0  0
   35.4093  -15.9702    7.6463 C   0  0  0  0  0  0  0  0  0  0  0  0
   37.8459  -15.5085    8.3121 C   0  0  0  0  0  0  0  0  0  0  0  0
   34.3472  -12.2763   13.1773 C   0  0  0  0  0  0  0  0  0  0  0  0
   35.0267  -13.4781   12.5264 C   0  0  2  0  0  0  0  0  0  0  0  0
   34.0320  -14.6496   12.5865 C   0  0  0  0  0  0  0  0  0  0  0  0
   36.2797  -13.8241   13.3287 C   0  0  0  0  0  0  0  0  0  0  0  0
   35.4185  -13.1994   11.0645 C   0  0  0  0  0  0  0  0  0  0  0  0
   35.3673  -11.9095   10.6042 C   0  0  0  0  0  0  0  0  0  0  0  0
   35.6609  -11.5930    9.3045 C   0  0  0  0  0  0  0  0  0  0  0  0
   35.6485  -10.1617    8.8017 C   0  0  0  0  0  0  0  0  0  0  0  0
   34.6777   -7.9301    8.9581 C   0  0  0  0  0  0  0  0  0  0  0  0
   33.5162   -6.9307    9.1278 C   0  0  0  0  0  0  0  0  0  0  0  0
   32.0889   -5.1336    8.4168 C   0  0  0  0  0  0  0  0  0  0  0  0
   30.1767   -4.3931    9.8206 C   0  0  0  0  0  0  0  0  0  0  0  0
   31.7010   -6.2531   10.5229 C   0  0  0  0  0  0  0  0  0  0  0  0
   36.5140  -14.9337    7.8804 C   0  0  2  0  0  0  0  0  0  0  0  0
   36.7114  -14.1670    6.5696 C   0  0  0  0  0  0  0  0  0  0  0  0
   35.7610  -14.2143   10.1713 C   0  0  0  0  0  0  0  0  0  0  0  0
   36.6410   -9.6198    8.4425 O   0  0  0  0  0  0  0  0  0  0  0  0
   29.8475   -4.1268   11.0028 O   0  0  0  0  0  0  0  0  0  0  0  0
   29.5037   -4.0656    8.8082 O   0  0  0  0  0  0  0  0  0  0  0  0
   33.3339   -9.8052    8.9072 H   0  0  0  0  0  0  0  0  0  0  0  0
   33.8096   -5.8434    7.2810 H   0  0  0  0  0  0  0  0  0  0  0  0
   33.1069   -7.8126   11.0432 H   0  0  0  0  0  0  0  0  0  0  0  0
   36.2863  -12.3514    7.3745 H   0  0  0  0  0  0  0  0  0  0  0  0
   35.0296  -16.3266    8.6153 H   0  0  0  0  0  0  0  0  0  0  0  0
   34.5882  -15.5090    7.0779 H   0  0  0  0  0  0  0  0  0  0  0  0
   35.8174  -16.8190    7.0779 H   0  0  0  0  0  0  0  0  0  0  0  0
   37.8970  -15.5305    9.4107 H   0  0  0  0  0  0  0  0  0  0  0  0
   37.9485  -16.5309    7.9197 H   0  0  0  0  0  0  0  0  0  0  0  0
   38.6602  -14.8817    7.9197 H   0  0  0  0  0  0  0  0  0  0  0  0
   34.4017  -12.3726   14.2717 H   0  0  0  0  0  0  0  0  0  0  0  0
   34.8570  -11.3530   12.8647 H   0  0  0  0  0  0  0  0  0  0  0  0
   33.2933  -12.2371   12.8647 H   0  0  0  0  0  0  0  0  0  0  0  0
   33.8211  -14.8981   13.6371 H   0  0  0  0  0  0  0  0  0  0  0  0
   33.0971  -14.3631   12.0826 H   0  0  0  0  0  0  0  0  0  0  0  0
   34.4664  -15.5257   12.0826 H   0  0  0  0  0  0  0  0  0  0  0  0
   36.0555  -13.7622   14.4038 H   0  0  0  0  0  0  0  0  0  0  0  0
   36.6039  -14.8454   13.0800 H   0  0  0  0  0  0  0  0  0  0  0  0
   37.0821  -13.1139   13.0800 H   0  0  0  0  0  0  0  0  0  0  0  0
   35.0823  -11.1054   11.2986 H   0  0  0  0  0  0  0  0  0  0  0  0
   35.7192   -7.5831    8.8877 H   0  0  0  0  0  0  0  0  0  0  0  0
   31.7819   -4.3866    7.6699 H   0  0  0  0  0  0  0  0  0  0  0  0
   31.0822   -6.3796   11.4235 H   0  0  0  0  0  0  0  0  0  0  0  0
   36.9800  -13.1237    6.7918 H   0  0  0  0  0  0  0  0  0  0  0  0
   37.5178  -14.6372    5.9876 H   0  0  0  0  0  0  0  0  0  0  0  0
   35.7782  -14.1894    5.9876 H   0  0  0  0  0  0  0  0  0  0  0  0
   35.7862  -15.2631   10.5023 H   0  0  0  0  0  0  0  0  0  0  0  0
  1 16  1  0
  1 17  2  3
  2 18  2  0
  2 19  1  0
  3 19  2  0
  3 20  1  0
  3 21  1  0
  4 18  1  0
  4 21  2  0
  5  6  2  0
  5 15  1  0
  6 22  1  0
  6 24  1  0
 22  7  1  6
  8 22  1  0
 10  9  1  1
 10 11  1  0
 10 12  1  0
 10 13  1  0
 13 14  1  0
 13 24  2  0
 14 15  2  0
 15 16  1  0
 16 25  2  0
 17 18  1  0
 20 26  2  0
 20 27  1  0
 22 23  1  0
  1 28  1  0
  2 29  1  0
  4 30  1  0
  5 31  1  0
  7 32  1  0
  7 33  1  0
  7 34  1  0
  8 35  1  0
  8 36  1  0
  8 37  1  0
  9 38  1  0
  9 39  1  0
  9 40  1  0
 11 41  1  0
 11 42  1  0
 11 43  1  0
 12 44  1  0
 12 45  1  0
 12 46  1  0
 14 47  1  0
 17 48  1  0
 19 49  1  0
 21 50  1  0
 23 51  1  0
 23 52  1  0
 23 53  1  0
 24 54  1  0
M  CHG  1  27  -1
M  END
>  <filename_input>  (25) 
7WQQ_5Z6_docked.sdf

>  <pdb_id>  (25) 
7WQQ_5Z6

>  <pose_rank>  (25) 
24

>  <num_atoms_heavy>  (25) 
27

>  <num_torsions>  (25) 
6

>  <pose>  (25) 
[36.029788640773475, -12.591705033340821, 8.416841912005417, -0.8228150569188638, 0.1524855715399954, 0.7662418339645953, -1.5948361483114322, 1.428492049198599, -1.4736065628757926, -0.8221419142803271, -1.9336296985938675, 0.22960360634275173]

>  <energy>  (25) 
-169.93798073876033

>  <inter_energy>  (25) 
-166.2675680372873

>  <intra_energy>  (25) 
0.0

>  <rmsd>  (25) 
9.15528

>  <sdf_rank>  (25) 
0

$$$$

     RDKit          3D

 54 55  0  0  0  0  0  0  0  0999 V2000
   29.8540   -5.4730    9.7450 C   0  0  0  0  0  0  0  0  0  0  0  0
   30.7580   -5.3600   12.6100 C   0  0  0  0  0  0  0  0  0  0  0  0
   31.8920   -4.1570   14.3160 C   0  0  0  0  0  0  0  0  0  0  0  0
   31.4950   -3.1000   12.2160 C   0  0  0  0  0  0  0  0  0  0  0  0
   28.5660   -6.2800    6.2410 C   0  0  0  0  0  0  0  0  0  0  0  0
   27.6920   -7.1380    5.6260 C   0  0  0  0  0  0  0  0  0  0  0  0
   28.4170   -6.0230    3.5040 C   0  0  0  0  0  0  0  0  0  0  0  0
   26.5180   -7.7510    3.5400 C   0  0  0  0  0  0  0  0  0  0  0  0
   26.3370   -9.5190    9.4970 C   0  0  0  0  0  0  0  0  0  0  0  0
   25.6820   -8.4790    8.5920 C   0  0  2  0  0  0  0  0  0  0  0  0
   24.9500   -7.4800    9.5040 C   0  0  0  0  0  0  0  0  0  0  0  0
   24.6740   -9.1850    7.6870 C   0  0  0  0  0  0  0  0  0  0  0  0
   26.7130   -7.7360    7.7240 C   0  0  0  0  0  0  0  0  0  0  0  0
   27.5790   -6.8650    8.3320 C   0  0  0  0  0  0  0  0  0  0  0  0
   28.4940   -6.1380    7.6180 C   0  0  0  0  0  0  0  0  0  0  0  0
   29.4840   -5.2060    8.2910 C   0  0  0  0  0  0  0  0  0  0  0  0
   30.3800   -4.2150   10.3310 C   0  0  0  0  0  0  0  0  0  0  0  0
   30.8910   -4.2550   11.7850 C   0  0  0  0  0  0  0  0  0  0  0  0
   31.3050   -5.3110   13.9030 C   0  0  0  0  0  0  0  0  0  0  0  0
   32.5100   -4.1080   15.7130 C   0  0  0  0  0  0  0  0  0  0  0  0
   32.0430   -3.0470   13.4920 C   0  0  0  0  0  0  0  0  0  0  0  0
   27.8330   -7.2930    4.1330 C   0  0  2  0  0  0  0  0  0  0  0  0
   28.8660   -8.4100    3.9590 C   0  0  0  0  0  0  0  0  0  0  0  0
   26.7590   -7.8640    6.3360 C   0  0  0  0  0  0  0  0  0  0  0  0
   30.0440   -4.3520    7.6870 O   0  0  0  0  0  0  0  0  0  0  0  0
   32.8150   -2.9910   16.1990 O   0  0  0  0  0  0  0  0  0  0  0  0
   32.7730   -5.2120   16.2580 O   0  0  0  0  0  0  0  0  0  0  0  0
   29.7492   -6.4338   10.2703 H   0  0  0  0  0  0  0  0  0  0  0  0
   30.2330   -6.2605   12.2585 H   0  0  0  0  0  0  0  0  0  0  0  0
   31.5449   -2.2219   11.5554 H   0  0  0  0  0  0  0  0  0  0  0  0
   29.3076   -5.7170    5.6553 H   0  0  0  0  0  0  0  0  0  0  0  0
   28.7345   -5.3326    4.2993 H   0  0  0  0  0  0  0  0  0  0  0  0
   29.2838   -6.2878    2.8807 H   0  0  0  0  0  0  0  0  0  0  0  0
   27.6518   -5.5373    2.8807 H   0  0  0  0  0  0  0  0  0  0  0  0
   25.8157   -7.9956    4.3505 H   0  0  0  0  0  0  0  0  0  0  0  0
   26.0959   -6.9470    2.9193 H   0  0  0  0  0  0  0  0  0  0  0  0
   26.6867   -8.6433    2.9193 H   0  0  0  0  0  0  0  0  0  0  0  0
   26.1667   -9.2485   10.5495 H   0  0  0  0  0  0  0  0  0  0  0  0
   25.8982  -10.5076    9.2968 H   0  0  0  0  0  0  0  0  0  0  0  0
   27.4182   -9.5504    9.2968 H   0  0  0  0  0  0  0  0  0  0  0  0
   25.1390   -7.7379   10.5565 H   0  0  0  0  0  0  0  0  0  0  0  0
   25.3182   -6.4630    9.3039 H   0  0  0  0  0  0  0  0  0  0  0  0
   23.8693   -7.5247    9.3039 H   0  0  0  0  0  0  0  0  0  0  0  0
   23.9288   -9.7069    8.3053 H   0  0  0  0  0  0  0  0  0  0  0  0
   24.1684   -8.4426    7.0520 H   0  0  0  0  0  0  0  0  0  0  0  0
   25.1989   -9.9139    7.0520 H   0  0  0  0  0  0  0  0  0  0  0  0
   27.5380   -6.7464    9.4248 H   0  0  0  0  0  0  0  0  0  0  0  0
   30.4045   -3.2835    9.7464 H   0  0  0  0  0  0  0  0  0  0  0  0
   31.2592   -6.1872   14.5664 H   0  0  0  0  0  0  0  0  0  0  0  0
   32.5807   -2.1528   13.8402 H   0  0  0  0  0  0  0  0  0  0  0  0
   29.1933   -8.7640    4.9477 H   0  0  0  0  0  0  0  0  0  0  0  0
   28.4139   -9.2440    3.4021 H   0  0  0  0  0  0  0  0  0  0  0  0
   29.7327   -8.0244    3.4021 H   0  0  0  0  0  0  0  0  0  0  0  0
   26.0605   -8.5350    5.8146 H   0  0  0  0  0  0  0  0  0  0  0  0
  1 16  1  0
  1 17  2  3
  2 18  2  0
  2 19  1  0
  3 19  2  0
  3 20  1  0
  3 21  1  0
  4 18  1  0
  4 21  2  0
  5  6  2  0
  5 15  1  0
  6 22  1  0
  6 24  1  0
 22  7  1  6
  8 22  1  0
 10  9  1  1
 10 11  1  0
 10 12  1  0
 10 13  1  0
 13 14  1  0
 13 24  2  0
 14 15  2  0
 15 16  1  0
 16 25  2  0
 17 18  1  0
 20 26  2  0
 20 27  1  0
 22 23  1  0
  1 28  1  0
  2 29  1  0
  4 30  1  0
  5 31  1  0
  7 32  1  0
  7 33  1  0
  7 34  1  0
  8 35  1  0
  8 36  1  0
  8 37  1  0
  9 38  1  0
  9 39  1  0
  9 40  1  0
 11 41  1  0
 11 42  1  0
 11 43  1  0
 12 44  1  0
 12 45  1  0
 12 46  1  0
 14 47  1  0
 17 48  1  0
 19 49  1  0
 21 50  1  0
 23 51  1  0
 23 52  1  0
 23 53  1  0
 24 54  1  0
M  CHG  1  27  -1
M  END
>  <filename_input>  (26) 
7WQQ_5Z6_docked.sdf

>  <pdb_id>  (26) 
7WQQ_5Z6

>  <pose_rank>  (26) 
25

>  <num_atoms_heavy>  (26) 
27

>  <num_torsions>  (26) 
6

>  <pose>  (26) 
[28.566, -6.28, 6.241, 1e-06, 1e-06, 1e-06, 0.0, 0.0, 0.0, 0.0, 0.0, 0.0]

>  <energy>  (26) 
-1158.3893405474769

>  <inter_energy>  (26) 
-1165.4638621882434

>  <intra_energy>  (26) 
0.0

>  <rmsd>  (26) 
0.0

>  <sdf_rank>  (26) 
0

$$$$
