
     RDKit          3D

 33 32  0  0  0  0  0  0  0  0999 V2000
   22.4329   21.1602  -10.8466 N   0  0  0  0  0  0  0  0  0  0  0  0
   25.1474   18.8069  -12.1467 C   0  0  0  0  0  0  0  0  0  0  0  0
   25.1993   17.3030  -12.4068 C   0  0  1  0  0  0  0  0  0  0  0  0
   25.3016   16.9100  -13.8891 C   0  0  2  0  0  0  0  0  0  0  0  0
   25.2001   15.4127  -14.1394 C   0  0  0  0  0  0  0  0  0  0  0  0
   23.6805   20.8692  -11.6081 C   0  0  2  0  0  0  0  0  0  0  0  0
   23.7616   21.8021  -12.8236 C   0  0  0  0  0  0  0  0  0  0  0  0
   22.8974   21.6590  -13.7153 O   0  0  0  0  0  0  0  0  0  0  0  0
   24.6726   22.6520  -12.8273 O   0  0  0  0  0  0  0  0  0  0  0  0
   23.7463   19.3901  -12.0144 C   0  0  0  0  0  0  0  0  0  0  0  0
   26.3173   16.7667  -11.7089 O   0  0  0  0  0  0  0  0  0  0  0  0
   26.5894   17.4035  -14.4722 N   0  0  0  0  0  0  0  0  0  0  0  0
   25.1069   14.6683  -12.8774 O   0  0  0  0  0  0  0  0  0  0  0  0
   24.0682   13.4379  -12.7881 S   0  0  1  0  0  0  0  0  0  0  0  0
   23.4219   13.6503  -11.5056 O   0  0  0  0  0  0  0  0  0  0  0  0
   23.1608   13.5500  -13.9100 O   0  0  0  0  0  0  0  0  0  0  0  0
   24.8710   12.2381  -12.8341 O   0  0  0  0  0  0  0  0  0  0  0  0
   22.6287   21.1146   -9.8365 H   0  0  0  0  0  0  0  0  0  0  0  0
   22.0949   22.1026  -11.0886 H   0  0  0  0  0  0  0  0  0  0  0  0
   21.7128   20.4646  -11.0886 H   0  0  0  0  0  0  0  0  0  0  0  0
   25.6912   19.0105  -11.2125 H   0  0  0  0  0  0  0  0  0  0  0  0
   25.5977   19.2867  -13.0282 H   0  0  0  0  0  0  0  0  0  0  0  0
   24.2429   16.8914  -12.0519 H   0  0  0  0  0  0  0  0  0  0  0  0
   24.4375   17.3842  -14.3773 H   0  0  0  0  0  0  0  0  0  0  0  0
   24.3029   15.2099  -14.7426 H   0  0  0  0  0  0  0  0  0  0  0  0
   26.1065   15.0862  -14.6702 H   0  0  0  0  0  0  0  0  0  0  0  0
   24.5532   21.0577  -10.9656 H   0  0  0  0  0  0  0  0  0  0  0  0
   23.2417   19.2830  -12.9859 H   0  0  0  0  0  0  0  0  0  0  0  0
   23.2631   18.8318  -11.1991 H   0  0  0  0  0  0  0  0  0  0  0  0
   26.1639   16.8403  -10.7336 H   0  0  0  0  0  0  0  0  0  0  0  0
   27.2378   17.6520  -13.7115 H   0  0  0  0  0  0  0  0  0  0  0  0
   27.0090   16.6637  -15.0531 H   0  0  0  0  0  0  0  0  0  0  0  0
   26.4071   18.2343  -15.0531 H   0  0  0  0  0  0  0  0  0  0  0  0
  6  1  1  0
  2  3  1  0
  2 10  1  0
  3  4  1  0
  3 11  1  0
  4  5  1  0
  4 12  1  0
  5 13  1  0
  6  7  1  0
  6 10  1  0
  7  8  2  0
  7  9  1  0
 13 14  1  0
 14 15  2  0
 14 16  2  0
 14 17  1  1
  1 18  1  0
  1 19  1  0
  1 20  1  0
  2 21  1  0
  2 22  1  0
  3 23  1  1
  4 24  1  6
  5 25  1  0
  5 26  1  0
  6 27  1  1
 10 28  1  0
 10 29  1  0
 11 30  1  0
 12 31  1  0
 12 32  1  0
 12 33  1  0
M  CHG  4   1   1   9  -1  12   1  17  -1
M  END
>  <filename_input>  (1) 
7WUX_6OI_docked.sdf

>  <pdb_id>  (1) 
7WUX_6OI

>  <pose_rank>  (1) 
0

>  <num_atoms_heavy>  (1) 
17

>  <num_torsions>  (1) 
8

>  <pose>  (1) 
[25.19928642414746, 17.30302060685378, -12.406788053119799, -1.5550002960509033, 0.9154366844866658, -2.5939479557477, 0.07018703883874719, -7.336554191928101, 1.2510433769928015, -0.5402028951651288, 4.96879097840714, -6.549761876975207, -3.7187222160091524, -1.2889309735164887]

>  <energy>  (1) 
-590.2502062855106

>  <inter_energy>  (1) 
-601.172334265955

>  <intra_energy>  (1) 
15.139152102741683

>  <rmsd>  (1) 
6.81306

>  <sdf_rank>  (1) 
0

$$$$

     RDKit          3D

 33 32  0  0  0  0  0  0  0  0999 V2000
   23.6630   13.4869  -10.7620 N   0  0  0  0  0  0  0  0  0  0  0  0
   24.4811   16.9278  -12.0103 C   0  0  0  0  0  0  0  0  0  0  0  0
   24.4414   17.8172  -10.7695 C   0  0  1  0  0  0  0  0  0  0  0  0
   23.2922   18.8375  -10.7463 C   0  0  2  0  0  0  0  0  0  0  0  0
   23.7508   20.2860  -10.8245 C   0  0  0  0  0  0  0  0  0  0  0  0
   23.6478   14.4822  -11.8711 C   0  0  2  0  0  0  0  0  0  0  0  0
   23.6617   13.7429  -13.2156 C   0  0  0  0  0  0  0  0  0  0  0  0
   24.4855   12.8126  -13.3503 O   0  0  0  0  0  0  0  0  0  0  0  0
   22.8356   14.1090  -14.0734 O   0  0  0  0  0  0  0  0  0  0  0  0
   24.8194   15.4663  -11.7451 C   0  0  0  0  0  0  0  0  0  0  0  0
   24.3394   16.9809   -9.6228 O   0  0  0  0  0  0  0  0  0  0  0  0
   22.4669   18.6659   -9.5088 N   0  0  0  0  0  0  0  0  0  0  0  0
   24.6410   20.5002  -11.9722 O   0  0  0  0  0  0  0  0  0  0  0  0
   24.2045   21.5770  -13.0905 S   0  0  1  0  0  0  0  0  0  0  0  0
   24.7635   22.8173  -12.5835 O   0  0  0  0  0  0  0  0  0  0  0  0
   24.7867   21.1607  -14.3483 O   0  0  0  0  0  0  0  0  0  0  0  0
   22.7604   21.5645  -13.1097 O   0  0  0  0  0  0  0  0  0  0  0  0
   23.6555   13.9802   -9.8578 H   0  0  0  0  0  0  0  0  0  0  0  0
   22.8311   12.8834  -10.8307 H   0  0  0  0  0  0  0  0  0  0  0  0
   24.5129   12.9091  -10.8307 H   0  0  0  0  0  0  0  0  0  0  0  0
   23.4921   16.9674  -12.4901 H   0  0  0  0  0  0  0  0  0  0  0  0
   25.2903   17.3202  -12.6436 H   0  0  0  0  0  0  0  0  0  0  0  0
   25.3687   18.4089  -10.7795 H   0  0  0  0  0  0  0  0  0  0  0  0
   22.7000   18.6309  -11.6500 H   0  0  0  0  0  0  0  0  0  0  0  0
   22.8695   20.9362  -10.9278 H   0  0  0  0  0  0  0  0  0  0  0  0
   24.3044   20.5260   -9.9049 H   0  0  0  0  0  0  0  0  0  0  0  0
   22.7268   15.0808  -11.8124 H   0  0  0  0  0  0  0  0  0  0  0  0
   25.5955   15.1627  -12.4631 H   0  0  0  0  0  0  0  0  0  0  0  0
   25.1425   15.4174  -10.6948 H   0  0  0  0  0  0  0  0  0  0  0  0
   24.4068   17.5337   -8.8042 H   0  0  0  0  0  0  0  0  0  0  0  0
   23.0635   18.7899   -8.6784 H   0  0  0  0  0  0  0  0  0  0  0  0
   21.7136   19.3683   -9.4984 H   0  0  0  0  0  0  0  0  0  0  0  0
   22.0559   17.7216   -9.4984 H   0  0  0  0  0  0  0  0  0  0  0  0
  6  1  1  0
  2  3  1  0
  2 10  1  0
  3  4  1  0
  3 11  1  0
  4  5  1  0
  4 12  1  0
  5 13  1  0
  6  7  1  0
  6 10  1  0
  7  8  2  0
  7  9  1  0
 13 14  1  0
 14 15  2  0
 14 16  2  0
 14 17  1  6
  1 18  1  0
  1 19  1  0
  1 20  1  0
  2 21  1  0
  2 22  1  0
  3 23  1  1
  4 24  1  6
  5 25  1  0
  5 26  1  0
  6 27  1  6
 10 28  1  0
 10 29  1  0
 11 30  1  0
 12 31  1  0
 12 32  1  0
 12 33  1  0
M  CHG  4   1   1   9  -1  12   1  17  -1
M  END
>  <filename_input>  (2) 
7WUX_6OI_docked.sdf

>  <pdb_id>  (2) 
7WUX_6OI

>  <pose_rank>  (2) 
1

>  <num_atoms_heavy>  (2) 
17

>  <num_torsions>  (2) 
8

>  <pose>  (2) 
[24.4414068061524, 17.817182765466033, -10.769525762335562, -5.355497021261206, 2.135085364940487, -0.20356248095490767, 1.1156529706179905, -6.354522045915811, 0.9419759591298594, -2.9203533005579243, 0.887822332207302, -1.4353362272387047, -3.4830603205699475, -0.9551025930229543]

>  <energy>  (2) 
-627.2952625469876

>  <inter_energy>  (2) 
-616.5108925136899

>  <intra_energy>  (2) 
0.8659893061419884

>  <rmsd>  (2) 
1.4471

>  <sdf_rank>  (2) 
0

$$$$

     RDKit          3D

 33 32  0  0  0  0  0  0  0  0999 V2000
   26.1273   20.5424  -12.1537 N   0  0  0  0  0  0  0  0  0  0  0  0
   23.4206   18.2066  -12.6277 C   0  0  0  0  0  0  0  0  0  0  0  0
   23.7469   18.1388  -14.1180 C   0  0  1  0  0  0  0  0  0  0  0  0
   24.2684   16.7759  -14.6007 C   0  0  2  0  0  0  0  0  0  0  0  0
   23.5481   15.5858  -13.9847 C   0  0  0  0  0  0  0  0  0  0  0  0
   24.7717   20.4094  -12.7583 C   0  0  2  0  0  0  0  0  0  0  0  0
   24.1484   21.8025  -12.9164 C   0  0  0  0  0  0  0  0  0  0  0  0
   22.9485   21.8584  -13.2621 O   0  0  0  0  0  0  0  0  0  0  0  0
   24.8775   22.7820  -12.6691 O   0  0  0  0  0  0  0  0  0  0  0  0
   23.8846   19.4751  -11.9233 C   0  0  0  0  0  0  0  0  0  0  0  0
   22.5713   18.4683  -14.8488 O   0  0  0  0  0  0  0  0  0  0  0  0
   25.7323   16.6461  -14.3146 N   0  0  0  0  0  0  0  0  0  0  0  0
   24.2507   15.0993  -12.7909 O   0  0  0  0  0  0  0  0  0  0  0  0
   24.4794   13.5110  -12.6301 S   0  0  1  0  0  0  0  0  0  0  0  0
   25.5314   13.2347  -13.5917 O   0  0  0  0  0  0  0  0  0  0  0  0
   24.8784   13.2637  -11.2610 O   0  0  0  0  0  0  0  0  0  0  0  0
   23.2180   12.8934  -12.9667 O   0  0  0  0  0  0  0  0  0  0  0  0
   26.0475   20.5345  -11.1268 H   0  0  0  0  0  0  0  0  0  0  0  0
   26.7178   19.7552  -12.4582 H   0  0  0  0  0  0  0  0  0  0  0  0
   26.5536   21.4292  -12.4582 H   0  0  0  0  0  0  0  0  0  0  0  0
   22.3289   18.1331  -12.5139 H   0  0  0  0  0  0  0  0  0  0  0  0
   23.9662   17.3762  -12.1557 H   0  0  0  0  0  0  0  0  0  0  0  0
   24.5658   18.8526  -14.2912 H   0  0  0  0  0  0  0  0  0  0  0  0
   24.0721   16.7548  -15.6828 H   0  0  0  0  0  0  0  0  0  0  0  0
   22.5294   15.8899  -13.7023 H   0  0  0  0  0  0  0  0  0  0  0  0
   23.5192   14.7742  -14.7266 H   0  0  0  0  0  0  0  0  0  0  0  0
   24.8592   19.9519  -13.7549 H   0  0  0  0  0  0  0  0  0  0  0  0
   22.9909   20.0395  -11.6185 H   0  0  0  0  0  0  0  0  0  0  0  0
   24.5077   19.1412  -11.0806 H   0  0  0  0  0  0  0  0  0  0  0  0
   21.8371   18.6740  -14.2174 H   0  0  0  0  0  0  0  0  0  0  0  0
   25.8832   16.6328  -13.2958 H   0  0  0  0  0  0  0  0  0  0  0  0
   26.0861   15.7705  -14.7256 H   0  0  0  0  0  0  0  0  0  0  0  0
   26.2347   17.4459  -14.7256 H   0  0  0  0  0  0  0  0  0  0  0  0
  6  1  1  0
  2  3  1  0
  2 10  1  0
  3  4  1  0
  3 11  1  0
  4  5  1  0
  4 12  1  0
  5 13  1  0
  6  7  1  0
  6 10  1  0
  7  8  2  0
  7  9  1  0
 13 14  1  0
 14 15  2  0
 14 16  2  0
 14 17  1  6
  1 18  1  0
  1 19  1  0
  1 20  1  0
  2 21  1  0
  2 22  1  0
  3 23  1  1
  4 24  1  6
  5 25  1  0
  5 26  1  0
  6 27  1  6
 10 28  1  0
 10 29  1  0
 11 30  1  0
 12 31  1  0
 12 32  1  0
 12 33  1  0
M  CHG  4   1   1   9  -1  12   1  17  -1
M  END
>  <filename_input>  (3) 
7WUX_6OI_docked.sdf

>  <pdb_id>  (3) 
7WUX_6OI

>  <pose_rank>  (3) 
2

>  <num_atoms_heavy>  (3) 
17

>  <num_torsions>  (3) 
8

>  <pose>  (3) 
[23.74693145909208, 18.138794655724585, -14.117955113392537, 2.8430869121459224, 2.1463688932063163, -1.2016258285759829, 35.224464531586335, 28.789047050584763, 15.344209130215392, 3.109795429167601, 5.7113306592091915, 9.127124046528735, -3.13324475485303, -3.137140793428748]

>  <energy>  (3) 
-578.7197164837426

>  <inter_energy>  (3) 
-571.376574534162

>  <intra_energy>  (3) 
4.345528040797286

>  <rmsd>  (3) 
6.7237

>  <sdf_rank>  (3) 
0

$$$$

     RDKit          3D

 33 32  0  0  0  0  0  0  0  0999 V2000
   23.9320   21.5896  -10.8316 N   0  0  0  0  0  0  0  0  0  0  0  0
   23.3710   18.8253  -11.5820 C   0  0  0  0  0  0  0  0  0  0  0  0
   24.5137   17.8743  -11.2328 C   0  0  1  0  0  0  0  0  0  0  0  0
   24.0712   16.4608  -10.8222 C   0  0  2  0  0  0  0  0  0  0  0  0
   23.8387   15.5212  -11.9959 C   0  0  0  0  0  0  0  0  0  0  0  0
   24.4905   21.0947  -12.1216 C   0  0  2  0  0  0  0  0  0  0  0  0
   24.4995   22.2400  -13.1426 C   0  0  0  0  0  0  0  0  0  0  0  0
   23.5411   22.3031  -13.9424 O   0  0  0  0  0  0  0  0  0  0  0  0
   25.4530   23.0402  -13.0898 O   0  0  0  0  0  0  0  0  0  0  0  0
   23.7059   19.8774  -12.6314 C   0  0  0  0  0  0  0  0  0  0  0  0
   25.3764   17.7786  -12.3603 O   0  0  0  0  0  0  0  0  0  0  0  0
   22.8171   16.5228  -10.0067 N   0  0  0  0  0  0  0  0  0  0  0  0
   25.0156   14.6792  -12.2437 O   0  0  0  0  0  0  0  0  0  0  0  0
   24.7854   13.1164  -12.5685 S   0  0  1  0  0  0  0  0  0  0  0  0
   25.7825   12.8458  -13.5885 O   0  0  0  0  0  0  0  0  0  0  0  0
   25.0074   12.3785  -11.3434 O   0  0  0  0  0  0  0  0  0  0  0  0
   23.4281   13.0080  -13.0502 O   0  0  0  0  0  0  0  0  0  0  0  0
   24.4325   21.1461  -10.0481 H   0  0  0  0  0  0  0  0  0  0  0  0
   24.0466   22.6118  -10.7775 H   0  0  0  0  0  0  0  0  0  0  0  0
   22.9310   21.3530  -10.7775 H   0  0  0  0  0  0  0  0  0  0  0  0
   22.5299   18.2242  -11.9579 H   0  0  0  0  0  0  0  0  0  0  0  0
   23.1367   19.3758  -10.6590 H   0  0  0  0  0  0  0  0  0  0  0  0
   25.0161   18.3000  -10.3516 H   0  0  0  0  0  0  0  0  0  0  0  0
   24.9068   16.0524  -10.2347 H   0  0  0  0  0  0  0  0  0  0  0  0
   22.9762   14.8758  -11.7734 H   0  0  0  0  0  0  0  0  0  0  0  0
   23.6486   16.1269  -12.8943 H   0  0  0  0  0  0  0  0  0  0  0  0
   25.5263   20.7583  -11.9664 H   0  0  0  0  0  0  0  0  0  0  0  0
   24.3046   19.3935  -13.4172 H   0  0  0  0  0  0  0  0  0  0  0  0
   22.7405   20.2679  -12.9857 H   0  0  0  0  0  0  0  0  0  0  0  0
   26.3115   17.6747  -12.0525 H   0  0  0  0  0  0  0  0  0  0  0  0
   23.0578   16.5109   -9.0053 H   0  0  0  0  0  0  0  0  0  0  0  0
   22.3068   17.3900  -10.2269 H   0  0  0  0  0  0  0  0  0  0  0  0
   22.2239   15.7100  -10.2269 H   0  0  0  0  0  0  0  0  0  0  0  0
  6  1  1  0
  2  3  1  0
  2 10  1  0
  3  4  1  0
  3 11  1  0
  4  5  1  0
  4 12  1  0
  5 13  1  0
  6  7  1  0
  6 10  1  0
  7  8  2  0
  7  9  1  0
 13 14  1  0
 14 15  2  0
 14 16  2  0
 14 17  1  6
  1 18  1  0
  1 19  1  0
  1 20  1  0
  2 21  1  0
  2 22  1  0
  3 23  1  1
  4 24  1  1
  5 25  1  0
  5 26  1  0
  6 27  1  1
 10 28  1  0
 10 29  1  0
 11 30  1  0
 12 31  1  0
 12 32  1  0
 12 33  1  0
M  CHG  4   1   1   9  -1  12   1  17  -1
M  END
>  <filename_input>  (4) 
7WUX_6OI_docked.sdf

>  <pdb_id>  (4) 
7WUX_6OI

>  <pose_rank>  (4) 
3

>  <num_atoms_heavy>  (4) 
17

>  <num_torsions>  (4) 
8

>  <pose>  (4) 
[24.51368610219564, 17.874317344067038, -11.23276166013285, -3.2574203796001893, -1.2331602299280755, -0.9946771681260862, -1.7021314961660747, 0.7013568173313068, 1.234582482780206, -1.999490056778324, 0.7169981869251231, 1.5921329754868443, 4.423918584018587, -1.8282024527094192]

>  <energy>  (4) 
-523.0045670602857

>  <inter_energy>  (4) 
-524.687590605795

>  <intra_energy>  (4) 
3.072716437626598

>  <rmsd>  (4) 
6.80368

>  <sdf_rank>  (4) 
0

$$$$

     RDKit          3D

 33 32  0  0  0  0  0  0  0  0999 V2000
   25.6054   14.8748  -13.8430 N   0  0  0  0  0  0  0  0  0  0  0  0
   24.9398   16.9024  -12.1277 C   0  0  0  0  0  0  0  0  0  0  0  0
   23.7968   17.7939  -12.6083 C   0  0  1  0  0  0  0  0  0  0  0  0
   23.7553   18.0232  -14.1275 C   0  0  2  0  0  0  0  0  0  0  0  0
   23.5254   19.4730  -14.5271 C   0  0  0  0  0  0  0  0  0  0  0  0
   24.7783   14.3852  -12.7040 C   0  0  2  0  0  0  0  0  0  0  0  0
   23.4694   13.7951  -13.2451 C   0  0  0  0  0  0  0  0  0  0  0  0
   23.0770   14.1975  -14.3616 O   0  0  0  0  0  0  0  0  0  0  0  0
   22.8987   12.9397  -12.5417 O   0  0  0  0  0  0  0  0  0  0  0  0
   24.5249   15.5051  -11.6849 C   0  0  0  0  0  0  0  0  0  0  0  0
   22.5679   17.2065  -12.1965 O   0  0  0  0  0  0  0  0  0  0  0  0
   22.6865   17.1820  -14.7533 N   0  0  0  0  0  0  0  0  0  0  0  0
   24.4492   20.3710  -13.8231 O   0  0  0  0  0  0  0  0  0  0  0  0
   23.8289   21.5300  -12.8889 S   0  0  1  0  0  0  0  0  0  0  0  0
   23.5787   20.8394  -11.6366 O   0  0  0  0  0  0  0  0  0  0  0  0
   24.8215   22.5770  -12.7748 O   0  0  0  0  0  0  0  0  0  0  0  0
   22.6235   21.9700  -13.5519 O   0  0  0  0  0  0  0  0  0  0  0  0
   26.4346   15.3657  -13.4791 H   0  0  0  0  0  0  0  0  0  0  0  0
   25.9051   14.0749  -14.4185 H   0  0  0  0  0  0  0  0  0  0  0  0
   25.0482   15.5223  -14.4185 H   0  0  0  0  0  0  0  0  0  0  0  0
   25.6613   16.7990  -12.9515 H   0  0  0  0  0  0  0  0  0  0  0  0
   25.3597   17.3945  -11.2379 H   0  0  0  0  0  0  0  0  0  0  0  0
   23.9629   18.7842  -12.1591 H   0  0  0  0  0  0  0  0  0  0  0  0
   24.7519   17.7354  -14.4935 H   0  0  0  0  0  0  0  0  0  0  0  0
   23.6818   19.5755  -15.6111 H   0  0  0  0  0  0  0  0  0  0  0  0
   22.4960   19.7499  -14.2557 H   0  0  0  0  0  0  0  0  0  0  0  0
   25.3234   13.5925  -12.1707 H   0  0  0  0  0  0  0  0  0  0  0  0
   25.0817   15.2611  -10.7681 H   0  0  0  0  0  0  0  0  0  0  0  0
   23.4346   15.5445  -11.5451 H   0  0  0  0  0  0  0  0  0  0  0  0
   22.5266   17.1868  -11.2076 H   0  0  0  0  0  0  0  0  0  0  0  0
   22.1224   16.7381  -14.0146 H   0  0  0  0  0  0  0  0  0  0  0  0
   22.0807   17.7755  -15.3379 H   0  0  0  0  0  0  0  0  0  0  0  0
   23.1209   16.4537  -15.3379 H   0  0  0  0  0  0  0  0  0  0  0  0
  6  1  1  0
  2  3  1  0
  2 10  1  0
  3  4  1  0
  3 11  1  0
  4  5  1  0
  4 12  1  0
  5 13  1  0
  6  7  1  0
  6 10  1  0
  7  8  2  0
  7  9  1  0
 13 14  1  0
 14 15  2  0
 14 16  2  0
 14 17  1  6
  1 18  1  0
  1 19  1  0
  1 20  1  0
  2 21  1  0
  2 22  1  0
  3 23  1  1
  4 24  1  6
  5 25  1  0
  5 26  1  0
  6 27  1  1
 10 28  1  0
 10 29  1  0
 11 30  1  0
 12 31  1  0
 12 32  1  0
 12 33  1  0
M  CHG  4   1   1   9  -1  12   1  17  -1
M  END
>  <filename_input>  (5) 
7WUX_6OI_docked.sdf

>  <pdb_id>  (5) 
7WUX_6OI

>  <pose_rank>  (5) 
4

>  <num_atoms_heavy>  (5) 
17

>  <num_torsions>  (5) 
8

>  <pose>  (5) 
[23.79678147161828, 17.793877211910974, -12.60829006618009, -0.14271775444312115, -1.4758662274422862, 0.7532156802178126, -11.812620489467895, 6.1648004903288856, 9.296274683679918, -3.0032169540710947, -23.68137759017275, -14.10228921467517, 24.216317031842852, 5.723203065984667]

>  <energy>  (5) 
-550.9659995180812

>  <inter_energy>  (5) 
-562.438167966222

>  <intra_energy>  (5) 
11.999090699958217

>  <rmsd>  (5) 
2.14686

>  <sdf_rank>  (5) 
0

$$$$

     RDKit          3D

 33 32  0  0  0  0  0  0  0  0999 V2000
   24.4812   20.3911  -14.5890 N   0  0  0  0  0  0  0  0  0  0  0  0
   24.7607   18.6835  -11.2854 C   0  0  0  0  0  0  0  0  0  0  0  0
   23.2384   18.6266  -11.1788 C   0  0  1  0  0  0  0  0  0  0  0  0
   22.6214   17.2584  -11.5097 C   0  0  2  0  0  0  0  0  0  0  0  0
   23.6468   16.1706  -11.7921 C   0  0  0  0  0  0  0  0  0  0  0  0
   24.2383   20.4325  -13.1192 C   0  0  2  0  0  0  0  0  0  0  0  0
   24.1972   21.8938  -12.6533 C   0  0  0  0  0  0  0  0  0  0  0  0
   23.8625   22.1091  -11.4684 O   0  0  0  0  0  0  0  0  0  0  0  0
   24.5205   22.7640  -13.4843 O   0  0  0  0  0  0  0  0  0  0  0  0
   25.2970   19.6182  -12.3621 C   0  0  0  0  0  0  0  0  0  0  0  0
   22.8688   18.9912   -9.8540 O   0  0  0  0  0  0  0  0  0  0  0  0
   21.7083   17.3696  -12.6911 N   0  0  0  0  0  0  0  0  0  0  0  0
   22.9959   14.8783  -12.0403 O   0  0  0  0  0  0  0  0  0  0  0  0
   23.7142   13.8378  -13.0414 S   0  0  1  0  0  0  0  0  0  0  0  0
   22.5925   13.1929  -13.7000 O   0  0  0  0  0  0  0  0  0  0  0  0
   24.5436   14.6043  -13.9464 O   0  0  0  0  0  0  0  0  0  0  0  0
   24.4776   12.9440  -12.2022 O   0  0  0  0  0  0  0  0  0  0  0  0
   25.4812   20.2205  -14.7670 H   0  0  0  0  0  0  0  0  0  0  0  0
   23.9237   19.6330  -15.0079 H   0  0  0  0  0  0  0  0  0  0  0  0
   24.2065   21.2911  -15.0079 H   0  0  0  0  0  0  0  0  0  0  0  0
   25.1583   19.0168  -10.3154 H   0  0  0  0  0  0  0  0  0  0  0  0
   25.0869   17.6714  -11.5670 H   0  0  0  0  0  0  0  0  0  0  0  0
   22.8461   19.3239  -11.9337 H   0  0  0  0  0  0  0  0  0  0  0  0
   22.0677   16.9617  -10.6067 H   0  0  0  0  0  0  0  0  0  0  0  0
   24.2340   16.4525  -12.6785 H   0  0  0  0  0  0  0  0  0  0  0  0
   24.2981   16.0689  -10.9115 H   0  0  0  0  0  0  0  0  0  0  0  0
   23.2662   19.9684  -12.8961 H   0  0  0  0  0  0  0  0  0  0  0  0
   25.9892   20.3258  -11.8823 H   0  0  0  0  0  0  0  0  0  0  0  0
   25.7735   18.9710  -13.1131 H   0  0  0  0  0  0  0  0  0  0  0  0
   23.4017   18.4655   -9.2062 H   0  0  0  0  0  0  0  0  0  0  0  0
   20.7383   17.4878  -12.3653 H   0  0  0  0  0  0  0  0  0  0  0  0
   21.9808   18.1836  -13.2603 H   0  0  0  0  0  0  0  0  0  0  0  0
   21.7775   16.5140  -13.2603 H   0  0  0  0  0  0  0  0  0  0  0  0
  6  1  1  0
  2  3  1  0
  2 10  1  0
  3  4  1  0
  3 11  1  0
  4  5  1  0
  4 12  1  0
  5 13  1  0
  6  7  1  0
  6 10  1  0
  7  8  2  0
  7  9  1  0
 13 14  1  0
 14 15  2  0
 14 16  2  0
 14 17  1  1
  1 18  1  0
  1 19  1  0
  1 20  1  0
  2 21  1  0
  2 22  1  0
  3 23  1  6
  4 24  1  1
  5 25  1  0
  5 26  1  0
  6 27  1  6
 10 28  1  0
 10 29  1  0
 11 30  1  0
 12 31  1  0
 12 32  1  0
 12 33  1  0
M  CHG  4   1   1   9  -1  12   1  17  -1
M  END
>  <filename_input>  (6) 
7WUX_6OI_docked.sdf

>  <pdb_id>  (6) 
7WUX_6OI

>  <pose_rank>  (6) 
5

>  <num_atoms_heavy>  (6) 
17

>  <num_torsions>  (6) 
8

>  <pose>  (6) 
[23.238414241795194, 18.62658749900837, -11.178797777197941, -0.4519390078206797, -0.1677582896900775, 1.7458347401025522, -21.959859826207023, -4.179358341268423, 1.4412815163110266, 5.566638982441449, 5.339114200076822, 9.331478915747448, -3.4235774060830586, -3.409454481752286]

>  <energy>  (6) 
-598.2129817172582

>  <inter_energy>  (6) 
-593.5998125110486

>  <intra_energy>  (6) 
0.40243162425976686

>  <rmsd>  (6) 
6.18358

>  <sdf_rank>  (6) 
0

$$$$

     RDKit          3D

 33 32  0  0  0  0  0  0  0  0999 V2000
   22.9676   14.6294  -13.3750 N   0  0  0  0  0  0  0  0  0  0  0  0
   23.6891   17.1243  -12.1416 C   0  0  0  0  0  0  0  0  0  0  0  0
   22.6566   17.9903  -11.4231 C   0  0  1  0  0  0  0  0  0  0  0  0
   23.2477   19.0139  -10.4407 C   0  0  2  0  0  0  0  0  0  0  0  0
   24.3319   19.8942  -11.0443 C   0  0  0  0  0  0  0  0  0  0  0  0
   23.6212   15.6368  -14.2576 C   0  0  2  0  0  0  0  0  0  0  0  0
   25.0763   15.2209  -14.5106 C   0  0  0  0  0  0  0  0  0  0  0  0
   25.8113   16.0379  -15.1060 O   0  0  0  0  0  0  0  0  0  0  0  0
   25.4295   14.1040  -14.0861 O   0  0  0  0  0  0  0  0  0  0  0  0
   23.5235   17.0450  -13.6538 C   0  0  0  0  0  0  0  0  0  0  0  0
   21.8914   18.6807  -12.4041 O   0  0  0  0  0  0  0  0  0  0  0  0
   23.8122   18.3196   -9.2403 N   0  0  0  0  0  0  0  0  0  0  0  0
   23.7763   21.1630  -11.5311 O   0  0  0  0  0  0  0  0  0  0  0  0
   24.1114   21.6172  -13.0418 S   0  0  1  0  0  0  0  0  0  0  0  0
   22.8513   21.4076  -13.7316 O   0  0  0  0  0  0  0  0  0  0  0  0
   24.5154   23.0063  -13.0007 O   0  0  0  0  0  0  0  0  0  0  0  0
   25.1658   20.7398  -13.4942 O   0  0  0  0  0  0  0  0  0  0  0  0
   23.1300   14.8797  -12.3892 H   0  0  0  0  0  0  0  0  0  0  0  0
   21.9550   14.6138  -13.5630 H   0  0  0  0  0  0  0  0  0  0  0  0
   23.3661   13.6983  -13.5630 H   0  0  0  0  0  0  0  0  0  0  0  0
   24.6868   17.5358  -11.9288 H   0  0  0  0  0  0  0  0  0  0  0  0
   23.5484   16.1011  -11.7632 H   0  0  0  0  0  0  0  0  0  0  0  0
   22.0455   17.3075  -10.8144 H   0  0  0  0  0  0  0  0  0  0  0  0
   22.4093   19.6693  -10.1623 H   0  0  0  0  0  0  0  0  0  0  0  0
   25.0908   20.1060  -10.2766 H   0  0  0  0  0  0  0  0  0  0  0  0
   24.7796   19.3607  -11.8958 H   0  0  0  0  0  0  0  0  0  0  0  0
   23.0961   15.6720  -15.2235 H   0  0  0  0  0  0  0  0  0  0  0  0
   22.5349   17.4547  -13.9082 H   0  0  0  0  0  0  0  0  0  0  0  0
   24.3630   17.6144  -14.0793 H   0  0  0  0  0  0  0  0  0  0  0  0
   21.2361   19.2719  -11.9556 H   0  0  0  0  0  0  0  0  0  0  0  0
   23.4505   18.7645   -8.3847 H   0  0  0  0  0  0  0  0  0  0  0  0
   23.5347   17.3278   -9.2552 H   0  0  0  0  0  0  0  0  0  0  0  0
   24.8398   18.3889   -9.2552 H   0  0  0  0  0  0  0  0  0  0  0  0
  6  1  1  0
  2  3  1  0
  2 10  1  0
  3  4  1  0
  3 11  1  0
  4  5  1  0
  4 12  1  0
  5 13  1  0
  6  7  1  0
  6 10  1  0
  7  8  2  0
  7  9  1  0
 13 14  1  0
 14 15  2  0
 14 16  2  0
 14 17  1  6
  1 18  1  0
  1 19  1  0
  1 20  1  0
  2 21  1  0
  2 22  1  0
  3 23  1  1
  4 24  1  1
  5 25  1  0
  5 26  1  0
  6 27  1  6
 10 28  1  0
 10 29  1  0
 11 30  1  0
 12 31  1  0
 12 32  1  0
 12 33  1  0
M  CHG  4   1   1   9  -1  12   1  17  -1
M  END
>  <filename_input>  (7) 
7WUX_6OI_docked.sdf

>  <pdb_id>  (7) 
7WUX_6OI

>  <pose_rank>  (7) 
6

>  <num_atoms_heavy>  (7) 
17

>  <num_torsions>  (7) 
8

>  <pose>  (7) 
[22.65661931193225, 17.990277162404794, -11.423078131121068, 0.9279840116889303, -2.3666954136479394, -1.251224076679013, -2.272254670945136, 6.9449985766405264, 2.8769471071493835, 3.6894258123412147, 1.0409860113922338, 0.6469466866841457, -0.41869212159955105, 3.142309720641145]

>  <energy>  (7) 
-591.7583724510055

>  <inter_energy>  (7) 
-581.3808216211993

>  <intra_energy>  (7) 
2.236655638085948

>  <rmsd>  (7) 
2.23338

>  <sdf_rank>  (7) 
0

$$$$

     RDKit          3D

 33 32  0  0  0  0  0  0  0  0999 V2000
   22.5844   14.3382  -13.9243 N   0  0  0  0  0  0  0  0  0  0  0  0
   24.7845   16.3744  -13.5139 C   0  0  0  0  0  0  0  0  0  0  0  0
   25.9970   17.2966  -13.6215 C   0  0  1  0  0  0  0  0  0  0  0  0
   26.1079   18.3459  -12.5039 C   0  0  2  0  0  0  0  0  0  0  0  0
   24.8024   19.0662  -12.2014 C   0  0  0  0  0  0  0  0  0  0  0  0
   23.9755   13.9180  -13.5934 C   0  0  2  0  0  0  0  0  0  0  0  0
   24.0784   13.6481  -12.0864 C   0  0  0  0  0  0  0  0  0  0  0  0
   24.6407   12.5903  -11.7301 O   0  0  0  0  0  0  0  0  0  0  0  0
   23.6113   14.5135  -11.3215 O   0  0  0  0  0  0  0  0  0  0  0  0
   24.9944   14.9676  -14.0594 C   0  0  0  0  0  0  0  0  0  0  0  0
   27.1715   16.4934  -13.6187 O   0  0  0  0  0  0  0  0  0  0  0  0
   27.1463   19.3679  -12.8488 N   0  0  0  0  0  0  0  0  0  0  0  0
   24.5797   20.1769  -13.1353 O   0  0  0  0  0  0  0  0  0  0  0  0
   23.9965   21.5630  -12.5529 S   0  0  1  0  0  0  0  0  0  0  0  0
   22.6685   21.6277  -13.1359 O   0  0  0  0  0  0  0  0  0  0  0  0
   23.9816   21.4583  -11.1095 O   0  0  0  0  0  0  0  0  0  0  0  0
   24.8837   22.5976  -13.0308 O   0  0  0  0  0  0  0  0  0  0  0  0
   22.0576   14.4974  -13.0537 H   0  0  0  0  0  0  0  0  0  0  0  0
   22.6104   15.2089  -14.4740 H   0  0  0  0  0  0  0  0  0  0  0  0
   22.1240   13.5988  -14.4740 H   0  0  0  0  0  0  0  0  0  0  0  0
   24.5125   16.2911  -12.4513 H   0  0  0  0  0  0  0  0  0  0  0  0
   23.9968   16.8293  -14.1325 H   0  0  0  0  0  0  0  0  0  0  0  0
   25.8758   17.8642  -14.5560 H   0  0  0  0  0  0  0  0  0  0  0  0
   26.3894   17.7829  -11.6018 H   0  0  0  0  0  0  0  0  0  0  0  0
   23.9703   18.3521  -12.2883 H   0  0  0  0  0  0  0  0  0  0  0  0
   24.8584   19.4747  -11.1816 H   0  0  0  0  0  0  0  0  0  0  0  0
   24.2140   12.9882  -14.1307 H   0  0  0  0  0  0  0  0  0  0  0  0
   24.9488   15.0198  -15.1572 H   0  0  0  0  0  0  0  0  0  0  0  0
   25.9684   14.6357  -13.6707 H   0  0  0  0  0  0  0  0  0  0  0  0
   27.4424   16.3082  -12.6847 H   0  0  0  0  0  0  0  0  0  0  0  0
   27.5438   19.7592  -11.9829 H   0  0  0  0  0  0  0  0  0  0  0  0
   27.8946   18.9244  -13.4004 H   0  0  0  0  0  0  0  0  0  0  0  0
   26.7148   20.1232  -13.4004 H   0  0  0  0  0  0  0  0  0  0  0  0
  6  1  1  0
  2  3  1  0
  2 10  1  0
  3  4  1  0
  3 11  1  0
  4  5  1  0
  4 12  1  0
  5 13  1  0
  6  7  1  0
  6 10  1  0
  7  8  2  0
  7  9  1  0
 13 14  1  0
 14 15  2  0
 14 16  2  0
 14 17  1  1
  1 18  1  0
  1 19  1  0
  1 20  1  0
  2 21  1  0
  2 22  1  0
  3 23  1  6
  4 24  1  1
  5 25  1  0
  5 26  1  0
  6 27  1  6
 10 28  1  0
 10 29  1  0
 11 30  1  0
 12 31  1  0
 12 32  1  0
 12 33  1  0
M  CHG  4   1   1   9  -1  12   1  17  -1
M  END
>  <filename_input>  (8) 
7WUX_6OI_docked.sdf

>  <pdb_id>  (8) 
7WUX_6OI

>  <pose_rank>  (8) 
7

>  <num_atoms_heavy>  (8) 
17

>  <num_torsions>  (8) 
8

>  <pose>  (8) 
[25.99696161116301, 17.29659546785779, -13.621526745345312, 0.32548143760247195, 1.4472581620867229, -0.36730286791021205, 2.3033132444191184, -8.724409842967718, -3.5857811862891737, -0.13809853657798607, 0.7209261055109171, -13.035275364619773, -6.385375764444592, 2.1785593832355086]

>  <energy>  (8) 
-547.8160267469068

>  <inter_energy>  (8) 
-553.5580885823765

>  <intra_energy>  (8) 
7.327491632690039

>  <rmsd>  (8) 
2.78939

>  <sdf_rank>  (8) 
0

$$$$

     RDKit          3D

 33 32  0  0  0  0  0  0  0  0999 V2000
   24.5238   13.7979  -10.8334 N   0  0  0  0  0  0  0  0  0  0  0  0
   24.9349   16.8261  -13.0231 C   0  0  0  0  0  0  0  0  0  0  0  0
   26.1538   17.5890  -13.5374 C   0  0  1  0  0  0  0  0  0  0  0  0
   25.8283   18.8905  -14.2874 C   0  0  2  0  0  0  0  0  0  0  0  0
   24.4620   19.4705  -13.9535 C   0  0  0  0  0  0  0  0  0  0  0  0
   24.0325   14.6500  -11.9530 C   0  0  2  0  0  0  0  0  0  0  0  0
   23.2282   13.7854  -12.9327 C   0  0  0  0  0  0  0  0  0  0  0  0
   22.8845   12.6479  -12.5451 O   0  0  0  0  0  0  0  0  0  0  0  0
   22.9561   14.2862  -14.0406 O   0  0  0  0  0  0  0  0  0  0  0  0
   25.1955   15.3731  -12.6471 C   0  0  0  0  0  0  0  0  0  0  0  0
   26.9920   17.8927  -12.4284 O   0  0  0  0  0  0  0  0  0  0  0  0
   25.9044   18.6734  -15.7668 N   0  0  0  0  0  0  0  0  0  0  0  0
   24.5121   20.2762  -12.7273 O   0  0  0  0  0  0  0  0  0  0  0  0
   24.0080   21.8066  -12.7944 S   0  0  1  0  0  0  0  0  0  0  0  0
   25.1487   22.5001  -13.3651 O   0  0  0  0  0  0  0  0  0  0  0  0
   22.8353   21.8434  -13.6418 O   0  0  0  0  0  0  0  0  0  0  0  0
   23.7266   22.1909  -11.4309 O   0  0  0  0  0  0  0  0  0  0  0  0
   24.2726   14.2337   -9.9345 H   0  0  0  0  0  0  0  0  0  0  0  0
   24.0906   12.8655  -10.8959 H   0  0  0  0  0  0  0  0  0  0  0  0
   25.5477   13.7056  -10.8959 H   0  0  0  0  0  0  0  0  0  0  0  0
   24.5580   17.3471  -12.1307 H   0  0  0  0  0  0  0  0  0  0  0  0
   24.2138   16.8038  -13.8535 H   0  0  0  0  0  0  0  0  0  0  0  0
   26.6455   16.9338  -14.2715 H   0  0  0  0  0  0  0  0  0  0  0  0
   26.5841   19.6167  -13.9535 H   0  0  0  0  0  0  0  0  0  0  0  0
   24.1287   20.1061  -14.7871 H   0  0  0  0  0  0  0  0  0  0  0  0
   23.7600   18.6386  -13.7951 H   0  0  0  0  0  0  0  0  0  0  0  0
   23.3699   15.4320  -11.5537 H   0  0  0  0  0  0  0  0  0  0  0  0
   25.4350   14.8225  -13.5687 H   0  0  0  0  0  0  0  0  0  0  0  0
   26.0171   15.3937  -11.9159 H   0  0  0  0  0  0  0  0  0  0  0  0
   26.5025   17.7154  -11.5864 H   0  0  0  0  0  0  0  0  0  0  0  0
   26.2389   17.7179  -15.9568 H   0  0  0  0  0  0  0  0  0  0  0  0
   24.9695   18.7985  -16.1807 H   0  0  0  0  0  0  0  0  0  0  0  0
   26.5570   19.3543  -16.1807 H   0  0  0  0  0  0  0  0  0  0  0  0
  6  1  1  0
  2  3  1  0
  2 10  1  0
  3  4  1  0
  3 11  1  0
  4  5  1  0
  4 12  1  0
  5 13  1  0
  6  7  1  0
  6 10  1  0
  7  8  2  0
  7  9  1  0
 13 14  1  0
 14 15  2  0
 14 16  2  0
 14 17  1  1
  1 18  1  0
  1 19  1  0
  1 20  1  0
  2 21  1  0
  2 22  1  0
  3 23  1  6
  4 24  1  1
  5 25  1  0
  5 26  1  0
  6 27  1  1
 10 28  1  0
 10 29  1  0
 11 30  1  0
 12 31  1  0
 12 32  1  0
 12 33  1  0
M  CHG  4   1   1   9  -1  12   1  17  -1
M  END
>  <filename_input>  (9) 
7WUX_6OI_docked.sdf

>  <pdb_id>  (9) 
7WUX_6OI

>  <pose_rank>  (9) 
8

>  <num_atoms_heavy>  (9) 
17

>  <num_torsions>  (9) 
8

>  <pose>  (9) 
[26.15376982368366, 17.58903218734454, -13.537384914993524, 2.982835898336003, -2.0060661966069535, 3.6226598284793137, 3.4846699271667094, 0.464105194207299, 1.0047576600139176, 0.4172045057853895, 6.164178925991548, 5.984990928993365, 2.774058617282717, 0.10129605992967047]

>  <energy>  (9) 
-534.9646931174169

>  <inter_energy>  (9) 
-539.4341870592382

>  <intra_energy>  (9) 
1.8694621267499627

>  <rmsd>  (9) 
2.83836

>  <sdf_rank>  (9) 
0

$$$$

     RDKit          3D

 33 32  0  0  0  0  0  0  0  0999 V2000
   24.8329   16.2088  -14.4037 N   0  0  0  0  0  0  0  0  0  0  0  0
   23.3674   16.5940  -12.1354 C   0  0  0  0  0  0  0  0  0  0  0  0
   24.1827   17.8242  -11.7427 C   0  0  1  0  0  0  0  0  0  0  0  0
   23.4237   18.8531  -10.8898 C   0  0  2  0  0  0  0  0  0  0  0  0
   24.2313   20.1004  -10.5631 C   0  0  0  0  0  0  0  0  0  0  0  0
   23.4119   16.5260  -14.7216 C   0  0  2  0  0  0  0  0  0  0  0  0
   23.3597   17.7592  -15.6330 C   0  0  0  0  0  0  0  0  0  0  0  0
   24.4130   18.4186  -15.7670 O   0  0  0  0  0  0  0  0  0  0  0  0
   22.2743   18.0060  -16.1928 O   0  0  0  0  0  0  0  0  0  0  0  0
   22.5910   16.7247  -13.4395 C   0  0  0  0  0  0  0  0  0  0  0  0
   25.3323   17.3888  -11.0261 O   0  0  0  0  0  0  0  0  0  0  0  0
   22.9674   18.2321   -9.6061 N   0  0  0  0  0  0  0  0  0  0  0  0
   23.7082   21.2734  -11.2744 O   0  0  0  0  0  0  0  0  0  0  0  0
   24.2696   21.5863  -12.7535 S   0  0  1  0  0  0  0  0  0  0  0  0
   24.8721   22.8985  -12.6020 O   0  0  0  0  0  0  0  0  0  0  0  0
   25.2277   20.5533  -13.0846 O   0  0  0  0  0  0  0  0  0  0  0  0
   23.1168   21.5815  -13.6236 O   0  0  0  0  0  0  0  0  0  0  0  0
   24.9581   16.1808  -13.3817 H   0  0  0  0  0  0  0  0  0  0  0  0
   25.0781   15.2923  -14.8048 H   0  0  0  0  0  0  0  0  0  0  0  0
   25.4446   16.9339  -14.8048 H   0  0  0  0  0  0  0  0  0  0  0  0
   24.0586   15.7439  -12.2337 H   0  0  0  0  0  0  0  0  0  0  0  0
   22.6165   16.4576  -11.3433 H   0  0  0  0  0  0  0  0  0  0  0  0
   24.4395   18.3407  -12.6793 H   0  0  0  0  0  0  0  0  0  0  0  0
   22.5676   19.1676  -11.5048 H   0  0  0  0  0  0  0  0  0  0  0  0
   24.1820   20.2862   -9.4801 H   0  0  0  0  0  0  0  0  0  0  0  0
   25.2711   19.9352  -10.8816 H   0  0  0  0  0  0  0  0  0  0  0  0
   22.9589   15.6783  -15.2565 H   0  0  0  0  0  0  0  0  0  0  0  0
   21.7875   15.9736  -13.4320 H   0  0  0  0  0  0  0  0  0  0  0  0
   22.2282   17.7627  -13.4716 H   0  0  0  0  0  0  0  0  0  0  0  0
   25.1593   17.4543  -10.0536 H   0  0  0  0  0  0  0  0  0  0  0  0
   23.3557   18.7606   -8.8119 H   0  0  0  0  0  0  0  0  0  0  0  0
   21.9386   18.2521   -9.5616 H   0  0  0  0  0  0  0  0  0  0  0  0
   23.2941   17.2563   -9.5616 H   0  0  0  0  0  0  0  0  0  0  0  0
  6  1  1  0
  2  3  1  0
  2 10  1  0
  3  4  1  0
  3 11  1  0
  4  5  1  0
  4 12  1  0
  5 13  1  0
  6  7  1  0
  6 10  1  0
  7  8  2  0
  7  9  1  0
 13 14  1  0
 14 15  2  0
 14 16  2  0
 14 17  1  6
  1 18  1  0
  1 19  1  0
  1 20  1  0
  2 21  1  0
  2 22  1  0
  3 23  1  6
  4 24  1  6
  5 25  1  0
  5 26  1  0
  6 27  1  6
 10 28  1  0
 10 29  1  0
 11 30  1  0
 12 31  1  0
 12 32  1  0
 12 33  1  0
M  CHG  4   1   1   9  -1  12   1  17  -1
M  END
>  <filename_input>  (10) 
7WUX_6OI_docked.sdf

>  <pdb_id>  (10) 
7WUX_6OI

>  <pose_rank>  (10) 
9

>  <num_atoms_heavy>  (10) 
17

>  <num_torsions>  (10) 
8

>  <pose>  (10) 
[24.182676648029418, 17.82416552456786, -11.742731972045805, 0.14145625894084654, 0.9140105806973083, -0.0848773233885659, 0.007266659138259601, 0.9317759691876488, 3.579636776747128, -0.2620000324755093, -7.691279538222669, -1.913535763467471, -1.0669931446086633, -0.35118179496074686]

>  <energy>  (10) 
-527.7991828775324

>  <inter_energy>  (10) 
-543.3404210290553

>  <intra_energy>  (10) 
15.048898213744929

>  <rmsd>  (10) 
2.87506

>  <sdf_rank>  (10) 
0

$$$$

     RDKit          3D

 33 32  0  0  0  0  0  0  0  0999 V2000
   23.9603   21.1614  -10.9050 N   0  0  0  0  0  0  0  0  0  0  0  0
   25.3777   19.2247  -12.2032 C   0  0  0  0  0  0  0  0  0  0  0  0
   25.4786   17.7171  -12.4239 C   0  0  1  0  0  0  0  0  0  0  0  0
   24.6661   16.8665  -11.4346 C   0  0  2  0  0  0  0  0  0  0  0  0
   23.4589   16.1806  -12.0565 C   0  0  0  0  0  0  0  0  0  0  0  0
   23.5462   21.0479  -12.3321 C   0  0  2  0  0  0  0  0  0  0  0  0
   22.0291   20.8297  -12.4037 C   0  0  0  0  0  0  0  0  0  0  0  0
   21.3340   21.7721  -12.8409 O   0  0  0  0  0  0  0  0  0  0  0  0
   21.5974   19.7193  -12.0394 O   0  0  0  0  0  0  0  0  0  0  0  0
   24.3211   19.9299  -13.0440 C   0  0  0  0  0  0  0  0  0  0  0  0
   25.0423   17.4285  -13.7472 O   0  0  0  0  0  0  0  0  0  0  0  0
   24.1973   17.7061  -10.2870 N   0  0  0  0  0  0  0  0  0  0  0  0
   23.6655   14.7306  -12.1579 O   0  0  0  0  0  0  0  0  0  0  0  0
   23.4542   14.0246  -13.5924 S   0  0  1  0  0  0  0  0  0  0  0  0
   22.3551   13.1087  -13.3455 O   0  0  0  0  0  0  0  0  0  0  0  0
   23.1285   15.0630  -14.5464 O   0  0  0  0  0  0  0  0  0  0  0  0
   24.6998   13.3580  -13.8927 O   0  0  0  0  0  0  0  0  0  0  0  0
   23.1589   20.9418  -10.2964 H   0  0  0  0  0  0  0  0  0  0  0  0
   24.7264   20.4994  -10.7161 H   0  0  0  0  0  0  0  0  0  0  0  0
   24.2819   22.1215  -10.7161 H   0  0  0  0  0  0  0  0  0  0  0  0
   25.1422   19.3992  -11.1429 H   0  0  0  0  0  0  0  0  0  0  0  0
   26.3462   19.6457  -12.5109 H   0  0  0  0  0  0  0  0  0  0  0  0
   26.5320   17.4469  -12.2582 H   0  0  0  0  0  0  0  0  0  0  0  0
   25.3533   16.0778  -11.0946 H   0  0  0  0  0  0  0  0  0  0  0  0
   22.5748   16.3741  -11.4314 H   0  0  0  0  0  0  0  0  0  0  0  0
   23.3133   16.5832  -13.0698 H   0  0  0  0  0  0  0  0  0  0  0  0
   23.7888   21.9828  -12.8585 H   0  0  0  0  0  0  0  0  0  0  0  0
   24.8224   20.3695  -13.9189 H   0  0  0  0  0  0  0  0  0  0  0  0
   23.5762   19.1616  -13.2985 H   0  0  0  0  0  0  0  0  0  0  0  0
   24.2171   16.8828  -13.7110 H   0  0  0  0  0  0  0  0  0  0  0  0
   24.4527   17.2487   -9.4001 H   0  0  0  0  0  0  0  0  0  0  0  0
   24.6427   18.6336  -10.3356 H   0  0  0  0  0  0  0  0  0  0  0  0
   23.1741   17.8136  -10.3356 H   0  0  0  0  0  0  0  0  0  0  0  0
  6  1  1  0
  2  3  1  0
  2 10  1  0
  3  4  1  0
  3 11  1  0
  4  5  1  0
  4 12  1  0
  5 13  1  0
  6  7  1  0
  6 10  1  0
  7  8  2  0
  7  9  1  0
 13 14  1  0
 14 15  2  0
 14 16  2  0
 14 17  1  6
  1 18  1  0
  1 19  1  0
  1 20  1  0
  2 21  1  0
  2 22  1  0
  3 23  1  6
  4 24  1  1
  5 25  1  0
  5 26  1  0
  6 27  1  6
 10 28  1  0
 10 29  1  0
 11 30  1  0
 12 31  1  0
 12 32  1  0
 12 33  1  0
M  CHG  4   1   1   9  -1  12   1  17  -1
M  END
>  <filename_input>  (11) 
7WUX_6OI_docked.sdf

>  <pdb_id>  (11) 
7WUX_6OI

>  <pose_rank>  (11) 
10

>  <num_atoms_heavy>  (11) 
17

>  <num_torsions>  (11) 
8

>  <pose>  (11) 
[25.478599880453856, 17.717051359236063, -12.423924735191378, -3.411796655300401, -0.14679935424233753, 0.7209041437223925, 5.019371810364497, 0.9140079814608327, -3.378877468068243, -6.52005730757289, 1.6645390279103502, 5.445916441209664, -1.1397290020893607, -4.51151399390398]

>  <energy>  (11) 
-538.7391367905155

>  <inter_energy>  (11) 
-538.7213677829017

>  <intra_energy>  (11) 
2.8636397432050624

>  <rmsd>  (11) 
6.14909

>  <sdf_rank>  (11) 
0

$$$$

     RDKit          3D

 33 32  0  0  0  0  0  0  0  0999 V2000
   22.7754   13.5941  -14.2297 N   0  0  0  0  0  0  0  0  0  0  0  0
   23.9783   16.1829  -12.7753 C   0  0  0  0  0  0  0  0  0  0  0  0
   22.8918   17.0397  -13.4214 C   0  0  1  0  0  0  0  0  0  0  0  0
   22.9580   18.5345  -13.0700 C   0  0  2  0  0  0  0  0  0  0  0  0
   24.3692   19.0513  -12.8332 C   0  0  0  0  0  0  0  0  0  0  0  0
   24.1137   13.7302  -13.5883 C   0  0  2  0  0  0  0  0  0  0  0  0
   24.0255   13.2663  -12.1284 C   0  0  0  0  0  0  0  0  0  0  0  0
   22.8995   13.2891  -11.5862 O   0  0  0  0  0  0  0  0  0  0  0  0
   25.0808   12.8796  -11.5908 O   0  0  0  0  0  0  0  0  0  0  0  0
   24.6363   15.1692  -13.7027 C   0  0  0  0  0  0  0  0  0  0  0  0
   22.9872   16.8930  -14.8335 O   0  0  0  0  0  0  0  0  0  0  0  0
   22.1358   18.8212  -11.8519 N   0  0  0  0  0  0  0  0  0  0  0  0
   24.3507   20.3839  -12.2174 O   0  0  0  0  0  0  0  0  0  0  0  0
   24.1604   21.6680  -13.1743 S   0  0  1  0  0  0  0  0  0  0  0  0
   24.9237   22.6978  -12.4925 O   0  0  0  0  0  0  0  0  0  0  0  0
   24.6965   21.3270  -14.4746 O   0  0  0  0  0  0  0  0  0  0  0  0
   22.7407   21.9320  -13.2048 O   0  0  0  0  0  0  0  0  0  0  0  0
   22.0512   13.5205  -13.5009 H   0  0  0  0  0  0  0  0  0  0  0  0
   22.5899   14.4206  -14.8157 H   0  0  0  0  0  0  0  0  0  0  0  0
   22.7600   12.7472  -14.8157 H   0  0  0  0  0  0  0  0  0  0  0  0
   24.7612   16.8550  -12.3941 H   0  0  0  0  0  0  0  0  0  0  0  0
   23.4808   15.5996  -11.9864 H   0  0  0  0  0  0  0  0  0  0  0  0
   21.9318   16.6794  -13.0232 H   0  0  0  0  0  0  0  0  0  0  0  0
   22.5591   19.0594  -13.9505 H   0  0  0  0  0  0  0  0  0  0  0  0
   24.8990   18.3553  -12.1663 H   0  0  0  0  0  0  0  0  0  0  0  0
   24.8810   19.1236  -13.8043 H   0  0  0  0  0  0  0  0  0  0  0  0
   24.8377   13.0902  -14.1139 H   0  0  0  0  0  0  0  0  0  0  0  0
   24.4788   15.5054  -14.7382 H   0  0  0  0  0  0  0  0  0  0  0  0
   25.6944   15.1303  -13.4046 H   0  0  0  0  0  0  0  0  0  0  0  0
   23.5138   16.0821  -15.0462 H   0  0  0  0  0  0  0  0  0  0  0  0
   22.6933   18.6269  -11.0079 H   0  0  0  0  0  0  0  0  0  0  0  0
   21.8512   19.8111  -11.8550 H   0  0  0  0  0  0  0  0  0  0  0  0
   21.2974   18.2229  -11.8550 H   0  0  0  0  0  0  0  0  0  0  0  0
  6  1  1  0
  2  3  1  0
  2 10  1  0
  3  4  1  0
  3 11  1  0
  4  5  1  0
  4 12  1  0
  5 13  1  0
  6  7  1  0
  6 10  1  0
  7  8  2  0
  7  9  1  0
 13 14  1  0
 14 15  2  0
 14 16  2  0
 14 17  1  6
  1 18  1  0
  1 19  1  0
  1 20  1  0
  2 21  1  0
  2 22  1  0
  3 23  1  1
  4 24  1  6
  5 25  1  0
  5 26  1  0
  6 27  1  6
 10 28  1  0
 10 29  1  0
 11 30  1  0
 12 31  1  0
 12 32  1  0
 12 33  1  0
M  CHG  4   1   1   9  -1  12   1  17  -1
M  END
>  <filename_input>  (12) 
7WUX_6OI_docked.sdf

>  <pdb_id>  (12) 
7WUX_6OI

>  <pose_rank>  (12) 
11

>  <num_atoms_heavy>  (12) 
17

>  <num_torsions>  (12) 
8

>  <pose>  (12) 
[22.89184802772948, 17.03974065791652, -13.421378036969653, 1.262259369454396, -2.9291781640512498, -0.08935960838778165, -2.624937271750579, 2.3699265182748763, -2.607821788178505, -0.767189420909134, 0.946358957933721, 1.2480103120552561, 0.21759483658871137, -0.5407011293353919]

>  <energy>  (12) 
-561.8140721117047

>  <inter_energy>  (12) 
-555.1454572419779

>  <intra_energy>  (12) 
5.236095999033726

>  <rmsd>  (12) 
2.06573

>  <sdf_rank>  (12) 
0

$$$$

     RDKit          3D

 33 32  0  0  0  0  0  0  0  0999 V2000
   24.3125   15.2021  -11.1879 N   0  0  0  0  0  0  0  0  0  0  0  0
   24.8414   16.9723  -13.2242 C   0  0  0  0  0  0  0  0  0  0  0  0
   24.2106   18.1376  -13.9833 C   0  0  1  0  0  0  0  0  0  0  0  0
   24.6556   19.5302  -13.5091 C   0  0  2  0  0  0  0  0  0  0  0  0
   24.2021   19.8763  -12.0987 C   0  0  0  0  0  0  0  0  0  0  0  0
   23.8879   14.6738  -12.5152 C   0  0  2  0  0  0  0  0  0  0  0  0
   24.4076   13.2396  -12.6797 C   0  0  0  0  0  0  0  0  0  0  0  0
   24.1552   12.4291  -11.7623 O   0  0  0  0  0  0  0  0  0  0  0  0
   25.0288   12.9775  -13.7275 O   0  0  0  0  0  0  0  0  0  0  0  0
   24.3632   15.5905  -13.6514 C   0  0  0  0  0  0  0  0  0  0  0  0
   24.5280   17.9967  -15.3632 O   0  0  0  0  0  0  0  0  0  0  0  0
   24.1511   20.5857  -14.4435 N   0  0  0  0  0  0  0  0  0  0  0  0
   23.3328   21.0593  -12.0955 O   0  0  0  0  0  0  0  0  0  0  0  0
   21.8630   20.9289  -11.4446 S   0  0  1  0  0  0  0  0  0  0  0  0
   22.1302   21.0062  -10.0197 O   0  0  0  0  0  0  0  0  0  0  0  0
   21.0678   22.0334  -11.9369 O   0  0  0  0  0  0  0  0  0  0  0  0
   21.3571   19.6428  -11.8643 O   0  0  0  0  0  0  0  0  0  0  0  0
   23.8685   14.6497  -10.4405 H   0  0  0  0  0  0  0  0  0  0  0  0
   25.3368   15.1339  -11.1030 H   0  0  0  0  0  0  0  0  0  0  0  0
   24.0259   16.1877  -11.1030 H   0  0  0  0  0  0  0  0  0  0  0  0
   25.9303   17.0176  -13.3733 H   0  0  0  0  0  0  0  0  0  0  0  0
   24.5387   17.0907  -12.1733 H   0  0  0  0  0  0  0  0  0  0  0  0
   23.1286   18.0862  -13.7916 H   0  0  0  0  0  0  0  0  0  0  0  0
   25.7552   19.4987  -13.5024 H   0  0  0  0  0  0  0  0  0  0  0  0
   23.6482   19.0229  -11.6804 H   0  0  0  0  0  0  0  0  0  0  0  0
   25.0922   20.0966  -11.4911 H   0  0  0  0  0  0  0  0  0  0  0  0
   22.7892   14.6541  -12.5662 H   0  0  0  0  0  0  0  0  0  0  0  0
   23.5257   15.7235  -14.3521 H   0  0  0  0  0  0  0  0  0  0  0  0
   25.2381   15.0924  -14.0946 H   0  0  0  0  0  0  0  0  0  0  0  0
   25.4290   17.5969  -15.4554 H   0  0  0  0  0  0  0  0  0  0  0  0
   23.7741   21.3745  -13.8990 H   0  0  0  0  0  0  0  0  0  0  0  0
   24.9249   20.9170  -15.0372 H   0  0  0  0  0  0  0  0  0  0  0  0
   23.4074   20.1916  -15.0372 H   0  0  0  0  0  0  0  0  0  0  0  0
  6  1  1  0
  2  3  1  0
  2 10  1  0
  3  4  1  0
  3 11  1  0
  4  5  1  0
  4 12  1  0
  5 13  1  0
  6  7  1  0
  6 10  1  0
  7  8  2  0
  7  9  1  0
 13 14  1  0
 14 15  2  0
 14 16  2  0
 14 17  1  1
  1 18  1  0
  1 19  1  0
  1 20  1  0
  2 21  1  0
  2 22  1  0
  3 23  1  6
  4 24  1  1
  5 25  1  0
  5 26  1  0
  6 27  1  1
 10 28  1  0
 10 29  1  0
 11 30  1  0
 12 31  1  0
 12 32  1  0
 12 33  1  0
M  CHG  4   1   1   9  -1  12   1  17  -1
M  END
>  <filename_input>  (13) 
7WUX_6OI_docked.sdf

>  <pdb_id>  (13) 
7WUX_6OI

>  <pose_rank>  (13) 
12

>  <num_atoms_heavy>  (13) 
17

>  <num_torsions>  (13) 
8

>  <pose>  (13) 
[24.210552311043227, 18.137576836093917, -13.983349300774094, -0.7214921948794396, 2.7992758206121304, 0.027531258364940945, 1.9451244073546485, 3.2143816893463413, -5.287101792194697, 3.1876503306065525, 0.13561002793479235, 0.7326628669613472, -1.339785401041093, 0.7650608974343858]

>  <energy>  (13) 
-548.8875252674549

>  <inter_energy>  (13) 
-533.4584415306803

>  <intra_energy>  (13) 
0.004558488811248495

>  <rmsd>  (13) 
2.99394

>  <sdf_rank>  (13) 
0

$$$$

     RDKit          3D

 33 32  0  0  0  0  0  0  0  0999 V2000
   24.7163   22.1950  -12.4574 N   0  0  0  0  0  0  0  0  0  0  0  0
   23.6987   18.6090  -11.4254 C   0  0  0  0  0  0  0  0  0  0  0  0
   24.3257   17.2692  -11.8049 C   0  0  1  0  0  0  0  0  0  0  0  0
   25.6046   17.3744  -12.6508 C   0  0  2  0  0  0  0  0  0  0  0  0
   25.6115   16.4707  -13.8747 C   0  0  0  0  0  0  0  0  0  0  0  0
   23.9439   20.9242  -12.5543 C   0  0  2  0  0  0  0  0  0  0  0  0
   22.4820   21.1892  -12.1711 C   0  0  0  0  0  0  0  0  0  0  0  0
   21.6332   21.1542  -13.0880 O   0  0  0  0  0  0  0  0  0  0  0  0
   22.2400   21.4011  -10.9675 O   0  0  0  0  0  0  0  0  0  0  0  0
   24.5754   19.8274  -11.6851 C   0  0  0  0  0  0  0  0  0  0  0  0
   24.6212   16.5586  -10.6080 O   0  0  0  0  0  0  0  0  0  0  0  0
   26.8083   17.0574  -11.8187 N   0  0  0  0  0  0  0  0  0  0  0  0
   24.3901   15.6589  -13.9426 O   0  0  0  0  0  0  0  0  0  0  0  0
   24.5066   14.0742  -13.6669 S   0  0  1  0  0  0  0  0  0  0  0  0
   23.1750   13.5902  -13.9833 O   0  0  0  0  0  0  0  0  0  0  0  0
   25.5283   13.5515  -14.5487 O   0  0  0  0  0  0  0  0  0  0  0  0
   24.8490   13.9396  -12.2702 O   0  0  0  0  0  0  0  0  0  0  0  0
   24.8615   22.4339  -11.4660 H   0  0  0  0  0  0  0  0  0  0  0  0
   25.6293   22.0780  -12.9196 H   0  0  0  0  0  0  0  0  0  0  0  0
   24.1920   22.9516  -12.9196 H   0  0  0  0  0  0  0  0  0  0  0  0
   22.7705   18.7271  -12.0036 H   0  0  0  0  0  0  0  0  0  0  0  0
   23.5352   18.5745  -10.3381 H   0  0  0  0  0  0  0  0  0  0  0  0
   23.5904   16.7476  -12.4351 H   0  0  0  0  0  0  0  0  0  0  0  0
   25.6328   18.4139  -13.0096 H   0  0  0  0  0  0  0  0  0  0  0  0
   25.6795   17.0926  -14.7795 H   0  0  0  0  0  0  0  0  0  0  0  0
   26.4758   15.7941  -13.8030 H   0  0  0  0  0  0  0  0  0  0  0  0
   23.9713   20.5580  -13.5912 H   0  0  0  0  0  0  0  0  0  0  0  0
   24.8334   20.2724  -10.7128 H   0  0  0  0  0  0  0  0  0  0  0  0
   25.4446   19.4586  -12.2494 H   0  0  0  0  0  0  0  0  0  0  0  0
   24.3883   17.1187   -9.8256 H   0  0  0  0  0  0  0  0  0  0  0  0
   26.5624   17.1222  -10.8206 H   0  0  0  0  0  0  0  0  0  0  0  0
   27.1311   16.1028  -12.0315 H   0  0  0  0  0  0  0  0  0  0  0  0
   27.5594   17.7293  -12.0315 H   0  0  0  0  0  0  0  0  0  0  0  0
  6  1  1  0
  2  3  1  0
  2 10  1  0
  3  4  1  0
  3 11  1  0
  4  5  1  0
  4 12  1  0
  5 13  1  0
  6  7  1  0
  6 10  1  0
  7  8  2  0
  7  9  1  0
 13 14  1  0
 14 15  2  0
 14 16  2  0
 14 17  1  1
  1 18  1  0
  1 19  1  0
  1 20  1  0
  2 21  1  0
  2 22  1  0
  3 23  1  6
  4 24  1  6
  5 25  1  0
  5 26  1  0
  6 27  1  6
 10 28  1  0
 10 29  1  0
 11 30  1  0
 12 31  1  0
 12 32  1  0
 12 33  1  0
M  CHG  4   1   1   9  -1  12   1  17  -1
M  END
>  <filename_input>  (14) 
7WUX_6OI_docked.sdf

>  <pdb_id>  (14) 
7WUX_6OI

>  <pose_rank>  (14) 
13

>  <num_atoms_heavy>  (14) 
17

>  <num_torsions>  (14) 
8

>  <pose>  (14) 
[24.325697359794606, 17.26919126139294, -11.804883675360426, 0.38240212400852563, -1.2729653266367424, 3.4056760821829566, -49.46353145662955, -13.592116896932183, -3.075361316251477, -1.2020889985530594, 3.105104660839985, 5.168935149908698, -4.487610565990525, 1.760916009091375]

>  <energy>  (14) 
-538.0102735815033

>  <inter_energy>  (14) 
-540.3917495056949

>  <intra_energy>  (14) 
10.768527406491081

>  <rmsd>  (14) 
6.28152

>  <sdf_rank>  (14) 
0

$$$$

     RDKit          3D

 33 32  0  0  0  0  0  0  0  0999 V2000
   24.1875   14.0086  -11.9922 N   0  0  0  0  0  0  0  0  0  0  0  0
   23.4840   17.1895  -10.3556 C   0  0  0  0  0  0  0  0  0  0  0  0
   23.4532   18.6187  -10.8928 C   0  0  1  0  0  0  0  0  0  0  0  0
   22.0463   19.2190  -11.0430 C   0  0  2  0  0  0  0  0  0  0  0  0
   21.9290   20.2459  -12.1595 C   0  0  0  0  0  0  0  0  0  0  0  0
   24.0148   15.4718  -12.2164 C   0  0  2  0  0  0  0  0  0  0  0  0
   24.7327   15.8742  -13.5114 C   0  0  0  0  0  0  0  0  0  0  0  0
   25.0477   14.9582  -14.3012 O   0  0  0  0  0  0  0  0  0  0  0  0
   24.9337   17.0900  -13.6948 O   0  0  0  0  0  0  0  0  0  0  0  0
   24.5145   16.2775  -11.0089 C   0  0  0  0  0  0  0  0  0  0  0  0
   24.2152   19.4421  -10.0176 O   0  0  0  0  0  0  0  0  0  0  0  0
   21.6121   19.8587   -9.7608 N   0  0  0  0  0  0  0  0  0  0  0  0
   22.8476   21.3709  -11.9452 O   0  0  0  0  0  0  0  0  0  0  0  0
   24.1637   21.4731  -12.8716 S   0  0  1  0  0  0  0  0  0  0  0  0
   24.6950   22.7826  -12.5386 O   0  0  0  0  0  0  0  0  0  0  0  0
   25.0456   20.3878  -12.4988 O   0  0  0  0  0  0  0  0  0  0  0  0
   23.6969   21.3732  -14.2347 O   0  0  0  0  0  0  0  0  0  0  0  0
   24.2102   13.8166  -10.9805 H   0  0  0  0  0  0  0  0  0  0  0  0
   23.4007   13.5003  -12.4206 H   0  0  0  0  0  0  0  0  0  0  0  0
   25.0711   13.6975  -12.4206 H   0  0  0  0  0  0  0  0  0  0  0  0
   23.7024   17.2346   -9.2785 H   0  0  0  0  0  0  0  0  0  0  0  0
   22.5000   16.7543  -10.5843 H   0  0  0  0  0  0  0  0  0  0  0  0
   23.8735   18.5797  -11.9086 H   0  0  0  0  0  0  0  0  0  0  0  0
   21.3941   18.3727  -11.3050 H   0  0  0  0  0  0  0  0  0  0  0  0
   22.1706   19.7630  -13.1178 H   0  0  0  0  0  0  0  0  0  0  0  0
   20.8997   20.6338  -12.1690 H   0  0  0  0  0  0  0  0  0  0  0  0
   22.9445   15.7009  -12.3259 H   0  0  0  0  0  0  0  0  0  0  0  0
   25.3560   16.9022  -11.3433 H   0  0  0  0  0  0  0  0  0  0  0  0
   24.7886   15.5359  -10.2441 H   0  0  0  0  0  0  0  0  0  0  0  0
   24.0019   19.2117   -9.0787 H   0  0  0  0  0  0  0  0  0  0  0  0
   21.9796   19.3172   -8.9654 H   0  0  0  0  0  0  0  0  0  0  0  0
   21.9750   20.8217   -9.7175 H   0  0  0  0  0  0  0  0  0  0  0  0
   20.5832   19.8772   -9.7175 H   0  0  0  0  0  0  0  0  0  0  0  0
  6  1  1  0
  2  3  1  0
  2 10  1  0
  3  4  1  0
  3 11  1  0
  4  5  1  0
  4 12  1  0
  5 13  1  0
  6  7  1  0
  6 10  1  0
  7  8  2  0
  7  9  1  0
 13 14  1  0
 14 15  2  0
 14 16  2  0
 14 17  1  6
  1 18  1  0
  1 19  1  0
  1 20  1  0
  2 21  1  0
  2 22  1  0
  3 23  1  6
  4 24  1  6
  5 25  1  0
  5 26  1  0
  6 27  1  6
 10 28  1  0
 10 29  1  0
 11 30  1  0
 12 31  1  0
 12 32  1  0
 12 33  1  0
M  CHG  4   1   1   9  -1  12   1  17  -1
M  END
>  <filename_input>  (15) 
7WUX_6OI_docked.sdf

>  <pdb_id>  (15) 
7WUX_6OI

>  <pose_rank>  (15) 
14

>  <num_atoms_heavy>  (15) 
17

>  <num_torsions>  (15) 
8

>  <pose>  (15) 
[23.453158754117034, 18.618701612131094, -10.892840496042638, -0.7777142519148125, 0.5495375533900156, 0.15960886871782456, -12.088871882277008, -14.594540790370925, 6.974141343426368, -1.4801968120668358, -13.081160846089833, 13.946442623681774, -9.502118656617608, 0.14252306299518047]

>  <energy>  (15) 
-512.0215282845926

>  <inter_energy>  (15) 
-542.4296845527274

>  <intra_energy>  (15) 
36.31883337790521

>  <rmsd>  (15) 
1.92177

>  <sdf_rank>  (15) 
0

$$$$

     RDKit          3D

 33 32  0  0  0  0  0  0  0  0999 V2000
   24.7581   19.8305  -15.4913 N   0  0  0  0  0  0  0  0  0  0  0  0
   23.4046   18.0185  -12.3961 C   0  0  0  0  0  0  0  0  0  0  0  0
   23.1912   18.7882  -11.0945 C   0  0  1  0  0  0  0  0  0  0  0  0
   21.7865   19.3884  -10.9253 C   0  0  2  0  0  0  0  0  0  0  0  0
   21.1081   19.7518  -12.2377 C   0  0  0  0  0  0  0  0  0  0  0  0
   23.9430   19.7451  -14.2465 C   0  0  2  0  0  0  0  0  0  0  0  0
   23.9584   21.1052  -13.5364 C   0  0  0  0  0  0  0  0  0  0  0  0
   24.9833   21.4006  -12.8848 O   0  0  0  0  0  0  0  0  0  0  0  0
   22.9546   21.8298  -13.6758 O   0  0  0  0  0  0  0  0  0  0  0  0
   24.4447   18.6161  -13.3351 C   0  0  0  0  0  0  0  0  0  0  0  0
   23.4512   17.9083  -10.0068 O   0  0  0  0  0  0  0  0  0  0  0  0
   21.8419   20.6117  -10.0638 N   0  0  0  0  0  0  0  0  0  0  0  0
   19.9935   20.6821  -12.0199 O   0  0  0  0  0  0  0  0  0  0  0  0
   18.5825   20.3690  -12.7354 S   0  0  1  0  0  0  0  0  0  0  0  0
   17.8053   19.7616  -11.6702 O   0  0  0  0  0  0  0  0  0  0  0  0
   18.0362   21.6285  -13.1936 O   0  0  0  0  0  0  0  0  0  0  0  0
   18.8807   19.4603  -13.8177 O   0  0  0  0  0  0  0  0  0  0  0  0
   25.7525   19.9347  -15.2440 H   0  0  0  0  0  0  0  0  0  0  0  0
   24.6301   18.9715  -16.0450 H   0  0  0  0  0  0  0  0  0  0  0  0
   24.4549   20.6443  -16.0450 H   0  0  0  0  0  0  0  0  0  0  0  0
   23.7229   16.9972  -12.1402 H   0  0  0  0  0  0  0  0  0  0  0  0
   22.4466   18.0557  -12.9354 H   0  0  0  0  0  0  0  0  0  0  0  0
   23.8826   19.6434  -11.1204 H   0  0  0  0  0  0  0  0  0  0  0  0
   21.1858   18.5972  -10.4529 H   0  0  0  0  0  0  0  0  0  0  0  0
   21.8450   20.2245  -12.9036 H   0  0  0  0  0  0  0  0  0  0  0  0
   20.7101   18.8316  -12.6904 H   0  0  0  0  0  0  0  0  0  0  0  0
   22.9028   19.5000  -14.5069 H   0  0  0  0  0  0  0  0  0  0  0  0
   25.2653   19.0157  -12.7213 H   0  0  0  0  0  0  0  0  0  0  0  0
   24.7493   17.7996  -14.0064 H   0  0  0  0  0  0  0  0  0  0  0  0
   23.3093   18.3885   -9.1528 H   0  0  0  0  0  0  0  0  0  0  0  0
   21.8293   20.3341   -9.0720 H   0  0  0  0  0  0  0  0  0  0  0  0
   22.7074   21.1333  -10.2634 H   0  0  0  0  0  0  0  0  0  0  0  0
   21.0271   21.2094  -10.2634 H   0  0  0  0  0  0  0  0  0  0  0  0
  6  1  1  0
  2  3  1  0
  2 10  1  0
  3  4  1  0
  3 11  1  0
  4  5  1  0
  4 12  1  0
  5 13  1  0
  6  7  1  0
  6 10  1  0
  7  8  2  0
  7  9  1  0
 13 14  1  0
 14 15  2  0
 14 16  2  0
 14 17  1  6
  1 18  1  0
  1 19  1  0
  1 20  1  0
  2 21  1  0
  2 22  1  0
  3 23  1  6
  4 24  1  1
  5 25  1  0
  5 26  1  0
  6 27  1  6
 10 28  1  0
 10 29  1  0
 11 30  1  0
 12 31  1  0
 12 32  1  0
 12 33  1  0
M  CHG  4   1   1   9  -1  12   1  17  -1
M  END
>  <filename_input>  (16) 
7WUX_6OI_docked.sdf

>  <pdb_id>  (16) 
7WUX_6OI

>  <pose_rank>  (16) 
15

>  <num_atoms_heavy>  (16) 
17

>  <num_torsions>  (16) 
8

>  <pose>  (16) 
[23.19124033503867, 18.788170215144618, -11.094519527315283, 0.5650196125309347, -0.0398291070149039, 0.30902328995825296, -3.6963814173384755, 2.460936072413835, -3.476492766485077, -2.7271215430326086, -0.9395642959057432, 1.52496857281944, -3.7739848849393747, -1.496761815007079]

>  <energy>  (16) 
-394.6010620353981

>  <inter_energy>  (16) 
-410.8755569043734

>  <intra_energy>  (16) 
18.30183766275531

>  <rmsd>  (16) 
5.17565

>  <sdf_rank>  (16) 
0

$$$$

     RDKit          3D

 33 32  0  0  0  0  0  0  0  0999 V2000
   25.0232   16.6778  -14.8855 N   0  0  0  0  0  0  0  0  0  0  0  0
   24.3962   18.5481  -12.9977 C   0  0  0  0  0  0  0  0  0  0  0  0
   23.8592   18.9968  -11.6403 C   0  0  1  0  0  0  0  0  0  0  0  0
   23.9310   17.9303  -10.5360 C   0  0  2  0  0  0  0  0  0  0  0  0
   23.2980   16.6010  -10.9192 C   0  0  0  0  0  0  0  0  0  0  0  0
   23.7106   17.3231  -15.1712 C   0  0  2  0  0  0  0  0  0  0  0  0
   23.7625   17.9871  -16.5534 C   0  0  0  0  0  0  0  0  0  0  0  0
   24.6148   18.8847  -16.7271 O   0  0  0  0  0  0  0  0  0  0  0  0
   22.9635   17.5704  -17.4138 O   0  0  0  0  0  0  0  0  0  0  0  0
   23.3358   18.3228  -14.0679 C   0  0  0  0  0  0  0  0  0  0  0  0
   24.5947   20.1418  -11.2246 O   0  0  0  0  0  0  0  0  0  0  0  0
   23.2730   18.4278   -9.2864 N   0  0  0  0  0  0  0  0  0  0  0  0
   24.3185   15.5646  -11.1191 O   0  0  0  0  0  0  0  0  0  0  0  0
   23.9486   14.2914  -12.0371 S   0  0  1  0  0  0  0  0  0  0  0  0
   22.8038   14.7599  -12.7971 O   0  0  0  0  0  0  0  0  0  0  0  0
   25.1007   13.9989  -12.8628 O   0  0  0  0  0  0  0  0  0  0  0  0
   23.6297   13.2218  -11.1205 O   0  0  0  0  0  0  0  0  0  0  0  0
   25.1586   16.6112  -13.8666 H   0  0  0  0  0  0  0  0  0  0  0  0
   25.0381   15.7333  -15.2962 H   0  0  0  0  0  0  0  0  0  0  0  0
   25.7802   17.2428  -15.2962 H   0  0  0  0  0  0  0  0  0  0  0  0
   25.0900   19.3200  -13.3621 H   0  0  0  0  0  0  0  0  0  0  0  0
   24.8762   17.5726  -12.8308 H   0  0  0  0  0  0  0  0  0  0  0  0
   22.7897   19.2108  -11.7828 H   0  0  0  0  0  0  0  0  0  0  0  0
   25.0038   17.7491  -10.3743 H   0  0  0  0  0  0  0  0  0  0  0  0
   22.6166   16.2834  -10.1162 H   0  0  0  0  0  0  0  0  0  0  0  0
   22.7494   16.7359  -11.8630 H   0  0  0  0  0  0  0  0  0  0  0  0
   22.9214   16.5569  -15.1822 H   0  0  0  0  0  0  0  0  0  0  0  0
   22.4264   17.9538  -13.5711 H   0  0  0  0  0  0  0  0  0  0  0  0
   23.2047   19.2921  -14.5712 H   0  0  0  0  0  0  0  0  0  0  0  0
   24.6178   20.1779  -10.2356 H   0  0  0  0  0  0  0  0  0  0  0  0
   23.7686   18.0531   -8.4649 H   0  0  0  0  0  0  0  0  0  0  0  0
   23.3061   19.4571   -9.2674 H   0  0  0  0  0  0  0  0  0  0  0  0
   22.2917   18.1154   -9.2674 H   0  0  0  0  0  0  0  0  0  0  0  0
  6  1  1  0
  2  3  1  0
  2 10  1  0
  3  4  1  0
  3 11  1  0
  4  5  1  0
  4 12  1  0
  5 13  1  0
  6  7  1  0
  6 10  1  0
  7  8  2  0
  7  9  1  0
 13 14  1  0
 14 15  2  0
 14 16  2  0
 14 17  1  1
  1 18  1  0
  1 19  1  0
  1 20  1  0
  2 21  1  0
  2 22  1  0
  3 23  1  6
  4 24  1  1
  5 25  1  0
  5 26  1  0
  6 27  1  6
 10 28  1  0
 10 29  1  0
 11 30  1  0
 12 31  1  0
 12 32  1  0
 12 33  1  0
M  CHG  4   1   1   9  -1  12   1  17  -1
M  END
>  <filename_input>  (17) 
7WUX_6OI_docked.sdf

>  <pdb_id>  (17) 
7WUX_6OI

>  <pose_rank>  (17) 
16

>  <num_atoms_heavy>  (17) 
17

>  <num_torsions>  (17) 
8

>  <pose>  (17) 
[23.85921875341755, 18.996837094997105, -11.640341327556142, 0.12305094590341543, 1.304691902223722, 1.8776565983384392, 2.18384958485734, 0.9100053075712916, 2.374375533671426, 2.146729566324018, -7.359356345899826, 0.2979043182285233, -0.9991865718974795, -1.1937839359403404]

>  <energy>  (17) 
-488.52633807710123

>  <inter_energy>  (17) 
-486.412992966567

>  <intra_energy>  (17) 
2.107394442691364

>  <rmsd>  (17) 
5.29832

>  <sdf_rank>  (17) 
0

$$$$

     RDKit          3D

 33 32  0  0  0  0  0  0  0  0999 V2000
   26.2570   16.3971  -14.3877 N   0  0  0  0  0  0  0  0  0  0  0  0
   23.6053   16.4189  -13.7486 C   0  0  0  0  0  0  0  0  0  0  0  0
   23.1068   17.2569  -12.5733 C   0  0  1  0  0  0  0  0  0  0  0  0
   24.2148   17.8164  -11.6668 C   0  0  2  0  0  0  0  0  0  0  0  0
   23.7082   18.7475  -10.5755 C   0  0  0  0  0  0  0  0  0  0  0  0
   25.8509   15.1342  -13.7087 C   0  0  2  0  0  0  0  0  0  0  0  0
   26.2220   13.9393  -14.5968 C   0  0  0  0  0  0  0  0  0  0  0  0
   25.5359   12.9013  -14.4781 O   0  0  0  0  0  0  0  0  0  0  0  0
   27.1702   14.0943  -15.3900 O   0  0  0  0  0  0  0  0  0  0  0  0
   24.3550   15.1500  -13.3634 C   0  0  0  0  0  0  0  0  0  0  0  0
   22.3415   18.3400  -13.0889 O   0  0  0  0  0  0  0  0  0  0  0  0
   25.2352   18.5491  -12.4814 N   0  0  0  0  0  0  0  0  0  0  0  0
   24.2362   20.1064  -10.7491 O   0  0  0  0  0  0  0  0  0  0  0  0
   23.1879   21.3213  -10.9103 S   0  0  1  0  0  0  0  0  0  0  0  0
   23.0807   21.4695  -12.3505 O   0  0  0  0  0  0  0  0  0  0  0  0
   21.9480   20.9142  -10.2847 O   0  0  0  0  0  0  0  0  0  0  0  0
   23.7969   22.4583  -10.2604 O   0  0  0  0  0  0  0  0  0  0  0  0
   26.4860   17.1093  -13.6797 H   0  0  0  0  0  0  0  0  0  0  0  0
   27.0835   16.2200  -14.9764 H   0  0  0  0  0  0  0  0  0  0  0  0
   25.4822   16.7349  -14.9764 H   0  0  0  0  0  0  0  0  0  0  0  0
   22.7343   16.1297  -14.3551 H   0  0  0  0  0  0  0  0  0  0  0  0
   24.3259   17.0487  -14.2910 H   0  0  0  0  0  0  0  0  0  0  0  0
   22.5115   16.5831  -11.9396 H   0  0  0  0  0  0  0  0  0  0  0  0
   24.6575   16.9396  -11.1716 H   0  0  0  0  0  0  0  0  0  0  0  0
   22.6094   18.7818  -10.6146 H   0  0  0  0  0  0  0  0  0  0  0  0
   24.0500   18.3628   -9.6033 H   0  0  0  0  0  0  0  0  0  0  0  0
   26.3923   15.0412  -12.7557 H   0  0  0  0  0  0  0  0  0  0  0  0
   24.2569   15.0156  -12.2761 H   0  0  0  0  0  0  0  0  0  0  0  0
   23.9008   14.3406  -13.9537 H   0  0  0  0  0  0  0  0  0  0  0  0
   21.9688   18.8674  -12.3385 H   0  0  0  0  0  0  0  0  0  0  0  0
   25.8984   19.0253  -11.8535 H   0  0  0  0  0  0  0  0  0  0  0  0
   25.7451   17.8800  -13.0756 H   0  0  0  0  0  0  0  0  0  0  0  0
   24.7641   19.2462  -13.0756 H   0  0  0  0  0  0  0  0  0  0  0  0
  6  1  1  0
  2  3  1  0
  2 10  1  0
  3  4  1  0
  3 11  1  0
  4  5  1  0
  4 12  1  0
  5 13  1  0
  6  7  1  0
  6 10  1  0
  7  8  2  0
  7  9  1  0
 13 14  1  0
 14 15  2  0
 14 16  2  0
 14 17  1  1
  1 18  1  0
  1 19  1  0
  1 20  1  0
  2 21  1  0
  2 22  1  0
  3 23  1  1
  4 24  1  1
  5 25  1  0
  5 26  1  0
  6 27  1  1
 10 28  1  0
 10 29  1  0
 11 30  1  0
 12 31  1  0
 12 32  1  0
 12 33  1  0
M  CHG  4   1   1   9  -1  12   1  17  -1
M  END
>  <filename_input>  (18) 
7WUX_6OI_docked.sdf

>  <pdb_id>  (18) 
7WUX_6OI

>  <pose_rank>  (18) 
17

>  <num_atoms_heavy>  (18) 
17

>  <num_torsions>  (18) 
8

>  <pose>  (18) 
[23.10681863563354, 17.256877252532103, -12.573300078316443, 0.4420689685024525, -2.1683943263986185, -1.677413495153685, -6.411953684553342, 3.257964537722448, -5.318550919289696, 0.1541802764158921, -1.8713318921852862, 1.0165475040952405, -1.1044487818871582, -2.8048311598261977]

>  <energy>  (18) 
-424.0977615098551

>  <inter_energy>  (18) 
-435.1071028883394

>  <intra_energy>  (18) 
9.639365443440958

>  <rmsd>  (18) 
2.84881

>  <sdf_rank>  (18) 
0

$$$$

     RDKit          3D

 33 32  0  0  0  0  0  0  0  0999 V2000
   26.8551   15.5535  -16.1911 N   0  0  0  0  0  0  0  0  0  0  0  0
   25.0014   15.4441  -14.1110 C   0  0  0  0  0  0  0  0  0  0  0  0
   25.1538   16.7930  -13.4115 C   0  0  1  0  0  0  0  0  0  0  0  0
   24.1067   17.8455  -13.8091 C   0  0  2  0  0  0  0  0  0  0  0  0
   23.9440   18.9683  -12.7955 C   0  0  0  0  0  0  0  0  0  0  0  0
   27.3567   14.8299  -14.9887 C   0  0  2  0  0  0  0  0  0  0  0  0
   28.0864   13.5551  -15.4321 C   0  0  0  0  0  0  0  0  0  0  0  0
   27.5836   12.4606  -15.0983 O   0  0  0  0  0  0  0  0  0  0  0  0
   29.1201   13.7001  -16.1123 O   0  0  0  0  0  0  0  0  0  0  0  0
   26.2126   14.5257  -14.0110 C   0  0  0  0  0  0  0  0  0  0  0  0
   25.0825   16.5789  -12.0066 O   0  0  0  0  0  0  0  0  0  0  0  0
   22.7726   17.1999  -14.0221 N   0  0  0  0  0  0  0  0  0  0  0  0
   24.3095   20.2659  -13.3769 O   0  0  0  0  0  0  0  0  0  0  0  0
   23.8128   21.6071  -12.6316 S   0  0  1  0  0  0  0  0  0  0  0  0
   22.4395   21.7407  -13.0833 O   0  0  0  0  0  0  0  0  0  0  0  0
   23.9254   21.3819  -11.2064 O   0  0  0  0  0  0  0  0  0  0  0  0
   24.6768   22.6645  -13.1022 O   0  0  0  0  0  0  0  0  0  0  0  0
   26.2932   16.3642  -15.8945 H   0  0  0  0  0  0  0  0  0  0  0  0
   27.6539   15.8773  -16.7550 H   0  0  0  0  0  0  0  0  0  0  0  0
   26.2715   14.9191  -16.7550 H   0  0  0  0  0  0  0  0  0  0  0  0
   24.1410   14.9238  -13.6648 H   0  0  0  0  0  0  0  0  0  0  0  0
   24.8715   15.6658  -15.1806 H   0  0  0  0  0  0  0  0  0  0  0  0
   26.1252   17.2009  -13.7278 H   0  0  0  0  0  0  0  0  0  0  0  0
   24.4832   18.2948  -14.7399 H   0  0  0  0  0  0  0  0  0  0  0  0
   22.8951   19.0053  -12.4664 H   0  0  0  0  0  0  0  0  0  0  0  0
   24.6110   18.7680  -11.9441 H   0  0  0  0  0  0  0  0  0  0  0  0
   28.0700   15.4695  -14.4483 H   0  0  0  0  0  0  0  0  0  0  0  0
   26.6116   14.6014  -12.9887 H   0  0  0  0  0  0  0  0  0  0  0  0
   25.8512   13.5204  -14.2733 H   0  0  0  0  0  0  0  0  0  0  0  0
   25.3571   17.4036  -11.5328 H   0  0  0  0  0  0  0  0  0  0  0  0
   22.3424   16.9917  -13.1097 H   0  0  0  0  0  0  0  0  0  0  0  0
   22.1626   17.8390  -14.5515 H   0  0  0  0  0  0  0  0  0  0  0  0
   22.8952   16.3250  -14.5515 H   0  0  0  0  0  0  0  0  0  0  0  0
  6  1  1  0
  2  3  1  0
  2 10  1  0
  3  4  1  0
  3 11  1  0
  4  5  1  0
  4 12  1  0
  5 13  1  0
  6  7  1  0
  6 10  1  0
  7  8  2  0
  7  9  1  0
 13 14  1  0
 14 15  2  0
 14 16  2  0
 14 17  1  6
  1 18  1  0
  1 19  1  0
  1 20  1  0
  2 21  1  0
  2 22  1  0
  3 23  1  1
  4 24  1  6
  5 25  1  0
  5 26  1  0
  6 27  1  1
 10 28  1  0
 10 29  1  0
 11 30  1  0
 12 31  1  0
 12 32  1  0
 12 33  1  0
M  CHG  4   1   1   9  -1  12   1  17  -1
M  END
>  <filename_input>  (19) 
7WUX_6OI_docked.sdf

>  <pdb_id>  (19) 
7WUX_6OI

>  <pose_rank>  (19) 
18

>  <num_atoms_heavy>  (19) 
17

>  <num_torsions>  (19) 
8

>  <pose>  (19) 
[25.153808995680134, 16.792995288511506, -13.41151373199135, 0.08194275993411976, 5.639744327325914, 2.4073843484336823, -0.40059583996473547, 1.0551827894359307, -4.6089841490327546, 0.4071247657977315, -0.08751744548183538, 1.5835194301186533, -1.5107253074884368, -2.146322468382244]

>  <energy>  (19) 
-484.6792830638429

>  <inter_energy>  (19) 
-474.42531625554045

>  <intra_energy>  (19) 
1.364885982593381

>  <rmsd>  (19) 
3.49462

>  <sdf_rank>  (19) 
0

$$$$

     RDKit          3D

 33 32  0  0  0  0  0  0  0  0999 V2000
   25.0613   15.1553  -11.6839 N   0  0  0  0  0  0  0  0  0  0  0  0
   24.4098   16.3920  -14.0309 C   0  0  0  0  0  0  0  0  0  0  0  0
   24.2303   17.8619  -13.6577 C   0  0  1  0  0  0  0  0  0  0  0  0
   24.9001   18.2768  -12.3381 C   0  0  2  0  0  0  0  0  0  0  0  0
   24.1902   19.4119  -11.6154 C   0  0  0  0  0  0  0  0  0  0  0  0
   23.7426   14.6902  -12.1996 C   0  0  2  0  0  0  0  0  0  0  0  0
   23.7948   13.1742  -12.4302 C   0  0  0  0  0  0  0  0  0  0  0  0
   22.9796   12.6893  -13.2442 O   0  0  0  0  0  0  0  0  0  0  0  0
   24.6609   12.5341  -11.8039 O   0  0  0  0  0  0  0  0  0  0  0  0
   23.3491   15.4513  -13.4735 C   0  0  0  0  0  0  0  0  0  0  0  0
   24.7564   18.6587  -14.7127 O   0  0  0  0  0  0  0  0  0  0  0  0
   26.3214   18.6813  -12.5788 N   0  0  0  0  0  0  0  0  0  0  0  0
   24.7872   20.7106  -11.9505 O   0  0  0  0  0  0  0  0  0  0  0  0
   23.9712   21.7002  -12.9281 S   0  0  1  0  0  0  0  0  0  0  0  0
   24.2243   21.1399  -14.2433 O   0  0  0  0  0  0  0  0  0  0  0  0
   22.5774   21.6436  -12.5422 O   0  0  0  0  0  0  0  0  0  0  0  0
   24.5520   23.0092  -12.7408 O   0  0  0  0  0  0  0  0  0  0  0  0
   25.0482   15.1506  -10.6540 H   0  0  0  0  0  0  0  0  0  0  0  0
   25.8033   14.5252  -12.0206 H   0  0  0  0  0  0  0  0  0  0  0  0
   25.2438   16.1114  -12.0206 H   0  0  0  0  0  0  0  0  0  0  0  0
   24.3924   16.3140  -15.1280 H   0  0  0  0  0  0  0  0  0  0  0  0
   25.3648   16.0765  -13.5853 H   0  0  0  0  0  0  0  0  0  0  0  0
   23.1514   18.0169  -13.5091 H   0  0  0  0  0  0  0  0  0  0  0  0
   24.8443   17.3892  -11.6906 H   0  0  0  0  0  0  0  0  0  0  0  0
   23.1304   19.4175  -11.9101 H   0  0  0  0  0  0  0  0  0  0  0  0
   24.2909   19.2516  -10.5318 H   0  0  0  0  0  0  0  0  0  0  0  0
   22.9629   14.9024  -11.4533 H   0  0  0  0  0  0  0  0  0  0  0  0
   22.4524   16.0474  -13.2486 H   0  0  0  0  0  0  0  0  0  0  0  0
   23.1904   14.6845  -14.2460 H   0  0  0  0  0  0  0  0  0  0  0  0
   25.2597   19.4210  -14.3311 H   0  0  0  0  0  0  0  0  0  0  0  0
   26.7975   18.8167  -11.6755 H   0  0  0  0  0  0  0  0  0  0  0  0
   26.8025   17.9438  -13.1132 H   0  0  0  0  0  0  0  0  0  0  0  0
   26.3421   19.5615  -13.1132 H   0  0  0  0  0  0  0  0  0  0  0  0
  6  1  1  0
  2  3  1  0
  2 10  1  0
  3  4  1  0
  3 11  1  0
  4  5  1  0
  4 12  1  0
  5 13  1  0
  6  7  1  0
  6 10  1  0
  7  8  2  0
  7  9  1  0
 13 14  1  0
 14 15  2  0
 14 16  2  0
 14 17  1  6
  1 18  1  0
  1 19  1  0
  1 20  1  0
  2 21  1  0
  2 22  1  0
  3 23  1  1
  4 24  1  1
  5 25  1  0
  5 26  1  0
  6 27  1  1
 10 28  1  0
 10 29  1  0
 11 30  1  0
 12 31  1  0
 12 32  1  0
 12 33  1  0
M  CHG  4   1   1   9  -1  12   1  17  -1
M  END
>  <filename_input>  (20) 
7WUX_6OI_docked.sdf

>  <pdb_id>  (20) 
7WUX_6OI

>  <pose_rank>  (20) 
19

>  <num_atoms_heavy>  (20) 
17

>  <num_torsions>  (20) 
8

>  <pose>  (20) 
[24.230269846401132, 17.861907926203894, -13.657724543648136, 0.11557841742326289, -3.3748443751048463, -1.3725563101912168, -5.800164942484681, 3.63375093372816, -5.586409105670147, 0.4460515857723508, -1.4201380647550679, 1.2612781984645463, -0.9806445260425232, -2.8801972075155207]

>  <energy>  (20) 
-559.9787292677614

>  <inter_energy>  (20) 
-594.0005497767057

>  <intra_energy>  (20) 
32.408627293481345

>  <rmsd>  (20) 
2.36208

>  <sdf_rank>  (20) 
0

$$$$

     RDKit          3D

 33 32  0  0  0  0  0  0  0  0999 V2000
   26.4695   17.0016  -12.9080 N   0  0  0  0  0  0  0  0  0  0  0  0
   24.9680   18.7375  -11.3651 C   0  0  0  0  0  0  0  0  0  0  0  0
   24.0462   19.7441  -10.6803 C   0  0  1  0  0  0  0  0  0  0  0  0
   23.2079   20.6043  -11.6393 C   0  0  2  0  0  0  0  0  0  0  0  0
   21.7877   20.0977  -11.8418 C   0  0  0  0  0  0  0  0  0  0  0  0
   25.0567   16.5541  -12.7506 C   0  0  2  0  0  0  0  0  0  0  0  0
   24.3539   16.6060  -14.1135 C   0  0  0  0  0  0  0  0  0  0  0  0
   24.5536   15.6542  -14.8987 O   0  0  0  0  0  0  0  0  0  0  0  0
   23.6159   17.5851  -14.3348 O   0  0  0  0  0  0  0  0  0  0  0  0
   24.3257   17.3962  -11.6954 C   0  0  0  0  0  0  0  0  0  0  0  0
   23.1704   19.0316   -9.8143 O   0  0  0  0  0  0  0  0  0  0  0  0
   23.8752   20.6965  -12.9764 N   0  0  0  0  0  0  0  0  0  0  0  0
   20.8041   21.1572  -11.5855 O   0  0  0  0  0  0  0  0  0  0  0  0
   19.3002   20.9554  -12.1315 S   0  0  1  0  0  0  0  0  0  0  0  0
   18.8772   22.3120  -12.4289 O   0  0  0  0  0  0  0  0  0  0  0  0
   19.3710   20.1098  -13.3039 O   0  0  0  0  0  0  0  0  0  0  0  0
   18.5633   20.3496  -11.0470 O   0  0  0  0  0  0  0  0  0  0  0  0
   26.8928   17.1357  -11.9786 H   0  0  0  0  0  0  0  0  0  0  0  0
   27.0001   16.2875  -13.4271 H   0  0  0  0  0  0  0  0  0  0  0  0
   26.4921   17.8910  -13.4271 H   0  0  0  0  0  0  0  0  0  0  0  0
   25.3245   19.1855  -12.3044 H   0  0  0  0  0  0  0  0  0  0  0  0
   25.7750   18.5235  -10.6489 H   0  0  0  0  0  0  0  0  0  0  0  0
   24.6974   20.4457  -10.1383 H   0  0  0  0  0  0  0  0  0  0  0  0
   23.1393   21.5925  -11.1610 H   0  0  0  0  0  0  0  0  0  0  0  0
   21.6760   19.7478  -12.8787 H   0  0  0  0  0  0  0  0  0  0  0  0
   21.6068   19.2760  -11.1334 H   0  0  0  0  0  0  0  0  0  0  0  0
   25.0405   15.5151  -12.3898 H   0  0  0  0  0  0  0  0  0  0  0  0
   24.2752   16.8073  -10.7677 H   0  0  0  0  0  0  0  0  0  0  0  0
   23.3413   17.6313  -12.1263 H   0  0  0  0  0  0  0  0  0  0  0  0
   23.4079   19.2248   -8.8729 H   0  0  0  0  0  0  0  0  0  0  0  0
   24.8873   20.8364  -12.8461 H   0  0  0  0  0  0  0  0  0  0  0  0
   23.7139   19.8252  -13.5015 H   0  0  0  0  0  0  0  0  0  0  0  0
   23.4836   21.4914  -13.5015 H   0  0  0  0  0  0  0  0  0  0  0  0
  6  1  1  0
  2  3  1  0
  2 10  1  0
  3  4  1  0
  3 11  1  0
  4  5  1  0
  4 12  1  0
  5 13  1  0
  6  7  1  0
  6 10  1  0
  7  8  2  0
  7  9  1  0
 13 14  1  0
 14 15  2  0
 14 16  2  0
 14 17  1  1
  1 18  1  0
  1 19  1  0
  1 20  1  0
  2 21  1  0
  2 22  1  0
  3 23  1  1
  4 24  1  1
  5 25  1  0
  5 26  1  0
  6 27  1  1
 10 28  1  0
 10 29  1  0
 11 30  1  0
 12 31  1  0
 12 32  1  0
 12 33  1  0
M  CHG  4   1   1   9  -1  12   1  17  -1
M  END
>  <filename_input>  (21) 
7WUX_6OI_docked.sdf

>  <pdb_id>  (21) 
7WUX_6OI

>  <pose_rank>  (21) 
20

>  <num_atoms_heavy>  (21) 
17

>  <num_torsions>  (21) 
8

>  <pose>  (21) 
[24.04615121056466, 19.744117824719076, -10.680317979344917, 0.3020649145682811, -0.9355346267548224, 0.2993710739904465, 17.37757707359882, -23.90784727341548, 7.96870841695123, -0.7662434987677489, 1.8071620752808992, -0.48441708890085555, -0.757087096534004, 1.2620008435347916]

>  <energy>  (21) 
-440.47886031705724

>  <inter_energy>  (21) 
-435.72994246993005

>  <intra_energy>  (21) 
1.6160233059528868

>  <rmsd>  (21) 
3.69268

>  <sdf_rank>  (21) 
0

$$$$

     RDKit          3D

 33 32  0  0  0  0  0  0  0  0999 V2000
   24.0533   20.9350  -10.6251 N   0  0  0  0  0  0  0  0  0  0  0  0
   21.4754   19.3056  -12.1080 C   0  0  0  0  0  0  0  0  0  0  0  0
   20.0203   19.2435  -12.5674 C   0  0  1  0  0  0  0  0  0  0  0  0
   19.1455   20.4146  -12.0925 C   0  0  2  0  0  0  0  0  0  0  0  0
   17.6569   20.2097  -12.3308 C   0  0  0  0  0  0  0  0  0  0  0  0
   23.6427   20.7173  -12.0411 C   0  0  2  0  0  0  0  0  0  0  0  0
   24.2738   21.8018  -12.9242 C   0  0  0  0  0  0  0  0  0  0  0  0
   24.2363   21.6279  -14.1614 O   0  0  0  0  0  0  0  0  0  0  0  0
   24.7624   22.7915  -12.3462 O   0  0  0  0  0  0  0  0  0  0  0  0
   22.1134   20.6873  -12.1735 C   0  0  0  0  0  0  0  0  0  0  0  0
   20.0016   19.2006  -13.9896 O   0  0  0  0  0  0  0  0  0  0  0  0
   19.5645   21.6851  -12.7648 N   0  0  0  0  0  0  0  0  0  0  0  0
   16.8551   21.0821  -11.4641 O   0  0  0  0  0  0  0  0  0  0  0  0
   15.5380   20.4674  -10.7653 S   0  0  1  0  0  0  0  0  0  0  0  0
   14.4975   20.7324  -11.7425 O   0  0  0  0  0  0  0  0  0  0  0  0
   15.7750   19.0556  -10.5527 O   0  0  0  0  0  0  0  0  0  0  0  0
   15.3663   21.1991   -9.5319 O   0  0  0  0  0  0  0  0  0  0  0  0
   23.3327   20.5530   -9.9960 H   0  0  0  0  0  0  0  0  0  0  0  0
   24.9495   20.4582  -10.4503 H   0  0  0  0  0  0  0  0  0  0  0  0
   24.1616   21.9443  -10.4503 H   0  0  0  0  0  0  0  0  0  0  0  0
   21.5189   18.9589  -11.0650 H   0  0  0  0  0  0  0  0  0  0  0  0
   22.0444   18.6713  -12.8037 H   0  0  0  0  0  0  0  0  0  0  0  0
   19.5873   18.3406  -12.1120 H   0  0  0  0  0  0  0  0  0  0  0  0
   19.2994   20.4717  -11.0048 H   0  0  0  0  0  0  0  0  0  0  0  0
   17.4270   20.4389  -13.3818 H   0  0  0  0  0  0  0  0  0  0  0  0
   17.4078   19.1638  -12.0983 H   0  0  0  0  0  0  0  0  0  0  0  0
   24.0068   19.7364  -12.3806 H   0  0  0  0  0  0  0  0  0  0  0  0
   21.8484   21.1372  -13.1416 H   0  0  0  0  0  0  0  0  0  0  0  0
   21.7248   21.2403  -11.3056 H   0  0  0  0  0  0  0  0  0  0  0  0
   19.6252   18.3352  -14.2887 H   0  0  0  0  0  0  0  0  0  0  0  0
   19.7971   22.3905  -12.0512 H   0  0  0  0  0  0  0  0  0  0  0  0
   20.3910   21.5060  -13.3528 H   0  0  0  0  0  0  0  0  0  0  0  0
   18.7936   22.0328  -13.3528 H   0  0  0  0  0  0  0  0  0  0  0  0
  6  1  1  0
  2  3  1  0
  2 10  1  0
  3  4  1  0
  3 11  1  0
  4  5  1  0
  4 12  1  0
  5 13  1  0
  6  7  1  0
  6 10  1  0
  7  8  2  0
  7  9  1  0
 13 14  1  0
 14 15  2  0
 14 16  2  0
 14 17  1  1
  1 18  1  0
  1 19  1  0
  1 20  1  0
  2 21  1  0
  2 22  1  0
  3 23  1  1
  4 24  1  1
  5 25  1  0
  5 26  1  0
  6 27  1  6
 10 28  1  0
 10 29  1  0
 11 30  1  0
 12 31  1  0
 12 32  1  0
 12 33  1  0
M  CHG  4   1   1   9  -1  12   1  17  -1
M  END
>  <filename_input>  (22) 
7WUX_6OI_docked.sdf

>  <pdb_id>  (22) 
7WUX_6OI

>  <pose_rank>  (22) 
21

>  <num_atoms_heavy>  (22) 
17

>  <num_torsions>  (22) 
8

>  <pose>  (22) 
[20.02030315216212, 19.24345686816976, -12.567394938999742, 2.1159326515789583, -2.218259173208823, -0.25124175487143235, 0.15100485536813005, 1.7950559970275513, 2.709457405028515, 0.2508045040429508, 2.5936080114443714, 0.08405345209040449, -2.721616592954886, -3.5066896158877663]

>  <energy>  (22) 
-385.92908587934875

>  <inter_energy>  (22) 
-412.9872093244429

>  <intra_energy>  (22) 
24.276239756712354

>  <rmsd>  (22) 
7.23758

>  <sdf_rank>  (22) 
0

$$$$

     RDKit          3D

 33 32  0  0  0  0  0  0  0  0999 V2000
   25.3763   19.5311  -13.0277 N   0  0  0  0  0  0  0  0  0  0  0  0
   22.7769   19.8754  -12.2568 C   0  0  0  0  0  0  0  0  0  0  0  0
   21.4137   20.2212  -11.6617 C   0  0  1  0  0  0  0  0  0  0  0  0
   20.2322   20.0763  -12.6339 C   0  0  2  0  0  0  0  0  0  0  0  0
   18.8683   20.1955  -11.9703 C   0  0  0  0  0  0  0  0  0  0  0  0
   25.0133   18.6229  -11.9032 C   0  0  2  0  0  0  0  0  0  0  0  0
   25.3851   17.1817  -12.2755 C   0  0  0  0  0  0  0  0  0  0  0  0
   26.4467   17.0093  -12.9124 O   0  0  0  0  0  0  0  0  0  0  0  0
   24.6118   16.2804  -11.8988 O   0  0  0  0  0  0  0  0  0  0  0  0
   23.5268   18.7576  -11.5436 C   0  0  0  0  0  0  0  0  0  0  0  0
   21.1908   19.3801  -10.5358 O   0  0  0  0  0  0  0  0  0  0  0  0
   20.3011   18.7614  -13.3467 N   0  0  0  0  0  0  0  0  0  0  0  0
   17.8125   20.4268  -12.9638 O   0  0  0  0  0  0  0  0  0  0  0  0
   16.2828   20.4879  -12.4568 S   0  0  1  0  0  0  0  0  0  0  0  0
   15.5288   20.1873  -13.6605 O   0  0  0  0  0  0  0  0  0  0  0  0
   16.1259   19.4895  -11.4209 O   0  0  0  0  0  0  0  0  0  0  0  0
   16.0794   21.8337  -11.9737 O   0  0  0  0  0  0  0  0  0  0  0  0
   25.7320   20.4207  -12.6495 H   0  0  0  0  0  0  0  0  0  0  0  0
   26.1049   19.0879  -13.6054 H   0  0  0  0  0  0  0  0  0  0  0  0
   24.5431   19.7123  -13.6054 H   0  0  0  0  0  0  0  0  0  0  0  0
   22.6251   19.5710  -13.3029 H   0  0  0  0  0  0  0  0  0  0  0  0
   23.3966   20.7779  -12.1497 H   0  0  0  0  0  0  0  0  0  0  0  0
   21.4520   21.2869  -11.3917 H   0  0  0  0  0  0  0  0  0  0  0  0
   20.3293   20.9152  -13.3386 H   0  0  0  0  0  0  0  0  0  0  0  0
   18.6514   19.2642  -11.4265 H   0  0  0  0  0  0  0  0  0  0  0  0
   18.8906   21.0517  -11.2802 H   0  0  0  0  0  0  0  0  0  0  0  0
   25.5809   18.9082  -11.0052 H   0  0  0  0  0  0  0  0  0  0  0  0
   23.4553   18.9389  -10.4610 H   0  0  0  0  0  0  0  0  0  0  0  0
   23.0517   17.8204  -11.8691 H   0  0  0  0  0  0  0  0  0  0  0  0
   21.3283   19.8990   -9.7039 H   0  0  0  0  0  0  0  0  0  0  0  0
   20.3411   17.9982  -12.6562 H   0  0  0  0  0  0  0  0  0  0  0  0
   19.4650   18.6467  -13.9371 H   0  0  0  0  0  0  0  0  0  0  0  0
   21.1447   18.7347  -13.9371 H   0  0  0  0  0  0  0  0  0  0  0  0
  6  1  1  0
  2  3  1  0
  2 10  1  0
  3  4  1  0
  3 11  1  0
  4  5  1  0
  4 12  1  0
  5 13  1  0
  6  7  1  0
  6 10  1  0
  7  8  2  0
  7  9  1  0
 13 14  1  0
 14 15  2  0
 14 16  2  0
 14 17  1  1
  1 18  1  0
  1 19  1  0
  1 20  1  0
  2 21  1  0
  2 22  1  0
  3 23  1  1
  4 24  1  6
  5 25  1  0
  5 26  1  0
  6 27  1  1
 10 28  1  0
 10 29  1  0
 11 30  1  0
 12 31  1  0
 12 32  1  0
 12 33  1  0
M  CHG  4   1   1   9  -1  12   1  17  -1
M  END
>  <filename_input>  (23) 
7WUX_6OI_docked.sdf

>  <pdb_id>  (23) 
7WUX_6OI

>  <pose_rank>  (23) 
22

>  <num_atoms_heavy>  (23) 
17

>  <num_torsions>  (23) 
8

>  <pose>  (23) 
[21.41373989388559, 20.22122009984961, -11.661663730378583, 0.388874333476055, -0.6756093846703582, 1.0339108846799079, 18.639989044019384, -23.262177967330377, 8.195645030174491, -0.9420843497683682, 1.1995657406912128, 0.08597910851241693, -1.2140050681118126, 0.5266569113698065]

>  <energy>  (23) 
-330.23584675623954

>  <inter_energy>  (23) 
-327.8370059882195

>  <intra_energy>  (23) 
0.0006283731642135505

>  <rmsd>  (23) 
5.43202

>  <sdf_rank>  (23) 
0

$$$$

     RDKit          3D

 33 32  0  0  0  0  0  0  0  0999 V2000
   24.8172   22.0231  -12.2782 N   0  0  0  0  0  0  0  0  0  0  0  0
   24.9097   18.9337  -11.6927 C   0  0  0  0  0  0  0  0  0  0  0  0
   24.3003   17.5716  -11.3681 C   0  0  1  0  0  0  0  0  0  0  0  0
   24.7785   16.4220  -12.2691 C   0  0  2  0  0  0  0  0  0  0  0  0
   23.7205   15.9159  -13.2382 C   0  0  0  0  0  0  0  0  0  0  0  0
   23.7156   21.0593  -12.5590 C   0  0  2  0  0  0  0  0  0  0  0  0
   22.7438   21.0405  -11.3718 C   0  0  0  0  0  0  0  0  0  0  0  0
   23.2241   21.2336  -10.2341 O   0  0  0  0  0  0  0  0  0  0  0  0
   21.5388   20.8537  -11.6274 O   0  0  0  0  0  0  0  0  0  0  0  0
   24.2710   19.6619  -12.8684 C   0  0  0  0  0  0  0  0  0  0  0  0
   24.6067   17.2555  -10.0150 O   0  0  0  0  0  0  0  0  0  0  0  0
   25.2524   15.2701  -11.4382 N   0  0  0  0  0  0  0  0  0  0  0  0
   23.7546   16.6646  -14.5006 O   0  0  0  0  0  0  0  0  0  0  0  0
   22.4606   16.6071  -15.4613 S   0  0  1  0  0  0  0  0  0  0  0  0
   21.4147   17.1792  -14.6327 O   0  0  0  0  0  0  0  0  0  0  0  0
   22.7541   17.3983  -16.6371 O   0  0  0  0  0  0  0  0  0  0  0  0
   22.2534   15.2099  -15.7630 O   0  0  0  0  0  0  0  0  0  0  0  0
   24.9332   22.1246  -11.2598 H   0  0  0  0  0  0  0  0  0  0  0  0
   25.6936   21.6724  -12.6903 H   0  0  0  0  0  0  0  0  0  0  0  0
   24.5861   22.9383  -12.6903 H   0  0  0  0  0  0  0  0  0  0  0  0
   24.8120   19.5721  -10.8023 H   0  0  0  0  0  0  0  0  0  0  0  0
   25.9539   18.7421  -11.9807 H   0  0  0  0  0  0  0  0  0  0  0  0
   23.2186   17.6630  -11.5458 H   0  0  0  0  0  0  0  0  0  0  0  0
   25.5990   16.8429  -12.8687 H   0  0  0  0  0  0  0  0  0  0  0  0
   23.9050   14.8518  -13.4472 H   0  0  0  0  0  0  0  0  0  0  0  0
   22.7313   16.0551  -12.7775 H   0  0  0  0  0  0  0  0  0  0  0  0
   23.1653   21.3841  -13.4544 H   0  0  0  0  0  0  0  0  0  0  0  0
   25.0320   19.7666  -13.6558 H   0  0  0  0  0  0  0  0  0  0  0  0
   23.4050   19.0524  -13.1661 H   0  0  0  0  0  0  0  0  0  0  0  0
   24.0600   17.8195   -9.4124 H   0  0  0  0  0  0  0  0  0  0  0  0
   25.1561   15.5044  -10.4399 H   0  0  0  0  0  0  0  0  0  0  0  0
   24.6859   14.4368  -11.6516 H   0  0  0  0  0  0  0  0  0  0  0  0
   26.2414   15.0768  -11.6516 H   0  0  0  0  0  0  0  0  0  0  0  0
  6  1  1  0
  2  3  1  0
  2 10  1  0
  3  4  1  0
  3 11  1  0
  4  5  1  0
  4 12  1  0
  5 13  1  0
  6  7  1  0
  6 10  1  0
  7  8  2  0
  7  9  1  0
 13 14  1  0
 14 15  2  0
 14 16  2  0
 14 17  1  6
  1 18  1  0
  1 19  1  0
  1 20  1  0
  2 21  1  0
  2 22  1  0
  3 23  1  1
  4 24  1  6
  5 25  1  0
  5 26  1  0
  6 27  1  6
 10 28  1  0
 10 29  1  0
 11 30  1  0
 12 31  1  0
 12 32  1  0
 12 33  1  0
M  CHG  4   1   1   9  -1  12   1  17  -1
M  END
>  <filename_input>  (24) 
7WUX_6OI_docked.sdf

>  <pdb_id>  (24) 
7WUX_6OI

>  <pose_rank>  (24) 
23

>  <num_atoms_heavy>  (24) 
17

>  <num_torsions>  (24) 
8

>  <pose>  (24) 
[24.30027601859814, 17.571610765413052, -11.368067011655283, -1.6166199939483723, 1.7128425843385864, -9.568969778489121, 20.050678483164, -24.57460604987386, 8.586139517042382, -3.398007691890165, 4.715838109011905, -1.1588695268588458, 0.11622772380360191, -0.7077919547957985]

>  <energy>  (24) 
-444.2634668664501

>  <inter_energy>  (24) 
-455.58056809702737

>  <intra_energy>  (24) 
5.391188308653249

>  <rmsd>  (24) 
5.66119

>  <sdf_rank>  (24) 
0

$$$$

     RDKit          3D

 33 32  0  0  0  0  0  0  0  0999 V2000
   25.0845   18.8163  -13.1990 N   0  0  0  0  0  0  0  0  0  0  0  0
   23.1608   20.3217  -11.9029 C   0  0  0  0  0  0  0  0  0  0  0  0
   21.9639   21.1287  -11.4043 C   0  0  1  0  0  0  0  0  0  0  0  0
   20.9420   21.5008  -12.4903 C   0  0  2  0  0  0  0  0  0  0  0  0
   19.6841   20.6451  -12.4737 C   0  0  0  0  0  0  0  0  0  0  0  0
   23.9073   18.0045  -12.7792 C   0  0  2  0  0  0  0  0  0  0  0  0
   23.1700   17.4987  -14.0261 C   0  0  0  0  0  0  0  0  0  0  0  0
   23.6550   16.5104  -14.6180 O   0  0  0  0  0  0  0  0  0  0  0  0
   22.1263   18.0969  -14.3503 O   0  0  0  0  0  0  0  0  0  0  0  0
   22.9841   18.8095  -11.8535 C   0  0  0  0  0  0  0  0  0  0  0  0
   21.3073   20.3754  -10.3914 O   0  0  0  0  0  0  0  0  0  0  0  0
   21.5651   21.4043  -13.8483 N   0  0  0  0  0  0  0  0  0  0  0  0
   18.5048   21.4411  -12.1116 O   0  0  0  0  0  0  0  0  0  0  0  0
   17.0748   20.7000  -12.0317 S   0  0  1  0  0  0  0  0  0  0  0  0
   16.1358   21.7752  -12.2961 O   0  0  0  0  0  0  0  0  0  0  0  0
   17.0606   19.6676  -13.0459 O   0  0  0  0  0  0  0  0  0  0  0  0
   16.9778   20.1705  -10.6914 O   0  0  0  0  0  0  0  0  0  0  0  0
   25.5809   19.1586  -12.3639 H   0  0  0  0  0  0  0  0  0  0  0  0
   25.7206   18.2333  -13.7616 H   0  0  0  0  0  0  0  0  0  0  0  0
   24.7657   19.6180  -13.7616 H   0  0  0  0  0  0  0  0  0  0  0  0
   23.3545   20.6086  -12.9470 H   0  0  0  0  0  0  0  0  0  0  0  0
   23.9935   20.5560  -11.2234 H   0  0  0  0  0  0  0  0  0  0  0  0
   22.3644   22.0819  -11.0289 H   0  0  0  0  0  0  0  0  0  0  0  0
   20.6396   22.5341  -12.2649 H   0  0  0  0  0  0  0  0  0  0  0  0
   19.5316   20.2122  -13.4733 H   0  0  0  0  0  0  0  0  0  0  0  0
   19.8126   19.8518  -11.7227 H   0  0  0  0  0  0  0  0  0  0  0  0
   24.2509   17.1342  -12.2008 H   0  0  0  0  0  0  0  0  0  0  0  0
   23.1697   18.4803  -10.8205 H   0  0  0  0  0  0  0  0  0  0  0  0
   21.9602   18.6140  -12.2047 H   0  0  0  0  0  0  0  0  0  0  0  0
   21.5916   20.7015   -9.5009 H   0  0  0  0  0  0  0  0  0  0  0  0
   22.5784   21.2475  -13.7508 H   0  0  0  0  0  0  0  0  0  0  0  0
   21.1441   20.6185  -14.3642 H   0  0  0  0  0  0  0  0  0  0  0  0
   21.4014   22.2807  -14.3642 H   0  0  0  0  0  0  0  0  0  0  0  0
  6  1  1  0
  2  3  1  0
  2 10  1  0
  3  4  1  0
  3 11  1  0
  4  5  1  0
  4 12  1  0
  5 13  1  0
  6  7  1  0
  6 10  1  0
  7  8  2  0
  7  9  1  0
 13 14  1  0
 14 15  2  0
 14 16  2  0
 14 17  1  1
  1 18  1  0
  1 19  1  0
  1 20  1  0
  2 21  1  0
  2 22  1  0
  3 23  1  1
  4 24  1  1
  5 25  1  0
  5 26  1  0
  6 27  1  1
 10 28  1  0
 10 29  1  0
 11 30  1  0
 12 31  1  0
 12 32  1  0
 12 33  1  0
M  CHG  4   1   1   9  -1  12   1  17  -1
M  END
>  <filename_input>  (25) 
7WUX_6OI_docked.sdf

>  <pdb_id>  (25) 
7WUX_6OI

>  <pose_rank>  (25) 
24

>  <num_atoms_heavy>  (25) 
17

>  <num_torsions>  (25) 
8

>  <pose>  (25) 
[21.963948572759257, 21.128666017639947, -11.404305828278682, 0.2560660074040946, -0.8542064023328308, 0.6635591755402922, 17.46331939758503, -24.138699370806645, 8.26882755661225, -0.8681145479836945, 1.7359209570862297, -0.5278626254993977, -0.7580505776642812, 1.2376500681692957]

>  <energy>  (25) 
-345.0307648396481

>  <inter_energy>  (25) 
-338.96972872497685

>  <intra_energy>  (25) 
1.419489652397418

>  <rmsd>  (25) 
5.22081

>  <sdf_rank>  (25) 
0

$$$$

     RDKit          3D

 33 32  0  0  0  0  0  0  0  0999 V2000
   24.7470   14.9760  -14.0860 N   0  0  0  0  0  0  0  0  0  0  0  0
   23.7410   16.7960  -11.8130 C   0  0  0  0  0  0  0  0  0  0  0  0
   23.9090   18.1530  -11.1330 C   0  0  1  0  0  0  0  0  0  0  0  0
   22.7570   19.1410  -11.3760 C   0  0  2  0  0  0  0  0  0  0  0  0
   22.9680   20.5050  -10.7360 C   0  0  0  0  0  0  0  0  0  0  0  0
   24.8950   14.6340  -12.6430 C   0  0  2  0  0  0  0  0  0  0  0  0
   23.7370   13.7220  -12.2170 C   0  0  0  0  0  0  0  0  0  0  0  0
   22.9820   13.2950  -13.1170 O   0  0  0  0  0  0  0  0  0  0  0  0
   23.6420   13.4540  -11.0040 O   0  0  0  0  0  0  0  0  0  0  0  0
   24.9740   15.9020  -11.7810 C   0  0  0  0  0  0  0  0  0  0  0  0
   24.0450   17.9380   -9.7330 O   0  0  0  0  0  0  0  0  0  0  0  0
   21.4670   18.5730  -10.8710 N   0  0  0  0  0  0  0  0  0  0  0  0
   24.2180   21.1210  -11.1980 O   0  0  0  0  0  0  0  0  0  0  0  0
   24.3320   21.5550  -12.7470 S   0  0  1  0  0  0  0  0  0  0  0  0
   25.1720   20.5160  -13.3150 O   0  0  0  0  0  0  0  0  0  0  0  0
   22.9930   21.5700  -13.2960 O   0  0  0  0  0  0  0  0  0  0  0  0
   24.9530   22.8590  -12.7480 O   0  0  0  0  0  0  0  0  0  0  0  0
   24.3395   15.9177  -14.1756 H   0  0  0  0  0  0  0  0  0  0  0  0
   25.6714   14.9573  -14.5398 H   0  0  0  0  0  0  0  0  0  0  0  0
   24.1278   14.2893  -14.5398 H   0  0  0  0  0  0  0  0  0  0  0  0
   22.9199   16.2626  -11.3118 H   0  0  0  0  0  0  0  0  0  0  0  0
   23.5420   17.0068  -12.8741 H   0  0  0  0  0  0  0  0  0  0  0  0
   24.8018   18.6168  -11.5777 H   0  0  0  0  0  0  0  0  0  0  0  0
   22.7253   19.2904  -12.4653 H   0  0  0  0  0  0  0  0  0  0  0  0
   22.1254   21.1603  -11.0020 H   0  0  0  0  0  0  0  0  0  0  0  0
   23.0274   20.3725   -9.6456 H   0  0  0  0  0  0  0  0  0  0  0  0
   25.8397   14.0914  -12.4910 H   0  0  0  0  0  0  0  0  0  0  0  0
   25.8319   16.4957  -12.1297 H   0  0  0  0  0  0  0  0  0  0  0  0
   25.0676   15.5545  -10.7415 H   0  0  0  0  0  0  0  0  0  0  0  0
   23.5856   18.6642   -9.2414 H   0  0  0  0  0  0  0  0  0  0  0  0
   21.4710   18.5747   -9.8410 H   0  0  0  0  0  0  0  0  0  0  0  0
   20.6824   19.1464  -11.2123 H   0  0  0  0  0  0  0  0  0  0  0  0
   21.3602   17.6071  -11.2123 H   0  0  0  0  0  0  0  0  0  0  0  0
  6  1  1  0
  2  3  1  0
  2 10  1  0
  3  4  1  0
  3 11  1  0
  4  5  1  0
  4 12  1  0
  5 13  1  0
  6  7  1  0
  6 10  1  0
  7  8  2  0
  7  9  1  0
 13 14  1  0
 14 15  2  0
 14 16  2  0
 14 17  1  1
  1 18  1  0
  1 19  1  0
  1 20  1  0
  2 21  1  0
  2 22  1  0
  3 23  1  6
  4 24  1  6
  5 25  1  0
  5 26  1  0
  6 27  1  6
 10 28  1  0
 10 29  1  0
 11 30  1  0
 12 31  1  0
 12 32  1  0
 12 33  1  0
M  CHG  4   1   1   9  -1  12   1  17  -1
M  END
>  <filename_input>  (26) 
7WUX_6OI_docked.sdf

>  <pdb_id>  (26) 
7WUX_6OI

>  <pose_rank>  (26) 
25

>  <num_atoms_heavy>  (26) 
17

>  <num_torsions>  (26) 
8

>  <pose>  (26) 
[23.909, 18.153, -11.133, 1e-06, 1e-06, 1e-06, 0.0, 0.0, 0.0, 0.0, 0.0, 0.0, 0.0, 0.0]

>  <energy>  (26) 
-577.1843456696132

>  <inter_energy>  (26) 
-588.0316233088514

>  <intra_energy>  (26) 
10.450376194023395

>  <rmsd>  (26) 
0.0

>  <sdf_rank>  (26) 
0

$$$$
