
     RDKit          3D

 59 63  0  0  0  0  0  0  0  0999 V2000
   16.5764  153.2216   27.5747 C   0  0  2  0  0  0  0  0  0  0  0  0
   15.8854  151.9123   27.3878 C   0  0  1  0  0  0  0  0  0  0  0  0
   14.3974  151.8445   27.0226 C   0  0  1  0  0  0  0  0  0  0  0  0
   13.6080  153.1875   26.8587 C   0  0  0  0  0  0  0  0  0  0  0  0
   14.5195  154.3765   26.5103 C   0  0  0  0  0  0  0  0  0  0  0  0
   15.7144  154.4954   27.4907 C   0  0  2  0  0  0  0  0  0  0  0  0
   14.2433  149.6522   25.7698 C   0  0  0  0  0  0  0  0  0  0  0  0
   14.1268  148.9035   24.5550 C   0  0  0  0  0  0  0  0  0  0  0  0
   13.9551  149.5628   23.2715 C   0  0  0  0  0  0  0  0  0  0  0  0
   14.1276  151.6836   24.5094 C   0  0  0  0  0  0  0  0  0  0  0  0
   14.2502  151.0793   25.7308 C   0  0  0  0  0  0  0  0  0  0  0  0
   13.8563  147.5103   24.6636 C   0  0  0  0  0  0  0  0  0  0  0  0
   11.3448  143.3643   25.8880 C   0  0  0  0  0  0  0  0  0  0  0  0
   11.4995  143.2339   27.4103 C   0  0  0  0  0  0  0  0  0  0  0  0
   12.8547  143.8246   27.7860 C   0  0  0  0  0  0  0  0  0  0  0  0
   12.7578  145.3412   27.6085 C   0  0  0  0  0  0  0  0  0  0  0  0
   12.7372  145.5343   26.0747 C   0  0  1  0  0  0  0  0  0  0  0  0
   11.4494  144.8329   25.4552 C   0  0  2  0  0  0  0  0  0  0  0  0
   12.7947  147.0403   25.7036 C   0  0  2  0  0  0  0  0  0  0  0  0
   11.3446  147.3825   25.1406 C   0  0  1  0  0  0  0  0  0  0  0  0
   10.2093  145.4274   25.9571 C   0  0  0  0  0  0  0  0  0  0  0  0
   10.3008  146.7399   26.0235 C   0  0  0  0  0  0  0  0  0  0  0  0
   10.9606  148.9023   25.0215 C   0  0  0  0  0  0  0  0  0  0  0  0
   13.9922  150.9592   23.3500 N   0  0  0  0  0  0  0  0  0  0  0  0
   13.8494  149.0080   22.1405 O   0  0  0  0  0  0  0  0  0  0  0  0
   14.3861  149.0606   26.9276 O   0  0  0  0  0  0  0  0  0  0  0  0
   14.0331  146.6868   23.7013 O   0  0  0  0  0  0  0  0  0  0  0  0
   16.6960  152.4569   26.2713 O   0  0  0  0  0  0  0  0  0  0  0  0
   16.5531  155.5548   26.8860 O   0  0  0  0  0  0  0  0  0  0  0  0
   13.7572  151.1775   28.1222 O   0  0  0  0  0  0  0  0  0  0  0  0
   17.2641  153.6259   28.3322 H   0  0  0  0  0  0  0  0  0  0  0  0
   15.8561  151.0204   28.0310 H   0  0  0  0  0  0  0  0  0  0  0  0
   12.8681  153.0643   26.0541 H   0  0  0  0  0  0  0  0  0  0  0  0
   13.1287  153.4096   27.8236 H   0  0  0  0  0  0  0  0  0  0  0  0
   14.9084  154.2396   25.4905 H   0  0  0  0  0  0  0  0  0  0  0  0
   13.9228  155.2975   26.5867 H   0  0  0  0  0  0  0  0  0  0  0  0
   15.3474  154.6895   28.5093 H   0  0  0  0  0  0  0  0  0  0  0  0
   14.1379  152.7822   24.4541 H   0  0  0  0  0  0  0  0  0  0  0  0
   12.1384  142.7849   25.3936 H   0  0  0  0  0  0  0  0  0  0  0  0
   10.3551  142.9805   25.5993 H   0  0  0  0  0  0  0  0  0  0  0  0
   10.6952  143.7864   27.9181 H   0  0  0  0  0  0  0  0  0  0  0  0
   11.4383  142.1793   27.7169 H   0  0  0  0  0  0  0  0  0  0  0  0
   13.0931  143.5830   28.8323 H   0  0  0  0  0  0  0  0  0  0  0  0
   13.6495  143.4090   27.1492 H   0  0  0  0  0  0  0  0  0  0  0  0
   11.8357  145.7307   28.0646 H   0  0  0  0  0  0  0  0  0  0  0  0
   13.5858  145.8793   28.0931 H   0  0  0  0  0  0  0  0  0  0  0  0
   13.6309  145.0574   25.6460 H   0  0  0  0  0  0  0  0  0  0  0  0
   11.5634  144.9511   24.3675 H   0  0  0  0  0  0  0  0  0  0  0  0
   13.1057  147.5701   26.6160 H   0  0  0  0  0  0  0  0  0  0  0  0
   11.3742  146.9932   24.1122 H   0  0  0  0  0  0  0  0  0  0  0  0
    9.3160  144.8521   26.2420 H   0  0  0  0  0  0  0  0  0  0  0  0
    9.6534  147.3346   26.6848 H   0  0  0  0  0  0  0  0  0  0  0  0
   10.8518  149.3329   26.0279 H   0  0  0  0  0  0  0  0  0  0  0  0
   11.7514  149.4387   24.4767 H   0  0  0  0  0  0  0  0  0  0  0  0
   10.0099  148.9987   24.4767 H   0  0  0  0  0  0  0  0  0  0  0  0
   13.9115  151.4859   22.4685 H   0  0  0  0  0  0  0  0  0  0  0  0
   14.4644  149.6011   27.7533 H   0  0  0  0  0  0  0  0  0  0  0  0
   16.9767  156.0899   27.6032 H   0  0  0  0  0  0  0  0  0  0  0  0
   14.1049  151.5398   28.9755 H   0  0  0  0  0  0  0  0  0  0  0  0
  1  2  1  0
  1  6  1  0
  1 28  1  0
  2  3  1  0
  2 28  1  0
  3  4  1  0
  3 11  1  0
  3 30  1  1
  4  5  1  0
  5  6  1  0
  6 29  1  0
  7  8  2  0
  7 11  1  0
  7 26  1  0
  8  9  1  0
  8 12  1  0
  9 24  1  0
  9 25  2  0
 10 11  2  0
 10 24  1  0
 19 12  1  0
 12 27  2  0
 13 14  1  0
 18 13  1  0
 14 15  1  0
 15 16  1  0
 17 16  1  0
 17 18  1  0
 17 19  1  0
 18 21  1  0
 19 20  1  0
 20 22  1  0
 20 23  1  0
 21 22  2  0
  1 31  1  1
  2 32  1  1
  4 33  1  0
  4 34  1  0
  5 35  1  0
  5 36  1  0
  6 37  1  1
 10 38  1  0
 13 39  1  0
 13 40  1  0
 14 41  1  0
 14 42  1  0
 15 43  1  0
 15 44  1  0
 16 45  1  0
 16 46  1  0
 17 47  1  6
 18 48  1  6
 19 49  1  1
 20 50  1  6
 21 51  1  0
 22 52  1  0
 23 53  1  0
 23 54  1  0
 23 55  1  0
 24 56  1  0
 26 57  1  0
 29 58  1  0
 30 59  1  0
M  END
>  <filename_input>  (1) 
7WUY_76N_docked.sdf

>  <pdb_id>  (1) 
7WUY_76N

>  <pose_rank>  (1) 
0

>  <num_atoms_heavy>  (1) 
30

>  <num_torsions>  (1) 
3

>  <pose>  (1) 
[14.243276584912518, 149.65221953980483, 25.769826029134816, 1.385208800580327, -5.2256476090021575, -2.9722151173346174, 6.213820607292069, 0.012515188295394851, -6.103705911541274]

>  <energy>  (1) 
-953.0824346171958

>  <inter_energy>  (1) 
-1022.1671373088476

>  <intra_energy>  (1) 
81.65189107167527

>  <rmsd>  (1) 
0.653826

>  <sdf_rank>  (1) 
0

$$$$

     RDKit          3D

 59 63  0  0  0  0  0  0  0  0999 V2000
   16.6551  153.6261   27.5705 C   0  0  2  0  0  0  0  0  0  0  0  0
   16.0021  152.2857   27.5069 C   0  0  1  0  0  0  0  0  0  0  0  0
   14.5597  152.1276   27.0106 C   0  0  1  0  0  0  0  0  0  0  0  0
   13.7749  153.4125   26.5782 C   0  0  0  0  0  0  0  0  0  0  0  0
   14.7028  154.5636   26.1537 C   0  0  0  0  0  0  0  0  0  0  0  0
   15.7908  154.8518   27.2196 C   0  0  2  0  0  0  0  0  0  0  0  0
   13.7109  150.0312   25.8774 C   0  0  0  0  0  0  0  0  0  0  0  0
   13.7034  149.1085   24.7827 C   0  0  0  0  0  0  0  0  0  0  0  0
   14.4957  149.3435   23.5875 C   0  0  0  0  0  0  0  0  0  0  0  0
   15.3226  151.3680   24.7180 C   0  0  0  0  0  0  0  0  0  0  0  0
   14.5531  151.1832   25.8342 C   0  0  0  0  0  0  0  0  0  0  0  0
   12.6661  148.1344   24.7498 C   0  0  0  0  0  0  0  0  0  0  0  0
   10.6150  144.2023   27.0581 C   0  0  0  0  0  0  0  0  0  0  0  0
   10.8240  143.0192   26.1017 C   0  0  0  0  0  0  0  0  0  0  0  0
   10.7981  143.5690   24.6792 C   0  0  0  0  0  0  0  0  0  0  0  0
   12.0857  144.3699   24.4748 C   0  0  0  0  0  0  0  0  0  0  0  0
   11.8652  145.6474   25.3171 C   0  0  1  0  0  0  0  0  0  0  0  0
   11.7033  145.2648   26.8538 C   0  0  2  0  0  0  0  0  0  0  0  0
   13.0229  146.6593   25.1050 C   0  0  2  0  0  0  0  0  0  0  0  0
   13.8369  146.6482   26.4739 C   0  0  1  0  0  0  0  0  0  0  0  0
   12.9085  144.6280   27.3878 C   0  0  0  0  0  0  0  0  0  0  0  0
   13.9986  145.2231   26.9482 C   0  0  0  0  0  0  0  0  0  0  0  0
   15.2745  147.2844   26.4599 C   0  0  0  0  0  0  0  0  0  0  0  0
   15.2926  150.4911   23.6608 N   0  0  0  0  0  0  0  0  0  0  0  0
   14.5725  148.5994   22.5685 O   0  0  0  0  0  0  0  0  0  0  0  0
   12.9894  149.8277   26.9493 O   0  0  0  0  0  0  0  0  0  0  0  0
   11.4320  148.4212   24.9243 O   0  0  0  0  0  0  0  0  0  0  0  0
   16.9151  152.6875   26.4089 O   0  0  0  0  0  0  0  0  0  0  0  0
   16.6737  155.8364   26.5543 O   0  0  0  0  0  0  0  0  0  0  0  0
   13.8196  151.6069   28.1263 O   0  0  0  0  0  0  0  0  0  0  0  0
   17.2576  154.1518   28.3259 H   0  0  0  0  0  0  0  0  0  0  0  0
   15.9186  151.4937   28.2657 H   0  0  0  0  0  0  0  0  0  0  0  0
   13.1218  153.1569   25.7308 H   0  0  0  0  0  0  0  0  0  0  0  0
   13.1978  153.7566   27.4492 H   0  0  0  0  0  0  0  0  0  0  0  0
   15.1945  154.2935   25.2075 H   0  0  0  0  0  0  0  0  0  0  0  0
   14.0905  155.4700   26.0377 H   0  0  0  0  0  0  0  0  0  0  0  0
   15.3203  155.1789   28.1586 H   0  0  0  0  0  0  0  0  0  0  0  0
   15.9849  152.2446   24.6656 H   0  0  0  0  0  0  0  0  0  0  0  0
    9.6301  144.6527   26.8653 H   0  0  0  0  0  0  0  0  0  0  0  0
   10.6706  143.8341   28.0931 H   0  0  0  0  0  0  0  0  0  0  0  0
   11.7943  142.5413   26.3020 H   0  0  0  0  0  0  0  0  0  0  0  0
   10.0349  142.2654   26.2399 H   0  0  0  0  0  0  0  0  0  0  0  0
   10.7518  142.7408   23.9568 H   0  0  0  0  0  0  0  0  0  0  0  0
    9.9153  144.2070   24.5254 H   0  0  0  0  0  0  0  0  0  0  0  0
   12.9585  143.8074   24.8377 H   0  0  0  0  0  0  0  0  0  0  0  0
   12.2859  144.5889   23.4156 H   0  0  0  0  0  0  0  0  0  0  0  0
   10.9382  146.1361   24.9826 H   0  0  0  0  0  0  0  0  0  0  0  0
   11.4718  146.2161   27.3552 H   0  0  0  0  0  0  0  0  0  0  0  0
   13.5642  146.3236   24.2082 H   0  0  0  0  0  0  0  0  0  0  0  0
   13.2283  147.2825   27.1352 H   0  0  0  0  0  0  0  0  0  0  0  0
   12.9045  143.7639   28.0685 H   0  0  0  0  0  0  0  0  0  0  0  0
   14.9719  144.7109   26.9277 H   0  0  0  0  0  0  0  0  0  0  0  0
   15.6182  147.4365   27.4937 H   0  0  0  0  0  0  0  0  0  0  0  0
   15.9690  146.6096   25.9381 H   0  0  0  0  0  0  0  0  0  0  0  0
   15.2421  148.2522   25.9381 H   0  0  0  0  0  0  0  0  0  0  0  0
   15.9055  150.6948   22.8585 H   0  0  0  0  0  0  0  0  0  0  0  0
   13.0121  150.4811   27.6927 H   0  0  0  0  0  0  0  0  0  0  0  0
   17.1505  156.3682   27.2398 H   0  0  0  0  0  0  0  0  0  0  0  0
   14.2424  151.9044   28.9706 H   0  0  0  0  0  0  0  0  0  0  0  0
  1  2  1  0
  1  6  1  0
  1 28  1  0
  2  3  1  0
  2 28  1  0
  3  4  1  0
  3 11  1  0
  3 30  1  1
  4  5  1  0
  5  6  1  0
  6 29  1  0
  7  8  2  0
  7 11  1  0
  7 26  1  0
  8  9  1  0
  8 12  1  0
  9 24  1  0
  9 25  2  0
 10 11  2  0
 10 24  1  0
 19 12  1  0
 12 27  2  0
 13 14  1  0
 18 13  1  0
 14 15  1  0
 15 16  1  0
 17 16  1  0
 17 18  1  0
 17 19  1  0
 18 21  1  0
 19 20  1  0
 20 22  1  0
 20 23  1  0
 21 22  2  0
  1 31  1  1
  2 32  1  1
  4 33  1  0
  4 34  1  0
  5 35  1  0
  5 36  1  0
  6 37  1  1
 10 38  1  0
 13 39  1  0
 13 40  1  0
 14 41  1  0
 14 42  1  0
 15 43  1  0
 15 44  1  0
 16 45  1  0
 16 46  1  0
 17 47  1  6
 18 48  1  1
 19 49  1  6
 20 50  1  1
 21 51  1  0
 22 52  1  0
 23 53  1  0
 23 54  1  0
 23 55  1  0
 24 56  1  0
 26 57  1  0
 29 58  1  0
 30 59  1  0
M  END
>  <filename_input>  (2) 
7WUY_76N_docked.sdf

>  <pdb_id>  (2) 
7WUY_76N

>  <pose_rank>  (2) 
1

>  <num_atoms_heavy>  (2) 
30

>  <num_torsions>  (2) 
3

>  <pose>  (2) 
[13.71086837770547, 150.0312140614825, 25.87744806390936, 1.4221500146747685, 3.217584606868401, 4.316021590052586, 32.09057343398424, 60.24933663265802, -63.09407390315207]

>  <energy>  (2) 
-868.6461388974324

>  <inter_energy>  (2) 
-974.5039149280901

>  <intra_energy>  (2) 
112.39615838408494

>  <rmsd>  (2) 
1.93398

>  <sdf_rank>  (2) 
0

$$$$

     RDKit          3D

 59 63  0  0  0  0  0  0  0  0999 V2000
   12.3567  144.5837   27.2420 C   0  0  2  0  0  0  0  0  0  0  0  0
   13.1573  145.7229   26.7052 C   0  0  1  0  0  0  0  0  0  0  0  0
   13.1155  146.0916   25.2171 C   0  0  1  0  0  0  0  0  0  0  0  0
   12.2168  145.2351   24.2619 C   0  0  0  0  0  0  0  0  0  0  0  0
   11.0666  144.5286   24.9992 C   0  0  0  0  0  0  0  0  0  0  0  0
   11.5720  143.7301   26.2281 C   0  0  2  0  0  0  0  0  0  0  0  0
   13.5992  148.5702   25.3653 C   0  0  0  0  0  0  0  0  0  0  0  0
   13.1909  149.9391   25.2691 C   0  0  0  0  0  0  0  0  0  0  0  0
   11.8530  150.3026   24.8337 C   0  0  0  0  0  0  0  0  0  0  0  0
   11.3995  147.8858   24.7161 C   0  0  0  0  0  0  0  0  0  0  0  0
   12.6666  147.5259   25.0860 C   0  0  0  0  0  0  0  0  0  0  0  0
   14.2094  150.9331   25.2922 C   0  0  0  0  0  0  0  0  0  0  0  0
   17.0955  154.6188   27.0480 C   0  0  0  0  0  0  0  0  0  0  0  0
   16.1277  155.7616   27.3879 C   0  0  0  0  0  0  0  0  0  0  0  0
   14.9590  155.6789   26.4112 C   0  0  0  0  0  0  0  0  0  0  0  0
   14.1345  154.4462   26.7876 C   0  0  0  0  0  0  0  0  0  0  0  0
   15.0156  153.2589   26.3357 C   0  0  1  0  0  0  0  0  0  0  0  0
   16.3873  153.2607   27.1436 C   0  0  2  0  0  0  0  0  0  0  0  0
   14.2620  151.9125   26.5036 C   0  0  2  0  0  0  0  0  0  0  0  0
   14.9884  151.1813   27.7179 C   0  0  1  0  0  0  0  0  0  0  0  0
   16.1743  153.0856   28.5813 C   0  0  0  0  0  0  0  0  0  0  0  0
   15.2474  152.1806   28.8208 C   0  0  0  0  0  0  0  0  0  0  0  0
   14.2390  149.9667   28.3770 C   0  0  0  0  0  0  0  0  0  0  0  0
   11.0211  149.2016   24.6025 N   0  0  0  0  0  0  0  0  0  0  0  0
   11.3824  151.4701   24.7188 O   0  0  0  0  0  0  0  0  0  0  0  0
   14.8066  148.2410   25.7456 O   0  0  0  0  0  0  0  0  0  0  0  0
   15.3294  150.8005   24.6893 O   0  0  0  0  0  0  0  0  0  0  0  0
   11.8653  146.0117   27.3745 O   0  0  0  0  0  0  0  0  0  0  0  0
   10.3238  143.2936   26.8935 O   0  0  0  0  0  0  0  0  0  0  0  0
   14.4531  145.8969   24.7307 O   0  0  0  0  0  0  0  0  0  0  0  0
   12.5732  143.7450   27.9201 H   0  0  0  0  0  0  0  0  0  0  0  0
   14.2234  145.9669   26.8237 H   0  0  0  0  0  0  0  0  0  0  0  0
   11.7884  145.8973   23.4951 H   0  0  0  0  0  0  0  0  0  0  0  0
   12.8540  144.4557   23.8185 H   0  0  0  0  0  0  0  0  0  0  0  0
   10.3442  145.2853   25.3394 H   0  0  0  0  0  0  0  0  0  0  0  0
   10.5984  143.8194   24.3008 H   0  0  0  0  0  0  0  0  0  0  0  0
   12.2535  142.9303   25.9026 H   0  0  0  0  0  0  0  0  0  0  0  0
   10.6617  147.0981   24.5032 H   0  0  0  0  0  0  0  0  0  0  0  0
   17.4729  154.7578   26.0242 H   0  0  0  0  0  0  0  0  0  0  0  0
   17.9276  154.6347   27.7673 H   0  0  0  0  0  0  0  0  0  0  0  0
   15.7632  155.6507   28.4198 H   0  0  0  0  0  0  0  0  0  0  0  0
   16.6335  156.7349   27.3051 H   0  0  0  0  0  0  0  0  0  0  0  0
   14.3390  156.5841   26.4893 H   0  0  0  0  0  0  0  0  0  0  0  0
   15.3227  155.6016   25.3760 H   0  0  0  0  0  0  0  0  0  0  0  0
   13.9561  154.4108   27.8725 H   0  0  0  0  0  0  0  0  0  0  0  0
   13.1403  154.4405   26.3171 H   0  0  0  0  0  0  0  0  0  0  0  0
   15.2439  153.3748   25.2660 H   0  0  0  0  0  0  0  0  0  0  0  0
   16.9725  152.4411   26.7013 H   0  0  0  0  0  0  0  0  0  0  0  0
   13.2021  152.1693   26.6473 H   0  0  0  0  0  0  0  0  0  0  0  0
   15.8965  150.7662   27.2563 H   0  0  0  0  0  0  0  0  0  0  0  0
   16.7183  153.6385   29.3614 H   0  0  0  0  0  0  0  0  0  0  0  0
   14.6930  152.1541   29.7706 H   0  0  0  0  0  0  0  0  0  0  0  0
   14.2925  150.0534   29.4723 H   0  0  0  0  0  0  0  0  0  0  0  0
   13.1857  149.9700   28.0600 H   0  0  0  0  0  0  0  0  0  0  0  0
   14.7144  149.0267   28.0600 H   0  0  0  0  0  0  0  0  0  0  0  0
   10.0478  149.3928   24.3252 H   0  0  0  0  0  0  0  0  0  0  0  0
   15.0644  147.2869   25.8040 H   0  0  0  0  0  0  0  0  0  0  0  0
   10.4416  143.3348   27.8756 H   0  0  0  0  0  0  0  0  0  0  0  0
   15.0731  145.8066   25.4972 H   0  0  0  0  0  0  0  0  0  0  0  0
  1  2  1  0
  1  6  1  0
  1 28  1  0
  2  3  1  0
  2 28  1  0
  3  4  1  0
  3 11  1  0
  3 30  1  6
  4  5  1  0
  5  6  1  0
  6 29  1  0
  7  8  2  0
  7 11  1  0
  7 26  1  0
  8  9  1  0
  8 12  1  0
  9 24  1  0
  9 25  2  0
 10 11  2  0
 10 24  1  0
 19 12  1  0
 12 27  2  0
 13 14  1  0
 18 13  1  0
 14 15  1  0
 15 16  1  0
 17 16  1  0
 17 18  1  0
 17 19  1  0
 18 21  1  0
 19 20  1  0
 20 22  1  0
 20 23  1  0
 21 22  2  0
  1 31  1  1
  2 32  1  1
  4 33  1  0
  4 34  1  0
  5 35  1  0
  5 36  1  0
  6 37  1  6
 10 38  1  0
 13 39  1  0
 13 40  1  0
 14 41  1  0
 14 42  1  0
 15 43  1  0
 15 44  1  0
 16 45  1  0
 16 46  1  0
 17 47  1  6
 18 48  1  6
 19 49  1  1
 20 50  1  6
 21 51  1  0
 22 52  1  0
 23 53  1  0
 23 54  1  0
 23 55  1  0
 24 56  1  0
 26 57  1  0
 29 58  1  0
 30 59  1  0
M  END
>  <filename_input>  (3) 
7WUY_76N_docked.sdf

>  <pdb_id>  (3) 
7WUY_76N

>  <pose_rank>  (3) 
2

>  <num_atoms_heavy>  (3) 
30

>  <num_torsions>  (3) 
3

>  <pose>  (3) 
[13.599218165825977, 148.57018466309484, 25.36526975146289, 1.547916703661772, -0.8780809390854675, 2.0975331704090525, -0.16036187935718008, -2.725214536249483, -6.002591113669928]

>  <energy>  (3) 
-810.2587034010411

>  <inter_energy>  (3) 
-877.832696135019

>  <intra_energy>  (3) 
63.69753933339127

>  <rmsd>  (3) 
7.95211

>  <sdf_rank>  (3) 
0

$$$$

     RDKit          3D

 59 63  0  0  0  0  0  0  0  0999 V2000
   17.3237  153.6180   27.8262 C   0  0  2  0  0  0  0  0  0  0  0  0
   16.5238  152.3625   27.7212 C   0  0  1  0  0  0  0  0  0  0  0  0
   15.1030  152.3719   27.1439 C   0  0  1  0  0  0  0  0  0  0  0  0
   14.4987  153.7382   26.6727 C   0  0  0  0  0  0  0  0  0  0  0  0
   15.5766  154.7721   26.3051 C   0  0  0  0  0  0  0  0  0  0  0  0
   16.6291  154.9350   27.4316 C   0  0  2  0  0  0  0  0  0  0  0  0
   15.0395  150.0237   26.2051 C   0  0  0  0  0  0  0  0  0  0  0  0
   15.0142  149.1104   25.1029 C   0  0  0  0  0  0  0  0  0  0  0  0
   14.9421  149.5807   23.7298 C   0  0  0  0  0  0  0  0  0  0  0  0
   15.0250  151.8562   24.6654 C   0  0  0  0  0  0  0  0  0  0  0  0
   15.0527  151.4311   25.9656 C   0  0  0  0  0  0  0  0  0  0  0  0
   14.7328  147.7442   25.3863 C   0  0  0  0  0  0  0  0  0  0  0  0
   11.0233  144.9123   27.1798 C   0  0  0  0  0  0  0  0  0  0  0  0
    9.7334  145.6683   26.8295 C   0  0  0  0  0  0  0  0  0  0  0  0
   10.0566  147.1589   26.8449 C   0  0  0  0  0  0  0  0  0  0  0  0
   10.9328  147.4497   25.6247 C   0  0  0  0  0  0  0  0  0  0  0  0
   12.2973  146.8212   25.9900 C   0  0  1  0  0  0  0  0  0  0  0  0
   12.1385  145.2488   26.1808 C   0  0  2  0  0  0  0  0  0  0  0  0
   13.3679  147.1556   24.9172 C   0  0  2  0  0  0  0  0  0  0  0  0
   13.6396  145.7799   24.1620 C   0  0  1  0  0  0  0  0  0  0  0  0
   11.7041  144.5903   24.9475 C   0  0  0  0  0  0  0  0  0  0  0  0
   12.3238  145.0868   23.8963 C   0  0  0  0  0  0  0  0  0  0  0  0
   14.3963  145.8531   22.7860 C   0  0  0  0  0  0  0  0  0  0  0  0
   14.9765  150.9745   23.6130 N   0  0  0  0  0  0  0  0  0  0  0  0
   14.9216  148.8711   22.6838 O   0  0  0  0  0  0  0  0  0  0  0  0
   15.0924  149.6024   27.4423 O   0  0  0  0  0  0  0  0  0  0  0  0
   15.6443  146.8620   25.5493 O   0  0  0  0  0  0  0  0  0  0  0  0
   17.5376  152.6520   26.6776 O   0  0  0  0  0  0  0  0  0  0  0  0
   17.6566  155.8080   26.8205 O   0  0  0  0  0  0  0  0  0  0  0  0
   14.2457  151.9443   28.2144 O   0  0  0  0  0  0  0  0  0  0  0  0
   17.9399  154.0722   28.6161 H   0  0  0  0  0  0  0  0  0  0  0  0
   16.3061  151.5879   28.4712 H   0  0  0  0  0  0  0  0  0  0  0  0
   13.8691  153.5577   25.7890 H   0  0  0  0  0  0  0  0  0  0  0  0
   13.9175  154.1497   27.5110 H   0  0  0  0  0  0  0  0  0  0  0  0
   16.0861  154.4437   25.3871 H   0  0  0  0  0  0  0  0  0  0  0  0
   15.0815  155.7433   26.1580 H   0  0  0  0  0  0  0  0  0  0  0  0
   16.1478  155.3174   28.3437 H   0  0  0  0  0  0  0  0  0  0  0  0
   15.0421  152.9361   24.4566 H   0  0  0  0  0  0  0  0  0  0  0  0
   11.3464  145.1991   28.1915 H   0  0  0  0  0  0  0  0  0  0  0  0
   10.8228  143.8317   27.1348 H   0  0  0  0  0  0  0  0  0  0  0  0
    9.3831  145.3703   25.8303 H   0  0  0  0  0  0  0  0  0  0  0  0
    8.9396  145.4367   27.5549 H   0  0  0  0  0  0  0  0  0  0  0  0
    9.1278  147.7456   26.7892 H   0  0  0  0  0  0  0  0  0  0  0  0
   10.5796  147.4334   27.7728 H   0  0  0  0  0  0  0  0  0  0  0  0
   10.5148  146.9806   24.7218 H   0  0  0  0  0  0  0  0  0  0  0  0
   11.0064  148.5242   25.4011 H   0  0  0  0  0  0  0  0  0  0  0  0
   12.6419  147.2522   26.9416 H   0  0  0  0  0  0  0  0  0  0  0  0
   13.1293  144.9069   26.5146 H   0  0  0  0  0  0  0  0  0  0  0  0
   12.9516  147.9748   24.3124 H   0  0  0  0  0  0  0  0  0  0  0  0
   14.3077  145.2414   24.8501 H   0  0  0  0  0  0  0  0  0  0  0  0
   10.9565  143.7846   24.9042 H   0  0  0  0  0  0  0  0  0  0  0  0
   11.9066  145.0015   22.8821 H   0  0  0  0  0  0  0  0  0  0  0  0
   15.4764  145.9576   22.9666 H   0  0  0  0  0  0  0  0  0  0  0  0
   14.2075  144.9325   22.2143 H   0  0  0  0  0  0  0  0  0  0  0  0
   14.0346  146.7205   22.2143 H   0  0  0  0  0  0  0  0  0  0  0  0
   14.9644  151.3710   22.6625 H   0  0  0  0  0  0  0  0  0  0  0  0
   15.1089  150.2545   28.1870 H   0  0  0  0  0  0  0  0  0  0  0  0
   18.1793  156.2521   27.5344 H   0  0  0  0  0  0  0  0  0  0  0  0
   14.6711  152.1565   29.0827 H   0  0  0  0  0  0  0  0  0  0  0  0
  1  2  1  0
  1  6  1  0
  1 28  1  0
  2  3  1  0
  2 28  1  0
  3  4  1  0
  3 11  1  0
  3 30  1  1
  4  5  1  0
  5  6  1  0
  6 29  1  0
  7  8  2  0
  7 11  1  0
  7 26  1  0
  8  9  1  0
  8 12  1  0
  9 24  1  0
  9 25  2  0
 10 11  2  0
 10 24  1  0
 19 12  1  0
 12 27  2  0
 13 14  1  0
 18 13  1  0
 14 15  1  0
 15 16  1  0
 17 16  1  0
 17 18  1  0
 17 19  1  0
 18 21  1  0
 19 20  1  0
 20 22  1  0
 20 23  1  0
 21 22  2  0
  1 31  1  1
  2 32  1  1
  4 33  1  0
  4 34  1  0
  5 35  1  0
  5 36  1  0
  6 37  1  1
 10 38  1  0
 13 39  1  0
 13 40  1  0
 14 41  1  0
 14 42  1  0
 15 43  1  0
 15 44  1  0
 16 45  1  0
 16 46  1  0
 17 47  1  1
 18 48  1  1
 19 49  1  6
 20 50  1  1
 21 51  1  0
 22 52  1  0
 23 53  1  0
 23 54  1  0
 23 55  1  0
 24 56  1  0
 26 57  1  0
 29 58  1  0
 30 59  1  0
M  END
>  <filename_input>  (4) 
7WUY_76N_docked.sdf

>  <pdb_id>  (4) 
7WUY_76N

>  <pose_rank>  (4) 
3

>  <num_atoms_heavy>  (4) 
30

>  <num_torsions>  (4) 
3

>  <pose>  (4) 
[15.039539159358084, 150.02374959277907, 26.205124983516704, 5.802092220096654, -0.8206553999311988, -1.71314981418399, -0.19620813652234873, 1.1886669050638023, 1.160777121440521]

>  <energy>  (4) 
-873.5788186122352

>  <inter_energy>  (4) 
-917.2536537412478

>  <intra_energy>  (4) 
51.09837170762661

>  <rmsd>  (4) 
1.88174

>  <sdf_rank>  (4) 
0

$$$$

     RDKit          3D

 59 63  0  0  0  0  0  0  0  0999 V2000
   16.5527  153.3143   26.2118 C   0  0  2  0  0  0  0  0  0  0  0  0
   16.3292  151.8514   26.0198 C   0  0  1  0  0  0  0  0  0  0  0  0
   15.4870  151.0397   27.0117 C   0  0  1  0  0  0  0  0  0  0  0  0
   14.8697  151.7802   28.2464 C   0  0  0  0  0  0  0  0  0  0  0  0
   14.6900  153.2892   28.0083 C   0  0  0  0  0  0  0  0  0  0  0  0
   15.9944  153.9530   27.4975 C   0  0  2  0  0  0  0  0  0  0  0  0
   14.6438  149.4245   25.2569 C   0  0  0  0  0  0  0  0  0  0  0  0
   13.5811  148.8124   24.5181 C   0  0  0  0  0  0  0  0  0  0  0  0
   12.1881  149.1090   24.8066 C   0  0  0  0  0  0  0  0  0  0  0  0
   13.0324  150.6894   26.4947 C   0  0  0  0  0  0  0  0  0  0  0  0
   14.3479  150.3925   26.2637 C   0  0  0  0  0  0  0  0  0  0  0  0
   13.9006  147.6740   23.7257 C   0  0  0  0  0  0  0  0  0  0  0  0
   11.1900  145.1980   27.1195 C   0  0  0  0  0  0  0  0  0  0  0  0
   10.8639  143.8466   26.4671 C   0  0  0  0  0  0  0  0  0  0  0  0
   10.7598  144.0766   24.9628 C   0  0  0  0  0  0  0  0  0  0  0  0
   12.1733  144.3443   24.4420 C   0  0  0  0  0  0  0  0  0  0  0  0
   12.4975  145.7635   24.9624 C   0  0  1  0  0  0  0  0  0  0  0  0
   12.4956  145.7731   26.5543 C   0  0  2  0  0  0  0  0  0  0  0  0
   13.8515  146.2673   24.3953 C   0  0  2  0  0  0  0  0  0  0  0  0
   14.8480  146.2602   25.6378 C   0  0  1  0  0  0  0  0  0  0  0  0
   13.5258  144.8918   27.1067 C   0  0  0  0  0  0  0  0  0  0  0  0
   14.6515  144.9885   26.4291 C   0  0  0  0  0  0  0  0  0  0  0  0
   16.3853  146.3643   25.3263 C   0  0  0  0  0  0  0  0  0  0  0  0
   12.0165  150.0806   25.7986 N   0  0  0  0  0  0  0  0  0  0  0  0
   11.1734  148.6373   24.2186 O   0  0  0  0  0  0  0  0  0  0  0  0
   15.8980  149.1500   25.0069 O   0  0  0  0  0  0  0  0  0  0  0  0
   13.7570  147.6440   22.4552 O   0  0  0  0  0  0  0  0  0  0  0  0
   15.4948  152.8076   25.2516 O   0  0  0  0  0  0  0  0  0  0  0  0
   15.5706  155.3297   27.1563 O   0  0  0  0  0  0  0  0  0  0  0  0
   16.3820  150.0696   27.5788 O   0  0  0  0  0  0  0  0  0  0  0  0
   17.4344  153.9700   26.1589 H   0  0  0  0  0  0  0  0  0  0  0  0
   17.0439  151.0374   25.8285 H   0  0  0  0  0  0  0  0  0  0  0  0
   13.8859  151.3393   28.4648 H   0  0  0  0  0  0  0  0  0  0  0  0
   15.5675  151.6588   29.0880 H   0  0  0  0  0  0  0  0  0  0  0  0
   13.8979  153.4393   27.2600 H   0  0  0  0  0  0  0  0  0  0  0  0
   14.4227  153.7563   28.9677 H   0  0  0  0  0  0  0  0  0  0  0  0
   16.7848  153.8630   28.2572 H   0  0  0  0  0  0  0  0  0  0  0  0
   12.7808  151.4378   27.2605 H   0  0  0  0  0  0  0  0  0  0  0  0
   10.3691  145.9025   26.9201 H   0  0  0  0  0  0  0  0  0  0  0  0
   11.3098  145.0477   28.2026 H   0  0  0  0  0  0  0  0  0  0  0  0
   11.6641  143.1231   26.6819 H   0  0  0  0  0  0  0  0  0  0  0  0
    9.9205  143.4429   26.8633 H   0  0  0  0  0  0  0  0  0  0  0  0
   10.3417  143.1842   24.4741 H   0  0  0  0  0  0  0  0  0  0  0  0
   10.0979  144.9278   24.7449 H   0  0  0  0  0  0  0  0  0  0  0  0
   12.8847  143.6079   24.8440 H   0  0  0  0  0  0  0  0  0  0  0  0
   12.2442  144.2670   23.3470 H   0  0  0  0  0  0  0  0  0  0  0  0
   11.7179  146.4557   24.6113 H   0  0  0  0  0  0  0  0  0  0  0  0
   12.6522  146.8271   26.8271 H   0  0  0  0  0  0  0  0  0  0  0  0
   14.1029  145.5978   23.5594 H   0  0  0  0  0  0  0  0  0  0  0  0
   14.5828  147.1800   26.1798 H   0  0  0  0  0  0  0  0  0  0  0  0
   13.3789  144.2335   27.9756 H   0  0  0  0  0  0  0  0  0  0  0  0
   15.4061  144.1881   26.4391 H   0  0  0  0  0  0  0  0  0  0  0  0
   16.9489  146.4025   26.2701 H   0  0  0  0  0  0  0  0  0  0  0  0
   16.7020  145.4855   24.7453 H   0  0  0  0  0  0  0  0  0  0  0  0
   16.5807  147.2777   24.7453 H   0  0  0  0  0  0  0  0  0  0  0  0
   11.0518  150.3618   26.0249 H   0  0  0  0  0  0  0  0  0  0  0  0
   16.6145  149.5868   25.5322 H   0  0  0  0  0  0  0  0  0  0  0  0
   15.4128  155.8422   27.9885 H   0  0  0  0  0  0  0  0  0  0  0  0
   16.3378  150.1176   28.5667 H   0  0  0  0  0  0  0  0  0  0  0  0
  1  2  1  0
  1  6  1  0
  1 28  1  0
  2  3  1  0
  2 28  1  0
  3  4  1  0
  3 11  1  0
  3 30  1  1
  4  5  1  0
  5  6  1  0
  6 29  1  0
  7  8  2  0
  7 11  1  0
  7 26  1  0
  8  9  1  0
  8 12  1  0
  9 24  1  0
  9 25  2  0
 10 11  2  0
 10 24  1  0
 19 12  1  0
 12 27  2  0
 13 14  1  0
 18 13  1  0
 14 15  1  0
 15 16  1  0
 17 16  1  0
 17 18  1  0
 17 19  1  0
 18 21  1  0
 19 20  1  0
 20 22  1  0
 20 23  1  0
 21 22  2  0
  1 31  1  6
  2 32  1  6
  4 33  1  0
  4 34  1  0
  5 35  1  0
  5 36  1  0
  6 37  1  1
 10 38  1  0
 13 39  1  0
 13 40  1  0
 14 41  1  0
 14 42  1  0
 15 43  1  0
 15 44  1  0
 16 45  1  0
 16 46  1  0
 17 47  1  6
 18 48  1  6
 19 49  1  6
 20 50  1  1
 21 51  1  0
 22 52  1  0
 23 53  1  0
 23 54  1  0
 23 55  1  0
 24 56  1  0
 26 57  1  0
 29 58  1  0
 30 59  1  0
M  END
>  <filename_input>  (5) 
7WUY_76N_docked.sdf

>  <pdb_id>  (5) 
7WUY_76N

>  <pose_rank>  (5) 
4

>  <num_atoms_heavy>  (5) 
30

>  <num_torsions>  (5) 
3

>  <pose>  (5) 
[14.643820206036578, 149.42446880098566, 25.256915837341925, -1.4863806133931752, -3.761205826678059, -2.2770617414300394, -6.673689194785316, 0.7961182210538926, -2.1406478966813864]

>  <energy>  (5) 
-784.8798787064518

>  <inter_energy>  (5) 
-855.4355338389906

>  <intra_energy>  (5) 
77.20033180228847

>  <rmsd>  (5) 
2.5857

>  <sdf_rank>  (5) 
0

$$$$

     RDKit          3D

 59 63  0  0  0  0  0  0  0  0999 V2000
   15.4171  153.9966   28.5044 C   0  0  2  0  0  0  0  0  0  0  0  0
   14.5362  153.1403   27.6573 C   0  0  1  0  0  0  0  0  0  0  0  0
   14.4295  153.3631   26.1437 C   0  0  1  0  0  0  0  0  0  0  0  0
   15.2619  154.5237   25.5005 C   0  0  0  0  0  0  0  0  0  0  0  0
   16.4962  154.9061   26.3350 C   0  0  0  0  0  0  0  0  0  0  0  0
   16.1306  155.1761   27.8171 C   0  0  2  0  0  0  0  0  0  0  0  0
   13.8710  151.0257   25.3538 C   0  0  0  0  0  0  0  0  0  0  0  0
   14.2259  149.7981   24.7081 C   0  0  0  0  0  0  0  0  0  0  0  0
   15.5225  149.6208   24.0764 C   0  0  0  0  0  0  0  0  0  0  0  0
   16.0506  151.8896   24.8726 C   0  0  0  0  0  0  0  0  0  0  0  0
   14.8205  152.0884   25.4378 C   0  0  0  0  0  0  0  0  0  0  0  0
   13.1772  148.8818   24.4138 C   0  0  0  0  0  0  0  0  0  0  0  0
   12.6431  144.0661   25.6468 C   0  0  0  0  0  0  0  0  0  0  0  0
   13.1460  143.9624   27.0940 C   0  0  0  0  0  0  0  0  0  0  0  0
   14.2429  145.0067   27.2746 C   0  0  0  0  0  0  0  0  0  0  0  0
   13.5708  146.3812   27.2731 C   0  0  0  0  0  0  0  0  0  0  0  0
   13.1648  146.5936   25.7965 C   0  0  1  0  0  0  0  0  0  0  0  0
   12.1186  145.4783   25.3540 C   0  0  2  0  0  0  0  0  0  0  0  0
   12.5968  148.0211   25.5764 C   0  0  2  0  0  0  0  0  0  0  0  0
   11.0381  147.8112   25.3250 C   0  0  1  0  0  0  0  0  0  0  0  0
   10.8803  145.5522   26.1313 C   0  0  0  0  0  0  0  0  0  0  0  0
   10.5036  146.8014   26.3133 C   0  0  0  0  0  0  0  0  0  0  0  0
   10.1158  149.0796   25.4333 C   0  0  0  0  0  0  0  0  0  0  0  0
   16.3764  150.7180   24.2335 N   0  0  0  0  0  0  0  0  0  0  0  0
   15.9453  148.5855   23.4872 O   0  0  0  0  0  0  0  0  0  0  0  0
   12.7001  151.1917   25.9127 O   0  0  0  0  0  0  0  0  0  0  0  0
   12.3688  149.0357   23.4348 O   0  0  0  0  0  0  0  0  0  0  0  0
   15.8750  152.6283   28.0395 O   0  0  0  0  0  0  0  0  0  0  0  0
   17.4475  155.3364   28.4739 O   0  0  0  0  0  0  0  0  0  0  0  0
   13.0593  153.7185   25.8988 O   0  0  0  0  0  0  0  0  0  0  0  0
   15.2896  154.5145   29.4665 H   0  0  0  0  0  0  0  0  0  0  0  0
   13.4786  152.8623   27.7774 H   0  0  0  0  0  0  0  0  0  0  0  0
   15.5976  154.2043   24.5028 H   0  0  0  0  0  0  0  0  0  0  0  0
   14.6106  155.4086   25.4483 H   0  0  0  0  0  0  0  0  0  0  0  0
   17.2234  154.0819   26.2926 H   0  0  0  0  0  0  0  0  0  0  0  0
   16.9193  155.8302   25.9144 H   0  0  0  0  0  0  0  0  0  0  0  0
   15.4466  156.0349   27.8854 H   0  0  0  0  0  0  0  0  0  0  0  0
   16.8009  152.6918   24.9316 H   0  0  0  0  0  0  0  0  0  0  0  0
   13.4715  143.8390   24.9596 H   0  0  0  0  0  0  0  0  0  0  0  0
   11.8219  143.3480   25.5057 H   0  0  0  0  0  0  0  0  0  0  0  0
   12.3204  144.1601   27.7935 H   0  0  0  0  0  0  0  0  0  0  0  0
   13.5344  142.9536   27.2976 H   0  0  0  0  0  0  0  0  0  0  0  0
   14.7636  144.8439   28.2298 H   0  0  0  0  0  0  0  0  0  0  0  0
   14.9838  144.9358   26.4646 H   0  0  0  0  0  0  0  0  0  0  0  0
   12.6862  146.3852   27.9268 H   0  0  0  0  0  0  0  0  0  0  0  0
   14.2299  147.1767   27.6509 H   0  0  0  0  0  0  0  0  0  0  0  0
   14.0609  146.4972   25.1658 H   0  0  0  0  0  0  0  0  0  0  0  0
   11.9545  145.6597   24.2815 H   0  0  0  0  0  0  0  0  0  0  0  0
   12.8773  148.6041   26.4660 H   0  0  0  0  0  0  0  0  0  0  0  0
   10.9926  147.4889   24.2742 H   0  0  0  0  0  0  0  0  0  0  0  0
   10.3346  144.6772   26.5142 H   0  0  0  0  0  0  0  0  0  0  0  0
    9.8373  147.0928   27.1386 H   0  0  0  0  0  0  0  0  0  0  0  0
    9.9427  149.3177   26.4932 H   0  0  0  0  0  0  0  0  0  0  0  0
   10.6061  149.9326   24.9412 H   0  0  0  0  0  0  0  0  0  0  0  0
    9.1533  148.8762   24.9412 H   0  0  0  0  0  0  0  0  0  0  0  0
   17.3246  150.6411   23.8386 H   0  0  0  0  0  0  0  0  0  0  0  0
   12.4790  152.0504   26.3529 H   0  0  0  0  0  0  0  0  0  0  0  0
   17.3299  155.3221   29.4568 H   0  0  0  0  0  0  0  0  0  0  0  0
   12.5905  153.8400   26.7622 H   0  0  0  0  0  0  0  0  0  0  0  0
  1  2  1  0
  1  6  1  0
  1 28  1  0
  2  3  1  0
  2 28  1  0
  3  4  1  0
  3 11  1  0
  3 30  1  1
  4  5  1  0
  5  6  1  0
  6 29  1  0
  7  8  2  0
  7 11  1  0
  7 26  1  0
  8  9  1  0
  8 12  1  0
  9 24  1  0
  9 25  2  0
 10 11  2  0
 10 24  1  0
 19 12  1  0
 12 27  2  0
 13 14  1  0
 18 13  1  0
 14 15  1  0
 15 16  1  0
 17 16  1  0
 17 18  1  0
 17 19  1  0
 18 21  1  0
 19 20  1  0
 20 22  1  0
 20 23  1  0
 21 22  2  0
  1 31  1  1
  2 32  1  1
  4 33  1  0
  4 34  1  0
  5 35  1  0
  5 36  1  0
  6 37  1  6
 10 38  1  0
 13 39  1  0
 13 40  1  0
 14 41  1  0
 14 42  1  0
 15 43  1  0
 15 44  1  0
 16 45  1  0
 16 46  1  0
 17 47  1  6
 18 48  1  6
 19 49  1  1
 20 50  1  6
 21 51  1  0
 22 52  1  0
 23 53  1  0
 23 54  1  0
 23 55  1  0
 24 56  1  0
 26 57  1  0
 29 58  1  0
 30 59  1  0
M  END
>  <filename_input>  (6) 
7WUY_76N_docked.sdf

>  <pdb_id>  (6) 
7WUY_76N

>  <pose_rank>  (6) 
5

>  <num_atoms_heavy>  (6) 
30

>  <num_torsions>  (6) 
3

>  <pose>  (6) 
[13.870963894959552, 151.02569948918065, 25.353767703404607, -0.36558985640874486, -1.0144199186394651, -0.6355506762238424, -0.12583926754354677, 4.20590244005546, 1.4096830927952848]

>  <energy>  (6) 
-803.2222422817722

>  <inter_energy>  (6) 
-862.021436606639

>  <intra_energy>  (6) 
52.52507787355387

>  <rmsd>  (6) 
1.74717

>  <sdf_rank>  (6) 
0

$$$$

     RDKit          3D

 59 63  0  0  0  0  0  0  0  0999 V2000
   16.2972  153.3040   28.6821 C   0  0  2  0  0  0  0  0  0  0  0  0
   15.0619  152.7256   28.0769 C   0  0  1  0  0  0  0  0  0  0  0  0
   14.5072  153.2520   26.7475 C   0  0  1  0  0  0  0  0  0  0  0  0
   15.2630  154.4257   26.0368 C   0  0  0  0  0  0  0  0  0  0  0  0
   16.7462  154.5084   26.4359 C   0  0  0  0  0  0  0  0  0  0  0  0
   16.9309  154.5169   27.9750 C   0  0  2  0  0  0  0  0  0  0  0  0
   13.6429  150.9663   26.0934 C   0  0  0  0  0  0  0  0  0  0  0  0
   13.5757  149.8589   25.1883 C   0  0  0  0  0  0  0  0  0  0  0  0
   14.2528  149.8880   23.9029 C   0  0  0  0  0  0  0  0  0  0  0  0
   15.0978  152.1020   24.5695 C   0  0  0  0  0  0  0  0  0  0  0  0
   14.4347  152.1083   25.7663 C   0  0  0  0  0  0  0  0  0  0  0  0
   12.5765  148.8736   25.4266 C   0  0  0  0  0  0  0  0  0  0  0  0
   16.1042  145.4656   24.4585 C   0  0  0  0  0  0  0  0  0  0  0  0
   16.6875  145.0889   25.8282 C   0  0  0  0  0  0  0  0  0  0  0  0
   16.5953  146.3221   26.7210 C   0  0  0  0  0  0  0  0  0  0  0  0
   15.1177  146.5348   27.0563 C   0  0  0  0  0  0  0  0  0  0  0  0
   14.5078  147.0502   25.7324 C   0  0  1  0  0  0  0  0  0  0  0  0
   14.6522  145.9419   24.5989 C   0  0  2  0  0  0  0  0  0  0  0  0
   13.0261  147.4684   25.9292 C   0  0  2  0  0  0  0  0  0  0  0  0
   12.1785  146.3588   25.1629 C   0  0  1  0  0  0  0  0  0  0  0  0
   13.9212  144.7188   24.9349 C   0  0  0  0  0  0  0  0  0  0  0  0
   12.7488  144.9938   25.4692 C   0  0  0  0  0  0  0  0  0  0  0  0
   10.6401  146.2855   25.4776 C   0  0  0  0  0  0  0  0  0  0  0  0
   15.0097  151.0462   23.6949 N   0  0  0  0  0  0  0  0  0  0  0  0
   14.2693  148.9718   23.0321 O   0  0  0  0  0  0  0  0  0  0  0  0
   13.0246  150.9471   27.2458 O   0  0  0  0  0  0  0  0  0  0  0  0
   11.3663  149.1626   25.7225 O   0  0  0  0  0  0  0  0  0  0  0  0
   16.3500  152.0148   27.8864 O   0  0  0  0  0  0  0  0  0  0  0  0
   18.3972  154.4097   28.1474 O   0  0  0  0  0  0  0  0  0  0  0  0
   13.2090  153.7863   27.0523 O   0  0  0  0  0  0  0  0  0  0  0  0
   16.5753  153.6324   29.6945 H   0  0  0  0  0  0  0  0  0  0  0  0
   14.0704  152.5386   28.5150 H   0  0  0  0  0  0  0  0  0  0  0  0
   15.1996  154.2766   24.9488 H   0  0  0  0  0  0  0  0  0  0  0  0
   14.7834  155.3651   26.3488 H   0  0  0  0  0  0  0  0  0  0  0  0
   17.2757  153.6391   26.0189 H   0  0  0  0  0  0  0  0  0  0  0  0
   17.1543  155.4493   26.0383 H   0  0  0  0  0  0  0  0  0  0  0  0
   16.4558  155.4105   28.4060 H   0  0  0  0  0  0  0  0  0  0  0  0
   15.7199  152.9681   24.2995 H   0  0  0  0  0  0  0  0  0  0  0  0
   16.7080  146.2731   24.0187 H   0  0  0  0  0  0  0  0  0  0  0  0
   16.1236  144.5774   23.8098 H   0  0  0  0  0  0  0  0  0  0  0  0
   16.1097  144.2627   26.2681 H   0  0  0  0  0  0  0  0  0  0  0  0
   17.7327  144.7612   25.7271 H   0  0  0  0  0  0  0  0  0  0  0  0
   17.1710  146.1616   27.6445 H   0  0  0  0  0  0  0  0  0  0  0  0
   17.0083  147.2039   26.2093 H   0  0  0  0  0  0  0  0  0  0  0  0
   14.6458  145.5896   27.3630 H   0  0  0  0  0  0  0  0  0  0  0  0
   14.9683  147.2331   27.8929 H   0  0  0  0  0  0  0  0  0  0  0  0
   15.0608  147.9458   25.4132 H   0  0  0  0  0  0  0  0  0  0  0  0
   14.2702  146.4241   23.6870 H   0  0  0  0  0  0  0  0  0  0  0  0
   12.8696  147.5437   27.0154 H   0  0  0  0  0  0  0  0  0  0  0  0
   12.2609  146.6611   24.1085 H   0  0  0  0  0  0  0  0  0  0  0  0
   14.3019  143.7011   24.7634 H   0  0  0  0  0  0  0  0  0  0  0  0
   12.2150  144.2701   26.1027 H   0  0  0  0  0  0  0  0  0  0  0  0
   10.4886  146.2783   26.5671 H   0  0  0  0  0  0  0  0  0  0  0  0
   10.1348  147.1606   25.0430 H   0  0  0  0  0  0  0  0  0  0  0  0
   10.2203  145.3663   25.0430 H   0  0  0  0  0  0  0  0  0  0  0  0
   15.5432  151.1125   22.8164 H   0  0  0  0  0  0  0  0  0  0  0  0
   13.0868  151.7258   27.8540 H   0  0  0  0  0  0  0  0  0  0  0  0
   18.6157  154.3938   29.1128 H   0  0  0  0  0  0  0  0  0  0  0  0
   13.0939  153.8336   28.0345 H   0  0  0  0  0  0  0  0  0  0  0  0
  1  2  1  0
  1  6  1  0
  1 28  1  0
  2  3  1  0
  2 28  1  0
  3  4  1  0
  3 11  1  0
  3 30  1  1
  4  5  1  0
  5  6  1  0
  6 29  1  0
  7  8  2  0
  7 11  1  0
  7 26  1  0
  8  9  1  0
  8 12  1  0
  9 24  1  0
  9 25  2  0
 10 11  2  0
 10 24  1  0
 19 12  1  0
 12 27  2  0
 13 14  1  0
 18 13  1  0
 14 15  1  0
 15 16  1  0
 17 16  1  0
 17 18  1  0
 17 19  1  0
 18 21  1  0
 19 20  1  0
 20 22  1  0
 20 23  1  0
 21 22  2  0
  1 31  1  1
  2 32  1  1
  4 33  1  0
  4 34  1  0
  5 35  1  0
  5 36  1  0
  6 37  1  1
 10 38  1  0
 13 39  1  0
 13 40  1  0
 14 41  1  0
 14 42  1  0
 15 43  1  0
 15 44  1  0
 16 45  1  0
 16 46  1  0
 17 47  1  6
 18 48  1  6
 19 49  1  1
 20 50  1  6
 21 51  1  0
 22 52  1  0
 23 53  1  0
 23 54  1  0
 23 55  1  0
 24 56  1  0
 26 57  1  0
 29 58  1  0
 30 59  1  0
M  END
>  <filename_input>  (7) 
7WUY_76N_docked.sdf

>  <pdb_id>  (7) 
7WUY_76N

>  <pose_rank>  (7) 
6

>  <num_atoms_heavy>  (7) 
30

>  <num_torsions>  (7) 
3

>  <pose>  (7) 
[13.642920475040532, 150.96626471059335, 26.093377161782662, -0.3750937164607629, -0.3789356990081978, -0.4774336144908544, -0.4752381702250258, -2.643647413181233, -3.5445585353567983]

>  <energy>  (7) 
-751.3781182940813

>  <inter_energy>  (7) 
-805.6716781423464

>  <intra_energy>  (7) 
59.98283516354333

>  <rmsd>  (7) 
2.65423

>  <sdf_rank>  (7) 
0

$$$$

     RDKit          3D

 59 63  0  0  0  0  0  0  0  0999 V2000
   14.9631  154.0218   28.6668 C   0  0  2  0  0  0  0  0  0  0  0  0
   14.2878  152.9817   27.8366 C   0  0  1  0  0  0  0  0  0  0  0  0
   14.8855  152.5192   26.5022 C   0  0  1  0  0  0  0  0  0  0  0  0
   16.2242  153.1730   26.0183 C   0  0  0  0  0  0  0  0  0  0  0  0
   17.0600  153.7470   27.1751 C   0  0  0  0  0  0  0  0  0  0  0  0
   16.2237  154.6860   28.0818 C   0  0  2  0  0  0  0  0  0  0  0  0
   14.6462  150.2136   25.4890 C   0  0  0  0  0  0  0  0  0  0  0  0
   14.8306  148.7945   25.5349 C   0  0  0  0  0  0  0  0  0  0  0  0
   15.5398  148.1570   26.6313 C   0  0  0  0  0  0  0  0  0  0  0  0
   15.7431  150.4079   27.6075 C   0  0  0  0  0  0  0  0  0  0  0  0
   15.1129  151.0291   26.5639 C   0  0  0  0  0  0  0  0  0  0  0  0
   14.5960  148.0611   24.3377 C   0  0  0  0  0  0  0  0  0  0  0  0
   11.5348  145.6305   27.4549 C   0  0  0  0  0  0  0  0  0  0  0  0
   10.1167  145.9654   26.9701 C   0  0  0  0  0  0  0  0  0  0  0  0
   10.1556  147.3681   26.3721 C   0  0  0  0  0  0  0  0  0  0  0  0
   10.9266  147.2820   25.0534 C   0  0  0  0  0  0  0  0  0  0  0  0
   12.3945  147.0801   25.4948 C   0  0  1  0  0  0  0  0  0  0  0  0
   12.5383  145.7125   26.2968 C   0  0  2  0  0  0  0  0  0  0  0  0
   13.3525  147.1236   24.2744 C   0  0  2  0  0  0  0  0  0  0  0  0
   13.8551  145.6235   24.0903 C   0  0  1  0  0  0  0  0  0  0  0  0
   12.1997  144.5548   25.4671 C   0  0  0  0  0  0  0  0  0  0  0  0
   12.6852  144.6810   24.2490 C   0  0  0  0  0  0  0  0  0  0  0  0
   14.5452  145.2596   22.7254 C   0  0  0  0  0  0  0  0  0  0  0  0
   15.9379  149.0482   27.6338 N   0  0  0  0  0  0  0  0  0  0  0  0
   15.7550  146.9203   26.7799 O   0  0  0  0  0  0  0  0  0  0  0  0
   14.0186  150.7907   24.4971 O   0  0  0  0  0  0  0  0  0  0  0  0
   15.0090  148.4458   23.1900 O   0  0  0  0  0  0  0  0  0  0  0  0
   15.1199  152.5481   28.9856 O   0  0  0  0  0  0  0  0  0  0  0  0
   17.1339  154.9744   29.2130 O   0  0  0  0  0  0  0  0  0  0  0  0
   13.9216  152.8781   25.4993 O   0  0  0  0  0  0  0  0  0  0  0  0
   14.6211  154.9238   29.1955 H   0  0  0  0  0  0  0  0  0  0  0  0
   13.2452  152.9052   27.4943 H   0  0  0  0  0  0  0  0  0  0  0  0
   16.8211  152.4086   25.4992 H   0  0  0  0  0  0  0  0  0  0  0  0
   15.9628  154.0086   25.3525 H   0  0  0  0  0  0  0  0  0  0  0  0
   17.4443  152.9148   27.7833 H   0  0  0  0  0  0  0  0  0  0  0  0
   17.8829  154.3348   26.7423 H   0  0  0  0  0  0  0  0  0  0  0  0
   15.8768  155.5556   27.5044 H   0  0  0  0  0  0  0  0  0  0  0  0
   16.1044  151.0151   28.4504 H   0  0  0  0  0  0  0  0  0  0  0  0
   11.8272  146.3462   28.2373 H   0  0  0  0  0  0  0  0  0  0  0  0
   11.5388  144.6054   27.8540 H   0  0  0  0  0  0  0  0  0  0  0  0
    9.7999  145.2402   26.2061 H   0  0  0  0  0  0  0  0  0  0  0  0
    9.4013  145.9198   27.8044 H   0  0  0  0  0  0  0  0  0  0  0  0
    9.1322  147.7263   26.1866 H   0  0  0  0  0  0  0  0  0  0  0  0
   10.6443  148.0713   27.0626 H   0  0  0  0  0  0  0  0  0  0  0  0
   10.5782  146.4302   24.4509 H   0  0  0  0  0  0  0  0  0  0  0  0
   10.7915  148.1736   24.4234 H   0  0  0  0  0  0  0  0  0  0  0  0
   12.6794  147.9053   26.1639 H   0  0  0  0  0  0  0  0  0  0  0  0
   13.5847  145.6966   26.6356 H   0  0  0  0  0  0  0  0  0  0  0  0
   12.7732  147.5536   23.4440 H   0  0  0  0  0  0  0  0  0  0  0  0
   14.6316  145.5204   24.8625 H   0  0  0  0  0  0  0  0  0  0  0  0
   11.6151  143.6908   25.8159 H   0  0  0  0  0  0  0  0  0  0  0  0
   12.2626  144.1309   23.3953 H   0  0  0  0  0  0  0  0  0  0  0  0
   15.5025  144.7547   22.9218 H   0  0  0  0  0  0  0  0  0  0  0  0
   13.8889  144.5903   22.1498 H   0  0  0  0  0  0  0  0  0  0  0  0
   14.7269  146.1792   22.1498 H   0  0  0  0  0  0  0  0  0  0  0  0
   16.4151  148.6534   28.4568 H   0  0  0  0  0  0  0  0  0  0  0  0
   13.9042  151.7741   24.4889 H   0  0  0  0  0  0  0  0  0  0  0  0
   16.6569  154.8233   30.0672 H   0  0  0  0  0  0  0  0  0  0  0  0
   13.0895  153.1879   25.9372 H   0  0  0  0  0  0  0  0  0  0  0  0
  1  2  1  0
  1  6  1  0
  1 28  1  0
  2  3  1  0
  2 28  1  0
  3  4  1  0
  3 11  1  0
  3 30  1  6
  4  5  1  0
  5  6  1  0
  6 29  1  0
  7  8  2  0
  7 11  1  0
  7 26  1  0
  8  9  1  0
  8 12  1  0
  9 24  1  0
  9 25  2  0
 10 11  2  0
 10 24  1  0
 19 12  1  0
 12 27  2  0
 13 14  1  0
 18 13  1  0
 14 15  1  0
 15 16  1  0
 17 16  1  0
 17 18  1  0
 17 19  1  0
 18 21  1  0
 19 20  1  0
 20 22  1  0
 20 23  1  0
 21 22  2  0
  1 31  1  1
  2 32  1  1
  4 33  1  0
  4 34  1  0
  5 35  1  0
  5 36  1  0
  6 37  1  6
 10 38  1  0
 13 39  1  0
 13 40  1  0
 14 41  1  0
 14 42  1  0
 15 43  1  0
 15 44  1  0
 16 45  1  0
 16 46  1  0
 17 47  1  1
 18 48  1  1
 19 49  1  6
 20 50  1  1
 21 51  1  0
 22 52  1  0
 23 53  1  0
 23 54  1  0
 23 55  1  0
 24 56  1  0
 26 57  1  0
 29 58  1  0
 30 59  1  0
M  END
>  <filename_input>  (8) 
7WUY_76N_docked.sdf

>  <pdb_id>  (8) 
7WUY_76N

>  <pose_rank>  (8) 
7

>  <num_atoms_heavy>  (8) 
30

>  <num_torsions>  (8) 
3

>  <pose>  (8) 
[14.646220220494891, 150.21363064342702, 25.488989253431455, -0.24934985078965494, -2.3214284915761962, -1.2306343395007526, 0.7845965134828713, -2.660352679156724, 9.395118833322673]

>  <energy>  (8) 
-732.5872324849133

>  <inter_energy>  (8) 
-817.7850910426978

>  <intra_energy>  (8) 
80.79556805173189

>  <rmsd>  (8) 
2.90517

>  <sdf_rank>  (8) 
0

$$$$

     RDKit          3D

 59 63  0  0  0  0  0  0  0  0999 V2000
   16.9622  153.8690   28.8308 C   0  0  2  0  0  0  0  0  0  0  0  0
   16.2724  152.5611   29.0322 C   0  0  1  0  0  0  0  0  0  0  0  0
   15.0189  152.1923   28.2292 C   0  0  1  0  0  0  0  0  0  0  0  0
   14.4658  153.2284   27.1927 C   0  0  0  0  0  0  0  0  0  0  0  0
   15.5437  154.2051   26.6924 C   0  0  0  0  0  0  0  0  0  0  0  0
   16.3067  154.8737   27.8646 C   0  0  2  0  0  0  0  0  0  0  0  0
   14.4684  150.5861   26.3541 C   0  0  0  0  0  0  0  0  0  0  0  0
   14.6854  149.3637   25.6410 C   0  0  0  0  0  0  0  0  0  0  0  0
   15.7629  148.4573   26.0001 C   0  0  0  0  0  0  0  0  0  0  0  0
   16.2674  150.0252   27.8297 C   0  0  0  0  0  0  0  0  0  0  0  0
   15.2832  150.9093   27.4809 C   0  0  0  0  0  0  0  0  0  0  0  0
   14.0392  149.2124   24.3818 C   0  0  0  0  0  0  0  0  0  0  0  0
   12.6640  145.0302   26.7511 C   0  0  0  0  0  0  0  0  0  0  0  0
   11.1289  145.0659   26.7739 C   0  0  0  0  0  0  0  0  0  0  0  0
   10.7049  146.5298   26.8358 C   0  0  0  0  0  0  0  0  0  0  0  0
   11.0138  147.1536   25.4733 C   0  0  0  0  0  0  0  0  0  0  0  0
   12.5556  147.2660   25.4581 C   0  0  1  0  0  0  0  0  0  0  0  0
   13.2078  145.8168   25.5509 C   0  0  2  0  0  0  0  0  0  0  0  0
   13.0447  148.0266   24.1967 C   0  0  2  0  0  0  0  0  0  0  0  0
   13.7389  146.9174   23.2887 C   0  0  1  0  0  0  0  0  0  0  0  0
   12.8492  144.9821   24.4030 C   0  0  0  0  0  0  0  0  0  0  0  0
   12.8848  145.6713   23.2808 C   0  0  0  0  0  0  0  0  0  0  0  0
   14.0110  147.2869   21.7852 C   0  0  0  0  0  0  0  0  0  0  0  0
   16.4858  148.8655   27.1264 N   0  0  0  0  0  0  0  0  0  0  0  0
   16.0429  147.3542   25.4499 O   0  0  0  0  0  0  0  0  0  0  0  0
   13.5065  151.4091   26.0251 O   0  0  0  0  0  0  0  0  0  0  0  0
   13.8311  150.1879   23.5813 O   0  0  0  0  0  0  0  0  0  0  0  0
   17.4782  152.6064   28.1692 O   0  0  0  0  0  0  0  0  0  0  0  0
   17.3984  155.6113   27.1898 O   0  0  0  0  0  0  0  0  0  0  0  0
   13.9665  152.0474   29.1964 O   0  0  0  0  0  0  0  0  0  0  0  0
   17.3610  154.6392   29.5074 H   0  0  0  0  0  0  0  0  0  0  0  0
   15.9324  152.0659   29.9536 H   0  0  0  0  0  0  0  0  0  0  0  0
   14.0608  152.6799   26.3296 H   0  0  0  0  0  0  0  0  0  0  0  0
   13.6908  153.8221   27.6995 H   0  0  0  0  0  0  0  0  0  0  0  0
   16.2625  153.6527   26.0692 H   0  0  0  0  0  0  0  0  0  0  0  0
   15.0446  154.9969   26.1146 H   0  0  0  0  0  0  0  0  0  0  0  0
   15.6137  155.4780   28.4684 H   0  0  0  0  0  0  0  0  0  0  0  0
   16.9028  150.2497   28.6991 H   0  0  0  0  0  0  0  0  0  0  0  0
   13.0493  145.4765   27.6797 H   0  0  0  0  0  0  0  0  0  0  0  0
   12.9918  143.9836   26.6655 H   0  0  0  0  0  0  0  0  0  0  0  0
   10.7288  144.5973   25.8627 H   0  0  0  0  0  0  0  0  0  0  0  0
   10.7415  144.5134   27.6427 H   0  0  0  0  0  0  0  0  0  0  0  0
    9.6276  146.6006   27.0462 H   0  0  0  0  0  0  0  0  0  0  0  0
   11.2452  147.0571   27.6359 H   0  0  0  0  0  0  0  0  0  0  0  0
   10.6603  146.5063   24.6572 H   0  0  0  0  0  0  0  0  0  0  0  0
   10.5158  148.1235   25.3276 H   0  0  0  0  0  0  0  0  0  0  0  0
   12.8767  147.8468   26.3353 H   0  0  0  0  0  0  0  0  0  0  0  0
   14.2902  146.0017   25.6157 H   0  0  0  0  0  0  0  0  0  0  0  0
   12.1588  148.5237   23.7747 H   0  0  0  0  0  0  0  0  0  0  0  0
   14.7266  146.7901   23.7559 H   0  0  0  0  0  0  0  0  0  0  0  0
   12.5840  143.9166   24.4689 H   0  0  0  0  0  0  0  0  0  0  0  0
   12.3242  145.3570   22.3881 H   0  0  0  0  0  0  0  0  0  0  0  0
   14.6625  148.1719   21.7372 H   0  0  0  0  0  0  0  0  0  0  0  0
   14.5037  146.4412   21.2831 H   0  0  0  0  0  0  0  0  0  0  0  0
   13.0571  147.5062   21.2831 H   0  0  0  0  0  0  0  0  0  0  0  0
   17.2417  148.2474   27.4542 H   0  0  0  0  0  0  0  0  0  0  0  0
   13.3772  152.2483   26.5342 H   0  0  0  0  0  0  0  0  0  0  0  0
   17.9943  156.0140   27.8702 H   0  0  0  0  0  0  0  0  0  0  0  0
   14.3473  152.0998   30.1087 H   0  0  0  0  0  0  0  0  0  0  0  0
  1  2  1  0
  1  6  1  0
  1 28  1  0
  2  3  1  0
  2 28  1  0
  3  4  1  0
  3 11  1  0
  3 30  1  1
  4  5  1  0
  5  6  1  0
  6 29  1  0
  7  8  2  0
  7 11  1  0
  7 26  1  0
  8  9  1  0
  8 12  1  0
  9 24  1  0
  9 25  2  0
 10 11  2  0
 10 24  1  0
 19 12  1  0
 12 27  2  0
 13 14  1  0
 18 13  1  0
 14 15  1  0
 15 16  1  0
 17 16  1  0
 17 18  1  0
 17 19  1  0
 18 21  1  0
 19 20  1  0
 20 22  1  0
 20 23  1  0
 21 22  2  0
  1 31  1  1
  2 32  1  1
  4 33  1  0
  4 34  1  0
  5 35  1  0
  5 36  1  0
  6 37  1  1
 10 38  1  0
 13 39  1  0
 13 40  1  0
 14 41  1  0
 14 42  1  0
 15 43  1  0
 15 44  1  0
 16 45  1  0
 16 46  1  0
 17 47  1  1
 18 48  1  1
 19 49  1  6
 20 50  1  1
 21 51  1  0
 22 52  1  0
 23 53  1  0
 23 54  1  0
 23 55  1  0
 24 56  1  0
 26 57  1  0
 29 58  1  0
 30 59  1  0
M  END
>  <filename_input>  (9) 
7WUY_76N_docked.sdf

>  <pdb_id>  (9) 
7WUY_76N

>  <pose_rank>  (9) 
8

>  <num_atoms_heavy>  (9) 
30

>  <num_torsions>  (9) 
3

>  <pose>  (9) 
[14.468350084819047, 150.58608759127227, 26.35408392064798, 0.26310394308491947, 2.9696683611495125, 2.738523592916283, -4.295979363485939, 9.73591751887844, 3.305693161246583]

>  <energy>  (9) 
-699.3083178548851

>  <inter_energy>  (9) 
-788.7884370247801

>  <intra_energy>  (9) 
91.90279128698694

>  <rmsd>  (9) 
2.51092

>  <sdf_rank>  (9) 
0

$$$$

     RDKit          3D

 59 63  0  0  0  0  0  0  0  0999 V2000
   16.9420  154.1213   26.8062 C   0  0  2  0  0  0  0  0  0  0  0  0
   16.5417  152.6884   26.9225 C   0  0  1  0  0  0  0  0  0  0  0  0
   15.1435  152.2916   27.4123 C   0  0  1  0  0  0  0  0  0  0  0  0
   14.1393  153.4290   27.8017 C   0  0  0  0  0  0  0  0  0  0  0  0
   14.4538  154.7656   27.1083 C   0  0  0  0  0  0  0  0  0  0  0  0
   15.9358  155.1795   27.2964 C   0  0  2  0  0  0  0  0  0  0  0  0
   13.9011  150.2001   26.7188 C   0  0  0  0  0  0  0  0  0  0  0  0
   13.2833  149.3758   25.7244 C   0  0  0  0  0  0  0  0  0  0  0  0
   13.1737  149.8089   24.3417 C   0  0  0  0  0  0  0  0  0  0  0  0
   14.4013  151.8267   25.0358 C   0  0  0  0  0  0  0  0  0  0  0  0
   14.4781  151.4526   26.3497 C   0  0  0  0  0  0  0  0  0  0  0  0
   12.4952  148.2794   26.1749 C   0  0  0  0  0  0  0  0  0  0  0  0
   15.3869  145.6496   23.0574 C   0  0  0  0  0  0  0  0  0  0  0  0
   16.4264  144.9623   23.9548 C   0  0  0  0  0  0  0  0  0  0  0  0
   16.6806  145.8787   25.1474 C   0  0  0  0  0  0  0  0  0  0  0  0
   15.4302  145.8406   26.0283 C   0  0  0  0  0  0  0  0  0  0  0  0
   14.3843  146.6447   25.2224 C   0  0  1  0  0  0  0  0  0  0  0  0
   14.0921  145.9205   23.8352 C   0  0  2  0  0  0  0  0  0  0  0  0
   13.0819  146.8414   26.0433 C   0  0  2  0  0  0  0  0  0  0  0  0
   12.0006  145.9141   25.3307 C   0  0  1  0  0  0  0  0  0  0  0  0
   13.5210  144.5861   24.0257 C   0  0  0  0  0  0  0  0  0  0  0  0
   12.6282  144.5817   24.9944 C   0  0  0  0  0  0  0  0  0  0  0  0
   10.6830  145.6028   26.1296 C   0  0  0  0  0  0  0  0  0  0  0  0
   13.7858  151.0418   24.0911 N   0  0  0  0  0  0  0  0  0  0  0  0
   12.6586  149.1662   23.3828 O   0  0  0  0  0  0  0  0  0  0  0  0
   13.9902  149.8174   27.9664 O   0  0  0  0  0  0  0  0  0  0  0  0
   11.5991  148.3882   27.0808 O   0  0  0  0  0  0  0  0  0  0  0  0
   16.4878  153.3384   25.5901 O   0  0  0  0  0  0  0  0  0  0  0  0
   16.0783  156.3621   26.4175 O   0  0  0  0  0  0  0  0  0  0  0  0
   15.3520  151.5573   28.6293 O   0  0  0  0  0  0  0  0  0  0  0  0
   17.8317  154.6965   27.1020 H   0  0  0  0  0  0  0  0  0  0  0  0
   17.0466  151.8417   27.4104 H   0  0  0  0  0  0  0  0  0  0  0  0
   13.1247  153.1150   27.5157 H   0  0  0  0  0  0  0  0  0  0  0  0
   14.2263  153.5903   28.8863 H   0  0  0  0  0  0  0  0  0  0  0  0
   14.2462  154.6658   26.0327 H   0  0  0  0  0  0  0  0  0  0  0  0
   13.8223  155.5427   27.5636 H   0  0  0  0  0  0  0  0  0  0  0  0
   16.1492  155.3397   28.3636 H   0  0  0  0  0  0  0  0  0  0  0  0
   14.8456  152.7843   24.7268 H   0  0  0  0  0  0  0  0  0  0  0  0
   15.7971  146.6041   22.6957 H   0  0  0  0  0  0  0  0  0  0  0  0
   15.1580  144.9866   22.2101 H   0  0  0  0  0  0  0  0  0  0  0  0
   16.0402  143.9926   24.3020 H   0  0  0  0  0  0  0  0  0  0  0  0
   17.3586  144.7818   23.3995 H   0  0  0  0  0  0  0  0  0  0  0  0
   17.5522  145.5226   25.7161 H   0  0  0  0  0  0  0  0  0  0  0  0
   16.8876  146.9054   24.8111 H   0  0  0  0  0  0  0  0  0  0  0  0
   15.0927  144.8054   26.1846 H   0  0  0  0  0  0  0  0  0  0  0  0
   15.6048  146.2566   27.0316 H   0  0  0  0  0  0  0  0  0  0  0  0
   14.7923  147.6443   25.0117 H   0  0  0  0  0  0  0  0  0  0  0  0
   13.4085  146.5996   23.3046 H   0  0  0  0  0  0  0  0  0  0  0  0
   13.3341  146.5919   27.0845 H   0  0  0  0  0  0  0  0  0  0  0  0
   11.6951  146.5077   24.4565 H   0  0  0  0  0  0  0  0  0  0  0  0
   13.8014  143.7009   23.4359 H   0  0  0  0  0  0  0  0  0  0  0  0
   12.3550  143.6596   25.5284 H   0  0  0  0  0  0  0  0  0  0  0  0
   10.8886  145.6514   27.2092 H   0  0  0  0  0  0  0  0  0  0  0  0
    9.9127  146.3437   25.8694 H   0  0  0  0  0  0  0  0  0  0  0  0
   10.3257  144.5955   25.8694 H   0  0  0  0  0  0  0  0  0  0  0  0
   13.7740  151.3886   23.1213 H   0  0  0  0  0  0  0  0  0  0  0  0
   14.4222  150.4059   28.6350 H   0  0  0  0  0  0  0  0  0  0  0  0
   16.1763  157.1759   26.9727 H   0  0  0  0  0  0  0  0  0  0  0  0
   15.1839  152.1493   29.4048 H   0  0  0  0  0  0  0  0  0  0  0  0
  1  2  1  0
  1  6  1  0
  1 28  1  0
  2  3  1  0
  2 28  1  0
  3  4  1  0
  3 11  1  0
  3 30  1  1
  4  5  1  0
  5  6  1  0
  6 29  1  0
  7  8  2  0
  7 11  1  0
  7 26  1  0
  8  9  1  0
  8 12  1  0
  9 24  1  0
  9 25  2  0
 10 11  2  0
 10 24  1  0
 19 12  1  0
 12 27  2  0
 13 14  1  0
 18 13  1  0
 14 15  1  0
 15 16  1  0
 17 16  1  0
 17 18  1  0
 17 19  1  0
 18 21  1  0
 19 20  1  0
 20 22  1  0
 20 23  1  0
 21 22  2  0
  1 31  1  6
  2 32  1  6
  4 33  1  0
  4 34  1  0
  5 35  1  0
  5 36  1  0
  6 37  1  1
 10 38  1  0
 13 39  1  0
 13 40  1  0
 14 41  1  0
 14 42  1  0
 15 43  1  0
 15 44  1  0
 16 45  1  0
 16 46  1  0
 17 47  1  6
 18 48  1  6
 19 49  1  1
 20 50  1  6
 21 51  1  0
 22 52  1  0
 23 53  1  0
 23 54  1  0
 23 55  1  0
 24 56  1  0
 26 57  1  0
 29 58  1  0
 30 59  1  0
M  END
>  <filename_input>  (10) 
7WUY_76N_docked.sdf

>  <pdb_id>  (10) 
7WUY_76N

>  <pose_rank>  (10) 
9

>  <num_atoms_heavy>  (10) 
30

>  <num_torsions>  (10) 
3

>  <pose>  (10) 
[13.90106499698427, 150.20006366274302, 26.718834837048313, 2.4275543096556547, -2.733495173229913, 4.474821711956437, 0.7499067597353744, -15.139406497525286, 9.176257289508138]

>  <energy>  (10) 
-750.5531938616369

>  <inter_energy>  (10) 
-824.9803480982355

>  <intra_energy>  (10) 
82.6444093871279

>  <rmsd>  (10) 
2.66895

>  <sdf_rank>  (10) 
0

$$$$

     RDKit          3D

 59 63  0  0  0  0  0  0  0  0999 V2000
   10.8026  144.0624   25.1747 C   0  0  2  0  0  0  0  0  0  0  0  0
   11.1120  145.3966   24.5822 C   0  0  1  0  0  0  0  0  0  0  0  0
   11.4384  146.6036   25.4702 C   0  0  1  0  0  0  0  0  0  0  0  0
   11.4301  146.4096   27.0246 C   0  0  0  0  0  0  0  0  0  0  0  0
   11.6723  144.9499   27.4449 C   0  0  0  0  0  0  0  0  0  0  0  0
   10.7204  143.9716   26.7101 C   0  0  2  0  0  0  0  0  0  0  0  0
   12.9519  148.5179   24.8036 C   0  0  0  0  0  0  0  0  0  0  0  0
   14.2310  149.0355   24.4218 C   0  0  0  0  0  0  0  0  0  0  0  0
   15.4094  148.1865   24.3753 C   0  0  0  0  0  0  0  0  0  0  0  0
   13.9136  146.3355   25.0052 C   0  0  0  0  0  0  0  0  0  0  0  0
   12.8017  147.1279   25.0928 C   0  0  0  0  0  0  0  0  0  0  0  0
   14.3910  150.4498   24.4061 C   0  0  0  0  0  0  0  0  0  0  0  0
   17.1261  153.9294   26.7317 C   0  0  0  0  0  0  0  0  0  0  0  0
   16.1095  154.9423   27.2784 C   0  0  0  0  0  0  0  0  0  0  0  0
   14.9238  154.9656   26.3193 C   0  0  0  0  0  0  0  0  0  0  0  0
   14.1725  153.6435   26.4884 C   0  0  0  0  0  0  0  0  0  0  0  0
   15.1020  152.6015   25.8249 C   0  0  1  0  0  0  0  0  0  0  0  0
   16.4906  152.5387   26.6009 C   0  0  2  0  0  0  0  0  0  0  0  0
   14.4223  151.2073   25.7680 C   0  0  2  0  0  0  0  0  0  0  0  0
   15.2136  150.3185   26.8265 C   0  0  1  0  0  0  0  0  0  0  0  0
   16.3209  152.1072   27.9895 C   0  0  0  0  0  0  0  0  0  0  0  0
   15.4473  151.1255   28.0820 C   0  0  0  0  0  0  0  0  0  0  0  0
   14.5430  148.9696   27.2761 C   0  0  0  0  0  0  0  0  0  0  0  0
   15.1431  146.8431   24.6615 N   0  0  0  0  0  0  0  0  0  0  0  0
   16.5810  148.5302   24.0477 O   0  0  0  0  0  0  0  0  0  0  0  0
   11.8922  149.2828   24.8576 O   0  0  0  0  0  0  0  0  0  0  0  0
   14.9727  151.0770   23.4554 O   0  0  0  0  0  0  0  0  0  0  0  0
   12.1852  144.3740   24.6370 O   0  0  0  0  0  0  0  0  0  0  0  0
   11.2292  142.6371   27.0995 O   0  0  0  0  0  0  0  0  0  0  0  0
   10.4006  147.5642   25.2174 O   0  0  0  0  0  0  0  0  0  0  0  0
   10.0258  143.3042   24.9962 H   0  0  0  0  0  0  0  0  0  0  0  0
   10.5704  145.9883   23.8295 H   0  0  0  0  0  0  0  0  0  0  0  0
   12.2212  147.0369   27.4612 H   0  0  0  0  0  0  0  0  0  0  0  0
   10.4329  146.6978   27.3887 H   0  0  0  0  0  0  0  0  0  0  0  0
   12.7120  144.6796   27.2084 H   0  0  0  0  0  0  0  0  0  0  0  0
   11.4774  144.8691   28.5244 H   0  0  0  0  0  0  0  0  0  0  0  0
    9.6762  144.1898   26.9785 H   0  0  0  0  0  0  0  0  0  0  0  0
   13.8204  145.2600   25.2163 H   0  0  0  0  0  0  0  0  0  0  0  0
   17.4715  154.2629   25.7421 H   0  0  0  0  0  0  0  0  0  0  0  0
   17.9731  153.8664   27.4308 H   0  0  0  0  0  0  0  0  0  0  0  0
   15.7758  154.6356   28.2807 H   0  0  0  0  0  0  0  0  0  0  0  0
   16.5629  155.9413   27.3582 H   0  0  0  0  0  0  0  0  0  0  0  0
   14.2604  155.8088   26.5620 H   0  0  0  0  0  0  0  0  0  0  0  0
   15.2664  155.0876   25.2811 H   0  0  0  0  0  0  0  0  0  0  0  0
   14.0219  153.4122   27.5532 H   0  0  0  0  0  0  0  0  0  0  0  0
   13.1689  153.6648   26.0385 H   0  0  0  0  0  0  0  0  0  0  0  0
   15.2987  152.9121   24.7882 H   0  0  0  0  0  0  0  0  0  0  0  0
   17.1062  151.8405   26.0149 H   0  0  0  0  0  0  0  0  0  0  0  0
   13.3543  151.3775   25.9693 H   0  0  0  0  0  0  0  0  0  0  0  0
   16.1306  150.0391   26.2869 H   0  0  0  0  0  0  0  0  0  0  0  0
   16.8543  152.5463   28.8455 H   0  0  0  0  0  0  0  0  0  0  0  0
   14.9177  150.9058   29.0208 H   0  0  0  0  0  0  0  0  0  0  0  0
   14.5186  148.9206   28.3748 H   0  0  0  0  0  0  0  0  0  0  0  0
   13.5163  148.9221   26.8841 H   0  0  0  0  0  0  0  0  0  0  0  0
   15.1248  148.1224   26.8841 H   0  0  0  0  0  0  0  0  0  0  0  0
   15.9315  146.1822   24.6104 H   0  0  0  0  0  0  0  0  0  0  0  0
   11.0189  148.9006   25.1246 H   0  0  0  0  0  0  0  0  0  0  0  0
   11.2551  142.5690   28.0869 H   0  0  0  0  0  0  0  0  0  0  0  0
   10.0416  147.8964   26.0781 H   0  0  0  0  0  0  0  0  0  0  0  0
  1  2  1  0
  1  6  1  0
  1 28  1  0
  2  3  1  0
  2 28  1  0
  3  4  1  0
  3 11  1  0
  3 30  1  1
  4  5  1  0
  5  6  1  0
  6 29  1  0
  7  8  2  0
  7 11  1  0
  7 26  1  0
  8  9  1  0
  8 12  1  0
  9 24  1  0
  9 25  2  0
 10 11  2  0
 10 24  1  0
 19 12  1  0
 12 27  2  0
 13 14  1  0
 18 13  1  0
 14 15  1  0
 15 16  1  0
 17 16  1  0
 17 18  1  0
 17 19  1  0
 18 21  1  0
 19 20  1  0
 20 22  1  0
 20 23  1  0
 21 22  2  0
  1 31  1  6
  2 32  1  6
  4 33  1  0
  4 34  1  0
  5 35  1  0
  5 36  1  0
  6 37  1  1
 10 38  1  0
 13 39  1  0
 13 40  1  0
 14 41  1  0
 14 42  1  0
 15 43  1  0
 15 44  1  0
 16 45  1  0
 16 46  1  0
 17 47  1  6
 18 48  1  6
 19 49  1  1
 20 50  1  6
 21 51  1  0
 22 52  1  0
 23 53  1  0
 23 54  1  0
 23 55  1  0
 24 56  1  0
 26 57  1  0
 29 58  1  0
 30 59  1  0
M  END
>  <filename_input>  (11) 
7WUY_76N_docked.sdf

>  <pdb_id>  (11) 
7WUY_76N

>  <pose_rank>  (11) 
10

>  <num_atoms_heavy>  (11) 
30

>  <num_torsions>  (11) 
3

>  <pose>  (11) 
[12.951866596155632, 148.51792721072422, 24.80359537712291, 1.903307637553201, -0.3996090872520891, -2.34557213968404, 0.7395650225949546, 0.4986617764781265, -0.4676080188519086]

>  <energy>  (11) 
-740.466083974885

>  <inter_energy>  (11) 
-898.6244801284896

>  <intra_energy>  (11) 
152.4578052174179

>  <rmsd>  (11) 
7.78924

>  <sdf_rank>  (11) 
0

$$$$

     RDKit          3D

 59 63  0  0  0  0  0  0  0  0999 V2000
   10.5568  144.2328   25.1523 C   0  0  2  0  0  0  0  0  0  0  0  0
   11.0241  145.6457   25.2633 C   0  0  1  0  0  0  0  0  0  0  0  0
   11.8285  146.1231   26.4787 C   0  0  1  0  0  0  0  0  0  0  0  0
   12.1433  145.0928   27.6158 C   0  0  0  0  0  0  0  0  0  0  0  0
   12.1251  143.6359   27.1225 C   0  0  0  0  0  0  0  0  0  0  0  0
   10.8221  143.3032   26.3514 C   0  0  2  0  0  0  0  0  0  0  0  0
   13.5852  147.9433   26.4911 C   0  0  0  0  0  0  0  0  0  0  0  0
   14.8229  148.4996   26.0346 C   0  0  0  0  0  0  0  0  0  0  0  0
   15.6866  147.7763   25.1167 C   0  0  0  0  0  0  0  0  0  0  0  0
   13.9542  146.0273   25.1050 C   0  0  0  0  0  0  0  0  0  0  0  0
   13.1476  146.6764   25.9994 C   0  0  0  0  0  0  0  0  0  0  0  0
   15.3427  149.6192   26.7433 C   0  0  0  0  0  0  0  0  0  0  0  0
   14.9511  154.4764   27.8616 C   0  0  0  0  0  0  0  0  0  0  0  0
   16.1396  155.1489   27.1593 C   0  0  0  0  0  0  0  0  0  0  0  0
   17.2823  154.1392   27.1229 C   0  0  0  0  0  0  0  0  0  0  0  0
   16.8988  153.0503   26.1188 C   0  0  0  0  0  0  0  0  0  0  0  0
   15.7889  152.2535   26.8422 C   0  0  1  0  0  0  0  0  0  0  0  0
   14.5374  153.1963   27.1234 C   0  0  2  0  0  0  0  0  0  0  0  0
   15.3803  151.0005   26.0222 C   0  0  2  0  0  0  0  0  0  0  0  0
   13.9223  151.3259   25.4698 C   0  0  1  0  0  0  0  0  0  0  0  0
   13.9391  153.6938   25.8833 C   0  0  0  0  0  0  0  0  0  0  0  0
   13.8845  152.7496   24.9662 C   0  0  0  0  0  0  0  0  0  0  0  0
   13.3770  150.4213   24.3055 C   0  0  0  0  0  0  0  0  0  0  0  0
   15.1522  146.5559   24.6893 N   0  0  0  0  0  0  0  0  0  0  0  0
   16.7911  148.1690   24.6437 O   0  0  0  0  0  0  0  0  0  0  0  0
   12.8119  148.5875   27.3266 O   0  0  0  0  0  0  0  0  0  0  0  0
   15.3316  149.7053   28.0192 O   0  0  0  0  0  0  0  0  0  0  0  0
   11.8057  144.6990   24.4305 O   0  0  0  0  0  0  0  0  0  0  0  0
   11.0774  141.9492   25.8101 O   0  0  0  0  0  0  0  0  0  0  0  0
   11.0185  147.1271   27.1108 O   0  0  0  0  0  0  0  0  0  0  0  0
    9.6030  143.7587   24.8777 H   0  0  0  0  0  0  0  0  0  0  0  0
   10.4756  146.5920   25.1468 H   0  0  0  0  0  0  0  0  0  0  0  0
   13.1409  145.3133   28.0234 H   0  0  0  0  0  0  0  0  0  0  0  0
   11.3586  145.1933   28.3801 H   0  0  0  0  0  0  0  0  0  0  0  0
   12.9844  143.4758   26.4547 H   0  0  0  0  0  0  0  0  0  0  0  0
   12.1784  142.9774   28.0021 H   0  0  0  0  0  0  0  0  0  0  0  0
    9.9538  143.4028   27.0193 H   0  0  0  0  0  0  0  0  0  0  0  0
   13.6338  145.0532   24.7068 H   0  0  0  0  0  0  0  0  0  0  0  0
   15.2380  154.2218   28.8926 H   0  0  0  0  0  0  0  0  0  0  0  0
   14.1006  155.1740   27.8630 H   0  0  0  0  0  0  0  0  0  0  0  0
   15.8580  155.4343   26.1350 H   0  0  0  0  0  0  0  0  0  0  0  0
   16.4436  156.0586   27.6979 H   0  0  0  0  0  0  0  0  0  0  0  0
   18.2115  154.6342   26.8041 H   0  0  0  0  0  0  0  0  0  0  0  0
   17.4500  153.7063   28.1201 H   0  0  0  0  0  0  0  0  0  0  0  0
   16.5186  153.4935   25.1867 H   0  0  0  0  0  0  0  0  0  0  0  0
   17.7528  152.4208   25.8282 H   0  0  0  0  0  0  0  0  0  0  0  0
   16.1793  151.8995   27.8077 H   0  0  0  0  0  0  0  0  0  0  0  0
   13.8432  152.5722   27.7054 H   0  0  0  0  0  0  0  0  0  0  0  0
   16.1698  150.8543   25.2704 H   0  0  0  0  0  0  0  0  0  0  0  0
   13.2741  151.1317   26.3371 H   0  0  0  0  0  0  0  0  0  0  0  0
   13.5813  154.7235   25.7362 H   0  0  0  0  0  0  0  0  0  0  0  0
   13.8152  152.9848   23.8938 H   0  0  0  0  0  0  0  0  0  0  0  0
   12.8532  149.5525   24.7307 H   0  0  0  0  0  0  0  0  0  0  0  0
   12.6789  151.0030   23.6855 H   0  0  0  0  0  0  0  0  0  0  0  0
   14.2172  150.0755   23.6855 H   0  0  0  0  0  0  0  0  0  0  0  0
   15.7005  146.0104   24.0091 H   0  0  0  0  0  0  0  0  0  0  0  0
   11.9608  148.1809   27.6272 H   0  0  0  0  0  0  0  0  0  0  0  0
   11.1975  141.3120   26.5582 H   0  0  0  0  0  0  0  0  0  0  0  0
   11.0903  147.0381   28.0942 H   0  0  0  0  0  0  0  0  0  0  0  0
  1  2  1  0
  1  6  1  0
  1 28  1  0
  2  3  1  0
  2 28  1  0
  3  4  1  0
  3 11  1  0
  3 30  1  1
  4  5  1  0
  5  6  1  0
  6 29  1  0
  7  8  2  0
  7 11  1  0
  7 26  1  0
  8  9  1  0
  8 12  1  0
  9 24  1  0
  9 25  2  0
 10 11  2  0
 10 24  1  0
 19 12  1  0
 12 27  2  0
 13 14  1  0
 18 13  1  0
 14 15  1  0
 15 16  1  0
 17 16  1  0
 17 18  1  0
 17 19  1  0
 18 21  1  0
 19 20  1  0
 20 22  1  0
 20 23  1  0
 21 22  2  0
  1 31  1  6
  2 32  1  6
  4 33  1  0
  4 34  1  0
  5 35  1  0
  5 36  1  0
  6 37  1  1
 10 38  1  0
 13 39  1  0
 13 40  1  0
 14 41  1  0
 14 42  1  0
 15 43  1  0
 15 44  1  0
 16 45  1  0
 16 46  1  0
 17 47  1  1
 18 48  1  1
 19 49  1  6
 20 50  1  1
 21 51  1  0
 22 52  1  0
 23 53  1  0
 23 54  1  0
 23 55  1  0
 24 56  1  0
 26 57  1  0
 29 58  1  0
 30 59  1  0
M  END
>  <filename_input>  (12) 
7WUY_76N_docked.sdf

>  <pdb_id>  (12) 
7WUY_76N

>  <pose_rank>  (12) 
11

>  <num_atoms_heavy>  (12) 
30

>  <num_torsions>  (12) 
3

>  <pose>  (12) 
[13.585187244945693, 147.94329781530138, 26.491141869874998, -1.2949893821610952, -0.19044548448533638, 2.4142551922081443, 0.8005493466316214, 3.594582932968119, 12.367537359220735]

>  <energy>  (12) 
-705.136951911165

>  <inter_energy>  (12) 
-812.5036077468679

>  <intra_energy>  (12) 
106.5638750973653

>  <rmsd>  (12) 
7.92357

>  <sdf_rank>  (12) 
0

$$$$

     RDKit          3D

 59 63  0  0  0  0  0  0  0  0999 V2000
   12.6842  145.2245   25.6518 C   0  0  2  0  0  0  0  0  0  0  0  0
   12.6251  146.2819   24.6005 C   0  0  1  0  0  0  0  0  0  0  0  0
   11.8971  147.6088   24.8486 C   0  0  1  0  0  0  0  0  0  0  0  0
   11.2018  147.8299   26.2348 C   0  0  0  0  0  0  0  0  0  0  0  0
   11.8144  146.9698   27.3533 C   0  0  0  0  0  0  0  0  0  0  0  0
   11.8980  145.4746   26.9525 C   0  0  2  0  0  0  0  0  0  0  0  0
   13.4874  149.3306   25.8001 C   0  0  0  0  0  0  0  0  0  0  0  0
   14.4016  150.4211   25.6420 C   0  0  0  0  0  0  0  0  0  0  0  0
   14.7731  150.9146   24.3268 C   0  0  0  0  0  0  0  0  0  0  0  0
   13.2051  149.2448   23.4249 C   0  0  0  0  0  0  0  0  0  0  0  0
   12.8744  148.7413   24.6533 C   0  0  0  0  0  0  0  0  0  0  0  0
   15.1832  150.7940   26.7717 C   0  0  0  0  0  0  0  0  0  0  0  0
   16.9447  155.3825   25.8553 C   0  0  0  0  0  0  0  0  0  0  0  0
   15.7072  156.2913   25.8279 C   0  0  0  0  0  0  0  0  0  0  0  0
   14.5391  155.4604   25.3067 C   0  0  0  0  0  0  0  0  0  0  0  0
   14.1678  154.4566   26.4001 C   0  0  0  0  0  0  0  0  0  0  0  0
   15.3269  153.4339   26.3733 C   0  0  1  0  0  0  0  0  0  0  0  0
   16.6974  154.1548   26.7422 C   0  0  2  0  0  0  0  0  0  0  0  0
   15.0394  152.2434   27.3267 C   0  0  2  0  0  0  0  0  0  0  0  0
   16.0582  152.4282   28.5369 C   0  0  1  0  0  0  0  0  0  0  0  0
   16.6751  154.7094   28.0969 C   0  0  0  0  0  0  0  0  0  0  0  0
   16.0944  153.8829   28.9426 C   0  0  0  0  0  0  0  0  0  0  0  0
   15.7773  151.6024   29.8448 C   0  0  0  0  0  0  0  0  0  0  0  0
   14.1015  150.2757   23.2788 N   0  0  0  0  0  0  0  0  0  0  0  0
   15.5598  151.8697   24.0680 O   0  0  0  0  0  0  0  0  0  0  0  0
   13.1608  148.8770   26.9826 O   0  0  0  0  0  0  0  0  0  0  0  0
   15.6093  149.9526   27.6354 O   0  0  0  0  0  0  0  0  0  0  0  0
   13.8493  146.1688   25.4306 O   0  0  0  0  0  0  0  0  0  0  0  0
   12.6703  144.8635   28.0577 O   0  0  0  0  0  0  0  0  0  0  0  0
   10.8251  147.6486   23.8930 O   0  0  0  0  0  0  0  0  0  0  0  0
   12.5251  144.1361   25.6562 H   0  0  0  0  0  0  0  0  0  0  0  0
   12.3351  146.2222   23.5411 H   0  0  0  0  0  0  0  0  0  0  0  0
   11.3007  148.8897   26.5124 H   0  0  0  0  0  0  0  0  0  0  0  0
   10.1482  147.5324   26.1278 H   0  0  0  0  0  0  0  0  0  0  0  0
   12.8284  147.3372   27.5696 H   0  0  0  0  0  0  0  0  0  0  0  0
   11.1664  147.0498   28.2386 H   0  0  0  0  0  0  0  0  0  0  0  0
   10.8876  145.0726   26.7865 H   0  0  0  0  0  0  0  0  0  0  0  0
   12.7395  148.8114   22.5275 H   0  0  0  0  0  0  0  0  0  0  0  0
   17.1701  155.0487   24.8317 H   0  0  0  0  0  0  0  0  0  0  0  0
   17.7916  155.9510   26.2670 H   0  0  0  0  0  0  0  0  0  0  0  0
   15.4861  156.6553   26.8421 H   0  0  0  0  0  0  0  0  0  0  0  0
   15.8814  157.1634   25.1805 H   0  0  0  0  0  0  0  0  0  0  0  0
   13.6810  156.1133   25.0886 H   0  0  0  0  0  0  0  0  0  0  0  0
   14.8168  154.9390   24.3788 H   0  0  0  0  0  0  0  0  0  0  0  0
   14.1046  154.9512   27.3806 H   0  0  0  0  0  0  0  0  0  0  0  0
   13.1858  153.9901   26.2326 H   0  0  0  0  0  0  0  0  0  0  0  0
   15.4141  153.0246   25.3560 H   0  0  0  0  0  0  0  0  0  0  0  0
   17.4644  153.3761   26.6182 H   0  0  0  0  0  0  0  0  0  0  0  0
   13.9686  152.2981   27.5726 H   0  0  0  0  0  0  0  0  0  0  0  0
   17.0057  152.0445   28.1306 H   0  0  0  0  0  0  0  0  0  0  0  0
   17.0898  155.6901   28.3730 H   0  0  0  0  0  0  0  0  0  0  0  0
   15.6602  154.2325   29.8909 H   0  0  0  0  0  0  0  0  0  0  0  0
   15.9897  152.2267   30.7253 H   0  0  0  0  0  0  0  0  0  0  0  0
   14.7226  151.2906   29.8622 H   0  0  0  0  0  0  0  0  0  0  0  0
   16.4232  150.7122   29.8622 H   0  0  0  0  0  0  0  0  0  0  0  0
   14.2943  150.6043   22.3219 H   0  0  0  0  0  0  0  0  0  0  0  0
   12.5262  148.1216   27.0650 H   0  0  0  0  0  0  0  0  0  0  0  0
   12.2960  145.1597   28.9250 H   0  0  0  0  0  0  0  0  0  0  0  0
    9.9585  147.6808   24.3704 H   0  0  0  0  0  0  0  0  0  0  0  0
  1  2  1  0
  1  6  1  0
  1 28  1  0
  2  3  1  0
  2 28  1  0
  3  4  1  0
  3 11  1  0
  3 30  1  6
  4  5  1  0
  5  6  1  0
  6 29  1  0
  7  8  2  0
  7 11  1  0
  7 26  1  0
  8  9  1  0
  8 12  1  0
  9 24  1  0
  9 25  2  0
 10 11  2  0
 10 24  1  0
 19 12  1  0
 12 27  2  0
 13 14  1  0
 18 13  1  0
 14 15  1  0
 15 16  1  0
 17 16  1  0
 17 18  1  0
 17 19  1  0
 18 21  1  0
 19 20  1  0
 20 22  1  0
 20 23  1  0
 21 22  2  0
  1 31  1  6
  2 32  1  6
  4 33  1  0
  4 34  1  0
  5 35  1  0
  5 36  1  0
  6 37  1  6
 10 38  1  0
 13 39  1  0
 13 40  1  0
 14 41  1  0
 14 42  1  0
 15 43  1  0
 15 44  1  0
 16 45  1  0
 16 46  1  0
 17 47  1  6
 18 48  1  1
 19 49  1  1
 20 50  1  6
 21 51  1  0
 22 52  1  0
 23 53  1  0
 23 54  1  0
 23 55  1  0
 24 56  1  0
 26 57  1  0
 29 58  1  0
 30 59  1  0
M  END
>  <filename_input>  (13) 
7WUY_76N_docked.sdf

>  <pdb_id>  (13) 
7WUY_76N

>  <pose_rank>  (13) 
12

>  <num_atoms_heavy>  (13) 
30

>  <num_torsions>  (13) 
3

>  <pose>  (13) 
[13.48744798341354, 149.33058692139875, 25.80008483259461, -0.37288116022092926, -1.142630619676607, 2.2307468176792136, 3.0541704855252982, -9.110818570434969, 2.057303033092791]

>  <energy>  (13) 
-639.1501669731483

>  <inter_energy>  (13) 
-803.2351010110092

>  <intra_energy>  (13) 
170.2439803973631

>  <rmsd>  (13) 
7.70344

>  <sdf_rank>  (13) 
0

$$$$

     RDKit          3D

 59 63  0  0  0  0  0  0  0  0999 V2000
   11.3275  144.7785   25.8802 C   0  0  2  0  0  0  0  0  0  0  0  0
   11.9708  145.9660   25.2454 C   0  0  1  0  0  0  0  0  0  0  0  0
   11.5680  147.3926   25.6387 C   0  0  1  0  0  0  0  0  0  0  0  0
   10.4512  147.5804   26.7210 C   0  0  0  0  0  0  0  0  0  0  0  0
   10.3167  146.3665   27.6562 C   0  0  0  0  0  0  0  0  0  0  0  0
   10.1730  145.0410   26.8654 C   0  0  2  0  0  0  0  0  0  0  0  0
   13.1721  149.3429   25.4902 C   0  0  0  0  0  0  0  0  0  0  0  0
   14.3430  150.0439   25.9232 C   0  0  0  0  0  0  0  0  0  0  0  0
   15.1354  149.5749   27.0473 C   0  0  0  0  0  0  0  0  0  0  0  0
   13.5731  147.6757   27.1599 C   0  0  0  0  0  0  0  0  0  0  0  0
   12.7929  148.1239   26.1292 C   0  0  0  0  0  0  0  0  0  0  0  0
   14.5291  151.3722   25.4465 C   0  0  0  0  0  0  0  0  0  0  0  0
   15.6593  156.0640   26.7527 C   0  0  0  0  0  0  0  0  0  0  0  0
   14.3997  156.8843   26.4390 C   0  0  0  0  0  0  0  0  0  0  0  0
   13.7145  156.2333   25.2418 C   0  0  0  0  0  0  0  0  0  0  0  0
   13.1161  154.9093   25.7213 C   0  0  0  0  0  0  0  0  0  0  0  0
   14.3480  153.9969   25.9218 C   0  0  1  0  0  0  0  0  0  0  0  0
   15.2961  154.6025   27.0481 C   0  0  2  0  0  0  0  0  0  0  0  0
   13.9150  152.5469   26.2665 C   0  0  2  0  0  0  0  0  0  0  0  0
   14.3014  152.3538   27.7995 C   0  0  1  0  0  0  0  0  0  0  0  0
   14.6251  154.6719   28.3473 C   0  0  0  0  0  0  0  0  0  0  0  0
   13.9083  153.5900   28.5738 C   0  0  0  0  0  0  0  0  0  0  0  0
   13.6647  151.1292   28.5520 C   0  0  0  0  0  0  0  0  0  0  0  0
   14.6819  148.3659   27.5861 N   0  0  0  0  0  0  0  0  0  0  0  0
   16.1854  150.1049   27.5104 O   0  0  0  0  0  0  0  0  0  0  0  0
   12.4507  149.7698   24.4861 O   0  0  0  0  0  0  0  0  0  0  0  0
   15.5166  151.7191   24.7116 O   0  0  0  0  0  0  0  0  0  0  0  0
   12.6800  145.2760   26.3506 O   0  0  0  0  0  0  0  0  0  0  0  0
   10.2474  144.0018   27.9170 O   0  0  0  0  0  0  0  0  0  0  0  0
   11.0248  147.9852   24.4481 O   0  0  0  0  0  0  0  0  0  0  0  0
   10.9096  143.8355   25.4981 H   0  0  0  0  0  0  0  0  0  0  0  0
   12.1310  146.2117   24.1852 H   0  0  0  0  0  0  0  0  0  0  0  0
   10.6946  148.4655   27.3270 H   0  0  0  0  0  0  0  0  0  0  0  0
    9.4940  147.6983   26.1919 H   0  0  0  0  0  0  0  0  0  0  0  0
   11.2125  146.3062   28.2917 H   0  0  0  0  0  0  0  0  0  0  0  0
    9.4089  146.5021   28.2624 H   0  0  0  0  0  0  0  0  0  0  0  0
    9.2511  145.0588   26.2655 H   0  0  0  0  0  0  0  0  0  0  0  0
   13.3045  146.7347   27.6623 H   0  0  0  0  0  0  0  0  0  0  0  0
   16.3379  156.0995   25.8877 H   0  0  0  0  0  0  0  0  0  0  0  0
   16.1484  156.4927   27.6398 H   0  0  0  0  0  0  0  0  0  0  0  0
   13.7234  156.8806   27.3065 H   0  0  0  0  0  0  0  0  0  0  0  0
   14.6635  157.9282   26.2138 H   0  0  0  0  0  0  0  0  0  0  0  0
   12.9181  156.8900   24.8615 H   0  0  0  0  0  0  0  0  0  0  0  0
   14.4345  156.0620   24.4280 H   0  0  0  0  0  0  0  0  0  0  0  0
   12.5716  155.0456   26.6673 H   0  0  0  0  0  0  0  0  0  0  0  0
   12.3884  154.4902   25.0109 H   0  0  0  0  0  0  0  0  0  0  0  0
   14.9137  153.9542   24.9794 H   0  0  0  0  0  0  0  0  0  0  0  0
   16.1728  153.9382   27.0614 H   0  0  0  0  0  0  0  0  0  0  0  0
   12.8461  152.4775   26.0162 H   0  0  0  0  0  0  0  0  0  0  0  0
   15.3841  152.1624   27.7652 H   0  0  0  0  0  0  0  0  0  0  0  0
   14.7087  155.5184   29.0447 H   0  0  0  0  0  0  0  0  0  0  0  0
   13.0707  153.5869   29.2868 H   0  0  0  0  0  0  0  0  0  0  0  0
   13.7452  151.2841   29.6381 H   0  0  0  0  0  0  0  0  0  0  0  0
   12.6048  151.0377   28.2723 H   0  0  0  0  0  0  0  0  0  0  0  0
   14.1986  150.2091   28.2723 H   0  0  0  0  0  0  0  0  0  0  0  0
   15.2222  147.9612   28.3640 H   0  0  0  0  0  0  0  0  0  0  0  0
   11.6453  149.2669   24.2061 H   0  0  0  0  0  0  0  0  0  0  0  0
   10.2166  144.4315   28.8084 H   0  0  0  0  0  0  0  0  0  0  0  0
   10.3773  148.6916   24.6970 H   0  0  0  0  0  0  0  0  0  0  0  0
  1  2  1  0
  1  6  1  0
  1 28  1  0
  2  3  1  0
  2 28  1  0
  3  4  1  0
  3 11  1  0
  3 30  1  6
  4  5  1  0
  5  6  1  0
  6 29  1  0
  7  8  2  0
  7 11  1  0
  7 26  1  0
  8  9  1  0
  8 12  1  0
  9 24  1  0
  9 25  2  0
 10 11  2  0
 10 24  1  0
 19 12  1  0
 12 27  2  0
 13 14  1  0
 18 13  1  0
 14 15  1  0
 15 16  1  0
 17 16  1  0
 17 18  1  0
 17 19  1  0
 18 21  1  0
 19 20  1  0
 20 22  1  0
 20 23  1  0
 21 22  2  0
  1 31  1  6
  2 32  1  6
  4 33  1  0
  4 34  1  0
  5 35  1  0
  5 36  1  0
  6 37  1  6
 10 38  1  0
 13 39  1  0
 13 40  1  0
 14 41  1  0
 14 42  1  0
 15 43  1  0
 15 44  1  0
 16 45  1  0
 16 46  1  0
 17 47  1  6
 18 48  1  1
 19 49  1  1
 20 50  1  6
 21 51  1  0
 22 52  1  0
 23 53  1  0
 23 54  1  0
 23 55  1  0
 24 56  1  0
 26 57  1  0
 29 58  1  0
 30 59  1  0
M  END
>  <filename_input>  (14) 
7WUY_76N_docked.sdf

>  <pdb_id>  (14) 
7WUY_76N

>  <pose_rank>  (14) 
13

>  <num_atoms_heavy>  (14) 
30

>  <num_torsions>  (14) 
3

>  <pose>  (14) 
[13.172100738919568, 149.34294691843053, 25.490163797861886, -3.0299690496050697, 0.8818914045745186, 1.443210443966926, 0.6477633967801029, 0.8196405616943157, -0.28776523549044497]

>  <energy>  (14) 
-556.2302619291004

>  <inter_energy>  (14) 
-737.0063852341772

>  <intra_energy>  (14) 
188.51932042950492

>  <rmsd>  (14) 
8.05071

>  <sdf_rank>  (14) 
0

$$$$

     RDKit          3D

 59 63  0  0  0  0  0  0  0  0999 V2000
   10.9815  143.8044   24.6226 C   0  0  2  0  0  0  0  0  0  0  0  0
   11.3879  145.2217   24.3929 C   0  0  1  0  0  0  0  0  0  0  0  0
   11.0682  146.3159   25.4188 C   0  0  1  0  0  0  0  0  0  0  0  0
   10.2908  145.9152   26.7184 C   0  0  0  0  0  0  0  0  0  0  0  0
   10.4570  144.4291   27.0786 C   0  0  0  0  0  0  0  0  0  0  0  0
   10.1386  143.5039   25.8763 C   0  0  2  0  0  0  0  0  0  0  0  0
   12.4555  148.3894   25.8377 C   0  0  0  0  0  0  0  0  0  0  0  0
   13.6772  149.0282   26.2241 C   0  0  0  0  0  0  0  0  0  0  0  0
   14.8188  148.2609   26.6926 C   0  0  0  0  0  0  0  0  0  0  0  0
   13.4569  146.2566   26.2585 C   0  0  0  0  0  0  0  0  0  0  0  0
   12.3590  146.9651   25.8527 C   0  0  0  0  0  0  0  0  0  0  0  0
   13.6427  150.4331   26.4500 C   0  0  0  0  0  0  0  0  0  0  0  0
   15.4136  154.7472   28.2524 C   0  0  0  0  0  0  0  0  0  0  0  0
   16.6658  154.3652   29.0550 C   0  0  0  0  0  0  0  0  0  0  0  0
   16.4358  152.9703   29.6277 C   0  0  0  0  0  0  0  0  0  0  0  0
   16.4957  151.9814   28.4618 C   0  0  0  0  0  0  0  0  0  0  0  0
   15.1783  152.2344   27.6932 C   0  0  1  0  0  0  0  0  0  0  0  0
   15.1503  153.7259   27.1377 C   0  0  2  0  0  0  0  0  0  0  0  0
   14.9953  151.2013   26.5494 C   0  0  2  0  0  0  0  0  0  0  0  0
   15.2098  152.0298   25.2062 C   0  0  1  0  0  0  0  0  0  0  0  0
   16.2324  153.9735   26.1833 C   0  0  0  0  0  0  0  0  0  0  0  0
   16.3967  152.9500   25.3703 C   0  0  0  0  0  0  0  0  0  0  0  0
   15.4543  151.2096   23.8876 C   0  0  0  0  0  0  0  0  0  0  0  0
   14.6183  146.8769   26.6509 N   0  0  0  0  0  0  0  0  0  0  0  0
   15.9433  148.7139   27.0508 O   0  0  0  0  0  0  0  0  0  0  0  0
   11.4226  149.0788   25.4269 O   0  0  0  0  0  0  0  0  0  0  0  0
   12.6557  151.1718   26.1098 O   0  0  0  0  0  0  0  0  0  0  0  0
   12.3961  144.2657   24.9125 O   0  0  0  0  0  0  0  0  0  0  0  0
   10.5326  142.1614   26.3597 O   0  0  0  0  0  0  0  0  0  0  0  0
   10.1985  147.2392   24.7442 O   0  0  0  0  0  0  0  0  0  0  0  0
   10.5019  143.0328   24.0024 H   0  0  0  0  0  0  0  0  0  0  0  0
   11.2401  145.8762   23.5212 H   0  0  0  0  0  0  0  0  0  0  0  0
   10.6665  146.5236   27.5543 H   0  0  0  0  0  0  0  0  0  0  0  0
    9.2213  146.0931   26.5324 H   0  0  0  0  0  0  0  0  0  0  0  0
   11.4954  144.2543   27.3967 H   0  0  0  0  0  0  0  0  0  0  0  0
    9.7496  144.1931   27.8873 H   0  0  0  0  0  0  0  0  0  0  0  0
    9.0863  143.6227   25.5785 H   0  0  0  0  0  0  0  0  0  0  0  0
   13.4083  145.1578   26.2710 H   0  0  0  0  0  0  0  0  0  0  0  0
   14.5463  154.7754   28.9284 H   0  0  0  0  0  0  0  0  0  0  0  0
   15.5743  155.7350   27.7958 H   0  0  0  0  0  0  0  0  0  0  0  0
   17.5468  154.3601   28.3964 H   0  0  0  0  0  0  0  0  0  0  0  0
   16.8447  155.0906   29.8622 H   0  0  0  0  0  0  0  0  0  0  0  0
   17.2182  152.7322   30.3633 H   0  0  0  0  0  0  0  0  0  0  0  0
   15.4612  152.9145   30.1347 H   0  0  0  0  0  0  0  0  0  0  0  0
   17.3673  152.1829   27.8218 H   0  0  0  0  0  0  0  0  0  0  0  0
   16.5994  150.9381   28.7947 H   0  0  0  0  0  0  0  0  0  0  0  0
   14.3341  152.1075   28.3868 H   0  0  0  0  0  0  0  0  0  0  0  0
   14.1545  153.8357   26.6835 H   0  0  0  0  0  0  0  0  0  0  0  0
   15.7136  150.3922   26.7482 H   0  0  0  0  0  0  0  0  0  0  0  0
   14.2479  152.5461   25.0713 H   0  0  0  0  0  0  0  0  0  0  0  0
   16.8314  154.8955   26.1494 H   0  0  0  0  0  0  0  0  0  0  0  0
   17.3448  152.7752   24.8407 H   0  0  0  0  0  0  0  0  0  0  0  0
   15.7599  150.1847   24.1446 H   0  0  0  0  0  0  0  0  0  0  0  0
   14.5264  151.1786   23.2977 H   0  0  0  0  0  0  0  0  0  0  0  0
   16.2478  151.6917   23.2977 H   0  0  0  0  0  0  0  0  0  0  0  0
   15.4038  146.2752   26.9370 H   0  0  0  0  0  0  0  0  0  0  0  0
   10.5890  148.6132   25.1654 H   0  0  0  0  0  0  0  0  0  0  0  0
   10.5346  142.1546   27.3497 H   0  0  0  0  0  0  0  0  0  0  0  0
    9.6982  147.7704   25.4133 H   0  0  0  0  0  0  0  0  0  0  0  0
  1  2  1  0
  1  6  1  0
  1 28  1  0
  2  3  1  0
  2 28  1  0
  3  4  1  0
  3 11  1  0
  3 30  1  6
  4  5  1  0
  5  6  1  0
  6 29  1  0
  7  8  2  0
  7 11  1  0
  7 26  1  0
  8  9  1  0
  8 12  1  0
  9 24  1  0
  9 25  2  0
 10 11  2  0
 10 24  1  0
 19 12  1  0
 12 27  2  0
 13 14  1  0
 18 13  1  0
 14 15  1  0
 15 16  1  0
 17 16  1  0
 17 18  1  0
 17 19  1  0
 18 21  1  0
 19 20  1  0
 20 22  1  0
 20 23  1  0
 21 22  2  0
  1 31  1  6
  2 32  1  6
  4 33  1  0
  4 34  1  0
  5 35  1  0
  5 36  1  0
  6 37  1  6
 10 38  1  0
 13 39  1  0
 13 40  1  0
 14 41  1  0
 14 42  1  0
 15 43  1  0
 15 44  1  0
 16 45  1  0
 16 46  1  0
 17 47  1  1
 18 48  1  6
 19 49  1  1
 20 50  1  6
 21 51  1  0
 22 52  1  0
 23 53  1  0
 23 54  1  0
 23 55  1  0
 24 56  1  0
 26 57  1  0
 29 58  1  0
 30 59  1  0
M  END
>  <filename_input>  (15) 
7WUY_76N_docked.sdf

>  <pdb_id>  (15) 
7WUY_76N

>  <pose_rank>  (15) 
14

>  <num_atoms_heavy>  (15) 
30

>  <num_torsions>  (15) 
3

>  <pose>  (15) 
[12.45545135454618, 148.38940448983195, 25.83772651005486, -2.5529134431711222, 0.17270605173983813, 1.832747813792006, 0.7697070886690024, -3.6349075658845886, 0.714451849736509]

>  <energy>  (15) 
-688.4333725685766

>  <inter_energy>  (15) 
-788.8000541753198

>  <intra_energy>  (15) 
112.50484436122926

>  <rmsd>  (15) 
8.18098

>  <sdf_rank>  (15) 
0

$$$$

     RDKit          3D

 59 63  0  0  0  0  0  0  0  0999 V2000
   14.5144  145.4870   24.4697 C   0  0  2  0  0  0  0  0  0  0  0  0
   13.2186  146.2272   24.4783 C   0  0  1  0  0  0  0  0  0  0  0  0
   12.7223  146.9450   25.7394 C   0  0  1  0  0  0  0  0  0  0  0  0
   13.6042  146.8765   27.0322 C   0  0  0  0  0  0  0  0  0  0  0  0
   15.0888  146.6126   26.7282 C   0  0  0  0  0  0  0  0  0  0  0  0
   15.2796  145.3838   25.8025 C   0  0  2  0  0  0  0  0  0  0  0  0
   13.5594  149.3321   25.7124 C   0  0  0  0  0  0  0  0  0  0  0  0
   13.3785  150.7250   25.4354 C   0  0  0  0  0  0  0  0  0  0  0  0
   12.1695  151.2211   24.7998 C   0  0  0  0  0  0  0  0  0  0  0  0
   11.3681  148.8940   24.8550 C   0  0  0  0  0  0  0  0  0  0  0  0
   12.5156  148.4041   25.4164 C   0  0  0  0  0  0  0  0  0  0  0  0
   14.5278  151.5627   25.4942 C   0  0  0  0  0  0  0  0  0  0  0  0
   16.5211  156.1440   25.6802 C   0  0  0  0  0  0  0  0  0  0  0  0
   15.3346  157.0908   25.9124 C   0  0  0  0  0  0  0  0  0  0  0  0
   14.1148  156.4719   25.2375 C   0  0  0  0  0  0  0  0  0  0  0  0
   13.7072  155.2489   26.0617 C   0  0  0  0  0  0  0  0  0  0  0  0
   14.8084  154.2091   25.7513 C   0  0  1  0  0  0  0  0  0  0  0  0
   16.2218  154.7492   26.2458 C   0  0  2  0  0  0  0  0  0  0  0  0
   14.4720  152.8359   26.3916 C   0  0  2  0  0  0  0  0  0  0  0  0
   15.5188  152.6669   27.5801 C   0  0  1  0  0  0  0  0  0  0  0  0
   16.2516  154.9534   27.6951 C   0  0  0  0  0  0  0  0  0  0  0  0
   15.6406  153.9733   28.3288 C   0  0  0  0  0  0  0  0  0  0  0  0
   15.2146  151.5590   28.6531 C   0  0  0  0  0  0  0  0  0  0  0  0
   11.2105  150.2286   24.5696 N   0  0  0  0  0  0  0  0  0  0  0  0
   11.8989  152.4226   24.5154 O   0  0  0  0  0  0  0  0  0  0  0  0
   14.6517  148.8819   26.2736 O   0  0  0  0  0  0  0  0  0  0  0  0
   15.7144  151.1375   25.2782 O   0  0  0  0  0  0  0  0  0  0  0  0
   14.4163  146.8919   23.9088 O   0  0  0  0  0  0  0  0  0  0  0  0
   16.7247  145.4130   25.4833 O   0  0  0  0  0  0  0  0  0  0  0  0
   11.4948  146.2919   26.1008 O   0  0  0  0  0  0  0  0  0  0  0  0
   14.8322  144.4992   24.1046 H   0  0  0  0  0  0  0  0  0  0  0  0
   12.2140  145.9149   24.1568 H   0  0  0  0  0  0  0  0  0  0  0  0
   13.5198  147.8345   27.5663 H   0  0  0  0  0  0  0  0  0  0  0  0
   13.2364  146.0365   27.6397 H   0  0  0  0  0  0  0  0  0  0  0  0
   15.5139  147.4990   26.2347 H   0  0  0  0  0  0  0  0  0  0  0  0
   15.6001  146.4053   27.6798 H   0  0  0  0  0  0  0  0  0  0  0  0
   14.9114  144.4756   26.3022 H   0  0  0  0  0  0  0  0  0  0  0  0
   10.5473  148.1987   24.6252 H   0  0  0  0  0  0  0  0  0  0  0  0
   16.7115  156.0622   24.5999 H   0  0  0  0  0  0  0  0  0  0  0  0
   17.4042  156.5516   26.1940 H   0  0  0  0  0  0  0  0  0  0  0  0
   15.1500  157.2040   26.9909 H   0  0  0  0  0  0  0  0  0  0  0  0
   15.5455  158.0859   25.4939 H   0  0  0  0  0  0  0  0  0  0  0  0
   13.2901  157.1993   25.2112 H   0  0  0  0  0  0  0  0  0  0  0  0
   14.3487  156.1823   24.2024 H   0  0  0  0  0  0  0  0  0  0  0  0
   13.6868  155.4891   27.1349 H   0  0  0  0  0  0  0  0  0  0  0  0
   12.6987  154.8865   25.8135 H   0  0  0  0  0  0  0  0  0  0  0  0
   14.8568  154.0593   24.6626 H   0  0  0  0  0  0  0  0  0  0  0  0
   16.9432  153.9886   25.9124 H   0  0  0  0  0  0  0  0  0  0  0  0
   13.4099  152.8804   26.6744 H   0  0  0  0  0  0  0  0  0  0  0  0
   16.4373  152.3494   27.0648 H   0  0  0  0  0  0  0  0  0  0  0  0
   16.7235  155.8143   28.1912 H   0  0  0  0  0  0  0  0  0  0  0  0
   15.2414  154.0991   29.3461 H   0  0  0  0  0  0  0  0  0  0  0  0
   15.3311  151.9833   29.6613 H   0  0  0  0  0  0  0  0  0  0  0  0
   14.1838  151.1971   28.5245 H   0  0  0  0  0  0  0  0  0  0  0  0
   15.9160  150.7215   28.5245 H   0  0  0  0  0  0  0  0  0  0  0  0
   10.3153  150.5219   24.1532 H   0  0  0  0  0  0  0  0  0  0  0  0
   14.7524  147.9138   26.4547 H   0  0  0  0  0  0  0  0  0  0  0  0
   17.2482  145.4236   26.3235 H   0  0  0  0  0  0  0  0  0  0  0  0
   11.4202  146.2522   27.0872 H   0  0  0  0  0  0  0  0  0  0  0  0
  1  2  1  0
  1  6  1  0
  1 28  1  0
  2  3  1  0
  2 28  1  0
  3  4  1  0
  3 11  1  0
  3 30  1  1
  4  5  1  0
  5  6  1  0
  6 29  1  0
  7  8  2  0
  7 11  1  0
  7 26  1  0
  8  9  1  0
  8 12  1  0
  9 24  1  0
  9 25  2  0
 10 11  2  0
 10 24  1  0
 19 12  1  0
 12 27  2  0
 13 14  1  0
 18 13  1  0
 14 15  1  0
 15 16  1  0
 17 16  1  0
 17 18  1  0
 17 19  1  0
 18 21  1  0
 19 20  1  0
 20 22  1  0
 20 23  1  0
 21 22  2  0
  1 31  1  6
  2 32  1  6
  4 33  1  0
  4 34  1  0
  5 35  1  0
  5 36  1  0
  6 37  1  1
 10 38  1  0
 13 39  1  0
 13 40  1  0
 14 41  1  0
 14 42  1  0
 15 43  1  0
 15 44  1  0
 16 45  1  0
 16 46  1  0
 17 47  1  6
 18 48  1  1
 19 49  1  1
 20 50  1  6
 21 51  1  0
 22 52  1  0
 23 53  1  0
 23 54  1  0
 23 55  1  0
 24 56  1  0
 26 57  1  0
 29 58  1  0
 30 59  1  0
M  END
>  <filename_input>  (16) 
7WUY_76N_docked.sdf

>  <pdb_id>  (16) 
7WUY_76N

>  <pose_rank>  (16) 
15

>  <num_atoms_heavy>  (16) 
30

>  <num_torsions>  (16) 
3

>  <pose>  (16) 
[13.559367555714799, 149.33205679919513, 25.71240301019785, -1.7832804851065038, 1.2310866938588598, -2.953952424987149, 3.1090922854730674, 3.3359583643528827, 0.8713766540364223]

>  <energy>  (16) 
-607.4250027957698

>  <inter_energy>  (16) 
-742.7226829242891

>  <intra_energy>  (16) 
128.3739909754732

>  <rmsd>  (16) 
7.7599

>  <sdf_rank>  (16) 
0

$$$$

     RDKit          3D

 59 63  0  0  0  0  0  0  0  0999 V2000
   10.7290  144.2311   25.6828 C   0  0  2  0  0  0  0  0  0  0  0  0
   11.0768  145.4680   26.4418 C   0  0  1  0  0  0  0  0  0  0  0  0
   12.4010  146.2026   26.1993 C   0  0  1  0  0  0  0  0  0  0  0  0
   13.3944  145.6183   25.1384 C   0  0  0  0  0  0  0  0  0  0  0  0
   12.6936  144.7495   24.0800 C   0  0  0  0  0  0  0  0  0  0  0  0
   11.7948  143.6643   24.7261 C   0  0  2  0  0  0  0  0  0  0  0  0
   13.1515  148.5883   25.8192 C   0  0  0  0  0  0  0  0  0  0  0  0
   12.8849  149.9483   25.4596 C   0  0  0  0  0  0  0  0  0  0  0  0
   11.5697  150.3693   25.0075 C   0  0  0  0  0  0  0  0  0  0  0  0
   10.8575  148.0463   25.4037 C   0  0  0  0  0  0  0  0  0  0  0  0
   12.0991  147.6239   25.7935 C   0  0  0  0  0  0  0  0  0  0  0  0
   14.0022  150.8028   25.2419 C   0  0  0  0  0  0  0  0  0  0  0  0
   17.0607  154.6616   26.1090 C   0  0  0  0  0  0  0  0  0  0  0  0
   16.2931  155.5753   27.0755 C   0  0  0  0  0  0  0  0  0  0  0  0
   14.8071  155.4252   26.7661 C   0  0  0  0  0  0  0  0  0  0  0  0
   14.3791  154.0350   27.2407 C   0  0  0  0  0  0  0  0  0  0  0  0
   15.0202  153.0778   26.2098 C   0  0  1  0  0  0  0  0  0  0  0  0
   16.6062  153.2040   26.2628 C   0  0  2  0  0  0  0  0  0  0  0  0
   14.5609  151.6147   26.4495 C   0  0  2  0  0  0  0  0  0  0  0  0
   15.8475  150.8653   27.0149 C   0  0  1  0  0  0  0  0  0  0  0  0
   17.1415  152.8140   27.5684 C   0  0  0  0  0  0  0  0  0  0  0  0
   16.5302  151.7448   28.0359 C   0  0  0  0  0  0  0  0  0  0  0  0
   15.6218  149.4692   27.7014 C   0  0  0  0  0  0  0  0  0  0  0  0
   10.6141  149.3477   25.0369 N   0  0  0  0  0  0  0  0  0  0  0  0
   11.2190  151.5368   24.6731 O   0  0  0  0  0  0  0  0  0  0  0  0
   14.3376  148.2048   26.2151 O   0  0  0  0  0  0  0  0  0  0  0  0
   14.8582  150.6109   24.3113 O   0  0  0  0  0  0  0  0  0  0  0  0
   10.1702  145.5793   25.2729 O   0  0  0  0  0  0  0  0  0  0  0  0
   11.0804  143.0751   23.5712 O   0  0  0  0  0  0  0  0  0  0  0  0
   13.1161  146.1357   27.4435 O   0  0  0  0  0  0  0  0  0  0  0  0
   10.3235  143.2473   25.9618 H   0  0  0  0  0  0  0  0  0  0  0  0
   11.0625  145.6721   27.5226 H   0  0  0  0  0  0  0  0  0  0  0  0
   13.8971  146.4543   24.6299 H   0  0  0  0  0  0  0  0  0  0  0  0
   14.1096  144.9761   25.6730 H   0  0  0  0  0  0  0  0  0  0  0  0
   12.0699  145.3962   23.4452 H   0  0  0  0  0  0  0  0  0  0  0  0
   13.4691  144.2418   23.4878 H   0  0  0  0  0  0  0  0  0  0  0  0
   12.4091  142.9723   25.3209 H   0  0  0  0  0  0  0  0  0  0  0  0
   10.0295  147.3224   25.3834 H   0  0  0  0  0  0  0  0  0  0  0  0
   16.8741  154.9908   25.0761 H   0  0  0  0  0  0  0  0  0  0  0  0
   18.1341  154.7235   26.3416 H   0  0  0  0  0  0  0  0  0  0  0  0
   16.4926  155.2747   28.1146 H   0  0  0  0  0  0  0  0  0  0  0  0
   16.6103  156.6215   26.9537 H   0  0  0  0  0  0  0  0  0  0  0  0
   14.2323  156.1976   27.2982 H   0  0  0  0  0  0  0  0  0  0  0  0
   14.6210  155.5420   25.6883 H   0  0  0  0  0  0  0  0  0  0  0  0
   14.7596  153.8324   28.2527 H   0  0  0  0  0  0  0  0  0  0  0  0
   13.2863  153.9245   27.3005 H   0  0  0  0  0  0  0  0  0  0  0  0
   14.6837  153.3655   25.2028 H   0  0  0  0  0  0  0  0  0  0  0  0
   16.9650  152.5560   25.4496 H   0  0  0  0  0  0  0  0  0  0  0  0
   13.6907  151.6717   27.1200 H   0  0  0  0  0  0  0  0  0  0  0  0
   16.4432  150.6689   26.1112 H   0  0  0  0  0  0  0  0  0  0  0  0
   17.9501  153.3454   28.0917 H   0  0  0  0  0  0  0  0  0  0  0  0
   16.5177  151.5058   29.1096 H   0  0  0  0  0  0  0  0  0  0  0  0
   15.6415  149.5907   28.7945 H   0  0  0  0  0  0  0  0  0  0  0  0
   14.6464  149.0633   27.3950 H   0  0  0  0  0  0  0  0  0  0  0  0
   16.4197  148.7767   27.3950 H   0  0  0  0  0  0  0  0  0  0  0  0
    9.6518  149.5906   24.7616 H   0  0  0  0  0  0  0  0  0  0  0  0
   14.4962  147.2583   26.4583 H   0  0  0  0  0  0  0  0  0  0  0  0
   10.3593  142.4805   23.8976 H   0  0  0  0  0  0  0  0  0  0  0  0
   12.4755  146.1956   28.1959 H   0  0  0  0  0  0  0  0  0  0  0  0
  1  2  1  0
  1  6  1  0
  1 28  1  0
  2  3  1  0
  2 28  1  0
  3  4  1  0
  3 11  1  0
  3 30  1  1
  4  5  1  0
  5  6  1  0
  6 29  1  0
  7  8  2  0
  7 11  1  0
  7 26  1  0
  8  9  1  0
  8 12  1  0
  9 24  1  0
  9 25  2  0
 10 11  2  0
 10 24  1  0
 19 12  1  0
 12 27  2  0
 13 14  1  0
 18 13  1  0
 14 15  1  0
 15 16  1  0
 17 16  1  0
 17 18  1  0
 17 19  1  0
 18 21  1  0
 19 20  1  0
 20 22  1  0
 20 23  1  0
 21 22  2  0
  1 31  1  1
  2 32  1  1
  4 33  1  0
  4 34  1  0
  5 35  1  0
  5 36  1  0
  6 37  1  1
 10 38  1  0
 13 39  1  0
 13 40  1  0
 14 41  1  0
 14 42  1  0
 15 43  1  0
 15 44  1  0
 16 45  1  0
 16 46  1  0
 17 47  1  6
 18 48  1  6
 19 49  1  1
 20 50  1  6
 21 51  1  0
 22 52  1  0
 23 53  1  0
 23 54  1  0
 23 55  1  0
 24 56  1  0
 26 57  1  0
 29 58  1  0
 30 59  1  0
M  END
>  <filename_input>  (17) 
7WUY_76N_docked.sdf

>  <pdb_id>  (17) 
7WUY_76N

>  <pose_rank>  (17) 
16

>  <num_atoms_heavy>  (17) 
30

>  <num_torsions>  (17) 
3

>  <pose>  (17) 
[13.151473178208489, 148.5883351549852, 25.819243022152058, -2.075710656772931, 1.0239267658559006, -2.9465049982910774, 1.3827815697909158, 3.9620273788762845, 0.6171617215732108]

>  <energy>  (17) 
-705.7243169545072

>  <inter_energy>  (17) 
-822.0837053869166

>  <intra_energy>  (17) 
128.02469311278543

>  <rmsd>  (17) 
8.06815

>  <sdf_rank>  (17) 
0

$$$$

     RDKit          3D

 59 63  0  0  0  0  0  0  0  0999 V2000
   21.7836  143.2816   25.0704 C   0  0  2  0  0  0  0  0  0  0  0  0
   20.7399  144.2960   25.3999 C   0  0  1  0  0  0  0  0  0  0  0  0
   20.0635  145.1253   24.3013 C   0  0  1  0  0  0  0  0  0  0  0  0
   20.5009  144.8924   22.8153 C   0  0  0  0  0  0  0  0  0  0  0  0
   21.1034  143.4963   22.5827 C   0  0  0  0  0  0  0  0  0  0  0  0
   22.2286  143.1758   23.5996 C   0  0  2  0  0  0  0  0  0  0  0  0
   17.8230  145.5361   25.4017 C   0  0  0  0  0  0  0  0  0  0  0  0
   16.4116  145.3172   25.5007 C   0  0  0  0  0  0  0  0  0  0  0  0
   15.7017  144.4975   24.5333 C   0  0  0  0  0  0  0  0  0  0  0  0
   17.8957  144.0961   23.4913 C   0  0  0  0  0  0  0  0  0  0  0  0
   18.5739  144.8965   24.3696 C   0  0  0  0  0  0  0  0  0  0  0  0
   15.6714  146.1733   26.3639 C   0  0  0  0  0  0  0  0  0  0  0  0
   15.0195  150.8088   24.6079 C   0  0  0  0  0  0  0  0  0  0  0  0
   14.3113  150.6323   23.2568 C   0  0  0  0  0  0  0  0  0  0  0  0
   14.7826  149.3096   22.6611 C   0  0  0  0  0  0  0  0  0  0  0  0
   14.1597  148.1858   23.4919 C   0  0  0  0  0  0  0  0  0  0  0  0
   14.9407  148.2342   24.8253 C   0  0  1  0  0  0  0  0  0  0  0  0
   14.7040  149.6346   25.5442 C   0  0  2  0  0  0  0  0  0  0  0  0
   14.5408  147.0507   25.7465 C   0  0  2  0  0  0  0  0  0  0  0  0
   13.7065  147.7128   26.9307 C   0  0  1  0  0  0  0  0  0  0  0  0
   13.2962  149.8401   25.8893 C   0  0  0  0  0  0  0  0  0  0  0  0
   12.7529  148.7359   26.3596 C   0  0  0  0  0  0  0  0  0  0  0  0
   12.8490  146.7505   27.8307 C   0  0  0  0  0  0  0  0  0  0  0  0
   16.5373  143.9094   23.5776 N   0  0  0  0  0  0  0  0  0  0  0  0
   14.4662  144.2304   24.5251 O   0  0  0  0  0  0  0  0  0  0  0  0
   18.4621  146.2832   26.2645 O   0  0  0  0  0  0  0  0  0  0  0  0
   15.5215  145.9460   27.6135 O   0  0  0  0  0  0  0  0  0  0  0  0
   20.3474  142.8675   25.3235 O   0  0  0  0  0  0  0  0  0  0  0  0
   22.5379  141.7525   23.3351 O   0  0  0  0  0  0  0  0  0  0  0  0
   20.4139  146.4915   24.5743 O   0  0  0  0  0  0  0  0  0  0  0  0
   22.7728  143.0354   25.4836 H   0  0  0  0  0  0  0  0  0  0  0  0
   20.7445  145.1149   26.1344 H   0  0  0  0  0  0  0  0  0  0  0  0
   19.6194  145.0071   22.1675 H   0  0  0  0  0  0  0  0  0  0  0  0
   21.2798  145.6325   22.5797 H   0  0  0  0  0  0  0  0  0  0  0  0
   20.3073  142.7440   22.6842 H   0  0  0  0  0  0  0  0  0  0  0  0
   21.5403  143.4774   21.5734 H   0  0  0  0  0  0  0  0  0  0  0  0
   23.0609  143.8842   23.4755 H   0  0  0  0  0  0  0  0  0  0  0  0
   18.4546  143.5870   22.6923 H   0  0  0  0  0  0  0  0  0  0  0  0
   16.1060  150.8566   24.4424 H   0  0  0  0  0  0  0  0  0  0  0  0
   14.6630  151.7388   25.0749 H   0  0  0  0  0  0  0  0  0  0  0  0
   13.2214  150.6106   23.4042 H   0  0  0  0  0  0  0  0  0  0  0  0
   14.5500  151.4677   22.5823 H   0  0  0  0  0  0  0  0  0  0  0  0
   14.4535  149.2301   21.6145 H   0  0  0  0  0  0  0  0  0  0  0  0
   15.8805  149.2442   22.6805 H   0  0  0  0  0  0  0  0  0  0  0  0
   13.0882  148.3701   23.6588 H   0  0  0  0  0  0  0  0  0  0  0  0
   14.2247  147.2056   22.9970 H   0  0  0  0  0  0  0  0  0  0  0  0
   16.0147  148.1328   24.6102 H   0  0  0  0  0  0  0  0  0  0  0  0
   15.3554  149.6070   26.4301 H   0  0  0  0  0  0  0  0  0  0  0  0
   14.0046  146.3324   25.1089 H   0  0  0  0  0  0  0  0  0  0  0  0
   14.4852  148.1310   27.5856 H   0  0  0  0  0  0  0  0  0  0  0  0
   12.7608  150.7937   25.7710 H   0  0  0  0  0  0  0  0  0  0  0  0
   11.6660  148.5683   26.3377 H   0  0  0  0  0  0  0  0  0  0  0  0
   13.0441  146.9694   28.8909 H   0  0  0  0  0  0  0  0  0  0  0  0
   11.7810  146.9019   27.6155 H   0  0  0  0  0  0  0  0  0  0  0  0
   13.1221  145.7069   27.6155 H   0  0  0  0  0  0  0  0  0  0  0  0
   16.0993  143.2871   22.8835 H   0  0  0  0  0  0  0  0  0  0  0  0
   19.4386  146.4190   26.1741 H   0  0  0  0  0  0  0  0  0  0  0  0
   22.6422  141.2722   24.1945 H   0  0  0  0  0  0  0  0  0  0  0  0
   20.4503  146.6335   25.5534 H   0  0  0  0  0  0  0  0  0  0  0  0
  1  2  1  0
  1  6  1  0
  1 28  1  0
  2  3  1  0
  2 28  1  0
  3  4  1  0
  3 11  1  0
  3 30  1  1
  4  5  1  0
  5  6  1  0
  6 29  1  0
  7  8  2  0
  7 11  1  0
  7 26  1  0
  8  9  1  0
  8 12  1  0
  9 24  1  0
  9 25  2  0
 10 11  2  0
 10 24  1  0
 19 12  1  0
 12 27  2  0
 13 14  1  0
 18 13  1  0
 14 15  1  0
 15 16  1  0
 17 16  1  0
 17 18  1  0
 17 19  1  0
 18 21  1  0
 19 20  1  0
 20 22  1  0
 20 23  1  0
 21 22  2  0
  1 31  1  1
  2 32  1  1
  4 33  1  0
  4 34  1  0
  5 35  1  0
  5 36  1  0
  6 37  1  1
 10 38  1  0
 13 39  1  0
 13 40  1  0
 14 41  1  0
 14 42  1  0
 15 43  1  0
 15 44  1  0
 16 45  1  0
 16 46  1  0
 17 47  1  6
 18 48  1  1
 19 49  1  6
 20 50  1  1
 21 51  1  0
 22 52  1  0
 23 53  1  0
 23 54  1  0
 23 55  1  0
 24 56  1  0
 26 57  1  0
 29 58  1  0
 30 59  1  0
M  END
>  <filename_input>  (18) 
7WUY_76N_docked.sdf

>  <pdb_id>  (18) 
7WUY_76N

>  <pose_rank>  (18) 
17

>  <num_atoms_heavy>  (18) 
30

>  <num_torsions>  (18) 
3

>  <pose>  (18) 
[17.82304154728896, 145.53613084372984, 25.401746229826646, -1.334851323248221, 0.31410600459156507, -1.4840275031088304, -0.17504179160861877, -4.9340716826623545, 1.841506163113753]

>  <energy>  (18) 
-250.01926575687241

>  <inter_energy>  (18) 
-316.32741462168127

>  <intra_energy>  (18) 
61.919252056191006

>  <rmsd>  (18) 
7.88968

>  <sdf_rank>  (18) 
0

$$$$

     RDKit          3D

 59 63  0  0  0  0  0  0  0  0999 V2000
   17.0536  153.5451   26.8630 C   0  0  2  0  0  0  0  0  0  0  0  0
   16.6127  152.1207   26.8047 C   0  0  1  0  0  0  0  0  0  0  0  0
   15.1289  151.7441   26.8974 C   0  0  1  0  0  0  0  0  0  0  0  0
   14.0773  152.8927   27.0668 C   0  0  0  0  0  0  0  0  0  0  0  0
   14.5834  154.2470   26.5416 C   0  0  0  0  0  0  0  0  0  0  0  0
   15.9727  154.6106   27.1255 C   0  0  2  0  0  0  0  0  0  0  0  0
   14.6945  149.5433   25.7281 C   0  0  0  0  0  0  0  0  0  0  0  0
   14.3569  148.7839   24.5623 C   0  0  0  0  0  0  0  0  0  0  0  0
   14.0058  149.4325   23.3102 C   0  0  0  0  0  0  0  0  0  0  0  0
   14.4533  151.5610   24.4633 C   0  0  0  0  0  0  0  0  0  0  0  0
   14.7479  150.9684   25.6609 C   0  0  0  0  0  0  0  0  0  0  0  0
   14.0559  147.4041   24.7397 C   0  0  0  0  0  0  0  0  0  0  0  0
   11.2506  143.4651   26.0092 C   0  0  0  0  0  0  0  0  0  0  0  0
   11.4525  143.2972   27.5222 C   0  0  0  0  0  0  0  0  0  0  0  0
   12.8665  143.7653   27.8512 C   0  0  0  0  0  0  0  0  0  0  0  0
   12.8919  145.2873   27.6975 C   0  0  0  0  0  0  0  0  0  0  0  0
   12.8284  145.5066   26.1685 C   0  0  1  0  0  0  0  0  0  0  0  0
   11.4627  144.9265   25.5918 C   0  0  2  0  0  0  0  0  0  0  0  0
   12.9992  147.0082   25.8151 C   0  0  2  0  0  0  0  0  0  0  0  0
   11.5628  147.4808   25.3150 C   0  0  1  0  0  0  0  0  0  0  0  0
   10.2980  145.6152   26.1505 C   0  0  0  0  0  0  0  0  0  0  0  0
   10.5031  146.9141   26.2304 C   0  0  0  0  0  0  0  0  0  0  0  0
   11.3049  149.0293   25.2312 C   0  0  0  0  0  0  0  0  0  0  0  0
   14.1067  150.8273   23.3548 N   0  0  0  0  0  0  0  0  0  0  0  0
   13.6995  148.8675   22.2217 O   0  0  0  0  0  0  0  0  0  0  0  0
   14.9994  148.9618   26.8594 O   0  0  0  0  0  0  0  0  0  0  0  0
   14.1994  146.5327   23.8147 O   0  0  0  0  0  0  0  0  0  0  0  0
   16.9174  152.8258   25.5356 O   0  0  0  0  0  0  0  0  0  0  0  0
   16.3581  155.8236   26.3695 O   0  0  0  0  0  0  0  0  0  0  0  0
   15.0020  150.9551   28.0913 O   0  0  0  0  0  0  0  0  0  0  0  0
   17.8456  154.0824   27.4053 H   0  0  0  0  0  0  0  0  0  0  0  0
   16.9594  151.2407   27.3664 H   0  0  0  0  0  0  0  0  0  0  0  0
   13.1665  152.6196   26.5139 H   0  0  0  0  0  0  0  0  0  0  0  0
   13.8826  153.0071   28.1434 H   0  0  0  0  0  0  0  0  0  0  0  0
   14.6603  154.1971   25.4454 H   0  0  0  0  0  0  0  0  0  0  0  0
   13.8686  155.0225   26.8539 H   0  0  0  0  0  0  0  0  0  0  0  0
   15.9045  154.7210   28.2178 H   0  0  0  0  0  0  0  0  0  0  0  0
   14.4953  152.6574   24.3859 H   0  0  0  0  0  0  0  0  0  0  0  0
   11.9724  142.8290   25.4760 H   0  0  0  0  0  0  0  0  0  0  0  0
   10.2215  143.1710   25.7553 H   0  0  0  0  0  0  0  0  0  0  0  0
   10.7183  143.9072   28.0690 H   0  0  0  0  0  0  0  0  0  0  0  0
   11.3138  142.2466   27.8172 H   0  0  0  0  0  0  0  0  0  0  0  0
   13.1238  143.4873   28.8839 H   0  0  0  0  0  0  0  0  0  0  0  0
   13.5979  143.2946   27.1778 H   0  0  0  0  0  0  0  0  0  0  0  0
   12.0246  145.7457   28.1952 H   0  0  0  0  0  0  0  0  0  0  0  0
   13.7808  145.7456   28.1557 H   0  0  0  0  0  0  0  0  0  0  0  0
   13.6612  144.9631   25.6982 H   0  0  0  0  0  0  0  0  0  0  0  0
   11.5442  145.0526   24.5021 H   0  0  0  0  0  0  0  0  0  0  0  0
   13.3892  147.4949   26.7212 H   0  0  0  0  0  0  0  0  0  0  0  0
   11.5194  147.1072   24.2812 H   0  0  0  0  0  0  0  0  0  0  0  0
    9.3708  145.1128   26.4634 H   0  0  0  0  0  0  0  0  0  0  0  0
    9.9347  147.5503   26.9248 H   0  0  0  0  0  0  0  0  0  0  0  0
   11.2357  149.4449   26.2473 H   0  0  0  0  0  0  0  0  0  0  0  0
   12.1352  149.5107   24.6939 H   0  0  0  0  0  0  0  0  0  0  0  0
   10.3633  149.2156   24.6939 H   0  0  0  0  0  0  0  0  0  0  0  0
   13.9051  151.3451   22.4875 H   0  0  0  0  0  0  0  0  0  0  0  0
   15.2293  149.5096   27.6513 H   0  0  0  0  0  0  0  0  0  0  0  0
   16.5884  156.5482   27.0035 H   0  0  0  0  0  0  0  0  0  0  0  0
   15.0960  151.5397   28.8847 H   0  0  0  0  0  0  0  0  0  0  0  0
  1  2  1  0
  1  6  1  0
  1 28  1  0
  2  3  1  0
  2 28  1  0
  3  4  1  0
  3 11  1  0
  3 30  1  1
  4  5  1  0
  5  6  1  0
  6 29  1  0
  7  8  2  0
  7 11  1  0
  7 26  1  0
  8  9  1  0
  8 12  1  0
  9 24  1  0
  9 25  2  0
 10 11  2  0
 10 24  1  0
 19 12  1  0
 12 27  2  0
 13 14  1  0
 18 13  1  0
 14 15  1  0
 15 16  1  0
 17 16  1  0
 17 18  1  0
 17 19  1  0
 18 21  1  0
 19 20  1  0
 20 22  1  0
 20 23  1  0
 21 22  2  0
  1 31  1  1
  2 32  1  1
  4 33  1  0
  4 34  1  0
  5 35  1  0
  5 36  1  0
  6 37  1  1
 10 38  1  0
 13 39  1  0
 13 40  1  0
 14 41  1  0
 14 42  1  0
 15 43  1  0
 15 44  1  0
 16 45  1  0
 16 46  1  0
 17 47  1  6
 18 48  1  6
 19 49  1  1
 20 50  1  6
 21 51  1  0
 22 52  1  0
 23 53  1  0
 23 54  1  0
 23 55  1  0
 24 56  1  0
 26 57  1  0
 29 58  1  0
 30 59  1  0
M  END
>  <filename_input>  (19) 
7WUY_76N_docked.sdf

>  <pdb_id>  (19) 
7WUY_76N

>  <pose_rank>  (19) 
18

>  <num_atoms_heavy>  (19) 
30

>  <num_torsions>  (19) 
3

>  <pose>  (19) 
[14.694538472124849, 149.5433272082182, 25.728129001155736, 7.66823199779013, -55.63433587406068, -3.779165902806381, -12.342915664785599, 6.4462674763232295, 0.08911852435332773]

>  <energy>  (19) 
-935.327294119212

>  <inter_energy>  (19) 
-1023.8588495690387

>  <intra_energy>  (19) 
93.4136099060061

>  <rmsd>  (19) 
0.724669

>  <sdf_rank>  (19) 
0

$$$$

     RDKit          3D

 59 63  0  0  0  0  0  0  0  0999 V2000
   21.6299  143.1190   23.7480 C   0  0  2  0  0  0  0  0  0  0  0  0
   20.2726  143.4828   23.2457 C   0  0  1  0  0  0  0  0  0  0  0  0
   19.0049  142.9685   23.9390 C   0  0  1  0  0  0  0  0  0  0  0  0
   19.1640  142.0374   25.1885 C   0  0  0  0  0  0  0  0  0  0  0  0
   20.5125  142.2250   25.9044 C   0  0  0  0  0  0  0  0  0  0  0  0
   21.7073  142.1245   24.9217 C   0  0  2  0  0  0  0  0  0  0  0  0
   16.8349  144.2674   23.8823 C   0  0  0  0  0  0  0  0  0  0  0  0
   16.0327  145.3927   24.2565 C   0  0  0  0  0  0  0  0  0  0  0  0
   16.5276  146.4053   25.1738 C   0  0  0  0  0  0  0  0  0  0  0  0
   18.6363  145.1352   25.1977 C   0  0  0  0  0  0  0  0  0  0  0  0
   18.1728  144.1520   24.3668 C   0  0  0  0  0  0  0  0  0  0  0  0
   14.6390  145.3307   23.9743 C   0  0  0  0  0  0  0  0  0  0  0  0
   15.2050  150.0259   25.5964 C   0  0  0  0  0  0  0  0  0  0  0  0
   14.5414  150.9049   24.5262 C   0  0  0  0  0  0  0  0  0  0  0  0
   14.7097  150.1997   23.1842 C   0  0  0  0  0  0  0  0  0  0  0  0
   13.7957  148.9728   23.1943 C   0  0  0  0  0  0  0  0  0  0  0  0
   14.4998  147.9941   24.1621 C   0  0  1  0  0  0  0  0  0  0  0  0
   14.5717  148.6283   25.6205 C   0  0  2  0  0  0  0  0  0  0  0  0
   13.7833  146.6174   24.1786 C   0  0  2  0  0  0  0  0  0  0  0  0
   13.0760  146.5370   25.6034 C   0  0  1  0  0  0  0  0  0  0  0  0
   13.2394  148.8652   26.1790 C   0  0  0  0  0  0  0  0  0  0  0  0
   12.4248  147.8643   25.9141 C   0  0  0  0  0  0  0  0  0  0  0  0
   11.9700  145.4365   25.7952 C   0  0  0  0  0  0  0  0  0  0  0  0
   17.8531  146.2000   25.5720 N   0  0  0  0  0  0  0  0  0  0  0  0
   15.9151  147.4388   25.5670 O   0  0  0  0  0  0  0  0  0  0  0  0
   16.3871  143.3486   23.0660 O   0  0  0  0  0  0  0  0  0  0  0  0
   14.1300  144.5011   23.1446 O   0  0  0  0  0  0  0  0  0  0  0  0
   21.0026  144.4543   24.0964 O   0  0  0  0  0  0  0  0  0  0  0  0
   22.8702  142.5130   25.7513 O   0  0  0  0  0  0  0  0  0  0  0  0
   18.3304  142.1574   22.9638 O   0  0  0  0  0  0  0  0  0  0  0  0
   22.5574  142.7699   23.2706 H   0  0  0  0  0  0  0  0  0  0  0  0
   19.8453  143.4264   22.2337 H   0  0  0  0  0  0  0  0  0  0  0  0
   18.3548  142.2616   25.8991 H   0  0  0  0  0  0  0  0  0  0  0  0
   19.1194  140.9971   24.8339 H   0  0  0  0  0  0  0  0  0  0  0  0
   20.5269  143.2159   26.3818 H   0  0  0  0  0  0  0  0  0  0  0  0
   20.6166  141.4237   26.6508 H   0  0  0  0  0  0  0  0  0  0  0  0
   21.7438  141.1198   24.4754 H   0  0  0  0  0  0  0  0  0  0  0  0
   19.6667  145.0712   25.5774 H   0  0  0  0  0  0  0  0  0  0  0  0
   16.2778  149.9323   25.3722 H   0  0  0  0  0  0  0  0  0  0  0  0
   15.0599  150.4966   26.5799 H   0  0  0  0  0  0  0  0  0  0  0  0
   13.4724  151.0302   24.7531 H   0  0  0  0  0  0  0  0  0  0  0  0
   15.0061  151.9016   24.5009 H   0  0  0  0  0  0  0  0  0  0  0  0
   14.4223  150.8759   22.3655 H   0  0  0  0  0  0  0  0  0  0  0  0
   15.7575  149.9023   23.0305 H   0  0  0  0  0  0  0  0  0  0  0  0
   12.7930  149.2345   23.5631 H   0  0  0  0  0  0  0  0  0  0  0  0
   13.6474  148.5454   22.1917 H   0  0  0  0  0  0  0  0  0  0  0  0
   15.5272  147.8240   23.8078 H   0  0  0  0  0  0  0  0  0  0  0  0
   15.1537  147.9052   26.2107 H   0  0  0  0  0  0  0  0  0  0  0  0
   13.1219  146.6045   23.2998 H   0  0  0  0  0  0  0  0  0  0  0  0
   13.8996  146.2640   26.2796 H   0  0  0  0  0  0  0  0  0  0  0  0
   12.9550  149.7634   26.7469 H   0  0  0  0  0  0  0  0  0  0  0  0
   11.3318  147.9881   25.9188 H   0  0  0  0  0  0  0  0  0  0  0  0
   11.8017  145.2690   26.8693 H   0  0  0  0  0  0  0  0  0  0  0  0
   11.0336  145.7718   25.3253 H   0  0  0  0  0  0  0  0  0  0  0  0
   12.3007  144.4985   25.3253 H   0  0  0  0  0  0  0  0  0  0  0  0
   18.2752  146.9031   26.1952 H   0  0  0  0  0  0  0  0  0  0  0  0
   16.9617  142.5800   22.8228 H   0  0  0  0  0  0  0  0  0  0  0  0
   22.6333  142.4339   26.7092 H   0  0  0  0  0  0  0  0  0  0  0  0
   17.7704  141.4839   23.4252 H   0  0  0  0  0  0  0  0  0  0  0  0
  1  2  1  0
  1  6  1  0
  1 28  1  0
  2  3  1  0
  2 28  1  0
  3  4  1  0
  3 11  1  0
  3 30  1  6
  4  5  1  0
  5  6  1  0
  6 29  1  0
  7  8  2  0
  7 11  1  0
  7 26  1  0
  8  9  1  0
  8 12  1  0
  9 24  1  0
  9 25  2  0
 10 11  2  0
 10 24  1  0
 19 12  1  0
 12 27  2  0
 13 14  1  0
 18 13  1  0
 14 15  1  0
 15 16  1  0
 17 16  1  0
 17 18  1  0
 17 19  1  0
 18 21  1  0
 19 20  1  0
 20 22  1  0
 20 23  1  0
 21 22  2  0
  1 31  1  6
  2 32  1  6
  4 33  1  0
  4 34  1  0
  5 35  1  0
  5 36  1  0
  6 37  1  6
 10 38  1  0
 13 39  1  0
 13 40  1  0
 14 41  1  0
 14 42  1  0
 15 43  1  0
 15 44  1  0
 16 45  1  0
 16 46  1  0
 17 47  1  6
 18 48  1  1
 19 49  1  6
 20 50  1  1
 21 51  1  0
 22 52  1  0
 23 53  1  0
 23 54  1  0
 23 55  1  0
 24 56  1  0
 26 57  1  0
 29 58  1  0
 30 59  1  0
M  END
>  <filename_input>  (20) 
7WUY_76N_docked.sdf

>  <pdb_id>  (20) 
7WUY_76N

>  <pose_rank>  (20) 
19

>  <num_atoms_heavy>  (20) 
30

>  <num_torsions>  (20) 
3

>  <pose>  (20) 
[16.834873531762927, 144.26738989431314, 23.8822642834545, 1.755356634791448, 1.2426484779697418, -0.583884713784799, -5.657774995969798, -3.720784057978036, 3.4536993132565317]

>  <energy>  (20) 
-95.32737965922104

>  <inter_energy>  (20) 
-477.4700537341401

>  <intra_energy>  (20) 
379.5771857544317

>  <rmsd>  (20) 
8.03112

>  <sdf_rank>  (20) 
0

$$$$

     RDKit          3D

 59 63  0  0  0  0  0  0  0  0999 V2000
    4.4383  142.9460   28.7115 C   0  0  2  0  0  0  0  0  0  0  0  0
    5.3371  144.0052   28.1663 C   0  0  1  0  0  0  0  0  0  0  0  0
    6.5643  144.4864   28.9502 C   0  0  1  0  0  0  0  0  0  0  0  0
    6.8522  143.8467   30.3507 C   0  0  0  0  0  0  0  0  0  0  0  0
    6.2360  142.4457   30.5047 C   0  0  0  0  0  0  0  0  0  0  0  0
    4.7309  142.4326   30.1339 C   0  0  2  0  0  0  0  0  0  0  0  0
    8.5213  145.4164   27.6445 C   0  0  0  0  0  0  0  0  0  0  0  0
    9.6788  145.2434   26.8199 C   0  0  0  0  0  0  0  0  0  0  0  0
   10.1754  143.9214   26.4775 C   0  0  0  0  0  0  0  0  0  0  0  0
    8.2525  143.0398   27.7367 C   0  0  0  0  0  0  0  0  0  0  0  0
    7.7939  144.2762   28.1017 C   0  0  0  0  0  0  0  0  0  0  0  0
   10.5161  146.3761   26.6145 C   0  0  0  0  0  0  0  0  0  0  0  0
   14.5630  148.7655   24.9087 C   0  0  0  0  0  0  0  0  0  0  0  0
   15.4788  147.6636   24.3564 C   0  0  0  0  0  0  0  0  0  0  0  0
   15.2383  146.4076   25.1877 C   0  0  0  0  0  0  0  0  0  0  0  0
   13.8510  145.8758   24.8224 C   0  0  0  0  0  0  0  0  0  0  0  0
   12.8822  146.8861   25.4788 C   0  0  1  0  0  0  0  0  0  0  0  0
   13.0923  148.3316   24.8461 C   0  0  2  0  0  0  0  0  0  0  0  0
   11.4098  146.4156   25.3381 C   0  0  2  0  0  0  0  0  0  0  0  0
   10.7543  147.4185   24.2888 C   0  0  1  0  0  0  0  0  0  0  0  0
   12.7903  148.3497   23.4137 C   0  0  0  0  0  0  0  0  0  0  0  0
   11.7133  147.6409   23.1430 C   0  0  0  0  0  0  0  0  0  0  0  0
    9.3811  146.9949   23.6515 C   0  0  0  0  0  0  0  0  0  0  0  0
    9.3778  142.8803   26.9650 N   0  0  0  0  0  0  0  0  0  0  0  0
   11.1770  143.6494   25.7559 O   0  0  0  0  0  0  0  0  0  0  0  0
    8.0795  146.6054   27.9637 O   0  0  0  0  0  0  0  0  0  0  0  0
   10.2599  147.5317   27.0987 O   0  0  0  0  0  0  0  0  0  0  0  0
    5.5073  142.6105   27.6903 O   0  0  0  0  0  0  0  0  0  0  0  0
    4.3807  140.9946   30.1631 O   0  0  0  0  0  0  0  0  0  0  0  0
    6.3288  145.8764   29.2260 O   0  0  0  0  0  0  0  0  0  0  0  0
    3.3474  142.8330   28.7956 H   0  0  0  0  0  0  0  0  0  0  0  0
    5.1048  144.9980   27.7534 H   0  0  0  0  0  0  0  0  0  0  0  0
    7.9413  143.7681   30.4839 H   0  0  0  0  0  0  0  0  0  0  0  0
    6.3936  144.4954   31.1115 H   0  0  0  0  0  0  0  0  0  0  0  0
    6.7711  141.7473   29.8445 H   0  0  0  0  0  0  0  0  0  0  0  0
    6.3302  142.1458   31.5588 H   0  0  0  0  0  0  0  0  0  0  0  0
    4.1686  143.0828   30.8203 H   0  0  0  0  0  0  0  0  0  0  0  0
    7.7037  142.1470   28.0711 H   0  0  0  0  0  0  0  0  0  0  0  0
   14.8347  148.9700   25.9548 H   0  0  0  0  0  0  0  0  0  0  0  0
   14.6906  149.6707   24.2969 H   0  0  0  0  0  0  0  0  0  0  0  0
   15.2366  147.4677   23.3014 H   0  0  0  0  0  0  0  0  0  0  0  0
   16.5334  147.9709   24.4152 H   0  0  0  0  0  0  0  0  0  0  0  0
   16.0035  145.6517   24.9569 H   0  0  0  0  0  0  0  0  0  0  0  0
   15.2962  146.6360   26.2621 H   0  0  0  0  0  0  0  0  0  0  0  0
   13.7145  145.8549   23.7311 H   0  0  0  0  0  0  0  0  0  0  0  0
   13.6871  144.8444   25.1676 H   0  0  0  0  0  0  0  0  0  0  0  0
   13.1060  146.9432   26.5543 H   0  0  0  0  0  0  0  0  0  0  0  0
   12.4274  148.9890   25.4254 H   0  0  0  0  0  0  0  0  0  0  0  0
   11.4523  145.3561   25.0454 H   0  0  0  0  0  0  0  0  0  0  0  0
   10.5480  148.3155   24.8912 H   0  0  0  0  0  0  0  0  0  0  0  0
   13.3859  148.8861   22.6604 H   0  0  0  0  0  0  0  0  0  0  0  0
   11.5231  147.2337   22.1390 H   0  0  0  0  0  0  0  0  0  0  0  0
    8.6590  146.7721   24.4508 H   0  0  0  0  0  0  0  0  0  0  0  0
    8.9969  147.8162   23.0288 H   0  0  0  0  0  0  0  0  0  0  0  0
    9.5265  146.0998   23.0288 H   0  0  0  0  0  0  0  0  0  0  0  0
    9.6565  141.9179   26.7264 H   0  0  0  0  0  0  0  0  0  0  0  0
    7.2767  146.6982   28.5355 H   0  0  0  0  0  0  0  0  0  0  0  0
    4.3070  140.6918   31.1028 H   0  0  0  0  0  0  0  0  0  0  0  0
    6.3046  146.0190   30.2054 H   0  0  0  0  0  0  0  0  0  0  0  0
  1  2  1  0
  1  6  1  0
  1 28  1  0
  2  3  1  0
  2 28  1  0
  3  4  1  0
  3 11  1  0
  3 30  1  1
  4  5  1  0
  5  6  1  0
  6 29  1  0
  7  8  2  0
  7 11  1  0
  7 26  1  0
  8  9  1  0
  8 12  1  0
  9 24  1  0
  9 25  2  0
 10 11  2  0
 10 24  1  0
 19 12  1  0
 12 27  2  0
 13 14  1  0
 18 13  1  0
 14 15  1  0
 15 16  1  0
 17 16  1  0
 17 18  1  0
 17 19  1  0
 18 21  1  0
 19 20  1  0
 20 22  1  0
 20 23  1  0
 21 22  2  0
  1 31  1  6
  2 32  1  6
  4 33  1  0
  4 34  1  0
  5 35  1  0
  5 36  1  0
  6 37  1  1
 10 38  1  0
 13 39  1  0
 13 40  1  0
 14 41  1  0
 14 42  1  0
 15 43  1  0
 15 44  1  0
 16 45  1  0
 16 46  1  0
 17 47  1  1
 18 48  1  1
 19 49  1  6
 20 50  1  1
 21 51  1  0
 22 52  1  0
 23 53  1  0
 23 54  1  0
 23 55  1  0
 24 56  1  0
 26 57  1  0
 29 58  1  0
 30 59  1  0
M  END
>  <filename_input>  (21) 
7WUY_76N_docked.sdf

>  <pdb_id>  (21) 
7WUY_76N

>  <pose_rank>  (21) 
20

>  <num_atoms_heavy>  (21) 
30

>  <num_torsions>  (21) 
3

>  <pose>  (21) 
[8.521284399962875, 145.41637408739504, 27.644521609910413, 1.4624784197123797, -0.9831780461515034, -2.924238490919389, 0.48920980996741614, -3.4549327238533842, 0.6867332464294418]

>  <energy>  (21) 
-71.08474804502218

>  <inter_energy>  (21) 
-173.29586077747558

>  <intra_energy>  (21) 
103.96199997615868

>  <rmsd>  (21) 
9.65509

>  <sdf_rank>  (21) 
0

$$$$

     RDKit          3D

 59 63  0  0  0  0  0  0  0  0999 V2000
   13.0031  145.8555   24.0175 C   0  0  2  0  0  0  0  0  0  0  0  0
   12.0157  146.3798   25.0060 C   0  0  1  0  0  0  0  0  0  0  0  0
   12.3039  147.6467   25.8209 C   0  0  1  0  0  0  0  0  0  0  0  0
   13.6708  148.3795   25.6013 C   0  0  0  0  0  0  0  0  0  0  0  0
   14.2856  148.0941   24.2206 C   0  0  0  0  0  0  0  0  0  0  0  0
   14.3623  146.5743   23.9252 C   0  0  2  0  0  0  0  0  0  0  0  0
    9.8618  148.3047   25.8705 C   0  0  0  0  0  0  0  0  0  0  0  0
    8.8040  149.2333   25.6082 C   0  0  0  0  0  0  0  0  0  0  0  0
    9.0731  150.5592   25.0777 C   0  0  0  0  0  0  0  0  0  0  0  0
   11.4412  149.8893   25.0201 C   0  0  0  0  0  0  0  0  0  0  0  0
   11.2105  148.6519   25.5563 C   0  0  0  0  0  0  0  0  0  0  0  0
    7.5291  148.9570   26.1775 C   0  0  0  0  0  0  0  0  0  0  0  0
    4.9023  150.9007   29.9614 C   0  0  0  0  0  0  0  0  0  0  0  0
    5.2220  152.4026   29.9446 C   0  0  0  0  0  0  0  0  0  0  0  0
    6.6479  152.5624   29.4273 C   0  0  0  0  0  0  0  0  0  0  0  0
    6.6334  152.2272   27.9345 C   0  0  0  0  0  0  0  0  0  0  0  0
    6.4495  150.6925   27.9010 C   0  0  1  0  0  0  0  0  0  0  0  0
    5.0548  150.2971   28.5588 C   0  0  2  0  0  0  0  0  0  0  0  0
    6.5650  150.1507   26.4512 C   0  0  2  0  0  0  0  0  0  0  0  0
    5.0861  149.7113   26.0555 C   0  0  1  0  0  0  0  0  0  0  0  0
    3.9234  150.8589   27.8189 C   0  0  0  0  0  0  0  0  0  0  0  0
    4.1099  150.7674   26.5180 C   0  0  0  0  0  0  0  0  0  0  0  0
    4.7938  149.4642   24.5307 C   0  0  0  0  0  0  0  0  0  0  0  0
   10.4243  150.7847   24.7933 N   0  0  0  0  0  0  0  0  0  0  0  0
    8.2237  151.4539   24.8021 O   0  0  0  0  0  0  0  0  0  0  0  0
    9.6230  147.1151   26.3590 O   0  0  0  0  0  0  0  0  0  0  0  0
    6.9318  147.8342   26.0426 O   0  0  0  0  0  0  0  0  0  0  0  0
   11.8196  146.6896   23.5686 O   0  0  0  0  0  0  0  0  0  0  0  0
   14.7938  146.5189   22.5102 O   0  0  0  0  0  0  0  0  0  0  0  0
   12.3319  147.2272   27.1946 O   0  0  0  0  0  0  0  0  0  0  0  0
   13.4110  144.8586   23.7943 H   0  0  0  0  0  0  0  0  0  0  0  0
   11.4827  145.8719   25.8233 H   0  0  0  0  0  0  0  0  0  0  0  0
   13.5076  149.4632   25.6961 H   0  0  0  0  0  0  0  0  0  0  0  0
   14.3731  148.0045   26.3603 H   0  0  0  0  0  0  0  0  0  0  0  0
   13.6667  148.5756   23.4492 H   0  0  0  0  0  0  0  0  0  0  0  0
   15.3100  148.4948   24.2141 H   0  0  0  0  0  0  0  0  0  0  0  0
   15.0236  146.0823   24.6536 H   0  0  0  0  0  0  0  0  0  0  0  0
   12.4717  150.1758   24.7631 H   0  0  0  0  0  0  0  0  0  0  0  0
    5.5930  150.3924   30.6503 H   0  0  0  0  0  0  0  0  0  0  0  0
    3.8625  150.7645   30.2936 H   0  0  0  0  0  0  0  0  0  0  0  0
    4.5204  152.9284   29.2802 H   0  0  0  0  0  0  0  0  0  0  0  0
    5.1257  152.8304   30.9534 H   0  0  0  0  0  0  0  0  0  0  0  0
    6.9883  153.5976   29.5768 H   0  0  0  0  0  0  0  0  0  0  0  0
    7.3345  151.8949   29.9685 H   0  0  0  0  0  0  0  0  0  0  0  0
    5.7981  152.7328   27.4278 H   0  0  0  0  0  0  0  0  0  0  0  0
    7.5459  152.5570   27.4163 H   0  0  0  0  0  0  0  0  0  0  0  0
    7.2539  150.2269   28.4893 H   0  0  0  0  0  0  0  0  0  0  0  0
    5.0507  149.1971   28.5638 H   0  0  0  0  0  0  0  0  0  0  0  0
    7.0137  150.9594   25.8556 H   0  0  0  0  0  0  0  0  0  0  0  0
    4.9710  148.7359   26.5509 H   0  0  0  0  0  0  0  0  0  0  0  0
    3.0322  151.3005   28.2888 H   0  0  0  0  0  0  0  0  0  0  0  0
    3.5843  151.4233   25.8083 H   0  0  0  0  0  0  0  0  0  0  0  0
    3.9575  148.7572   24.4276 H   0  0  0  0  0  0  0  0  0  0  0  0
    4.5299  150.4172   24.0489 H   0  0  0  0  0  0  0  0  0  0  0  0
    5.6896  149.0455   24.0489 H   0  0  0  0  0  0  0  0  0  0  0  0
   10.6766  151.6943   24.3810 H   0  0  0  0  0  0  0  0  0  0  0  0
   10.3721  146.4914   26.5315 H   0  0  0  0  0  0  0  0  0  0  0  0
   15.7749  146.3930   22.4691 H   0  0  0  0  0  0  0  0  0  0  0  0
   12.2788  148.0213   27.7833 H   0  0  0  0  0  0  0  0  0  0  0  0
  1  2  1  0
  1  6  1  0
  1 28  1  0
  2  3  1  0
  2 28  1  0
  3  4  1  0
  3 11  1  0
  3 30  1  1
  4  5  1  0
  5  6  1  0
  6 29  1  0
  7  8  2  0
  7 11  1  0
  7 26  1  0
  8  9  1  0
  8 12  1  0
  9 24  1  0
  9 25  2  0
 10 11  2  0
 10 24  1  0
 19 12  1  0
 12 27  2  0
 13 14  1  0
 18 13  1  0
 14 15  1  0
 15 16  1  0
 17 16  1  0
 17 18  1  0
 17 19  1  0
 18 21  1  0
 19 20  1  0
 20 22  1  0
 20 23  1  0
 21 22  2  0
  1 31  1  6
  2 32  1  1
  4 33  1  0
  4 34  1  0
  5 35  1  0
  5 36  1  0
  6 37  1  1
 10 38  1  0
 13 39  1  0
 13 40  1  0
 14 41  1  0
 14 42  1  0
 15 43  1  0
 15 44  1  0
 16 45  1  0
 16 46  1  0
 17 47  1  1
 18 48  1  1
 19 49  1  6
 20 50  1  1
 21 51  1  0
 22 52  1  0
 23 53  1  0
 23 54  1  0
 23 55  1  0
 24 56  1  0
 26 57  1  0
 29 58  1  0
 30 59  1  0
M  END
>  <filename_input>  (22) 
7WUY_76N_docked.sdf

>  <pdb_id>  (22) 
7WUY_76N

>  <pose_rank>  (22) 
21

>  <num_atoms_heavy>  (22) 
30

>  <num_torsions>  (22) 
3

>  <pose>  (22) 
[9.861772869834342, 148.30474328148853, 25.870468553155252, 0.671479331033133, 1.143354107396644, -1.2181423819200141, -0.4594947619432292, -4.326794980963268, -4.977220293673138]

>  <energy>  (22) 
-165.28538758835313

>  <inter_energy>  (22) 
-230.62081195516555

>  <intra_energy>  (22) 
75.32247094272893

>  <rmsd>  (22) 
7.61166

>  <sdf_rank>  (22) 
0

$$$$

     RDKit          3D

 59 63  0  0  0  0  0  0  0  0999 V2000
   23.6779  146.4564   20.7726 C   0  0  2  0  0  0  0  0  0  0  0  0
   23.5362  145.6117   21.9946 C   0  0  1  0  0  0  0  0  0  0  0  0
   23.0642  146.2118   23.3247 C   0  0  1  0  0  0  0  0  0  0  0  0
   22.7414  147.7437   23.3786 C   0  0  0  0  0  0  0  0  0  0  0  0
   22.3767  148.3253   22.0021 C   0  0  0  0  0  0  0  0  0  0  0  0
   23.4341  147.9695   20.9258 C   0  0  2  0  0  0  0  0  0  0  0  0
   21.9223  144.0909   24.0975 C   0  0  0  0  0  0  0  0  0  0  0  0
   20.7561  143.3676   24.5057 C   0  0  0  0  0  0  0  0  0  0  0  0
   19.4700  144.0265   24.6585 C   0  0  0  0  0  0  0  0  0  0  0  0
   20.5981  146.0734   23.8854 C   0  0  0  0  0  0  0  0  0  0  0  0
   21.8251  145.4782   23.7744 C   0  0  0  0  0  0  0  0  0  0  0  0
   20.9470  142.0746   25.0693 C   0  0  0  0  0  0  0  0  0  0  0  0
   20.5439  141.0491   20.1926 C   0  0  0  0  0  0  0  0  0  0  0  0
   21.6045  139.9731   19.9179 C   0  0  0  0  0  0  0  0  0  0  0  0
   22.7656  140.2181   20.8761 C   0  0  0  0  0  0  0  0  0  0  0  0
   22.2886  139.8384   22.2794 C   0  0  0  0  0  0  0  0  0  0  0  0
   21.3128  140.9757   22.6595 C   0  0  1  0  0  0  0  0  0  0  0  0
   20.0789  140.9928   21.6540 C   0  0  2  0  0  0  0  0  0  0  0  0
   20.8411  140.8342   24.1314 C   0  0  2  0  0  0  0  0  0  0  0  0
   19.3123  140.3983   24.0351 C   0  0  1  0  0  0  0  0  0  0  0  0
   19.3039  139.7525   21.7196 C   0  0  0  0  0  0  0  0  0  0  0  0
   19.1593  139.3442   22.9638 C   0  0  0  0  0  0  0  0  0  0  0  0
   18.6473  139.8184   25.3361 C   0  0  0  0  0  0  0  0  0  0  0  0
   19.4879  145.3790   24.3007 N   0  0  0  0  0  0  0  0  0  0  0  0
   18.3783  143.4910   25.0039 O   0  0  0  0  0  0  0  0  0  0  0  0
   23.0835  143.5023   23.9707 O   0  0  0  0  0  0  0  0  0  0  0  0
   21.6451  141.8664   26.1204 O   0  0  0  0  0  0  0  0  0  0  0  0
   22.4476  145.5970   20.9869 O   0  0  0  0  0  0  0  0  0  0  0  0
   22.8187  148.4455   19.6664 O   0  0  0  0  0  0  0  0  0  0  0  0
   24.1579  146.0376   24.2396 O   0  0  0  0  0  0  0  0  0  0  0  0
   24.4538  146.5661   20.0006 H   0  0  0  0  0  0  0  0  0  0  0  0
   24.2394  144.9077   22.4634 H   0  0  0  0  0  0  0  0  0  0  0  0
   21.8939  147.9004   24.0620 H   0  0  0  0  0  0  0  0  0  0  0  0
   23.6477  148.2609   23.7268 H   0  0  0  0  0  0  0  0  0  0  0  0
   21.4026  147.9196   21.6914 H   0  0  0  0  0  0  0  0  0  0  0  0
   22.3388  149.4208   22.0939 H   0  0  0  0  0  0  0  0  0  0  0  0
   24.4045  148.4150   21.1901 H   0  0  0  0  0  0  0  0  0  0  0  0
   20.4977  147.1397   23.6345 H   0  0  0  0  0  0  0  0  0  0  0  0
   20.9744  142.0406   19.9887 H   0  0  0  0  0  0  0  0  0  0  0  0
   19.6781  140.8668   19.5390 H   0  0  0  0  0  0  0  0  0  0  0  0
   21.1791  138.9736   20.0912 H   0  0  0  0  0  0  0  0  0  0  0  0
   21.9467  140.0242   18.8737 H   0  0  0  0  0  0  0  0  0  0  0  0
   23.6266  139.5959   20.5905 H   0  0  0  0  0  0  0  0  0  0  0  0
   23.0796  141.2719   20.8445 H   0  0  0  0  0  0  0  0  0  0  0  0
   21.7725  138.8671   22.2681 H   0  0  0  0  0  0  0  0  0  0  0  0
   23.1170  139.7326   22.9954 H   0  0  0  0  0  0  0  0  0  0  0  0
   21.8405  141.9373   22.5762 H   0  0  0  0  0  0  0  0  0  0  0  0
   19.4902  141.8737   21.9497 H   0  0  0  0  0  0  0  0  0  0  0  0
   21.5277  140.1181   24.6067 H   0  0  0  0  0  0  0  0  0  0  0  0
   18.7927  141.3440   23.8215 H   0  0  0  0  0  0  0  0  0  0  0  0
   18.8949  139.2289   20.8429 H   0  0  0  0  0  0  0  0  0  0  0  0
   18.9396  138.2946   23.2088 H   0  0  0  0  0  0  0  0  0  0  0  0
   19.1391  140.2473   26.2217 H   0  0  0  0  0  0  0  0  0  0  0  0
   17.5784  140.0779   25.3486 H   0  0  0  0  0  0  0  0  0  0  0  0
   18.7590  138.7241   25.3486 H   0  0  0  0  0  0  0  0  0  0  0  0
   18.5980  145.8951   24.3529 H   0  0  0  0  0  0  0  0  0  0  0  0
   23.8750  144.0249   23.6869 H   0  0  0  0  0  0  0  0  0  0  0  0
   22.0534  149.0374   19.8763 H   0  0  0  0  0  0  0  0  0  0  0  0
   23.8221  146.0911   25.1694 H   0  0  0  0  0  0  0  0  0  0  0  0
  1  2  1  0
  1  6  1  0
  1 28  1  0
  2  3  1  0
  2 28  1  0
  3  4  1  0
  3 11  1  0
  3 30  1  1
  4  5  1  0
  5  6  1  0
  6 29  1  0
  7  8  2  0
  7 11  1  0
  7 26  1  0
  8  9  1  0
  8 12  1  0
  9 24  1  0
  9 25  2  0
 10 11  2  0
 10 24  1  0
 19 12  1  0
 12 27  2  0
 13 14  1  0
 18 13  1  0
 14 15  1  0
 15 16  1  0
 17 16  1  0
 17 18  1  0
 17 19  1  0
 18 21  1  0
 19 20  1  0
 20 22  1  0
 20 23  1  0
 21 22  2  0
  1 31  1  6
  2 32  1  1
  4 33  1  0
  4 34  1  0
  5 35  1  0
  5 36  1  0
  6 37  1  1
 10 38  1  0
 13 39  1  0
 13 40  1  0
 14 41  1  0
 14 42  1  0
 15 43  1  0
 15 44  1  0
 16 45  1  0
 16 46  1  0
 17 47  1  1
 18 48  1  1
 19 49  1  1
 20 50  1  6
 21 51  1  0
 22 52  1  0
 23 53  1  0
 23 54  1  0
 23 55  1  0
 24 56  1  0
 26 57  1  0
 29 58  1  0
 30 59  1  0
M  END
>  <filename_input>  (23) 
7WUY_76N_docked.sdf

>  <pdb_id>  (23) 
7WUY_76N

>  <pose_rank>  (23) 
22

>  <num_atoms_heavy>  (23) 
30

>  <num_torsions>  (23) 
3

>  <pose>  (23) 
[21.92231393170607, 144.09093922748457, 24.0974914018667, 0.4379962264367323, -4.473756122862366, 0.27172328469029017, -0.38237968765890545, 3.8947591940016175, 3.650636759163015]

>  <energy>  (23) 
-99.5784488388469

>  <inter_energy>  (23) 
-123.02287263864032

>  <intra_energy>  (23) 
41.177143412034106

>  <rmsd>  (23) 
10.5951

>  <sdf_rank>  (23) 
0

$$$$

     RDKit          3D

 59 63  0  0  0  0  0  0  0  0999 V2000
   24.1624  149.6568   33.7449 C   0  0  2  0  0  0  0  0  0  0  0  0
   24.1208  148.1652   33.7522 C   0  0  1  0  0  0  0  0  0  0  0  0
   23.1960  147.4010   34.7077 C   0  0  1  0  0  0  0  0  0  0  0  0
   22.2964  148.2236   35.6914 C   0  0  0  0  0  0  0  0  0  0  0  0
   22.0167  149.6512   35.1918 C   0  0  0  0  0  0  0  0  0  0  0  0
   23.3211  150.3937   34.8040 C   0  0  2  0  0  0  0  0  0  0  0  0
   21.4401  145.5852   34.5708 C   0  0  0  0  0  0  0  0  0  0  0  0
   20.5779  144.7237   33.8196 C   0  0  0  0  0  0  0  0  0  0  0  0
   20.4886  144.8149   32.3721 C   0  0  0  0  0  0  0  0  0  0  0  0
   22.2123  146.5657   32.5284 C   0  0  0  0  0  0  0  0  0  0  0  0
   22.2797  146.5209   33.8942 C   0  0  0  0  0  0  0  0  0  0  0  0
   19.5772  144.0073   34.5348 C   0  0  0  0  0  0  0  0  0  0  0  0
   21.6983  139.9085   32.6120 C   0  0  0  0  0  0  0  0  0  0  0  0
   22.6473  139.3952   33.7047 C   0  0  0  0  0  0  0  0  0  0  0  0
   23.1514  140.6075   34.4812 C   0  0  0  0  0  0  0  0  0  0  0  0
   21.9796  141.1411   35.3076 C   0  0  0  0  0  0  0  0  0  0  0  0
   21.0527  141.7950   34.2572 C   0  0  1  0  0  0  0  0  0  0  0  0
   20.5345  140.6956   33.2291 C   0  0  2  0  0  0  0  0  0  0  0  0
   19.8702  142.5315   34.9416 C   0  0  2  0  0  0  0  0  0  0  0  0
   18.5867  141.6483   34.6109 C   0  0  1  0  0  0  0  0  0  0  0  0
   19.7351  139.6631   33.8909 C   0  0  0  0  0  0  0  0  0  0  0  0
   18.9258  140.1869   34.7888 C   0  0  0  0  0  0  0  0  0  0  0  0
   17.2915  141.9170   35.4604 C   0  0  0  0  0  0  0  0  0  0  0  0
   21.3650  145.7527   31.8152 N   0  0  0  0  0  0  0  0  0  0  0  0
   19.7722  144.1062   31.6089 O   0  0  0  0  0  0  0  0  0  0  0  0
   21.5132  145.5128   35.8747 O   0  0  0  0  0  0  0  0  0  0  0  0
   18.6984  144.5780   35.2680 O   0  0  0  0  0  0  0  0  0  0  0  0
   23.3503  148.8953   32.7160 O   0  0  0  0  0  0  0  0  0  0  0  0
   22.8340  151.6469   34.1848 O   0  0  0  0  0  0  0  0  0  0  0  0
   24.0638  146.6368   35.5602 O   0  0  0  0  0  0  0  0  0  0  0  0
   24.9710  150.4026   33.7348 H   0  0  0  0  0  0  0  0  0  0  0  0
   24.9341  147.4269   33.8119 H   0  0  0  0  0  0  0  0  0  0  0  0
   21.3369  147.6992   35.8119 H   0  0  0  0  0  0  0  0  0  0  0  0
   22.8387  148.3069   36.6448 H   0  0  0  0  0  0  0  0  0  0  0  0
   21.3623  149.5973   34.3092 H   0  0  0  0  0  0  0  0  0  0  0  0
   21.5360  150.2101   36.0082 H   0  0  0  0  0  0  0  0  0  0  0  0
   23.9658  150.5080   35.6879 H   0  0  0  0  0  0  0  0  0  0  0  0
   22.8555  147.2736   31.9853 H   0  0  0  0  0  0  0  0  0  0  0  0
   22.2564  140.5657   31.9288 H   0  0  0  0  0  0  0  0  0  0  0  0
   21.2906  139.0461   32.0644 H   0  0  0  0  0  0  0  0  0  0  0  0
   22.1089  138.7141   34.3801 H   0  0  0  0  0  0  0  0  0  0  0  0
   23.4883  138.8435   33.2595 H   0  0  0  0  0  0  0  0  0  0  0  0
   23.9764  140.3117   35.1459 H   0  0  0  0  0  0  0  0  0  0  0  0
   23.5260  141.3805   33.7941 H   0  0  0  0  0  0  0  0  0  0  0  0
   21.4633  140.3219   35.8295 H   0  0  0  0  0  0  0  0  0  0  0  0
   22.2978  141.8454   36.0903 H   0  0  0  0  0  0  0  0  0  0  0  0
   21.6274  142.5480   33.6981 H   0  0  0  0  0  0  0  0  0  0  0  0
   19.9575  141.2615   32.4829 H   0  0  0  0  0  0  0  0  0  0  0  0
   20.1409  142.6273   36.0034 H   0  0  0  0  0  0  0  0  0  0  0  0
   18.3404  141.9367   33.5784 H   0  0  0  0  0  0  0  0  0  0  0  0
   19.8016  138.5881   33.6672 H   0  0  0  0  0  0  0  0  0  0  0  0
   18.5198  139.5936   35.6213 H   0  0  0  0  0  0  0  0  0  0  0  0
   17.5382  141.8658   36.5312 H   0  0  0  0  0  0  0  0  0  0  0  0
   16.8976  142.9161   35.2223 H   0  0  0  0  0  0  0  0  0  0  0  0
   16.5326  141.1572   35.2223 H   0  0  0  0  0  0  0  0  0  0  0  0
   21.3758  145.8406   30.7890 H   0  0  0  0  0  0  0  0  0  0  0  0
   22.1174  146.1200   36.3711 H   0  0  0  0  0  0  0  0  0  0  0  0
   22.5840  152.2902   34.8945 H   0  0  0  0  0  0  0  0  0  0  0  0
   23.8474  146.8273   36.5073 H   0  0  0  0  0  0  0  0  0  0  0  0
  1  2  1  0
  1  6  1  0
  1 28  1  0
  2  3  1  0
  2 28  1  0
  3  4  1  0
  3 11  1  0
  3 30  1  1
  4  5  1  0
  5  6  1  0
  6 29  1  0
  7  8  2  0
  7 11  1  0
  7 26  1  0
  8  9  1  0
  8 12  1  0
  9 24  1  0
  9 25  2  0
 10 11  2  0
 10 24  1  0
 19 12  1  0
 12 27  2  0
 13 14  1  0
 18 13  1  0
 14 15  1  0
 15 16  1  0
 17 16  1  0
 17 18  1  0
 17 19  1  0
 18 21  1  0
 19 20  1  0
 20 22  1  0
 20 23  1  0
 21 22  2  0
  1 31  1  6
  2 32  1  6
  4 33  1  0
  4 34  1  0
  5 35  1  0
  5 36  1  0
  6 37  1  1
 10 38  1  0
 13 39  1  0
 13 40  1  0
 14 41  1  0
 14 42  1  0
 15 43  1  0
 15 44  1  0
 16 45  1  0
 16 46  1  0
 17 47  1  6
 18 48  1  6
 19 49  1  1
 20 50  1  6
 21 51  1  0
 22 52  1  0
 23 53  1  0
 23 54  1  0
 23 55  1  0
 24 56  1  0
 26 57  1  0
 29 58  1  0
 30 59  1  0
M  END
>  <filename_input>  (24) 
7WUY_76N_docked.sdf

>  <pdb_id>  (24) 
7WUY_76N

>  <pose_rank>  (24) 
23

>  <num_atoms_heavy>  (24) 
30

>  <num_torsions>  (24) 
3

>  <pose>  (24) 
[21.44010766880279, 145.58517389865702, 34.5707696072193, 2.86698736227535, -1.6056673277426683, 4.337963112172496, -4.781260769863797, -2.4319884955995548, -3.4850531594150915]

>  <energy>  (24) 
-71.50485880484122

>  <inter_energy>  (24) 
-143.42223481644837

>  <intra_energy>  (24) 
74.23971078746742

>  <rmsd>  (24) 
12.3282

>  <sdf_rank>  (24) 
0

$$$$

     RDKit          3D

 59 63  0  0  0  0  0  0  0  0999 V2000
   21.6271  139.9530   25.1862 C   0  0  2  0  0  0  0  0  0  0  0  0
   22.0534  140.1017   26.6086 C   0  0  1  0  0  0  0  0  0  0  0  0
   21.7914  141.3982   27.3849 C   0  0  1  0  0  0  0  0  0  0  0  0
   21.0712  142.5769   26.6462 C   0  0  0  0  0  0  0  0  0  0  0  0
   20.2123  142.1024   25.4616 C   0  0  0  0  0  0  0  0  0  0  0  0
   21.0108  141.1861   24.4993 C   0  0  2  0  0  0  0  0  0  0  0  0
   20.9541  141.9998   29.6949 C   0  0  0  0  0  0  0  0  0  0  0  0
   20.2029  141.7030   30.8770 C   0  0  0  0  0  0  0  0  0  0  0  0
   19.4018  140.4952   30.9831 C   0  0  0  0  0  0  0  0  0  0  0  0
   20.2454  139.9214   28.7427 C   0  0  0  0  0  0  0  0  0  0  0  0
   20.9733  141.0722   28.6098 C   0  0  0  0  0  0  0  0  0  0  0  0
   19.9960  142.7594   31.8083 C   0  0  0  0  0  0  0  0  0  0  0  0
   22.3134  139.3880   34.6822 C   0  0  0  0  0  0  0  0  0  0  0  0
   23.6350  140.0515   35.0963 C   0  0  0  0  0  0  0  0  0  0  0  0
   24.0610  140.9745   33.9591 C   0  0  0  0  0  0  0  0  0  0  0  0
   23.1002  142.1651   33.9518 C   0  0  0  0  0  0  0  0  0  0  0  0
   21.7801  141.5727   33.4074 C   0  0  1  0  0  0  0  0  0  0  0  0
   21.2405  140.4470   34.3952 C   0  0  2  0  0  0  0  0  0  0  0  0
   20.7213  142.6858   33.1860 C   0  0  2  0  0  0  0  0  0  0  0  0
   19.6310  142.4507   34.3229 C   0  0  1  0  0  0  0  0  0  0  0  0
   20.9287  140.9868   35.7198 C   0  0  0  0  0  0  0  0  0  0  0  0
   20.3276  142.1557   35.6306 C   0  0  0  0  0  0  0  0  0  0  0  0
   18.6222  143.6232   34.6042 C   0  0  0  0  0  0  0  0  0  0  0  0
   19.5074  139.6539   29.8702 N   0  0  0  0  0  0  0  0  0  0  0  0
   18.7082  140.1283   31.9742 O   0  0  0  0  0  0  0  0  0  0  0  0
   21.6664  143.0921   29.5927 O   0  0  0  0  0  0  0  0  0  0  0  0
   19.6767  143.9473   31.4582 O   0  0  0  0  0  0  0  0  0  0  0  0
   20.7920  139.3790   26.3137 O   0  0  0  0  0  0  0  0  0  0  0  0
   19.9810  140.6952   23.5560 O   0  0  0  0  0  0  0  0  0  0  0  0
   23.0875  141.9177   27.7226 O   0  0  0  0  0  0  0  0  0  0  0  0
   22.1119  139.5729   24.2749 H   0  0  0  0  0  0  0  0  0  0  0  0
   23.0245  139.9097   27.0884 H   0  0  0  0  0  0  0  0  0  0  0  0
   20.4213  143.0973   27.3651 H   0  0  0  0  0  0  0  0  0  0  0  0
   21.8504  143.2414   26.2448 H   0  0  0  0  0  0  0  0  0  0  0  0
   19.3484  141.5432   25.8501 H   0  0  0  0  0  0  0  0  0  0  0  0
   19.8891  142.9899   24.8977 H   0  0  0  0  0  0  0  0  0  0  0  0
   21.8480  141.7451   24.0557 H   0  0  0  0  0  0  0  0  0  0  0  0
   20.2513  139.1885   27.9225 H   0  0  0  0  0  0  0  0  0  0  0  0
   22.4795  138.7875   33.7756 H   0  0  0  0  0  0  0  0  0  0  0  0
   21.9662  138.7475   35.5063 H   0  0  0  0  0  0  0  0  0  0  0  0
   23.4901  140.6337   36.0183 H   0  0  0  0  0  0  0  0  0  0  0  0
   24.4066  139.2913   35.2879 H   0  0  0  0  0  0  0  0  0  0  0  0
   25.0910  141.3236   34.1241 H   0  0  0  0  0  0  0  0  0  0  0  0
   24.0297  140.4441   32.9960 H   0  0  0  0  0  0  0  0  0  0  0  0
   22.9613  142.5624   34.9681 H   0  0  0  0  0  0  0  0  0  0  0  0
   23.4700  143.0056   33.3463 H   0  0  0  0  0  0  0  0  0  0  0  0
   21.9770  141.1093   32.4294 H   0  0  0  0  0  0  0  0  0  0  0  0
   20.3555  140.0331   33.8897 H   0  0  0  0  0  0  0  0  0  0  0  0
   21.2673  143.6401   33.2179 H   0  0  0  0  0  0  0  0  0  0  0  0
   19.0299  141.6181   33.9286 H   0  0  0  0  0  0  0  0  0  0  0  0
   21.1658  140.4815   36.6676 H   0  0  0  0  0  0  0  0  0  0  0  0
   20.3327  142.8764   36.4615 H   0  0  0  0  0  0  0  0  0  0  0  0
   18.5080  143.7560   35.6901 H   0  0  0  0  0  0  0  0  0  0  0  0
   19.0073  144.5527   34.1596 H   0  0  0  0  0  0  0  0  0  0  0  0
   17.6456  143.3812   34.1596 H   0  0  0  0  0  0  0  0  0  0  0  0
   18.9909  138.7633   29.8985 H   0  0  0  0  0  0  0  0  0  0  0  0
   22.1772  143.2742   28.7644 H   0  0  0  0  0  0  0  0  0  0  0  0
   19.2145  140.3298   24.0650 H   0  0  0  0  0  0  0  0  0  0  0  0
   23.1815  141.9554   28.7074 H   0  0  0  0  0  0  0  0  0  0  0  0
  1  2  1  0
  1  6  1  0
  1 28  1  0
  2  3  1  0
  2 28  1  0
  3  4  1  0
  3 11  1  0
  3 30  1  1
  4  5  1  0
  5  6  1  0
  6 29  1  0
  7  8  2  0
  7 11  1  0
  7 26  1  0
  8  9  1  0
  8 12  1  0
  9 24  1  0
  9 25  2  0
 10 11  2  0
 10 24  1  0
 19 12  1  0
 12 27  2  0
 13 14  1  0
 18 13  1  0
 14 15  1  0
 15 16  1  0
 17 16  1  0
 17 18  1  0
 17 19  1  0
 18 21  1  0
 19 20  1  0
 20 22  1  0
 20 23  1  0
 21 22  2  0
  1 31  1  6
  2 32  1  6
  4 33  1  0
  4 34  1  0
  5 35  1  0
  5 36  1  0
  6 37  1  6
 10 38  1  0
 13 39  1  0
 13 40  1  0
 14 41  1  0
 14 42  1  0
 15 43  1  0
 15 44  1  0
 16 45  1  0
 16 46  1  0
 17 47  1  6
 18 48  1  6
 19 49  1  1
 20 50  1  6
 21 51  1  0
 22 52  1  0
 23 53  1  0
 23 54  1  0
 23 55  1  0
 24 56  1  0
 26 57  1  0
 29 58  1  0
 30 59  1  0
M  END
>  <filename_input>  (25) 
7WUY_76N_docked.sdf

>  <pdb_id>  (25) 
7WUY_76N

>  <pose_rank>  (25) 
24

>  <num_atoms_heavy>  (25) 
30

>  <num_torsions>  (25) 
3

>  <pose>  (25) 
[20.954147636587543, 141.99979662851038, 29.694925964199495, -2.1596139272653736, 0.38670381387744646, -0.702113684527109, 1.2967100498351902, -2.6648430516963124, 3.208709726708356]

>  <energy>  (25) 
-68.3025844762386

>  <inter_energy>  (25) 
-138.33209771962382

>  <intra_energy>  (25) 
74.41241720428903

>  <rmsd>  (25) 
13.2757

>  <sdf_rank>  (25) 
0

$$$$

     RDKit          3D

 59 63  0  0  0  0  0  0  0  0999 V2000
   16.9840  153.3590   27.9300 C   0  0  2  0  0  0  0  0  0  0  0  0
   16.3140  152.0530   27.6610 C   0  0  1  0  0  0  0  0  0  0  0  0
   14.8520  151.9900   27.2020 C   0  0  1  0  0  0  0  0  0  0  0  0
   14.0660  153.3340   27.0300 C   0  0  0  0  0  0  0  0  0  0  0  0
   14.9900  154.5370   26.7750 C   0  0  0  0  0  0  0  0  0  0  0  0
   16.1210  154.6310   27.8310 C   0  0  2  0  0  0  0  0  0  0  0  0
   14.7030  149.8390   25.8790 C   0  0  0  0  0  0  0  0  0  0  0  0
   14.6650  149.1260   24.6380 C   0  0  0  0  0  0  0  0  0  0  0  0
   14.6540  149.8230   23.3630 C   0  0  0  0  0  0  0  0  0  0  0  0
   14.8190  151.9020   24.6710 C   0  0  0  0  0  0  0  0  0  0  0  0
   14.7900  151.2640   25.8810 C   0  0  0  0  0  0  0  0  0  0  0  0
   14.3110  147.7480   24.6810 C   0  0  0  0  0  0  0  0  0  0  0  0
   11.0970  143.9520   25.1880 C   0  0  0  0  0  0  0  0  0  0  0  0
   11.1600  143.5660   26.6730 C   0  0  0  0  0  0  0  0  0  0  0  0
   12.5760  143.8530   27.1620 C   0  0  0  0  0  0  0  0  0  0  0  0
   12.7390  145.3730   27.2250 C   0  0  0  0  0  0  0  0  0  0  0  0
   12.8190  145.7990   25.7410 C   0  0  1  0  0  0  0  0  0  0  0  0
   11.4620  145.4300   24.9950 C   0  0  2  0  0  0  0  0  0  0  0  0
   13.1410  147.3120   25.6140 C   0  0  2  0  0  0  0  0  0  0  0  0
   11.7940  147.9780   25.0860 C   0  0  1  0  0  0  0  0  0  0  0  0
   10.3160  146.1430   25.5620 C   0  0  0  0  0  0  0  0  0  0  0  0
   10.6200  147.3950   25.8370 C   0  0  0  0  0  0  0  0  0  0  0  0
   11.6720  149.5410   25.2020 C   0  0  0  0  0  0  0  0  0  0  0  0
   14.7580  151.2130   23.4840 N   0  0  0  0  0  0  0  0  0  0  0  0
   14.6290  149.3010   22.2120 O   0  0  0  0  0  0  0  0  0  0  0  0
   14.7010  149.2140   27.0280 O   0  0  0  0  0  0  0  0  0  0  0  0
   14.5240  146.9410   23.7120 O   0  0  0  0  0  0  0  0  0  0  0  0
   17.1890  152.6350   26.6140 O   0  0  0  0  0  0  0  0  0  0  0  0
   16.9890  155.7120   27.3120 O   0  0  0  0  0  0  0  0  0  0  0  0
   14.1490  151.2870   28.2390 O   0  0  0  0  0  0  0  0  0  0  0  0
   17.6208  153.7429   28.7406 H   0  0  0  0  0  0  0  0  0  0  0  0
   16.2504  151.1418   28.2739 H   0  0  0  0  0  0  0  0  0  0  0  0
   13.3783  153.2322   26.1775 H   0  0  0  0  0  0  0  0  0  0  0  0
   13.5264  153.5244   27.9694 H   0  0  0  0  0  0  0  0  0  0  0  0
   15.4423  154.4329   25.7777 H   0  0  0  0  0  0  0  0  0  0  0  0
   14.3840  155.4526   26.8419 H   0  0  0  0  0  0  0  0  0  0  0  0
   15.6903  154.7923   28.8302 H   0  0  0  0  0  0  0  0  0  0  0  0
   14.8934  152.9992   24.6479 H   0  0  0  0  0  0  0  0  0  0  0  0
   11.8052  143.3285   24.6226 H   0  0  0  0  0  0  0  0  0  0  0  0
   10.0715  143.7909   24.8243 H   0  0  0  0  0  0  0  0  0  0  0  0
   10.4362  144.1630   27.2472 H   0  0  0  0  0  0  0  0  0  0  0  0
   10.9118  142.5029   26.8077 H   0  0  0  0  0  0  0  0  0  0  0  0
   12.7243  143.4172   28.1610 H   0  0  0  0  0  0  0  0  0  0  0  0
   13.3189  143.4106   26.4820 H   0  0  0  0  0  0  0  0  0  0  0  0
   11.8745  145.8393   27.7202 H   0  0  0  0  0  0  0  0  0  0  0  0
   13.6221  145.6818   27.8037 H   0  0  0  0  0  0  0  0  0  0  0  0
   13.6399  145.2482   25.2586 H   0  0  0  0  0  0  0  0  0  0  0  0
   11.6424  145.6920   23.9420 H   0  0  0  0  0  0  0  0  0  0  0  0
   13.4942  147.6353   26.6043 H   0  0  0  0  0  0  0  0  0  0  0  0
   11.8048  147.7512   24.0097 H   0  0  0  0  0  0  0  0  0  0  0  0
    9.3282  145.6914   25.7360 H   0  0  0  0  0  0  0  0  0  0  0  0
   10.0509  147.9829   26.5722 H   0  0  0  0  0  0  0  0  0  0  0  0
   11.6495  149.8293   26.2633 H   0  0  0  0  0  0  0  0  0  0  0  0
   12.5360  150.0136   24.7119 H   0  0  0  0  0  0  0  0  0  0  0  0
   10.7451  149.8738   24.7119 H   0  0  0  0  0  0  0  0  0  0  0  0
   14.7915  151.7634   22.6141 H   0  0  0  0  0  0  0  0  0  0  0  0
   14.7278  149.7302   27.8723 H   0  0  0  0  0  0  0  0  0  0  0  0
   17.3874  156.2081   28.0704 H   0  0  0  0  0  0  0  0  0  0  0  0
   14.4639  151.6019   29.1232 H   0  0  0  0  0  0  0  0  0  0  0  0
  1  2  1  0
  1  6  1  0
  1 28  1  0
  2  3  1  0
  2 28  1  0
  3  4  1  0
  3 11  1  0
  3 30  1  1
  4  5  1  0
  5  6  1  0
  6 29  1  0
  7  8  2  0
  7 11  1  0
  7 26  1  0
  8  9  1  0
  8 12  1  0
  9 24  1  0
  9 25  2  0
 10 11  2  0
 10 24  1  0
 19 12  1  0
 12 27  2  0
 13 14  1  0
 18 13  1  0
 14 15  1  0
 15 16  1  0
 17 16  1  0
 17 18  1  0
 17 19  1  0
 18 21  1  0
 19 20  1  0
 20 22  1  0
 20 23  1  0
 21 22  2  0
  1 31  1  1
  2 32  1  1
  4 33  1  0
  4 34  1  0
  5 35  1  0
  5 36  1  0
  6 37  1  1
 10 38  1  0
 13 39  1  0
 13 40  1  0
 14 41  1  0
 14 42  1  0
 15 43  1  0
 15 44  1  0
 16 45  1  0
 16 46  1  0
 17 47  1  6
 18 48  1  6
 19 49  1  1
 20 50  1  6
 21 51  1  0
 22 52  1  0
 23 53  1  0
 23 54  1  0
 23 55  1  0
 24 56  1  0
 26 57  1  0
 29 58  1  0
 30 59  1  0
M  END
>  <filename_input>  (26) 
7WUY_76N_docked.sdf

>  <pdb_id>  (26) 
7WUY_76N

>  <pose_rank>  (26) 
25

>  <num_atoms_heavy>  (26) 
30

>  <num_torsions>  (26) 
3

>  <pose>  (26) 
[14.703, 149.839, 25.879, 1e-06, 1e-06, 1e-06, 0.0, 0.0, 0.0]

>  <energy>  (26) 
-877.0029216346046

>  <inter_energy>  (26) 
-991.5741638265916

>  <intra_energy>  (26) 
103.3912108983161

>  <rmsd>  (26) 
0.0

>  <sdf_rank>  (26) 
0

$$$$
