
     RDKit          3D

 58 59  0  0  0  0  0  0  0  0999 V2000
   -2.4080  -32.4592  -70.9784 C   0  0  0  0  0  0  0  0  0  0  0  0
   -1.8743  -31.3049  -71.5019 C   0  0  0  0  0  0  0  0  0  0  0  0
    0.0060  -24.8072  -68.7785 C   0  0  0  0  0  0  0  0  0  0  0  0
    1.1444  -26.2041  -67.1277 C   0  0  0  0  0  0  0  0  0  0  0  0
   -1.3575  -30.2437  -70.5713 C   0  0  0  0  0  0  0  0  0  0  0  0
    2.0930  -27.8166  -68.6712 C   0  0  0  0  0  0  0  0  0  0  0  0
    0.3694  -27.4250  -70.4557 C   0  0  0  0  0  0  0  0  0  0  0  0
   -1.8913  -31.1041  -72.8734 C   0  0  0  0  0  0  0  0  0  0  0  0
    1.8226  -27.5639  -67.1892 C   0  0  0  0  0  0  0  0  0  0  0  0
    1.1879  -26.7993  -69.3594 C   0  0  1  0  0  0  0  0  0  0  0  0
   -2.8997  -33.4016  -71.8323 C   0  0  0  0  0  0  0  0  0  0  0  0
   -1.6397  -28.7836  -70.9411 C   0  0  1  0  0  0  0  0  0  0  0  0
   -2.9135  -33.2419  -73.2122 C   0  0  0  0  0  0  0  0  0  0  0  0
   -3.0670  -28.4228  -70.6395 C   0  0  0  0  0  0  0  0  0  0  0  0
   -2.4087  -32.0763  -73.7327 C   0  0  0  0  0  0  0  0  0  0  0  0
   -3.7159  -27.8009  -71.5242 O   0  0  0  0  0  0  0  0  0  0  0  0
    0.7863  -27.3424  -71.6116 O   0  0  0  0  0  0  0  0  0  0  0  0
   -3.5766  -28.7418  -69.5242 O   0  0  0  0  0  0  0  0  0  0  0  0
    0.3349  -26.1778  -68.3006 N   0  0  2  0  0  0  0  0  0  0  0  0
   -1.2595  -24.1942  -68.2194 C   0  0  0  0  0  0  0  0  0  0  0  0
   -0.8867  -23.1735  -67.1468 C   0  0  0  0  0  0  0  0  0  0  0  0
   -1.8715  -22.0036  -67.0664 C   0  0  0  0  0  0  0  0  0  0  0  0
   -2.9281  -22.3696  -66.0232 C   0  0  0  0  0  0  0  0  0  0  0  0
   -2.9369  -21.4987  -64.7759 C   0  0  0  0  0  0  0  0  0  0  0  0
   -2.2360  -20.1545  -64.9715 C   0  0  0  0  0  0  0  0  0  0  0  0
   -0.7514  -28.0367  -70.0967 N   0  0  0  0  0  0  0  0  0  0  0  0
   -2.4377  -32.6193  -69.8905 H   0  0  0  0  0  0  0  0  0  0  0  0
    0.8452  -24.1478  -68.5122 H   0  0  0  0  0  0  0  0  0  0  0  0
   -0.1653  -24.9043  -69.8607 H   0  0  0  0  0  0  0  0  0  0  0  0
    0.5262  -26.1144  -66.2223 H   0  0  0  0  0  0  0  0  0  0  0  0
    1.8616  -25.3711  -67.0856 H   0  0  0  0  0  0  0  0  0  0  0  0
   -1.8039  -30.4259  -69.5826 H   0  0  0  0  0  0  0  0  0  0  0  0
   -0.2626  -30.3389  -70.6163 H   0  0  0  0  0  0  0  0  0  0  0  0
    3.1499  -27.6366  -68.9173 H   0  0  0  0  0  0  0  0  0  0  0  0
    1.8945  -28.8538  -68.9790 H   0  0  0  0  0  0  0  0  0  0  0  0
   -1.4922  -30.1676  -73.2903 H   0  0  0  0  0  0  0  0  0  0  0  0
    2.7656  -27.5494  -66.6231 H   0  0  0  0  0  0  0  0  0  0  0  0
    1.1966  -28.3532  -66.7475 H   0  0  0  0  0  0  0  0  0  0  0  0
    1.7917  -26.0269  -69.8581 H   0  0  0  0  0  0  0  0  0  0  0  0
   -3.3045  -34.3325  -71.4086 H   0  0  0  0  0  0  0  0  0  0  0  0
   -1.4872  -28.5836  -72.0120 H   0  0  0  0  0  0  0  0  0  0  0  0
   -3.3173  -34.0267  -73.8688 H   0  0  0  0  0  0  0  0  0  0  0  0
   -2.4117  -31.9089  -74.8199 H   0  0  0  0  0  0  0  0  0  0  0  0
   -0.5575  -26.6512  -68.0998 H   0  0  0  0  0  0  0  0  0  0  0  0
   -1.8149  -23.6944  -69.0267 H   0  0  0  0  0  0  0  0  0  0  0  0
   -1.8903  -24.9809  -67.7799 H   0  0  0  0  0  0  0  0  0  0  0  0
   -0.8656  -23.6817  -66.1715 H   0  0  0  0  0  0  0  0  0  0  0  0
    0.0961  -22.7585  -67.4148 H   0  0  0  0  0  0  0  0  0  0  0  0
   -1.3439  -21.0875  -66.7624 H   0  0  0  0  0  0  0  0  0  0  0  0
   -2.3382  -21.8193  -68.0453 H   0  0  0  0  0  0  0  0  0  0  0  0
   -3.9169  -22.2924  -66.4989 H   0  0  0  0  0  0  0  0  0  0  0  0
   -2.6818  -23.3864  -65.6834 H   0  0  0  0  0  0  0  0  0  0  0  0
   -3.9820  -21.3090  -64.4900 H   0  0  0  0  0  0  0  0  0  0  0  0
   -2.3854  -22.0428  -63.9950 H   0  0  0  0  0  0  0  0  0  0  0  0
   -2.0065  -19.7144  -63.9899 H   0  0  0  0  0  0  0  0  0  0  0  0
   -1.3021  -20.3062  -65.5328 H   0  0  0  0  0  0  0  0  0  0  0  0
   -2.8949  -19.4757  -65.5328 H   0  0  0  0  0  0  0  0  0  0  0  0
   -1.0130  -27.9682  -69.1028 H   0  0  0  0  0  0  0  0  0  0  0  0
  1  2  2  0
  1 11  1  0
  2  5  1  0
  2  8  1  0
 19  3  1  0
  3 20  1  0
  4  9  1  0
  4 19  1  0
 12  5  1  0
  6  9  1  0
  6 10  1  0
 10  7  1  0
  7 17  2  0
  7 26  1  0
  8 15  2  0
 10 19  1  0
 11 13  2  0
 12 14  1  0
 12 26  1  0
 13 15  1  0
 14 16  2  0
 14 18  1  0
 20 21  1  0
 21 22  1  0
 22 23  1  0
 23 24  1  0
 24 25  1  0
  1 27  1  0
  3 28  1  0
  3 29  1  0
  4 30  1  0
  4 31  1  0
  5 32  1  0
  5 33  1  0
  6 34  1  0
  6 35  1  0
  8 36  1  0
  9 37  1  0
  9 38  1  0
 10 39  1  6
 11 40  1  0
 12 41  1  6
 13 42  1  0
 15 43  1  0
 19 44  1  1
 20 45  1  0
 20 46  1  0
 21 47  1  0
 21 48  1  0
 22 49  1  0
 22 50  1  0
 23 51  1  0
 23 52  1  0
 24 53  1  0
 24 54  1  0
 25 55  1  0
 25 56  1  0
 25 57  1  0
 26 58  1  0
M  CHG  2  18  -1  19   1
M  END
>  <filename_input>  (1) 
7WY1_D0L_docked.sdf

>  <pdb_id>  (1) 
7WY1_D0L

>  <pose_rank>  (1) 
0

>  <num_atoms_heavy>  (1) 
26

>  <num_torsions>  (1) 
11

>  <pose>  (1) 
[0.36942789556830696, -27.424994091074776, -70.45565658274452, -2.194007518046614, -4.4648720482701085, -3.737969242053715, -0.10160624025642408, 6.136961217894982, -0.3154183141174709, -0.7103240104860609, -1.265332431227857, -1.0061079220409281, -0.7251175901408184, 0.3237993474192605, 2.306517165867641, 0.2229382942246551, 2.731204547552747]

>  <energy>  (1) 
-902.4227934766513

>  <inter_energy>  (1) 
-887.3478260265898

>  <intra_energy>  (1) 
1.6143818061624111

>  <rmsd>  (1) 
0.712478

>  <sdf_rank>  (1) 
0

$$$$

     RDKit          3D

 58 59  0  0  0  0  0  0  0  0999 V2000
   -1.9391  -30.9892  -72.7527 C   0  0  0  0  0  0  0  0  0  0  0  0
   -2.0146  -31.3603  -71.4306 C   0  0  0  0  0  0  0  0  0  0  0  0
   -0.2382  -25.4585  -66.9852 C   0  0  0  0  0  0  0  0  0  0  0  0
    1.4678  -27.1091  -66.4042 C   0  0  0  0  0  0  0  0  0  0  0  0
   -1.4300  -30.4606  -70.3780 C   0  0  0  0  0  0  0  0  0  0  0  0
    2.0207  -27.8069  -68.6603 C   0  0  0  0  0  0  0  0  0  0  0  0
   -0.1977  -27.1355  -69.6279 C   0  0  0  0  0  0  0  0  0  0  0  0
   -2.5581  -32.5907  -71.0954 C   0  0  0  0  0  0  0  0  0  0  0  0
    2.2036  -28.1826  -67.1910 C   0  0  0  0  0  0  0  0  0  0  0  0
    0.8658  -26.8111  -68.6145 C   0  0  1  0  0  0  0  0  0  0  0  0
   -2.4475  -31.8275  -73.7002 C   0  0  0  0  0  0  0  0  0  0  0  0
   -1.5866  -28.9492  -70.5763 C   0  0  1  0  0  0  0  0  0  0  0  0
   -3.0173  -33.0578  -73.3978 C   0  0  0  0  0  0  0  0  0  0  0  0
   -2.9840  -28.5089  -70.2418 C   0  0  0  0  0  0  0  0  0  0  0  0
   -3.0648  -33.4416  -72.0807 C   0  0  0  0  0  0  0  0  0  0  0  0
   -3.6439  -27.9155  -71.1379 O   0  0  0  0  0  0  0  0  0  0  0  0
   -0.5757  -26.2377  -70.3815 O   0  0  0  0  0  0  0  0  0  0  0  0
   -3.4584  -28.7357  -69.0891 O   0  0  0  0  0  0  0  0  0  0  0  0
    0.3351  -26.8123  -67.2169 N   0  0  2  0  0  0  0  0  0  0  0  0
    0.7563  -24.3575  -66.6880 C   0  0  0  0  0  0  0  0  0  0  0  0
    0.5074  -23.1909  -67.6410 C   0  0  0  0  0  0  0  0  0  0  0  0
    1.6838  -22.9287  -68.5857 C   0  0  0  0  0  0  0  0  0  0  0  0
    1.4053  -23.6917  -69.8814 C   0  0  0  0  0  0  0  0  0  0  0  0
    2.2858  -23.3089  -71.0614 C   0  0  0  0  0  0  0  0  0  0  0  0
    1.7237  -23.7630  -72.4082 C   0  0  0  0  0  0  0  0  0  0  0  0
   -0.6527  -28.3813  -69.6461 N   0  0  0  0  0  0  0  0  0  0  0  0
   -1.4769  -30.0334  -73.0406 H   0  0  0  0  0  0  0  0  0  0  0  0
   -0.7981  -25.1714  -67.8875 H   0  0  0  0  0  0  0  0  0  0  0  0
   -0.8573  -25.5502  -66.0806 H   0  0  0  0  0  0  0  0  0  0  0  0
    1.1559  -27.4883  -65.4199 H   0  0  0  0  0  0  0  0  0  0  0  0
    2.0911  -26.2255  -66.2022 H   0  0  0  0  0  0  0  0  0  0  0  0
   -1.9068  -30.7190  -69.4210 H   0  0  0  0  0  0  0  0  0  0  0  0
   -0.3457  -30.6398  -70.4252 H   0  0  0  0  0  0  0  0  0  0  0  0
    2.9304  -27.3400  -69.0659 H   0  0  0  0  0  0  0  0  0  0  0  0
    1.8231  -28.6727  -69.3094 H   0  0  0  0  0  0  0  0  0  0  0  0
   -2.5908  -32.9009  -70.0406 H   0  0  0  0  0  0  0  0  0  0  0  0
    3.2711  -28.1902  -66.9259 H   0  0  0  0  0  0  0  0  0  0  0  0
    1.8131  -29.1879  -66.9745 H   0  0  0  0  0  0  0  0  0  0  0  0
    1.2189  -25.8043  -68.8823 H   0  0  0  0  0  0  0  0  0  0  0  0
   -2.4045  -31.5148  -74.7539 H   0  0  0  0  0  0  0  0  0  0  0  0
   -1.4026  -28.6398  -71.6158 H   0  0  0  0  0  0  0  0  0  0  0  0
   -3.4188  -33.7058  -74.1909 H   0  0  0  0  0  0  0  0  0  0  0  0
   -3.4992  -34.4132  -71.8028 H   0  0  0  0  0  0  0  0  0  0  0  0
   -0.4086  -27.4953  -67.0137 H   0  0  0  0  0  0  0  0  0  0  0  0
    0.6309  -24.0181  -65.6492 H   0  0  0  0  0  0  0  0  0  0  0  0
    1.7803  -24.7357  -66.8236 H   0  0  0  0  0  0  0  0  0  0  0  0
   -0.3839  -23.4158  -68.2451 H   0  0  0  0  0  0  0  0  0  0  0  0
    0.3704  -22.2882  -67.0275 H   0  0  0  0  0  0  0  0  0  0  0  0
    1.7670  -21.8517  -68.7935 H   0  0  0  0  0  0  0  0  0  0  0  0
    2.6290  -23.2625  -68.1326 H   0  0  0  0  0  0  0  0  0  0  0  0
    1.5501  -24.7639  -69.6826 H   0  0  0  0  0  0  0  0  0  0  0  0
    0.3764  -23.4334  -70.1722 H   0  0  0  0  0  0  0  0  0  0  0  0
    2.3905  -22.2140  -71.0781 H   0  0  0  0  0  0  0  0  0  0  0  0
    3.2524  -23.8159  -70.9243 H   0  0  0  0  0  0  0  0  0  0  0  0
    0.8780  -24.4463  -72.2410 H   0  0  0  0  0  0  0  0  0  0  0  0
    1.3799  -22.8862  -72.9765 H   0  0  0  0  0  0  0  0  0  0  0  0
    2.5087  -24.2835  -72.9765 H   0  0  0  0  0  0  0  0  0  0  0  0
   -0.2969  -29.0101  -68.9121 H   0  0  0  0  0  0  0  0  0  0  0  0
  1  2  2  0
  1 11  1  0
  2  5  1  0
  2  8  1  0
 19  3  1  0
  3 20  1  0
  4  9  1  0
  4 19  1  0
 12  5  1  0
  6  9  1  0
  6 10  1  0
 10  7  1  0
  7 17  2  0
  7 26  1  0
  8 15  2  0
 10 19  1  0
 11 13  2  0
 12 14  1  0
 12 26  1  0
 13 15  1  0
 14 16  2  0
 14 18  1  0
 20 21  1  0
 21 22  1  0
 22 23  1  0
 23 24  1  0
 24 25  1  0
  1 27  1  0
  3 28  1  0
  3 29  1  0
  4 30  1  0
  4 31  1  0
  5 32  1  0
  5 33  1  0
  6 34  1  0
  6 35  1  0
  8 36  1  0
  9 37  1  0
  9 38  1  0
 10 39  1  6
 11 40  1  0
 12 41  1  6
 13 42  1  0
 15 43  1  0
 19 44  1  6
 20 45  1  0
 20 46  1  0
 21 47  1  0
 21 48  1  0
 22 49  1  0
 22 50  1  0
 23 51  1  0
 23 52  1  0
 24 53  1  0
 24 54  1  0
 25 55  1  0
 25 56  1  0
 25 57  1  0
 26 58  1  0
M  CHG  2  18  -1  19   1
M  END
>  <filename_input>  (2) 
7WY1_D0L_docked.sdf

>  <pdb_id>  (2) 
7WY1_D0L

>  <pose_rank>  (2) 
1

>  <num_atoms_heavy>  (2) 
26

>  <num_torsions>  (2) 
11

>  <pose>  (2) 
[-0.19769016628297986, -27.135510808551892, -69.62789836216272, 0.7806482474611589, 0.49804094416871764, 0.6112057491770609, 5.61413421816471, 2.0576946942187933, 0.11050826469682491, 0.963013541986173, -1.2347629383971714, -0.09930397084439242, -3.9038446844036607, 1.3517619945368515, -3.7856459571357335, 6.509100657291368, -0.44315951958798844]

>  <energy>  (2) 
-716.6481292418176

>  <inter_energy>  (2) 
-734.1383734538205

>  <intra_energy>  (2) 
11.198875928496166

>  <rmsd>  (2) 
3.1199

>  <sdf_rank>  (2) 
0

$$$$

     RDKit          3D

 58 59  0  0  0  0  0  0  0  0999 V2000
   -2.1912  -30.7146  -73.2560 C   0  0  0  0  0  0  0  0  0  0  0  0
   -2.3255  -30.6361  -71.8895 C   0  0  0  0  0  0  0  0  0  0  0  0
   -1.0147  -24.8239  -67.1100 C   0  0  0  0  0  0  0  0  0  0  0  0
    0.9944  -24.4718  -68.4560 C   0  0  0  0  0  0  0  0  0  0  0  0
   -2.0481  -29.3322  -71.1953 C   0  0  0  0  0  0  0  0  0  0  0  0
    0.2069  -25.5304  -70.4911 C   0  0  0  0  0  0  0  0  0  0  0  0
   -1.4693  -26.9908  -69.3226 C   0  0  0  0  0  0  0  0  0  0  0  0
   -2.6386  -31.7766  -71.1664 C   0  0  0  0  0  0  0  0  0  0  0  0
    1.4629  -24.9980  -69.8038 C   0  0  0  0  0  0  0  0  0  0  0  0
   -0.7852  -25.6511  -69.3384 C   0  0  1  0  0  0  0  0  0  0  0  0
   -2.4177  -31.9103  -73.8706 C   0  0  0  0  0  0  0  0  0  0  0  0
   -1.2236  -29.3822  -69.9045 C   0  0  1  0  0  0  0  0  0  0  0  0
   -2.7531  -33.0675  -73.1790 C   0  0  0  0  0  0  0  0  0  0  0  0
   -0.0547  -30.3149  -70.0536 C   0  0  0  0  0  0  0  0  0  0  0  0
   -2.8570  -32.9959  -71.8121 C   0  0  0  0  0  0  0  0  0  0  0  0
    0.0022  -31.3139  -69.2859 O   0  0  0  0  0  0  0  0  0  0  0  0
   -2.6378  -27.0422  -68.9369 O   0  0  0  0  0  0  0  0  0  0  0  0
    0.8324  -30.0807  -70.9275 O   0  0  0  0  0  0  0  0  0  0  0  0
   -0.0310  -25.3857  -68.0753 N   0  0  2  0  0  0  0  0  0  0  0  0
   -1.8835  -23.6976  -67.6260 C   0  0  0  0  0  0  0  0  0  0  0  0
   -1.3740  -22.3751  -67.0580 C   0  0  0  0  0  0  0  0  0  0  0  0
   -2.4336  -21.6252  -66.2456 C   0  0  0  0  0  0  0  0  0  0  0  0
   -1.6942  -20.6986  -65.2795 C   0  0  0  0  0  0  0  0  0  0  0  0
   -2.2194  -20.6981  -63.8517 C   0  0  0  0  0  0  0  0  0  0  0  0
   -2.9390  -21.9918  -63.4712 C   0  0  0  0  0  0  0  0  0  0  0  0
   -0.7623  -28.0334  -69.7381 N   0  0  0  0  0  0  0  0  0  0  0  0
   -1.9062  -29.8286  -73.8425 H   0  0  0  0  0  0  0  0  0  0  0  0
   -1.6781  -25.6415  -66.7917 H   0  0  0  0  0  0  0  0  0  0  0  0
   -0.4156  -24.3870  -66.2974 H   0  0  0  0  0  0  0  0  0  0  0  0
    1.8165  -24.4777  -67.7252 H   0  0  0  0  0  0  0  0  0  0  0  0
    0.6420  -23.4308  -68.5035 H   0  0  0  0  0  0  0  0  0  0  0  0
   -1.5097  -28.6879  -71.9060 H   0  0  0  0  0  0  0  0  0  0  0  0
   -3.0364  -28.9634  -70.8838 H   0  0  0  0  0  0  0  0  0  0  0  0
   -0.1560  -24.8257  -71.2539 H   0  0  0  0  0  0  0  0  0  0  0  0
    0.3715  -26.4782  -71.0245 H   0  0  0  0  0  0  0  0  0  0  0  0
   -2.7160  -31.7208  -70.0706 H   0  0  0  0  0  0  0  0  0  0  0  0
    1.9126  -24.1886  -70.3975 H   0  0  0  0  0  0  0  0  0  0  0  0
    2.2304  -25.7782  -69.6936 H   0  0  0  0  0  0  0  0  0  0  0  0
   -1.5961  -24.9169  -69.4542 H   0  0  0  0  0  0  0  0  0  0  0  0
   -2.3309  -31.9612  -74.9660 H   0  0  0  0  0  0  0  0  0  0  0  0
   -1.8068  -29.7480  -69.0466 H   0  0  0  0  0  0  0  0  0  0  0  0
   -2.9302  -34.0137  -73.7113 H   0  0  0  0  0  0  0  0  0  0  0  0
   -3.1107  -33.8933  -71.2288 H   0  0  0  0  0  0  0  0  0  0  0  0
    0.4029  -26.2038  -67.6244 H   0  0  0  0  0  0  0  0  0  0  0  0
   -1.8364  -23.6694  -68.7247 H   0  0  0  0  0  0  0  0  0  0  0  0
   -2.9255  -23.8592  -67.3129 H   0  0  0  0  0  0  0  0  0  0  0  0
   -0.5134  -22.5825  -66.4049 H   0  0  0  0  0  0  0  0  0  0  0  0
   -1.0985  -21.7355  -67.9095 H   0  0  0  0  0  0  0  0  0  0  0  0
   -3.0746  -21.0350  -66.9170 H   0  0  0  0  0  0  0  0  0  0  0  0
   -3.0739  -22.3305  -65.6956 H   0  0  0  0  0  0  0  0  0  0  0  0
   -0.6386  -21.0066  -65.2535 H   0  0  0  0  0  0  0  0  0  0  0  0
   -1.8453  -19.6778  -65.6603 H   0  0  0  0  0  0  0  0  0  0  0  0
   -1.3699  -20.5570  -63.1674 H   0  0  0  0  0  0  0  0  0  0  0  0
   -2.9536  -19.8825  -63.7752 H   0  0  0  0  0  0  0  0  0  0  0  0
   -2.9862  -22.0765  -62.3755 H   0  0  0  0  0  0  0  0  0  0  0  0
   -3.9593  -21.9783  -63.8822 H   0  0  0  0  0  0  0  0  0  0  0  0
   -2.3895  -22.8515  -63.8822 H   0  0  0  0  0  0  0  0  0  0  0  0
    0.2261  -27.8554  -69.9663 H   0  0  0  0  0  0  0  0  0  0  0  0
  1  2  2  0
  1 11  1  0
  2  5  1  0
  2  8  1  0
 19  3  1  0
  3 20  1  0
  4  9  1  0
  4 19  1  0
 12  5  1  0
  6  9  1  0
  6 10  1  0
 10  7  1  0
  7 17  2  0
  7 26  1  0
  8 15  2  0
 10 19  1  0
 11 13  2  0
 12 14  1  0
 12 26  1  0
 13 15  1  0
 14 16  2  0
 14 18  1  0
 20 21  1  0
 21 22  1  0
 22 23  1  0
 23 24  1  0
 24 25  1  0
  1 27  1  0
  3 28  1  0
  3 29  1  0
  4 30  1  0
  4 31  1  0
  5 32  1  0
  5 33  1  0
  6 34  1  0
  6 35  1  0
  8 36  1  0
  9 37  1  0
  9 38  1  0
 10 39  1  6
 11 40  1  0
 12 41  1  1
 13 42  1  0
 15 43  1  0
 19 44  1  1
 20 45  1  0
 20 46  1  0
 21 47  1  0
 21 48  1  0
 22 49  1  0
 22 50  1  0
 23 51  1  0
 23 52  1  0
 24 53  1  0
 24 54  1  0
 25 55  1  0
 25 56  1  0
 25 57  1  0
 26 58  1  0
M  CHG  2  18  -1  19   1
M  END
>  <filename_input>  (3) 
7WY1_D0L_docked.sdf

>  <pdb_id>  (3) 
7WY1_D0L

>  <pose_rank>  (3) 
2

>  <num_atoms_heavy>  (3) 
26

>  <num_torsions>  (3) 
11

>  <pose>  (3) 
[-1.4692835962518862, -26.99084814779956, -69.32255678287629, 0.9517619795669656, 1.9430818611455876, 1.1419937578553976, -0.9733083010705378, 2.5759773755228323, 2.354037135947188, 0.8679283989351, -0.14654548458038863, 0.9243750531182909, -0.6252929875509708, -0.1959588874802154, 2.5629542489501116, -0.3534532035573344, -3.4790774586132955]

>  <energy>  (3) 
-759.4257545782202

>  <inter_energy>  (3) 
-781.2535341827245

>  <intra_energy>  (3) 
26.652109890751717

>  <rmsd>  (3) 
2.22717

>  <sdf_rank>  (3) 
0

$$$$

     RDKit          3D

 58 59  0  0  0  0  0  0  0  0999 V2000
   -2.6301  -22.7491  -65.2695 C   0  0  0  0  0  0  0  0  0  0  0  0
   -1.7150  -22.2018  -66.1381 C   0  0  0  0  0  0  0  0  0  0  0  0
   -0.9135  -28.0402  -69.8942 C   0  0  0  0  0  0  0  0  0  0  0  0
    1.4434  -27.4339  -70.1169 C   0  0  0  0  0  0  0  0  0  0  0  0
   -1.1663  -23.0426  -67.2567 C   0  0  0  0  0  0  0  0  0  0  0  0
    1.7741  -26.5982  -67.8642 C   0  0  0  0  0  0  0  0  0  0  0  0
   -0.6481  -26.0444  -67.4975 C   0  0  0  0  0  0  0  0  0  0  0  0
   -1.2555  -20.9116  -65.9240 C   0  0  0  0  0  0  0  0  0  0  0  0
    2.4123  -26.6435  -69.2512 C   0  0  0  0  0  0  0  0  0  0  0  0
    0.3266  -26.9906  -68.1439 C   0  0  1  0  0  0  0  0  0  0  0  0
   -3.0986  -21.9852  -64.2419 C   0  0  0  0  0  0  0  0  0  0  0  0
   -2.1030  -24.0815  -67.8825 C   0  0  1  0  0  0  0  0  0  0  0  0
   -2.6752  -20.6825  -64.0104 C   0  0  0  0  0  0  0  0  0  0  0  0
   -2.8062  -23.5120  -69.0824 C   0  0  0  0  0  0  0  0  0  0  0  0
   -1.7389  -20.1471  -64.8595 C   0  0  0  0  0  0  0  0  0  0  0  0
   -2.5286  -23.9984  -70.2124 O   0  0  0  0  0  0  0  0  0  0  0  0
   -0.8489  -26.1538  -66.2874 O   0  0  0  0  0  0  0  0  0  0  0  0
   -3.6434  -22.5723  -68.9364 O   0  0  0  0  0  0  0  0  0  0  0  0
    0.1617  -27.0460  -69.6287 N   0  0  2  0  0  0  0  0  0  0  0  0
   -0.4970  -29.2841  -70.6486 C   0  0  0  0  0  0  0  0  0  0  0  0
   -1.7476  -30.0304  -71.1072 C   0  0  0  0  0  0  0  0  0  0  0  0
   -2.0565  -31.2623  -70.2515 C   0  0  0  0  0  0  0  0  0  0  0  0
   -2.4440  -32.3930  -71.2055 C   0  0  0  0  0  0  0  0  0  0  0  0
   -2.0743  -32.1664  -72.6637 C   0  0  0  0  0  0  0  0  0  0  0  0
   -2.4731  -33.3260  -73.5762 C   0  0  0  0  0  0  0  0  0  0  0  0
   -1.2227  -25.1423  -68.2820 N   0  0  0  0  0  0  0  0  0  0  0  0
   -2.9778  -23.7843  -65.4014 H   0  0  0  0  0  0  0  0  0  0  0  0
   -1.3254  -28.3570  -68.9247 H   0  0  0  0  0  0  0  0  0  0  0  0
   -1.6365  -27.5273  -70.5455 H   0  0  0  0  0  0  0  0  0  0  0  0
    1.5568  -27.1661  -71.1777 H   0  0  0  0  0  0  0  0  0  0  0  0
    1.6103  -28.5198  -70.0616 H   0  0  0  0  0  0  0  0  0  0  0  0
   -0.8490  -22.3591  -68.0581 H   0  0  0  0  0  0  0  0  0  0  0  0
   -0.3598  -23.6320  -66.7962 H   0  0  0  0  0  0  0  0  0  0  0  0
    2.2546  -27.3163  -67.1835 H   0  0  0  0  0  0  0  0  0  0  0  0
    1.8721  -25.6193  -67.3719 H   0  0  0  0  0  0  0  0  0  0  0  0
   -0.5008  -20.4845  -66.6008 H   0  0  0  0  0  0  0  0  0  0  0  0
    3.3893  -27.1472  -69.2089 H   0  0  0  0  0  0  0  0  0  0  0  0
    2.5897  -25.6348  -69.6527 H   0  0  0  0  0  0  0  0  0  0  0  0
    0.1058  -27.9741  -67.7036 H   0  0  0  0  0  0  0  0  0  0  0  0
   -3.8473  -22.4210  -63.5640 H   0  0  0  0  0  0  0  0  0  0  0  0
   -2.8894  -24.4116  -67.1878 H   0  0  0  0  0  0  0  0  0  0  0  0
   -3.0785  -20.0970  -63.1711 H   0  0  0  0  0  0  0  0  0  0  0  0
   -1.3715  -19.1222  -64.7026 H   0  0  0  0  0  0  0  0  0  0  0  0
   -0.1175  -26.1674  -70.0882 H   0  0  0  0  0  0  0  0  0  0  0  0
    0.1046  -28.9999  -71.5245 H   0  0  0  0  0  0  0  0  0  0  0  0
    0.1028  -29.9325  -69.9930 H   0  0  0  0  0  0  0  0  0  0  0  0
   -2.6049  -29.3433  -71.0549 H   0  0  0  0  0  0  0  0  0  0  0  0
   -1.5640  -30.3804  -72.1338 H   0  0  0  0  0  0  0  0  0  0  0  0
   -1.1682  -31.5487  -69.6694 H   0  0  0  0  0  0  0  0  0  0  0  0
   -2.8733  -31.0512  -69.5456 H   0  0  0  0  0  0  0  0  0  0  0  0
   -1.9423  -33.3112  -70.8661 H   0  0  0  0  0  0  0  0  0  0  0  0
   -3.5418  -32.4547  -71.1752 H   0  0  0  0  0  0  0  0  0  0  0  0
   -2.5814  -31.2556  -73.0148 H   0  0  0  0  0  0  0  0  0  0  0  0
   -0.9791  -32.0761  -72.7117 H   0  0  0  0  0  0  0  0  0  0  0  0
   -2.7700  -34.1897  -72.9631 H   0  0  0  0  0  0  0  0  0  0  0  0
   -3.3174  -33.0194  -74.2111 H   0  0  0  0  0  0  0  0  0  0  0  0
   -1.6187  -33.6035  -74.2111 H   0  0  0  0  0  0  0  0  0  0  0  0
   -1.0144  -25.2106  -69.2884 H   0  0  0  0  0  0  0  0  0  0  0  0
  1  2  2  0
  1 11  1  0
  2  5  1  0
  2  8  1  0
 19  3  1  0
  3 20  1  0
  4  9  1  0
  4 19  1  0
 12  5  1  0
  6  9  1  0
  6 10  1  0
 10  7  1  0
  7 17  2  0
  7 26  1  0
  8 15  2  0
 10 19  1  0
 11 13  2  0
 12 14  1  0
 12 26  1  0
 13 15  1  0
 14 16  2  0
 14 18  1  0
 20 21  1  0
 21 22  1  0
 22 23  1  0
 23 24  1  0
 24 25  1  0
  1 27  1  0
  3 28  1  0
  3 29  1  0
  4 30  1  0
  4 31  1  0
  5 32  1  0
  5 33  1  0
  6 34  1  0
  6 35  1  0
  8 36  1  0
  9 37  1  0
  9 38  1  0
 10 39  1  1
 11 40  1  0
 12 41  1  1
 13 42  1  0
 15 43  1  0
 19 44  1  6
 20 45  1  0
 20 46  1  0
 21 47  1  0
 21 48  1  0
 22 49  1  0
 22 50  1  0
 23 51  1  0
 23 52  1  0
 24 53  1  0
 24 54  1  0
 25 55  1  0
 25 56  1  0
 25 57  1  0
 26 58  1  0
M  CHG  2  18  -1  19   1
M  END
>  <filename_input>  (4) 
7WY1_D0L_docked.sdf

>  <pdb_id>  (4) 
7WY1_D0L

>  <pose_rank>  (4) 
3

>  <num_atoms_heavy>  (4) 
26

>  <num_torsions>  (4) 
11

>  <pose>  (4) 
[-0.6481061453965806, -26.044355930255694, -67.49754223123735, -2.9680173892976827, 0.5681144595575361, -0.8099315978753793, -12.335846126194872, 1.4088119608090093, 1.2473658517320036, 7.467649048909114, 1.021199454758172, 3.5550527976451143, 2.0707627014887007, -6.474753214864317, 0.3293509853532832, 0.5195063592629168, -0.5174845764749293]

>  <energy>  (4) 
-721.4852012546206

>  <inter_energy>  (4) 
-732.1987604964228

>  <intra_energy>  (4) 
8.26630453016885

>  <rmsd>  (4) 
9.0146

>  <sdf_rank>  (4) 
0

$$$$

     RDKit          3D

 58 59  0  0  0  0  0  0  0  0999 V2000
   -2.7126  -22.6668  -65.2641 C   0  0  0  0  0  0  0  0  0  0  0  0
   -2.8371  -23.2467  -66.5050 C   0  0  0  0  0  0  0  0  0  0  0  0
   -1.4707  -29.2535  -70.2969 C   0  0  0  0  0  0  0  0  0  0  0  0
    0.8373  -29.9480  -69.8926 C   0  0  0  0  0  0  0  0  0  0  0  0
   -2.1335  -24.5448  -66.7859 C   0  0  0  0  0  0  0  0  0  0  0  0
    1.3965  -28.2591  -68.2441 C   0  0  0  0  0  0  0  0  0  0  0  0
   -0.3355  -26.6224  -69.0374 C   0  0  0  0  0  0  0  0  0  0  0  0
   -3.5443  -22.5890  -67.4995 C   0  0  0  0  0  0  0  0  0  0  0  0
    2.0099  -29.3216  -69.1541 C   0  0  0  0  0  0  0  0  0  0  0  0
    0.0007  -28.0742  -68.8316 C   0  0  1  0  0  0  0  0  0  0  0  0
   -3.3322  -21.4749  -65.0310 C   0  0  0  0  0  0  0  0  0  0  0  0
   -1.0956  -24.5544  -67.9133 C   0  0  1  0  0  0  0  0  0  0  0  0
   -4.0654  -20.7989  -65.9981 C   0  0  0  0  0  0  0  0  0  0  0  0
    0.0540  -23.6427  -67.5882 C   0  0  0  0  0  0  0  0  0  0  0  0
   -4.1640  -21.3630  -67.2457 C   0  0  0  0  0  0  0  0  0  0  0  0
    1.0895  -24.1583  -67.0857 O   0  0  0  0  0  0  0  0  0  0  0  0
   -0.3098  -26.1769  -70.1853 O   0  0  0  0  0  0  0  0  0  0  0  0
   -0.0409  -22.4004  -67.8183 O   0  0  0  0  0  0  0  0  0  0  0  0
   -0.0499  -28.8531  -70.1066 N   0  0  2  0  0  0  0  0  0  0  0  0
   -1.7047  -30.5044  -71.1155 C   0  0  0  0  0  0  0  0  0  0  0  0
   -2.2386  -31.6050  -70.2017 C   0  0  0  0  0  0  0  0  0  0  0  0
   -3.0855  -32.6416  -70.9455 C   0  0  0  0  0  0  0  0  0  0  0  0
   -2.2020  -33.8679  -71.1786 C   0  0  0  0  0  0  0  0  0  0  0  0
   -2.0686  -34.3045  -72.6297 C   0  0  0  0  0  0  0  0  0  0  0  0
   -2.4182  -33.2013  -73.6282 C   0  0  0  0  0  0  0  0  0  0  0  0
   -0.6488  -25.9175  -67.9583 N   0  0  0  0  0  0  0  0  0  0  0  0
   -2.1237  -23.1557  -64.4741 H   0  0  0  0  0  0  0  0  0  0  0  0
   -1.9106  -29.4156  -69.3018 H   0  0  0  0  0  0  0  0  0  0  0  0
   -1.9348  -28.4354  -70.8673 H   0  0  0  0  0  0  0  0  0  0  0  0
    1.1628  -30.3821  -70.8494 H   0  0  0  0  0  0  0  0  0  0  0  0
    0.3710  -30.7716  -69.3320 H   0  0  0  0  0  0  0  0  0  0  0  0
   -1.6197  -24.8484  -65.8618 H   0  0  0  0  0  0  0  0  0  0  0  0
   -2.9263  -25.2265  -67.1274 H   0  0  0  0  0  0  0  0  0  0  0  0
    1.3446  -28.6112  -67.2032 H   0  0  0  0  0  0  0  0  0  0  0  0
    1.9803  -27.3275  -68.2080 H   0  0  0  0  0  0  0  0  0  0  0  0
   -3.6184  -23.0380  -68.5009 H   0  0  0  0  0  0  0  0  0  0  0  0
    2.5386  -30.0800  -68.5580 H   0  0  0  0  0  0  0  0  0  0  0  0
    2.7463  -28.8898  -69.8479 H   0  0  0  0  0  0  0  0  0  0  0  0
   -0.7608  -28.4480  -68.1314 H   0  0  0  0  0  0  0  0  0  0  0  0
   -3.2476  -21.0273  -64.0297 H   0  0  0  0  0  0  0  0  0  0  0  0
   -1.5103  -24.2043  -68.8700 H   0  0  0  0  0  0  0  0  0  0  0  0
   -4.5529  -19.8394  -65.7708 H   0  0  0  0  0  0  0  0  0  0  0  0
   -4.7276  -20.8528  -68.0407 H   0  0  0  0  0  0  0  0  0  0  0  0
    0.2402  -28.3511  -70.9578 H   0  0  0  0  0  0  0  0  0  0  0  0
   -2.4387  -30.2947  -71.9076 H   0  0  0  0  0  0  0  0  0  0  0  0
   -0.7597  -30.8295  -71.5752 H   0  0  0  0  0  0  0  0  0  0  0  0
   -1.3847  -32.1189  -69.7360 H   0  0  0  0  0  0  0  0  0  0  0  0
   -2.8871  -31.1258  -69.4535 H   0  0  0  0  0  0  0  0  0  0  0  0
   -3.9606  -32.9179  -70.3389 H   0  0  0  0  0  0  0  0  0  0  0  0
   -3.4477  -32.2352  -71.9013 H   0  0  0  0  0  0  0  0  0  0  0  0
   -1.1955  -33.6392  -70.7982 H   0  0  0  0  0  0  0  0  0  0  0  0
   -2.6920  -34.7010  -70.6533 H   0  0  0  0  0  0  0  0  0  0  0  0
   -1.0290  -34.6179  -72.8057 H   0  0  0  0  0  0  0  0  0  0  0  0
   -2.7822  -35.1262  -72.7894 H   0  0  0  0  0  0  0  0  0  0  0  0
   -2.7068  -32.2908  -73.0824 H   0  0  0  0  0  0  0  0  0  0  0  0
   -1.5436  -32.9882  -74.2603 H   0  0  0  0  0  0  0  0  0  0  0  0
   -3.2560  -33.5309  -74.2603 H   0  0  0  0  0  0  0  0  0  0  0  0
   -0.5618  -26.4016  -67.0533 H   0  0  0  0  0  0  0  0  0  0  0  0
  1  2  2  0
  1 11  1  0
  2  5  1  0
  2  8  1  0
 19  3  1  0
  3 20  1  0
  4  9  1  0
  4 19  1  0
 12  5  1  0
  6  9  1  0
  6 10  1  0
 10  7  1  0
  7 17  2  0
  7 26  1  0
  8 15  2  0
 10 19  1  0
 11 13  2  0
 12 14  1  0
 12 26  1  0
 13 15  1  0
 14 16  2  0
 14 18  1  0
 20 21  1  0
 21 22  1  0
 22 23  1  0
 23 24  1  0
 24 25  1  0
  1 27  1  0
  3 28  1  0
  3 29  1  0
  4 30  1  0
  4 31  1  0
  5 32  1  0
  5 33  1  0
  6 34  1  0
  6 35  1  0
  8 36  1  0
  9 37  1  0
  9 38  1  0
 10 39  1  1
 11 40  1  0
 12 41  1  6
 13 42  1  0
 15 43  1  0
 19 44  1  6
 20 45  1  0
 20 46  1  0
 21 47  1  0
 21 48  1  0
 22 49  1  0
 22 50  1  0
 23 51  1  0
 23 52  1  0
 24 53  1  0
 24 54  1  0
 25 55  1  0
 25 56  1  0
 25 57  1  0
 26 58  1  0
M  CHG  2  18  -1  19   1
M  END
>  <filename_input>  (5) 
7WY1_D0L_docked.sdf

>  <pdb_id>  (5) 
7WY1_D0L

>  <pose_rank>  (5) 
4

>  <num_atoms_heavy>  (5) 
26

>  <num_torsions>  (5) 
11

>  <pose>  (5) 
[-0.3355332603454425, -26.622356967876758, -69.03737391938823, -1.366678059637712, -1.4063560464106843, 3.878358337877654, 3.407232237929379, 0.740358896884661, -0.17352715132538163, -0.6128046191488493, -1.1113732031543009, 1.1163369273149604, -0.7135185095575103, 0.9792962044855732, 0.04357071241103843, 0.00010116610682588795, 3.0949431883210337]

>  <energy>  (5) 
-699.8760028026325

>  <inter_energy>  (5) 
-706.8633447487198

>  <intra_energy>  (5) 
11.25296114433074

>  <rmsd>  (5) 
9.0842

>  <sdf_rank>  (5) 
0

$$$$

     RDKit          3D

 58 59  0  0  0  0  0  0  0  0999 V2000
    2.1150  -28.2974  -68.5188 C   0  0  0  0  0  0  0  0  0  0  0  0
    0.7481  -28.1873  -68.6235 C   0  0  0  0  0  0  0  0  0  0  0  0
   -2.4070  -24.1966  -68.5622 C   0  0  0  0  0  0  0  0  0  0  0  0
   -0.5060  -23.7791  -67.0844 C   0  0  0  0  0  0  0  0  0  0  0  0
    0.0505  -28.7758  -69.8177 C   0  0  0  0  0  0  0  0  0  0  0  0
    1.2538  -24.1693  -68.7071 C   0  0  0  0  0  0  0  0  0  0  0  0
   -0.1500  -25.6467  -70.1750 C   0  0  0  0  0  0  0  0  0  0  0  0
    0.0444  -27.4704  -67.6682 C   0  0  0  0  0  0  0  0  0  0  0  0
    0.9933  -24.0001  -67.2115 C   0  0  0  0  0  0  0  0  0  0  0  0
   -0.1385  -24.4493  -69.2644 C   0  0  1  0  0  0  0  0  0  0  0  0
    2.7389  -27.7344  -67.4452 C   0  0  0  0  0  0  0  0  0  0  0  0
   -1.0435  -27.9327  -70.4814 C   0  0  1  0  0  0  0  0  0  0  0  0
    2.0624  -27.0271  -66.4593 C   0  0  0  0  0  0  0  0  0  0  0  0
   -2.4007  -28.5288  -70.2341 C   0  0  0  0  0  0  0  0  0  0  0  0
    0.7018  -26.8911  -66.5802 C   0  0  0  0  0  0  0  0  0  0  0  0
   -2.6629  -29.6382  -70.7737 O   0  0  0  0  0  0  0  0  0  0  0  0
    0.5712  -25.6248  -71.1730 O   0  0  0  0  0  0  0  0  0  0  0  0
   -3.2367  -27.9150  -69.5062 O   0  0  0  0  0  0  0  0  0  0  0  0
   -1.0573  -24.6171  -68.0971 N   0  0  2  0  0  0  0  0  0  0  0  0
   -3.2333  -23.4028  -67.5739 C   0  0  0  0  0  0  0  0  0  0  0  0
   -3.6755  -22.0969  -68.2299 C   0  0  0  0  0  0  0  0  0  0  0  0
   -3.6384  -20.9033  -67.2712 C   0  0  0  0  0  0  0  0  0  0  0  0
   -2.8944  -21.3535  -66.0133 C   0  0  0  0  0  0  0  0  0  0  0  0
   -2.0217  -20.2916  -65.3611 C   0  0  0  0  0  0  0  0  0  0  0  0
   -0.7965  -20.8674  -64.6515 C   0  0  0  0  0  0  0  0  0  0  0  0
   -0.9372  -26.6574  -69.8315 N   0  0  0  0  0  0  0  0  0  0  0  0
    2.6943  -28.8302  -69.2873 H   0  0  0  0  0  0  0  0  0  0  0  0
   -2.2750  -23.5789  -69.4628 H   0  0  0  0  0  0  0  0  0  0  0  0
   -2.9650  -25.1290  -68.7329 H   0  0  0  0  0  0  0  0  0  0  0  0
   -0.8639  -24.0796  -66.0886 H   0  0  0  0  0  0  0  0  0  0  0  0
   -0.7931  -22.7237  -67.2010 H   0  0  0  0  0  0  0  0  0  0  0  0
    0.8169  -28.9809  -70.5797 H   0  0  0  0  0  0  0  0  0  0  0  0
   -0.4735  -29.6616  -69.4293 H   0  0  0  0  0  0  0  0  0  0  0  0
    1.6772  -23.2517  -69.1417 H   0  0  0  0  0  0  0  0  0  0  0  0
    1.9812  -24.9623  -68.9350 H   0  0  0  0  0  0  0  0  0  0  0  0
   -1.0451  -27.3563  -67.7680 H   0  0  0  0  0  0  0  0  0  0  0  0
    1.5446  -23.1321  -66.8207 H   0  0  0  0  0  0  0  0  0  0  0  0
    1.3275  -24.8763  -66.6367 H   0  0  0  0  0  0  0  0  0  0  0  0
   -0.4749  -23.6099  -69.8907 H   0  0  0  0  0  0  0  0  0  0  0  0
    3.8296  -27.8454  -67.3554 H   0  0  0  0  0  0  0  0  0  0  0  0
   -0.9239  -27.8720  -71.5732 H   0  0  0  0  0  0  0  0  0  0  0  0
    2.6014  -26.5887  -65.6065 H   0  0  0  0  0  0  0  0  0  0  0  0
    0.1326  -26.3293  -65.8249 H   0  0  0  0  0  0  0  0  0  0  0  0
   -1.1491  -25.5730  -67.7246 H   0  0  0  0  0  0  0  0  0  0  0  0
   -4.1184  -23.9863  -67.2808 H   0  0  0  0  0  0  0  0  0  0  0  0
   -2.6322  -23.1837  -66.6790 H   0  0  0  0  0  0  0  0  0  0  0  0
   -3.0070  -21.8865  -69.0777 H   0  0  0  0  0  0  0  0  0  0  0  0
   -4.7190  -22.2276  -68.5525 H   0  0  0  0  0  0  0  0  0  0  0  0
   -3.1096  -20.0603  -67.7399 H   0  0  0  0  0  0  0  0  0  0  0  0
   -4.6573  -20.5712  -67.0231 H   0  0  0  0  0  0  0  0  0  0  0  0
   -3.6414  -21.6804  -65.2749 H   0  0  0  0  0  0  0  0  0  0  0  0
   -2.2120  -22.1548  -66.3329 H   0  0  0  0  0  0  0  0  0  0  0  0
   -1.6785  -19.5951  -66.1403 H   0  0  0  0  0  0  0  0  0  0  0  0
   -2.6347  -19.7904  -64.5975 H   0  0  0  0  0  0  0  0  0  0  0  0
   -0.9384  -20.8007  -63.5627 H   0  0  0  0  0  0  0  0  0  0  0  0
   -0.6668  -21.9208  -64.9405 H   0  0  0  0  0  0  0  0  0  0  0  0
    0.0973  -20.2951  -64.9405 H   0  0  0  0  0  0  0  0  0  0  0  0
   -1.5382  -26.5111  -69.0079 H   0  0  0  0  0  0  0  0  0  0  0  0
  1  2  2  0
  1 11  1  0
  2  5  1  0
  2  8  1  0
 19  3  1  0
  3 20  1  0
  4  9  1  0
  4 19  1  0
 12  5  1  0
  6  9  1  0
  6 10  1  0
 10  7  1  0
  7 17  2  0
  7 26  1  0
  8 15  2  0
 10 19  1  0
 11 13  2  0
 12 14  1  0
 12 26  1  0
 13 15  1  0
 14 16  2  0
 14 18  1  0
 20 21  1  0
 21 22  1  0
 22 23  1  0
 23 24  1  0
 24 25  1  0
  1 27  1  0
  3 28  1  0
  3 29  1  0
  4 30  1  0
  4 31  1  0
  5 32  1  0
  5 33  1  0
  6 34  1  0
  6 35  1  0
  8 36  1  0
  9 37  1  0
  9 38  1  0
 10 39  1  6
 11 40  1  0
 12 41  1  6
 13 42  1  0
 15 43  1  0
 19 44  1  1
 20 45  1  0
 20 46  1  0
 21 47  1  0
 21 48  1  0
 22 49  1  0
 22 50  1  0
 23 51  1  0
 23 52  1  0
 24 53  1  0
 24 54  1  0
 25 55  1  0
 25 56  1  0
 25 57  1  0
 26 58  1  0
M  CHG  2  18  -1  19   1
M  END
>  <filename_input>  (6) 
7WY1_D0L_docked.sdf

>  <pdb_id>  (6) 
7WY1_D0L

>  <pose_rank>  (6) 
5

>  <num_atoms_heavy>  (6) 
26

>  <num_torsions>  (6) 
11

>  <pose>  (6) 
[-0.15000955039673222, -25.64669197450808, -70.17498223180826, 2.6588293427450016, 1.9795657111111635, -4.50768554307056, 0.546599176895018, -11.589453415763256, -12.488057738614263, -5.758809961395973, -2.680195517152187, -0.488645594788573, -3.669584969351561, 0.008686184677516556, 3.456051141443985, 3.2587061947883584, -3.486682523810738]

>  <energy>  (6) 
-548.2487286688536

>  <inter_energy>  (6) 
-689.911588536681

>  <intra_energy>  (6) 
142.8547355128176

>  <rmsd>  (6) 
4.34309

>  <sdf_rank>  (6) 
0

$$$$

     RDKit          3D

 58 59  0  0  0  0  0  0  0  0999 V2000
   -2.3419  -31.7412  -70.2878 C   0  0  0  0  0  0  0  0  0  0  0  0
   -1.5000  -30.8702  -70.9389 C   0  0  0  0  0  0  0  0  0  0  0  0
    0.8301  -27.3745  -66.8894 C   0  0  0  0  0  0  0  0  0  0  0  0
    1.5096  -25.0292  -66.7891 C   0  0  0  0  0  0  0  0  0  0  0  0
   -0.9735  -29.6679  -70.2064 C   0  0  0  0  0  0  0  0  0  0  0  0
   -0.1309  -24.1528  -68.3458 C   0  0  0  0  0  0  0  0  0  0  0  0
   -0.4521  -26.3341  -69.5487 C   0  0  0  0  0  0  0  0  0  0  0  0
   -1.2118  -31.0711  -72.2799 C   0  0  0  0  0  0  0  0  0  0  0  0
    1.1580  -23.7964  -67.6074 C   0  0  0  0  0  0  0  0  0  0  0  0
   -0.1819  -25.6728  -68.2247 C   0  0  1  0  0  0  0  0  0  0  0  0
   -2.8356  -32.8123  -70.9719 C   0  0  0  0  0  0  0  0  0  0  0  0
   -1.4909  -28.2934  -70.6440 C   0  0  1  0  0  0  0  0  0  0  0  0
   -2.5509  -33.0549  -72.3098 C   0  0  0  0  0  0  0  0  0  0  0  0
   -2.9754  -28.3307  -70.8747 C   0  0  0  0  0  0  0  0  0  0  0  0
   -1.7351  -32.1684  -72.9678 C   0  0  0  0  0  0  0  0  0  0  0  0
   -3.4322  -27.7011  -71.8675 O   0  0  0  0  0  0  0  0  0  0  0  0
    0.0241  -25.8216  -70.5623 O   0  0  0  0  0  0  0  0  0  0  0  0
   -3.7216  -28.9779  -70.0813 O   0  0  0  0  0  0  0  0  0  0  0  0
    1.1153  -26.1132  -67.6263 N   0  0  2  0  0  0  0  0  0  0  0  0
    2.0300  -28.2315  -66.5496 C   0  0  0  0  0  0  0  0  0  0  0  0
    1.7775  -29.6569  -67.0352 C   0  0  0  0  0  0  0  0  0  0  0  0
    2.2443  -30.7204  -66.0371 C   0  0  0  0  0  0  0  0  0  0  0  0
    2.0787  -32.0821  -66.7130 C   0  0  0  0  0  0  0  0  0  0  0  0
    2.8807  -33.2160  -66.0921 C   0  0  0  0  0  0  0  0  0  0  0  0
    3.4571  -32.8687  -64.7198 C   0  0  0  0  0  0  0  0  0  0  0  0
   -1.1842  -27.4400  -69.5316 N   0  0  0  0  0  0  0  0  0  0  0  0
   -2.6121  -31.5768  -69.2343 H   0  0  0  0  0  0  0  0  0  0  0  0
    0.3298  -27.1075  -65.9469 H   0  0  0  0  0  0  0  0  0  0  0  0
    0.2155  -27.9822  -67.5698 H   0  0  0  0  0  0  0  0  0  0  0  0
    2.5890  -25.0669  -66.5805 H   0  0  0  0  0  0  0  0  0  0  0  0
    1.0131  -25.0456  -65.8077 H   0  0  0  0  0  0  0  0  0  0  0  0
   -1.2262  -29.7925  -69.1431 H   0  0  0  0  0  0  0  0  0  0  0  0
    0.1026  -29.6489  -70.4337 H   0  0  0  0  0  0  0  0  0  0  0  0
   -1.0042  -23.6877  -67.8652 H   0  0  0  0  0  0  0  0  0  0  0  0
   -0.1479  -23.7985  -69.3870 H   0  0  0  0  0  0  0  0  0  0  0  0
   -0.5629  -30.3575  -72.8088 H   0  0  0  0  0  0  0  0  0  0  0  0
    0.9970  -22.9304  -66.9485 H   0  0  0  0  0  0  0  0  0  0  0  0
    1.9654  -23.5235  -68.3028 H   0  0  0  0  0  0  0  0  0  0  0  0
   -1.0177  -25.9763  -67.5772 H   0  0  0  0  0  0  0  0  0  0  0  0
   -3.4903  -33.5178  -70.4393 H   0  0  0  0  0  0  0  0  0  0  0  0
   -1.0373  -27.9536  -71.5867 H   0  0  0  0  0  0  0  0  0  0  0  0
   -2.9671  -33.9320  -72.8269 H   0  0  0  0  0  0  0  0  0  0  0  0
   -1.4950  -32.3212  -74.0303 H   0  0  0  0  0  0  0  0  0  0  0  0
    1.8767  -26.3153  -68.2899 H   0  0  0  0  0  0  0  0  0  0  0  0
    2.9246  -27.8264  -67.0450 H   0  0  0  0  0  0  0  0  0  0  0  0
    2.1889  -28.2328  -65.4611 H   0  0  0  0  0  0  0  0  0  0  0  0
    0.6978  -29.7838  -67.2034 H   0  0  0  0  0  0  0  0  0  0  0  0
    2.3563  -29.7969  -67.9600 H   0  0  0  0  0  0  0  0  0  0  0  0
    3.3003  -30.5550  -65.7773 H   0  0  0  0  0  0  0  0  0  0  0  0
    1.6534  -30.6710  -65.1106 H   0  0  0  0  0  0  0  0  0  0  0  0
    1.0140  -32.3556  -66.6707 H   0  0  0  0  0  0  0  0  0  0  0  0
    2.4618  -31.9628  -67.7372 H   0  0  0  0  0  0  0  0  0  0  0  0
    2.2221  -34.0903  -65.9830 H   0  0  0  0  0  0  0  0  0  0  0  0
    3.7305  -33.4177  -66.7607 H   0  0  0  0  0  0  0  0  0  0  0  0
    2.7978  -33.2659  -63.9339 H   0  0  0  0  0  0  0  0  0  0  0  0
    4.4577  -33.3144  -64.6189 H   0  0  0  0  0  0  0  0  0  0  0  0
    3.5307  -31.7758  -64.6189 H   0  0  0  0  0  0  0  0  0  0  0  0
   -1.5757  -27.7166  -68.6199 H   0  0  0  0  0  0  0  0  0  0  0  0
  1  2  2  0
  1 11  1  0
  2  5  1  0
  2  8  1  0
 19  3  1  0
  3 20  1  0
  4  9  1  0
  4 19  1  0
 12  5  1  0
  6  9  1  0
  6 10  1  0
 10  7  1  0
  7 17  2  0
  7 26  1  0
  8 15  2  0
 10 19  1  0
 11 13  2  0
 12 14  1  0
 12 26  1  0
 13 15  1  0
 14 16  2  0
 14 18  1  0
 20 21  1  0
 21 22  1  0
 22 23  1  0
 23 24  1  0
 24 25  1  0
  1 27  1  0
  3 28  1  0
  3 29  1  0
  4 30  1  0
  4 31  1  0
  5 32  1  0
  5 33  1  0
  6 34  1  0
  6 35  1  0
  8 36  1  0
  9 37  1  0
  9 38  1  0
 10 39  1  1
 11 40  1  0
 12 41  1  6
 13 42  1  0
 15 43  1  0
 19 44  1  6
 20 45  1  0
 20 46  1  0
 21 47  1  0
 21 48  1  0
 22 49  1  0
 22 50  1  0
 23 51  1  0
 23 52  1  0
 24 53  1  0
 24 54  1  0
 25 55  1  0
 25 56  1  0
 25 57  1  0
 26 58  1  0
M  CHG  2  18  -1  19   1
M  END
>  <filename_input>  (7) 
7WY1_D0L_docked.sdf

>  <pdb_id>  (7) 
7WY1_D0L

>  <pose_rank>  (7) 
6

>  <num_atoms_heavy>  (7) 
26

>  <num_torsions>  (7) 
11

>  <pose>  (7) 
[-0.45207782572079697, -26.334109078058017, -69.54867675518676, 0.19509691669253526, -0.14147612809184779, 0.5236924755587389, 8.475190473138138, 18.824087847823595, 8.218238465074435, 6.848774666915383, 6.65939551781414, -0.1902522378461155, -0.8338698633496754, 13.197039263933585, 2.1994726206068727, 5.92971840243375, 3.249754664873273]

>  <energy>  (7) 
-634.7620189067893

>  <inter_energy>  (7) 
-653.1744020481756

>  <intra_energy>  (7) 
25.52392545157163

>  <rmsd>  (7) 
5.34254

>  <sdf_rank>  (7) 
0

$$$$

     RDKit          3D

 58 59  0  0  0  0  0  0  0  0999 V2000
   -1.0409  -21.6477  -65.6187 C   0  0  0  0  0  0  0  0  0  0  0  0
   -1.7074  -22.1296  -66.7210 C   0  0  0  0  0  0  0  0  0  0  0  0
    0.0934  -28.9482  -69.9071 C   0  0  0  0  0  0  0  0  0  0  0  0
    2.4041  -28.5372  -69.2260 C   0  0  0  0  0  0  0  0  0  0  0  0
   -1.0743  -23.2113  -67.5505 C   0  0  0  0  0  0  0  0  0  0  0  0
    1.9578  -26.7685  -67.6275 C   0  0  0  0  0  0  0  0  0  0  0  0
   -0.2123  -26.0811  -68.6888 C   0  0  0  0  0  0  0  0  0  0  0  0
   -2.9144  -21.5589  -67.0941 C   0  0  0  0  0  0  0  0  0  0  0  0
    3.0814  -27.4496  -68.4066 C   0  0  0  0  0  0  0  0  0  0  0  0
    0.7051  -27.2291  -68.3666 C   0  0  1  0  0  0  0  0  0  0  0  0
   -1.6129  -20.6465  -64.8911 C   0  0  0  0  0  0  0  0  0  0  0  0
   -1.8706  -24.5057  -67.7477 C   0  0  1  0  0  0  0  0  0  0  0  0
   -2.8302  -20.0662  -65.2247 C   0  0  0  0  0  0  0  0  0  0  0  0
   -2.5383  -24.5217  -69.0940 C   0  0  0  0  0  0  0  0  0  0  0  0
   -3.4805  -20.5264  -66.3425 C   0  0  0  0  0  0  0  0  0  0  0  0
   -2.9789  -23.4294  -69.5449 O   0  0  0  0  0  0  0  0  0  0  0  0
   -0.3021  -25.7209  -69.8631 O   0  0  0  0  0  0  0  0  0  0  0  0
   -2.6450  -25.6107  -69.7328 O   0  0  0  0  0  0  0  0  0  0  0  0
    1.1562  -27.9547  -69.5933 N   0  0  2  0  0  0  0  0  0  0  0  0
   -1.1217  -28.4145  -70.6340 C   0  0  0  0  0  0  0  0  0  0  0  0
   -1.5840  -29.4490  -71.6575 C   0  0  0  0  0  0  0  0  0  0  0  0
   -0.8061  -30.7652  -71.5709 C   0  0  0  0  0  0  0  0  0  0  0  0
   -1.7843  -31.8411  -71.0974 C   0  0  0  0  0  0  0  0  0  0  0  0
   -2.3324  -32.7456  -72.1910 C   0  0  0  0  0  0  0  0  0  0  0  0
   -2.3100  -34.2277  -71.8182 C   0  0  0  0  0  0  0  0  0  0  0  0
   -0.8749  -25.5368  -67.6769 N   0  0  0  0  0  0  0  0  0  0  0  0
   -0.0641  -22.0625  -65.3293 H   0  0  0  0  0  0  0  0  0  0  0  0
    0.5417  -29.7337  -70.5332 H   0  0  0  0  0  0  0  0  0  0  0  0
   -0.2763  -29.3035  -68.9339 H   0  0  0  0  0  0  0  0  0  0  0  0
    2.9991  -28.7848  -70.1174 H   0  0  0  0  0  0  0  0  0  0  0  0
    2.2880  -29.4797  -68.6708 H   0  0  0  0  0  0  0  0  0  0  0  0
   -0.8771  -22.7901  -68.5473 H   0  0  0  0  0  0  0  0  0  0  0  0
   -0.1812  -23.5140  -66.9841 H   0  0  0  0  0  0  0  0  0  0  0  0
    1.9442  -27.1018  -66.5793 H   0  0  0  0  0  0  0  0  0  0  0  0
    2.0598  -25.6741  -67.5842 H   0  0  0  0  0  0  0  0  0  0  0  0
   -3.4328  -21.9236  -67.9932 H   0  0  0  0  0  0  0  0  0  0  0  0
    3.8164  -27.8894  -67.7165 H   0  0  0  0  0  0  0  0  0  0  0  0
    3.6268  -26.7378  -69.0436 H   0  0  0  0  0  0  0  0  0  0  0  0
    0.1108  -27.9003  -67.7291 H   0  0  0  0  0  0  0  0  0  0  0  0
   -1.0855  -20.2809  -63.9977 H   0  0  0  0  0  0  0  0  0  0  0  0
   -2.6701  -24.6257  -67.0018 H   0  0  0  0  0  0  0  0  0  0  0  0
   -3.2604  -19.2611  -64.6109 H   0  0  0  0  0  0  0  0  0  0  0  0
   -4.4417  -20.0849  -66.6446 H   0  0  0  0  0  0  0  0  0  0  0  0
    1.2926  -27.3799  -70.4371 H   0  0  0  0  0  0  0  0  0  0  0  0
   -1.9292  -28.2241  -69.9118 H   0  0  0  0  0  0  0  0  0  0  0  0
   -0.8653  -27.4750  -71.1456 H   0  0  0  0  0  0  0  0  0  0  0  0
   -2.6499  -29.6597  -71.4859 H   0  0  0  0  0  0  0  0  0  0  0  0
   -1.4049  -29.0260  -72.6570 H   0  0  0  0  0  0  0  0  0  0  0  0
   -0.4042  -31.0307  -72.5598 H   0  0  0  0  0  0  0  0  0  0  0  0
    0.0390  -30.6729  -70.8729 H   0  0  0  0  0  0  0  0  0  0  0  0
   -1.2650  -32.4730  -70.3619 H   0  0  0  0  0  0  0  0  0  0  0  0
   -2.6505  -31.3046  -70.6828 H   0  0  0  0  0  0  0  0  0  0  0  0
   -3.3727  -32.4532  -72.3970 H   0  0  0  0  0  0  0  0  0  0  0  0
   -1.6847  -32.6214  -73.0713 H   0  0  0  0  0  0  0  0  0  0  0  0
   -2.3084  -34.3303  -70.7230 H   0  0  0  0  0  0  0  0  0  0  0  0
   -3.2007  -34.7233  -72.2316 H   0  0  0  0  0  0  0  0  0  0  0  0
   -1.4047  -34.6961  -72.2316 H   0  0  0  0  0  0  0  0  0  0  0  0
   -0.6500  -25.8932  -66.7370 H   0  0  0  0  0  0  0  0  0  0  0  0
  1  2  2  0
  1 11  1  0
  2  5  1  0
  2  8  1  0
 19  3  1  0
  3 20  1  0
  4  9  1  0
  4 19  1  0
 12  5  1  0
  6  9  1  0
  6 10  1  0
 10  7  1  0
  7 17  2  0
  7 26  1  0
  8 15  2  0
 10 19  1  0
 11 13  2  0
 12 14  1  0
 12 26  1  0
 13 15  1  0
 14 16  2  0
 14 18  1  0
 20 21  1  0
 21 22  1  0
 22 23  1  0
 23 24  1  0
 24 25  1  0
  1 27  1  0
  3 28  1  0
  3 29  1  0
  4 30  1  0
  4 31  1  0
  5 32  1  0
  5 33  1  0
  6 34  1  0
  6 35  1  0
  8 36  1  0
  9 37  1  0
  9 38  1  0
 10 39  1  1
 11 40  1  0
 12 41  1  1
 13 42  1  0
 15 43  1  0
 19 44  1  6
 20 45  1  0
 20 46  1  0
 21 47  1  0
 21 48  1  0
 22 49  1  0
 22 50  1  0
 23 51  1  0
 23 52  1  0
 24 53  1  0
 24 54  1  0
 25 55  1  0
 25 56  1  0
 25 57  1  0
 26 58  1  0
M  CHG  2  18  -1  19   1
M  END
>  <filename_input>  (8) 
7WY1_D0L_docked.sdf

>  <pdb_id>  (8) 
7WY1_D0L

>  <pose_rank>  (8) 
7

>  <num_atoms_heavy>  (8) 
26

>  <num_torsions>  (8) 
11

>  <pose>  (8) 
[-0.21230403841387524, -26.081122076474205, -68.68884065593949, -1.384432903655955, -1.959546539713758, 4.137165100589074, 47.4531194149989, 17.39576098458681, 25.49079359707495, 28.222081948118888, 5.384248494034246, -7.528907202188782, -5.004493201518402, 21.995564521336327, -2.275491935905541, -5.6379813987339595, -5.235247676523196]

>  <energy>  (8) 
-588.638960218632

>  <inter_energy>  (8) 
-713.8199991861597

>  <intra_energy>  (8) 
128.87849519591472

>  <rmsd>  (8) 
8.7734

>  <sdf_rank>  (8) 
0

$$$$

     RDKit          3D

 58 59  0  0  0  0  0  0  0  0999 V2000
   -2.2173  -21.9815  -67.3155 C   0  0  0  0  0  0  0  0  0  0  0  0
   -2.7318  -22.7809  -68.3093 C   0  0  0  0  0  0  0  0  0  0  0  0
   -1.5658  -28.3541  -69.4422 C   0  0  0  0  0  0  0  0  0  0  0  0
    0.5190  -28.9886  -70.5483 C   0  0  0  0  0  0  0  0  0  0  0  0
   -2.1163  -24.1284  -68.5639 C   0  0  0  0  0  0  0  0  0  0  0  0
    2.0406  -28.2701  -68.8016 C   0  0  0  0  0  0  0  0  0  0  0  0
    0.4518  -26.5838  -67.8318 C   0  0  0  0  0  0  0  0  0  0  0  0
   -3.7571  -22.3024  -69.1101 C   0  0  0  0  0  0  0  0  0  0  0  0
    1.9871  -28.7137  -70.2623 C   0  0  0  0  0  0  0  0  0  0  0  0
    0.5856  -27.9259  -68.4982 C   0  0  1  0  0  0  0  0  0  0  0  0
   -2.7659  -20.7497  -67.1135 C   0  0  0  0  0  0  0  0  0  0  0  0
   -0.9416  -24.5465  -67.6730 C   0  0  1  0  0  0  0  0  0  0  0  0
   -3.8072  -20.2473  -67.8836 C   0  0  0  0  0  0  0  0  0  0  0  0
   -1.3447  -24.5504  -66.2253 C   0  0  0  0  0  0  0  0  0  0  0  0
   -4.3000  -21.0333  -68.8954 C   0  0  0  0  0  0  0  0  0  0  0  0
   -0.5996  -23.9471  -65.4058 O   0  0  0  0  0  0  0  0  0  0  0  0
    1.3574  -26.2135  -67.0838 O   0  0  0  0  0  0  0  0  0  0  0  0
   -2.4012  -25.1503  -65.8657 O   0  0  0  0  0  0  0  0  0  0  0  0
   -0.1642  -27.9939  -69.7897 N   0  0  2  0  0  0  0  0  0  0  0  0
   -2.4922  -28.6209  -70.6085 C   0  0  0  0  0  0  0  0  0  0  0  0
   -3.0589  -30.0330  -70.4815 C   0  0  0  0  0  0  0  0  0  0  0  0
   -1.9862  -31.1202  -70.5915 C   0  0  0  0  0  0  0  0  0  0  0  0
   -2.0223  -31.6512  -72.0252 C   0  0  0  0  0  0  0  0  0  0  0  0
   -2.6142  -33.0434  -72.1863 C   0  0  0  0  0  0  0  0  0  0  0  0
   -2.9980  -33.3745  -73.6283 C   0  0  0  0  0  0  0  0  0  0  0  0
   -0.6390  -25.8809  -68.1061 N   0  0  0  0  0  0  0  0  0  0  0  0
   -1.3785  -22.3295  -66.6948 H   0  0  0  0  0  0  0  0  0  0  0  0
   -1.5357  -29.2621  -68.8221 H   0  0  0  0  0  0  0  0  0  0  0  0
   -1.9799  -27.4725  -68.9310 H   0  0  0  0  0  0  0  0  0  0  0  0
    0.3015  -28.8819  -71.6213 H   0  0  0  0  0  0  0  0  0  0  0  0
    0.2165  -30.0117  -70.2806 H   0  0  0  0  0  0  0  0  0  0  0  0
   -2.9084  -24.8816  -68.4406 H   0  0  0  0  0  0  0  0  0  0  0  0
   -1.6906  -24.0567  -69.5757 H   0  0  0  0  0  0  0  0  0  0  0  0
    2.3986  -29.0837  -68.1535 H   0  0  0  0  0  0  0  0  0  0  0  0
    2.7315  -27.4323  -68.6264 H   0  0  0  0  0  0  0  0  0  0  0  0
   -4.1481  -22.9297  -69.9246 H   0  0  0  0  0  0  0  0  0  0  0  0
    2.5850  -29.6252  -70.4098 H   0  0  0  0  0  0  0  0  0  0  0  0
    2.3987  -27.9487  -70.9371 H   0  0  0  0  0  0  0  0  0  0  0  0
    0.1649  -28.6453  -67.7802 H   0  0  0  0  0  0  0  0  0  0  0  0
   -2.3650  -20.1241  -66.3024 H   0  0  0  0  0  0  0  0  0  0  0  0
   -0.0854  -23.8610  -67.7565 H   0  0  0  0  0  0  0  0  0  0  0  0
   -4.2248  -19.2485  -67.6883 H   0  0  0  0  0  0  0  0  0  0  0  0
   -5.1175  -20.6660  -69.5332 H   0  0  0  0  0  0  0  0  0  0  0  0
   -0.2022  -27.1237  -70.3396 H   0  0  0  0  0  0  0  0  0  0  0  0
   -3.3153  -27.8912  -70.5999 H   0  0  0  0  0  0  0  0  0  0  0  0
   -1.9363  -28.5276  -71.5531 H   0  0  0  0  0  0  0  0  0  0  0  0
   -3.5530  -30.1257  -69.5030 H   0  0  0  0  0  0  0  0  0  0  0  0
   -3.7638  -30.1808  -71.3129 H   0  0  0  0  0  0  0  0  0  0  0  0
   -0.9955  -30.6952  -70.3724 H   0  0  0  0  0  0  0  0  0  0  0  0
   -2.1767  -31.9297  -69.8715 H   0  0  0  0  0  0  0  0  0  0  0  0
   -2.6209  -30.9549  -72.6308 H   0  0  0  0  0  0  0  0  0  0  0  0
   -0.9738  -31.7263  -72.3491 H   0  0  0  0  0  0  0  0  0  0  0  0
   -1.8719  -33.7799  -71.8448 H   0  0  0  0  0  0  0  0  0  0  0  0
   -3.5367  -33.0762  -71.5881 H   0  0  0  0  0  0  0  0  0  0  0  0
   -3.8309  -34.0930  -73.6302 H   0  0  0  0  0  0  0  0  0  0  0  0
   -3.3064  -32.4543  -74.1462 H   0  0  0  0  0  0  0  0  0  0  0  0
   -2.1330  -33.8144  -74.1462 H   0  0  0  0  0  0  0  0  0  0  0  0
   -1.3466  -26.3435  -68.6944 H   0  0  0  0  0  0  0  0  0  0  0  0
  1  2  2  0
  1 11  1  0
  2  5  1  0
  2  8  1  0
 19  3  1  0
  3 20  1  0
  4  9  1  0
  4 19  1  0
 12  5  1  0
  6  9  1  0
  6 10  1  0
 10  7  1  0
  7 17  2  0
  7 26  1  0
  8 15  2  0
 10 19  1  0
 11 13  2  0
 12 14  1  0
 12 26  1  0
 13 15  1  0
 14 16  2  0
 14 18  1  0
 20 21  1  0
 21 22  1  0
 22 23  1  0
 23 24  1  0
 24 25  1  0
  1 27  1  0
  3 28  1  0
  3 29  1  0
  4 30  1  0
  4 31  1  0
  5 32  1  0
  5 33  1  0
  6 34  1  0
  6 35  1  0
  8 36  1  0
  9 37  1  0
  9 38  1  0
 10 39  1  1
 11 40  1  0
 12 41  1  1
 13 42  1  0
 15 43  1  0
 19 44  1  6
 20 45  1  0
 20 46  1  0
 21 47  1  0
 21 48  1  0
 22 49  1  0
 22 50  1  0
 23 51  1  0
 23 52  1  0
 24 53  1  0
 24 54  1  0
 25 55  1  0
 25 56  1  0
 25 57  1  0
 26 58  1  0
M  CHG  2  18  -1  19   1
M  END
>  <filename_input>  (9) 
7WY1_D0L_docked.sdf

>  <pdb_id>  (9) 
7WY1_D0L

>  <pose_rank>  (9) 
8

>  <num_atoms_heavy>  (9) 
26

>  <num_torsions>  (9) 
11

>  <pose>  (9) 
[0.4518342176628262, -26.583843743064786, -67.83183033827254, -3.6404074772356885, 0.5426296192618147, 0.7482672381301696, -5.270863364877756, 25.52122598949235, 31.42930392519388, 8.145687848374617, 7.965269762361076, -11.160923684159508, -4.492454261161078, 7.663572656535579, 2.3614061705797735, -6.371892663155087, 5.1915403437131555]

>  <energy>  (9) 
-633.1666554578042

>  <inter_energy>  (9) 
-686.4060345606574

>  <intra_energy>  (9) 
56.94349207594242

>  <rmsd>  (9) 
8.5737

>  <sdf_rank>  (9) 
0

$$$$

     RDKit          3D

 58 59  0  0  0  0  0  0  0  0999 V2000
   -1.7455  -31.1442  -70.4802 C   0  0  0  0  0  0  0  0  0  0  0  0
   -1.8028  -30.0952  -71.3678 C   0  0  0  0  0  0  0  0  0  0  0  0
   -0.1375  -24.4139  -66.6470 C   0  0  0  0  0  0  0  0  0  0  0  0
   -1.6660  -22.7332  -67.5476 C   0  0  0  0  0  0  0  0  0  0  0  0
   -1.8668  -28.6882  -70.8430 C   0  0  0  0  0  0  0  0  0  0  0  0
   -2.8995  -24.1900  -69.0438 C   0  0  0  0  0  0  0  0  0  0  0  0
   -1.0432  -25.8670  -69.2673 C   0  0  0  0  0  0  0  0  0  0  0  0
   -1.8784  -30.3533  -72.7278 C   0  0  0  0  0  0  0  0  0  0  0  0
   -2.6520  -22.7211  -68.7054 C   0  0  0  0  0  0  0  0  0  0  0  0
   -1.7390  -24.8978  -68.3510 C   0  0  1  0  0  0  0  0  0  0  0  0
   -1.7168  -32.4169  -70.9685 C   0  0  0  0  0  0  0  0  0  0  0  0
   -0.7857  -28.2580  -69.8457 C   0  0  1  0  0  0  0  0  0  0  0  0
   -1.7702  -32.7104  -72.3253 C   0  0  0  0  0  0  0  0  0  0  0  0
    0.4595  -27.8203  -70.5643 C   0  0  0  0  0  0  0  0  0  0  0  0
   -1.8584  -31.6643  -73.2096 C   0  0  0  0  0  0  0  0  0  0  0  0
    1.5190  -28.4716  -70.3547 O   0  0  0  0  0  0  0  0  0  0  0  0
   -0.2061  -25.4239  -70.0545 O   0  0  0  0  0  0  0  0  0  0  0  0
    0.4198  -26.8247  -71.3469 O   0  0  0  0  0  0  0  0  0  0  0  0
   -0.8156  -23.8388  -67.8405 N   0  0  2  0  0  0  0  0  0  0  0  0
    1.2664  -24.9342  -66.8664 C   0  0  0  0  0  0  0  0  0  0  0  0
    1.5459  -26.0512  -65.8637 C   0  0  0  0  0  0  0  0  0  0  0  0
    2.4949  -27.1217  -66.4100 C   0  0  0  0  0  0  0  0  0  0  0  0
    1.6979  -27.9746  -67.3978 C   0  0  0  0  0  0  0  0  0  0  0  0
    0.6762  -28.9103  -66.7694 C   0  0  0  0  0  0  0  0  0  0  0  0
    0.0901  -28.3765  -65.4626 C   0  0  0  0  0  0  0  0  0  0  0  0
   -1.3760  -27.1462  -69.1564 N   0  0  0  0  0  0  0  0  0  0  0  0
   -1.7232  -30.9598  -69.3960 H   0  0  0  0  0  0  0  0  0  0  0  0
   -0.0889  -23.6295  -65.8773 H   0  0  0  0  0  0  0  0  0  0  0  0
   -0.7366  -25.2906  -66.3600 H   0  0  0  0  0  0  0  0  0  0  0  0
   -1.0921  -21.7955  -67.5111 H   0  0  0  0  0  0  0  0  0  0  0  0
   -2.1591  -22.8220  -66.5683 H   0  0  0  0  0  0  0  0  0  0  0  0
   -1.8070  -28.0105  -71.7073 H   0  0  0  0  0  0  0  0  0  0  0  0
   -2.8078  -28.6422  -70.2751 H   0  0  0  0  0  0  0  0  0  0  0  0
   -3.8662  -24.5309  -68.6449 H   0  0  0  0  0  0  0  0  0  0  0  0
   -2.9450  -24.3855  -70.1254 H   0  0  0  0  0  0  0  0  0  0  0  0
   -1.9550  -29.5153  -73.4362 H   0  0  0  0  0  0  0  0  0  0  0  0
   -3.5906  -22.2318  -68.4063 H   0  0  0  0  0  0  0  0  0  0  0  0
   -2.2614  -22.1629  -69.5690 H   0  0  0  0  0  0  0  0  0  0  0  0
   -2.1093  -25.5095  -67.5151 H   0  0  0  0  0  0  0  0  0  0  0  0
   -1.6481  -33.2507  -70.2544 H   0  0  0  0  0  0  0  0  0  0  0  0
   -0.4862  -29.0741  -69.1717 H   0  0  0  0  0  0  0  0  0  0  0  0
   -1.7427  -33.7511  -72.6807 H   0  0  0  0  0  0  0  0  0  0  0  0
   -1.9130  -31.8571  -74.2912 H   0  0  0  0  0  0  0  0  0  0  0  0
   -0.0774  -23.5285  -68.4884 H   0  0  0  0  0  0  0  0  0  0  0  0
    1.3584  -25.3262  -67.8901 H   0  0  0  0  0  0  0  0  0  0  0  0
    1.9909  -24.1187  -66.7252 H   0  0  0  0  0  0  0  0  0  0  0  0
    1.9973  -25.6091  -64.9632 H   0  0  0  0  0  0  0  0  0  0  0  0
    0.5870  -26.5430  -65.6431 H   0  0  0  0  0  0  0  0  0  0  0  0
    3.3438  -26.6460  -66.9229 H   0  0  0  0  0  0  0  0  0  0  0  0
    2.8939  -27.7418  -65.5936 H   0  0  0  0  0  0  0  0  0  0  0  0
    1.1638  -27.2961  -68.0793 H   0  0  0  0  0  0  0  0  0  0  0  0
    2.4310  -28.6195  -67.9045 H   0  0  0  0  0  0  0  0  0  0  0  0
   -0.1457  -29.0608  -67.4848 H   0  0  0  0  0  0  0  0  0  0  0  0
    1.1973  -29.8497  -66.5328 H   0  0  0  0  0  0  0  0  0  0  0  0
    0.6051  -28.8456  -64.6112 H   0  0  0  0  0  0  0  0  0  0  0  0
    0.2265  -27.2859  -65.4181 H   0  0  0  0  0  0  0  0  0  0  0  0
   -0.9830  -28.6140  -65.4181 H   0  0  0  0  0  0  0  0  0  0  0  0
   -2.1421  -27.3657  -68.5039 H   0  0  0  0  0  0  0  0  0  0  0  0
  1  2  2  0
  1 11  1  0
  2  5  1  0
  2  8  1  0
 19  3  1  0
  3 20  1  0
  4  9  1  0
  4 19  1  0
 12  5  1  0
  6  9  1  0
  6 10  1  0
 10  7  1  0
  7 17  2  0
  7 26  1  0
  8 15  2  0
 10 19  1  0
 11 13  2  0
 12 14  1  0
 12 26  1  0
 13 15  1  0
 14 16  2  0
 14 18  1  0
 20 21  1  0
 21 22  1  0
 22 23  1  0
 23 24  1  0
 24 25  1  0
  1 27  1  0
  3 28  1  0
  3 29  1  0
  4 30  1  0
  4 31  1  0
  5 32  1  0
  5 33  1  0
  6 34  1  0
  6 35  1  0
  8 36  1  0
  9 37  1  0
  9 38  1  0
 10 39  1  1
 11 40  1  0
 12 41  1  1
 13 42  1  0
 15 43  1  0
 19 44  1  6
 20 45  1  0
 20 46  1  0
 21 47  1  0
 21 48  1  0
 22 49  1  0
 22 50  1  0
 23 51  1  0
 23 52  1  0
 24 53  1  0
 24 54  1  0
 25 55  1  0
 25 56  1  0
 25 57  1  0
 26 58  1  0
M  CHG  2  18  -1  19   1
M  END
>  <filename_input>  (10) 
7WY1_D0L_docked.sdf

>  <pdb_id>  (10) 
7WY1_D0L

>  <pose_rank>  (10) 
9

>  <num_atoms_heavy>  (10) 
26

>  <num_torsions>  (10) 
11

>  <pose>  (10) 
[-1.0431642290466454, -25.86701914800097, -69.2672906980503, -0.26159369725431303, -0.5761738107055662, 0.9333242111949351, -3.275364369724394, -1.104798540968776, -11.050480257470785, -19.55913644964369, -35.59978667648223, -16.834568405883466, 5.750635361723457, 9.15449880223589, 2.5726413693535553, 0.34927811818012217, -6.455137374081928]

>  <energy>  (10) 
-471.9173499918175

>  <inter_energy>  (10) 
-646.0685207357863

>  <intra_energy>  (10) 
172.53805521842156

>  <rmsd>  (10) 
4.36774

>  <sdf_rank>  (10) 
0

$$$$

     RDKit          3D

 58 59  0  0  0  0  0  0  0  0999 V2000
    1.1064  -27.6342  -68.2835 C   0  0  0  0  0  0  0  0  0  0  0  0
    0.0377  -26.9860  -68.8572 C   0  0  0  0  0  0  0  0  0  0  0  0
   -3.4035  -33.3767  -71.6699 C   0  0  0  0  0  0  0  0  0  0  0  0
   -2.3023  -32.5657  -73.6952 C   0  0  0  0  0  0  0  0  0  0  0  0
   -0.6440  -27.6000  -70.0478 C   0  0  0  0  0  0  0  0  0  0  0  0
   -0.6186  -31.1926  -72.6171 C   0  0  0  0  0  0  0  0  0  0  0  0
   -1.9487  -30.8582  -70.5131 C   0  0  0  0  0  0  0  0  0  0  0  0
   -0.3452  -25.7425  -68.3788 C   0  0  0  0  0  0  0  0  0  0  0  0
   -1.2669  -31.4859  -73.9688 C   0  0  0  0  0  0  0  0  0  0  0  0
   -1.6038  -31.8076  -71.6278 C   0  0  1  0  0  0  0  0  0  0  0  0
    1.7343  -27.0528  -67.2220 C   0  0  0  0  0  0  0  0  0  0  0  0
   -1.8569  -28.4976  -69.7803 C   0  0  1  0  0  0  0  0  0  0  0  0
    1.3637  -25.8180  -66.7044 C   0  0  0  0  0  0  0  0  0  0  0  0
   -3.1377  -27.7563  -70.0424 C   0  0  0  0  0  0  0  0  0  0  0  0
    0.3165  -25.1572  -67.2968 C   0  0  0  0  0  0  0  0  0  0  0  0
   -3.9818  -28.2941  -70.8097 O   0  0  0  0  0  0  0  0  0  0  0  0
   -2.4250  -31.3256  -69.4779 O   0  0  0  0  0  0  0  0  0  0  0  0
   -3.3366  -26.6284  -69.5005 O   0  0  0  0  0  0  0  0  0  0  0  0
   -2.8088  -32.2283  -72.4063 N   0  0  2  0  0  0  0  0  0  0  0  0
   -3.4807  -34.6841  -72.4279 C   0  0  0  0  0  0  0  0  0  0  0  0
   -4.6564  -35.4999  -71.8953 C   0  0  0  0  0  0  0  0  0  0  0  0
   -5.8691  -34.6369  -71.5354 C   0  0  0  0  0  0  0  0  0  0  0  0
   -7.0336  -35.5858  -71.2492 C   0  0  0  0  0  0  0  0  0  0  0  0
   -8.1783  -35.5277  -72.2496 C   0  0  0  0  0  0  0  0  0  0  0  0
   -9.0695  -36.7691  -72.2221 C   0  0  0  0  0  0  0  0  0  0  0  0
   -1.7050  -29.5710  -70.7207 N   0  0  0  0  0  0  0  0  0  0  0  0
    1.4485  -28.6040  -68.6739 H   0  0  0  0  0  0  0  0  0  0  0  0
   -2.7988  -33.5468  -70.7669 H   0  0  0  0  0  0  0  0  0  0  0  0
   -4.4460  -33.0903  -71.4671 H   0  0  0  0  0  0  0  0  0  0  0  0
   -3.1024  -32.5423  -74.4496 H   0  0  0  0  0  0  0  0  0  0  0  0
   -1.8808  -33.5809  -73.7355 H   0  0  0  0  0  0  0  0  0  0  0  0
   -0.9789  -26.7775  -70.6968 H   0  0  0  0  0  0  0  0  0  0  0  0
    0.1092  -28.2690  -70.4893 H   0  0  0  0  0  0  0  0  0  0  0  0
    0.3697  -31.6695  -72.5401 H   0  0  0  0  0  0  0  0  0  0  0  0
   -0.4396  -30.1212  -72.4437 H   0  0  0  0  0  0  0  0  0  0  0  0
   -1.1806  -25.2102  -68.8572 H   0  0  0  0  0  0  0  0  0  0  0  0
   -0.5150  -31.8468  -74.6859 H   0  0  0  0  0  0  0  0  0  0  0  0
   -1.7215  -30.5856  -74.4080 H   0  0  0  0  0  0  0  0  0  0  0  0
   -1.1526  -32.6797  -71.1319 H   0  0  0  0  0  0  0  0  0  0  0  0
    2.5740  -27.5868  -66.7532 H   0  0  0  0  0  0  0  0  0  0  0  0
   -1.9038  -28.8416  -68.7365 H   0  0  0  0  0  0  0  0  0  0  0  0
    1.8942  -25.3824  -65.8448 H   0  0  0  0  0  0  0  0  0  0  0  0
    0.0004  -24.1726  -66.9217 H   0  0  0  0  0  0  0  0  0  0  0  0
   -3.5497  -31.5210  -72.5145 H   0  0  0  0  0  0  0  0  0  0  0  0
   -3.6281  -34.4811  -73.4989 H   0  0  0  0  0  0  0  0  0  0  0  0
   -2.5459  -35.2477  -72.2920 H   0  0  0  0  0  0  0  0  0  0  0  0
   -4.9580  -36.2245  -72.6660 H   0  0  0  0  0  0  0  0  0  0  0  0
   -4.3210  -35.9972  -70.9732 H   0  0  0  0  0  0  0  0  0  0  0  0
   -5.6490  -34.0314  -70.6438 H   0  0  0  0  0  0  0  0  0  0  0  0
   -6.1181  -33.9521  -72.3595 H   0  0  0  0  0  0  0  0  0  0  0  0
   -6.6410  -36.6133  -71.2409 H   0  0  0  0  0  0  0  0  0  0  0  0
   -7.4556  -35.2684  -70.2842 H   0  0  0  0  0  0  0  0  0  0  0  0
   -8.7979  -34.6481  -72.0203 H   0  0  0  0  0  0  0  0  0  0  0  0
   -7.7312  -35.4700  -73.2530 H   0  0  0  0  0  0  0  0  0  0  0  0
   -9.2725  -37.0518  -71.1786 H   0  0  0  0  0  0  0  0  0  0  0  0
  -10.0184  -36.5507  -72.7340 H   0  0  0  0  0  0  0  0  0  0  0  0
   -8.5592  -37.5983  -72.7340 H   0  0  0  0  0  0  0  0  0  0  0  0
   -1.3699  -29.3136  -71.6601 H   0  0  0  0  0  0  0  0  0  0  0  0
  1  2  2  0
  1 11  1  0
  2  5  1  0
  2  8  1  0
 19  3  1  0
  3 20  1  0
  4  9  1  0
  4 19  1  0
 12  5  1  0
  6  9  1  0
  6 10  1  0
 10  7  1  0
  7 17  2  0
  7 26  1  0
  8 15  2  0
 10 19  1  0
 11 13  2  0
 12 14  1  0
 12 26  1  0
 13 15  1  0
 14 16  2  0
 14 18  1  0
 20 21  1  0
 21 22  1  0
 22 23  1  0
 23 24  1  0
 24 25  1  0
  1 27  1  0
  3 28  1  0
  3 29  1  0
  4 30  1  0
  4 31  1  0
  5 32  1  0
  5 33  1  0
  6 34  1  0
  6 35  1  0
  8 36  1  0
  9 37  1  0
  9 38  1  0
 10 39  1  1
 11 40  1  0
 12 41  1  1
 13 42  1  0
 15 43  1  0
 19 44  1  6
 20 45  1  0
 20 46  1  0
 21 47  1  0
 21 48  1  0
 22 49  1  0
 22 50  1  0
 23 51  1  0
 23 52  1  0
 24 53  1  0
 24 54  1  0
 25 55  1  0
 25 56  1  0
 25 57  1  0
 26 58  1  0
M  CHG  2  18  -1  19   1
M  END
>  <filename_input>  (11) 
7WY1_D0L_docked.sdf

>  <pdb_id>  (11) 
7WY1_D0L

>  <pose_rank>  (11) 
10

>  <num_atoms_heavy>  (11) 
26

>  <num_torsions>  (11) 
11

>  <pose>  (11) 
[-1.9487493696929301, -30.858160677126932, -70.51307517354053, 2.7905859667565016, -1.8922450960080144, 0.7701612477851121, -1.2224871433853592, 1.3437300657960696, 1.5162424570091928, -2.6442263350070485, 0.10170119190223559, 1.3090819546329104, 1.7354579938047352, 0.9363492850535728, 0.5835541298681439, 0.6553475709062075, 0.5184453432546815]

>  <energy>  (11) 
-582.3512495096014

>  <inter_energy>  (11) 
-599.0491951309007

>  <intra_energy>  (11) 
11.913915958162763

>  <rmsd>  (11) 
9.50697

>  <sdf_rank>  (11) 
0

$$$$

     RDKit          3D

 58 59  0  0  0  0  0  0  0  0999 V2000
    1.5163  -28.5881  -68.5758 C   0  0  0  0  0  0  0  0  0  0  0  0
    0.1699  -28.5867  -68.2949 C   0  0  0  0  0  0  0  0  0  0  0  0
   -0.5622  -24.2908  -68.9024 C   0  0  0  0  0  0  0  0  0  0  0  0
    1.8751  -24.2602  -69.0789 C   0  0  0  0  0  0  0  0  0  0  0  0
   -0.7838  -29.2420  -69.2542 C   0  0  0  0  0  0  0  0  0  0  0  0
    2.0471  -25.1946  -71.3105 C   0  0  0  0  0  0  0  0  0  0  0  0
   -0.1687  -26.3726  -71.2066 C   0  0  0  0  0  0  0  0  0  0  0  0
   -0.2943  -27.9161  -67.1740 C   0  0  0  0  0  0  0  0  0  0  0  0
    2.8657  -24.8592  -70.0652 C   0  0  0  0  0  0  0  0  0  0  0  0
    0.6121  -25.1547  -70.7939 C   0  0  1  0  0  0  0  0  0  0  0  0
    2.3679  -27.9654  -67.7122 C   0  0  0  0  0  0  0  0  0  0  0  0
   -1.3622  -28.3738  -70.3767 C   0  0  1  0  0  0  0  0  0  0  0  0
    1.9389  -27.3019  -66.5695 C   0  0  0  0  0  0  0  0  0  0  0  0
   -2.8397  -28.1734  -70.1890 C   0  0  0  0  0  0  0  0  0  0  0  0
    0.5921  -27.2744  -66.3057 C   0  0  0  0  0  0  0  0  0  0  0  0
   -3.5256  -27.8705  -71.2032 O   0  0  0  0  0  0  0  0  0  0  0  0
   -0.2885  -26.6060  -72.4099 O   0  0  0  0  0  0  0  0  0  0  0  0
   -3.3539  -28.3073  -69.0388 O   0  0  0  0  0  0  0  0  0  0  0  0
    0.6802  -25.0027  -69.3083 N   0  0  2  0  0  0  0  0  0  0  0  0
   -0.6495  -23.8829  -67.4479 C   0  0  0  0  0  0  0  0  0  0  0  0
   -2.1013  -23.9891  -66.9871 C   0  0  0  0  0  0  0  0  0  0  0  0
   -2.3833  -23.1926  -65.7100 C   0  0  0  0  0  0  0  0  0  0  0  0
   -1.6994  -21.8332  -65.8616 C   0  0  0  0  0  0  0  0  0  0  0  0
   -2.4721  -20.6518  -65.2945 C   0  0  0  0  0  0  0  0  0  0  0  0
   -1.9982  -20.2302  -63.9039 C   0  0  0  0  0  0  0  0  0  0  0  0
   -0.6714  -27.1237  -70.2358 N   0  0  0  0  0  0  0  0  0  0  0  0
    1.8990  -29.0827  -69.4807 H   0  0  0  0  0  0  0  0  0  0  0  0
   -0.6420  -23.3791  -69.5127 H   0  0  0  0  0  0  0  0  0  0  0  0
   -1.3796  -25.0103  -69.0576 H   0  0  0  0  0  0  0  0  0  0  0  0
    2.2248  -24.3894  -68.0441 H   0  0  0  0  0  0  0  0  0  0  0  0
    1.7376  -23.1775  -69.2167 H   0  0  0  0  0  0  0  0  0  0  0  0
   -0.2521  -30.0811  -69.7267 H   0  0  0  0  0  0  0  0  0  0  0  0
   -1.6519  -29.5231  -68.6401 H   0  0  0  0  0  0  0  0  0  0  0  0
    2.2042  -24.4462  -72.1012 H   0  0  0  0  0  0  0  0  0  0  0  0
    2.3197  -26.1591  -71.7636 H   0  0  0  0  0  0  0  0  0  0  0  0
   -1.3741  -27.8890  -66.9657 H   0  0  0  0  0  0  0  0  0  0  0  0
    3.6546  -24.1320  -70.3077 H   0  0  0  0  0  0  0  0  0  0  0  0
    3.3658  -25.7481  -69.6532 H   0  0  0  0  0  0  0  0  0  0  0  0
    0.0710  -24.3046  -71.2350 H   0  0  0  0  0  0  0  0  0  0  0  0
    3.4458  -27.9895  -67.9305 H   0  0  0  0  0  0  0  0  0  0  0  0
   -1.2329  -28.8288  -71.3698 H   0  0  0  0  0  0  0  0  0  0  0  0
    2.6577  -26.8127  -65.8957 H   0  0  0  0  0  0  0  0  0  0  0  0
    0.2131  -26.7503  -65.4160 H   0  0  0  0  0  0  0  0  0  0  0  0
    0.7212  -25.8758  -68.7634 H   0  0  0  0  0  0  0  0  0  0  0  0
   -0.0200  -24.5491  -66.8397 H   0  0  0  0  0  0  0  0  0  0  0  0
   -0.2978  -22.8472  -67.3311 H   0  0  0  0  0  0  0  0  0  0  0  0
   -2.7521  -23.6090  -67.7883 H   0  0  0  0  0  0  0  0  0  0  0  0
   -2.2994  -25.0481  -66.7650 H   0  0  0  0  0  0  0  0  0  0  0  0
   -3.4675  -23.0565  -65.5830 H   0  0  0  0  0  0  0  0  0  0  0  0
   -2.0007  -23.7247  -64.8266 H   0  0  0  0  0  0  0  0  0  0  0  0
   -0.7278  -21.8821  -65.3483 H   0  0  0  0  0  0  0  0  0  0  0  0
   -1.6167  -21.6525  -66.9435 H   0  0  0  0  0  0  0  0  0  0  0  0
   -2.3542  -19.7975  -65.9773 H   0  0  0  0  0  0  0  0  0  0  0  0
   -3.5223  -20.9650  -65.1995 H   0  0  0  0  0  0  0  0  0  0  0  0
   -2.5895  -20.7562  -63.1399 H   0  0  0  0  0  0  0  0  0  0  0  0
   -0.9350  -20.4865  -63.7855 H   0  0  0  0  0  0  0  0  0  0  0  0
   -2.1290  -19.1444  -63.7855 H   0  0  0  0  0  0  0  0  0  0  0  0
   -0.5531  -26.7710  -69.2753 H   0  0  0  0  0  0  0  0  0  0  0  0
  1  2  2  0
  1 11  1  0
  2  5  1  0
  2  8  1  0
 19  3  1  0
  3 20  1  0
  4  9  1  0
  4 19  1  0
 12  5  1  0
  6  9  1  0
  6 10  1  0
 10  7  1  0
  7 17  2  0
  7 26  1  0
  8 15  2  0
 10 19  1  0
 11 13  2  0
 12 14  1  0
 12 26  1  0
 13 15  1  0
 14 16  2  0
 14 18  1  0
 20 21  1  0
 21 22  1  0
 22 23  1  0
 23 24  1  0
 24 25  1  0
  1 27  1  0
  3 28  1  0
  3 29  1  0
  4 30  1  0
  4 31  1  0
  5 32  1  0
  5 33  1  0
  6 34  1  0
  6 35  1  0
  8 36  1  0
  9 37  1  0
  9 38  1  0
 10 39  1  6
 11 40  1  0
 12 41  1  6
 13 42  1  0
 15 43  1  0
 19 44  1  1
 20 45  1  0
 20 46  1  0
 21 47  1  0
 21 48  1  0
 22 49  1  0
 22 50  1  0
 23 51  1  0
 23 52  1  0
 24 53  1  0
 24 54  1  0
 25 55  1  0
 25 56  1  0
 25 57  1  0
 26 58  1  0
M  CHG  2  18  -1  19   1
M  END
>  <filename_input>  (12) 
7WY1_D0L_docked.sdf

>  <pdb_id>  (12) 
7WY1_D0L

>  <pose_rank>  (12) 
11

>  <num_atoms_heavy>  (12) 
26

>  <num_torsions>  (12) 
11

>  <pose>  (12) 
[-0.1687321742544123, -26.37261357251453, -71.20658524008005, 2.178260567847976, -3.8703732636307464, -3.3184152423366013, 6.833453040451689, 0.3983036789664223, -4.653848754995699, 0.168659179146219, -2.108785355372037, -0.5232031818793755, 0.6573875902090746, 0.8827286693296943, 1.883703507709729, -3.0792134566584863, -2.6691820209479498]

>  <energy>  (12) 
-642.9506298491274

>  <inter_energy>  (12) 
-660.384389990741

>  <intra_energy>  (12) 
28.451610065878484

>  <rmsd>  (12) 
4.07572

>  <sdf_rank>  (12) 
0

$$$$

     RDKit          3D

 58 59  0  0  0  0  0  0  0  0999 V2000
    1.1873  -28.7895  -69.4702 C   0  0  0  0  0  0  0  0  0  0  0  0
    0.4402  -27.9949  -68.6324 C   0  0  0  0  0  0  0  0  0  0  0  0
   -0.4278  -22.4608  -67.1603 C   0  0  0  0  0  0  0  0  0  0  0  0
   -2.6123  -21.6335  -67.8783 C   0  0  0  0  0  0  0  0  0  0  0  0
   -1.0582  -28.0036  -68.7504 C   0  0  0  0  0  0  0  0  0  0  0  0
   -3.6270  -23.7830  -68.3607 C   0  0  0  0  0  0  0  0  0  0  0  0
   -1.4405  -24.9518  -68.7625 C   0  0  0  0  0  0  0  0  0  0  0  0
    1.0809  -27.1426  -67.7466 C   0  0  0  0  0  0  0  0  0  0  0  0
   -3.8103  -22.2793  -68.5570 C   0  0  0  0  0  0  0  0  0  0  0  0
   -2.1578  -23.8967  -67.9654 C   0  0  1  0  0  0  0  0  0  0  0  0
    2.5467  -28.7510  -69.3726 C   0  0  0  0  0  0  0  0  0  0  0  0
   -1.6826  -27.1540  -69.8624 C   0  0  1  0  0  0  0  0  0  0  0  0
    3.2204  -27.9243  -68.4824 C   0  0  0  0  0  0  0  0  0  0  0  0
   -2.8289  -27.8797  -70.5088 C   0  0  0  0  0  0  0  0  0  0  0  0
    2.4752  -27.1088  -67.6676 C   0  0  0  0  0  0  0  0  0  0  0  0
   -3.4692  -28.7101  -69.8081 O   0  0  0  0  0  0  0  0  0  0  0  0
   -0.2369  -24.8013  -68.9756 O   0  0  0  0  0  0  0  0  0  0  0  0
   -3.1196  -27.6488  -71.7202 O   0  0  0  0  0  0  0  0  0  0  0  0
   -1.5465  -22.5435  -68.1384 N   0  0  2  0  0  0  0  0  0  0  0  0
   -0.8240  -22.2827  -65.7108 C   0  0  0  0  0  0  0  0  0  0  0  0
   -0.9861  -20.7929  -65.4183 C   0  0  0  0  0  0  0  0  0  0  0  0
   -2.2445  -20.4766  -64.6050 C   0  0  0  0  0  0  0  0  0  0  0  0
   -3.0556  -21.7688  -64.5011 C   0  0  0  0  0  0  0  0  0  0  0  0
   -3.4920  -22.1492  -63.0943 C   0  0  0  0  0  0  0  0  0  0  0  0
   -5.0100  -22.1719  -62.9170 C   0  0  0  0  0  0  0  0  0  0  0  0
   -2.1594  -25.9865  -69.1771 N   0  0  0  0  0  0  0  0  0  0  0  0
    0.6970  -29.4443  -70.2057 H   0  0  0  0  0  0  0  0  0  0  0  0
    0.1558  -23.3900  -67.2376 H   0  0  0  0  0  0  0  0  0  0  0  0
    0.1326  -21.5528  -67.4277 H   0  0  0  0  0  0  0  0  0  0  0  0
   -2.4000  -20.6458  -68.3136 H   0  0  0  0  0  0  0  0  0  0  0  0
   -2.7728  -21.4602  -66.8040 H   0  0  0  0  0  0  0  0  0  0  0  0
   -1.3701  -29.0453  -68.9164 H   0  0  0  0  0  0  0  0  0  0  0  0
   -1.4168  -27.5501  -67.8147 H   0  0  0  0  0  0  0  0  0  0  0  0
   -4.2823  -24.1609  -67.5622 H   0  0  0  0  0  0  0  0  0  0  0  0
   -3.8844  -24.3728  -69.2528 H   0  0  0  0  0  0  0  0  0  0  0  0
    0.4840  -26.4847  -67.0978 H   0  0  0  0  0  0  0  0  0  0  0  0
   -4.7463  -21.9414  -68.0884 H   0  0  0  0  0  0  0  0  0  0  0  0
   -3.8707  -22.0105  -69.6220 H   0  0  0  0  0  0  0  0  0  0  0  0
   -2.0683  -24.2193  -66.9175 H   0  0  0  0  0  0  0  0  0  0  0  0
    3.1380  -29.4056  -70.0298 H   0  0  0  0  0  0  0  0  0  0  0  0
   -0.9682  -26.9213  -70.6658 H   0  0  0  0  0  0  0  0  0  0  0  0
    4.3192  -27.9232  -68.4319 H   0  0  0  0  0  0  0  0  0  0  0  0
    2.9729  -26.4327  -66.9568 H   0  0  0  0  0  0  0  0  0  0  0  0
   -1.1527  -22.3380  -69.0676 H   0  0  0  0  0  0  0  0  0  0  0  0
   -1.7757  -22.8011  -65.5224 H   0  0  0  0  0  0  0  0  0  0  0  0
   -0.0462  -22.7066  -65.0586 H   0  0  0  0  0  0  0  0  0  0  0  0
   -0.1075  -20.4491  -64.8527 H   0  0  0  0  0  0  0  0  0  0  0  0
   -1.0803  -20.2761  -66.3847 H   0  0  0  0  0  0  0  0  0  0  0  0
   -1.9652  -20.1257  -63.6006 H   0  0  0  0  0  0  0  0  0  0  0  0
   -2.8336  -19.6850  -65.0911 H   0  0  0  0  0  0  0  0  0  0  0  0
   -3.9590  -21.6539  -65.1181 H   0  0  0  0  0  0  0  0  0  0  0  0
   -2.3896  -22.5751  -64.8423 H   0  0  0  0  0  0  0  0  0  0  0  0
   -3.0989  -23.1507  -62.8657 H   0  0  0  0  0  0  0  0  0  0  0  0
   -3.0961  -21.3825  -62.4121 H   0  0  0  0  0  0  0  0  0  0  0  0
   -5.2539  -22.1756  -61.8444 H   0  0  0  0  0  0  0  0  0  0  0  0
   -5.4478  -21.2803  -63.3896 H   0  0  0  0  0  0  0  0  0  0  0  0
   -5.4208  -23.0763  -63.3896 H   0  0  0  0  0  0  0  0  0  0  0  0
   -3.1708  -25.9480  -68.9864 H   0  0  0  0  0  0  0  0  0  0  0  0
  1  2  2  0
  1 11  1  0
  2  5  1  0
  2  8  1  0
 19  3  1  0
  3 20  1  0
  4  9  1  0
  4 19  1  0
 12  5  1  0
  6  9  1  0
  6 10  1  0
 10  7  1  0
  7 17  2  0
  7 26  1  0
  8 15  2  0
 10 19  1  0
 11 13  2  0
 12 14  1  0
 12 26  1  0
 13 15  1  0
 14 16  2  0
 14 18  1  0
 20 21  1  0
 21 22  1  0
 22 23  1  0
 23 24  1  0
 24 25  1  0
  1 27  1  0
  3 28  1  0
  3 29  1  0
  4 30  1  0
  4 31  1  0
  5 32  1  0
  5 33  1  0
  6 34  1  0
  6 35  1  0
  8 36  1  0
  9 37  1  0
  9 38  1  0
 10 39  1  1
 11 40  1  0
 12 41  1  6
 13 42  1  0
 15 43  1  0
 19 44  1  6
 20 45  1  0
 20 46  1  0
 21 47  1  0
 21 48  1  0
 22 49  1  0
 22 50  1  0
 23 51  1  0
 23 52  1  0
 24 53  1  0
 24 54  1  0
 25 55  1  0
 25 56  1  0
 25 57  1  0
 26 58  1  0
M  CHG  2  18  -1  19   1
M  END
>  <filename_input>  (13) 
7WY1_D0L_docked.sdf

>  <pdb_id>  (13) 
7WY1_D0L

>  <pose_rank>  (13) 
12

>  <num_atoms_heavy>  (13) 
26

>  <num_torsions>  (13) 
11

>  <pose>  (13) 
[-1.4405184841231, -24.951843988249987, -68.76253506157667, 1.6786136798726636, 4.457887046368609, -1.8562637546409784, -2.0785547724794595, -10.435796241637686, 2.6478125916970634, -0.9312190951419955, 3.2761147653173848, -0.7446659993119018, 0.979501848194017, -6.434813577863973, -1.151370757238822, 7.613196565860137, -2.5122595128459166]

>  <energy>  (13) 
-607.4110540700339

>  <inter_energy>  (13) 
-661.3804790624797

>  <intra_energy>  (13) 
57.98662666873445

>  <rmsd>  (13) 
4.85

>  <sdf_rank>  (13) 
0

$$$$

     RDKit          3D

 58 59  0  0  0  0  0  0  0  0999 V2000
   -2.9427  -22.3885  -67.5182 C   0  0  0  0  0  0  0  0  0  0  0  0
   -1.7574  -22.7979  -66.9534 C   0  0  0  0  0  0  0  0  0  0  0  0
   -0.7053  -28.8217  -68.4220 C   0  0  0  0  0  0  0  0  0  0  0  0
   -2.5932  -29.0097  -69.9622 C   0  0  0  0  0  0  0  0  0  0  0  0
   -1.2289  -24.1706  -67.2627 C   0  0  0  0  0  0  0  0  0  0  0  0
   -1.7593  -27.5104  -71.6766 C   0  0  0  0  0  0  0  0  0  0  0  0
   -0.2739  -26.2232  -70.1130 C   0  0  0  0  0  0  0  0  0  0  0  0
   -1.1088  -21.9708  -66.0496 C   0  0  0  0  0  0  0  0  0  0  0  0
   -3.0132  -28.2470  -71.2091 C   0  0  0  0  0  0  0  0  0  0  0  0
   -0.8540  -27.5697  -70.4501 C   0  0  1  0  0  0  0  0  0  0  0  0
   -3.4259  -21.1521  -67.2072 C   0  0  0  0  0  0  0  0  0  0  0  0
   -0.3752  -24.3293  -68.5253 C   0  0  1  0  0  0  0  0  0  0  0  0
   -2.7913  -20.2901  -66.3218 C   0  0  0  0  0  0  0  0  0  0  0  0
    1.0884  -24.2507  -68.1933 C   0  0  0  0  0  0  0  0  0  0  0  0
   -1.6242  -20.7113  -65.7347 C   0  0  0  0  0  0  0  0  0  0  0  0
    1.5107  -24.9446  -67.2286 O   0  0  0  0  0  0  0  0  0  0  0  0
    0.5533  -25.7369  -70.8850 O   0  0  0  0  0  0  0  0  0  0  0  0
    1.8508  -23.5018  -68.8739 O   0  0  0  0  0  0  0  0  0  0  0  0
   -1.6649  -28.1337  -69.3279 N   0  0  2  0  0  0  0  0  0  0  0  0
    0.7424  -28.8204  -68.8624 C   0  0  0  0  0  0  0  0  0  0  0  0
    1.2147  -30.2631  -69.0254 C   0  0  0  0  0  0  0  0  0  0  0  0
    2.4538  -30.5854  -68.1852 C   0  0  0  0  0  0  0  0  0  0  0  0
    1.9638  -31.1110  -66.8353 C   0  0  0  0  0  0  0  0  0  0  0  0
    2.7093  -32.3257  -66.3031 C   0  0  0  0  0  0  0  0  0  0  0  0
    2.7222  -32.4068  -64.7769 C   0  0  0  0  0  0  0  0  0  0  0  0
   -0.7049  -25.6427  -69.0010 N   0  0  0  0  0  0  0  0  0  0  0  0
   -3.4909  -23.0467  -68.2084 H   0  0  0  0  0  0  0  0  0  0  0  0
   -0.7583  -28.3296  -67.4396 H   0  0  0  0  0  0  0  0  0  0  0  0
   -1.0112  -29.8783  -68.4141 H   0  0  0  0  0  0  0  0  0  0  0  0
   -3.4581  -29.2033  -69.3107 H   0  0  0  0  0  0  0  0  0  0  0  0
   -2.1620  -29.9956  -70.1903 H   0  0  0  0  0  0  0  0  0  0  0  0
   -0.6150  -24.4883  -66.4070 H   0  0  0  0  0  0  0  0  0  0  0  0
   -2.1245  -24.7813  -67.4498 H   0  0  0  0  0  0  0  0  0  0  0  0
   -1.2974  -28.0202  -72.5349 H   0  0  0  0  0  0  0  0  0  0  0  0
   -1.9599  -26.4848  -72.0202 H   0  0  0  0  0  0  0  0  0  0  0  0
   -0.1767  -22.3106  -65.5745 H   0  0  0  0  0  0  0  0  0  0  0  0
   -3.3629  -28.9426  -71.9861 H   0  0  0  0  0  0  0  0  0  0  0  0
   -3.8421  -27.5535  -71.0042 H   0  0  0  0  0  0  0  0  0  0  0  0
    0.0150  -28.2145  -70.6479 H   0  0  0  0  0  0  0  0  0  0  0  0
   -4.3627  -20.8216  -67.6797 H   0  0  0  0  0  0  0  0  0  0  0  0
   -0.5696  -23.5403  -69.2667 H   0  0  0  0  0  0  0  0  0  0  0  0
   -3.2118  -19.2986  -66.0977 H   0  0  0  0  0  0  0  0  0  0  0  0
   -1.0979  -20.0609  -65.0205 H   0  0  0  0  0  0  0  0  0  0  0  0
   -2.1862  -27.4531  -68.7570 H   0  0  0  0  0  0  0  0  0  0  0  0
    0.8351  -28.2915  -69.8225 H   0  0  0  0  0  0  0  0  0  0  0  0
    1.3595  -28.3107  -68.1079 H   0  0  0  0  0  0  0  0  0  0  0  0
    0.3995  -30.9355  -68.7199 H   0  0  0  0  0  0  0  0  0  0  0  0
    1.4880  -30.4027  -70.0817 H   0  0  0  0  0  0  0  0  0  0  0  0
    3.0617  -31.3512  -68.6892 H   0  0  0  0  0  0  0  0  0  0  0  0
    3.0773  -29.6891  -68.0511 H   0  0  0  0  0  0  0  0  0  0  0  0
    2.0637  -30.3007  -66.0982 H   0  0  0  0  0  0  0  0  0  0  0  0
    0.9249  -31.4360  -66.9936 H   0  0  0  0  0  0  0  0  0  0  0  0
    2.2259  -33.2320  -66.6968 H   0  0  0  0  0  0  0  0  0  0  0  0
    3.7547  -32.2365  -66.6333 H   0  0  0  0  0  0  0  0  0  0  0  0
    2.5620  -31.4037  -64.3550 H   0  0  0  0  0  0  0  0  0  0  0  0
    1.9201  -33.0793  -64.4386 H   0  0  0  0  0  0  0  0  0  0  0  0
    3.6939  -32.7960  -64.4386 H   0  0  0  0  0  0  0  0  0  0  0  0
   -1.3466  -26.1950  -68.4145 H   0  0  0  0  0  0  0  0  0  0  0  0
  1  2  2  0
  1 11  1  0
  2  5  1  0
  2  8  1  0
 19  3  1  0
  3 20  1  0
  4  9  1  0
  4 19  1  0
 12  5  1  0
  6  9  1  0
  6 10  1  0
 10  7  1  0
  7 17  2  0
  7 26  1  0
  8 15  2  0
 10 19  1  0
 11 13  2  0
 12 14  1  0
 12 26  1  0
 13 15  1  0
 14 16  2  0
 14 18  1  0
 20 21  1  0
 21 22  1  0
 22 23  1  0
 23 24  1  0
 24 25  1  0
  1 27  1  0
  3 28  1  0
  3 29  1  0
  4 30  1  0
  4 31  1  0
  5 32  1  0
  5 33  1  0
  6 34  1  0
  6 35  1  0
  8 36  1  0
  9 37  1  0
  9 38  1  0
 10 39  1  6
 11 40  1  0
 12 41  1  6
 13 42  1  0
 15 43  1  0
 19 44  1  1
 20 45  1  0
 20 46  1  0
 21 47  1  0
 21 48  1  0
 22 49  1  0
 22 50  1  0
 23 51  1  0
 23 52  1  0
 24 53  1  0
 24 54  1  0
 25 55  1  0
 25 56  1  0
 25 57  1  0
 26 58  1  0
M  CHG  2  18  -1  19   1
M  END
>  <filename_input>  (14) 
7WY1_D0L_docked.sdf

>  <pdb_id>  (14) 
7WY1_D0L

>  <pose_rank>  (14) 
13

>  <num_atoms_heavy>  (14) 
26

>  <num_torsions>  (14) 
11

>  <pose>  (14) 
[-0.2739255817803028, -26.223187480452467, -70.11299905216799, 1.5214742545590831, 0.3894938347388041, -1.9620858392835347, 0.38172203608959887, -2.8936454795200723, 2.0687988401563304, 7.105564004524129, 4.996209944050969, 5.667408910874352, -4.707933431164161, 7.846093069137466, -0.8089684527216227, -5.718033337084712, 0.3974567075245797]

>  <energy>  (14) 
-526.8742128912771

>  <inter_energy>  (14) 
-553.4668259310116

>  <intra_energy>  (14) 
32.20544026353012

>  <rmsd>  (14) 
8.51151

>  <sdf_rank>  (14) 
0

$$$$

     RDKit          3D

 58 59  0  0  0  0  0  0  0  0999 V2000
   -2.6577  -32.5110  -70.9102 C   0  0  0  0  0  0  0  0  0  0  0  0
   -1.9377  -31.5037  -71.5088 C   0  0  0  0  0  0  0  0  0  0  0  0
    2.3013  -26.4408  -67.9964 C   0  0  0  0  0  0  0  0  0  0  0  0
    0.6520  -24.6754  -67.6286 C   0  0  0  0  0  0  0  0  0  0  0  0
   -1.3838  -30.3910  -70.6636 C   0  0  0  0  0  0  0  0  0  0  0  0
   -1.2966  -25.8882  -68.4128 C   0  0  0  0  0  0  0  0  0  0  0  0
    0.0146  -27.4469  -69.8823 C   0  0  0  0  0  0  0  0  0  0  0  0
   -1.7994  -31.4882  -72.8880 C   0  0  0  0  0  0  0  0  0  0  0  0
   -0.8018  -24.4929  -68.0362 C   0  0  0  0  0  0  0  0  0  0  0  0
    0.0006  -26.6706  -68.5937 C   0  0  1  0  0  0  0  0  0  0  0  0
   -3.1792  -33.4992  -71.6915 C   0  0  0  0  0  0  0  0  0  0  0  0
   -1.2750  -29.0044  -71.3068 C   0  0  1  0  0  0  0  0  0  0  0  0
   -3.0422  -33.5256  -73.0736 C   0  0  0  0  0  0  0  0  0  0  0  0
   -2.5414  -28.6532  -72.0357 C   0  0  0  0  0  0  0  0  0  0  0  0
   -2.3497  -32.5036  -73.6739 C   0  0  0  0  0  0  0  0  0  0  0  0
   -3.5658  -28.3984  -71.3456 O   0  0  0  0  0  0  0  0  0  0  0  0
    1.0385  -27.4198  -70.5660 O   0  0  0  0  0  0  0  0  0  0  0  0
   -2.5535  -28.6243  -73.3023 O   0  0  0  0  0  0  0  0  0  0  0  0
    1.1251  -25.6889  -68.5122 N   0  0  2  0  0  0  0  0  0  0  0  0
    2.9016  -25.9311  -66.7043 C   0  0  0  0  0  0  0  0  0  0  0  0
    2.6209  -26.9396  -65.5928 C   0  0  0  0  0  0  0  0  0  0  0  0
    2.8389  -26.3617  -64.1916 C   0  0  0  0  0  0  0  0  0  0  0  0
    4.2923  -25.8922  -64.1145 C   0  0  0  0  0  0  0  0  0  0  0  0
    4.6204  -24.9897  -62.9345 C   0  0  0  0  0  0  0  0  0  0  0  0
    4.9399  -25.7604  -61.6538 C   0  0  0  0  0  0  0  0  0  0  0  0
   -1.0849  -28.1214  -70.1914 N   0  0  0  0  0  0  0  0  0  0  0  0
   -2.8100  -32.5193  -69.8208 H   0  0  0  0  0  0  0  0  0  0  0  0
    1.9894  -27.4831  -67.8342 H   0  0  0  0  0  0  0  0  0  0  0  0
    3.0872  -26.3184  -68.7563 H   0  0  0  0  0  0  0  0  0  0  0  0
    1.2176  -23.7417  -67.7638 H   0  0  0  0  0  0  0  0  0  0  0  0
    0.7672  -24.9458  -66.5686 H   0  0  0  0  0  0  0  0  0  0  0  0
   -2.0310  -30.2948  -69.7793 H   0  0  0  0  0  0  0  0  0  0  0  0
   -0.3451  -30.6866  -70.4546 H   0  0  0  0  0  0  0  0  0  0  0  0
   -1.9111  -26.3206  -67.6095 H   0  0  0  0  0  0  0  0  0  0  0  0
   -1.9376  -25.8959  -69.3067 H   0  0  0  0  0  0  0  0  0  0  0  0
   -1.2496  -30.6662  -73.3697 H   0  0  0  0  0  0  0  0  0  0  0  0
   -1.3887  -24.0899  -67.1976 H   0  0  0  0  0  0  0  0  0  0  0  0
   -0.9065  -23.7832  -68.8700 H   0  0  0  0  0  0  0  0  0  0  0  0
    0.1034  -27.4275  -67.8022 H   0  0  0  0  0  0  0  0  0  0  0  0
   -3.7347  -34.3141  -71.2044 H   0  0  0  0  0  0  0  0  0  0  0  0
   -0.4630  -28.9462  -72.0466 H   0  0  0  0  0  0  0  0  0  0  0  0
   -3.4762  -34.3418  -73.6698 H   0  0  0  0  0  0  0  0  0  0  0  0
   -2.2288  -32.4844  -74.7670 H   0  0  0  0  0  0  0  0  0  0  0  0
    1.4108  -25.2503  -69.3993 H   0  0  0  0  0  0  0  0  0  0  0  0
    3.9880  -25.8090  -66.8254 H   0  0  0  0  0  0  0  0  0  0  0  0
    2.4553  -24.9596  -66.4454 H   0  0  0  0  0  0  0  0  0  0  0  0
    1.5755  -27.2715  -65.6764 H   0  0  0  0  0  0  0  0  0  0  0  0
    3.3275  -27.7732  -65.7186 H   0  0  0  0  0  0  0  0  0  0  0  0
    2.1597  -25.5126  -64.0247 H   0  0  0  0  0  0  0  0  0  0  0  0
    2.6331  -27.1195  -63.4213 H   0  0  0  0  0  0  0  0  0  0  0  0
    4.9345  -26.7829  -64.0504 H   0  0  0  0  0  0  0  0  0  0  0  0
    4.4661  -25.2887  -65.0175 H   0  0  0  0  0  0  0  0  0  0  0  0
    5.4929  -24.3739  -63.1982 H   0  0  0  0  0  0  0  0  0  0  0  0
    3.7277  -24.3795  -62.7332 H   0  0  0  0  0  0  0  0  0  0  0  0
    4.6838  -25.1425  -60.7805 H   0  0  0  0  0  0  0  0  0  0  0  0
    4.3533  -26.6906  -61.6296 H   0  0  0  0  0  0  0  0  0  0  0  0
    6.0127  -26.0026  -61.6296 H   0  0  0  0  0  0  0  0  0  0  0  0
   -1.8907  -27.9979  -69.5619 H   0  0  0  0  0  0  0  0  0  0  0  0
  1  2  2  0
  1 11  1  0
  2  5  1  0
  2  8  1  0
 19  3  1  0
  3 20  1  0
  4  9  1  0
  4 19  1  0
 12  5  1  0
  6  9  1  0
  6 10  1  0
 10  7  1  0
  7 17  2  0
  7 26  1  0
  8 15  2  0
 10 19  1  0
 11 13  2  0
 12 14  1  0
 12 26  1  0
 13 15  1  0
 14 16  2  0
 14 18  1  0
 20 21  1  0
 21 22  1  0
 22 23  1  0
 23 24  1  0
 24 25  1  0
  1 27  1  0
  3 28  1  0
  3 29  1  0
  4 30  1  0
  4 31  1  0
  5 32  1  0
  5 33  1  0
  6 34  1  0
  6 35  1  0
  8 36  1  0
  9 37  1  0
  9 38  1  0
 10 39  1  1
 11 40  1  0
 12 41  1  6
 13 42  1  0
 15 43  1  0
 19 44  1  6
 20 45  1  0
 20 46  1  0
 21 47  1  0
 21 48  1  0
 22 49  1  0
 22 50  1  0
 23 51  1  0
 23 52  1  0
 24 53  1  0
 24 54  1  0
 25 55  1  0
 25 56  1  0
 25 57  1  0
 26 58  1  0
M  CHG  2  18  -1  19   1
M  END
>  <filename_input>  (15) 
7WY1_D0L_docked.sdf

>  <pdb_id>  (15) 
7WY1_D0L

>  <pose_rank>  (15) 
14

>  <num_atoms_heavy>  (15) 
26

>  <num_torsions>  (15) 
11

>  <pose>  (15) 
[0.014597669677920685, -27.446928423288412, -69.88225341223574, 0.8823178604331369, 5.532855764205027, -0.8968007768444093, 3.948303910267943, 1.3154609243564335, -0.18666237098386346, 0.12002336986727949, 2.3838514174045367, -0.10853066353965105, -5.876357589562954, 0.4217637565500934, -0.4103266882491978, -0.301513539755179, -3.689991029671001]

>  <energy>  (15) 
-555.7714919861636

>  <inter_energy>  (15) 
-587.9168911932985

>  <intra_energy>  (15) 
39.67240178313143

>  <rmsd>  (15) 
3.80566

>  <sdf_rank>  (15) 
0

$$$$

     RDKit          3D

 58 59  0  0  0  0  0  0  0  0999 V2000
   -2.8336  -23.1072  -65.4008 C   0  0  0  0  0  0  0  0  0  0  0  0
   -2.6518  -22.9111  -66.7498 C   0  0  0  0  0  0  0  0  0  0  0  0
   -0.4609  -29.3110  -69.5781 C   0  0  0  0  0  0  0  0  0  0  0  0
   -2.5835  -29.4103  -70.7852 C   0  0  0  0  0  0  0  0  0  0  0  0
   -2.4111  -24.0971  -67.6412 C   0  0  0  0  0  0  0  0  0  0  0  0
   -2.7923  -27.0416  -71.2626 C   0  0  0  0  0  0  0  0  0  0  0  0
   -1.3521  -26.3202  -69.3356 C   0  0  0  0  0  0  0  0  0  0  0  0
   -2.6162  -21.6205  -67.2547 C   0  0  0  0  0  0  0  0  0  0  0  0
   -3.5682  -28.3574  -71.2693 C   0  0  0  0  0  0  0  0  0  0  0  0
   -1.5820  -27.3660  -70.3923 C   0  0  1  0  0  0  0  0  0  0  0  0
   -3.0223  -22.0209  -64.5987 C   0  0  0  0  0  0  0  0  0  0  0  0
   -1.4762  -23.9003  -68.8394 C   0  0  1  0  0  0  0  0  0  0  0  0
   -3.0131  -20.7158  -65.0744 C   0  0  0  0  0  0  0  0  0  0  0  0
   -0.0431  -23.8303  -68.3923 C   0  0  0  0  0  0  0  0  0  0  0  0
   -2.8010  -20.5187  -66.4162 C   0  0  0  0  0  0  0  0  0  0  0  0
    0.8488  -23.7809  -69.2826 O   0  0  0  0  0  0  0  0  0  0  0  0
   -0.8613  -26.6755  -68.2634 O   0  0  0  0  0  0  0  0  0  0  0  0
    0.2329  -23.8258  -67.1557 O   0  0  0  0  0  0  0  0  0  0  0  0
   -1.8087  -28.7225  -69.8063 N   0  0  2  0  0  0  0  0  0  0  0  0
    0.5822  -29.0118  -70.6326 C   0  0  0  0  0  0  0  0  0  0  0  0
    1.8612  -28.5365  -69.9473 C   0  0  0  0  0  0  0  0  0  0  0  0
    1.8993  -28.8714  -68.4535 C   0  0  0  0  0  0  0  0  0  0  0  0
    2.5445  -27.6841  -67.7376 C   0  0  0  0  0  0  0  0  0  0  0  0
    1.8814  -27.2768  -66.4305 C   0  0  0  0  0  0  0  0  0  0  0  0
    2.6650  -26.2146  -65.6598 C   0  0  0  0  0  0  0  0  0  0  0  0
   -1.6887  -25.0735  -69.6383 N   0  0  0  0  0  0  0  0  0  0  0  0
   -2.8269  -24.1221  -64.9766 H   0  0  0  0  0  0  0  0  0  0  0  0
   -0.0860  -28.9301  -68.6166 H   0  0  0  0  0  0  0  0  0  0  0  0
   -0.6054  -30.4011  -69.6057 H   0  0  0  0  0  0  0  0  0  0  0  0
   -3.1116  -30.2653  -70.3378 H   0  0  0  0  0  0  0  0  0  0  0  0
   -1.9709  -29.8274  -71.5981 H   0  0  0  0  0  0  0  0  0  0  0  0
   -1.9850  -24.8972  -67.0181 H   0  0  0  0  0  0  0  0  0  0  0  0
   -3.3930  -24.3201  -68.0841 H   0  0  0  0  0  0  0  0  0  0  0  0
   -2.4841  -26.7584  -72.2799 H   0  0  0  0  0  0  0  0  0  0  0  0
   -3.3814  -26.1911  -70.8890 H   0  0  0  0  0  0  0  0  0  0  0  0
   -2.4403  -21.4622  -68.3290 H   0  0  0  0  0  0  0  0  0  0  0  0
   -3.9156  -28.5940  -72.2859 H   0  0  0  0  0  0  0  0  0  0  0  0
   -4.4616  -28.3084  -70.6295 H   0  0  0  0  0  0  0  0  0  0  0  0
   -0.6646  -27.3665  -70.9991 H   0  0  0  0  0  0  0  0  0  0  0  0
   -3.1898  -22.1858  -63.5241 H   0  0  0  0  0  0  0  0  0  0  0  0
   -1.6794  -22.9656  -69.3826 H   0  0  0  0  0  0  0  0  0  0  0  0
   -3.1713  -19.8649  -64.3955 H   0  0  0  0  0  0  0  0  0  0  0  0
   -2.7767  -19.4992  -66.8287 H   0  0  0  0  0  0  0  0  0  0  0  0
   -2.3084  -28.7511  -68.9061 H   0  0  0  0  0  0  0  0  0  0  0  0
    0.7916  -29.9226  -71.2128 H   0  0  0  0  0  0  0  0  0  0  0  0
    0.2111  -28.2289  -71.3103 H   0  0  0  0  0  0  0  0  0  0  0  0
    2.7208  -29.0178  -70.4366 H   0  0  0  0  0  0  0  0  0  0  0  0
    1.8965  -27.4410  -70.0399 H   0  0  0  0  0  0  0  0  0  0  0  0
    0.8779  -29.0284  -68.0767 H   0  0  0  0  0  0  0  0  0  0  0  0
    2.4737  -29.7925  -68.2755 H   0  0  0  0  0  0  0  0  0  0  0  0
    3.5910  -27.9451  -67.5213 H   0  0  0  0  0  0  0  0  0  0  0  0
    2.4367  -26.8243  -68.4151 H   0  0  0  0  0  0  0  0  0  0  0  0
    0.8814  -26.8778  -66.6559 H   0  0  0  0  0  0  0  0  0  0  0  0
    1.8367  -28.1734  -65.7948 H   0  0  0  0  0  0  0  0  0  0  0  0
    2.5425  -26.3806  -64.5793 H   0  0  0  0  0  0  0  0  0  0  0  0
    3.7310  -26.2825  -65.9227 H   0  0  0  0  0  0  0  0  0  0  0  0
    2.2854  -25.2162  -65.9227 H   0  0  0  0  0  0  0  0  0  0  0  0
   -2.1536  -24.9317  -70.5464 H   0  0  0  0  0  0  0  0  0  0  0  0
  1  2  2  0
  1 11  1  0
  2  5  1  0
  2  8  1  0
 19  3  1  0
  3 20  1  0
  4  9  1  0
  4 19  1  0
 12  5  1  0
  6  9  1  0
  6 10  1  0
 10  7  1  0
  7 17  2  0
  7 26  1  0
  8 15  2  0
 10 19  1  0
 11 13  2  0
 12 14  1  0
 12 26  1  0
 13 15  1  0
 14 16  2  0
 14 18  1  0
 20 21  1  0
 21 22  1  0
 22 23  1  0
 23 24  1  0
 24 25  1  0
  1 27  1  0
  3 28  1  0
  3 29  1  0
  4 30  1  0
  4 31  1  0
  5 32  1  0
  5 33  1  0
  6 34  1  0
  6 35  1  0
  8 36  1  0
  9 37  1  0
  9 38  1  0
 10 39  1  6
 11 40  1  0
 12 41  1  6
 13 42  1  0
 15 43  1  0
 19 44  1  1
 20 45  1  0
 20 46  1  0
 21 47  1  0
 21 48  1  0
 22 49  1  0
 22 50  1  0
 23 51  1  0
 23 52  1  0
 24 53  1  0
 24 54  1  0
 25 55  1  0
 25 56  1  0
 25 57  1  0
 26 58  1  0
M  CHG  2  18  -1  19   1
M  END
>  <filename_input>  (16) 
7WY1_D0L_docked.sdf

>  <pdb_id>  (16) 
7WY1_D0L

>  <pose_rank>  (16) 
15

>  <num_atoms_heavy>  (16) 
26

>  <num_torsions>  (16) 
11

>  <pose>  (16) 
[-1.3520900543694143, -26.320222752985515, -69.33557760374902, -2.9254498866096417, 1.4245415564590993, 0.28489384733009093, -8.393154561878754, -28.650979770906055, 25.30984304723286, -3.003955578294923, 7.219177715140674, -0.5947407839217592, -10.62389044746464, -21.551520835571818, -4.890304350344459, -6.094706991951383, 27.765641567550972]

>  <energy>  (16) 
-595.8342134506807

>  <inter_energy>  (16) 
-624.736214916337

>  <intra_energy>  (16) 
49.473698947815066

>  <rmsd>  (16) 
7.94281

>  <sdf_rank>  (16) 
0

$$$$

     RDKit          3D

 58 59  0  0  0  0  0  0  0  0999 V2000
   -3.3190  -33.0493  -71.1861 C   0  0  0  0  0  0  0  0  0  0  0  0
   -2.7103  -31.8399  -71.4274 C   0  0  0  0  0  0  0  0  0  0  0  0
    3.1622  -29.9391  -69.3739 C   0  0  0  0  0  0  0  0  0  0  0  0
    3.1089  -27.8227  -68.1532 C   0  0  0  0  0  0  0  0  0  0  0  0
   -2.5364  -30.8638  -70.2978 C   0  0  0  0  0  0  0  0  0  0  0  0
    0.6992  -27.6208  -67.9658 C   0  0  0  0  0  0  0  0  0  0  0  0
    0.2208  -29.0523  -69.9734 C   0  0  0  0  0  0  0  0  0  0  0  0
   -2.3367  -31.5082  -72.7205 C   0  0  0  0  0  0  0  0  0  0  0  0
    2.0025  -26.8425  -67.7955 C   0  0  0  0  0  0  0  0  0  0  0  0
    1.1299  -28.8259  -68.7964 C   0  0  1  0  0  0  0  0  0  0  0  0
   -3.4967  -33.9141  -72.2251 C   0  0  0  0  0  0  0  0  0  0  0  0
   -2.1249  -29.4327  -70.6597 C   0  0  1  0  0  0  0  0  0  0  0  0
   -3.1159  -33.6223  -73.5288 C   0  0  0  0  0  0  0  0  0  0  0  0
   -3.2761  -28.4841  -70.4777 C   0  0  0  0  0  0  0  0  0  0  0  0
   -2.5361  -32.4026  -73.7748 C   0  0  0  0  0  0  0  0  0  0  0  0
   -3.8203  -28.0141  -71.5139 O   0  0  0  0  0  0  0  0  0  0  0  0
    0.7307  -29.1622  -71.0890 O   0  0  0  0  0  0  0  0  0  0  0  0
   -3.6654  -28.1803  -69.3109 O   0  0  0  0  0  0  0  0  0  0  0  0
    2.5470  -28.5936  -69.2122 N   0  0  2  0  0  0  0  0  0  0  0  0
    4.3562  -30.0170  -70.3003 C   0  0  0  0  0  0  0  0  0  0  0  0
    4.7784  -31.4769  -70.4469 C   0  0  0  0  0  0  0  0  0  0  0  0
    6.1901  -31.6368  -71.0185 C   0  0  0  0  0  0  0  0  0  0  0  0
    6.1383  -32.7658  -72.0487 C   0  0  0  0  0  0  0  0  0  0  0  0
    6.9333  -32.5187  -73.3220 C   0  0  0  0  0  0  0  0  0  0  0  0
    8.4373  -32.7263  -73.1462 C   0  0  0  0  0  0  0  0  0  0  0  0
   -1.0798  -29.1280  -69.7244 N   0  0  0  0  0  0  0  0  0  0  0  0
   -3.6565  -33.3141  -70.1731 H   0  0  0  0  0  0  0  0  0  0  0  0
    3.4847  -30.2831  -68.3801 H   0  0  0  0  0  0  0  0  0  0  0  0
    2.3862  -30.5655  -69.8381 H   0  0  0  0  0  0  0  0  0  0  0  0
    4.0105  -27.2906  -68.4908 H   0  0  0  0  0  0  0  0  0  0  0  0
    3.4258  -28.4387  -67.2987 H   0  0  0  0  0  0  0  0  0  0  0  0
   -3.4949  -30.8058  -69.7612 H   0  0  0  0  0  0  0  0  0  0  0  0
   -1.6938  -31.2591  -69.7114 H   0  0  0  0  0  0  0  0  0  0  0  0
    0.2954  -27.9349  -66.9920 H   0  0  0  0  0  0  0  0  0  0  0  0
   -0.1011  -27.0314  -68.4370 H   0  0  0  0  0  0  0  0  0  0  0  0
   -1.8776  -30.5284  -72.9188 H   0  0  0  0  0  0  0  0  0  0  0  0
    2.1131  -26.5001  -66.7561 H   0  0  0  0  0  0  0  0  0  0  0  0
    2.0293  -25.9459  -68.4322 H   0  0  0  0  0  0  0  0  0  0  0  0
    1.0590  -29.7466  -68.1985 H   0  0  0  0  0  0  0  0  0  0  0  0
   -3.9637  -34.8890  -72.0214 H   0  0  0  0  0  0  0  0  0  0  0  0
   -1.8064  -29.3389  -71.7084 H   0  0  0  0  0  0  0  0  0  0  0  0
   -3.2743  -34.3476  -74.3404 H   0  0  0  0  0  0  0  0  0  0  0  0
   -2.2304  -32.1312  -74.7960 H   0  0  0  0  0  0  0  0  0  0  0  0
    2.6834  -28.0891  -70.0998 H   0  0  0  0  0  0  0  0  0  0  0  0
    4.0851  -29.6109  -71.2860 H   0  0  0  0  0  0  0  0  0  0  0  0
    5.1881  -29.4300  -69.8838 H   0  0  0  0  0  0  0  0  0  0  0  0
    4.7456  -31.9526  -69.4556 H   0  0  0  0  0  0  0  0  0  0  0  0
    4.0816  -31.9517  -71.1533 H   0  0  0  0  0  0  0  0  0  0  0  0
    6.5090  -30.7012  -71.5010 H   0  0  0  0  0  0  0  0  0  0  0  0
    6.9094  -31.8711  -70.2199 H   0  0  0  0  0  0  0  0  0  0  0  0
    6.5305  -33.6774  -71.5743 H   0  0  0  0  0  0  0  0  0  0  0  0
    5.0858  -32.8487  -72.3576 H   0  0  0  0  0  0  0  0  0  0  0  0
    6.5737  -33.2106  -74.0978 H   0  0  0  0  0  0  0  0  0  0  0  0
    6.7805  -31.4659  -73.6020 H   0  0  0  0  0  0  0  0  0  0  0  0
    8.6800  -32.7598  -72.0738 H   0  0  0  0  0  0  0  0  0  0  0  0
    8.7344  -33.6740  -73.6191 H   0  0  0  0  0  0  0  0  0  0  0  0
    8.9801  -31.8946  -73.6191 H   0  0  0  0  0  0  0  0  0  0  0  0
   -1.3719  -28.9482  -68.7532 H   0  0  0  0  0  0  0  0  0  0  0  0
  1  2  2  0
  1 11  1  0
  2  5  1  0
  2  8  1  0
 19  3  1  0
  3 20  1  0
  4  9  1  0
  4 19  1  0
 12  5  1  0
  6  9  1  0
  6 10  1  0
 10  7  1  0
  7 17  2  0
  7 26  1  0
  8 15  2  0
 10 19  1  0
 11 13  2  0
 12 14  1  0
 12 26  1  0
 13 15  1  0
 14 16  2  0
 14 18  1  0
 20 21  1  0
 21 22  1  0
 22 23  1  0
 23 24  1  0
 24 25  1  0
  1 27  1  0
  3 28  1  0
  3 29  1  0
  4 30  1  0
  4 31  1  0
  5 32  1  0
  5 33  1  0
  6 34  1  0
  6 35  1  0
  8 36  1  0
  9 37  1  0
  9 38  1  0
 10 39  1  1
 11 40  1  0
 12 41  1  6
 13 42  1  0
 15 43  1  0
 19 44  1  6
 20 45  1  0
 20 46  1  0
 21 47  1  0
 21 48  1  0
 22 49  1  0
 22 50  1  0
 23 51  1  0
 23 52  1  0
 24 53  1  0
 24 54  1  0
 25 55  1  0
 25 56  1  0
 25 57  1  0
 26 58  1  0
M  CHG  2  18  -1  19   1
M  END
>  <filename_input>  (17) 
7WY1_D0L_docked.sdf

>  <pdb_id>  (17) 
7WY1_D0L

>  <pose_rank>  (17) 
16

>  <num_atoms_heavy>  (17) 
26

>  <num_torsions>  (17) 
11

>  <pose>  (17) 
[0.2207662586439947, -29.052319422880682, -69.9733531439501, -0.5956683447820709, 0.6944665389749881, 5.805880527874912, 3.8152778923385746, -0.13796461101805851, 1.1146797358583356, 0.13542073350491216, 1.0130357784255992, -0.5800017368376235, 0.28895310410646374, 0.3396084132803768, -3.539627208839779, 0.7662123473358842, -4.031062689744146]

>  <energy>  (17) 
-553.9560742145561

>  <inter_energy>  (17) 
-550.9476887978386

>  <intra_energy>  (17) 
8.26133195305203

>  <rmsd>  (17) 
7.18368

>  <sdf_rank>  (17) 
0

$$$$

     RDKit          3D

 58 59  0  0  0  0  0  0  0  0999 V2000
   -2.2794  -27.6732  -69.6905 C   0  0  0  0  0  0  0  0  0  0  0  0
   -1.1918  -27.0860  -69.0873 C   0  0  0  0  0  0  0  0  0  0  0  0
   -3.1387  -21.4909  -67.8448 C   0  0  0  0  0  0  0  0  0  0  0  0
   -3.0259  -20.9101  -65.4737 C   0  0  0  0  0  0  0  0  0  0  0  0
   -1.1482  -25.5907  -68.9410 C   0  0  0  0  0  0  0  0  0  0  0  0
   -0.9025  -21.9746  -64.9831 C   0  0  0  0  0  0  0  0  0  0  0  0
   -1.0619  -23.6216  -66.8726 C   0  0  0  0  0  0  0  0  0  0  0  0
   -0.1204  -27.8727  -68.6936 C   0  0  0  0  0  0  0  0  0  0  0  0
   -2.1304  -21.3480  -64.3251 C   0  0  0  0  0  0  0  0  0  0  0  0
   -1.3738  -22.2236  -66.4126 C   0  0  1  0  0  0  0  0  0  0  0  0
   -2.2938  -29.0280  -69.8430 C   0  0  0  0  0  0  0  0  0  0  0  0
    0.1883  -24.9609  -68.5342 C   0  0  1  0  0  0  0  0  0  0  0  0
   -1.2468  -29.8480  -69.4416 C   0  0  0  0  0  0  0  0  0  0  0  0
    1.0203  -24.6453  -69.7453 C   0  0  0  0  0  0  0  0  0  0  0  0
   -0.1481  -29.2585  -68.8674 C   0  0  0  0  0  0  0  0  0  0  0  0
    0.8032  -25.3073  -70.7966 O   0  0  0  0  0  0  0  0  0  0  0  0
   -1.6331  -24.5584  -66.3133 O   0  0  0  0  0  0  0  0  0  0  0  0
    1.9062  -23.7415  -69.6845 O   0  0  0  0  0  0  0  0  0  0  0  0
   -2.8385  -21.9276  -66.4540 N   0  0  2  0  0  0  0  0  0  0  0  0
   -3.9936  -22.4307  -68.6667 C   0  0  0  0  0  0  0  0  0  0  0  0
   -5.3873  -21.8272  -68.8241 C   0  0  0  0  0  0  0  0  0  0  0  0
   -5.6903  -21.3878  -70.2594 C   0  0  0  0  0  0  0  0  0  0  0  0
   -7.1746  -21.6544  -70.5127 C   0  0  0  0  0  0  0  0  0  0  0  0
   -7.9704  -20.4611  -71.0199 C   0  0  0  0  0  0  0  0  0  0  0  0
   -9.1120  -20.8500  -71.9589 C   0  0  0  0  0  0  0  0  0  0  0  0
   -0.1915  -23.7493  -67.8653 N   0  0  0  0  0  0  0  0  0  0  0  0
   -3.1222  -27.0609  -70.0436 H   0  0  0  0  0  0  0  0  0  0  0  0
   -3.6604  -20.5241  -67.7885 H   0  0  0  0  0  0  0  0  0  0  0  0
   -2.1667  -21.4495  -68.3583 H   0  0  0  0  0  0  0  0  0  0  0  0
   -4.0775  -20.8613  -65.1548 H   0  0  0  0  0  0  0  0  0  0  0  0
   -2.7786  -19.9059  -65.8485 H   0  0  0  0  0  0  0  0  0  0  0  0
   -1.4367  -25.1559  -69.9093 H   0  0  0  0  0  0  0  0  0  0  0  0
   -1.8292  -25.3696  -68.1060 H   0  0  0  0  0  0  0  0  0  0  0  0
   -0.0466  -21.2839  -64.9629 H   0  0  0  0  0  0  0  0  0  0  0  0
   -0.5540  -22.8858  -64.4750 H   0  0  0  0  0  0  0  0  0  0  0  0
    0.7625  -27.3998  -68.2389 H   0  0  0  0  0  0  0  0  0  0  0  0
   -1.8390  -20.4819  -63.7128 H   0  0  0  0  0  0  0  0  0  0  0  0
   -2.6412  -22.0556  -63.6555 H   0  0  0  0  0  0  0  0  0  0  0  0
   -0.8367  -21.5656  -67.1117 H   0  0  0  0  0  0  0  0  0  0  0  0
   -3.1764  -29.4938  -70.3058 H   0  0  0  0  0  0  0  0  0  0  0  0
    0.7944  -25.6295  -67.9052 H   0  0  0  0  0  0  0  0  0  0  0  0
   -1.2966  -30.9381  -69.5800 H   0  0  0  0  0  0  0  0  0  0  0  0
    0.7053  -29.8736  -68.5459 H   0  0  0  0  0  0  0  0  0  0  0  0
   -3.4676  -22.7149  -66.2410 H   0  0  0  0  0  0  0  0  0  0  0  0
   -3.5385  -22.5710  -69.6583 H   0  0  0  0  0  0  0  0  0  0  0  0
   -4.0658  -23.4049  -68.1611 H   0  0  0  0  0  0  0  0  0  0  0  0
   -6.1311  -22.5797  -68.5234 H   0  0  0  0  0  0  0  0  0  0  0  0
   -5.4310  -20.9301  -68.1891 H   0  0  0  0  0  0  0  0  0  0  0  0
   -5.4746  -20.3158  -70.3784 H   0  0  0  0  0  0  0  0  0  0  0  0
   -5.0671  -21.9426  -70.9763 H   0  0  0  0  0  0  0  0  0  0  0  0
   -7.2533  -22.4579  -71.2598 H   0  0  0  0  0  0  0  0  0  0  0  0
   -7.6082  -21.9173  -69.5366 H   0  0  0  0  0  0  0  0  0  0  0  0
   -8.3953  -19.9316  -70.1544 H   0  0  0  0  0  0  0  0  0  0  0  0
   -7.2778  -19.8282  -71.5941 H   0  0  0  0  0  0  0  0  0  0  0  0
   -9.9889  -21.1487  -71.3658 H   0  0  0  0  0  0  0  0  0  0  0  0
   -9.3739  -19.9904  -72.5933 H   0  0  0  0  0  0  0  0  0  0  0  0
   -8.7947  -21.6907  -72.5933 H   0  0  0  0  0  0  0  0  0  0  0  0
    0.2616  -22.8839  -68.1919 H   0  0  0  0  0  0  0  0  0  0  0  0
  1  2  2  0
  1 11  1  0
  2  5  1  0
  2  8  1  0
 19  3  1  0
  3 20  1  0
  4  9  1  0
  4 19  1  0
 12  5  1  0
  6  9  1  0
  6 10  1  0
 10  7  1  0
  7 17  2  0
  7 26  1  0
  8 15  2  0
 10 19  1  0
 11 13  2  0
 12 14  1  0
 12 26  1  0
 13 15  1  0
 14 16  2  0
 14 18  1  0
 20 21  1  0
 21 22  1  0
 22 23  1  0
 23 24  1  0
 24 25  1  0
  1 27  1  0
  3 28  1  0
  3 29  1  0
  4 30  1  0
  4 31  1  0
  5 32  1  0
  5 33  1  0
  6 34  1  0
  6 35  1  0
  8 36  1  0
  9 37  1  0
  9 38  1  0
 10 39  1  6
 11 40  1  0
 12 41  1  1
 13 42  1  0
 15 43  1  0
 19 44  1  1
 20 45  1  0
 20 46  1  0
 21 47  1  0
 21 48  1  0
 22 49  1  0
 22 50  1  0
 23 51  1  0
 23 52  1  0
 24 53  1  0
 24 54  1  0
 25 55  1  0
 25 56  1  0
 25 57  1  0
 26 58  1  0
M  CHG  2  18  -1  19   1
M  END
>  <filename_input>  (18) 
7WY1_D0L_docked.sdf

>  <pdb_id>  (18) 
7WY1_D0L

>  <pose_rank>  (18) 
17

>  <num_atoms_heavy>  (18) 
26

>  <num_torsions>  (18) 
11

>  <pose>  (18) 
[-1.0619257068426826, -23.621565667466566, -66.87261734174439, 0.6790233111388284, 2.569634241424988, 1.8980136758520731, 21.578906121595416, -32.32026514140684, 6.041319329057803, -7.637946668337292, 5.934855565947931, 11.771434746505308, 1.5139232606259965, 24.522081370699723, -2.0753115973168343, 25.574080181892153, 8.535024165128867]

>  <energy>  (18) 
-516.7284603580556

>  <inter_energy>  (18) 
-528.1840151461334

>  <intra_energy>  (18) 
24.67291248908936

>  <rmsd>  (18) 
6.13442

>  <sdf_rank>  (18) 
0

$$$$

     RDKit          3D

 58 59  0  0  0  0  0  0  0  0999 V2000
    0.3597  -23.5886  -67.2982 C   0  0  0  0  0  0  0  0  0  0  0  0
    0.0802  -24.4189  -68.3584 C   0  0  0  0  0  0  0  0  0  0  0  0
   -1.1418  -31.2405  -70.2074 C   0  0  0  0  0  0  0  0  0  0  0  0
   -3.0852  -29.7665  -70.3573 C   0  0  0  0  0  0  0  0  0  0  0  0
    1.2130  -25.0357  -69.1301 C   0  0  0  0  0  0  0  0  0  0  0  0
   -1.8950  -27.7178  -70.8755 C   0  0  0  0  0  0  0  0  0  0  0  0
    0.2619  -28.4683  -69.8302 C   0  0  0  0  0  0  0  0  0  0  0  0
   -1.2363  -24.6127  -68.7469 C   0  0  0  0  0  0  0  0  0  0  0  0
   -3.2568  -28.2578  -70.4428 C   0  0  0  0  0  0  0  0  0  0  0  0
   -0.9608  -28.8915  -70.5976 C   0  0  1  0  0  0  0  0  0  0  0  0
   -0.6762  -23.0125  -66.6243 C   0  0  0  0  0  0  0  0  0  0  0  0
    1.4869  -26.5271  -68.9087 C   0  0  1  0  0  0  0  0  0  0  0  0
   -2.0073  -23.2015  -66.9737 C   0  0  0  0  0  0  0  0  0  0  0  0
    1.5135  -26.8530  -67.4419 C   0  0  0  0  0  0  0  0  0  0  0  0
   -2.2846  -24.0058  -68.0510 C   0  0  0  0  0  0  0  0  0  0  0  0
    2.5426  -26.5327  -66.7869 O   0  0  0  0  0  0  0  0  0  0  0  0
    1.0845  -29.3325  -69.5249 O   0  0  0  0  0  0  0  0  0  0  0  0
    0.5230  -27.4336  -66.9062 O   0  0  0  0  0  0  0  0  0  0  0  0
   -1.7556  -29.9274  -69.8696 N   0  0  2  0  0  0  0  0  0  0  0  0
   -2.0891  -32.4183  -70.2792 C   0  0  0  0  0  0  0  0  0  0  0  0
   -2.0290  -33.0210  -71.6808 C   0  0  0  0  0  0  0  0  0  0  0  0
   -3.2563  -33.8722  -72.0189 C   0  0  0  0  0  0  0  0  0  0  0  0
   -3.7523  -34.4940  -70.7128 C   0  0  0  0  0  0  0  0  0  0  0  0
   -5.1345  -35.1259  -70.7794 C   0  0  0  0  0  0  0  0  0  0  0  0
   -5.1026  -36.6540  -70.7629 C   0  0  0  0  0  0  0  0  0  0  0  0
    0.3752  -27.1789  -69.5404 N   0  0  0  0  0  0  0  0  0  0  0  0
    1.4001  -23.3930  -66.9993 H   0  0  0  0  0  0  0  0  0  0  0  0
   -0.6537  -31.1412  -71.1881 H   0  0  0  0  0  0  0  0  0  0  0  0
   -0.4516  -31.4659  -69.3810 H   0  0  0  0  0  0  0  0  0  0  0  0
   -3.8145  -30.2055  -69.6605 H   0  0  0  0  0  0  0  0  0  0  0  0
   -3.2499  -30.2699  -71.3213 H   0  0  0  0  0  0  0  0  0  0  0  0
    0.9989  -24.8947  -70.1998 H   0  0  0  0  0  0  0  0  0  0  0  0
    2.1152  -24.5260  -68.7612 H   0  0  0  0  0  0  0  0  0  0  0  0
   -1.8943  -27.4553  -71.9437 H   0  0  0  0  0  0  0  0  0  0  0  0
   -1.6049  -26.7967  -70.3487 H   0  0  0  0  0  0  0  0  0  0  0  0
   -1.4583  -25.2524  -69.6138 H   0  0  0  0  0  0  0  0  0  0  0  0
   -4.0265  -27.9996  -71.1849 H   0  0  0  0  0  0  0  0  0  0  0  0
   -3.5808  -27.8283  -69.4834 H   0  0  0  0  0  0  0  0  0  0  0  0
   -0.5772  -29.3058  -71.5417 H   0  0  0  0  0  0  0  0  0  0  0  0
   -0.4469  -22.3676  -65.7632 H   0  0  0  0  0  0  0  0  0  0  0  0
    2.4595  -26.8412  -69.3156 H   0  0  0  0  0  0  0  0  0  0  0  0
   -2.8158  -22.7206  -66.4036 H   0  0  0  0  0  0  0  0  0  0  0  0
   -3.3259  -24.1713  -68.3645 H   0  0  0  0  0  0  0  0  0  0  0  0
   -1.7665  -29.8531  -68.8424 H   0  0  0  0  0  0  0  0  0  0  0  0
   -1.7921  -33.1759  -69.5391 H   0  0  0  0  0  0  0  0  0  0  0  0
   -3.1144  -32.0838  -70.0626 H   0  0  0  0  0  0  0  0  0  0  0  0
   -1.9581  -32.2021  -72.4118 H   0  0  0  0  0  0  0  0  0  0  0  0
   -1.1501  -33.6814  -71.7176 H   0  0  0  0  0  0  0  0  0  0  0  0
   -4.0429  -33.2408  -72.4579 H   0  0  0  0  0  0  0  0  0  0  0  0
   -2.9991  -34.6535  -72.7493 H   0  0  0  0  0  0  0  0  0  0  0  0
   -3.0360  -35.2733  -70.4136 H   0  0  0  0  0  0  0  0  0  0  0  0
   -3.8295  -33.6671  -69.9915 H   0  0  0  0  0  0  0  0  0  0  0  0
   -5.7187  -34.7796  -69.9141 H   0  0  0  0  0  0  0  0  0  0  0  0
   -5.5867  -34.8200  -71.7344 H   0  0  0  0  0  0  0  0  0  0  0  0
   -5.0952  -37.0093  -69.7219 H   0  0  0  0  0  0  0  0  0  0  0  0
   -5.9928  -37.0449  -71.2774 H   0  0  0  0  0  0  0  0  0  0  0  0
   -4.1969  -37.0074  -71.2774 H   0  0  0  0  0  0  0  0  0  0  0  0
   -0.4223  -26.5796  -69.7969 H   0  0  0  0  0  0  0  0  0  0  0  0
  1  2  2  0
  1 11  1  0
  2  5  1  0
  2  8  1  0
 19  3  1  0
  3 20  1  0
  4  9  1  0
  4 19  1  0
 12  5  1  0
  6  9  1  0
  6 10  1  0
 10  7  1  0
  7 17  2  0
  7 26  1  0
  8 15  2  0
 10 19  1  0
 11 13  2  0
 12 14  1  0
 12 26  1  0
 13 15  1  0
 14 16  2  0
 14 18  1  0
 20 21  1  0
 21 22  1  0
 22 23  1  0
 23 24  1  0
 24 25  1  0
  1 27  1  0
  3 28  1  0
  3 29  1  0
  4 30  1  0
  4 31  1  0
  5 32  1  0
  5 33  1  0
  6 34  1  0
  6 35  1  0
  8 36  1  0
  9 37  1  0
  9 38  1  0
 10 39  1  6
 11 40  1  0
 12 41  1  6
 13 42  1  0
 15 43  1  0
 19 44  1  1
 20 45  1  0
 20 46  1  0
 21 47  1  0
 21 48  1  0
 22 49  1  0
 22 50  1  0
 23 51  1  0
 23 52  1  0
 24 53  1  0
 24 54  1  0
 25 55  1  0
 25 56  1  0
 25 57  1  0
 26 58  1  0
M  CHG  2  18  -1  19   1
M  END
>  <filename_input>  (19) 
7WY1_D0L_docked.sdf

>  <pdb_id>  (19) 
7WY1_D0L

>  <pose_rank>  (19) 
18

>  <num_atoms_heavy>  (19) 
26

>  <num_torsions>  (19) 
11

>  <pose>  (19) 
[0.261920685946451, -28.468276989270382, -69.83015659407836, 2.1919430839305116, -1.5291744851967968, -1.4972486670675738, -1.5815857599162815, 0.854405343942541, -0.014199454551796603, 0.19533633831362676, -3.4184693626063347, -0.08663597906540402, 0.7998268857933702, 1.4025989376765502, 3.298208465365152, -1.935918822350879, 0.7464042223019887]

>  <energy>  (19) 
-532.9739220483887

>  <inter_energy>  (19) 
-554.4340805103569

>  <intra_energy>  (19) 
36.36861561394171

>  <rmsd>  (19) 
8.95061

>  <sdf_rank>  (19) 
0

$$$$

     RDKit          3D

 58 59  0  0  0  0  0  0  0  0999 V2000
   -2.7584  -22.9198  -67.4411 C   0  0  0  0  0  0  0  0  0  0  0  0
   -1.8891  -23.6255  -66.6425 C   0  0  0  0  0  0  0  0  0  0  0  0
    0.5332  -28.9498  -69.2657 C   0  0  0  0  0  0  0  0  0  0  0  0
   -1.5319  -29.9206  -70.1404 C   0  0  0  0  0  0  0  0  0  0  0  0
   -1.3992  -24.9721  -67.0965 C   0  0  0  0  0  0  0  0  0  0  0  0
   -2.4586  -27.8942  -71.0983 C   0  0  0  0  0  0  0  0  0  0  0  0
   -1.1859  -26.3527  -69.5778 C   0  0  0  0  0  0  0  0  0  0  0  0
   -1.5391  -23.1211  -65.3997 C   0  0  0  0  0  0  0  0  0  0  0  0
   -2.8102  -29.3306  -70.7154 C   0  0  0  0  0  0  0  0  0  0  0  0
   -1.1579  -27.6497  -70.3394 C   0  0  1  0  0  0  0  0  0  0  0  0
   -3.2179  -21.7125  -67.0049 C   0  0  0  0  0  0  0  0  0  0  0  0
   -0.0530  -25.0229  -67.8268 C   0  0  1  0  0  0  0  0  0  0  0  0
   -2.8715  -21.1681  -65.7747 C   0  0  0  0  0  0  0  0  0  0  0  0
    1.0692  -25.2784  -66.8604 C   0  0  0  0  0  0  0  0  0  0  0  0
   -2.0281  -21.8870  -64.9647 C   0  0  0  0  0  0  0  0  0  0  0  0
    1.7830  -24.2975  -66.5154 O   0  0  0  0  0  0  0  0  0  0  0  0
   -2.1252  -25.5815  -69.7777 O   0  0  0  0  0  0  0  0  0  0  0  0
    1.2721  -26.4505  -66.4242 O   0  0  0  0  0  0  0  0  0  0  0  0
   -0.9392  -28.8270  -69.4444 N   0  0  2  0  0  0  0  0  0  0  0  0
    1.3888  -28.2281  -70.2839 C   0  0  0  0  0  0  0  0  0  0  0  0
    2.8533  -28.3268  -69.8634 C   0  0  0  0  0  0  0  0  0  0  0  0
    3.6602  -27.0714  -70.2069 C   0  0  0  0  0  0  0  0  0  0  0  0
    2.7513  -25.8659  -69.9633 C   0  0  0  0  0  0  0  0  0  0  0  0
    2.4509  -25.0214  -71.1925 C   0  0  0  0  0  0  0  0  0  0  0  0
    3.7055  -24.4694  -71.8688 C   0  0  0  0  0  0  0  0  0  0  0  0
   -0.1919  -26.1312  -68.7281 N   0  0  0  0  0  0  0  0  0  0  0  0
   -3.0771  -23.3220  -68.4141 H   0  0  0  0  0  0  0  0  0  0  0  0
    0.7856  -28.5518  -68.2718 H   0  0  0  0  0  0  0  0  0  0  0  0
    0.7587  -30.0187  -69.3940 H   0  0  0  0  0  0  0  0  0  0  0  0
   -1.7569  -30.7483  -69.4518 H   0  0  0  0  0  0  0  0  0  0  0  0
   -0.8720  -30.3429  -70.9125 H   0  0  0  0  0  0  0  0  0  0  0  0
   -1.3152  -25.6105  -66.2046 H   0  0  0  0  0  0  0  0  0  0  0  0
   -2.1368  -25.3031  -67.8424 H   0  0  0  0  0  0  0  0  0  0  0  0
   -2.3077  -27.7994  -72.1838 H   0  0  0  0  0  0  0  0  0  0  0  0
   -3.2498  -27.1716  -70.8497 H   0  0  0  0  0  0  0  0  0  0  0  0
   -0.8679  -23.6997  -64.7480 H   0  0  0  0  0  0  0  0  0  0  0  0
   -3.1308  -29.8975  -71.6019 H   0  0  0  0  0  0  0  0  0  0  0  0
   -3.6394  -29.3699  -69.9936 H   0  0  0  0  0  0  0  0  0  0  0  0
   -0.3183  -27.5505  -71.0431 H   0  0  0  0  0  0  0  0  0  0  0  0
   -3.8951  -21.1425  -67.6581 H   0  0  0  0  0  0  0  0  0  0  0  0
    0.1846  -24.0782  -68.3377 H   0  0  0  0  0  0  0  0  0  0  0  0
   -3.2618  -20.1894  -65.4589 H   0  0  0  0  0  0  0  0  0  0  0  0
   -1.7390  -21.4936  -63.9789 H   0  0  0  0  0  0  0  0  0  0  0  0
   -1.3548  -28.7665  -68.5040 H   0  0  0  0  0  0  0  0  0  0  0  0
    1.2569  -28.6930  -71.2721 H   0  0  0  0  0  0  0  0  0  0  0  0
    1.0887  -27.1713  -70.3388 H   0  0  0  0  0  0  0  0  0  0  0  0
    2.8958  -28.4840  -68.7755 H   0  0  0  0  0  0  0  0  0  0  0  0
    3.2989  -29.1662  -70.4172 H   0  0  0  0  0  0  0  0  0  0  0  0
    4.5500  -27.0081  -69.5634 H   0  0  0  0  0  0  0  0  0  0  0  0
    3.9975  -27.0996  -71.2535 H   0  0  0  0  0  0  0  0  0  0  0  0
    1.7958  -26.2357  -69.5629 H   0  0  0  0  0  0  0  0  0  0  0  0
    3.2951  -25.2096  -69.2679 H   0  0  0  0  0  0  0  0  0  0  0  0
    1.9077  -25.6435  -71.9191 H   0  0  0  0  0  0  0  0  0  0  0  0
    1.8554  -24.1593  -70.8576 H   0  0  0  0  0  0  0  0  0  0  0  0
    4.4265  -24.1522  -71.1009 H   0  0  0  0  0  0  0  0  0  0  0  0
    4.1582  -25.2515  -72.4960 H   0  0  0  0  0  0  0  0  0  0  0  0
    3.4348  -23.6073  -72.4960 H   0  0  0  0  0  0  0  0  0  0  0  0
    0.5633  -26.8315  -68.7134 H   0  0  0  0  0  0  0  0  0  0  0  0
  1  2  2  0
  1 11  1  0
  2  5  1  0
  2  8  1  0
 19  3  1  0
  3 20  1  0
  4  9  1  0
  4 19  1  0
 12  5  1  0
  6  9  1  0
  6 10  1  0
 10  7  1  0
  7 17  2  0
  7 26  1  0
  8 15  2  0
 10 19  1  0
 11 13  2  0
 12 14  1  0
 12 26  1  0
 13 15  1  0
 14 16  2  0
 14 18  1  0
 20 21  1  0
 21 22  1  0
 22 23  1  0
 23 24  1  0
 24 25  1  0
  1 27  1  0
  3 28  1  0
  3 29  1  0
  4 30  1  0
  4 31  1  0
  5 32  1  0
  5 33  1  0
  6 34  1  0
  6 35  1  0
  8 36  1  0
  9 37  1  0
  9 38  1  0
 10 39  1  6
 11 40  1  0
 12 41  1  6
 13 42  1  0
 15 43  1  0
 19 44  1  1
 20 45  1  0
 20 46  1  0
 21 47  1  0
 21 48  1  0
 22 49  1  0
 22 50  1  0
 23 51  1  0
 23 52  1  0
 24 53  1  0
 24 54  1  0
 25 55  1  0
 25 56  1  0
 25 57  1  0
 26 58  1  0
M  CHG  2  18  -1  19   1
M  END
>  <filename_input>  (20) 
7WY1_D0L_docked.sdf

>  <pdb_id>  (20) 
7WY1_D0L

>  <pose_rank>  (20) 
19

>  <num_atoms_heavy>  (20) 
26

>  <num_torsions>  (20) 
11

>  <pose>  (20) 
[-1.185939991990513, -26.35265687925295, -69.57778856655791, 0.33546752931435003, -2.6380804137728298, 2.5540309807527573, 1.4198155989790322, 3.109602418586237, 0.9157171800633516, 0.456868867352309, 4.06998168652487, 1.2200686935093157, -2.0735513836231294, -0.6330256763423342, -3.4328499848595313, 0.5074736413859681, 0.5565170378636987]

>  <energy>  (20) 
-491.07126808224075

>  <inter_energy>  (20) 
-558.1989815086571

>  <intra_energy>  (20) 
67.78120092742834

>  <rmsd>  (20) 
7.87877

>  <sdf_rank>  (20) 
0

$$$$

     RDKit          3D

 58 59  0  0  0  0  0  0  0  0999 V2000
   -1.7894  -21.6665  -63.9908 C   0  0  0  0  0  0  0  0  0  0  0  0
   -1.2744  -22.4047  -65.0306 C   0  0  0  0  0  0  0  0  0  0  0  0
   -0.3406  -27.4395  -68.2278 C   0  0  0  0  0  0  0  0  0  0  0  0
    0.4299  -27.3083  -70.5433 C   0  0  0  0  0  0  0  0  0  0  0  0
   -2.1015  -23.5052  -65.6339 C   0  0  0  0  0  0  0  0  0  0  0  0
    0.2792  -24.9009  -70.7958 C   0  0  0  0  0  0  0  0  0  0  0  0
   -1.4550  -24.6185  -69.0011 C   0  0  0  0  0  0  0  0  0  0  0  0
    0.0253  -22.1749  -65.4547 C   0  0  0  0  0  0  0  0  0  0  0  0
    0.4526  -26.1985  -71.5828 C   0  0  0  0  0  0  0  0  0  0  0  0
   -0.2425  -25.3889  -69.4478 C   0  0  1  0  0  0  0  0  0  0  0  0
   -1.0182  -20.6901  -63.4333 C   0  0  0  0  0  0  0  0  0  0  0  0
   -2.4692  -23.3790  -67.1162 C   0  0  1  0  0  0  0  0  0  0  0  0
    0.2800  -20.4197  -63.8472 C   0  0  0  0  0  0  0  0  0  0  0  0
   -2.4989  -21.9369  -67.5378 C   0  0  0  0  0  0  0  0  0  0  0  0
    0.8048  -21.1772  -64.8646 C   0  0  0  0  0  0  0  0  0  0  0  0
   -3.5875  -21.4746  -67.9759 O   0  0  0  0  0  0  0  0  0  0  0  0
   -2.4144  -24.5477  -69.7701 O   0  0  0  0  0  0  0  0  0  0  0  0
   -1.4502  -21.2314  -67.4491 O   0  0  0  0  0  0  0  0  0  0  0  0
   -0.5196  -26.8517  -69.5833 N   0  0  2  0  0  0  0  0  0  0  0  0
    0.7527  -26.8296  -67.3779 C   0  0  0  0  0  0  0  0  0  0  0  0
    1.4635  -27.9404  -66.6084 C   0  0  0  0  0  0  0  0  0  0  0  0
    0.6397  -28.4762  -65.4340 C   0  0  0  0  0  0  0  0  0  0  0  0
    0.4640  -29.9798  -65.6503 C   0  0  0  0  0  0  0  0  0  0  0  0
    1.1085  -30.5330  -66.9124 C   0  0  0  0  0  0  0  0  0  0  0  0
    0.4702  -31.8344  -67.3973 C   0  0  0  0  0  0  0  0  0  0  0  0
   -1.4101  -24.0710  -67.7938 N   0  0  0  0  0  0  0  0  0  0  0  0
   -2.8052  -21.8603  -63.6158 H   0  0  0  0  0  0  0  0  0  0  0  0
   -1.2906  -27.3277  -67.6847 H   0  0  0  0  0  0  0  0  0  0  0  0
   -0.0373  -28.4835  -68.3957 H   0  0  0  0  0  0  0  0  0  0  0  0
    0.1078  -28.2597  -70.9919 H   0  0  0  0  0  0  0  0  0  0  0  0
    1.4199  -27.5027  -70.1050 H   0  0  0  0  0  0  0  0  0  0  0  0
   -1.5413  -24.4440  -65.5116 H   0  0  0  0  0  0  0  0  0  0  0  0
   -3.0625  -23.4596  -65.1006 H   0  0  0  0  0  0  0  0  0  0  0  0
    1.2388  -24.3752  -70.6824 H   0  0  0  0  0  0  0  0  0  0  0  0
   -0.3916  -24.1805  -71.2870 H   0  0  0  0  0  0  0  0  0  0  0  0
    0.4480  -22.7859  -66.2659 H   0  0  0  0  0  0  0  0  0  0  0  0
    1.4113  -26.1962  -72.1222 H   0  0  0  0  0  0  0  0  0  0  0  0
   -0.3380  -26.3282  -72.3365 H   0  0  0  0  0  0  0  0  0  0  0  0
    0.5096  -25.2192  -68.6633 H   0  0  0  0  0  0  0  0  0  0  0  0
   -1.4441  -20.0881  -62.6171 H   0  0  0  0  0  0  0  0  0  0  0  0
   -3.4650  -23.7896  -67.3392 H   0  0  0  0  0  0  0  0  0  0  0  0
    0.8704  -19.6216  -63.3734 H   0  0  0  0  0  0  0  0  0  0  0  0
    1.8329  -20.9996  -65.2130 H   0  0  0  0  0  0  0  0  0  0  0  0
   -1.4649  -27.1076  -69.9024 H   0  0  0  0  0  0  0  0  0  0  0  0
    1.4746  -26.3086  -68.0241 H   0  0  0  0  0  0  0  0  0  0  0  0
    0.3151  -26.1095  -66.6708 H   0  0  0  0  0  0  0  0  0  0  0  0
    1.6685  -28.7705  -67.3005 H   0  0  0  0  0  0  0  0  0  0  0  0
    2.3887  -27.5136  -66.1939 H   0  0  0  0  0  0  0  0  0  0  0  0
    1.1689  -28.2913  -64.4876 H   0  0  0  0  0  0  0  0  0  0  0  0
   -0.3373  -27.9734  -65.3821 H   0  0  0  0  0  0  0  0  0  0  0  0
    0.9036  -30.5013  -64.7872 H   0  0  0  0  0  0  0  0  0  0  0  0
   -0.6174  -30.1476  -65.7614 H   0  0  0  0  0  0  0  0  0  0  0  0
    1.0166  -29.7809  -67.7098 H   0  0  0  0  0  0  0  0  0  0  0  0
    2.1584  -30.7555  -66.6711 H   0  0  0  0  0  0  0  0  0  0  0  0
    0.1722  -32.4420  -66.5301 H   0  0  0  0  0  0  0  0  0  0  0  0
   -0.4169  -31.6034  -68.0054 H   0  0  0  0  0  0  0  0  0  0  0  0
    1.1959  -32.3945  -68.0054 H   0  0  0  0  0  0  0  0  0  0  0  0
   -0.5170  -24.1513  -67.2870 H   0  0  0  0  0  0  0  0  0  0  0  0
  1  2  2  0
  1 11  1  0
  2  5  1  0
  2  8  1  0
 19  3  1  0
  3 20  1  0
  4  9  1  0
  4 19  1  0
 12  5  1  0
  6  9  1  0
  6 10  1  0
 10  7  1  0
  7 17  2  0
  7 26  1  0
  8 15  2  0
 10 19  1  0
 11 13  2  0
 12 14  1  0
 12 26  1  0
 13 15  1  0
 14 16  2  0
 14 18  1  0
 20 21  1  0
 21 22  1  0
 22 23  1  0
 23 24  1  0
 24 25  1  0
  1 27  1  0
  3 28  1  0
  3 29  1  0
  4 30  1  0
  4 31  1  0
  5 32  1  0
  5 33  1  0
  6 34  1  0
  6 35  1  0
  8 36  1  0
  9 37  1  0
  9 38  1  0
 10 39  1  1
 11 40  1  0
 12 41  1  1
 13 42  1  0
 15 43  1  0
 19 44  1  6
 20 45  1  0
 20 46  1  0
 21 47  1  0
 21 48  1  0
 22 49  1  0
 22 50  1  0
 23 51  1  0
 23 52  1  0
 24 53  1  0
 24 54  1  0
 25 55  1  0
 25 56  1  0
 25 57  1  0
 26 58  1  0
M  CHG  2  18  -1  19   1
M  END
>  <filename_input>  (21) 
7WY1_D0L_docked.sdf

>  <pdb_id>  (21) 
7WY1_D0L

>  <pose_rank>  (21) 
20

>  <num_atoms_heavy>  (21) 
26

>  <num_torsions>  (21) 
11

>  <pose>  (21) 
[-1.4550091050347689, -24.618487198167873, -69.00110270948657, 0.7424716766817784, -3.3000555402459795, 3.131519895166043, 2.523294630303874, 15.374383372441097, 7.991855617007506, -4.603944369345906, 5.548944686878795, -3.0097116345463992, 2.4889585544080113, 13.783700869232709, -3.7346219515933825, 10.993757418431832, 7.250076325351112]

>  <energy>  (21) 
-287.83389898259156

>  <inter_energy>  (21) 
-349.28645991479607

>  <intra_energy>  (21) 
71.07123887576289

>  <rmsd>  (21) 
8.69788

>  <sdf_rank>  (21) 
0

$$$$

     RDKit          3D

 58 59  0  0  0  0  0  0  0  0999 V2000
   -2.0752  -28.4584  -71.1721 C   0  0  0  0  0  0  0  0  0  0  0  0
   -1.4651  -28.0404  -70.0126 C   0  0  0  0  0  0  0  0  0  0  0  0
   -3.6367  -23.5415  -65.4250 C   0  0  0  0  0  0  0  0  0  0  0  0
   -2.5599  -21.3587  -65.2058 C   0  0  0  0  0  0  0  0  0  0  0  0
   -1.7207  -26.6487  -69.5057 C   0  0  0  0  0  0  0  0  0  0  0  0
   -1.0337  -21.5640  -67.0796 C   0  0  0  0  0  0  0  0  0  0  0  0
   -1.0148  -24.0754  -67.0494 C   0  0  0  0  0  0  0  0  0  0  0  0
   -0.5662  -28.8789  -69.3719 C   0  0  0  0  0  0  0  0  0  0  0  0
   -1.3322  -20.7233  -65.8397 C   0  0  0  0  0  0  0  0  0  0  0  0
   -1.8382  -22.8358  -66.8287 C   0  0  1  0  0  0  0  0  0  0  0  0
   -1.8127  -29.7131  -71.6369 C   0  0  0  0  0  0  0  0  0  0  0  0
   -0.7502  -26.0903  -68.4594 C   0  0  1  0  0  0  0  0  0  0  0  0
   -0.9335  -30.5863  -71.0090 C   0  0  0  0  0  0  0  0  0  0  0  0
    0.6168  -25.8920  -69.0513 C   0  0  0  0  0  0  0  0  0  0  0  0
   -0.3013  -30.1575  -69.8685 C   0  0  0  0  0  0  0  0  0  0  0  0
    0.7600  -24.9764  -69.9067 O   0  0  0  0  0  0  0  0  0  0  0  0
   -0.1166  -24.3272  -66.2453 O   0  0  0  0  0  0  0  0  0  0  0  0
    1.5759  -26.6360  -68.6882 O   0  0  0  0  0  0  0  0  0  0  0  0
   -2.3744  -22.7531  -65.4357 N   0  0  2  0  0  0  0  0  0  0  0  0
   -4.1480  -23.9592  -64.0634 C   0  0  0  0  0  0  0  0  0  0  0  0
   -4.5174  -25.4401  -64.1030 C   0  0  0  0  0  0  0  0  0  0  0  0
   -4.5097  -26.0957  -62.7190 C   0  0  0  0  0  0  0  0  0  0  0  0
   -4.3509  -27.6019  -62.9303 C   0  0  0  0  0  0  0  0  0  0  0  0
   -5.3128  -28.4730  -62.1364 C   0  0  0  0  0  0  0  0  0  0  0  0
   -4.8300  -28.7692  -60.7168 C   0  0  0  0  0  0  0  0  0  0  0  0
   -1.3224  -24.8240  -68.1002 N   0  0  0  0  0  0  0  0  0  0  0  0
   -2.7624  -27.7927  -71.7148 H   0  0  0  0  0  0  0  0  0  0  0  0
   -4.4172  -22.9331  -65.9052 H   0  0  0  0  0  0  0  0  0  0  0  0
   -3.4054  -24.4777  -65.9542 H   0  0  0  0  0  0  0  0  0  0  0  0
   -2.6024  -21.1409  -64.1284 H   0  0  0  0  0  0  0  0  0  0  0  0
   -3.5024  -20.9786  -65.6267 H   0  0  0  0  0  0  0  0  0  0  0  0
   -1.6965  -25.9721  -70.3726 H   0  0  0  0  0  0  0  0  0  0  0  0
   -2.6885  -26.7115  -68.9866 H   0  0  0  0  0  0  0  0  0  0  0  0
   -1.3724  -21.0551  -67.9941 H   0  0  0  0  0  0  0  0  0  0  0  0
    0.0397  -21.7509  -67.2305 H   0  0  0  0  0  0  0  0  0  0  0  0
   -0.0550  -28.5332  -68.4613 H   0  0  0  0  0  0  0  0  0  0  0  0
   -1.5412  -19.6811  -66.1227 H   0  0  0  0  0  0  0  0  0  0  0  0
   -0.4790  -20.7012  -65.1458 H   0  0  0  0  0  0  0  0  0  0  0  0
   -2.6674  -22.9111  -67.5475 H   0  0  0  0  0  0  0  0  0  0  0  0
   -2.3211  -30.0497  -72.5524 H   0  0  0  0  0  0  0  0  0  0  0  0
   -0.6231  -26.7656  -67.6005 H   0  0  0  0  0  0  0  0  0  0  0  0
   -0.7493  -31.5923  -71.4139 H   0  0  0  0  0  0  0  0  0  0  0  0
    0.4095  -30.8167  -69.3486 H   0  0  0  0  0  0  0  0  0  0  0  0
   -1.7717  -23.1356  -64.6931 H   0  0  0  0  0  0  0  0  0  0  0  0
   -3.3645  -23.7947  -63.3091 H   0  0  0  0  0  0  0  0  0  0  0  0
   -5.0339  -23.3625  -63.8005 H   0  0  0  0  0  0  0  0  0  0  0  0
   -5.5255  -25.5387  -64.5319 H   0  0  0  0  0  0  0  0  0  0  0  0
   -3.7594  -25.9522  -64.7139 H   0  0  0  0  0  0  0  0  0  0  0  0
   -3.6696  -25.7084  -62.1237 H   0  0  0  0  0  0  0  0  0  0  0  0
   -5.4415  -25.8744  -62.1781 H   0  0  0  0  0  0  0  0  0  0  0  0
   -4.5033  -27.8135  -63.9989 H   0  0  0  0  0  0  0  0  0  0  0  0
   -3.3426  -27.8556  -62.5711 H   0  0  0  0  0  0  0  0  0  0  0  0
   -6.2819  -27.9562  -62.0748 H   0  0  0  0  0  0  0  0  0  0  0  0
   -5.3892  -29.4363  -62.6620 H   0  0  0  0  0  0  0  0  0  0  0  0
   -5.5352  -28.3366  -59.9919 H   0  0  0  0  0  0  0  0  0  0  0  0
   -4.7733  -29.8577  -60.5684 H   0  0  0  0  0  0  0  0  0  0  0  0
   -3.8340  -28.3265  -60.5684 H   0  0  0  0  0  0  0  0  0  0  0  0
   -2.0520  -24.4561  -68.7274 H   0  0  0  0  0  0  0  0  0  0  0  0
  1  2  2  0
  1 11  1  0
  2  5  1  0
  2  8  1  0
 19  3  1  0
  3 20  1  0
  4  9  1  0
  4 19  1  0
 12  5  1  0
  6  9  1  0
  6 10  1  0
 10  7  1  0
  7 17  2  0
  7 26  1  0
  8 15  2  0
 10 19  1  0
 11 13  2  0
 12 14  1  0
 12 26  1  0
 13 15  1  0
 14 16  2  0
 14 18  1  0
 20 21  1  0
 21 22  1  0
 22 23  1  0
 23 24  1  0
 24 25  1  0
  1 27  1  0
  3 28  1  0
  3 29  1  0
  4 30  1  0
  4 31  1  0
  5 32  1  0
  5 33  1  0
  6 34  1  0
  6 35  1  0
  8 36  1  0
  9 37  1  0
  9 38  1  0
 10 39  1  6
 11 40  1  0
 12 41  1  1
 13 42  1  0
 15 43  1  0
 19 44  1  1
 20 45  1  0
 20 46  1  0
 21 47  1  0
 21 48  1  0
 22 49  1  0
 22 50  1  0
 23 51  1  0
 23 52  1  0
 24 53  1  0
 24 54  1  0
 25 55  1  0
 25 56  1  0
 25 57  1  0
 26 58  1  0
M  CHG  2  18  -1  19   1
M  END
>  <filename_input>  (22) 
7WY1_D0L_docked.sdf

>  <pdb_id>  (22) 
7WY1_D0L

>  <pose_rank>  (22) 
21

>  <num_atoms_heavy>  (22) 
26

>  <num_torsions>  (22) 
11

>  <pose>  (22) 
[-1.0148035258493933, -24.07539335721196, -67.04937106540527, 1.4049217281596138, 4.11795828398939, 0.3125573344973462, 2.7973296201933406, -0.027246513316038234, 1.8524481311725154, -0.5526482114633502, -5.64128124421156, 0.9619422969267226, 3.7364526453968736, 1.3711595018804075, -0.43863601840457644, 0.054336785114110914, -3.9575059023419863]

>  <energy>  (22) 
-495.26861435328806

>  <inter_energy>  (22) 
-514.1447979810717

>  <intra_energy>  (22) 
18.38732104751514

>  <rmsd>  (22) 
5.55604

>  <sdf_rank>  (22) 
0

$$$$

     RDKit          3D

 58 59  0  0  0  0  0  0  0  0999 V2000
   -1.6689  -30.3276  -72.5168 C   0  0  0  0  0  0  0  0  0  0  0  0
   -1.9690  -29.7708  -71.2956 C   0  0  0  0  0  0  0  0  0  0  0  0
   -0.1248  -23.3434  -66.8261 C   0  0  0  0  0  0  0  0  0  0  0  0
   -1.8733  -22.3563  -68.2192 C   0  0  0  0  0  0  0  0  0  0  0  0
   -1.6851  -28.3137  -71.0601 C   0  0  0  0  0  0  0  0  0  0  0  0
   -2.8447  -24.4257  -69.0294 C   0  0  0  0  0  0  0  0  0  0  0  0
   -0.7524  -25.7744  -68.6955 C   0  0  0  0  0  0  0  0  0  0  0  0
   -2.4556  -30.5762  -70.2776 C   0  0  0  0  0  0  0  0  0  0  0  0
   -2.8284  -22.9161  -69.2619 C   0  0  0  0  0  0  0  0  0  0  0  0
   -1.6034  -24.6501  -68.1712 C   0  0  1  0  0  0  0  0  0  0  0  0
   -1.9045  -31.6568  -72.7083 C   0  0  0  0  0  0  0  0  0  0  0  0
   -0.7951  -27.9530  -69.8659 C   0  0  1  0  0  0  0  0  0  0  0  0
   -2.4103  -32.4882  -71.7171 C   0  0  0  0  0  0  0  0  0  0  0  0
    0.6196  -27.7075  -70.3094 C   0  0  0  0  0  0  0  0  0  0  0  0
   -2.6809  -31.9386  -70.4887 C   0  0  0  0  0  0  0  0  0  0  0  0
    0.7973  -27.1473  -71.4252 O   0  0  0  0  0  0  0  0  0  0  0  0
    0.4584  -25.7393  -68.4730 O   0  0  0  0  0  0  0  0  0  0  0  0
    1.5841  -28.0644  -69.5693 O   0  0  0  0  0  0  0  0  0  0  0  0
   -0.8602  -23.3540  -68.1200 N   0  0  2  0  0  0  0  0  0  0  0  0
   -0.9558  -23.0701  -65.5915 C   0  0  0  0  0  0  0  0  0  0  0  0
   -0.7112  -21.6340  -65.1343 C   0  0  0  0  0  0  0  0  0  0  0  0
   -1.7043  -21.1693  -64.0653 C   0  0  0  0  0  0  0  0  0  0  0  0
   -2.9665  -22.0191  -64.2170 C   0  0  0  0  0  0  0  0  0  0  0  0
   -3.7369  -22.2715  -62.9297 C   0  0  0  0  0  0  0  0  0  0  0  0
   -5.0858  -21.5542  -62.8812 C   0  0  0  0  0  0  0  0  0  0  0  0
   -1.3726  -26.7403  -69.3600 N   0  0  0  0  0  0  0  0  0  0  0  0
   -1.2465  -29.7117  -73.3244 H   0  0  0  0  0  0  0  0  0  0  0  0
    0.3497  -24.3279  -66.7010 H   0  0  0  0  0  0  0  0  0  0  0  0
    0.5853  -22.5062  -66.8962 H   0  0  0  0  0  0  0  0  0  0  0  0
   -1.4485  -21.3973  -68.5508 H   0  0  0  0  0  0  0  0  0  0  0  0
   -2.3650  -22.1505  -67.2570 H   0  0  0  0  0  0  0  0  0  0  0  0
   -1.1977  -27.9220  -71.9651 H   0  0  0  0  0  0  0  0  0  0  0  0
   -2.6642  -27.8706  -70.8254 H   0  0  0  0  0  0  0  0  0  0  0  0
   -3.7559  -24.7345  -68.4961 H   0  0  0  0  0  0  0  0  0  0  0  0
   -2.8404  -25.0095  -69.9616 H   0  0  0  0  0  0  0  0  0  0  0  0
   -2.6668  -30.1371  -69.2915 H   0  0  0  0  0  0  0  0  0  0  0  0
   -3.8356  -22.4951  -69.1263 H   0  0  0  0  0  0  0  0  0  0  0  0
   -2.5111  -22.6634  -70.2843 H   0  0  0  0  0  0  0  0  0  0  0  0
   -1.8921  -24.9590  -67.1557 H   0  0  0  0  0  0  0  0  0  0  0  0
   -1.6835  -32.0913  -73.6944 H   0  0  0  0  0  0  0  0  0  0  0  0
   -0.7518  -28.7562  -69.1156 H   0  0  0  0  0  0  0  0  0  0  0  0
   -2.5888  -33.5562  -71.9109 H   0  0  0  0  0  0  0  0  0  0  0  0
   -3.0728  -32.5671  -69.6755 H   0  0  0  0  0  0  0  0  0  0  0  0
   -0.1658  -23.1984  -68.8647 H   0  0  0  0  0  0  0  0  0  0  0  0
   -2.0217  -23.2055  -65.8272 H   0  0  0  0  0  0  0  0  0  0  0  0
   -0.6713  -23.7683  -64.7904 H   0  0  0  0  0  0  0  0  0  0  0  0
    0.3060  -21.5661  -64.7212 H   0  0  0  0  0  0  0  0  0  0  0  0
   -0.8426  -20.9827  -66.0110 H   0  0  0  0  0  0  0  0  0  0  0  0
   -1.2729  -21.3115  -63.0634 H   0  0  0  0  0  0  0  0  0  0  0  0
   -1.9369  -20.1011  -64.1878 H   0  0  0  0  0  0  0  0  0  0  0  0
   -3.6389  -21.5069  -64.9209 H   0  0  0  0  0  0  0  0  0  0  0  0
   -2.6297  -23.0053  -64.5691 H   0  0  0  0  0  0  0  0  0  0  0  0
   -3.9132  -23.3531  -62.8347 H   0  0  0  0  0  0  0  0  0  0  0  0
   -3.1281  -21.8763  -62.1031 H   0  0  0  0  0  0  0  0  0  0  0  0
   -5.3803  -21.3976  -61.8330 H   0  0  0  0  0  0  0  0  0  0  0  0
   -5.0022  -20.5814  -63.3879 H   0  0  0  0  0  0  0  0  0  0  0  0
   -5.8456  -22.1674  -63.3879 H   0  0  0  0  0  0  0  0  0  0  0  0
   -2.3791  -26.6053  -69.5319 H   0  0  0  0  0  0  0  0  0  0  0  0
  1  2  2  0
  1 11  1  0
  2  5  1  0
  2  8  1  0
 19  3  1  0
  3 20  1  0
  4  9  1  0
  4 19  1  0
 12  5  1  0
  6  9  1  0
  6 10  1  0
 10  7  1  0
  7 17  2  0
  7 26  1  0
  8 15  2  0
 10 19  1  0
 11 13  2  0
 12 14  1  0
 12 26  1  0
 13 15  1  0
 14 16  2  0
 14 18  1  0
 20 21  1  0
 21 22  1  0
 22 23  1  0
 23 24  1  0
 24 25  1  0
  1 27  1  0
  3 28  1  0
  3 29  1  0
  4 30  1  0
  4 31  1  0
  5 32  1  0
  5 33  1  0
  6 34  1  0
  6 35  1  0
  8 36  1  0
  9 37  1  0
  9 38  1  0
 10 39  1  1
 11 40  1  0
 12 41  1  1
 13 42  1  0
 15 43  1  0
 19 44  1  6
 20 45  1  0
 20 46  1  0
 21 47  1  0
 21 48  1  0
 22 49  1  0
 22 50  1  0
 23 51  1  0
 23 52  1  0
 24 53  1  0
 24 54  1  0
 25 55  1  0
 25 56  1  0
 25 57  1  0
 26 58  1  0
M  CHG  2  18  -1  19   1
M  END
>  <filename_input>  (23) 
7WY1_D0L_docked.sdf

>  <pdb_id>  (23) 
7WY1_D0L

>  <pose_rank>  (23) 
22

>  <num_atoms_heavy>  (23) 
26

>  <num_torsions>  (23) 
11

>  <pose>  (23) 
[-0.7523508447260316, -25.774365362949926, -68.6955057788703, 1.6812547986405564, 4.428523575130721, -0.8940813544489671, -2.0528584543296287, -10.463161602592706, 2.355911561653095, -0.3529451706853103, 2.983100135949772, -0.39914707531589655, 0.8704207637628514, -4.181774372482227, -1.0193850620894922, 6.897765525722513, -3.272657625633425]

>  <energy>  (23) 
-626.4314510021284

>  <inter_energy>  (23) 
-677.1306691413873

>  <intra_energy>  (23) 
55.22122220004554

>  <rmsd>  (23) 
3.28682

>  <sdf_rank>  (23) 
0

$$$$

     RDKit          3D

 58 59  0  0  0  0  0  0  0  0999 V2000
    0.8240  -26.4481  -67.6917 C   0  0  0  0  0  0  0  0  0  0  0  0
    0.1643  -26.4336  -68.8984 C   0  0  0  0  0  0  0  0  0  0  0  0
   -1.6929  -30.2991  -73.2123 C   0  0  0  0  0  0  0  0  0  0  0  0
   -1.5576  -32.6907  -72.7284 C   0  0  0  0  0  0  0  0  0  0  0  0
   -0.4532  -27.7024  -69.4160 C   0  0  0  0  0  0  0  0  0  0  0  0
   -2.1976  -32.5821  -70.3915 C   0  0  0  0  0  0  0  0  0  0  0  0
   -1.4627  -30.1991  -70.0923 C   0  0  0  0  0  0  0  0  0  0  0  0
    0.1450  -25.2713  -69.6536 C   0  0  0  0  0  0  0  0  0  0  0  0
   -1.5951  -33.5081  -71.4464 C   0  0  0  0  0  0  0  0  0  0  0  0
   -2.0662  -31.2047  -71.0344 C   0  0  1  0  0  0  0  0  0  0  0  0
    1.4045  -25.2974  -67.2468 C   0  0  0  0  0  0  0  0  0  0  0  0
   -1.8543  -28.0621  -68.9099 C   0  0  1  0  0  0  0  0  0  0  0  0
    1.3865  -24.1103  -67.9681 C   0  0  0  0  0  0  0  0  0  0  0  0
   -2.8095  -26.9227  -69.1282 C   0  0  0  0  0  0  0  0  0  0  0  0
    0.7544  -24.1043  -69.1866 C   0  0  0  0  0  0  0  0  0  0  0  0
   -3.3741  -26.8358  -70.2526 O   0  0  0  0  0  0  0  0  0  0  0  0
   -0.2963  -30.3656  -69.7336 O   0  0  0  0  0  0  0  0  0  0  0  0
   -3.0204  -26.0887  -68.1980 O   0  0  0  0  0  0  0  0  0  0  0  0
   -1.2550  -31.3724  -72.2789 N   0  0  2  0  0  0  0  0  0  0  0  0
   -3.1109  -30.4060  -73.7297 C   0  0  0  0  0  0  0  0  0  0  0  0
   -3.0789  -30.5070  -75.2529 C   0  0  0  0  0  0  0  0  0  0  0  0
   -2.7494  -31.9167  -75.7521 C   0  0  0  0  0  0  0  0  0  0  0  0
   -3.8174  -32.2968  -76.7786 C   0  0  0  0  0  0  0  0  0  0  0  0
   -3.8361  -33.7634  -77.1821 C   0  0  0  0  0  0  0  0  0  0  0  0
   -4.4190  -34.0004  -78.5751 C   0  0  0  0  0  0  0  0  0  0  0  0
   -2.2334  -29.1871  -69.7165 N   0  0  0  0  0  0  0  0  0  0  0  0
    0.8821  -27.3712  -67.0963 H   0  0  0  0  0  0  0  0  0  0  0  0
   -1.5982  -29.3373  -72.6870 H   0  0  0  0  0  0  0  0  0  0  0  0
   -1.0469  -30.3950  -74.0975 H   0  0  0  0  0  0  0  0  0  0  0  0
   -0.7766  -33.0624  -73.4080 H   0  0  0  0  0  0  0  0  0  0  0  0
   -2.4989  -32.7427  -73.2952 H   0  0  0  0  0  0  0  0  0  0  0  0
   -0.5094  -27.6192  -70.5115 H   0  0  0  0  0  0  0  0  0  0  0  0
    0.1969  -28.5059  -69.0394 H   0  0  0  0  0  0  0  0  0  0  0  0
   -3.2519  -32.8314  -70.2013 H   0  0  0  0  0  0  0  0  0  0  0  0
   -1.6997  -32.6549  -69.4133 H   0  0  0  0  0  0  0  0  0  0  0  0
   -0.3563  -25.2679  -70.6327 H   0  0  0  0  0  0  0  0  0  0  0  0
   -2.2233  -34.4014  -71.5781 H   0  0  0  0  0  0  0  0  0  0  0  0
   -0.5942  -33.8608  -71.1571 H   0  0  0  0  0  0  0  0  0  0  0  0
   -3.0596  -30.8035  -71.2836 H   0  0  0  0  0  0  0  0  0  0  0  0
    1.9112  -25.3097  -66.2705 H   0  0  0  0  0  0  0  0  0  0  0  0
   -1.8693  -28.2794  -67.8317 H   0  0  0  0  0  0  0  0  0  0  0  0
    1.8650  -23.2015  -67.5742 H   0  0  0  0  0  0  0  0  0  0  0  0
    0.7279  -23.1860  -69.7916 H   0  0  0  0  0  0  0  0  0  0  0  0
   -0.2345  -31.2833  -72.1717 H   0  0  0  0  0  0  0  0  0  0  0  0
   -3.5895  -31.3034  -73.3108 H   0  0  0  0  0  0  0  0  0  0  0  0
   -3.6840  -29.5167  -73.4286 H   0  0  0  0  0  0  0  0  0  0  0  0
   -4.0656  -30.2183  -75.6441 H   0  0  0  0  0  0  0  0  0  0  0  0
   -2.2834  -29.8368  -75.6106 H   0  0  0  0  0  0  0  0  0  0  0  0
   -1.7550  -31.9267  -76.2222 H   0  0  0  0  0  0  0  0  0  0  0  0
   -2.7392  -32.6330  -74.9174 H   0  0  0  0  0  0  0  0  0  0  0  0
   -4.8011  -32.0482  -76.3539 H   0  0  0  0  0  0  0  0  0  0  0  0
   -3.5772  -31.7323  -77.6917 H   0  0  0  0  0  0  0  0  0  0  0  0
   -2.8037  -34.1429  -77.1665 H   0  0  0  0  0  0  0  0  0  0  0  0
   -4.4825  -34.2902  -76.4647 H   0  0  0  0  0  0  0  0  0  0  0  0
   -5.4343  -34.4132  -78.4823 H   0  0  0  0  0  0  0  0  0  0  0  0
   -4.4592  -33.0472  -79.1227 H   0  0  0  0  0  0  0  0  0  0  0  0
   -3.7828  -34.7113  -79.1227 H   0  0  0  0  0  0  0  0  0  0  0  0
   -3.2113  -29.2113  -70.0388 H   0  0  0  0  0  0  0  0  0  0  0  0
  1  2  2  0
  1 11  1  0
  2  5  1  0
  2  8  1  0
 19  3  1  0
  3 20  1  0
  4  9  1  0
  4 19  1  0
 12  5  1  0
  6  9  1  0
  6 10  1  0
 10  7  1  0
  7 17  2  0
  7 26  1  0
  8 15  2  0
 10 19  1  0
 11 13  2  0
 12 14  1  0
 12 26  1  0
 13 15  1  0
 14 16  2  0
 14 18  1  0
 20 21  1  0
 21 22  1  0
 22 23  1  0
 23 24  1  0
 24 25  1  0
  1 27  1  0
  3 28  1  0
  3 29  1  0
  4 30  1  0
  4 31  1  0
  5 32  1  0
  5 33  1  0
  6 34  1  0
  6 35  1  0
  8 36  1  0
  9 37  1  0
  9 38  1  0
 10 39  1  6
 11 40  1  0
 12 41  1  1
 13 42  1  0
 15 43  1  0
 19 44  1  1
 20 45  1  0
 20 46  1  0
 21 47  1  0
 21 48  1  0
 22 49  1  0
 22 50  1  0
 23 51  1  0
 23 52  1  0
 24 53  1  0
 24 54  1  0
 25 55  1  0
 25 56  1  0
 25 57  1  0
 26 58  1  0
M  CHG  2  18  -1  19   1
M  END
>  <filename_input>  (24) 
7WY1_D0L_docked.sdf

>  <pdb_id>  (24) 
7WY1_D0L

>  <pose_rank>  (24) 
23

>  <num_atoms_heavy>  (24) 
26

>  <num_torsions>  (24) 
11

>  <pose>  (24) 
[-1.4626663831838562, -30.199081875305815, -70.09225244843871, -3.009427071309326, 0.6869304769270047, 1.4979949433351167, -9.843814358773894, -54.28927715360683, -35.630979136934926, 16.94778458086897, -19.470120312656224, -5.934408380696995, 8.810945149234716, -7.094704031638064, -0.15850924325477825, -0.17330099780562747, 0.36331338750194214]

>  <energy>  (24) 
-278.6001765824493

>  <inter_energy>  (24) 
-323.1525280415276

>  <intra_energy>  (24) 
39.1854764813609

>  <rmsd>  (24) 
9.23077

>  <sdf_rank>  (24) 
0

$$$$

     RDKit          3D

 58 59  0  0  0  0  0  0  0  0999 V2000
    1.2972  -30.5269  -70.9164 C   0  0  0  0  0  0  0  0  0  0  0  0
    0.4256  -30.2058  -69.9022 C   0  0  0  0  0  0  0  0  0  0  0  0
    1.0679  -25.7440  -68.8455 C   0  0  0  0  0  0  0  0  0  0  0  0
   -0.4663  -23.8458  -68.9676 C   0  0  0  0  0  0  0  0  0  0  0  0
   -1.0466  -30.4403  -70.0938 C   0  0  0  0  0  0  0  0  0  0  0  0
   -2.4827  -25.0948  -69.4741 C   0  0  0  0  0  0  0  0  0  0  0  0
   -1.2630  -27.0471  -70.4786 C   0  0  0  0  0  0  0  0  0  0  0  0
    0.9077  -29.6011  -68.7517 C   0  0  0  0  0  0  0  0  0  0  0  0
   -1.9016  -23.6825  -69.4432 C   0  0  0  0  0  0  0  0  0  0  0  0
   -1.2377  -25.9750  -69.4235 C   0  0  1  0  0  0  0  0  0  0  0  0
    2.6272  -30.2828  -70.7413 C   0  0  0  0  0  0  0  0  0  0  0  0
   -1.8211  -29.4144  -70.9282 C   0  0  1  0  0  0  0  0  0  0  0  0
    3.1465  -29.6973  -69.5936 C   0  0  0  0  0  0  0  0  0  0  0  0
   -3.2448  -29.8528  -71.1260 C   0  0  0  0  0  0  0  0  0  0  0  0
    2.2726  -29.3488  -68.5940 C   0  0  0  0  0  0  0  0  0  0  0  0
   -4.1392  -28.9635  -71.1270 O   0  0  0  0  0  0  0  0  0  0  0  0
   -0.8021  -26.7806  -71.5891 O   0  0  0  0  0  0  0  0  0  0  0  0
   -3.5112  -31.0817  -71.2813 O   0  0  0  0  0  0  0  0  0  0  0  0
   -0.0525  -25.0741  -69.5604 N   0  0  2  0  0  0  0  0  0  0  0  0
    0.7715  -26.2150  -67.4384 C   0  0  0  0  0  0  0  0  0  0  0  0
    1.0908  -25.0886  -66.4585 C   0  0  0  0  0  0  0  0  0  0  0  0
    2.5564  -25.0793  -66.0147 C   0  0  0  0  0  0  0  0  0  0  0  0
    2.7798  -26.3258  -65.1575 C   0  0  0  0  0  0  0  0  0  0  0  0
    3.8737  -26.2031  -64.1074 C   0  0  0  0  0  0  0  0  0  0  0  0
    4.6967  -24.9218  -64.2378 C   0  0  0  0  0  0  0  0  0  0  0  0
   -1.7768  -28.2202  -70.1334 N   0  0  0  0  0  0  0  0  0  0  0  0
    0.9281  -30.9727  -71.8519 H   0  0  0  0  0  0  0  0  0  0  0  0
    1.3679  -26.6212  -69.4376 H   0  0  0  0  0  0  0  0  0  0  0  0
    1.8523  -24.9797  -68.7427 H   0  0  0  0  0  0  0  0  0  0  0  0
    0.1599  -23.0113  -69.3161 H   0  0  0  0  0  0  0  0  0  0  0  0
   -0.3781  -23.8501  -67.8711 H   0  0  0  0  0  0  0  0  0  0  0  0
   -1.1642  -31.4190  -70.5819 H   0  0  0  0  0  0  0  0  0  0  0  0
   -1.4773  -30.3648  -69.0844 H   0  0  0  0  0  0  0  0  0  0  0  0
   -3.1311  -25.2754  -68.6040 H   0  0  0  0  0  0  0  0  0  0  0  0
   -3.1152  -25.2858  -70.3536 H   0  0  0  0  0  0  0  0  0  0  0  0
    0.2068  -29.3163  -67.9532 H   0  0  0  0  0  0  0  0  0  0  0  0
   -2.4683  -23.0485  -68.7454 H   0  0  0  0  0  0  0  0  0  0  0  0
   -1.9528  -23.1977  -70.4293 H   0  0  0  0  0  0  0  0  0  0  0  0
   -1.1911  -26.5158  -68.4668 H   0  0  0  0  0  0  0  0  0  0  0  0
    3.3218  -30.5626  -71.5470 H   0  0  0  0  0  0  0  0  0  0  0  0
   -1.3936  -29.2803  -71.9329 H   0  0  0  0  0  0  0  0  0  0  0  0
    4.2267  -29.5181  -69.4888 H   0  0  0  0  0  0  0  0  0  0  0  0
    2.6448  -28.8737  -67.6743 H   0  0  0  0  0  0  0  0  0  0  0  0
    0.2688  -24.8884  -70.5212 H   0  0  0  0  0  0  0  0  0  0  0  0
   -0.2918  -26.4847  -67.3563 H   0  0  0  0  0  0  0  0  0  0  0  0
    1.3870  -27.0962  -67.2045 H   0  0  0  0  0  0  0  0  0  0  0  0
    0.8653  -24.1274  -66.9437 H   0  0  0  0  0  0  0  0  0  0  0  0
    0.4761  -25.2494  -65.5606 H   0  0  0  0  0  0  0  0  0  0  0  0
    3.2163  -25.1042  -66.8945 H   0  0  0  0  0  0  0  0  0  0  0  0
    2.7845  -24.1676  -65.4432 H   0  0  0  0  0  0  0  0  0  0  0  0
    1.8366  -26.5569  -64.6408 H   0  0  0  0  0  0  0  0  0  0  0  0
    3.1078  -27.1163  -65.8486 H   0  0  0  0  0  0  0  0  0  0  0  0
    3.4053  -26.2174  -63.1122 H   0  0  0  0  0  0  0  0  0  0  0  0
    4.5620  -27.0485  -64.2540 H   0  0  0  0  0  0  0  0  0  0  0  0
    4.9419  -24.5399  -63.2358 H   0  0  0  0  0  0  0  0  0  0  0  0
    5.6259  -25.1370  -64.7858 H   0  0  0  0  0  0  0  0  0  0  0  0
    4.1145  -24.1662  -64.7858 H   0  0  0  0  0  0  0  0  0  0  0  0
   -2.1894  -28.2808  -69.1916 H   0  0  0  0  0  0  0  0  0  0  0  0
  1  2  2  0
  1 11  1  0
  2  5  1  0
  2  8  1  0
 19  3  1  0
  3 20  1  0
  4  9  1  0
  4 19  1  0
 12  5  1  0
  6  9  1  0
  6 10  1  0
 10  7  1  0
  7 17  2  0
  7 26  1  0
  8 15  2  0
 10 19  1  0
 11 13  2  0
 12 14  1  0
 12 26  1  0
 13 15  1  0
 14 16  2  0
 14 18  1  0
 20 21  1  0
 21 22  1  0
 22 23  1  0
 23 24  1  0
 24 25  1  0
  1 27  1  0
  3 28  1  0
  3 29  1  0
  4 30  1  0
  4 31  1  0
  5 32  1  0
  5 33  1  0
  6 34  1  0
  6 35  1  0
  8 36  1  0
  9 37  1  0
  9 38  1  0
 10 39  1  1
 11 40  1  0
 12 41  1  6
 13 42  1  0
 15 43  1  0
 19 44  1  6
 20 45  1  0
 20 46  1  0
 21 47  1  0
 21 48  1  0
 22 49  1  0
 22 50  1  0
 23 51  1  0
 23 52  1  0
 24 53  1  0
 24 54  1  0
 25 55  1  0
 25 56  1  0
 25 57  1  0
 26 58  1  0
M  CHG  2  18  -1  19   1
M  END
>  <filename_input>  (25) 
7WY1_D0L_docked.sdf

>  <pdb_id>  (25) 
7WY1_D0L

>  <pose_rank>  (25) 
24

>  <num_atoms_heavy>  (25) 
26

>  <num_torsions>  (25) 
11

>  <pose>  (25) 
[-1.2630178859553627, -27.047106159553696, -70.47855011295299, 0.8522458897913617, 0.692926904887717, -5.41610754455775, -3.16368858743415, -3.7341659977425294, 2.6084715820488715, -4.812699943922388, -4.064568359441686, 0.6283689091522926, -1.2153767111910245, 0.5895387677631442, 0.8570334766686821, -4.337852268640949, 3.803273851607786]

>  <energy>  (25) 
-429.112229886753

>  <inter_energy>  (25) 
-446.28209216556326

>  <intra_energy>  (25) 
18.028347907917976

>  <rmsd>  (25) 
4.58822

>  <sdf_rank>  (25) 
0

$$$$

     RDKit          3D

 58 59  0  0  0  0  0  0  0  0999 V2000
   -1.9230  -30.9950  -73.1190 C   0  0  0  0  0  0  0  0  0  0  0  0
   -1.9440  -31.1250  -71.7500 C   0  0  0  0  0  0  0  0  0  0  0  0
   -0.2230  -24.8180  -68.6540 C   0  0  0  0  0  0  0  0  0  0  0  0
    0.9670  -26.2240  -67.0480 C   0  0  0  0  0  0  0  0  0  0  0  0
   -1.2560  -30.0930  -70.9010 C   0  0  0  0  0  0  0  0  0  0  0  0
    1.9780  -27.7470  -68.6420 C   0  0  0  0  0  0  0  0  0  0  0  0
    0.2420  -27.3630  -70.4160 C   0  0  0  0  0  0  0  0  0  0  0  0
   -2.5310  -32.2430  -71.1780 C   0  0  0  0  0  0  0  0  0  0  0  0
    1.6970  -27.5540  -67.1530 C   0  0  0  0  0  0  0  0  0  0  0  0
    1.0350  -26.7430  -69.2980 C   0  0  1  0  0  0  0  0  0  0  0  0
   -2.5260  -31.9530  -73.8790 C   0  0  0  0  0  0  0  0  0  0  0  0
   -1.7930  -28.6590  -70.9610 C   0  0  1  0  0  0  0  0  0  0  0  0
   -3.1410  -33.0750  -73.3380 C   0  0  0  0  0  0  0  0  0  0  0  0
   -3.2030  -28.5950  -70.4450 C   0  0  0  0  0  0  0  0  0  0  0  0
   -3.1350  -33.2200  -71.9730 C   0  0  0  0  0  0  0  0  0  0  0  0
   -3.3720  -28.2980  -69.2310 O   0  0  0  0  0  0  0  0  0  0  0  0
    0.7110  -27.3210  -71.5540 O   0  0  0  0  0  0  0  0  0  0  0  0
   -4.1720  -28.8390  -71.2240 O   0  0  0  0  0  0  0  0  0  0  0  0
    0.1580  -26.1900  -68.2210 N   0  0  2  0  0  0  0  0  0  0  0  0
   -1.3990  -24.1960  -67.9330 C   0  0  0  0  0  0  0  0  0  0  0  0
   -0.9470  -22.8960  -67.2720 C   0  0  0  0  0  0  0  0  0  0  0  0
   -2.0050  -22.3000  -66.3390 C   0  0  0  0  0  0  0  0  0  0  0  0
   -1.3070  -21.2530  -65.4700 C   0  0  0  0  0  0  0  0  0  0  0  0
   -2.2300  -20.4110  -64.6020 C   0  0  0  0  0  0  0  0  0  0  0  0
   -3.0320  -21.2350  -63.5950 C   0  0  0  0  0  0  0  0  0  0  0  0
   -0.9150  -27.9260  -70.0940 N   0  0  0  0  0  0  0  0  0  0  0  0
   -1.4287  -30.1338  -73.5922 H   0  0  0  0  0  0  0  0  0  0  0  0
    0.6483  -24.1637  -68.5032 H   0  0  0  0  0  0  0  0  0  0  0  0
   -0.5373  -24.9155  -69.7036 H   0  0  0  0  0  0  0  0  0  0  0  0
    0.3452  -26.1882  -66.1413 H   0  0  0  0  0  0  0  0  0  0  0  0
    1.6517  -25.3660  -66.9769 H   0  0  0  0  0  0  0  0  0  0  0  0
   -1.3240  -30.4274  -69.8553 H   0  0  0  0  0  0  0  0  0  0  0  0
   -0.2359  -30.0288  -71.3075 H   0  0  0  0  0  0  0  0  0  0  0  0
    3.0274  -27.5186  -68.8798 H   0  0  0  0  0  0  0  0  0  0  0  0
    1.8197  -28.7804  -68.9842 H   0  0  0  0  0  0  0  0  0  0  0  0
   -2.5210  -32.3623  -70.0845 H   0  0  0  0  0  0  0  0  0  0  0  0
    2.6384  -27.5221  -66.5848 H   0  0  0  0  0  0  0  0  0  0  0  0
    1.1015  -28.3809  -66.7389 H   0  0  0  0  0  0  0  0  0  0  0  0
    1.6091  -25.9319  -69.7697 H   0  0  0  0  0  0  0  0  0  0  0  0
   -2.5255  -31.8317  -74.9723 H   0  0  0  0  0  0  0  0  0  0  0  0
   -1.8179  -28.2615  -71.9864 H   0  0  0  0  0  0  0  0  0  0  0  0
   -3.6190  -33.8255  -73.9847 H   0  0  0  0  0  0  0  0  0  0  0  0
   -3.6030  -34.1002  -71.5080 H   0  0  0  0  0  0  0  0  0  0  0  0
   -0.7157  -26.7037  -68.0377 H   0  0  0  0  0  0  0  0  0  0  0  0
   -2.2025  -23.9832  -68.6535 H   0  0  0  0  0  0  0  0  0  0  0  0
   -1.7747  -24.8907  -67.1673 H   0  0  0  0  0  0  0  0  0  0  0  0
   -0.0375  -23.0979  -66.6871 H   0  0  0  0  0  0  0  0  0  0  0  0
   -0.7657  -22.1649  -68.0736 H   0  0  0  0  0  0  0  0  0  0  0  0
   -2.8040  -21.8274  -66.9291 H   0  0  0  0  0  0  0  0  0  0  0  0
   -2.4598  -23.0835  -65.7151 H   0  0  0  0  0  0  0  0  0  0  0  0
   -0.6011  -21.7761  -64.8081 H   0  0  0  0  0  0  0  0  0  0  0  0
   -0.8212  -20.5536  -66.1663 H   0  0  0  0  0  0  0  0  0  0  0  0
   -1.6199  -19.6816  -64.0490 H   0  0  0  0  0  0  0  0  0  0  0  0
   -2.9527  -19.9235  -65.2728 H   0  0  0  0  0  0  0  0  0  0  0  0
   -2.7478  -20.9430  -62.5732 H   0  0  0  0  0  0  0  0  0  0  0  0
   -4.1063  -21.0511  -63.7435 H   0  0  0  0  0  0  0  0  0  0  0  0
   -2.8191  -22.3039  -63.7435 H   0  0  0  0  0  0  0  0  0  0  0  0
   -1.2165  -27.8262  -69.1142 H   0  0  0  0  0  0  0  0  0  0  0  0
  1  2  2  0
  1 11  1  0
  2  5  1  0
  2  8  1  0
 19  3  1  0
  3 20  1  0
  4  9  1  0
  4 19  1  0
 12  5  1  0
  6  9  1  0
  6 10  1  0
 10  7  1  0
  7 17  2  0
  7 26  1  0
  8 15  2  0
 10 19  1  0
 11 13  2  0
 12 14  1  0
 12 26  1  0
 13 15  1  0
 14 16  2  0
 14 18  1  0
 20 21  1  0
 21 22  1  0
 22 23  1  0
 23 24  1  0
 24 25  1  0
  1 27  1  0
  3 28  1  0
  3 29  1  0
  4 30  1  0
  4 31  1  0
  5 32  1  0
  5 33  1  0
  6 34  1  0
  6 35  1  0
  8 36  1  0
  9 37  1  0
  9 38  1  0
 10 39  1  6
 11 40  1  0
 12 41  1  6
 13 42  1  0
 15 43  1  0
 19 44  1  1
 20 45  1  0
 20 46  1  0
 21 47  1  0
 21 48  1  0
 22 49  1  0
 22 50  1  0
 23 51  1  0
 23 52  1  0
 24 53  1  0
 24 54  1  0
 25 55  1  0
 25 56  1  0
 25 57  1  0
 26 58  1  0
M  CHG  2  18  -1  19   1
M  END
>  <filename_input>  (26) 
7WY1_D0L_docked.sdf

>  <pdb_id>  (26) 
7WY1_D0L

>  <pose_rank>  (26) 
25

>  <num_atoms_heavy>  (26) 
26

>  <num_torsions>  (26) 
11

>  <pose>  (26) 
[0.242, -27.363, -70.416, 1e-06, 1e-06, 1e-06, 0.0, 0.0, 0.0, 0.0, 0.0, 0.0, 0.0, 0.0, 0.0, 0.0, 0.0]

>  <energy>  (26) 
-848.6457236498128

>  <inter_energy>  (26) 
-859.107611253219

>  <intra_energy>  (26) 
5.847618038801995

>  <rmsd>  (26) 
0.0

>  <sdf_rank>  (26) 
0

$$$$
