
     RDKit          3D

 54 57  0  0  0  0  0  0  0  0999 V2000
   79.4200   46.8484   53.9122 C   0  0  0  0  0  0  0  0  0  0  0  0
   80.6389   47.7695   53.7611 C   0  0  0  0  0  0  0  0  0  0  0  0
   81.4733   47.7589   52.6491 C   0  0  0  0  0  0  0  0  0  0  0  0
   81.0761   50.5868   56.8908 C   0  0  2  0  0  0  0  0  0  0  0  0
   79.8277   51.3504   56.4192 C   0  0  0  0  0  0  0  0  0  0  0  0
   81.5503   51.2189   58.2091 C   0  0  0  0  0  0  0  0  0  0  0  0
   80.8992   48.6535   54.7924 C   0  0  0  0  0  0  0  0  0  0  0  0
   82.5369   48.6543   52.5870 C   0  0  0  0  0  0  0  0  0  0  0  0
   83.4859   48.6629   51.3872 C   0  0  0  0  0  0  0  0  0  0  0  0
   83.1576   48.0832   50.2608 C   0  0  0  0  0  0  0  0  0  0  0  0
   84.1389   48.1001   49.0897 C   0  0  0  0  0  0  0  0  0  0  0  0
   85.3093   48.6890   49.2050 C   0  0  0  0  0  0  0  0  0  0  0  0
   85.6921   49.3556   50.5182 C   0  0  0  0  0  0  0  0  0  0  0  0
   84.8412   49.3424   51.5212 C   0  0  0  0  0  0  0  0  0  0  0  0
   82.7865   49.5392   53.6277 C   0  0  0  0  0  0  0  0  0  0  0  0
   81.9546   49.5547   54.7362 C   0  0  0  0  0  0  0  0  0  0  0  0
   82.2411   50.5108   55.8719 C   0  0  1  0  0  0  0  0  0  0  0  0
   82.6507   51.9295   55.3387 C   0  0  0  0  0  0  0  0  0  0  0  0
   82.2224   52.8003   54.4328 C   0  0  0  0  0  0  0  0  0  0  0  0
   81.0095   52.6643   53.5006 C   0  0  0  0  0  0  0  0  0  0  0  0
   83.8683   52.5457   55.9491 C   0  0  0  0  0  0  0  0  0  0  0  0
   84.6224   50.7038   57.0437 C   0  0  0  0  0  0  0  0  0  0  0  0
   83.4425   49.9115   56.6509 C   0  0  0  0  0  0  0  0  0  0  0  0
   83.5272   48.4005   56.7826 C   0  0  0  0  0  0  0  0  0  0  0  0
   82.9754   53.8764   54.3786 N   0  0  0  0  0  0  0  0  0  0  0  0
   84.0222   53.7903   55.2725 N   0  0  0  0  0  0  0  0  0  0  0  0
   85.4698   50.1777   58.0925 N   0  0  0  0  0  0  0  0  0  0  0  0
   83.5903   47.2774   56.8071 N   0  0  0  0  0  0  0  0  0  0  0  0
   78.8043   46.5860   52.6955 O   0  0  0  0  0  0  0  0  0  0  0  0
   84.6378   52.0113   56.9199 O   0  0  0  0  0  0  0  0  0  0  0  0
   79.7485   45.8966   54.3552 H   0  0  0  0  0  0  0  0  0  0  0  0
   78.6893   47.3598   54.5560 H   0  0  0  0  0  0  0  0  0  0  0  0
   81.2947   47.0502   51.8270 H   0  0  0  0  0  0  0  0  0  0  0  0
   80.7727   49.5376   57.0210 H   0  0  0  0  0  0  0  0  0  0  0  0
   79.2587   51.6985   57.2938 H   0  0  0  0  0  0  0  0  0  0  0  0
   80.1343   52.2157   55.8132 H   0  0  0  0  0  0  0  0  0  0  0  0
   79.1971   50.6833   55.8132 H   0  0  0  0  0  0  0  0  0  0  0  0
   81.1296   50.6581   59.0568 H   0  0  0  0  0  0  0  0  0  0  0  0
   82.6488   51.1865   58.2570 H   0  0  0  0  0  0  0  0  0  0  0  0
   81.2119   52.2645   58.2570 H   0  0  0  0  0  0  0  0  0  0  0  0
   80.2523   48.6426   55.6820 H   0  0  0  0  0  0  0  0  0  0  0  0
   82.1813   47.5869   50.1577 H   0  0  0  0  0  0  0  0  0  0  0  0
   83.8640   47.6152   48.1414 H   0  0  0  0  0  0  0  0  0  0  0  0
   86.0084   48.6996   48.3557 H   0  0  0  0  0  0  0  0  0  0  0  0
   86.6716   49.8441   50.6278 H   0  0  0  0  0  0  0  0  0  0  0  0
   85.1128   49.8291   52.4695 H   0  0  0  0  0  0  0  0  0  0  0  0
   83.6433   50.2269   53.5725 H   0  0  0  0  0  0  0  0  0  0  0  0
   80.0943   52.5617   54.1022 H   0  0  0  0  0  0  0  0  0  0  0  0
   80.9326   53.5595   52.8659 H   0  0  0  0  0  0  0  0  0  0  0  0
   81.1327   51.7744   52.8659 H   0  0  0  0  0  0  0  0  0  0  0  0
   84.7666   54.4865   55.4213 H   0  0  0  0  0  0  0  0  0  0  0  0
   86.3029   50.7032   58.3937 H   0  0  0  0  0  0  0  0  0  0  0  0
   85.2398   49.2778   58.5378 H   0  0  0  0  0  0  0  0  0  0  0  0
   77.9057   46.2029   52.8562 H   0  0  0  0  0  0  0  0  0  0  0  0
  1  2  1  0
  1 29  1  0
  2  3  2  0
  2  7  1  0
  3  8  1  0
  4  5  1  0
  4  6  1  0
 17  4  1  0
  7 16  2  0
  8  9  1  0
  8 15  2  0
  9 10  2  0
  9 14  1  0
 10 11  1  0
 11 12  2  0
 12 13  1  0
 13 14  2  0
 15 16  1  0
 17 16  1  6
 17 18  1  0
 17 23  1  0
 18 19  1  0
 18 21  2  0
 19 20  1  0
 19 25  2  0
 21 26  1  0
 21 30  1  0
 22 23  2  0
 22 27  1  0
 22 30  1  0
 23 24  1  0
 24 28  3  0
 25 26  1  0
  1 31  1  0
  1 32  1  0
  3 33  1  0
  4 34  1  1
  5 35  1  0
  5 36  1  0
  5 37  1  0
  6 38  1  0
  6 39  1  0
  6 40  1  0
  7 41  1  0
 10 42  1  0
 11 43  1  0
 12 44  1  0
 13 45  1  0
 14 46  1  0
 15 47  1  0
 20 48  1  0
 20 49  1  0
 20 50  1  0
 26 51  1  0
 27 52  1  0
 27 53  1  0
 29 54  1  0
M  END
>  <filename_input>  (1) 
7X5N_5M5_docked.sdf

>  <pdb_id>  (1) 
7X5N_5M5

>  <pose_rank>  (1) 
0

>  <num_atoms_heavy>  (1) 
30

>  <num_torsions>  (1) 
5

>  <pose>  (1) 
[82.24114297370599, 50.51081859021745, 55.87187220738063, 3.71609239847553, -2.3702445181819125, -4.291457419754694, 0.008536276768414537, -0.27892408532035845, -7.117947182378197, -0.11617859785617665, 2.6927657702803045]

>  <energy>  (1) 
-916.8283872268994

>  <inter_energy>  (1) 
-950.1271873907638

>  <intra_energy>  (1) 
44.41898771523307

>  <rmsd>  (1) 
0.394747

>  <sdf_rank>  (1) 
0

$$$$

     RDKit          3D

 54 57  0  0  0  0  0  0  0  0999 V2000
   85.5222   48.8846   51.8629 C   0  0  0  0  0  0  0  0  0  0  0  0
   84.1490   48.8445   52.5481 C   0  0  0  0  0  0  0  0  0  0  0  0
   83.0564   48.1558   52.0335 C   0  0  0  0  0  0  0  0  0  0  0  0
   81.2870   50.0884   56.4080 C   0  0  2  0  0  0  0  0  0  0  0  0
   80.0839   50.4743   55.5319 C   0  0  0  0  0  0  0  0  0  0  0  0
   81.1881   50.8747   57.7248 C   0  0  0  0  0  0  0  0  0  0  0  0
   84.0143   49.5294   53.7421 C   0  0  0  0  0  0  0  0  0  0  0  0
   81.8590   48.1501   52.7429 C   0  0  0  0  0  0  0  0  0  0  0  0
   80.6304   47.4166   52.2020 C   0  0  0  0  0  0  0  0  0  0  0  0
   80.4406   47.2726   50.9151 C   0  0  0  0  0  0  0  0  0  0  0  0
   79.1931   46.5468   50.4133 C   0  0  0  0  0  0  0  0  0  0  0  0
   78.3093   46.0688   51.2620 C   0  0  0  0  0  0  0  0  0  0  0  0
   78.5282   46.2442   52.7575 C   0  0  0  0  0  0  0  0  0  0  0  0
   79.6065   46.8653   53.1839 C   0  0  0  0  0  0  0  0  0  0  0  0
   81.7368   48.8394   53.9422 C   0  0  0  0  0  0  0  0  0  0  0  0
   82.8251   49.5241   54.4598 C   0  0  0  0  0  0  0  0  0  0  0  0
   82.6804   50.2843   55.7587 C   0  0  1  0  0  0  0  0  0  0  0  0
   83.0378   51.8023   55.5785 C   0  0  0  0  0  0  0  0  0  0  0  0
   82.7605   52.7831   54.7280 C   0  0  0  0  0  0  0  0  0  0  0  0
   81.8640   52.7195   53.4826 C   0  0  0  0  0  0  0  0  0  0  0  0
   83.9646   52.3943   56.5912 C   0  0  0  0  0  0  0  0  0  0  0  0
   84.6237   50.4526   57.5686 C   0  0  0  0  0  0  0  0  0  0  0  0
   83.6971   49.6526   56.7467 C   0  0  0  0  0  0  0  0  0  0  0  0
   83.9300   48.1532   56.6718 C   0  0  0  0  0  0  0  0  0  0  0  0
   83.3620   53.9073   55.0478 N   0  0  0  0  0  0  0  0  0  0  0  0
   84.1372   53.7468   56.1773 N   0  0  0  0  0  0  0  0  0  0  0  0
   85.2215   49.8176   58.7237 N   0  0  0  0  0  0  0  0  0  0  0  0
   84.1285   47.0527   56.5487 N   0  0  0  0  0  0  0  0  0  0  0  0
   85.6639   47.8856   50.9088 O   0  0  0  0  0  0  0  0  0  0  0  0
   84.5097   51.7587   57.6491 O   0  0  0  0  0  0  0  0  0  0  0  0
   85.6447   49.8619   51.3730 H   0  0  0  0  0  0  0  0  0  0  0  0
   86.2887   48.7238   52.6353 H   0  0  0  0  0  0  0  0  0  0  0  0
   83.1375   47.6209   51.0757 H   0  0  0  0  0  0  0  0  0  0  0  0
   81.2232   49.0021   56.5692 H   0  0  0  0  0  0  0  0  0  0  0  0
   79.2344   50.7469   56.1753 H   0  0  0  0  0  0  0  0  0  0  0  0
   80.3527   51.3313   54.8969 H   0  0  0  0  0  0  0  0  0  0  0  0
   79.8040   49.6209   54.8969 H   0  0  0  0  0  0  0  0  0  0  0  0
   81.2754   50.1807   58.5738 H   0  0  0  0  0  0  0  0  0  0  0  0
   82.0001   51.6153   57.7716 H   0  0  0  0  0  0  0  0  0  0  0  0
   80.2179   51.3910   57.7716 H   0  0  0  0  0  0  0  0  0  0  0  0
   84.8729   50.0940   54.1344 H   0  0  0  0  0  0  0  0  0  0  0  0
   81.1744   47.6715   50.1993 H   0  0  0  0  0  0  0  0  0  0  0  0
   79.0327   46.4229   49.3321 H   0  0  0  0  0  0  0  0  0  0  0  0
   77.4158   45.5444   50.8922 H   0  0  0  0  0  0  0  0  0  0  0  0
   77.7913   45.8552   53.4757 H   0  0  0  0  0  0  0  0  0  0  0  0
   79.7704   46.9880   54.2647 H   0  0  0  0  0  0  0  0  0  0  0  0
   80.7776   48.8419   54.4808 H   0  0  0  0  0  0  0  0  0  0  0  0
   80.8111   52.6448   53.7921 H   0  0  0  0  0  0  0  0  0  0  0  0
   82.0058   53.6300   52.8818 H   0  0  0  0  0  0  0  0  0  0  0  0
   82.1330   51.8382   52.8818 H   0  0  0  0  0  0  0  0  0  0  0  0
   84.7236   54.4617   56.6309 H   0  0  0  0  0  0  0  0  0  0  0  0
   85.8737   50.3450   59.3215 H   0  0  0  0  0  0  0  0  0  0  0  0
   84.9949   48.8381   58.9478 H   0  0  0  0  0  0  0  0  0  0  0  0
   85.7876   47.0133   51.3602 H   0  0  0  0  0  0  0  0  0  0  0  0
  1  2  1  0
  1 29  1  0
  2  3  2  0
  2  7  1  0
  3  8  1  0
  4  5  1  0
  4  6  1  0
 17  4  1  0
  7 16  2  0
  8  9  1  0
  8 15  2  0
  9 10  2  0
  9 14  1  0
 10 11  1  0
 11 12  2  0
 12 13  1  0
 13 14  2  0
 15 16  1  0
 17 16  1  6
 17 18  1  0
 17 23  1  0
 18 19  1  0
 18 21  2  0
 19 20  1  0
 19 25  2  0
 21 26  1  0
 21 30  1  0
 22 23  2  0
 22 27  1  0
 22 30  1  0
 23 24  1  0
 24 28  3  0
 25 26  1  0
  1 31  1  0
  1 32  1  0
  3 33  1  0
  4 34  1  1
  5 35  1  0
  5 36  1  0
  5 37  1  0
  6 38  1  0
  6 39  1  0
  6 40  1  0
  7 41  1  0
 10 42  1  0
 11 43  1  0
 12 44  1  0
 13 45  1  0
 14 46  1  0
 15 47  1  0
 20 48  1  0
 20 49  1  0
 20 50  1  0
 26 51  1  0
 27 52  1  0
 27 53  1  0
 29 54  1  0
M  END
>  <filename_input>  (2) 
7X5N_5M5_docked.sdf

>  <pdb_id>  (2) 
7X5N_5M5

>  <pose_rank>  (2) 
1

>  <num_atoms_heavy>  (2) 
30

>  <num_torsions>  (2) 
5

>  <pose>  (2) 
[82.68035586801102, 50.28430423474921, 55.7586883419721, 0.07100224798518331, -0.23918670827718913, 0.18624422333079196, -2.8645749498451263, -1.0844790698800395, -0.5459383197067705, 0.17322595930127363, 2.7793269940510568]

>  <energy>  (2) 
-724.5979109470829

>  <inter_energy>  (2) 
-773.5678996618212

>  <intra_energy>  (2) 
55.52425081587575

>  <rmsd>  (2) 
3.42406

>  <sdf_rank>  (2) 
0

$$$$

     RDKit          3D

 54 57  0  0  0  0  0  0  0  0999 V2000
   82.0773   53.2105   52.0607 C   0  0  0  0  0  0  0  0  0  0  0  0
   82.7272   51.8437   52.3183 C   0  0  0  0  0  0  0  0  0  0  0  0
   83.7267   51.3076   51.5144 C   0  0  0  0  0  0  0  0  0  0  0  0
   83.3945   48.1029   55.4739 C   0  0  2  0  0  0  0  0  0  0  0  0
   83.1604   46.6358   55.0781 C   0  0  0  0  0  0  0  0  0  0  0  0
   83.4992   48.1712   57.0058 C   0  0  0  0  0  0  0  0  0  0  0  0
   82.2867   51.1274   53.4164 C   0  0  0  0  0  0  0  0  0  0  0  0
   84.2791   50.0738   51.8458 C   0  0  0  0  0  0  0  0  0  0  0  0
   85.3698   49.4441   50.9776 C   0  0  0  0  0  0  0  0  0  0  0  0
   86.4795   48.9944   51.5060 C   0  0  0  0  0  0  0  0  0  0  0  0
   87.5520   48.3857   50.6038 C   0  0  0  0  0  0  0  0  0  0  0  0
   87.3706   48.3125   49.3031 C   0  0  0  0  0  0  0  0  0  0  0  0
   86.0830   48.8432   48.6901 C   0  0  0  0  0  0  0  0  0  0  0  0
   85.1611   49.3613   49.4723 C   0  0  0  0  0  0  0  0  0  0  0  0
   83.8303   49.3652   52.9526 C   0  0  0  0  0  0  0  0  0  0  0  0
   82.8364   49.8984   53.7581 C   0  0  0  0  0  0  0  0  0  0  0  0
   82.3426   49.1146   54.9530 C   0  0  1  0  0  0  0  0  0  0  0  0
   80.9612   48.4290   54.6591 C   0  0  0  0  0  0  0  0  0  0  0  0
   80.4077   47.7089   53.6910 C   0  0  0  0  0  0  0  0  0  0  0  0
   81.0531   47.2541   52.3737 C   0  0  0  0  0  0  0  0  0  0  0  0
   79.8981   48.5987   55.6963 C   0  0  0  0  0  0  0  0  0  0  0  0
   80.9289   50.2073   56.9249 C   0  0  0  0  0  0  0  0  0  0  0  0
   82.1478   50.1450   56.0974 C   0  0  0  0  0  0  0  0  0  0  0  0
   83.1320   51.2979   56.1969 C   0  0  0  0  0  0  0  0  0  0  0  0
   79.1605   47.3895   53.9562 N   0  0  0  0  0  0  0  0  0  0  0  0
   78.7651   47.9144   55.1688 N   0  0  0  0  0  0  0  0  0  0  0  0
   81.0085   50.9017   58.1924 N   0  0  0  0  0  0  0  0  0  0  0  0
   83.8039   52.1975   56.2678 N   0  0  0  0  0  0  0  0  0  0  0  0
   81.5346   53.7612   53.2143 O   0  0  0  0  0  0  0  0  0  0  0  0
   80.0134   49.2676   56.8623 O   0  0  0  0  0  0  0  0  0  0  0  0
   82.8412   53.8968   51.6665 H   0  0  0  0  0  0  0  0  0  0  0  0
   81.2591   53.0639   51.3404 H   0  0  0  0  0  0  0  0  0  0  0  0
   84.0774   51.8527   50.6257 H   0  0  0  0  0  0  0  0  0  0  0  0
   84.3267   48.4167   54.9813 H   0  0  0  0  0  0  0  0  0  0  0  0
   83.0625   46.0223   55.9859 H   0  0  0  0  0  0  0  0  0  0  0  0
   82.2387   46.5593   54.4826 H   0  0  0  0  0  0  0  0  0  0  0  0
   84.0125   46.2762   54.4826 H   0  0  0  0  0  0  0  0  0  0  0  0
   82.6586   47.6225   57.4556 H   0  0  0  0  0  0  0  0  0  0  0  0
   84.4479   47.7180   57.3291 H   0  0  0  0  0  0  0  0  0  0  0  0
   83.4660   49.2221   57.3291 H   0  0  0  0  0  0  0  0  0  0  0  0
   81.4785   51.5425   54.0364 H   0  0  0  0  0  0  0  0  0  0  0  0
   86.6391   49.0541   52.5928 H   0  0  0  0  0  0  0  0  0  0  0  0
   88.4845   48.0053   51.0461 H   0  0  0  0  0  0  0  0  0  0  0  0
   88.1464   47.8695   48.6613 H   0  0  0  0  0  0  0  0  0  0  0  0
   85.9246   48.7939   47.6027 H   0  0  0  0  0  0  0  0  0  0  0  0
   84.2266   49.7399   49.0325 H   0  0  0  0  0  0  0  0  0  0  0  0
   84.2630   48.3820   53.1896 H   0  0  0  0  0  0  0  0  0  0  0  0
   81.9344   46.6331   52.5924 H   0  0  0  0  0  0  0  0  0  0  0  0
   80.3263   46.6675   51.7926 H   0  0  0  0  0  0  0  0  0  0  0  0
   81.3610   48.1359   51.7926 H   0  0  0  0  0  0  0  0  0  0  0  0
   77.8363   47.8287   55.6058 H   0  0  0  0  0  0  0  0  0  0  0  0
   80.1775   50.9658   58.7975 H   0  0  0  0  0  0  0  0  0  0  0  0
   81.8961   51.3317   58.4892 H   0  0  0  0  0  0  0  0  0  0  0  0
   81.9499   53.3398   54.0081 H   0  0  0  0  0  0  0  0  0  0  0  0
  1  2  1  0
  1 29  1  0
  2  3  2  0
  2  7  1  0
  3  8  1  0
  4  5  1  0
  4  6  1  0
 17  4  1  0
  7 16  2  0
  8  9  1  0
  8 15  2  0
  9 10  2  0
  9 14  1  0
 10 11  1  0
 11 12  2  0
 12 13  1  0
 13 14  2  0
 15 16  1  0
 17 16  1  6
 17 18  1  0
 17 23  1  0
 18 19  1  0
 18 21  2  0
 19 20  1  0
 19 25  2  0
 21 26  1  0
 21 30  1  0
 22 23  2  0
 22 27  1  0
 22 30  1  0
 23 24  1  0
 24 28  3  0
 25 26  1  0
  1 31  1  0
  1 32  1  0
  3 33  1  0
  4 34  1  6
  5 35  1  0
  5 36  1  0
  5 37  1  0
  6 38  1  0
  6 39  1  0
  6 40  1  0
  7 41  1  0
 10 42  1  0
 11 43  1  0
 12 44  1  0
 13 45  1  0
 14 46  1  0
 15 47  1  0
 20 48  1  0
 20 49  1  0
 20 50  1  0
 26 51  1  0
 27 52  1  0
 27 53  1  0
 29 54  1  0
M  END
>  <filename_input>  (3) 
7X5N_5M5_docked.sdf

>  <pdb_id>  (3) 
7X5N_5M5

>  <pose_rank>  (3) 
2

>  <num_atoms_heavy>  (3) 
30

>  <num_torsions>  (3) 
5

>  <pose>  (3) 
[82.34264605436643, 49.11461496188008, 54.953041322656276, 0.3723687220664523, -0.2257666647114046, 2.4563695527388743, 3.7671464331139948, -4.587802210275585, -2.9743215710097424, -0.6154815863811043, -2.435688945701822]

>  <energy>  (3) 
-648.2068896838721

>  <inter_energy>  (3) 
-704.958096221765

>  <intra_energy>  (3) 
60.31613711928428

>  <rmsd>  (3) 
4.40532

>  <sdf_rank>  (3) 
0

$$$$

     RDKit          3D

 54 57  0  0  0  0  0  0  0  0999 V2000
   79.8258   46.6441   54.1084 C   0  0  0  0  0  0  0  0  0  0  0  0
   80.9519   47.6683   53.9092 C   0  0  0  0  0  0  0  0  0  0  0  0
   81.8308   47.6400   52.8324 C   0  0  0  0  0  0  0  0  0  0  0  0
   82.7497   52.0639   55.2114 C   0  0  2  0  0  0  0  0  0  0  0  0
   82.5497   52.2647   53.7002 C   0  0  0  0  0  0  0  0  0  0  0  0
   84.2523   52.1825   55.5120 C   0  0  0  0  0  0  0  0  0  0  0  0
   81.0774   48.6673   54.8573 C   0  0  0  0  0  0  0  0  0  0  0  0
   82.8013   48.6310   52.7190 C   0  0  0  0  0  0  0  0  0  0  0  0
   83.7961   48.6254   51.5569 C   0  0  0  0  0  0  0  0  0  0  0  0
   85.0289   49.0335   51.7196 C   0  0  0  0  0  0  0  0  0  0  0  0
   85.9887   49.0270   50.5307 C   0  0  0  0  0  0  0  0  0  0  0  0
   85.5864   48.6179   49.3472 C   0  0  0  0  0  0  0  0  0  0  0  0
   84.1505   48.1511   49.1585 C   0  0  0  0  0  0  0  0  0  0  0  0
   83.3302   48.1540   50.1868 C   0  0  0  0  0  0  0  0  0  0  0  0
   82.9157   49.6307   53.6761 C   0  0  0  0  0  0  0  0  0  0  0  0
   82.0389   49.6638   54.7490 C   0  0  0  0  0  0  0  0  0  0  0  0
   82.1787   50.7467   55.7948 C   0  0  1  0  0  0  0  0  0  0  0  0
   83.0025   50.2456   57.0337 C   0  0  0  0  0  0  0  0  0  0  0  0
   84.1314   49.5853   57.2615 C   0  0  0  0  0  0  0  0  0  0  0  0
   85.1246   49.0395   56.2249 C   0  0  0  0  0  0  0  0  0  0  0  0
   82.4185   50.5264   58.3810 C   0  0  0  0  0  0  0  0  0  0  0  0
   80.3587   51.1849   57.6859 C   0  0  0  0  0  0  0  0  0  0  0  0
   80.7385   51.0847   56.2647 C   0  0  0  0  0  0  0  0  0  0  0  0
   79.6235   51.0510   55.2335 C   0  0  0  0  0  0  0  0  0  0  0  0
   84.3577   49.4096   58.5443 N   0  0  0  0  0  0  0  0  0  0  0  0
   83.3387   49.9477   59.3022 N   0  0  0  0  0  0  0  0  0  0  0  0
   79.1366   51.8896   58.0098 N   0  0  0  0  0  0  0  0  0  0  0  0
   78.7595   51.0711   54.5131 N   0  0  0  0  0  0  0  0  0  0  0  0
   78.5767   47.1692   53.8042 O   0  0  0  0  0  0  0  0  0  0  0  0
   81.2654   51.1787   58.6361 O   0  0  0  0  0  0  0  0  0  0  0  0
   80.0145   45.7791   53.4556 H   0  0  0  0  0  0  0  0  0  0  0  0
   79.8193   46.3527   55.1691 H   0  0  0  0  0  0  0  0  0  0  0  0
   81.7599   46.8427   52.0779 H   0  0  0  0  0  0  0  0  0  0  0  0
   82.1644   52.8485   55.7132 H   0  0  0  0  0  0  0  0  0  0  0  0
   81.7826   53.0347   53.5310 H   0  0  0  0  0  0  0  0  0  0  0  0
   83.4980   52.5854   53.2442 H   0  0  0  0  0  0  0  0  0  0  0  0
   82.2254   51.3176   53.2442 H   0  0  0  0  0  0  0  0  0  0  0  0
   84.4086   52.1948   56.6008 H   0  0  0  0  0  0  0  0  0  0  0  0
   84.7826   51.3234   55.0752 H   0  0  0  0  0  0  0  0  0  0  0  0
   84.6412   53.1141   55.0752 H   0  0  0  0  0  0  0  0  0  0  0  0
   80.3967   48.6729   55.7214 H   0  0  0  0  0  0  0  0  0  0  0  0
   85.3719   49.3790   52.7060 H   0  0  0  0  0  0  0  0  0  0  0  0
   87.0258   49.3678   50.6659 H   0  0  0  0  0  0  0  0  0  0  0  0
   86.2850   48.6131   48.4976 H   0  0  0  0  0  0  0  0  0  0  0  0
   83.8016   47.8144   48.1712 H   0  0  0  0  0  0  0  0  0  0  0  0
   82.2934   47.8111   50.0546 H   0  0  0  0  0  0  0  0  0  0  0  0
   83.7011   50.3952   53.5828 H   0  0  0  0  0  0  0  0  0  0  0  0
   85.9751   48.5721   56.7427 H   0  0  0  0  0  0  0  0  0  0  0  0
   84.6224   48.2907   55.5948 H   0  0  0  0  0  0  0  0  0  0  0  0
   85.4875   49.8649   55.5948 H   0  0  0  0  0  0  0  0  0  0  0  0
   83.2589   49.9340   60.3290 H   0  0  0  0  0  0  0  0  0  0  0  0
   78.8390   51.9799   58.9917 H   0  0  0  0  0  0  0  0  0  0  0  0
   78.5645   52.3007   57.2584 H   0  0  0  0  0  0  0  0  0  0  0  0
   78.0914   47.3732   54.6426 H   0  0  0  0  0  0  0  0  0  0  0  0
  1  2  1  0
  1 29  1  0
  2  3  2  0
  2  7  1  0
  3  8  1  0
  4  5  1  0
  4  6  1  0
 17  4  1  0
  7 16  2  0
  8  9  1  0
  8 15  2  0
  9 10  2  0
  9 14  1  0
 10 11  1  0
 11 12  2  0
 12 13  1  0
 13 14  2  0
 15 16  1  0
 17 16  1  6
 17 18  1  0
 17 23  1  0
 18 19  1  0
 18 21  2  0
 19 20  1  0
 19 25  2  0
 21 26  1  0
 21 30  1  0
 22 23  2  0
 22 27  1  0
 22 30  1  0
 23 24  1  0
 24 28  3  0
 25 26  1  0
  1 31  1  0
  1 32  1  0
  3 33  1  0
  4 34  1  1
  5 35  1  0
  5 36  1  0
  5 37  1  0
  6 38  1  0
  6 39  1  0
  6 40  1  0
  7 41  1  0
 10 42  1  0
 11 43  1  0
 12 44  1  0
 13 45  1  0
 14 46  1  0
 15 47  1  0
 20 48  1  0
 20 49  1  0
 20 50  1  0
 26 51  1  0
 27 52  1  0
 27 53  1  0
 29 54  1  0
M  END
>  <filename_input>  (4) 
7X5N_5M5_docked.sdf

>  <pdb_id>  (4) 
7X5N_5M5

>  <pose_rank>  (4) 
3

>  <num_atoms_heavy>  (4) 
30

>  <num_torsions>  (4) 
5

>  <pose>  (4) 
[82.17872312463278, 50.74674827584695, 55.79478551662986, -0.4460510064127899, -1.5030487557917038, -1.6867130201061629, 3.870927666174321, 9.45831153899754, 4.2012350149488205, 1.5768820583216447, -1.0702395983404884]

>  <energy>  (4) 
-700.3320982029757

>  <inter_energy>  (4) 
-806.5443178832965

>  <intra_energy>  (4) 
102.74802574921567

>  <rmsd>  (4) 
3.32289

>  <sdf_rank>  (4) 
0

$$$$

     RDKit          3D

 54 57  0  0  0  0  0  0  0  0999 V2000
   78.3819   51.0265   56.7108 C   0  0  0  0  0  0  0  0  0  0  0  0
   79.3782   50.3093   55.7891 C   0  0  0  0  0  0  0  0  0  0  0  0
   79.0201   49.2752   54.9316 C   0  0  0  0  0  0  0  0  0  0  0  0
   83.9559   50.0448   53.8988 C   0  0  2  0  0  0  0  0  0  0  0  0
   83.6163   50.5563   52.4893 C   0  0  0  0  0  0  0  0  0  0  0  0
   83.8567   48.5110   53.8847 C   0  0  0  0  0  0  0  0  0  0  0  0
   80.6942   50.7336   55.8228 C   0  0  0  0  0  0  0  0  0  0  0  0
   79.9878   48.7065   54.1088 C   0  0  0  0  0  0  0  0  0  0  0  0
   79.6361   47.5567   53.1631 C   0  0  0  0  0  0  0  0  0  0  0  0
   79.3971   47.7730   51.8947 C   0  0  0  0  0  0  0  0  0  0  0  0
   79.0340   46.6003   50.9849 C   0  0  0  0  0  0  0  0  0  0  0  0
   78.9575   45.3784   51.4654 C   0  0  0  0  0  0  0  0  0  0  0  0
   79.2281   45.1303   52.9421 C   0  0  0  0  0  0  0  0  0  0  0  0
   79.5453   46.1429   53.7194 C   0  0  0  0  0  0  0  0  0  0  0  0
   81.3055   49.1429   54.1498 C   0  0  0  0  0  0  0  0  0  0  0  0
   81.6652   50.1760   55.0009 C   0  0  0  0  0  0  0  0  0  0  0  0
   83.1045   50.6361   55.0507 C   0  0  1  0  0  0  0  0  0  0  0  0
   83.7463   50.3633   56.4573 C   0  0  0  0  0  0  0  0  0  0  0  0
   83.8135   49.3653   57.3300 C   0  0  0  0  0  0  0  0  0  0  0  0
   83.1985   47.9638   57.2019 C   0  0  0  0  0  0  0  0  0  0  0  0
   84.4957   51.4972   57.0799 C   0  0  0  0  0  0  0  0  0  0  0  0
   83.8138   53.1288   55.6542 C   0  0  0  0  0  0  0  0  0  0  0  0
   83.0786   52.1693   54.8099 C   0  0  0  0  0  0  0  0  0  0  0  0
   82.0524   52.7229   53.8361 C   0  0  0  0  0  0  0  0  0  0  0  0
   84.4950   49.6878   58.4068 N   0  0  0  0  0  0  0  0  0  0  0  0
   84.9369   50.9925   58.3372 N   0  0  0  0  0  0  0  0  0  0  0  0
   84.0563   54.4514   55.1186 N   0  0  0  0  0  0  0  0  0  0  0  0
   81.3439   53.1789   53.0905 N   0  0  0  0  0  0  0  0  0  0  0  0
   79.0151   51.7069   57.7427 O   0  0  0  0  0  0  0  0  0  0  0  0
   84.6868   52.7220   56.5473 O   0  0  0  0  0  0  0  0  0  0  0  0
   77.8036   51.7474   56.1142 H   0  0  0  0  0  0  0  0  0  0  0  0
   77.7299   50.2634   57.1609 H   0  0  0  0  0  0  0  0  0  0  0  0
   77.9828   48.9103   54.9038 H   0  0  0  0  0  0  0  0  0  0  0  0
   84.9758   50.3911   54.1220 H   0  0  0  0  0  0  0  0  0  0  0  0
   83.0094   51.4705   52.5674 H   0  0  0  0  0  0  0  0  0  0  0  0
   84.5465   50.7790   51.9460 H   0  0  0  0  0  0  0  0  0  0  0  0
   83.0499   49.7856   51.9460 H   0  0  0  0  0  0  0  0  0  0  0  0
   83.8324   48.1356   54.9184 H   0  0  0  0  0  0  0  0  0  0  0  0
   82.9371   48.2078   53.3628 H   0  0  0  0  0  0  0  0  0  0  0  0
   84.7296   48.0920   53.3628 H   0  0  0  0  0  0  0  0  0  0  0  0
   80.9798   51.5350   56.5201 H   0  0  0  0  0  0  0  0  0  0  0  0
   79.4572   48.7926   51.4861 H   0  0  0  0  0  0  0  0  0  0  0  0
   78.8348   46.7798   49.9180 H   0  0  0  0  0  0  0  0  0  0  0  0
   78.6990   44.5394   50.8026 H   0  0  0  0  0  0  0  0  0  0  0  0
   79.1591   44.1134   53.3558 H   0  0  0  0  0  0  0  0  0  0  0  0
   79.7476   45.9655   54.7860 H   0  0  0  0  0  0  0  0  0  0  0  0
   82.0628   48.6694   53.5076 H   0  0  0  0  0  0  0  0  0  0  0  0
   83.0170   47.5500   58.2047 H   0  0  0  0  0  0  0  0  0  0  0  0
   82.2467   48.0297   56.6545 H   0  0  0  0  0  0  0  0  0  0  0  0
   83.8916   47.3080   56.6545 H   0  0  0  0  0  0  0  0  0  0  0  0
   85.4778   51.5006   59.0515 H   0  0  0  0  0  0  0  0  0  0  0  0
   84.5666   55.1485   55.6794 H   0  0  0  0  0  0  0  0  0  0  0  0
   83.7187   54.6954   54.1766 H   0  0  0  0  0  0  0  0  0  0  0  0
   78.6930   51.3609   58.6125 H   0  0  0  0  0  0  0  0  0  0  0  0
  1  2  1  0
  1 29  1  0
  2  3  2  0
  2  7  1  0
  3  8  1  0
  4  5  1  0
  4  6  1  0
 17  4  1  0
  7 16  2  0
  8  9  1  0
  8 15  2  0
  9 10  2  0
  9 14  1  0
 10 11  1  0
 11 12  2  0
 12 13  1  0
 13 14  2  0
 15 16  1  0
 17 16  1  1
 17 18  1  0
 17 23  1  0
 18 19  1  0
 18 21  2  0
 19 20  1  0
 19 25  2  0
 21 26  1  0
 21 30  1  0
 22 23  2  0
 22 27  1  0
 22 30  1  0
 23 24  1  0
 24 28  3  0
 25 26  1  0
  1 31  1  0
  1 32  1  0
  3 33  1  0
  4 34  1  1
  5 35  1  0
  5 36  1  0
  5 37  1  0
  6 38  1  0
  6 39  1  0
  6 40  1  0
  7 41  1  0
 10 42  1  0
 11 43  1  0
 12 44  1  0
 13 45  1  0
 14 46  1  0
 15 47  1  0
 20 48  1  0
 20 49  1  0
 20 50  1  0
 26 51  1  0
 27 52  1  0
 27 53  1  0
 29 54  1  0
M  END
>  <filename_input>  (5) 
7X5N_5M5_docked.sdf

>  <pdb_id>  (5) 
7X5N_5M5

>  <pose_rank>  (5) 
4

>  <num_atoms_heavy>  (5) 
30

>  <num_torsions>  (5) 
5

>  <pose>  (5) 
[83.10454022832951, 50.63611711409123, 55.05068273617619, -2.23201235439873, -1.794247482084185, -1.5784862103564723, -9.0251130604934, 1.1525720290640993, 2.561941072043481, 2.3634691635052834, -0.7716363835465856]

>  <energy>  (5) 
-685.9675461185785

>  <inter_energy>  (5) 
-782.2740989407697

>  <intra_energy>  (5) 
93.437229072536

>  <rmsd>  (5) 
4.84585

>  <sdf_rank>  (5) 
0

$$$$

     RDKit          3D

 54 57  0  0  0  0  0  0  0  0999 V2000
   79.0852   51.1389   55.2298 C   0  0  0  0  0  0  0  0  0  0  0  0
   80.4605   50.4587   55.1781 C   0  0  0  0  0  0  0  0  0  0  0  0
   81.3120   50.3692   56.2734 C   0  0  0  0  0  0  0  0  0  0  0  0
   81.2830   48.1606   51.6575 C   0  0  2  0  0  0  0  0  0  0  0  0
   80.2299   47.3289   52.4079 C   0  0  0  0  0  0  0  0  0  0  0  0
   81.7660   47.3397   50.4513 C   0  0  0  0  0  0  0  0  0  0  0  0
   80.8512   49.9060   53.9720 C   0  0  0  0  0  0  0  0  0  0  0  0
   82.5273   49.7045   56.1390 C   0  0  0  0  0  0  0  0  0  0  0  0
   83.4977   49.5982   57.3167 C   0  0  0  0  0  0  0  0  0  0  0  0
   83.6448   50.5854   58.1633 C   0  0  0  0  0  0  0  0  0  0  0  0
   84.6353   50.4470   59.3185 C   0  0  0  0  0  0  0  0  0  0  0  0
   85.3415   49.3475   59.4674 C   0  0  0  0  0  0  0  0  0  0  0  0
   85.1746   48.2041   58.4774 C   0  0  0  0  0  0  0  0  0  0  0  0
   84.3166   48.3267   57.4879 C   0  0  0  0  0  0  0  0  0  0  0  0
   82.9075   49.1511   54.9233 C   0  0  0  0  0  0  0  0  0  0  0  0
   82.0594   49.2356   53.8303 C   0  0  0  0  0  0  0  0  0  0  0  0
   82.4862   48.6436   52.5062 C   0  0  1  0  0  0  0  0  0  0  0  0
   83.5600   47.5150   52.7012 C   0  0  0  0  0  0  0  0  0  0  0  0
   83.7385   46.4513   53.4752 C   0  0  0  0  0  0  0  0  0  0  0  0
   82.8023   45.9206   54.5709 C   0  0  0  0  0  0  0  0  0  0  0  0
   84.7705   47.5876   51.8269 C   0  0  0  0  0  0  0  0  0  0  0  0
   84.4274   49.6789   51.0093 C   0  0  0  0  0  0  0  0  0  0  0  0
   83.1307   49.8029   51.7002 C   0  0  0  0  0  0  0  0  0  0  0  0
   82.5355   51.1930   51.8466 C   0  0  0  0  0  0  0  0  0  0  0  0
   84.8711   45.8339   53.2229 N   0  0  0  0  0  0  0  0  0  0  0  0
   85.5743   46.4818   52.2289 N   0  0  0  0  0  0  0  0  0  0  0  0
   84.7359   50.6429   49.9747 N   0  0  0  0  0  0  0  0  0  0  0  0
   82.1303   52.2283   52.0186 N   0  0  0  0  0  0  0  0  0  0  0  0
   78.2803   50.6231   56.2371 O   0  0  0  0  0  0  0  0  0  0  0  0
   85.0227   48.5152   50.8803 O   0  0  0  0  0  0  0  0  0  0  0  0
   79.2290   52.2148   55.4078 H   0  0  0  0  0  0  0  0  0  0  0  0
   78.5820   50.9546   54.2692 H   0  0  0  0  0  0  0  0  0  0  0  0
   81.0282   50.8190   57.2363 H   0  0  0  0  0  0  0  0  0  0  0  0
   80.7871   49.0934   51.3509 H   0  0  0  0  0  0  0  0  0  0  0  0
   80.3760   47.4443   53.4921 H   0  0  0  0  0  0  0  0  0  0  0  0
   79.2235   47.6784   52.1343 H   0  0  0  0  0  0  0  0  0  0  0  0
   80.3369   46.2688   52.1343 H   0  0  0  0  0  0  0  0  0  0  0  0
   82.2941   46.4423   50.8063 H   0  0  0  0  0  0  0  0  0  0  0  0
   80.9008   47.0391   49.8422 H   0  0  0  0  0  0  0  0  0  0  0  0
   82.4490   47.9500   49.8422 H   0  0  0  0  0  0  0  0  0  0  0  0
   80.1865   50.0000   53.1005 H   0  0  0  0  0  0  0  0  0  0  0  0
   83.0591   51.5088   58.0440 H   0  0  0  0  0  0  0  0  0  0  0  0
   84.7589   51.2748   60.0323 H   0  0  0  0  0  0  0  0  0  0  0  0
   86.0497   49.2548   60.3040 H   0  0  0  0  0  0  0  0  0  0  0  0
   85.7660   47.2832   58.5882 H   0  0  0  0  0  0  0  0  0  0  0  0
   84.1893   47.4992   56.7744 H   0  0  0  0  0  0  0  0  0  0  0  0
   83.8802   48.6466   54.8280 H   0  0  0  0  0  0  0  0  0  0  0  0
   83.2224   46.1588   55.5592 H   0  0  0  0  0  0  0  0  0  0  0  0
   81.8140   46.3927   54.4691 H   0  0  0  0  0  0  0  0  0  0  0  0
   82.6999   44.8301   54.4691 H   0  0  0  0  0  0  0  0  0  0  0  0
   86.4962   46.2188   51.8523 H   0  0  0  0  0  0  0  0  0  0  0  0
   85.6322   50.5878   49.4702 H   0  0  0  0  0  0  0  0  0  0  0  0
   84.0591   51.3839   49.7429 H   0  0  0  0  0  0  0  0  0  0  0  0
   78.6591   50.8658   57.1190 H   0  0  0  0  0  0  0  0  0  0  0  0
  1  2  1  0
  1 29  1  0
  2  3  2  0
  2  7  1  0
  3  8  1  0
  4  5  1  0
  4  6  1  0
 17  4  1  0
  7 16  2  0
  8  9  1  0
  8 15  2  0
  9 10  2  0
  9 14  1  0
 10 11  1  0
 11 12  2  0
 12 13  1  0
 13 14  2  0
 15 16  1  0
 17 16  1  1
 17 18  1  0
 17 23  1  0
 18 19  1  0
 18 21  2  0
 19 20  1  0
 19 25  2  0
 21 26  1  0
 21 30  1  0
 22 23  2  0
 22 27  1  0
 22 30  1  0
 23 24  1  0
 24 28  3  0
 25 26  1  0
  1 31  1  0
  1 32  1  0
  3 33  1  0
  4 34  1  6
  5 35  1  0
  5 36  1  0
  5 37  1  0
  6 38  1  0
  6 39  1  0
  6 40  1  0
  7 41  1  0
 10 42  1  0
 11 43  1  0
 12 44  1  0
 13 45  1  0
 14 46  1  0
 15 47  1  0
 20 48  1  0
 20 49  1  0
 20 50  1  0
 26 51  1  0
 27 52  1  0
 27 53  1  0
 29 54  1  0
M  END
>  <filename_input>  (6) 
7X5N_5M5_docked.sdf

>  <pdb_id>  (6) 
7X5N_5M5

>  <pose_rank>  (6) 
5

>  <num_atoms_heavy>  (6) 
30

>  <num_torsions>  (6) 
5

>  <pose>  (6) 
[82.48621164103875, 48.643552055539345, 52.50615993193809, 3.162089690950528, 0.5927378199485368, -0.18584254621053892, -6.598844818274471, -1.2128465875473395, -1.2023097618708227, 0.3581138095637943, -3.238222828317019]

>  <energy>  (6) 
-585.5630759783862

>  <inter_energy>  (6) 
-647.327659808432

>  <intra_energy>  (6) 
71.72401326867056

>  <rmsd>  (6) 
6.3977

>  <sdf_rank>  (6) 
0

$$$$

     RDKit          3D

 54 57  0  0  0  0  0  0  0  0999 V2000
   83.9548   53.7404   56.0971 C   0  0  0  0  0  0  0  0  0  0  0  0
   83.6760   52.2350   55.9844 C   0  0  0  0  0  0  0  0  0  0  0  0
   84.1925   51.2926   56.8663 C   0  0  0  0  0  0  0  0  0  0  0  0
   81.0137   51.2138   52.8632 C   0  0  2  0  0  0  0  0  0  0  0  0
   82.0169   52.1756   52.2056 C   0  0  0  0  0  0  0  0  0  0  0  0
   80.0934   52.0385   53.7772 C   0  0  0  0  0  0  0  0  0  0  0  0
   82.8605   51.8155   54.9491 C   0  0  0  0  0  0  0  0  0  0  0  0
   83.8580   49.9515   56.7031 C   0  0  0  0  0  0  0  0  0  0  0  0
   84.4184   48.8832   57.6437 C   0  0  0  0  0  0  0  0  0  0  0  0
   84.6997   47.6807   57.2106 C   0  0  0  0  0  0  0  0  0  0  0  0
   85.2436   46.6364   58.1844 C   0  0  0  0  0  0  0  0  0  0  0  0
   85.4288   46.9346   59.4520 C   0  0  0  0  0  0  0  0  0  0  0  0
   85.0937   48.3311   59.9549 C   0  0  0  0  0  0  0  0  0  0  0  0
   84.6306   49.2275   59.1110 C   0  0  0  0  0  0  0  0  0  0  0  0
   83.0359   49.5428   55.6612 C   0  0  0  0  0  0  0  0  0  0  0  0
   82.5165   50.4802   54.7822 C   0  0  0  0  0  0  0  0  0  0  0  0
   81.6339   50.0261   53.6416 C   0  0  1  0  0  0  0  0  0  0  0  0
   80.5431   49.0080   54.1298 C   0  0  0  0  0  0  0  0  0  0  0  0
   79.6713   48.9039   55.1255 C   0  0  0  0  0  0  0  0  0  0  0  0
   79.4249   49.9036   56.2651 C   0  0  0  0  0  0  0  0  0  0  0  0
   80.3832   47.7620   53.3193 C   0  0  0  0  0  0  0  0  0  0  0  0
   82.2523   47.9866   52.0482 C   0  0  0  0  0  0  0  0  0  0  0  0
   82.5662   49.3034   52.6328 C   0  0  0  0  0  0  0  0  0  0  0  0
   83.9722   49.8464   52.4429 C   0  0  0  0  0  0  0  0  0  0  0  0
   78.9782   47.7885   55.0686 N   0  0  0  0  0  0  0  0  0  0  0  0
   79.3686   47.0208   53.9913 N   0  0  0  0  0  0  0  0  0  0  0  0
   82.9542   47.5984   50.8435 N   0  0  0  0  0  0  0  0  0  0  0  0
   85.0390   50.1839   52.3251 N   0  0  0  0  0  0  0  0  0  0  0  0
   83.6667   54.4189   54.9202 O   0  0  0  0  0  0  0  0  0  0  0  0
   81.0707   47.4349   52.2055 O   0  0  0  0  0  0  0  0  0  0  0  0
   83.3350   54.1555   56.9056 H   0  0  0  0  0  0  0  0  0  0  0  0
   85.0269   53.8697   56.3065 H   0  0  0  0  0  0  0  0  0  0  0  0
   84.8585   51.6036   57.6847 H   0  0  0  0  0  0  0  0  0  0  0  0
   80.4590   50.7304   52.0455 H   0  0  0  0  0  0  0  0  0  0  0  0
   82.5763   52.7119   52.9863 H   0  0  0  0  0  0  0  0  0  0  0  0
   82.7176   51.6031   51.5801 H   0  0  0  0  0  0  0  0  0  0  0  0
   81.4745   52.8998   51.5801 H   0  0  0  0  0  0  0  0  0  0  0  0
   80.3331   51.8237   54.8290 H   0  0  0  0  0  0  0  0  0  0  0  0
   80.2436   53.1099   53.5783 H   0  0  0  0  0  0  0  0  0  0  0  0
   79.0448   51.7722   53.5783 H   0  0  0  0  0  0  0  0  0  0  0  0
   82.4734   52.5602   54.2380 H   0  0  0  0  0  0  0  0  0  0  0  0
   84.5455   47.4234   56.1523 H   0  0  0  0  0  0  0  0  0  0  0  0
   85.4826   45.6257   57.8220 H   0  0  0  0  0  0  0  0  0  0  0  0
   85.8242   46.1779   60.1455 H   0  0  0  0  0  0  0  0  0  0  0  0
   85.2374   48.5886   61.0146 H   0  0  0  0  0  0  0  0  0  0  0  0
   84.3936   50.2397   59.4706 H   0  0  0  0  0  0  0  0  0  0  0  0
   82.7972   48.4766   55.5337 H   0  0  0  0  0  0  0  0  0  0  0  0
   79.5503   49.3950   57.2324 H   0  0  0  0  0  0  0  0  0  0  0  0
   80.1460   50.7308   56.1896 H   0  0  0  0  0  0  0  0  0  0  0  0
   78.4019   50.3008   56.1896 H   0  0  0  0  0  0  0  0  0  0  0  0
   79.0003   46.0963   53.7255 H   0  0  0  0  0  0  0  0  0  0  0  0
   82.7612   46.6859   50.4064 H   0  0  0  0  0  0  0  0  0  0  0  0
   83.6467   48.2346   50.4232 H   0  0  0  0  0  0  0  0  0  0  0  0
   83.2890   55.3082   55.1359 H   0  0  0  0  0  0  0  0  0  0  0  0
  1  2  1  0
  1 29  1  0
  2  3  2  0
  2  7  1  0
  3  8  1  0
  4  5  1  0
  4  6  1  0
 17  4  1  0
  7 16  2  0
  8  9  1  0
  8 15  2  0
  9 10  2  0
  9 14  1  0
 10 11  1  0
 11 12  2  0
 12 13  1  0
 13 14  2  0
 15 16  1  0
 17 16  1  1
 17 18  1  0
 17 23  1  0
 18 19  1  0
 18 21  2  0
 19 20  1  0
 19 25  2  0
 21 26  1  0
 21 30  1  0
 22 23  2  0
 22 27  1  0
 22 30  1  0
 23 24  1  0
 24 28  3  0
 25 26  1  0
  1 31  1  0
  1 32  1  0
  3 33  1  0
  4 34  1  6
  5 35  1  0
  5 36  1  0
  5 37  1  0
  6 38  1  0
  6 39  1  0
  6 40  1  0
  7 41  1  0
 10 42  1  0
 11 43  1  0
 12 44  1  0
 13 45  1  0
 14 46  1  0
 15 47  1  0
 20 48  1  0
 20 49  1  0
 20 50  1  0
 26 51  1  0
 27 52  1  0
 27 53  1  0
 29 54  1  0
M  END
>  <filename_input>  (7) 
7X5N_5M5_docked.sdf

>  <pdb_id>  (7) 
7X5N_5M5

>  <pose_rank>  (7) 
6

>  <num_atoms_heavy>  (7) 
30

>  <num_torsions>  (7) 
5

>  <pose>  (7) 
[81.63393750067266, 50.026127403516675, 53.64163008644277, 2.5197767103092814, -1.8172383547780049, -0.279316924856978, 0.0838769283697169, 3.166134376462633, 2.5861383364829593, -4.062055628150198, -2.5260170101190087]

>  <energy>  (7) 
-627.8612678283796

>  <inter_energy>  (7) 
-713.3531401175024

>  <intra_energy>  (7) 
86.0973014366428

>  <rmsd>  (7) 
6.42534

>  <sdf_rank>  (7) 
0

$$$$

     RDKit          3D

 54 57  0  0  0  0  0  0  0  0999 V2000
   79.8118   52.0116   54.9172 C   0  0  0  0  0  0  0  0  0  0  0  0
   80.9818   51.0178   54.8997 C   0  0  0  0  0  0  0  0  0  0  0  0
   81.7393   50.7071   56.0233 C   0  0  0  0  0  0  0  0  0  0  0  0
   81.3478   48.3516   51.4953 C   0  0  2  0  0  0  0  0  0  0  0  0
   80.2931   47.6116   52.3343 C   0  0  0  0  0  0  0  0  0  0  0  0
   81.7243   47.4541   50.3057 C   0  0  0  0  0  0  0  0  0  0  0  0
   81.2770   50.4049   53.6955 C   0  0  0  0  0  0  0  0  0  0  0  0
   82.7615   49.7686   55.9175 C   0  0  0  0  0  0  0  0  0  0  0  0
   83.6267   49.4114   57.1275 C   0  0  0  0  0  0  0  0  0  0  0  0
   83.9826   48.1742   57.3631 C   0  0  0  0  0  0  0  0  0  0  0  0
   84.8347   47.8553   58.5907 C   0  0  0  0  0  0  0  0  0  0  0  0
   85.2106   48.8114   59.4119 C   0  0  0  0  0  0  0  0  0  0  0  0
   84.7891   50.2480   59.1402 C   0  0  0  0  0  0  0  0  0  0  0  0
   84.0599   50.5174   58.0791 C   0  0  0  0  0  0  0  0  0  0  0  0
   83.0467   49.1578   54.7034 C   0  0  0  0  0  0  0  0  0  0  0  0
   82.2912   49.4626   53.5821 C   0  0  0  0  0  0  0  0  0  0  0  0
   82.6169   48.8046   52.2604 C   0  0  1  0  0  0  0  0  0  0  0  0
   83.6457   47.6325   52.4406 C   0  0  0  0  0  0  0  0  0  0  0  0
   83.8161   46.5891   53.2434 C   0  0  0  0  0  0  0  0  0  0  0  0
   82.9173   46.1433   54.4063 C   0  0  0  0  0  0  0  0  0  0  0  0
   84.8087   47.6153   51.5015 C   0  0  0  0  0  0  0  0  0  0  0  0
   84.5198   49.6909   50.6252 C   0  0  0  0  0  0  0  0  0  0  0  0
   83.2700   49.9022   51.3785 C   0  0  0  0  0  0  0  0  0  0  0  0
   82.7495   51.3239   51.5039 C   0  0  0  0  0  0  0  0  0  0  0  0
   84.9032   45.9086   52.9550 N   0  0  0  0  0  0  0  0  0  0  0  0
   85.5805   46.4863   51.9015 N   0  0  0  0  0  0  0  0  0  0  0  0
   84.8161   50.6020   49.5402 N   0  0  0  0  0  0  0  0  0  0  0  0
   82.3717   52.3835   51.5243 N   0  0  0  0  0  0  0  0  0  0  0  0
   79.7149   52.7317   53.7338 O   0  0  0  0  0  0  0  0  0  0  0  0
   85.0520   48.4958   50.5086 O   0  0  0  0  0  0  0  0  0  0  0  0
   78.8760   51.4538   55.0697 H   0  0  0  0  0  0  0  0  0  0  0  0
   79.9900   52.7273   55.7333 H   0  0  0  0  0  0  0  0  0  0  0  0
   81.5329   51.1980   56.9858 H   0  0  0  0  0  0  0  0  0  0  0  0
   80.8860   49.2958   51.1710 H   0  0  0  0  0  0  0  0  0  0  0  0
   80.5048   47.7601   53.4034 H   0  0  0  0  0  0  0  0  0  0  0  0
   79.2941   48.0078   52.0998 H   0  0  0  0  0  0  0  0  0  0  0  0
   80.3258   46.5373   52.0998 H   0  0  0  0  0  0  0  0  0  0  0  0
   82.1247   46.4999   50.6786 H   0  0  0  0  0  0  0  0  0  0  0  0
   80.8307   47.2627   49.6936 H   0  0  0  0  0  0  0  0  0  0  0  0
   82.4871   47.9576   49.6936 H   0  0  0  0  0  0  0  0  0  0  0  0
   80.6923   50.6711   52.8026 H   0  0  0  0  0  0  0  0  0  0  0  0
   83.6702   47.3691   56.6818 H   0  0  0  0  0  0  0  0  0  0  0  0
   85.1366   46.8164   58.7894 H   0  0  0  0  0  0  0  0  0  0  0  0
   85.8271   48.5735   60.2914 H   0  0  0  0  0  0  0  0  0  0  0  0
   85.0915   51.0540   59.8250 H   0  0  0  0  0  0  0  0  0  0  0  0
   83.7592   51.5559   57.8768 H   0  0  0  0  0  0  0  0  0  0  0  0
   83.8711   48.4330   54.6317 H   0  0  0  0  0  0  0  0  0  0  0  0
   83.4062   46.3858   55.3614 H   0  0  0  0  0  0  0  0  0  0  0  0
   81.9519   46.6670   54.3452 H   0  0  0  0  0  0  0  0  0  0  0  0
   82.7501   45.0578   54.3452 H   0  0  0  0  0  0  0  0  0  0  0  0
   86.4671   46.1657   51.4868 H   0  0  0  0  0  0  0  0  0  0  0  0
   85.6800   50.4857   48.9915 H   0  0  0  0  0  0  0  0  0  0  0  0
   84.1632   51.3666   49.3169 H   0  0  0  0  0  0  0  0  0  0  0  0
   79.5857   53.6911   53.9410 H   0  0  0  0  0  0  0  0  0  0  0  0
  1  2  1  0
  1 29  1  0
  2  3  2  0
  2  7  1  0
  3  8  1  0
  4  5  1  0
  4  6  1  0
 17  4  1  0
  7 16  2  0
  8  9  1  0
  8 15  2  0
  9 10  2  0
  9 14  1  0
 10 11  1  0
 11 12  2  0
 12 13  1  0
 13 14  2  0
 15 16  1  0
 17 16  1  1
 17 18  1  0
 17 23  1  0
 18 19  1  0
 18 21  2  0
 19 20  1  0
 19 25  2  0
 21 26  1  0
 21 30  1  0
 22 23  2  0
 22 27  1  0
 22 30  1  0
 23 24  1  0
 24 28  3  0
 25 26  1  0
  1 31  1  0
  1 32  1  0
  3 33  1  0
  4 34  1  6
  5 35  1  0
  5 36  1  0
  5 37  1  0
  6 38  1  0
  6 39  1  0
  6 40  1  0
  7 41  1  0
 10 42  1  0
 11 43  1  0
 12 44  1  0
 13 45  1  0
 14 46  1  0
 15 47  1  0
 20 48  1  0
 20 49  1  0
 20 50  1  0
 26 51  1  0
 27 52  1  0
 27 53  1  0
 29 54  1  0
M  END
>  <filename_input>  (8) 
7X5N_5M5_docked.sdf

>  <pdb_id>  (8) 
7X5N_5M5

>  <pose_rank>  (8) 
7

>  <num_atoms_heavy>  (8) 
30

>  <num_torsions>  (8) 
5

>  <pose>  (8) 
[82.61688591512579, 48.80458295360251, 52.26039814122544, -3.033215384681074, -0.48753760300051396, 0.26627155172173655, -0.5416670094723988, 1.8607665057158966, 2.281218091739431, 0.36859589759601125, -0.7918764393605866]

>  <energy>  (8) 
-567.4515020801516

>  <inter_energy>  (8) 
-664.9483157472525

>  <intra_energy>  (8) 
93.32487335295576

>  <rmsd>  (8) 
6.5044

>  <sdf_rank>  (8) 
0

$$$$

     RDKit          3D

 54 57  0  0  0  0  0  0  0  0999 V2000
   79.8980   46.5729   51.9264 C   0  0  0  0  0  0  0  0  0  0  0  0
   80.8131   47.6081   52.5954 C   0  0  0  0  0  0  0  0  0  0  0  0
   80.5116   48.2308   53.8013 C   0  0  0  0  0  0  0  0  0  0  0  0
   85.2238   49.8567   52.7109 C   0  0  2  0  0  0  0  0  0  0  0  0
   84.6688   51.0084   53.5650 C   0  0  0  0  0  0  0  0  0  0  0  0
   86.4122   50.3965   51.8993 C   0  0  0  0  0  0  0  0  0  0  0  0
   81.9980   47.9183   51.9529 C   0  0  0  0  0  0  0  0  0  0  0  0
   81.4191   49.1335   54.3475 C   0  0  0  0  0  0  0  0  0  0  0  0
   81.1163   49.8501   55.6647 C   0  0  0  0  0  0  0  0  0  0  0  0
   79.9358   50.3641   55.8994 C   0  0  0  0  0  0  0  0  0  0  0  0
   79.6766   51.0856   57.2211 C   0  0  0  0  0  0  0  0  0  0  0  0
   80.6286   51.1963   58.1218 C   0  0  0  0  0  0  0  0  0  0  0  0
   82.0027   50.6048   57.8435 C   0  0  0  0  0  0  0  0  0  0  0  0
   82.2185   49.9803   56.7061 C   0  0  0  0  0  0  0  0  0  0  0  0
   82.6069   49.4348   53.6943 C   0  0  0  0  0  0  0  0  0  0  0  0
   82.9123   48.8133   52.4937 C   0  0  0  0  0  0  0  0  0  0  0  0
   84.2006   49.1572   51.7809 C   0  0  1  0  0  0  0  0  0  0  0  0
   83.9307   49.9846   50.4743 C   0  0  0  0  0  0  0  0  0  0  0  0
   83.2004   51.0304   50.1065 C   0  0  0  0  0  0  0  0  0  0  0  0
   82.2668   51.8779   50.9833 C   0  0  0  0  0  0  0  0  0  0  0  0
   84.6349   49.5270   49.2375 C   0  0  0  0  0  0  0  0  0  0  0  0
   85.3727   47.5307   50.0312 C   0  0  0  0  0  0  0  0  0  0  0  0
   84.8503   47.8051   51.3825 C   0  0  0  0  0  0  0  0  0  0  0  0
   84.7055   46.6330   52.3381 C   0  0  0  0  0  0  0  0  0  0  0  0
   83.3373   51.3115   48.8297 N   0  0  0  0  0  0  0  0  0  0  0  0
   84.1940   50.4201   48.2184 N   0  0  0  0  0  0  0  0  0  0  0  0
   86.3033   46.4329   49.8774 N   0  0  0  0  0  0  0  0  0  0  0  0
   84.6711   45.7644   53.0523 N   0  0  0  0  0  0  0  0  0  0  0  0
   79.2877   47.0708   50.7826 O   0  0  0  0  0  0  0  0  0  0  0  0
   85.4878   48.4865   49.1376 O   0  0  0  0  0  0  0  0  0  0  0  0
   80.4994   45.6936   51.6523 H   0  0  0  0  0  0  0  0  0  0  0  0
   79.1062   46.3101   52.6433 H   0  0  0  0  0  0  0  0  0  0  0  0
   79.5655   48.0122   54.3183 H   0  0  0  0  0  0  0  0  0  0  0  0
   85.5270   49.0639   53.4106 H   0  0  0  0  0  0  0  0  0  0  0  0
   84.7865   50.7640   54.6310 H   0  0  0  0  0  0  0  0  0  0  0  0
   85.2205   51.9324   53.3375 H   0  0  0  0  0  0  0  0  0  0  0  0
   83.6023   51.1526   53.3375 H   0  0  0  0  0  0  0  0  0  0  0  0
   87.1943   50.7518   52.5864 H   0  0  0  0  0  0  0  0  0  0  0  0
   86.8179   49.5943   51.2653 H   0  0  0  0  0  0  0  0  0  0  0  0
   86.0750   51.2298   51.2653 H   0  0  0  0  0  0  0  0  0  0  0  0
   82.2226   47.4430   50.9867 H   0  0  0  0  0  0  0  0  0  0  0  0
   79.1353   50.2771   55.1500 H   0  0  0  0  0  0  0  0  0  0  0  0
   78.6845   51.5165   57.4212 H   0  0  0  0  0  0  0  0  0  0  0  0
   80.4324   51.7142   59.0722 H   0  0  0  0  0  0  0  0  0  0  0  0
   82.8082   50.6987   58.5867 H   0  0  0  0  0  0  0  0  0  0  0  0
   83.2090   49.5462   56.5050 H   0  0  0  0  0  0  0  0  0  0  0  0
   83.3045   50.1658   54.1291 H   0  0  0  0  0  0  0  0  0  0  0  0
   82.4823   51.6822   52.0441 H   0  0  0  0  0  0  0  0  0  0  0  0
   82.4283   52.9442   50.7670 H   0  0  0  0  0  0  0  0  0  0  0  0
   81.2210   51.6142   50.7670 H   0  0  0  0  0  0  0  0  0  0  0  0
   84.4617   50.4033   47.2240 H   0  0  0  0  0  0  0  0  0  0  0  0
   86.6893   46.2113   48.9485 H   0  0  0  0  0  0  0  0  0  0  0  0
   86.5795   45.8733   50.6968 H   0  0  0  0  0  0  0  0  0  0  0  0
   78.5470   47.6751   51.0402 H   0  0  0  0  0  0  0  0  0  0  0  0
  1  2  1  0
  1 29  1  0
  2  3  2  0
  2  7  1  0
  3  8  1  0
  4  5  1  0
  4  6  1  0
 17  4  1  0
  7 16  2  0
  8  9  1  0
  8 15  2  0
  9 10  2  0
  9 14  1  0
 10 11  1  0
 11 12  2  0
 12 13  1  0
 13 14  2  0
 15 16  1  0
 17 16  1  1
 17 18  1  0
 17 23  1  0
 18 19  1  0
 18 21  2  0
 19 20  1  0
 19 25  2  0
 21 26  1  0
 21 30  1  0
 22 23  2  0
 22 27  1  0
 22 30  1  0
 23 24  1  0
 24 28  3  0
 25 26  1  0
  1 31  1  0
  1 32  1  0
  3 33  1  0
  4 34  1  1
  5 35  1  0
  5 36  1  0
  5 37  1  0
  6 38  1  0
  6 39  1  0
  6 40  1  0
  7 41  1  0
 10 42  1  0
 11 43  1  0
 12 44  1  0
 13 45  1  0
 14 46  1  0
 15 47  1  0
 20 48  1  0
 20 49  1  0
 20 50  1  0
 26 51  1  0
 27 52  1  0
 27 53  1  0
 29 54  1  0
M  END
>  <filename_input>  (9) 
7X5N_5M5_docked.sdf

>  <pdb_id>  (9) 
7X5N_5M5

>  <pose_rank>  (9) 
8

>  <num_atoms_heavy>  (9) 
30

>  <num_torsions>  (9) 
5

>  <pose>  (9) 
[84.20055150258152, 49.15721323778688, 51.780907111217154, -0.41344725525829357, 1.5176805576856596, -0.5944768027259653, 16.214520633552226, 4.940926692662724, 1.6478777242352052, 0.3417622812878184, -6.673426261471962]

>  <energy>  (9) 
-466.3471781834041

>  <inter_energy>  (9) 
-537.7022936238938

>  <intra_energy>  (9) 
73.00529925844428

>  <rmsd>  (9) 
5.96818

>  <sdf_rank>  (9) 
0

$$$$

     RDKit          3D

 54 57  0  0  0  0  0  0  0  0999 V2000
   80.1149   52.0740   54.7501 C   0  0  0  0  0  0  0  0  0  0  0  0
   81.2452   51.0356   54.7844 C   0  0  0  0  0  0  0  0  0  0  0  0
   81.9631   50.7231   55.9331 C   0  0  0  0  0  0  0  0  0  0  0  0
   81.5902   48.1844   51.5031 C   0  0  2  0  0  0  0  0  0  0  0  0
   80.5788   47.4196   52.3726 C   0  0  0  0  0  0  0  0  0  0  0  0
   81.9801   47.2818   50.3218 C   0  0  0  0  0  0  0  0  0  0  0  0
   81.5445   50.3828   53.6023 C   0  0  0  0  0  0  0  0  0  0  0  0
   82.9500   49.7435   55.8743 C   0  0  0  0  0  0  0  0  0  0  0  0
   83.7717   49.3825   57.1131 C   0  0  0  0  0  0  0  0  0  0  0  0
   84.3787   48.2270   57.2092 C   0  0  0  0  0  0  0  0  0  0  0  0
   85.1775   47.8972   58.4692 C   0  0  0  0  0  0  0  0  0  0  0  0
   85.2581   48.7620   59.4569 C   0  0  0  0  0  0  0  0  0  0  0  0
   84.5450   50.1017   59.3463 C   0  0  0  0  0  0  0  0  0  0  0  0
   83.8631   50.3823   58.2570 C   0  0  0  0  0  0  0  0  0  0  0  0
   83.2396   49.0930   54.6821 C   0  0  0  0  0  0  0  0  0  0  0  0
   82.5233   49.3996   53.5358 C   0  0  0  0  0  0  0  0  0  0  0  0
   82.8541   48.6977   52.2381 C   0  0  1  0  0  0  0  0  0  0  0  0
   83.9126   47.5587   52.4549 C   0  0  0  0  0  0  0  0  0  0  0  0
   84.1150   46.5524   53.2967 C   0  0  0  0  0  0  0  0  0  0  0  0
   83.2369   46.1315   54.4844 C   0  0  0  0  0  0  0  0  0  0  0  0
   85.0680   47.5323   51.5066 C   0  0  0  0  0  0  0  0  0  0  0  0
   84.7214   49.5641   50.5519 C   0  0  0  0  0  0  0  0  0  0  0  0
   83.4731   49.7750   51.3077 C   0  0  0  0  0  0  0  0  0  0  0  0
   82.9191   51.1876   51.3817 C   0  0  0  0  0  0  0  0  0  0  0  0
   85.2159   45.8874   53.0253 N   0  0  0  0  0  0  0  0  0  0  0  0
   85.8703   46.4389   51.9438 N   0  0  0  0  0  0  0  0  0  0  0  0
   84.9865   50.4383   49.4292 N   0  0  0  0  0  0  0  0  0  0  0  0
   82.5171   52.2383   51.3640 N   0  0  0  0  0  0  0  0  0  0  0  0
   79.9475   52.6285   53.4880 O   0  0  0  0  0  0  0  0  0  0  0  0
   85.2816   48.3784   50.4776 O   0  0  0  0  0  0  0  0  0  0  0  0
   79.1760   51.5850   55.0491 H   0  0  0  0  0  0  0  0  0  0  0  0
   80.3827   52.8861   55.4420 H   0  0  0  0  0  0  0  0  0  0  0  0
   81.7535   51.2447   56.8786 H   0  0  0  0  0  0  0  0  0  0  0  0
   81.0874   49.1050   51.1718 H   0  0  0  0  0  0  0  0  0  0  0  0
   80.8054   47.5909   53.4353 H   0  0  0  0  0  0  0  0  0  0  0  0
   79.5620   47.7766   52.1523 H   0  0  0  0  0  0  0  0  0  0  0  0
   80.6455   46.3439   52.1523 H   0  0  0  0  0  0  0  0  0  0  0  0
   82.3892   46.3347   50.7034 H   0  0  0  0  0  0  0  0  0  0  0  0
   81.0905   47.0762   49.7082 H   0  0  0  0  0  0  0  0  0  0  0  0
   82.7396   47.7885   49.7082 H   0  0  0  0  0  0  0  0  0  0  0  0
   80.9919   50.6498   52.6894 H   0  0  0  0  0  0  0  0  0  0  0  0
   84.3141   47.4979   56.3881 H   0  0  0  0  0  0  0  0  0  0  0  0
   85.6901   46.9274   58.5511 H   0  0  0  0  0  0  0  0  0  0  0  0
   85.8383   48.5179   60.3590 H   0  0  0  0  0  0  0  0  0  0  0  0
   84.5994   50.8290   60.1698 H   0  0  0  0  0  0  0  0  0  0  0  0
   83.3519   51.3525   58.1718 H   0  0  0  0  0  0  0  0  0  0  0  0
   84.0364   48.3353   54.6475 H   0  0  0  0  0  0  0  0  0  0  0  0
   83.7505   46.3777   55.4254 H   0  0  0  0  0  0  0  0  0  0  0  0
   82.2775   46.6677   54.4391 H   0  0  0  0  0  0  0  0  0  0  0  0
   83.0538   45.0478   54.4391 H   0  0  0  0  0  0  0  0  0  0  0  0
   86.7611   46.1235   51.5339 H   0  0  0  0  0  0  0  0  0  0  0  0
   85.8484   50.3211   48.8776 H   0  0  0  0  0  0  0  0  0  0  0  0
   84.3133   51.1775   49.1819 H   0  0  0  0  0  0  0  0  0  0  0  0
   79.6625   53.5724   53.5774 H   0  0  0  0  0  0  0  0  0  0  0  0
  1  2  1  0
  1 29  1  0
  2  3  2  0
  2  7  1  0
  3  8  1  0
  4  5  1  0
  4  6  1  0
 17  4  1  0
  7 16  2  0
  8  9  1  0
  8 15  2  0
  9 10  2  0
  9 14  1  0
 10 11  1  0
 11 12  2  0
 12 13  1  0
 13 14  2  0
 15 16  1  0
 17 16  1  1
 17 18  1  0
 17 23  1  0
 18 19  1  0
 18 21  2  0
 19 20  1  0
 19 25  2  0
 21 26  1  0
 21 30  1  0
 22 23  2  0
 22 27  1  0
 22 30  1  0
 23 24  1  0
 24 28  3  0
 25 26  1  0
  1 31  1  0
  1 32  1  0
  3 33  1  0
  4 34  1  6
  5 35  1  0
  5 36  1  0
  5 37  1  0
  6 38  1  0
  6 39  1  0
  6 40  1  0
  7 41  1  0
 10 42  1  0
 11 43  1  0
 12 44  1  0
 13 45  1  0
 14 46  1  0
 15 47  1  0
 20 48  1  0
 20 49  1  0
 20 50  1  0
 26 51  1  0
 27 52  1  0
 27 53  1  0
 29 54  1  0
M  END
>  <filename_input>  (10) 
7X5N_5M5_docked.sdf

>  <pdb_id>  (10) 
7X5N_5M5

>  <pose_rank>  (10) 
9

>  <num_atoms_heavy>  (10) 
30

>  <num_torsions>  (10) 
5

>  <pose>  (10) 
[82.85412087052049, 48.69773642622423, 52.23811850888454, -3.0647953462311026, -0.5249219386284558, 0.2936953611170904, -0.6145535999287824, 2.1871185657932464, 2.4356752763987024, 0.34056506476287296, -0.811870767045039]

>  <energy>  (10) 
-557.1869520471254

>  <inter_energy>  (10) 
-666.3865534856784

>  <intra_energy>  (10) 
103.1965805542729

>  <rmsd>  (10) 
6.55485

>  <sdf_rank>  (10) 
0

$$$$

     RDKit          3D

 54 57  0  0  0  0  0  0  0  0999 V2000
   89.6530   45.5599   46.3653 C   0  0  0  0  0  0  0  0  0  0  0  0
   88.8119   45.9131   47.6001 C   0  0  0  0  0  0  0  0  0  0  0  0
   87.6930   46.7369   47.5541 C   0  0  0  0  0  0  0  0  0  0  0  0
   87.7757   44.9831   52.3463 C   0  0  2  0  0  0  0  0  0  0  0  0
   88.1214   45.5703   53.7246 C   0  0  0  0  0  0  0  0  0  0  0  0
   87.2605   43.5502   52.5556 C   0  0  0  0  0  0  0  0  0  0  0  0
   89.1997   45.3675   48.8104 C   0  0  0  0  0  0  0  0  0  0  0  0
   86.9737   46.9746   48.7216 C   0  0  0  0  0  0  0  0  0  0  0  0
   85.7461   47.8873   48.7144 C   0  0  0  0  0  0  0  0  0  0  0  0
   85.1580   48.2213   47.5939 C   0  0  0  0  0  0  0  0  0  0  0  0
   83.9431   49.1475   47.6267 C   0  0  0  0  0  0  0  0  0  0  0  0
   83.4860   49.6127   48.7689 C   0  0  0  0  0  0  0  0  0  0  0  0
   84.1761   49.2293   50.0697 C   0  0  0  0  0  0  0  0  0  0  0  0
   85.2184   48.4276   50.0358 C   0  0  0  0  0  0  0  0  0  0  0  0
   87.3713   46.4189   49.9305 C   0  0  0  0  0  0  0  0  0  0  0  0
   88.4844   45.5944   49.9792 C   0  0  0  0  0  0  0  0  0  0  0  0
   88.9199   45.0046   51.3015 C   0  0  1  0  0  0  0  0  0  0  0  0
   90.2065   45.7163   51.8518 C   0  0  0  0  0  0  0  0  0  0  0  0
   90.6482   46.9570   52.0184 C   0  0  0  0  0  0  0  0  0  0  0  0
   89.9191   48.2658   51.6804 C   0  0  0  0  0  0  0  0  0  0  0  0
   91.3105   44.8262   52.3249 C   0  0  0  0  0  0  0  0  0  0  0  0
   90.5021   42.8737   51.4921 C   0  0  0  0  0  0  0  0  0  0  0  0
   89.2614   43.5166   51.0215 C   0  0  0  0  0  0  0  0  0  0  0  0
   88.4165   42.7680   50.0049 C   0  0  0  0  0  0  0  0  0  0  0  0
   91.8584   46.9924   52.5302 N   0  0  0  0  0  0  0  0  0  0  0  0
   92.3441   45.7177   52.7341 N   0  0  0  0  0  0  0  0  0  0  0  0
   90.5367   41.4275   51.5397 N   0  0  0  0  0  0  0  0  0  0  0  0
   87.7361   42.2602   49.2666 N   0  0  0  0  0  0  0  0  0  0  0  0
   90.7508   46.3977   46.2188 O   0  0  0  0  0  0  0  0  0  0  0  0
   91.3038   43.4772   52.3396 O   0  0  0  0  0  0  0  0  0  0  0  0
   90.0093   44.5239   46.4644 H   0  0  0  0  0  0  0  0  0  0  0  0
   89.0153   45.6819   45.4773 H   0  0  0  0  0  0  0  0  0  0  0  0
   87.3795   47.1960   46.6049 H   0  0  0  0  0  0  0  0  0  0  0  0
   87.0084   45.6386   51.9085 H   0  0  0  0  0  0  0  0  0  0  0  0
   87.7322   44.9092   54.5129 H   0  0  0  0  0  0  0  0  0  0  0  0
   89.2136   45.6553   53.8235 H   0  0  0  0  0  0  0  0  0  0  0  0
   87.6657   46.5666   53.8235 H   0  0  0  0  0  0  0  0  0  0  0  0
   87.1854   43.3413   53.6329 H   0  0  0  0  0  0  0  0  0  0  0  0
   86.2686   43.4458   52.0918 H   0  0  0  0  0  0  0  0  0  0  0  0
   87.9589   42.8381   52.0918 H   0  0  0  0  0  0  0  0  0  0  0  0
   90.0998   44.7363   48.8484 H   0  0  0  0  0  0  0  0  0  0  0  0
   85.5359   47.8378   46.6347 H   0  0  0  0  0  0  0  0  0  0  0  0
   83.4461   49.4278   46.6862 H   0  0  0  0  0  0  0  0  0  0  0  0
   82.6086   50.2760   48.7837 H   0  0  0  0  0  0  0  0  0  0  0  0
   83.8068   49.6191   51.0297 H   0  0  0  0  0  0  0  0  0  0  0  0
   85.7153   48.1437   50.9752 H   0  0  0  0  0  0  0  0  0  0  0  0
   86.8038   46.6328   50.8482 H   0  0  0  0  0  0  0  0  0  0  0  0
   89.6340   48.7777   52.6114 H   0  0  0  0  0  0  0  0  0  0  0  0
   90.5852   48.9157   51.0939 H   0  0  0  0  0  0  0  0  0  0  0  0
   89.0159   48.0415   51.0939 H   0  0  0  0  0  0  0  0  0  0  0  0
   93.2691   45.4613   53.1076 H   0  0  0  0  0  0  0  0  0  0  0  0
   91.3862   40.9430   51.8630 H   0  0  0  0  0  0  0  0  0  0  0  0
   89.7118   40.8828   51.2504 H   0  0  0  0  0  0  0  0  0  0  0  0
   91.0899   46.6565   47.1121 H   0  0  0  0  0  0  0  0  0  0  0  0
  1  2  1  0
  1 29  1  0
  2  3  2  0
  2  7  1  0
  3  8  1  0
  4  5  1  0
  4  6  1  0
 17  4  1  0
  7 16  2  0
  8  9  1  0
  8 15  2  0
  9 10  2  0
  9 14  1  0
 10 11  1  0
 11 12  2  0
 12 13  1  0
 13 14  2  0
 15 16  1  0
 17 16  1  6
 17 18  1  0
 17 23  1  0
 18 19  1  0
 18 21  2  0
 19 20  1  0
 19 25  2  0
 21 26  1  0
 21 30  1  0
 22 23  2  0
 22 27  1  0
 22 30  1  0
 23 24  1  0
 24 28  3  0
 25 26  1  0
  1 31  1  0
  1 32  1  0
  3 33  1  0
  4 34  1  6
  5 35  1  0
  5 36  1  0
  5 37  1  0
  6 38  1  0
  6 39  1  0
  6 40  1  0
  7 41  1  0
 10 42  1  0
 11 43  1  0
 12 44  1  0
 13 45  1  0
 14 46  1  0
 15 47  1  0
 20 48  1  0
 20 49  1  0
 20 50  1  0
 26 51  1  0
 27 52  1  0
 27 53  1  0
 29 54  1  0
M  END
>  <filename_input>  (11) 
7X5N_5M5_docked.sdf

>  <pdb_id>  (11) 
7X5N_5M5

>  <pose_rank>  (11) 
10

>  <num_atoms_heavy>  (11) 
30

>  <num_torsions>  (11) 
5

>  <pose>  (11) 
[88.91985551843722, 45.00461792892536, 51.30149649229843, 0.8365888970519291, 0.03082520667274679, -0.6169945664599215, -2.5754565900925357, -0.29832188893075207, 1.4048325091474183, -1.0996691783848505, 1.2237597327838152]

>  <energy>  (11) 
-294.3438738767128

>  <inter_energy>  (11) 
-348.1320886655623

>  <intra_energy>  (11) 
60.37843871579641

>  <rmsd>  (11) 
9.34709

>  <sdf_rank>  (11) 
0

$$$$

     RDKit          3D

 54 57  0  0  0  0  0  0  0  0999 V2000
   86.0993   45.4780   53.1411 C   0  0  0  0  0  0  0  0  0  0  0  0
   86.6443   46.1471   51.8714 C   0  0  0  0  0  0  0  0  0  0  0  0
   85.8723   46.9452   51.0349 C   0  0  0  0  0  0  0  0  0  0  0  0
   90.4381   46.9213   48.7696 C   0  0  2  0  0  0  0  0  0  0  0  0
   89.9695   46.1671   47.5144 C   0  0  0  0  0  0  0  0  0  0  0  0
   91.9643   47.0828   48.6852 C   0  0  0  0  0  0  0  0  0  0  0  0
   87.9769   45.9387   51.5652 C   0  0  0  0  0  0  0  0  0  0  0  0
   86.4628   47.5365   49.9219 C   0  0  0  0  0  0  0  0  0  0  0  0
   85.6429   48.4087   48.9695 C   0  0  0  0  0  0  0  0  0  0  0  0
   85.0214   49.4781   49.3973 C   0  0  0  0  0  0  0  0  0  0  0  0
   84.1999   50.3154   48.4181 C   0  0  0  0  0  0  0  0  0  0  0  0
   84.1103   49.9696   47.1523 C   0  0  0  0  0  0  0  0  0  0  0  0
   84.8273   48.7215   46.6588 C   0  0  0  0  0  0  0  0  0  0  0  0
   85.5373   48.0075   47.5052 C   0  0  0  0  0  0  0  0  0  0  0  0
   87.8026   47.3220   49.6264 C   0  0  0  0  0  0  0  0  0  0  0  0
   88.5760   46.5297   50.4602 C   0  0  0  0  0  0  0  0  0  0  0  0
   90.0303   46.2888   50.1241 C   0  0  1  0  0  0  0  0  0  0  0  0
   90.3904   44.7622   50.1933 C   0  0  0  0  0  0  0  0  0  0  0  0
   89.8821   43.6122   49.7674 C   0  0  0  0  0  0  0  0  0  0  0  0
   88.6009   43.3990   48.9477 C   0  0  0  0  0  0  0  0  0  0  0  0
   91.6277   44.4024   50.9513 C   0  0  0  0  0  0  0  0  0  0  0  0
   91.9807   46.4219   51.9293 C   0  0  0  0  0  0  0  0  0  0  0  0
   90.8552   47.0391   51.2038 C   0  0  0  0  0  0  0  0  0  0  0  0
   90.3201   48.3639   51.7200 C   0  0  0  0  0  0  0  0  0  0  0  0
   90.6086   42.5791   50.1317 N   0  0  0  0  0  0  0  0  0  0  0  0
   91.6957   42.9809   50.8794 N   0  0  0  0  0  0  0  0  0  0  0  0
   92.9198   47.3013   52.5923 N   0  0  0  0  0  0  0  0  0  0  0  0
   89.8993   49.3094   52.1613 N   0  0  0  0  0  0  0  0  0  0  0  0
   86.5139   44.1580   53.2601 O   0  0  0  0  0  0  0  0  0  0  0  0
   92.4700   45.2582   51.5662 O   0  0  0  0  0  0  0  0  0  0  0  0
   86.4537   46.0406   54.0175 H   0  0  0  0  0  0  0  0  0  0  0  0
   85.0011   45.4818   53.0789 H   0  0  0  0  0  0  0  0  0  0  0  0
   84.8059   47.1076   51.2503 H   0  0  0  0  0  0  0  0  0  0  0  0
   89.9189   47.8911   48.7661 H   0  0  0  0  0  0  0  0  0  0  0  0
   89.4110   45.2681   47.8140 H   0  0  0  0  0  0  0  0  0  0  0  0
   89.3183   46.8208   46.9156 H   0  0  0  0  0  0  0  0  0  0  0  0
   90.8441   45.8728   46.9156 H   0  0  0  0  0  0  0  0  0  0  0  0
   92.3849   47.1273   49.7006 H   0  0  0  0  0  0  0  0  0  0  0  0
   92.3946   46.2252   48.1473 H   0  0  0  0  0  0  0  0  0  0  0  0
   92.2055   48.0115   48.1473 H   0  0  0  0  0  0  0  0  0  0  0  0
   88.5791   45.2866   52.2150 H   0  0  0  0  0  0  0  0  0  0  0  0
   85.0901   49.7723   50.4550 H   0  0  0  0  0  0  0  0  0  0  0  0
   83.6784   51.2157   48.7752 H   0  0  0  0  0  0  0  0  0  0  0  0
   83.5196   50.5801   46.4534 H   0  0  0  0  0  0  0  0  0  0  0  0
   84.7525   48.4191   45.6039 H   0  0  0  0  0  0  0  0  0  0  0  0
   86.0619   47.1084   47.1498 H   0  0  0  0  0  0  0  0  0  0  0  0
   88.2495   47.7802   48.7317 H   0  0  0  0  0  0  0  0  0  0  0  0
   87.7490   43.2573   49.6290 H   0  0  0  0  0  0  0  0  0  0  0  0
   88.4206   44.2795   48.3135 H   0  0  0  0  0  0  0  0  0  0  0  0
   88.7155   42.5076   48.3135 H   0  0  0  0  0  0  0  0  0  0  0  0
   92.4133   42.3745   51.3016 H   0  0  0  0  0  0  0  0  0  0  0  0
   93.7186   46.9065   53.1089 H   0  0  0  0  0  0  0  0  0  0  0  0
   92.7893   48.3221   52.5474 H   0  0  0  0  0  0  0  0  0  0  0  0
   86.5884   43.9207   54.2183 H   0  0  0  0  0  0  0  0  0  0  0  0
  1  2  1  0
  1 29  1  0
  2  3  2  0
  2  7  1  0
  3  8  1  0
  4  5  1  0
  4  6  1  0
 17  4  1  0
  7 16  2  0
  8  9  1  0
  8 15  2  0
  9 10  2  0
  9 14  1  0
 10 11  1  0
 11 12  2  0
 12 13  1  0
 13 14  2  0
 15 16  1  0
 17 16  1  1
 17 18  1  0
 17 23  1  0
 18 19  1  0
 18 21  2  0
 19 20  1  0
 19 25  2  0
 21 26  1  0
 21 30  1  0
 22 23  2  0
 22 27  1  0
 22 30  1  0
 23 24  1  0
 24 28  3  0
 25 26  1  0
  1 31  1  0
  1 32  1  0
  3 33  1  0
  4 34  1  6
  5 35  1  0
  5 36  1  0
  5 37  1  0
  6 38  1  0
  6 39  1  0
  6 40  1  0
  7 41  1  0
 10 42  1  0
 11 43  1  0
 12 44  1  0
 13 45  1  0
 14 46  1  0
 15 47  1  0
 20 48  1  0
 20 49  1  0
 20 50  1  0
 26 51  1  0
 27 52  1  0
 27 53  1  0
 29 54  1  0
M  END
>  <filename_input>  (12) 
7X5N_5M5_docked.sdf

>  <pdb_id>  (12) 
7X5N_5M5

>  <pose_rank>  (12) 
11

>  <num_atoms_heavy>  (12) 
30

>  <num_torsions>  (12) 
5

>  <pose>  (12) 
[90.03026594920091, 46.28875562091966, 50.12408929053636, -2.131789732982533, -0.09097321989653134, -1.504159999511083, -3.0135652751346065, 0.4530995645430352, 2.1189671988797345, -0.16191748699350292, -2.8540293625932973]

>  <energy>  (12) 
-254.1885769300718

>  <inter_energy>  (12) 
-288.23908202130815

>  <intra_energy>  (12) 
42.628562535372524

>  <rmsd>  (12) 
9.4678

>  <sdf_rank>  (12) 
0

$$$$

     RDKit          3D

 54 57  0  0  0  0  0  0  0  0999 V2000
   90.5431   46.1837   52.7948 C   0  0  0  0  0  0  0  0  0  0  0  0
   89.5925   46.1228   51.5909 C   0  0  0  0  0  0  0  0  0  0  0  0
   88.4029   46.8385   51.5177 C   0  0  0  0  0  0  0  0  0  0  0  0
   91.0796   43.9008   48.2989 C   0  0  2  0  0  0  0  0  0  0  0  0
   92.0958   44.9652   47.8538 C   0  0  0  0  0  0  0  0  0  0  0  0
   91.3220   42.6334   47.4639 C   0  0  0  0  0  0  0  0  0  0  0  0
   89.9603   45.3139   50.5310 C   0  0  0  0  0  0  0  0  0  0  0  0
   87.6208   46.7445   50.3704 C   0  0  0  0  0  0  0  0  0  0  0  0
   86.2980   47.5046   50.2584 C   0  0  0  0  0  0  0  0  0  0  0  0
   85.6820   47.9510   51.3233 C   0  0  0  0  0  0  0  0  0  0  0  0
   84.3547   48.6926   51.1716 C   0  0  0  0  0  0  0  0  0  0  0  0
   83.8261   48.8835   49.9825 C   0  0  0  0  0  0  0  0  0  0  0  0
   84.5402   48.3568   48.7463 C   0  0  0  0  0  0  0  0  0  0  0  0
   85.6851   47.7237   48.8826 C   0  0  0  0  0  0  0  0  0  0  0  0
   88.0020   45.9309   49.3115 C   0  0  0  0  0  0  0  0  0  0  0  0
   89.1891   45.2188   49.3797 C   0  0  0  0  0  0  0  0  0  0  0  0
   89.5905   44.3238   48.2292 C   0  0  1  0  0  0  0  0  0  0  0  0
   89.2259   44.9692   46.8453 C   0  0  0  0  0  0  0  0  0  0  0  0
   89.3485   46.1484   46.2480 C   0  0  0  0  0  0  0  0  0  0  0  0
   89.9886   47.4246   46.8137 C   0  0  0  0  0  0  0  0  0  0  0  0
   88.5186   44.0899   45.8647 C   0  0  0  0  0  0  0  0  0  0  0  0
   88.0326   42.3845   47.2842 C   0  0  0  0  0  0  0  0  0  0  0  0
   88.7734   43.0143   48.3927 C   0  0  0  0  0  0  0  0  0  0  0  0
   88.5100   42.5067   49.8001 C   0  0  0  0  0  0  0  0  0  0  0  0
   88.8348   46.1517   45.0380 N   0  0  0  0  0  0  0  0  0  0  0  0
   88.2884   44.9229   44.7318 N   0  0  0  0  0  0  0  0  0  0  0  0
   87.6586   40.9935   47.4266 N   0  0  0  0  0  0  0  0  0  0  0  0
   88.2636   42.0869   50.8145 N   0  0  0  0  0  0  0  0  0  0  0  0
   91.6239   45.3228   52.6564 O   0  0  0  0  0  0  0  0  0  0  0  0
   88.1778   42.7971   46.0457 O   0  0  0  0  0  0  0  0  0  0  0  0
   90.9204   47.2120   52.8961 H   0  0  0  0  0  0  0  0  0  0  0  0
   89.9779   45.8739   53.6862 H   0  0  0  0  0  0  0  0  0  0  0  0
   88.0831   47.4724   52.3579 H   0  0  0  0  0  0  0  0  0  0  0  0
   91.2534   43.7288   49.3714 H   0  0  0  0  0  0  0  0  0  0  0  0
   92.5455   45.4363   48.7403 H   0  0  0  0  0  0  0  0  0  0  0  0
   92.8841   44.4903   47.2513 H   0  0  0  0  0  0  0  0  0  0  0  0
   91.5848   45.7307   47.2513 H   0  0  0  0  0  0  0  0  0  0  0  0
   91.4857   41.7776   48.1354 H   0  0  0  0  0  0  0  0  0  0  0  0
   90.4448   42.4390   46.8293 H   0  0  0  0  0  0  0  0  0  0  0  0
   92.2091   42.7765   46.8293 H   0  0  0  0  0  0  0  0  0  0  0  0
   90.8895   44.7294   50.6019 H   0  0  0  0  0  0  0  0  0  0  0  0
   86.1170   47.7933   52.3213 H   0  0  0  0  0  0  0  0  0  0  0  0
   83.8363   49.0704   52.0653 H   0  0  0  0  0  0  0  0  0  0  0  0
   82.8720   49.4216   49.8820 H   0  0  0  0  0  0  0  0  0  0  0  0
   84.1029   48.5042   47.7478 H   0  0  0  0  0  0  0  0  0  0  0  0
   86.2066   47.3475   47.9901 H   0  0  0  0  0  0  0  0  0  0  0  0
   87.3627   45.8517   48.4198 H   0  0  0  0  0  0  0  0  0  0  0  0
   89.9702   47.3879   47.9130 H   0  0  0  0  0  0  0  0  0  0  0  0
   91.0299   47.4974   46.4667 H   0  0  0  0  0  0  0  0  0  0  0  0
   89.4243   48.3028   46.4667 H   0  0  0  0  0  0  0  0  0  0  0  0
   87.8096   44.6599   43.8586 H   0  0  0  0  0  0  0  0  0  0  0  0
   87.1404   40.5198   46.6730 H   0  0  0  0  0  0  0  0  0  0  0  0
   87.9106   40.4774   48.2816 H   0  0  0  0  0  0  0  0  0  0  0  0
   91.9536   45.0603   53.5522 H   0  0  0  0  0  0  0  0  0  0  0  0
  1  2  1  0
  1 29  1  0
  2  3  2  0
  2  7  1  0
  3  8  1  0
  4  5  1  0
  4  6  1  0
 17  4  1  0
  7 16  2  0
  8  9  1  0
  8 15  2  0
  9 10  2  0
  9 14  1  0
 10 11  1  0
 11 12  2  0
 12 13  1  0
 13 14  2  0
 15 16  1  0
 17 16  1  1
 17 18  1  0
 17 23  1  0
 18 19  1  0
 18 21  2  0
 19 20  1  0
 19 25  2  0
 21 26  1  0
 21 30  1  0
 22 23  2  0
 22 27  1  0
 22 30  1  0
 23 24  1  0
 24 28  3  0
 25 26  1  0
  1 31  1  0
  1 32  1  0
  3 33  1  0
  4 34  1  1
  5 35  1  0
  5 36  1  0
  5 37  1  0
  6 38  1  0
  6 39  1  0
  6 40  1  0
  7 41  1  0
 10 42  1  0
 11 43  1  0
 12 44  1  0
 13 45  1  0
 14 46  1  0
 15 47  1  0
 20 48  1  0
 20 49  1  0
 20 50  1  0
 26 51  1  0
 27 52  1  0
 27 53  1  0
 29 54  1  0
M  END
>  <filename_input>  (13) 
7X5N_5M5_docked.sdf

>  <pdb_id>  (13) 
7X5N_5M5

>  <pose_rank>  (13) 
12

>  <num_atoms_heavy>  (13) 
30

>  <num_torsions>  (13) 
5

>  <pose>  (13) 
[89.59048701963405, 44.32376033436007, 48.22917482256508, 0.13641879050308953, -2.915323262867531, 2.1311252761609034, -0.05926469656470691, 5.376236469953641, 2.8314485540591905, -0.18583781931807725, -1.7342267004969236]

>  <energy>  (13) 
-222.87194232154621

>  <inter_energy>  (13) 
-266.8045613516526

>  <intra_energy>  (13) 
45.111286646782105

>  <rmsd>  (13) 
11.0008

>  <sdf_rank>  (13) 
0

$$$$

     RDKit          3D

 54 57  0  0  0  0  0  0  0  0999 V2000
   87.8905   44.0624   46.5258 C   0  0  0  0  0  0  0  0  0  0  0  0
   87.7550   44.8643   47.8278 C   0  0  0  0  0  0  0  0  0  0  0  0
   86.8076   45.8641   48.0161 C   0  0  0  0  0  0  0  0  0  0  0  0
   89.5037   45.9208   52.3389 C   0  0  2  0  0  0  0  0  0  0  0  0
   88.3204   45.8291   53.3163 C   0  0  0  0  0  0  0  0  0  0  0  0
   89.5277   47.3417   51.7533 C   0  0  0  0  0  0  0  0  0  0  0  0
   88.6254   44.5560   48.8576 C   0  0  0  0  0  0  0  0  0  0  0  0
   86.7394   46.5155   49.2441 C   0  0  0  0  0  0  0  0  0  0  0  0
   85.7208   47.6312   49.4847 C   0  0  0  0  0  0  0  0  0  0  0  0
   85.1966   48.2955   48.4863 C   0  0  0  0  0  0  0  0  0  0  0  0
   84.1937   49.4134   48.7680 C   0  0  0  0  0  0  0  0  0  0  0  0
   83.8555   49.7145   50.0029 C   0  0  0  0  0  0  0  0  0  0  0  0
   84.4722   48.9460   51.1624 C   0  0  0  0  0  0  0  0  0  0  0  0
   85.3310   47.9812   50.9137 C   0  0  0  0  0  0  0  0  0  0  0  0
   87.6171   46.1953   50.2715 C   0  0  0  0  0  0  0  0  0  0  0  0
   88.5605   45.1966   50.0883 C   0  0  0  0  0  0  0  0  0  0  0  0
   89.5223   44.8634   51.2063 C   0  0  1  0  0  0  0  0  0  0  0  0
   90.9724   44.6108   50.6603 C   0  0  0  0  0  0  0  0  0  0  0  0
   91.8200   45.1891   49.8181 C   0  0  0  0  0  0  0  0  0  0  0  0
   91.6078   46.4783   49.0108 C   0  0  0  0  0  0  0  0  0  0  0  0
   91.6674   43.3834   51.1556 C   0  0  0  0  0  0  0  0  0  0  0  0
   89.8723   42.3944   52.1351 C   0  0  0  0  0  0  0  0  0  0  0  0
   89.0020   43.5498   51.8491 C   0  0  0  0  0  0  0  0  0  0  0  0
   87.4996   43.3465   51.9443 C   0  0  0  0  0  0  0  0  0  0  0  0
   92.9477   44.5228   49.7076 N   0  0  0  0  0  0  0  0  0  0  0  0
   92.9270   43.3868   50.4895 N   0  0  0  0  0  0  0  0  0  0  0  0
   89.3969   41.4097   53.0833 N   0  0  0  0  0  0  0  0  0  0  0  0
   86.3993   43.1240   52.0204 N   0  0  0  0  0  0  0  0  0  0  0  0
   87.0395   44.5258   45.5310 O   0  0  0  0  0  0  0  0  0  0  0  0
   91.1789   42.4833   52.0340 O   0  0  0  0  0  0  0  0  0  0  0  0
   88.9280   44.1403   46.1685 H   0  0  0  0  0  0  0  0  0  0  0  0
   87.6180   43.0190   46.7430 H   0  0  0  0  0  0  0  0  0  0  0  0
   86.1190   46.1375   47.2030 H   0  0  0  0  0  0  0  0  0  0  0  0
   90.4103   45.6980   52.9206 H   0  0  0  0  0  0  0  0  0  0  0  0
   88.6955   45.8582   54.3499 H   0  0  0  0  0  0  0  0  0  0  0  0
   87.6402   46.6772   53.1491 H   0  0  0  0  0  0  0  0  0  0  0  0
   87.7790   44.8863   53.1491 H   0  0  0  0  0  0  0  0  0  0  0  0
   89.5401   48.0757   52.5724 H   0  0  0  0  0  0  0  0  0  0  0  0
   90.4281   47.4680   51.1341 H   0  0  0  0  0  0  0  0  0  0  0  0
   88.6321   47.4983   51.1341 H   0  0  0  0  0  0  0  0  0  0  0  0
   89.3903   43.7819   48.6974 H   0  0  0  0  0  0  0  0  0  0  0  0
   85.4762   48.0506   47.4510 H   0  0  0  0  0  0  0  0  0  0  0  0
   83.7504   49.9716   47.9302 H   0  0  0  0  0  0  0  0  0  0  0  0
   83.1301   50.5183   50.1965 H   0  0  0  0  0  0  0  0  0  0  0  0
   84.2023   49.1950   52.1993 H   0  0  0  0  0  0  0  0  0  0  0  0
   85.7735   47.4198   51.7498 H   0  0  0  0  0  0  0  0  0  0  0  0
   87.5635   46.7334   51.2294 H   0  0  0  0  0  0  0  0  0  0  0  0
   91.4686   47.3240   49.7004 H   0  0  0  0  0  0  0  0  0  0  0  0
   92.4876   46.6630   48.3770 H   0  0  0  0  0  0  0  0  0  0  0  0
   90.7152   46.3712   48.3770 H   0  0  0  0  0  0  0  0  0  0  0  0
   93.6730   42.6818   50.5749 H   0  0  0  0  0  0  0  0  0  0  0  0
   89.9773   40.5891   53.3082 H   0  0  0  0  0  0  0  0  0  0  0  0
   88.4781   41.5295   53.5331 H   0  0  0  0  0  0  0  0  0  0  0  0
   86.2501   44.9556   45.9459 H   0  0  0  0  0  0  0  0  0  0  0  0
  1  2  1  0
  1 29  1  0
  2  3  2  0
  2  7  1  0
  3  8  1  0
  4  5  1  0
  4  6  1  0
 17  4  1  0
  7 16  2  0
  8  9  1  0
  8 15  2  0
  9 10  2  0
  9 14  1  0
 10 11  1  0
 11 12  2  0
 12 13  1  0
 13 14  2  0
 15 16  1  0
 17 16  1  6
 17 18  1  0
 17 23  1  0
 18 19  1  0
 18 21  2  0
 19 20  1  0
 19 25  2  0
 21 26  1  0
 21 30  1  0
 22 23  2  0
 22 27  1  0
 22 30  1  0
 23 24  1  0
 24 28  3  0
 25 26  1  0
  1 31  1  0
  1 32  1  0
  3 33  1  0
  4 34  1  1
  5 35  1  0
  5 36  1  0
  5 37  1  0
  6 38  1  0
  6 39  1  0
  6 40  1  0
  7 41  1  0
 10 42  1  0
 11 43  1  0
 12 44  1  0
 13 45  1  0
 14 46  1  0
 15 47  1  0
 20 48  1  0
 20 49  1  0
 20 50  1  0
 26 51  1  0
 27 52  1  0
 27 53  1  0
 29 54  1  0
M  END
>  <filename_input>  (14) 
7X5N_5M5_docked.sdf

>  <pdb_id>  (14) 
7X5N_5M5

>  <pose_rank>  (14) 
13

>  <num_atoms_heavy>  (14) 
30

>  <num_torsions>  (14) 
5

>  <pose>  (14) 
[89.52228516434536, 44.86337286603892, 51.20632602983134, 0.06664871536665878, 0.1618468859867278, -1.4001989027287036, 9.412502105374486, -0.9589514994393559, -0.16390291540072982, 2.530258135414666, -1.8414421404196004]

>  <energy>  (14) 
-201.55939588582777

>  <inter_energy>  (14) 
-289.25876133410424

>  <intra_energy>  (14) 
92.39846979653511

>  <rmsd>  (14) 
9.60007

>  <sdf_rank>  (14) 
0

$$$$

     RDKit          3D

 54 57  0  0  0  0  0  0  0  0999 V2000
   87.6665   42.6059   46.5418 C   0  0  0  0  0  0  0  0  0  0  0  0
   88.5301   43.7042   47.1778 C   0  0  0  0  0  0  0  0  0  0  0  0
   89.3028   44.5940   46.4400 C   0  0  0  0  0  0  0  0  0  0  0  0
   90.3593   45.7923   51.2780 C   0  0  2  0  0  0  0  0  0  0  0  0
   91.7887   45.2477   51.1218 C   0  0  0  0  0  0  0  0  0  0  0  0
   90.1318   46.1115   52.7641 C   0  0  0  0  0  0  0  0  0  0  0  0
   88.5197   43.8019   48.5573 C   0  0  0  0  0  0  0  0  0  0  0  0
   90.0290   45.5783   47.1039 C   0  0  0  0  0  0  0  0  0  0  0  0
   90.9026   46.5659   46.3283 C   0  0  0  0  0  0  0  0  0  0  0  0
   90.5434   47.8157   46.1809 C   0  0  0  0  0  0  0  0  0  0  0  0
   91.4357   48.7682   45.3864 C   0  0  0  0  0  0  0  0  0  0  0  0
   92.5579   48.3428   44.8484 C   0  0  0  0  0  0  0  0  0  0  0  0
   92.9696   46.8873   45.0144 C   0  0  0  0  0  0  0  0  0  0  0  0
   92.2002   46.0732   45.7038 C   0  0  0  0  0  0  0  0  0  0  0  0
   90.0084   45.6680   48.4895 C   0  0  0  0  0  0  0  0  0  0  0  0
   89.2364   44.7847   49.2278 C   0  0  0  0  0  0  0  0  0  0  0  0
   89.2304   44.8792   50.7368 C   0  0  1  0  0  0  0  0  0  0  0  0
   89.2539   43.4570   51.4013 C   0  0  0  0  0  0  0  0  0  0  0  0
   89.9233   42.3189   51.2638 C   0  0  0  0  0  0  0  0  0  0  0  0
   91.0521   42.0085   50.2696 C   0  0  0  0  0  0  0  0  0  0  0  0
   88.2624   43.2144   52.4936 C   0  0  0  0  0  0  0  0  0  0  0  0
   86.9982   45.0740   52.1721 C   0  0  0  0  0  0  0  0  0  0  0  0
   87.9008   45.5812   51.1222 C   0  0  0  0  0  0  0  0  0  0  0  0
   87.3807   46.6784   50.2093 C   0  0  0  0  0  0  0  0  0  0  0  0
   89.5150   41.3941   52.1040 N   0  0  0  0  0  0  0  0  0  0  0  0
   88.4812   41.8627   52.8875 N   0  0  0  0  0  0  0  0  0  0  0  0
   86.0264   45.9915   52.7277 N   0  0  0  0  0  0  0  0  0  0  0  0
   86.9310   47.4856   49.5674 N   0  0  0  0  0  0  0  0  0  0  0  0
   86.7324   43.1197   45.6519 O   0  0  0  0  0  0  0  0  0  0  0  0
   87.3634   44.0989   52.9728 O   0  0  0  0  0  0  0  0  0  0  0  0
   88.3230   41.9078   46.0017 H   0  0  0  0  0  0  0  0  0  0  0  0
   87.1186   42.0984   47.3494 H   0  0  0  0  0  0  0  0  0  0  0  0
   89.3397   44.5207   45.3431 H   0  0  0  0  0  0  0  0  0  0  0  0
   90.2945   46.6913   50.6474 H   0  0  0  0  0  0  0  0  0  0  0  0
   92.2280   45.0804   52.1163 H   0  0  0  0  0  0  0  0  0  0  0  0
   91.7606   44.2973   50.5687 H   0  0  0  0  0  0  0  0  0  0  0  0
   92.4001   45.9759   50.5687 H   0  0  0  0  0  0  0  0  0  0  0  0
   90.6596   45.3710   53.3831 H   0  0  0  0  0  0  0  0  0  0  0  0
   90.5179   47.1172   52.9864 H   0  0  0  0  0  0  0  0  0  0  0  0
   89.0552   46.0746   52.9864 H   0  0  0  0  0  0  0  0  0  0  0  0
   87.9273   43.0809   49.1399 H   0  0  0  0  0  0  0  0  0  0  0  0
   89.6052   48.1782   46.6263 H   0  0  0  0  0  0  0  0  0  0  0  0
   91.1366   49.8196   45.2631 H   0  0  0  0  0  0  0  0  0  0  0  0
   93.1962   49.0361   44.2810 H   0  0  0  0  0  0  0  0  0  0  0  0
   93.9023   46.5193   44.5619 H   0  0  0  0  0  0  0  0  0  0  0  0
   92.4985   45.0221   45.8308 H   0  0  0  0  0  0  0  0  0  0  0  0
   90.6038   46.4389   49.0005 H   0  0  0  0  0  0  0  0  0  0  0  0
   91.9688   41.7564   50.8228 H   0  0  0  0  0  0  0  0  0  0  0  0
   90.7598   41.1574   49.6370 H   0  0  0  0  0  0  0  0  0  0  0  0
   91.2360   42.8894   49.6370 H   0  0  0  0  0  0  0  0  0  0  0  0
   87.9695   41.3399   53.6126 H   0  0  0  0  0  0  0  0  0  0  0  0
   85.3790   45.6730   53.4629 H   0  0  0  0  0  0  0  0  0  0  0  0
   85.9822   46.9628   52.3880 H   0  0  0  0  0  0  0  0  0  0  0  0
   85.9864   43.5301   46.1570 H   0  0  0  0  0  0  0  0  0  0  0  0
  1  2  1  0
  1 29  1  0
  2  3  2  0
  2  7  1  0
  3  8  1  0
  4  5  1  0
  4  6  1  0
 17  4  1  0
  7 16  2  0
  8  9  1  0
  8 15  2  0
  9 10  2  0
  9 14  1  0
 10 11  1  0
 11 12  2  0
 12 13  1  0
 13 14  2  0
 15 16  1  0
 17 16  1  6
 17 18  1  0
 17 23  1  0
 18 19  1  0
 18 21  2  0
 19 20  1  0
 19 25  2  0
 21 26  1  0
 21 30  1  0
 22 23  2  0
 22 27  1  0
 22 30  1  0
 23 24  1  0
 24 28  3  0
 25 26  1  0
  1 31  1  0
  1 32  1  0
  3 33  1  0
  4 34  1  6
  5 35  1  0
  5 36  1  0
  5 37  1  0
  6 38  1  0
  6 39  1  0
  6 40  1  0
  7 41  1  0
 10 42  1  0
 11 43  1  0
 12 44  1  0
 13 45  1  0
 14 46  1  0
 15 47  1  0
 20 48  1  0
 20 49  1  0
 20 50  1  0
 26 51  1  0
 27 52  1  0
 27 53  1  0
 29 54  1  0
M  END
>  <filename_input>  (15) 
7X5N_5M5_docked.sdf

>  <pdb_id>  (15) 
7X5N_5M5

>  <pose_rank>  (15) 
14

>  <num_atoms_heavy>  (15) 
30

>  <num_torsions>  (15) 
5

>  <pose>  (15) 
[89.23037872229341, 44.87916753501351, 50.73680377256939, 0.18555983716082608, 1.1996924011374284, 3.29949859056678, -3.1608874704633942, 1.2923123480100909, -1.2605090826520469, -0.044041660611517194, -1.728209274730544]

>  <energy>  (15) 
-169.7341126312077

>  <inter_energy>  (15) 
-218.10739610353582

>  <intra_energy>  (15) 
45.86907232941433

>  <rmsd>  (15) 
10.5282

>  <sdf_rank>  (15) 
0

$$$$

     RDKit          3D

 54 57  0  0  0  0  0  0  0  0999 V2000
   87.3980   43.6608   53.1811 C   0  0  0  0  0  0  0  0  0  0  0  0
   87.9851   44.7343   52.2539 C   0  0  0  0  0  0  0  0  0  0  0  0
   88.9755   45.6272   52.6472 C   0  0  0  0  0  0  0  0  0  0  0  0
   86.6120   44.5191   48.2496 C   0  0  2  0  0  0  0  0  0  0  0  0
   87.4201   43.3254   47.7150 C   0  0  0  0  0  0  0  0  0  0  0  0
   85.5381   44.8710   47.2079 C   0  0  0  0  0  0  0  0  0  0  0  0
   87.4952   44.7953   50.9619 C   0  0  0  0  0  0  0  0  0  0  0  0
   89.4694   46.5460   51.7259 C   0  0  0  0  0  0  0  0  0  0  0  0
   90.5481   47.5545   52.1250 C   0  0  0  0  0  0  0  0  0  0  0  0
   90.2314   48.7499   52.5534 C   0  0  0  0  0  0  0  0  0  0  0  0
   91.3382   49.7345   52.9282 C   0  0  0  0  0  0  0  0  0  0  0  0
   92.6036   49.3922   52.8218 C   0  0  0  0  0  0  0  0  0  0  0  0
   92.9696   48.0045   52.3161 C   0  0  0  0  0  0  0  0  0  0  0  0
   92.0126   47.1593   51.9998 C   0  0  0  0  0  0  0  0  0  0  0  0
   88.9713   46.5957   50.4305 C   0  0  0  0  0  0  0  0  0  0  0  0
   87.9864   45.7047   50.0341 C   0  0  0  0  0  0  0  0  0  0  0  0
   87.4387   45.7744   48.6266 C   0  0  1  0  0  0  0  0  0  0  0  0
   88.5740   46.0672   47.5825 C   0  0  0  0  0  0  0  0  0  0  0  0
   89.7971   45.6282   47.3114 C   0  0  0  0  0  0  0  0  0  0  0  0
   90.5832   44.5300   48.0426 C   0  0  0  0  0  0  0  0  0  0  0  0
   88.2998   47.1451   46.5835 C   0  0  0  0  0  0  0  0  0  0  0  0
   86.4379   47.9996   47.5648 C   0  0  0  0  0  0  0  0  0  0  0  0
   86.4359   46.9589   48.6094 C   0  0  0  0  0  0  0  0  0  0  0  0
   85.5956   47.2026   49.8513 C   0  0  0  0  0  0  0  0  0  0  0  0
   90.3388   46.2555   46.2912 N   0  0  0  0  0  0  0  0  0  0  0  0
   89.4846   47.2182   45.7954 N   0  0  0  0  0  0  0  0  0  0  0  0
   85.2427   48.8008   47.4081 N   0  0  0  0  0  0  0  0  0  0  0  0
   84.9772   47.3113   50.7849 N   0  0  0  0  0  0  0  0  0  0  0  0
   86.2148   44.0725   53.7803 O   0  0  0  0  0  0  0  0  0  0  0  0
   87.1712   47.8775   46.4820 O   0  0  0  0  0  0  0  0  0  0  0  0
   87.1989   42.7540   52.5910 H   0  0  0  0  0  0  0  0  0  0  0  0
   88.1302   43.4678   53.9789 H   0  0  0  0  0  0  0  0  0  0  0  0
   89.3647   45.6077   53.6759 H   0  0  0  0  0  0  0  0  0  0  0  0
   86.1717   44.1983   49.2052 H   0  0  0  0  0  0  0  0  0  0  0  0
   87.8150   42.7421   48.5599 H   0  0  0  0  0  0  0  0  0  0  0  0
   86.7680   42.6865   47.1013 H   0  0  0  0  0  0  0  0  0  0  0  0
   88.2555   43.6935   47.1013 H   0  0  0  0  0  0  0  0  0  0  0  0
   84.6139   45.1738   47.7219 H   0  0  0  0  0  0  0  0  0  0  0  0
   85.8955   45.6990   46.5781 H   0  0  0  0  0  0  0  0  0  0  0  0
   85.3362   43.9920   46.5781 H   0  0  0  0  0  0  0  0  0  0  0  0
   86.6941   44.1042   50.6608 H   0  0  0  0  0  0  0  0  0  0  0  0
   89.1753   49.0439   52.6430 H   0  0  0  0  0  0  0  0  0  0  0  0
   91.0741   50.7390   53.2904 H   0  0  0  0  0  0  0  0  0  0  0  0
   93.3940   50.1059   53.0972 H   0  0  0  0  0  0  0  0  0  0  0  0
   94.0249   47.7108   52.2159 H   0  0  0  0  0  0  0  0  0  0  0  0
   92.2742   46.1532   51.6400 H   0  0  0  0  0  0  0  0  0  0  0  0
   89.3580   47.3412   49.7200 H   0  0  0  0  0  0  0  0  0  0  0  0
   90.4835   44.6693   49.1292 H   0  0  0  0  0  0  0  0  0  0  0  0
   90.1843   43.5443   47.7612 H   0  0  0  0  0  0  0  0  0  0  0  0
   91.6449   44.5898   47.7612 H   0  0  0  0  0  0  0  0  0  0  0  0
   89.6667   47.8615   45.0118 H   0  0  0  0  0  0  0  0  0  0  0  0
   85.2071   49.5373   46.6888 H   0  0  0  0  0  0  0  0  0  0  0  0
   84.4279   48.6346   48.0158 H   0  0  0  0  0  0  0  0  0  0  0  0
   86.3140   44.0380   54.7647 H   0  0  0  0  0  0  0  0  0  0  0  0
  1  2  1  0
  1 29  1  0
  2  3  2  0
  2  7  1  0
  3  8  1  0
  4  5  1  0
  4  6  1  0
 17  4  1  0
  7 16  2  0
  8  9  1  0
  8 15  2  0
  9 10  2  0
  9 14  1  0
 10 11  1  0
 11 12  2  0
 12 13  1  0
 13 14  2  0
 15 16  1  0
 17 16  1  1
 17 18  1  0
 17 23  1  0
 18 19  1  0
 18 21  2  0
 19 20  1  0
 19 25  2  0
 21 26  1  0
 21 30  1  0
 22 23  2  0
 22 27  1  0
 22 30  1  0
 23 24  1  0
 24 28  3  0
 25 26  1  0
  1 31  1  0
  1 32  1  0
  3 33  1  0
  4 34  1  1
  5 35  1  0
  5 36  1  0
  5 37  1  0
  6 38  1  0
  6 39  1  0
  6 40  1  0
  7 41  1  0
 10 42  1  0
 11 43  1  0
 12 44  1  0
 13 45  1  0
 14 46  1  0
 15 47  1  0
 20 48  1  0
 20 49  1  0
 20 50  1  0
 26 51  1  0
 27 52  1  0
 27 53  1  0
 29 54  1  0
M  END
>  <filename_input>  (16) 
7X5N_5M5_docked.sdf

>  <pdb_id>  (16) 
7X5N_5M5

>  <pose_rank>  (16) 
15

>  <num_atoms_heavy>  (16) 
30

>  <num_torsions>  (16) 
5

>  <pose>  (16) 
[87.43871995982312, 45.77435682875457, 48.62658494862731, 2.603090008516785, 2.1939136425641363, -1.486647047367002, -0.039622570300522054, -2.192158661509685, 1.4298536083521254, -0.3214732924650892, 1.1642924443899625]

>  <energy>  (16) 
-214.7375888891557

>  <inter_energy>  (16) 
-245.68702014319175

>  <intra_energy>  (16) 
45.84245741127466

>  <rmsd>  (16) 
9.90055

>  <sdf_rank>  (16) 
0

$$$$

     RDKit          3D

 54 57  0  0  0  0  0  0  0  0999 V2000
   91.1841   47.2138   47.2490 C   0  0  0  0  0  0  0  0  0  0  0  0
   90.1700   46.3497   48.0116 C   0  0  0  0  0  0  0  0  0  0  0  0
   90.2518   44.9641   48.0916 C   0  0  0  0  0  0  0  0  0  0  0  0
   86.2765   46.1196   51.0728 C   0  0  2  0  0  0  0  0  0  0  0  0
   84.9131   46.6488   51.5470 C   0  0  0  0  0  0  0  0  0  0  0  0
   87.1306   45.8243   52.3160 C   0  0  0  0  0  0  0  0  0  0  0  0
   89.1324   47.0030   48.6515 C   0  0  0  0  0  0  0  0  0  0  0  0
   89.3028   44.2674   48.8338 C   0  0  0  0  0  0  0  0  0  0  0  0
   89.3505   42.7416   48.9331 C   0  0  0  0  0  0  0  0  0  0  0  0
   90.4060   42.1269   49.4030 C   0  0  0  0  0  0  0  0  0  0  0  0
   90.4214   40.6005   49.4723 C   0  0  0  0  0  0  0  0  0  0  0  0
   89.3859   39.9009   49.0624 C   0  0  0  0  0  0  0  0  0  0  0  0
   88.1628   40.6174   48.5091 C   0  0  0  0  0  0  0  0  0  0  0  0
   88.1532   41.9317   48.4567 C   0  0  0  0  0  0  0  0  0  0  0  0
   88.2671   44.9348   49.4743 C   0  0  0  0  0  0  0  0  0  0  0  0
   88.1845   46.3164   49.3994 C   0  0  0  0  0  0  0  0  0  0  0  0
   87.0458   47.0350   50.0871 C   0  0  1  0  0  0  0  0  0  0  0  0
   86.0875   47.7187   49.0484 C   0  0  0  0  0  0  0  0  0  0  0  0
   85.4794   47.3980   47.9128 C   0  0  0  0  0  0  0  0  0  0  0  0
   85.5315   46.0564   47.1670 C   0  0  0  0  0  0  0  0  0  0  0  0
   85.7162   49.1413   49.3191 C   0  0  0  0  0  0  0  0  0  0  0  0
   87.2279   49.5397   50.9670 C   0  0  0  0  0  0  0  0  0  0  0  0
   87.6955   48.1413   50.9607 C   0  0  0  0  0  0  0  0  0  0  0  0
   89.0234   47.8347   51.6319 C   0  0  0  0  0  0  0  0  0  0  0  0
   84.7743   48.3942   47.4246 N   0  0  0  0  0  0  0  0  0  0  0  0
   84.8808   49.5118   48.2258 N   0  0  0  0  0  0  0  0  0  0  0  0
   87.6125   50.3749   52.0848 N   0  0  0  0  0  0  0  0  0  0  0  0
   90.0096   47.6777   52.1502 N   0  0  0  0  0  0  0  0  0  0  0  0
   90.7095   47.6085   46.0050 O   0  0  0  0  0  0  0  0  0  0  0  0
   86.1098   49.8875   50.3720 O   0  0  0  0  0  0  0  0  0  0  0  0
   91.4030   48.1118   47.8454 H   0  0  0  0  0  0  0  0  0  0  0  0
   92.0884   46.6087   47.0880 H   0  0  0  0  0  0  0  0  0  0  0  0
   91.0583   44.4242   47.5738 H   0  0  0  0  0  0  0  0  0  0  0  0
   86.0746   45.2121   50.4848 H   0  0  0  0  0  0  0  0  0  0  0  0
   84.8862   46.6592   52.6466 H   0  0  0  0  0  0  0  0  0  0  0  0
   84.7638   47.6701   51.1668 H   0  0  0  0  0  0  0  0  0  0  0  0
   84.1139   45.9956   51.1668 H   0  0  0  0  0  0  0  0  0  0  0  0
   86.5414   46.0280   53.2224 H   0  0  0  0  0  0  0  0  0  0  0  0
   87.4372   44.7679   52.3078 H   0  0  0  0  0  0  0  0  0  0  0  0
   88.0243   46.4656   52.3078 H   0  0  0  0  0  0  0  0  0  0  0  0
   89.0557   48.0970   48.5659 H   0  0  0  0  0  0  0  0  0  0  0  0
   91.2765   42.7053   49.7459 H   0  0  0  0  0  0  0  0  0  0  0  0
   91.3068   40.0820   49.8689 H   0  0  0  0  0  0  0  0  0  0  0  0
   89.4039   38.8025   49.1192 H   0  0  0  0  0  0  0  0  0  0  0  0
   87.2946   40.0415   48.1562 H   0  0  0  0  0  0  0  0  0  0  0  0
   87.2678   42.4525   48.0631 H   0  0  0  0  0  0  0  0  0  0  0  0
   87.5132   44.3679   50.0402 H   0  0  0  0  0  0  0  0  0  0  0  0
   85.5634   45.2329   47.8956 H   0  0  0  0  0  0  0  0  0  0  0  0
   84.6367   45.9529   46.5357 H   0  0  0  0  0  0  0  0  0  0  0  0
   86.4316   46.0225   46.5357 H   0  0  0  0  0  0  0  0  0  0  0  0
   84.4438   50.4307   48.0658 H   0  0  0  0  0  0  0  0  0  0  0  0
   87.3046   51.3570   52.1237 H   0  0  0  0  0  0  0  0  0  0  0  0
   88.1941   49.9871   52.8413 H   0  0  0  0  0  0  0  0  0  0  0  0
   89.9538   48.2368   46.1243 H   0  0  0  0  0  0  0  0  0  0  0  0
  1  2  1  0
  1 29  1  0
  2  3  2  0
  2  7  1  0
  3  8  1  0
  4  5  1  0
  4  6  1  0
 17  4  1  0
  7 16  2  0
  8  9  1  0
  8 15  2  0
  9 10  2  0
  9 14  1  0
 10 11  1  0
 11 12  2  0
 12 13  1  0
 13 14  2  0
 15 16  1  0
 17 16  1  6
 17 18  1  0
 17 23  1  0
 18 19  1  0
 18 21  2  0
 19 20  1  0
 19 25  2  0
 21 26  1  0
 21 30  1  0
 22 23  2  0
 22 27  1  0
 22 30  1  0
 23 24  1  0
 24 28  3  0
 25 26  1  0
  1 31  1  0
  1 32  1  0
  3 33  1  0
  4 34  1  6
  5 35  1  0
  5 36  1  0
  5 37  1  0
  6 38  1  0
  6 39  1  0
  6 40  1  0
  7 41  1  0
 10 42  1  0
 11 43  1  0
 12 44  1  0
 13 45  1  0
 14 46  1  0
 15 47  1  0
 20 48  1  0
 20 49  1  0
 20 50  1  0
 26 51  1  0
 27 52  1  0
 27 53  1  0
 29 54  1  0
M  END
>  <filename_input>  (17) 
7X5N_5M5_docked.sdf

>  <pdb_id>  (17) 
7X5N_5M5

>  <pose_rank>  (17) 
16

>  <num_atoms_heavy>  (17) 
30

>  <num_torsions>  (17) 
5

>  <pose>  (17) 
[87.04580854032567, 47.03498753586949, 50.08708592371954, 1.6284910930550573, 0.6103718119948269, -4.545526762818464, 3.569114720405527, 0.44079083917304884, -4.774157191482837, -1.7202235873384717, -1.587378711873211]

>  <energy>  (17) 
-191.12233663982306

>  <inter_energy>  (17) 
-234.55589105391152

>  <intra_energy>  (17) 
60.818476757339724

>  <rmsd>  (17) 
9.1641

>  <sdf_rank>  (17) 
0

$$$$

     RDKit          3D

 54 57  0  0  0  0  0  0  0  0999 V2000
   79.5542   48.7395   45.4522 C   0  0  0  0  0  0  0  0  0  0  0  0
   78.8007   48.1475   46.6516 C   0  0  0  0  0  0  0  0  0  0  0  0
   79.3442   48.0565   47.9280 C   0  0  0  0  0  0  0  0  0  0  0  0
   74.5757   46.3457   48.5236 C   0  0  2  0  0  0  0  0  0  0  0  0
   74.6313   44.8781   48.9786 C   0  0  0  0  0  0  0  0  0  0  0  0
   73.0980   46.7539   48.4140 C   0  0  0  0  0  0  0  0  0  0  0  0
   77.5130   47.6934   46.4319 C   0  0  0  0  0  0  0  0  0  0  0  0
   78.5724   47.5334   48.9613 C   0  0  0  0  0  0  0  0  0  0  0  0
   79.1402   47.4029   50.3758 C   0  0  0  0  0  0  0  0  0  0  0  0
   78.3615   47.1485   51.3965 C   0  0  0  0  0  0  0  0  0  0  0  0
   78.9643   47.0405   52.7964 C   0  0  0  0  0  0  0  0  0  0  0  0
   80.2559   47.2032   52.9841 C   0  0  0  0  0  0  0  0  0  0  0  0
   81.1581   47.5067   51.7969 C   0  0  0  0  0  0  0  0  0  0  0  0
   80.6344   47.5934   50.5934 C   0  0  0  0  0  0  0  0  0  0  0  0
   77.2794   47.0831   48.7289 C   0  0  0  0  0  0  0  0  0  0  0  0
   76.7334   47.1757   47.4583 C   0  0  0  0  0  0  0  0  0  0  0  0
   75.3304   46.6700   47.2096 C   0  0  1  0  0  0  0  0  0  0  0  0
   75.3254   45.4571   46.2129 C   0  0  0  0  0  0  0  0  0  0  0  0
   75.9921   44.3217   46.0432 C   0  0  0  0  0  0  0  0  0  0  0  0
   77.1342   43.7662   46.9067 C   0  0  0  0  0  0  0  0  0  0  0  0
   74.3391   45.5193   45.0912 C   0  0  0  0  0  0  0  0  0  0  0  0
   73.7258   47.6912   45.3487 C   0  0  0  0  0  0  0  0  0  0  0  0
   74.5544   47.8460   46.5584 C   0  0  0  0  0  0  0  0  0  0  0  0
   74.8688   49.2566   47.0268 C   0  0  0  0  0  0  0  0  0  0  0  0
   75.5771   43.6507   44.9918 N   0  0  0  0  0  0  0  0  0  0  0  0
   74.5689   44.3302   44.3405 N   0  0  0  0  0  0  0  0  0  0  0  0
   72.7426   48.7158   45.0684 N   0  0  0  0  0  0  0  0  0  0  0  0
   75.0879   50.2790   47.4420 N   0  0  0  0  0  0  0  0  0  0  0  0
   80.8966   48.3838   45.4461 O   0  0  0  0  0  0  0  0  0  0  0  0
   73.4461   46.5041   44.8610 O   0  0  0  0  0  0  0  0  0  0  0  0
   79.0872   48.3744   44.5257 H   0  0  0  0  0  0  0  0  0  0  0  0
   79.4966   49.8355   45.5260 H   0  0  0  0  0  0  0  0  0  0  0  0
   80.3734   48.3943   48.1193 H   0  0  0  0  0  0  0  0  0  0  0  0
   75.1112   46.9317   49.2851 H   0  0  0  0  0  0  0  0  0  0  0  0
   74.6330   44.8349   50.0778 H   0  0  0  0  0  0  0  0  0  0  0  0
   73.7529   44.3408   48.5918 H   0  0  0  0  0  0  0  0  0  0  0  0
   75.5479   44.4088   48.5918 H   0  0  0  0  0  0  0  0  0  0  0  0
   72.6742   46.8709   49.4223 H   0  0  0  0  0  0  0  0  0  0  0  0
   73.0202   47.7071   47.8706 H   0  0  0  0  0  0  0  0  0  0  0  0
   72.5420   45.9757   47.8706 H   0  0  0  0  0  0  0  0  0  0  0  0
   77.0944   47.7436   45.4159 H   0  0  0  0  0  0  0  0  0  0  0  0
   77.2801   47.0132   51.2476 H   0  0  0  0  0  0  0  0  0  0  0  0
   78.3119   46.8247   53.6554 H   0  0  0  0  0  0  0  0  0  0  0  0
   80.6820   47.1202   53.9948 H   0  0  0  0  0  0  0  0  0  0  0  0
   82.2384   47.6524   51.9439 H   0  0  0  0  0  0  0  0  0  0  0  0
   81.2853   47.8064   49.7326 H   0  0  0  0  0  0  0  0  0  0  0  0
   76.6895   46.6536   49.5520 H   0  0  0  0  0  0  0  0  0  0  0  0
   76.8825   43.8886   47.9705 H   0  0  0  0  0  0  0  0  0  0  0  0
   77.2762   42.6984   46.6841 H   0  0  0  0  0  0  0  0  0  0  0  0
   78.0619   44.3137   46.6841 H   0  0  0  0  0  0  0  0  0  0  0  0
   74.0799   44.0367   43.4829 H   0  0  0  0  0  0  0  0  0  0  0  0
   72.1455   48.6417   44.2324 H   0  0  0  0  0  0  0  0  0  0  0  0
   72.6401   49.5191   45.7049 H   0  0  0  0  0  0  0  0  0  0  0  0
   81.2196   48.2982   46.3780 H   0  0  0  0  0  0  0  0  0  0  0  0
  1  2  1  0
  1 29  1  0
  2  3  2  0
  2  7  1  0
  3  8  1  0
  4  5  1  0
  4  6  1  0
 17  4  1  0
  7 16  2  0
  8  9  1  0
  8 15  2  0
  9 10  2  0
  9 14  1  0
 10 11  1  0
 11 12  2  0
 12 13  1  0
 13 14  2  0
 15 16  1  0
 17 16  1  1
 17 18  1  0
 17 23  1  0
 18 19  1  0
 18 21  2  0
 19 20  1  0
 19 25  2  0
 21 26  1  0
 21 30  1  0
 22 23  2  0
 22 27  1  0
 22 30  1  0
 23 24  1  0
 24 28  3  0
 25 26  1  0
  1 31  1  0
  1 32  1  0
  3 33  1  0
  4 34  1  1
  5 35  1  0
  5 36  1  0
  5 37  1  0
  6 38  1  0
  6 39  1  0
  6 40  1  0
  7 41  1  0
 10 42  1  0
 11 43  1  0
 12 44  1  0
 13 45  1  0
 14 46  1  0
 15 47  1  0
 20 48  1  0
 20 49  1  0
 20 50  1  0
 26 51  1  0
 27 52  1  0
 27 53  1  0
 29 54  1  0
M  END
>  <filename_input>  (18) 
7X5N_5M5_docked.sdf

>  <pdb_id>  (18) 
7X5N_5M5

>  <pose_rank>  (18) 
17

>  <num_atoms_heavy>  (18) 
30

>  <num_torsions>  (18) 
5

>  <pose>  (18) 
[75.33040226369597, 46.67000045550891, 47.20960437324711, -1.773315167465598, -0.11212327406460967, 2.16645872200379, 3.5345259532137825, 2.346849281103196, 0.4304879728167942, -0.4891411110301812, 0.7226409220582248]

>  <energy>  (18) 
-143.59674447633554

>  <inter_energy>  (18) 
-174.0357601176647

>  <intra_energy>  (18) 
45.21798772448406

>  <rmsd>  (18) 
11.4207

>  <sdf_rank>  (18) 
0

$$$$

     RDKit          3D

 54 57  0  0  0  0  0  0  0  0999 V2000
   84.2763   59.6657   53.5332 C   0  0  0  0  0  0  0  0  0  0  0  0
   84.4299   58.3187   52.8129 C   0  0  0  0  0  0  0  0  0  0  0  0
   83.8082   57.1493   53.2356 C   0  0  0  0  0  0  0  0  0  0  0  0
   86.4913   55.6665   49.1643 C   0  0  2  0  0  0  0  0  0  0  0  0
   87.7217   54.9216   49.7074 C   0  0  0  0  0  0  0  0  0  0  0  0
   86.5814   55.6782   47.6300 C   0  0  0  0  0  0  0  0  0  0  0  0
   85.2264   58.2896   51.6826 C   0  0  0  0  0  0  0  0  0  0  0  0
   83.9810   55.9813   52.4989 C   0  0  0  0  0  0  0  0  0  0  0  0
   83.3257   54.6713   52.9403 C   0  0  0  0  0  0  0  0  0  0  0  0
   82.0451   54.4637   52.7678 C   0  0  0  0  0  0  0  0  0  0  0  0
   81.4246   53.1482   53.2359 C   0  0  0  0  0  0  0  0  0  0  0  0
   82.1646   52.2258   53.8116 C   0  0  0  0  0  0  0  0  0  0  0  0
   83.6518   52.4726   54.0182 C   0  0  0  0  0  0  0  0  0  0  0  0
   84.1816   53.6048   53.6085 C   0  0  0  0  0  0  0  0  0  0  0  0
   84.7811   55.9651   51.3639 C   0  0  0  0  0  0  0  0  0  0  0  0
   85.3995   57.1301   50.9378 C   0  0  0  0  0  0  0  0  0  0  0  0
   86.2808   57.1017   49.7096 C   0  0  1  0  0  0  0  0  0  0  0  0
   87.6424   57.8410   49.9627 C   0  0  0  0  0  0  0  0  0  0  0  0
   88.5843   57.8733   50.8976 C   0  0  0  0  0  0  0  0  0  0  0  0
   88.6368   57.0688   52.2048 C   0  0  0  0  0  0  0  0  0  0  0  0
   88.0724   58.8226   48.9203 C   0  0  0  0  0  0  0  0  0  0  0  0
   86.1198   58.9086   47.7629 C   0  0  0  0  0  0  0  0  0  0  0  0
   85.5053   57.8629   48.6014 C   0  0  0  0  0  0  0  0  0  0  0  0
   83.9941   57.7141   48.5551 C   0  0  0  0  0  0  0  0  0  0  0  0
   89.5486   58.7180   50.6068 N   0  0  0  0  0  0  0  0  0  0  0  0
   89.2997   59.3561   49.4096 N   0  0  0  0  0  0  0  0  0  0  0  0
   85.4588   59.2541   46.5225 N   0  0  0  0  0  0  0  0  0  0  0  0
   82.8722   57.6678   48.4852 N   0  0  0  0  0  0  0  0  0  0  0  0
   85.4825   60.1334   54.0380 O   0  0  0  0  0  0  0  0  0  0  0  0
   87.4155   59.1230   47.7808 O   0  0  0  0  0  0  0  0  0  0  0  0
   83.8805   60.4047   52.8210 H   0  0  0  0  0  0  0  0  0  0  0  0
   83.5910   59.5181   54.3809 H   0  0  0  0  0  0  0  0  0  0  0  0
   83.1863   57.1472   54.1430 H   0  0  0  0  0  0  0  0  0  0  0  0
   85.6078   55.1177   49.5224 H   0  0  0  0  0  0  0  0  0  0  0  0
   87.7018   54.9337   50.8072 H   0  0  0  0  0  0  0  0  0  0  0  0
   87.7067   53.8808   49.3518 H   0  0  0  0  0  0  0  0  0  0  0  0
   88.6370   55.4174   49.3518 H   0  0  0  0  0  0  0  0  0  0  0  0
   87.6296   55.8142   47.3253 H   0  0  0  0  0  0  0  0  0  0  0  0
   86.2052   54.7237   47.2333 H   0  0  0  0  0  0  0  0  0  0  0  0
   85.9740   56.5051   47.2333 H   0  0  0  0  0  0  0  0  0  0  0  0
   85.7371   59.2105   51.3646 H   0  0  0  0  0  0  0  0  0  0  0  0
   81.4195   55.2313   52.2890 H   0  0  0  0  0  0  0  0  0  0  0  0
   80.3488   52.9709   53.0901 H   0  0  0  0  0  0  0  0  0  0  0  0
   81.7104   51.2802   54.1424 H   0  0  0  0  0  0  0  0  0  0  0  0
   84.2783   51.7111   54.5057 H   0  0  0  0  0  0  0  0  0  0  0  0
   85.2576   53.7832   53.7508 H   0  0  0  0  0  0  0  0  0  0  0  0
   84.9238   55.0292   50.8040 H   0  0  0  0  0  0  0  0  0  0  0  0
   88.5919   57.7575   53.0613 H   0  0  0  0  0  0  0  0  0  0  0  0
   87.7818   56.3778   52.2446 H   0  0  0  0  0  0  0  0  0  0  0  0
   89.5743   56.4947   52.2446 H   0  0  0  0  0  0  0  0  0  0  0  0
   89.8842   60.0747   48.9593 H   0  0  0  0  0  0  0  0  0  0  0  0
   85.8586   59.9799   45.9107 H   0  0  0  0  0  0  0  0  0  0  0  0
   84.5886   58.7743   46.2516 H   0  0  0  0  0  0  0  0  0  0  0  0
   85.4528   60.1218   55.0275 H   0  0  0  0  0  0  0  0  0  0  0  0
  1  2  1  0
  1 29  1  0
  2  3  2  0
  2  7  1  0
  3  8  1  0
  4  5  1  0
  4  6  1  0
 17  4  1  0
  7 16  2  0
  8  9  1  0
  8 15  2  0
  9 10  2  0
  9 14  1  0
 10 11  1  0
 11 12  2  0
 12 13  1  0
 13 14  2  0
 15 16  1  0
 17 16  1  1
 17 18  1  0
 17 23  1  0
 18 19  1  0
 18 21  2  0
 19 20  1  0
 19 25  2  0
 21 26  1  0
 21 30  1  0
 22 23  2  0
 22 27  1  0
 22 30  1  0
 23 24  1  0
 24 28  3  0
 25 26  1  0
  1 31  1  0
  1 32  1  0
  3 33  1  0
  4 34  1  6
  5 35  1  0
  5 36  1  0
  5 37  1  0
  6 38  1  0
  6 39  1  0
  6 40  1  0
  7 41  1  0
 10 42  1  0
 11 43  1  0
 12 44  1  0
 13 45  1  0
 14 46  1  0
 15 47  1  0
 20 48  1  0
 20 49  1  0
 20 50  1  0
 26 51  1  0
 27 52  1  0
 27 53  1  0
 29 54  1  0
M  END
>  <filename_input>  (19) 
7X5N_5M5_docked.sdf

>  <pdb_id>  (19) 
7X5N_5M5

>  <pose_rank>  (19) 
18

>  <num_atoms_heavy>  (19) 
30

>  <num_torsions>  (19) 
5

>  <pose>  (19) 
[86.28080752612532, 57.101660846242154, 49.70963012490612, 1.9798635940259126, 2.089562491597043, -0.2738467647166882, 3.231517168526741, 0.7450868110431719, 1.7923719227485575, -0.4310305476477749, -1.8754420047662466]

>  <energy>  (19) 
-74.95481352164865

>  <inter_energy>  (19) 
-86.58646947694729

>  <intra_energy>  (19) 
40.985469423403934

>  <rmsd>  (19) 
10.2685

>  <sdf_rank>  (19) 
0

$$$$

     RDKit          3D

 54 57  0  0  0  0  0  0  0  0999 V2000
   86.9116   52.9881   48.6731 C   0  0  0  0  0  0  0  0  0  0  0  0
   86.8629   54.4658   49.0865 C   0  0  0  0  0  0  0  0  0  0  0  0
   85.9629   54.9709   50.0181 C   0  0  0  0  0  0  0  0  0  0  0  0
   88.8624   58.9987   48.8400 C   0  0  2  0  0  0  0  0  0  0  0  0
   88.2191   60.1383   48.0330 C   0  0  0  0  0  0  0  0  0  0  0  0
   90.3068   59.4068   49.1709 C   0  0  0  0  0  0  0  0  0  0  0  0
   87.7748   55.3214   48.4957 C   0  0  0  0  0  0  0  0  0  0  0  0
   86.0153   56.3205   50.3536 C   0  0  0  0  0  0  0  0  0  0  0  0
   85.0322   56.9166   51.3627 C   0  0  0  0  0  0  0  0  0  0  0  0
   84.0977   56.1828   51.9114 C   0  0  0  0  0  0  0  0  0  0  0  0
   83.1250   56.8183   52.9037 C   0  0  0  0  0  0  0  0  0  0  0  0
   83.2173   58.0944   53.2085 C   0  0  0  0  0  0  0  0  0  0  0  0
   84.2997   58.9475   52.5634 C   0  0  0  0  0  0  0  0  0  0  0  0
   85.1376   58.3938   51.7138 C   0  0  0  0  0  0  0  0  0  0  0  0
   86.9374   57.1693   49.7555 C   0  0  0  0  0  0  0  0  0  0  0  0
   87.8384   56.6683   48.8290 C   0  0  0  0  0  0  0  0  0  0  0  0
   88.8297   57.6012   48.1711 C   0  0  1  0  0  0  0  0  0  0  0  0
   88.5895   57.6951   46.6225 C   0  0  0  0  0  0  0  0  0  0  0  0
   87.5645   57.8589   45.7951 C   0  0  0  0  0  0  0  0  0  0  0  0
   86.0841   58.0429   46.1602 C   0  0  0  0  0  0  0  0  0  0  0  0
   89.7947   57.5479   45.7503 C   0  0  0  0  0  0  0  0  0  0  0  0
   91.2361   56.8190   47.3474 C   0  0  0  0  0  0  0  0  0  0  0  0
   90.2333   56.9853   48.4156 C   0  0  0  0  0  0  0  0  0  0  0  0
   90.4872   56.2881   49.7412 C   0  0  0  0  0  0  0  0  0  0  0  0
   87.9332   57.8454   44.5334 N   0  0  0  0  0  0  0  0  0  0  0  0
   89.2927   57.6423   44.4201 N   0  0  0  0  0  0  0  0  0  0  0  0
   92.6158   56.6281   47.7408 N   0  0  0  0  0  0  0  0  0  0  0  0
   90.6213   55.7253   50.7062 N   0  0  0  0  0  0  0  0  0  0  0  0
   87.4561   52.1818   49.6639 O   0  0  0  0  0  0  0  0  0  0  0  0
   91.0655   57.3583   46.1620 O   0  0  0  0  0  0  0  0  0  0  0  0
   85.8878   52.6460   48.4614 H   0  0  0  0  0  0  0  0  0  0  0  0
   87.5535   52.9084   47.7834 H   0  0  0  0  0  0  0  0  0  0  0  0
   85.2171   54.3107   50.4850 H   0  0  0  0  0  0  0  0  0  0  0  0
   88.2512   58.8704   49.7455 H   0  0  0  0  0  0  0  0  0  0  0  0
   87.7982   60.8842   48.7233 H   0  0  0  0  0  0  0  0  0  0  0  0
   88.9817   60.6146   47.3992 H   0  0  0  0  0  0  0  0  0  0  0  0
   87.4173   59.7317   47.3992 H   0  0  0  0  0  0  0  0  0  0  0  0
   90.4364   59.4434   50.2626 H   0  0  0  0  0  0  0  0  0  0  0  0
   91.0030   58.6702   48.7435 H   0  0  0  0  0  0  0  0  0  0  0  0
   90.5146   60.3988   48.7435 H   0  0  0  0  0  0  0  0  0  0  0  0
   88.4692   54.9242   47.7406 H   0  0  0  0  0  0  0  0  0  0  0  0
   84.0131   55.1153   51.6597 H   0  0  0  0  0  0  0  0  0  0  0  0
   82.3401   56.2027   53.3674 H   0  0  0  0  0  0  0  0  0  0  0  0
   82.5152   58.5430   53.9266 H   0  0  0  0  0  0  0  0  0  0  0  0
   84.3808   60.0175   52.8053 H   0  0  0  0  0  0  0  0  0  0  0  0
   85.9250   59.0067   51.2509 H   0  0  0  0  0  0  0  0  0  0  0  0
   86.9528   58.2378   50.0166 H   0  0  0  0  0  0  0  0  0  0  0  0
   85.9753   58.0564   47.2547 H   0  0  0  0  0  0  0  0  0  0  0  0
   85.7190   58.9933   45.7437 H   0  0  0  0  0  0  0  0  0  0  0  0
   85.4975   57.2107   45.7437 H   0  0  0  0  0  0  0  0  0  0  0  0
   89.8365   57.5727   43.5481 H   0  0  0  0  0  0  0  0  0  0  0  0
   93.3443   56.5085   47.0225 H   0  0  0  0  0  0  0  0  0  0  0  0
   92.8693   56.6118   48.7390 H   0  0  0  0  0  0  0  0  0  0  0  0
   87.2128   52.5421   50.5533 H   0  0  0  0  0  0  0  0  0  0  0  0
  1  2  1  0
  1 29  1  0
  2  3  2  0
  2  7  1  0
  3  8  1  0
  4  5  1  0
  4  6  1  0
 17  4  1  0
  7 16  2  0
  8  9  1  0
  8 15  2  0
  9 10  2  0
  9 14  1  0
 10 11  1  0
 11 12  2  0
 12 13  1  0
 13 14  2  0
 15 16  1  0
 17 16  1  1
 17 18  1  0
 17 23  1  0
 18 19  1  0
 18 21  2  0
 19 20  1  0
 19 25  2  0
 21 26  1  0
 21 30  1  0
 22 23  2  0
 22 27  1  0
 22 30  1  0
 23 24  1  0
 24 28  3  0
 25 26  1  0
  1 31  1  0
  1 32  1  0
  3 33  1  0
  4 34  1  1
  5 35  1  0
  5 36  1  0
  5 37  1  0
  6 38  1  0
  6 39  1  0
  6 40  1  0
  7 41  1  0
 10 42  1  0
 11 43  1  0
 12 44  1  0
 13 45  1  0
 14 46  1  0
 15 47  1  0
 20 48  1  0
 20 49  1  0
 20 50  1  0
 26 51  1  0
 27 52  1  0
 27 53  1  0
 29 54  1  0
M  END
>  <filename_input>  (20) 
7X5N_5M5_docked.sdf

>  <pdb_id>  (20) 
7X5N_5M5

>  <pose_rank>  (20) 
19

>  <num_atoms_heavy>  (20) 
30

>  <num_torsions>  (20) 
5

>  <pose>  (20) 
[88.82974899232681, 57.6012250357549, 48.1711064524031, 3.51986871739347, -3.1221845518222318, 1.1150618899664904, 9.808592564747613, -0.602382647408419, -1.5312883113733269, -0.7029432187623434, 2.725428359149602]

>  <energy>  (20) 
-73.05190734296986

>  <inter_energy>  (20) 
-98.35842237472912

>  <intra_energy>  (20) 
46.234197621289425

>  <rmsd>  (20) 
11.6074

>  <sdf_rank>  (20) 
0

$$$$

     RDKit          3D

 54 57  0  0  0  0  0  0  0  0999 V2000
   79.4257   44.2382   64.4581 C   0  0  0  0  0  0  0  0  0  0  0  0
   78.2296   44.5047   63.5334 C   0  0  0  0  0  0  0  0  0  0  0  0
   77.5856   45.7339   63.4495 C   0  0  0  0  0  0  0  0  0  0  0  0
   76.2285   41.1124   61.7760 C   0  0  2  0  0  0  0  0  0  0  0  0
   77.5772   40.6479   62.3496 C   0  0  0  0  0  0  0  0  0  0  0  0
   75.6740   39.9840   60.8918 C   0  0  0  0  0  0  0  0  0  0  0  0
   77.7895   43.4565   62.7455 C   0  0  0  0  0  0  0  0  0  0  0  0
   76.5288   45.8899   62.5573 C   0  0  0  0  0  0  0  0  0  0  0  0
   75.7855   47.2224   62.4472 C   0  0  0  0  0  0  0  0  0  0  0  0
   74.7126   47.3393   61.7069 C   0  0  0  0  0  0  0  0  0  0  0  0
   74.0066   48.6909   61.6103 C   0  0  0  0  0  0  0  0  0  0  0  0
   74.4685   49.7361   62.2616 C   0  0  0  0  0  0  0  0  0  0  0  0
   75.7206   49.5997   63.1154 C   0  0  0  0  0  0  0  0  0  0  0  0
   76.3212   48.4324   63.1990 C   0  0  0  0  0  0  0  0  0  0  0  0
   76.0978   44.8307   61.7694 C   0  0  0  0  0  0  0  0  0  0  0  0
   76.7398   43.6049   61.8481 C   0  0  0  0  0  0  0  0  0  0  0  0
   76.2557   42.4522   60.9978 C   0  0  1  0  0  0  0  0  0  0  0  0
   77.0731   42.3409   59.6621 C   0  0  0  0  0  0  0  0  0  0  0  0
   78.3453   42.3624   59.2837 C   0  0  0  0  0  0  0  0  0  0  0  0
   79.5867   42.5166   60.1746 C   0  0  0  0  0  0  0  0  0  0  0  0
   76.2790   42.1865   58.4049 C   0  0  0  0  0  0  0  0  0  0  0  0
   74.2365   42.6625   59.2775 C   0  0  0  0  0  0  0  0  0  0  0  0
   74.7765   42.7640   60.6459 C   0  0  0  0  0  0  0  0  0  0  0  0
   73.9209   43.4508   61.6966 C   0  0  0  0  0  0  0  0  0  0  0  0
   78.4819   42.2387   57.9822 N   0  0  0  0  0  0  0  0  0  0  0  0
   77.2522   42.1407   57.3652 N   0  0  0  0  0  0  0  0  0  0  0  0
   72.8002   42.5715   59.1238 N   0  0  0  0  0  0  0  0  0  0  0  0
   73.2815   43.8949   62.5089 N   0  0  0  0  0  0  0  0  0  0  0  0
   80.5941   43.9908   63.7496 O   0  0  0  0  0  0  0  0  0  0  0  0
   74.9351   42.1183   58.3074 O   0  0  0  0  0  0  0  0  0  0  0  0
   79.5803   45.1186   65.0992 H   0  0  0  0  0  0  0  0  0  0  0  0
   79.1973   43.3425   65.0544 H   0  0  0  0  0  0  0  0  0  0  0  0
   77.9079   46.5745   64.0816 H   0  0  0  0  0  0  0  0  0  0  0  0
   75.5761   41.3220   62.6364 H   0  0  0  0  0  0  0  0  0  0  0  0
   77.5331   40.6631   63.4486 H   0  0  0  0  0  0  0  0  0  0  0  0
   77.7894   39.6250   62.0053 H   0  0  0  0  0  0  0  0  0  0  0  0
   78.3742   41.3234   62.0053 H   0  0  0  0  0  0  0  0  0  0  0  0
   75.2785   39.1795   61.5292 H   0  0  0  0  0  0  0  0  0  0  0  0
   74.8672   40.3787   60.2567 H   0  0  0  0  0  0  0  0  0  0  0  0
   76.4793   39.5864   60.2567 H   0  0  0  0  0  0  0  0  0  0  0  0
   78.2847   42.4781   62.8320 H   0  0  0  0  0  0  0  0  0  0  0  0
   74.3216   46.4701   61.1577 H   0  0  0  0  0  0  0  0  0  0  0  0
   73.1035   48.7908   60.9902 H   0  0  0  0  0  0  0  0  0  0  0  0
   73.9520   50.7046   62.1893 H   0  0  0  0  0  0  0  0  0  0  0  0
   76.1198   50.4693   63.6579 H   0  0  0  0  0  0  0  0  0  0  0  0
   77.2229   48.3294   63.8206 H   0  0  0  0  0  0  0  0  0  0  0  0
   75.2480   44.9644   61.0838 H   0  0  0  0  0  0  0  0  0  0  0  0
   79.2860   42.4793   61.2321 H   0  0  0  0  0  0  0  0  0  0  0  0
   80.2923   41.6992   59.9650 H   0  0  0  0  0  0  0  0  0  0  0  0
   80.0709   43.4818   59.9650 H   0  0  0  0  0  0  0  0  0  0  0  0
   77.0732   42.0521   56.3548 H   0  0  0  0  0  0  0  0  0  0  0  0
   72.3865   42.4993   58.1833 H   0  0  0  0  0  0  0  0  0  0  0  0
   72.1918   42.5790   59.9549 H   0  0  0  0  0  0  0  0  0  0  0  0
   81.3376   43.8333   64.3840 H   0  0  0  0  0  0  0  0  0  0  0  0
  1  2  1  0
  1 29  1  0
  2  3  2  0
  2  7  1  0
  3  8  1  0
  4  5  1  0
  4  6  1  0
 17  4  1  0
  7 16  2  0
  8  9  1  0
  8 15  2  0
  9 10  2  0
  9 14  1  0
 10 11  1  0
 11 12  2  0
 12 13  1  0
 13 14  2  0
 15 16  1  0
 17 16  1  1
 17 18  1  0
 17 23  1  0
 18 19  1  0
 18 21  2  0
 19 20  1  0
 19 25  2  0
 21 26  1  0
 21 30  1  0
 22 23  2  0
 22 27  1  0
 22 30  1  0
 23 24  1  0
 24 28  3  0
 25 26  1  0
  1 31  1  0
  1 32  1  0
  3 33  1  0
  4 34  1  1
  5 35  1  0
  5 36  1  0
  5 37  1  0
  6 38  1  0
  6 39  1  0
  6 40  1  0
  7 41  1  0
 10 42  1  0
 11 43  1  0
 12 44  1  0
 13 45  1  0
 14 46  1  0
 15 47  1  0
 20 48  1  0
 20 49  1  0
 20 50  1  0
 26 51  1  0
 27 52  1  0
 27 53  1  0
 29 54  1  0
M  END
>  <filename_input>  (21) 
7X5N_5M5_docked.sdf

>  <pdb_id>  (21) 
7X5N_5M5

>  <pose_rank>  (21) 
20

>  <num_atoms_heavy>  (21) 
30

>  <num_torsions>  (21) 
5

>  <pose>  (21) 
[76.2556995337508, 42.45216101770007, 60.997848620033245, -1.659248873072973, -1.6410910038178983, 2.209231455220871, 0.9341753383050909, 2.684103614969972, -2.2326441497285785, 0.1336384480006224, 0.32297548983336455]

>  <energy>  (21) 
-13.07867329353897

>  <inter_energy>  (21) 
-111.02494971286112

>  <intra_energy>  (21) 
108.60111480934276

>  <rmsd>  (21) 
12.8898

>  <sdf_rank>  (21) 
0

$$$$

     RDKit          3D

 54 57  0  0  0  0  0  0  0  0999 V2000
   83.6177   51.6580   48.9836 C   0  0  0  0  0  0  0  0  0  0  0  0
   83.5154   52.6937   50.1122 C   0  0  0  0  0  0  0  0  0  0  0  0
   82.9608   52.4175   51.3568 C   0  0  0  0  0  0  0  0  0  0  0  0
   83.7293   57.0745   49.4425 C   0  0  2  0  0  0  0  0  0  0  0  0
   84.5637   57.8018   48.3754 C   0  0  0  0  0  0  0  0  0  0  0  0
   82.7650   58.0945   50.0687 C   0  0  0  0  0  0  0  0  0  0  0  0
   84.0132   53.9593   49.8604 C   0  0  0  0  0  0  0  0  0  0  0  0
   82.9409   53.4125   52.3297 C   0  0  0  0  0  0  0  0  0  0  0  0
   82.3257   53.1517   53.7058 C   0  0  0  0  0  0  0  0  0  0  0  0
   81.0382   52.9637   53.8466 C   0  0  0  0  0  0  0  0  0  0  0  0
   80.4593   52.7212   55.2397 C   0  0  0  0  0  0  0  0  0  0  0  0
   81.2422   52.7022   56.2964 C   0  0  0  0  0  0  0  0  0  0  0  0
   82.7377   52.9288   56.1313 C   0  0  0  0  0  0  0  0  0  0  0  0
   83.2311   53.1320   54.9290 C   0  0  0  0  0  0  0  0  0  0  0  0
   83.4463   54.6788   52.0659 C   0  0  0  0  0  0  0  0  0  0  0  0
   84.0031   54.9564   50.8273 C   0  0  0  0  0  0  0  0  0  0  0  0
   84.5381   56.3415   50.5424 C   0  0  1  0  0  0  0  0  0  0  0  0
   86.0743   56.3087   50.2206 C   0  0  0  0  0  0  0  0  0  0  0  0
   86.9051   55.6019   49.4640 C   0  0  0  0  0  0  0  0  0  0  0  0
   86.5589   54.4341   48.5285 C   0  0  0  0  0  0  0  0  0  0  0  0
   86.9277   57.3045   50.9383 C   0  0  0  0  0  0  0  0  0  0  0  0
   85.3792   57.9956   52.4496 C   0  0  0  0  0  0  0  0  0  0  0  0
   84.3241   57.1648   51.8407 C   0  0  0  0  0  0  0  0  0  0  0  0
   83.0709   56.8994   52.6574 C   0  0  0  0  0  0  0  0  0  0  0  0
   88.1523   55.9992   49.5851 N   0  0  0  0  0  0  0  0  0  0  0  0
   88.2530   57.0362   50.4888 N   0  0  0  0  0  0  0  0  0  0  0  0
   84.9743   59.0178   53.3909 N   0  0  0  0  0  0  0  0  0  0  0  0
   82.1091   56.7545   53.2229 N   0  0  0  0  0  0  0  0  0  0  0  0
   84.3859   50.5592   49.3453 O   0  0  0  0  0  0  0  0  0  0  0  0
   86.5070   58.2347   51.8203 O   0  0  0  0  0  0  0  0  0  0  0  0
   82.6051   51.3129   48.7272 H   0  0  0  0  0  0  0  0  0  0  0  0
   84.1060   52.1425   48.1252 H   0  0  0  0  0  0  0  0  0  0  0  0
   82.5421   51.4229   51.5703 H   0  0  0  0  0  0  0  0  0  0  0  0
   83.1951   56.2638   48.9255 H   0  0  0  0  0  0  0  0  0  0  0  0
   85.3054   58.4481   48.8676 H   0  0  0  0  0  0  0  0  0  0  0  0
   85.0815   57.0617   47.7476 H   0  0  0  0  0  0  0  0  0  0  0  0
   83.9013   58.4158   47.7476 H   0  0  0  0  0  0  0  0  0  0  0  0
   82.8252   58.0308   51.1652 H   0  0  0  0  0  0  0  0  0  0  0  0
   83.0425   59.1084   49.7445 H   0  0  0  0  0  0  0  0  0  0  0  0
   81.7372   57.8743   49.7445 H   0  0  0  0  0  0  0  0  0  0  0  0
   84.4287   54.1824   48.8667 H   0  0  0  0  0  0  0  0  0  0  0  0
   80.3770   52.9802   52.9676 H   0  0  0  0  0  0  0  0  0  0  0  0
   79.3777   52.5609   55.3600 H   0  0  0  0  0  0  0  0  0  0  0  0
   80.8176   52.5233   57.2953 H   0  0  0  0  0  0  0  0  0  0  0  0
   83.4003   52.9228   57.0093 H   0  0  0  0  0  0  0  0  0  0  0  0
   84.3128   53.2897   54.8059 H   0  0  0  0  0  0  0  0  0  0  0  0
   83.4048   55.4603   52.8388 H   0  0  0  0  0  0  0  0  0  0  0  0
   86.2966   53.5497   49.1277 H   0  0  0  0  0  0  0  0  0  0  0  0
   85.7049   54.7134   47.8939 H   0  0  0  0  0  0  0  0  0  0  0  0
   87.4271   54.2028   47.8939 H   0  0  0  0  0  0  0  0  0  0  0  0
   89.1142   57.5201   50.7805 H   0  0  0  0  0  0  0  0  0  0  0  0
   85.6833   59.6175   53.8364 H   0  0  0  0  0  0  0  0  0  0  0  0
   83.9772   59.1454   53.6153 H   0  0  0  0  0  0  0  0  0  0  0  0
   84.4292   50.4973   50.3324 H   0  0  0  0  0  0  0  0  0  0  0  0
  1  2  1  0
  1 29  1  0
  2  3  2  0
  2  7  1  0
  3  8  1  0
  4  5  1  0
  4  6  1  0
 17  4  1  0
  7 16  2  0
  8  9  1  0
  8 15  2  0
  9 10  2  0
  9 14  1  0
 10 11  1  0
 11 12  2  0
 12 13  1  0
 13 14  2  0
 15 16  1  0
 17 16  1  1
 17 18  1  0
 17 23  1  0
 18 19  1  0
 18 21  2  0
 19 20  1  0
 19 25  2  0
 21 26  1  0
 21 30  1  0
 22 23  2  0
 22 27  1  0
 22 30  1  0
 23 24  1  0
 24 28  3  0
 25 26  1  0
  1 31  1  0
  1 32  1  0
  3 33  1  0
  4 34  1  6
  5 35  1  0
  5 36  1  0
  5 37  1  0
  6 38  1  0
  6 39  1  0
  6 40  1  0
  7 41  1  0
 10 42  1  0
 11 43  1  0
 12 44  1  0
 13 45  1  0
 14 46  1  0
 15 47  1  0
 20 48  1  0
 20 49  1  0
 20 50  1  0
 26 51  1  0
 27 52  1  0
 27 53  1  0
 29 54  1  0
M  END
>  <filename_input>  (22) 
7X5N_5M5_docked.sdf

>  <pdb_id>  (22) 
7X5N_5M5

>  <pose_rank>  (22) 
21

>  <num_atoms_heavy>  (22) 
30

>  <num_torsions>  (22) 
5

>  <pose>  (22) 
[84.53807786769586, 56.34149755001624, 50.54239760303201, -1.3550522399024094, -0.9415364940992196, -0.5469611620777899, 1.3463639674525802, -1.7554106499601383, -1.3108256694899323, -1.1915609967940484, 0.09823810475486779]

>  <energy>  (22) 
52.65282927019277

>  <inter_energy>  (22) 
-124.26026358600052

>  <intra_energy>  (22) 
163.96770217052475

>  <rmsd>  (22) 
8.01418

>  <sdf_rank>  (22) 
0

$$$$

     RDKit          3D

 54 57  0  0  0  0  0  0  0  0999 V2000
   83.6280   60.0220   53.1696 C   0  0  0  0  0  0  0  0  0  0  0  0
   84.0689   58.6850   52.5574 C   0  0  0  0  0  0  0  0  0  0  0  0
   83.4942   57.4637   52.8908 C   0  0  0  0  0  0  0  0  0  0  0  0
   87.4798   58.9215   50.0523 C   0  0  2  0  0  0  0  0  0  0  0  0
   87.0338   60.0511   49.1095 C   0  0  0  0  0  0  0  0  0  0  0  0
   88.9677   58.6413   49.7881 C   0  0  0  0  0  0  0  0  0  0  0  0
   85.0872   58.7193   51.6221 C   0  0  0  0  0  0  0  0  0  0  0  0
   83.9390   56.3064   52.2587 C   0  0  0  0  0  0  0  0  0  0  0  0
   83.3422   54.9422   52.6095 C   0  0  0  0  0  0  0  0  0  0  0  0
   83.7479   54.2764   53.6607 C   0  0  0  0  0  0  0  0  0  0  0  0
   83.1381   52.9098   53.9694 C   0  0  0  0  0  0  0  0  0  0  0  0
   82.2128   52.3971   53.1879 C   0  0  0  0  0  0  0  0  0  0  0  0
   81.7483   53.1695   51.9620 C   0  0  0  0  0  0  0  0  0  0  0  0
   82.2730   54.3478   51.7040 C   0  0  0  0  0  0  0  0  0  0  0  0
   84.9605   56.3539   51.3191 C   0  0  0  0  0  0  0  0  0  0  0  0
   85.5331   57.5702   50.9818 C   0  0  0  0  0  0  0  0  0  0  0  0
   86.6547   57.6125   49.9687 C   0  0  1  0  0  0  0  0  0  0  0  0
   86.1264   57.3412   48.5155 C   0  0  0  0  0  0  0  0  0  0  0  0
   85.1273   57.7470   47.7412 C   0  0  0  0  0  0  0  0  0  0  0  0
   84.0283   58.7638   48.0835 C   0  0  0  0  0  0  0  0  0  0  0  0
   86.8865   56.3410   47.7051 C   0  0  0  0  0  0  0  0  0  0  0  0
   88.1656   55.5015   49.3840 C   0  0  0  0  0  0  0  0  0  0  0  0
   87.6339   56.4728   50.3578 C   0  0  0  0  0  0  0  0  0  0  0  0
   87.8454   56.1846   51.8343 C   0  0  0  0  0  0  0  0  0  0  0  0
   85.1396   57.1646   46.5629 N   0  0  0  0  0  0  0  0  0  0  0  0
   86.1855   56.2706   46.4665 N   0  0  0  0  0  0  0  0  0  0  0  0
   89.3540   54.7607   49.7498 N   0  0  0  0  0  0  0  0  0  0  0  0
   87.9664   55.9079   52.9181 N   0  0  0  0  0  0  0  0  0  0  0  0
   83.4499   59.9384   54.5442 O   0  0  0  0  0  0  0  0  0  0  0  0
   87.9864   55.6627   48.0928 O   0  0  0  0  0  0  0  0  0  0  0  0
   84.3975   60.7790   52.9578 H   0  0  0  0  0  0  0  0  0  0  0  0
   82.6616   60.2955   52.7208 H   0  0  0  0  0  0  0  0  0  0  0  0
   82.6964   57.4128   53.6463 H   0  0  0  0  0  0  0  0  0  0  0  0
   87.3019   59.2786   51.0774 H   0  0  0  0  0  0  0  0  0  0  0  0
   86.6939   60.9120   49.7039 H   0  0  0  0  0  0  0  0  0  0  0  0
   87.8796   60.3546   48.4751 H   0  0  0  0  0  0  0  0  0  0  0  0
   86.2088   59.6949   48.4751 H   0  0  0  0  0  0  0  0  0  0  0  0
   89.4979   58.5414   50.7468 H   0  0  0  0  0  0  0  0  0  0  0  0
   89.0689   57.7083   49.2143 H   0  0  0  0  0  0  0  0  0  0  0  0
   89.4013   59.4736   49.2143 H   0  0  0  0  0  0  0  0  0  0  0  0
   85.5571   59.6836   51.3785 H   0  0  0  0  0  0  0  0  0  0  0  0
   84.5229   54.6980   54.3177 H   0  0  0  0  0  0  0  0  0  0  0  0
   83.4763   52.3495   54.8536 H   0  0  0  0  0  0  0  0  0  0  0  0
   81.7765   51.4143   53.4196 H   0  0  0  0  0  0  0  0  0  0  0  0
   80.9806   52.7464   51.2974 H   0  0  0  0  0  0  0  0  0  0  0  0
   81.9344   54.9112   50.8220 H   0  0  0  0  0  0  0  0  0  0  0  0
   85.3146   55.4276   50.8431 H   0  0  0  0  0  0  0  0  0  0  0  0
   83.9356   58.8496   49.1762 H   0  0  0  0  0  0  0  0  0  0  0  0
   84.2911   59.7443   47.6597 H   0  0  0  0  0  0  0  0  0  0  0  0
   83.0712   58.4258   47.6597 H   0  0  0  0  0  0  0  0  0  0  0  0
   86.4142   55.6717   45.6603 H   0  0  0  0  0  0  0  0  0  0  0  0
   89.7543   54.0736   49.0952 H   0  0  0  0  0  0  0  0  0  0  0  0
   89.7993   54.9206   50.6647 H   0  0  0  0  0  0  0  0  0  0  0  0
   84.2439   60.3112   55.0031 H   0  0  0  0  0  0  0  0  0  0  0  0
  1  2  1  0
  1 29  1  0
  2  3  2  0
  2  7  1  0
  3  8  1  0
  4  5  1  0
  4  6  1  0
 17  4  1  0
  7 16  2  0
  8  9  1  0
  8 15  2  0
  9 10  2  0
  9 14  1  0
 10 11  1  0
 11 12  2  0
 12 13  1  0
 13 14  2  0
 15 16  1  0
 17 16  1  1
 17 18  1  0
 17 23  1  0
 18 19  1  0
 18 21  2  0
 19 20  1  0
 19 25  2  0
 21 26  1  0
 21 30  1  0
 22 23  2  0
 22 27  1  0
 22 30  1  0
 23 24  1  0
 24 28  3  0
 25 26  1  0
  1 31  1  0
  1 32  1  0
  3 33  1  0
  4 34  1  1
  5 35  1  0
  5 36  1  0
  5 37  1  0
  6 38  1  0
  6 39  1  0
  6 40  1  0
  7 41  1  0
 10 42  1  0
 11 43  1  0
 12 44  1  0
 13 45  1  0
 14 46  1  0
 15 47  1  0
 20 48  1  0
 20 49  1  0
 20 50  1  0
 26 51  1  0
 27 52  1  0
 27 53  1  0
 29 54  1  0
M  END
>  <filename_input>  (23) 
7X5N_5M5_docked.sdf

>  <pdb_id>  (23) 
7X5N_5M5

>  <pose_rank>  (23) 
22

>  <num_atoms_heavy>  (23) 
30

>  <num_torsions>  (23) 
5

>  <pose>  (23) 
[86.65468085809987, 57.61246648739297, 49.96873568053569, 2.5481597142125736, -2.876470824080849, 1.9466323573959659, 0.5324669347604015, -1.9968851303614215, 0.5223426508735317, -0.4641348307485485, -2.680719134867334]

>  <energy>  (23) 
26.686053882296456

>  <inter_energy>  (23) 
-3.0296263444835603

>  <intra_energy>  (23) 
55.441804288962665

>  <rmsd>  (23) 
9.89058

>  <sdf_rank>  (23) 
0

$$$$

     RDKit          3D

 54 57  0  0  0  0  0  0  0  0999 V2000
   78.9453   54.9800   44.6325 C   0  0  0  0  0  0  0  0  0  0  0  0
   77.6267   54.8105   45.4003 C   0  0  0  0  0  0  0  0  0  0  0  0
   77.0239   53.5778   45.6237 C   0  0  0  0  0  0  0  0  0  0  0  0
   74.0616   56.8574   48.1721 C   0  0  2  0  0  0  0  0  0  0  0  0
   74.5122   56.5930   49.6181 C   0  0  0  0  0  0  0  0  0  0  0  0
   73.2291   55.6524   47.7057 C   0  0  0  0  0  0  0  0  0  0  0  0
   77.0269   55.9549   45.8936 C   0  0  0  0  0  0  0  0  0  0  0  0
   75.8439   53.5199   46.3593 C   0  0  0  0  0  0  0  0  0  0  0  0
   75.1426   52.1843   46.6133 C   0  0  0  0  0  0  0  0  0  0  0  0
   75.8272   51.0989   46.8704 C   0  0  0  0  0  0  0  0  0  0  0  0
   75.0911   49.7804   47.1036 C   0  0  0  0  0  0  0  0  0  0  0  0
   73.7782   49.7268   47.0458 C   0  0  0  0  0  0  0  0  0  0  0  0
   72.9847   50.9884   46.7390 C   0  0  0  0  0  0  0  0  0  0  0  0
   73.6235   52.1217   46.5442 C   0  0  0  0  0  0  0  0  0  0  0  0
   75.2525   54.6758   46.8519 C   0  0  0  0  0  0  0  0  0  0  0  0
   75.8527   55.9060   46.6340 C   0  0  0  0  0  0  0  0  0  0  0  0
   75.1955   57.1616   47.1607 C   0  0  1  0  0  0  0  0  0  0  0  0
   74.7083   58.0887   45.9912 C   0  0  0  0  0  0  0  0  0  0  0  0
   74.0404   57.9634   44.8508 C   0  0  0  0  0  0  0  0  0  0  0  0
   73.4464   56.6822   44.2472 C   0  0  0  0  0  0  0  0  0  0  0  0
   75.0709   59.5356   46.0916 C   0  0  0  0  0  0  0  0  0  0  0  0
   76.5572   59.3566   47.7998 C   0  0  0  0  0  0  0  0  0  0  0  0
   76.2861   57.9168   47.9665 C   0  0  0  0  0  0  0  0  0  0  0  0
   77.2859   57.0945   48.7616 C   0  0  0  0  0  0  0  0  0  0  0  0
   73.9170   59.1076   44.2155 N   0  0  0  0  0  0  0  0  0  0  0  0
   74.5397   60.1249   44.9079 N   0  0  0  0  0  0  0  0  0  0  0  0
   77.2803   60.0338   48.8551 N   0  0  0  0  0  0  0  0  0  0  0  0
   78.0727   56.5419   49.3458 N   0  0  0  0  0  0  0  0  0  0  0  0
   79.7290   53.8343   44.6729 O   0  0  0  0  0  0  0  0  0  0  0  0
   75.7596   60.1232   47.0919 O   0  0  0  0  0  0  0  0  0  0  0  0
   78.7158   55.2149   43.5827 H   0  0  0  0  0  0  0  0  0  0  0  0
   79.5116   55.7925   45.1112 H   0  0  0  0  0  0  0  0  0  0  0  0
   77.4748   52.6579   45.2232 H   0  0  0  0  0  0  0  0  0  0  0  0
   73.4712   57.7853   48.1912 H   0  0  0  0  0  0  0  0  0  0  0  0
   73.7784   57.0235   50.3154 H   0  0  0  0  0  0  0  0  0  0  0  0
   74.5860   55.5086   49.7868 H   0  0  0  0  0  0  0  0  0  0  0  0
   75.4948   57.0580   49.7868 H   0  0  0  0  0  0  0  0  0  0  0  0
   72.8516   55.1061   48.5827 H   0  0  0  0  0  0  0  0  0  0  0  0
   72.3810   56.0050   47.1004 H   0  0  0  0  0  0  0  0  0  0  0  0
   73.8589   54.9839   47.1004 H   0  0  0  0  0  0  0  0  0  0  0  0
   77.4928   56.9312   45.6941 H   0  0  0  0  0  0  0  0  0  0  0  0
   76.9256   51.1356   46.9183 H   0  0  0  0  0  0  0  0  0  0  0  0
   75.6646   48.8674   47.3218 H   0  0  0  0  0  0  0  0  0  0  0  0
   73.2561   48.7742   47.2185 H   0  0  0  0  0  0  0  0  0  0  0  0
   71.8869   50.9530   46.6805 H   0  0  0  0  0  0  0  0  0  0  0  0
   73.0520   53.0365   46.3286 H   0  0  0  0  0  0  0  0  0  0  0  0
   74.3090   54.6152   47.4142 H   0  0  0  0  0  0  0  0  0  0  0  0
   73.1332   56.0066   45.0568 H   0  0  0  0  0  0  0  0  0  0  0  0
   72.5755   56.9390   43.6263 H   0  0  0  0  0  0  0  0  0  0  0  0
   74.2051   56.1834   43.6263 H   0  0  0  0  0  0  0  0  0  0  0  0
   74.6074   61.1132   44.6258 H   0  0  0  0  0  0  0  0  0  0  0  0
   77.4881   61.0393   48.7737 H   0  0  0  0  0  0  0  0  0  0  0  0
   77.5870   59.5102   49.6873 H   0  0  0  0  0  0  0  0  0  0  0  0
   79.9000   53.5844   45.6154 H   0  0  0  0  0  0  0  0  0  0  0  0
  1  2  1  0
  1 29  1  0
  2  3  2  0
  2  7  1  0
  3  8  1  0
  4  5  1  0
  4  6  1  0
 17  4  1  0
  7 16  2  0
  8  9  1  0
  8 15  2  0
  9 10  2  0
  9 14  1  0
 10 11  1  0
 11 12  2  0
 12 13  1  0
 13 14  2  0
 15 16  1  0
 17 16  1  6
 17 18  1  0
 17 23  1  0
 18 19  1  0
 18 21  2  0
 19 20  1  0
 19 25  2  0
 21 26  1  0
 21 30  1  0
 22 23  2  0
 22 27  1  0
 22 30  1  0
 23 24  1  0
 24 28  3  0
 25 26  1  0
  1 31  1  0
  1 32  1  0
  3 33  1  0
  4 34  1  1
  5 35  1  0
  5 36  1  0
  5 37  1  0
  6 38  1  0
  6 39  1  0
  6 40  1  0
  7 41  1  0
 10 42  1  0
 11 43  1  0
 12 44  1  0
 13 45  1  0
 14 46  1  0
 15 47  1  0
 20 48  1  0
 20 49  1  0
 20 50  1  0
 26 51  1  0
 27 52  1  0
 27 53  1  0
 29 54  1  0
M  END
>  <filename_input>  (24) 
7X5N_5M5_docked.sdf

>  <pdb_id>  (24) 
7X5N_5M5

>  <pose_rank>  (24) 
23

>  <num_atoms_heavy>  (24) 
30

>  <num_torsions>  (24) 
5

>  <pose>  (24) 
[75.19550072890586, 57.16159185014375, 47.16071645389419, 3.093771733024864, 0.08080486453630648, -4.250754799969068, -2.714941928007909, 0.1095302142814078, -0.6878539346738128, 2.608005931277796, -1.8948940880477747]

>  <energy>  (24) 
39.547561549648194

>  <inter_energy>  (24) 
-67.46705388884922

>  <intra_energy>  (24) 
102.63917532575698

>  <rmsd>  (24) 
12.7145

>  <sdf_rank>  (24) 
0

$$$$

     RDKit          3D

 54 57  0  0  0  0  0  0  0  0999 V2000
   73.6600   55.8940   50.0840 C   0  0  0  0  0  0  0  0  0  0  0  0
   74.4497   55.7990   48.7709 C   0  0  0  0  0  0  0  0  0  0  0  0
   75.0651   56.8897   48.1671 C   0  0  0  0  0  0  0  0  0  0  0  0
   74.5915   52.9209   45.0184 C   0  0  2  0  0  0  0  0  0  0  0  0
   73.0585   52.9099   45.1359 C   0  0  0  0  0  0  0  0  0  0  0  0
   75.0155   51.6822   44.2133 C   0  0  0  0  0  0  0  0  0  0  0  0
   74.5485   54.5537   48.1773 C   0  0  0  0  0  0  0  0  0  0  0  0
   75.7872   56.7002   46.9925 C   0  0  0  0  0  0  0  0  0  0  0  0
   76.4657   57.8779   46.2903 C   0  0  0  0  0  0  0  0  0  0  0  0
   76.0756   58.2751   45.1059 C   0  0  0  0  0  0  0  0  0  0  0  0
   76.7883   59.4458   44.4304 C   0  0  0  0  0  0  0  0  0  0  0  0
   77.7900   60.0546   45.0271 C   0  0  0  0  0  0  0  0  0  0  0  0
   78.2468   59.5860   46.4008 C   0  0  0  0  0  0  0  0  0  0  0  0
   77.6262   58.5810   46.9797 C   0  0  0  0  0  0  0  0  0  0  0  0
   75.8815   55.4444   46.4074 C   0  0  0  0  0  0  0  0  0  0  0  0
   75.2721   54.3543   47.0087 C   0  0  0  0  0  0  0  0  0  0  0  0
   75.3668   52.9928   46.3581 C   0  0  1  0  0  0  0  0  0  0  0  0
   74.9385   51.8523   47.3483 C   0  0  0  0  0  0  0  0  0  0  0  0
   73.9498   51.6106   48.2006 C   0  0  0  0  0  0  0  0  0  0  0  0
   72.7414   52.5053   48.5138 C   0  0  0  0  0  0  0  0  0  0  0  0
   75.8520   50.6726   47.4425 C   0  0  0  0  0  0  0  0  0  0  0  0
   77.6079   51.5591   46.3066 C   0  0  0  0  0  0  0  0  0  0  0  0
   76.8611   52.7906   45.9904 C   0  0  0  0  0  0  0  0  0  0  0  0
   77.6534   54.0008   45.5262 C   0  0  0  0  0  0  0  0  0  0  0  0
   74.0907   50.4576   48.8159 N   0  0  0  0  0  0  0  0  0  0  0  0
   75.2484   49.8241   48.4152 N   0  0  0  0  0  0  0  0  0  0  0  0
   78.8340   51.3079   45.5796 N   0  0  0  0  0  0  0  0  0  0  0  0
   78.2938   54.8764   45.2277 N   0  0  0  0  0  0  0  0  0  0  0  0
   73.0747   57.1413   50.2574 O   0  0  0  0  0  0  0  0  0  0  0  0
   76.9958   50.4857   46.7519 O   0  0  0  0  0  0  0  0  0  0  0  0
   72.8689   55.1297   50.0772 H   0  0  0  0  0  0  0  0  0  0  0  0
   74.3650   55.7346   50.9132 H   0  0  0  0  0  0  0  0  0  0  0  0
   74.9822   57.8918   48.6130 H   0  0  0  0  0  0  0  0  0  0  0  0
   74.8612   53.8576   44.5087 H   0  0  0  0  0  0  0  0  0  0  0  0
   72.7722   52.9078   46.1980 H   0  0  0  0  0  0  0  0  0  0  0  0
   72.6468   53.8051   44.6469 H   0  0  0  0  0  0  0  0  0  0  0  0
   72.6598   52.0088   44.6469 H   0  0  0  0  0  0  0  0  0  0  0  0
   75.2927   50.8728   44.9047 H   0  0  0  0  0  0  0  0  0  0  0  0
   74.1790   51.3528   43.5795 H   0  0  0  0  0  0  0  0  0  0  0  0
   75.8785   51.9346   43.5795 H   0  0  0  0  0  0  0  0  0  0  0  0
   74.0397   53.6973   48.6438 H   0  0  0  0  0  0  0  0  0  0  0  0
   75.2399   57.7695   44.5999 H   0  0  0  0  0  0  0  0  0  0  0  0
   76.4607   59.7826   43.4358 H   0  0  0  0  0  0  0  0  0  0  0  0
   78.2952   60.8989   44.5352 H   0  0  0  0  0  0  0  0  0  0  0  0
   79.0886   60.0831   46.9052 H   0  0  0  0  0  0  0  0  0  0  0  0
   77.9503   58.2443   47.9755 H   0  0  0  0  0  0  0  0  0  0  0  0
   76.4391   55.3148   45.4681 H   0  0  0  0  0  0  0  0  0  0  0  0
   72.6229   52.5930   49.6039 H   0  0  0  0  0  0  0  0  0  0  0  0
   72.9023   53.5036   48.0810 H   0  0  0  0  0  0  0  0  0  0  0  0
   71.8334   52.0599   48.0810 H   0  0  0  0  0  0  0  0  0  0  0  0
   75.6055   48.9185   48.7518 H   0  0  0  0  0  0  0  0  0  0  0  0
   79.3827   50.4580   45.7733 H   0  0  0  0  0  0  0  0  0  0  0  0
   79.1579   51.9791   44.8686 H   0  0  0  0  0  0  0  0  0  0  0  0
   72.9852   57.3322   51.2247 H   0  0  0  0  0  0  0  0  0  0  0  0
  1  2  1  0
  1 29  1  0
  2  3  2  0
  2  7  1  0
  3  8  1  0
  4  5  1  0
  4  6  1  0
 17  4  1  0
  7 16  2  0
  8  9  1  0
  8 15  2  0
  9 10  2  0
  9 14  1  0
 10 11  1  0
 11 12  2  0
 12 13  1  0
 13 14  2  0
 15 16  1  0
 17 16  1  1
 17 18  1  0
 17 23  1  0
 18 19  1  0
 18 21  2  0
 19 20  1  0
 19 25  2  0
 21 26  1  0
 21 30  1  0
 22 23  2  0
 22 27  1  0
 22 30  1  0
 23 24  1  0
 24 28  3  0
 25 26  1  0
  1 31  1  0
  1 32  1  0
  3 33  1  0
  4 34  1  6
  5 35  1  0
  5 36  1  0
  5 37  1  0
  6 38  1  0
  6 39  1  0
  6 40  1  0
  7 41  1  0
 10 42  1  0
 11 43  1  0
 12 44  1  0
 13 45  1  0
 14 46  1  0
 15 47  1  0
 20 48  1  0
 20 49  1  0
 20 50  1  0
 26 51  1  0
 27 52  1  0
 27 53  1  0
 29 54  1  0
M  END
>  <filename_input>  (25) 
7X5N_5M5_docked.sdf

>  <pdb_id>  (25) 
7X5N_5M5

>  <pose_rank>  (25) 
24

>  <num_atoms_heavy>  (25) 
30

>  <num_torsions>  (25) 
5

>  <pose>  (25) 
[75.36677504569698, 52.99278533881853, 46.358146270005804, -3.3603422378916417, 0.9250174704213919, -0.7004762824416183, 2.163081350226912, -2.5685998391436886, 0.26190259606747207, -0.09280964308701437, -2.2748603990607714]

>  <energy>  (25) 
96.08744411502022

>  <inter_energy>  (25) 
-50.686765103985564

>  <intra_energy>  (25) 
155.36961248268943

>  <rmsd>  (25) 
12.5

>  <sdf_rank>  (25) 
0

$$$$

     RDKit          3D

 54 57  0  0  0  0  0  0  0  0999 V2000
   79.1920   47.2040   53.4100 C   0  0  0  0  0  0  0  0  0  0  0  0
   80.4890   48.0250   53.3870 C   0  0  0  0  0  0  0  0  0  0  0  0
   81.3730   48.0300   52.3140 C   0  0  0  0  0  0  0  0  0  0  0  0
   81.0010   50.5480   56.7490 C   0  0  2  0  0  0  0  0  0  0  0  0
   79.7880   51.3280   56.2160 C   0  0  0  0  0  0  0  0  0  0  0  0
   81.4280   51.1850   58.0810 C   0  0  0  0  0  0  0  0  0  0  0  0
   80.7710   48.7990   54.4980 C   0  0  0  0  0  0  0  0  0  0  0  0
   82.5090   48.8320   52.3710 C   0  0  0  0  0  0  0  0  0  0  0  0
   83.5130   48.8530   51.2170 C   0  0  0  0  0  0  0  0  0  0  0  0
   83.1230   48.6930   49.9780 C   0  0  0  0  0  0  0  0  0  0  0  0
   84.1580   48.7050   48.8540 C   0  0  0  0  0  0  0  0  0  0  0  0
   85.4350   48.8720   49.1210 C   0  0  0  0  0  0  0  0  0  0  0  0
   85.8870   49.0500   50.5630 C   0  0  0  0  0  0  0  0  0  0  0  0
   84.9910   49.0440   51.5260 C   0  0  0  0  0  0  0  0  0  0  0  0
   82.7800   49.6070   53.4910 C   0  0  0  0  0  0  0  0  0  0  0  0
   81.8990   49.6070   54.5610 C   0  0  0  0  0  0  0  0  0  0  0  0
   82.2080   50.4420   55.7830 C   0  0  1  0  0  0  0  0  0  0  0  0
   82.7710   51.8530   55.3870 C   0  0  0  0  0  0  0  0  0  0  0  0
   82.4720   52.8270   54.5360 C   0  0  0  0  0  0  0  0  0  0  0  0
   81.3040   52.8770   53.5400 C   0  0  0  0  0  0  0  0  0  0  0  0
   84.0040   52.3040   56.1020 C   0  0  0  0  0  0  0  0  0  0  0  0
   84.5300   50.3210   57.0770 C   0  0  0  0  0  0  0  0  0  0  0  0
   83.3070   49.6750   56.5660 C   0  0  0  0  0  0  0  0  0  0  0  0
   83.2490   48.1570   56.5780 C   0  0  0  0  0  0  0  0  0  0  0  0
   83.3200   53.8290   54.6050 N   0  0  0  0  0  0  0  0  0  0  0  0
   84.3050   53.5770   55.5370 N   0  0  0  0  0  0  0  0  0  0  0  0
   85.2690   49.6390   58.1180 N   0  0  0  0  0  0  0  0  0  0  0  0
   83.1710   47.0370   56.6510 N   0  0  0  0  0  0  0  0  0  0  0  0
   79.1600   46.2420   52.4090 O   0  0  0  0  0  0  0  0  0  0  0  0
   84.6690   51.6270   57.0610 O   0  0  0  0  0  0  0  0  0  0  0  0
   79.1079   46.7026   54.3855 H   0  0  0  0  0  0  0  0  0  0  0  0
   78.3531   47.8949   53.2401 H   0  0  0  0  0  0  0  0  0  0  0  0
   81.1766   47.4066   51.4292 H   0  0  0  0  0  0  0  0  0  0  0  0
   80.6738   49.5054   56.8754 H   0  0  0  0  0  0  0  0  0  0  0  0
   79.1963   51.7085   57.0617 H   0  0  0  0  0  0  0  0  0  0  0  0
   80.1357   52.1722   55.6025 H   0  0  0  0  0  0  0  0  0  0  0  0
   79.1641   50.6613   55.6025 H   0  0  0  0  0  0  0  0  0  0  0  0
   81.0294   50.5904   58.9162 H   0  0  0  0  0  0  0  0  0  0  0  0
   82.5261   51.2102   58.1400 H   0  0  0  0  0  0  0  0  0  0  0  0
   81.0341   52.2103   58.1400 H   0  0  0  0  0  0  0  0  0  0  0  0
   80.0827   48.7740   55.3557 H   0  0  0  0  0  0  0  0  0  0  0  0
   82.0569   48.5508   49.7473 H   0  0  0  0  0  0  0  0  0  0  0  0
   83.8320   48.5727   47.8118 H   0  0  0  0  0  0  0  0  0  0  0  0
   86.1730   48.8830   48.3054 H   0  0  0  0  0  0  0  0  0  0  0  0
   86.9534   49.1825   50.7980 H   0  0  0  0  0  0  0  0  0  0  0  0
   85.3143   49.1789   52.5687 H   0  0  0  0  0  0  0  0  0  0  0  0
   83.6926   50.2200   53.5289 H   0  0  0  0  0  0  0  0  0  0  0  0
   80.3532   52.9177   54.0917 H   0  0  0  0  0  0  0  0  0  0  0  0
   81.3995   53.7719   52.9075 H   0  0  0  0  0  0  0  0  0  0  0  0
   81.3227   51.9772   52.9075 H   0  0  0  0  0  0  0  0  0  0  0  0
   85.0995   54.1871   55.7767 H   0  0  0  0  0  0  0  0  0  0  0  0
   86.1282   50.0597   58.4997 H   0  0  0  0  0  0  0  0  0  0  0  0
   84.9357   48.7330   58.4771 H   0  0  0  0  0  0  0  0  0  0  0  0
   79.1300   45.3410   52.8181 H   0  0  0  0  0  0  0  0  0  0  0  0
  1  2  1  0
  1 29  1  0
  2  3  2  0
  2  7  1  0
  3  8  1  0
  4  5  1  0
  4  6  1  0
 17  4  1  0
  7 16  2  0
  8  9  1  0
  8 15  2  0
  9 10  2  0
  9 14  1  0
 10 11  1  0
 11 12  2  0
 12 13  1  0
 13 14  2  0
 15 16  1  0
 17 16  1  6
 17 18  1  0
 17 23  1  0
 18 19  1  0
 18 21  2  0
 19 20  1  0
 19 25  2  0
 21 26  1  0
 21 30  1  0
 22 23  2  0
 22 27  1  0
 22 30  1  0
 23 24  1  0
 24 28  3  0
 25 26  1  0
  1 31  1  0
  1 32  1  0
  3 33  1  0
  4 34  1  1
  5 35  1  0
  5 36  1  0
  5 37  1  0
  6 38  1  0
  6 39  1  0
  6 40  1  0
  7 41  1  0
 10 42  1  0
 11 43  1  0
 12 44  1  0
 13 45  1  0
 14 46  1  0
 15 47  1  0
 20 48  1  0
 20 49  1  0
 20 50  1  0
 26 51  1  0
 27 52  1  0
 27 53  1  0
 29 54  1  0
M  END
>  <filename_input>  (26) 
7X5N_5M5_docked.sdf

>  <pdb_id>  (26) 
7X5N_5M5

>  <pose_rank>  (26) 
25

>  <num_atoms_heavy>  (26) 
30

>  <num_torsions>  (26) 
5

>  <pose>  (26) 
[82.208, 50.442, 55.783, 1e-06, 1e-06, 1e-06, 0.0, 0.0, 0.0, 0.0, 0.0]

>  <energy>  (26) 
-860.798890353963

>  <inter_energy>  (26) 
-903.4753645170655

>  <intra_energy>  (26) 
45.4510609657858

>  <rmsd>  (26) 
0.0

>  <sdf_rank>  (26) 
0

$$$$
