
     RDKit          3D

 36 38  0  0  0  0  0  0  0  0999 V2000
   -9.3651    1.9852   23.7110 O   0  0  0  0  0  0  0  0  0  0  0  0
   -9.1072    0.6660   23.0406 P   0  0  1  0  0  0  0  0  0  0  0  0
  -10.3088    0.0493   22.3730 O   0  0  0  0  0  0  0  0  0  0  0  0
   -7.8558    0.6915   22.1839 O   0  0  0  0  0  0  0  0  0  0  0  0
   -8.8047   -0.3468   24.2570 O   0  0  0  0  0  0  0  0  0  0  0  0
   -7.5801   -0.2461   24.9760 C   0  0  0  0  0  0  0  0  0  0  0  0
   -7.4745   -1.2722   26.1040 C   0  0  1  0  0  0  0  0  0  0  0  0
   -6.0837   -1.5154   26.2815 O   0  0  0  0  0  0  0  0  0  0  0  0
   -7.9867   -0.7356   27.4280 C   0  0  1  0  0  0  0  0  0  0  0  0
   -8.4864   -1.8154   28.2222 O   0  0  0  0  0  0  0  0  0  0  0  0
   -6.7492   -0.2124   28.1240 C   0  0  0  0  0  0  0  0  0  0  0  0
   -5.6569   -1.1214   27.5750 C   0  0  2  0  0  0  0  0  0  0  0  0
   -4.3867   -0.3726   27.4798 N   0  0  0  0  0  0  0  0  0  0  0  0
   -3.3712   -0.3966   28.3329 C   0  0  0  0  0  0  0  0  0  0  0  0
   -2.3343    0.3872   27.9940 N   0  0  0  0  0  0  0  0  0  0  0  0
   -2.7355    0.9447   26.8207 C   0  0  0  0  0  0  0  0  0  0  0  0
   -2.1372    1.8418   25.9502 C   0  0  0  0  0  0  0  0  0  0  0  0
   -0.9956    2.3000   26.1961 O   0  0  0  0  0  0  0  0  0  0  0  0
   -2.7887    2.2135   24.8416 N   0  0  0  0  0  0  0  0  0  0  0  0
   -4.0104    1.7375   24.5593 C   0  0  0  0  0  0  0  0  0  0  0  0
   -4.6436    2.1279   23.4304 N   0  0  0  0  0  0  0  0  0  0  0  0
   -4.6253    0.8672   25.3783 N   0  0  0  0  0  0  0  0  0  0  0  0
   -4.0047    0.4570   26.5093 C   0  0  0  0  0  0  0  0  0  0  0  0
   -3.3993   -1.1079   29.3989 O   0  0  0  0  0  0  0  0  0  0  0  0
   -6.7466   -0.4051   24.2760 H   0  0  0  0  0  0  0  0  0  0  0  0
   -7.5424    0.7545   25.4312 H   0  0  0  0  0  0  0  0  0  0  0  0
   -8.0672   -2.1590   25.8349 H   0  0  0  0  0  0  0  0  0  0  0  0
   -8.7791    0.0143   27.2876 H   0  0  0  0  0  0  0  0  0  0  0  0
   -8.3841   -1.5942   29.1817 H   0  0  0  0  0  0  0  0  0  0  0  0
   -6.5603    0.8394   27.8630 H   0  0  0  0  0  0  0  0  0  0  0  0
   -6.8228   -0.2266   29.2215 H   0  0  0  0  0  0  0  0  0  0  0  0
   -5.4898   -1.9927   28.2254 H   0  0  0  0  0  0  0  0  0  0  0  0
   -1.4491    0.5311   28.5006 H   0  0  0  0  0  0  0  0  0  0  0  0
   -2.3432    2.8779   24.1927 H   0  0  0  0  0  0  0  0  0  0  0  0
   -5.5818    1.7625   23.2135 H   0  0  0  0  0  0  0  0  0  0  0  0
   -4.1877    2.7908   22.7872 H   0  0  0  0  0  0  0  0  0  0  0  0
  2  1  1  1
  2  3  2  0
  2  4  1  0
  2  5  1  0
  5  6  1  0
  7  6  1  0
  7  8  1  0
  7  9  1  0
  8 12  1  0
  9 10  1  0
  9 11  1  0
 11 12  1  0
 12 13  1  0
 13 14  1  0
 13 23  1  0
 14 15  1  0
 14 24  2  0
 15 16  1  0
 16 17  1  0
 16 23  2  0
 17 18  2  0
 17 19  1  0
 19 20  1  0
 20 21  1  0
 20 22  2  0
 22 23  1  0
  6 25  1  0
  6 26  1  0
  7 27  1  6
  9 28  1  6
 10 29  1  0
 11 30  1  0
 11 31  1  0
 12 32  1  1
 15 33  1  0
 19 34  1  0
 21 35  1  0
 21 36  1  0
M  CHG  2   1  -1   4  -1
M  END
>  <filename_input>  (1) 
7X9K_8OG_docked.sdf

>  <pdb_id>  (1) 
7X9K_8OG

>  <pose_rank>  (1) 
0

>  <num_atoms_heavy>  (1) 
24

>  <num_torsions>  (1) 
4

>  <pose>  (1) 
[-7.474511610831648, -1.2722381524902244, 26.103980268711265, -4.512518197676744, -2.6862911750035052, -3.0061740465579248, 6.101328833884826, -0.24571388983485357, 0.6232901509617068, 0.5100611709355252]

>  <energy>  (1) 
-1303.4750668655108

>  <inter_energy>  (1) 
-1300.5921759571922

>  <intra_energy>  (1) 
17.81036879902239

>  <rmsd>  (1) 
0.584066

>  <sdf_rank>  (1) 
0

$$$$

     RDKit          3D

 36 38  0  0  0  0  0  0  0  0999 V2000
  -10.3905    1.0518   24.1573 O   0  0  0  0  0  0  0  0  0  0  0  0
   -9.5874   -0.1209   23.6715 P   0  0  1  0  0  0  0  0  0  0  0  0
  -10.0455   -1.4598   24.1887 O   0  0  0  0  0  0  0  0  0  0  0  0
   -9.3483   -0.0733   22.1745 O   0  0  0  0  0  0  0  0  0  0  0  0
   -8.1465    0.0668   24.3683 O   0  0  0  0  0  0  0  0  0  0  0  0
   -8.0492    0.1434   25.7865 C   0  0  0  0  0  0  0  0  0  0  0  0
   -7.7096   -1.2027   26.4261 C   0  0  1  0  0  0  0  0  0  0  0  0
   -6.3064   -1.3711   26.2596 O   0  0  0  0  0  0  0  0  0  0  0  0
   -7.9671   -1.2173   27.9217 C   0  0  1  0  0  0  0  0  0  0  0  0
   -8.2848   -2.5477   28.3408 O   0  0  0  0  0  0  0  0  0  0  0  0
   -6.6285   -0.8695   28.5356 C   0  0  0  0  0  0  0  0  0  0  0  0
   -5.6459   -1.4260   27.5131 C   0  0  2  0  0  0  0  0  0  0  0  0
   -4.4317   -0.5847   27.4797 N   0  0  0  0  0  0  0  0  0  0  0  0
   -3.4721   -0.5182   28.3931 C   0  0  0  0  0  0  0  0  0  0  0  0
   -2.4776    0.3365   28.1017 N   0  0  0  0  0  0  0  0  0  0  0  0
   -2.8458    0.8433   26.8951 C   0  0  0  0  0  0  0  0  0  0  0  0
   -2.2633    1.7693   26.0443 C   0  0  0  0  0  0  0  0  0  0  0  0
   -1.1766    2.3165   26.3495 O   0  0  0  0  0  0  0  0  0  0  0  0
   -2.8708    2.0730   24.8909 N   0  0  0  0  0  0  0  0  0  0  0  0
   -4.0338    1.5014   24.5448 C   0  0  0  0  0  0  0  0  0  0  0  0
   -4.6231    1.8248   23.3719 N   0  0  0  0  0  0  0  0  0  0  0  0
   -4.6315    0.6000   25.3428 N   0  0  0  0  0  0  0  0  0  0  0  0
   -4.0533    0.2560   26.5174 C   0  0  0  0  0  0  0  0  0  0  0  0
   -3.5130   -1.2126   29.4698 O   0  0  0  0  0  0  0  0  0  0  0  0
   -7.2616    0.8659   26.0470 H   0  0  0  0  0  0  0  0  0  0  0  0
   -9.0308    0.4570   26.1714 H   0  0  0  0  0  0  0  0  0  0  0  0
   -8.3267   -1.9843   25.9589 H   0  0  0  0  0  0  0  0  0  0  0  0
   -8.7853   -0.5383   28.2036 H   0  0  0  0  0  0  0  0  0  0  0  0
   -8.2945   -2.5886   29.3299 H   0  0  0  0  0  0  0  0  0  0  0  0
   -6.5127    0.2186   28.6478 H   0  0  0  0  0  0  0  0  0  0  0  0
   -6.4892   -1.2784   29.5473 H   0  0  0  0  0  0  0  0  0  0  0  0
   -5.3408   -2.4533   27.7615 H   0  0  0  0  0  0  0  0  0  0  0  0
   -1.6387    0.5551   28.6580 H   0  0  0  0  0  0  0  0  0  0  0  0
   -2.4368    2.7589   24.2568 H   0  0  0  0  0  0  0  0  0  0  0  0
   -5.5162    1.3859   23.1061 H   0  0  0  0  0  0  0  0  0  0  0  0
   -4.1791    2.5101   22.7441 H   0  0  0  0  0  0  0  0  0  0  0  0
  2  1  1  1
  2  3  2  0
  2  4  1  0
  2  5  1  0
  5  6  1  0
  7  6  1  0
  7  8  1  0
  7  9  1  0
  8 12  1  0
  9 10  1  0
  9 11  1  0
 11 12  1  0
 12 13  1  0
 13 14  1  0
 13 23  1  0
 14 15  1  0
 14 24  2  0
 15 16  1  0
 16 17  1  0
 16 23  2  0
 17 18  2  0
 17 19  1  0
 19 20  1  0
 20 21  1  0
 20 22  2  0
 22 23  1  0
  6 25  1  0
  6 26  1  0
  7 27  1  6
  9 28  1  6
 10 29  1  0
 11 30  1  0
 11 31  1  0
 12 32  1  1
 15 33  1  0
 19 34  1  0
 21 35  1  0
 21 36  1  0
M  CHG  2   1  -1   4  -1
M  END
>  <filename_input>  (2) 
7X9K_8OG_docked.sdf

>  <pdb_id>  (2) 
7X9K_8OG

>  <pose_rank>  (2) 
1

>  <num_atoms_heavy>  (2) 
24

>  <num_torsions>  (2) 
4

>  <pose>  (2) 
[-7.709642792261453, -1.2027100973345297, 26.42612499382379, 0.5515042265188306, 0.27412881299278113, 0.17164810483232, -19.493557414472104, 17.33360507383717, -13.393358563144327, 2.7668198776328827]

>  <energy>  (2) 
-1249.0730024904256

>  <inter_energy>  (2) 
-1275.8869755646383

>  <intra_energy>  (2) 
25.67171562534192

>  <rmsd>  (2) 
1.18011

>  <sdf_rank>  (2) 
0

$$$$

     RDKit          3D

 36 38  0  0  0  0  0  0  0  0999 V2000
  -11.3983    1.4670   23.2412 O   0  0  0  0  0  0  0  0  0  0  0  0
   -9.9554    1.4635   22.8239 P   0  0  1  0  0  0  0  0  0  0  0  0
   -9.6415    0.5894   21.6375 O   0  0  0  0  0  0  0  0  0  0  0  0
   -9.3765    2.8631   22.7444 O   0  0  0  0  0  0  0  0  0  0  0  0
   -9.1920    0.7239   24.0352 O   0  0  0  0  0  0  0  0  0  0  0  0
   -7.9166    0.1315   23.8132 C   0  0  0  0  0  0  0  0  0  0  0  0
   -7.6781   -1.0967   24.6913 C   0  0  1  0  0  0  0  0  0  0  0  0
   -6.3923   -0.9162   25.2739 O   0  0  0  0  0  0  0  0  0  0  0  0
   -8.6606   -1.1867   25.8445 C   0  0  1  0  0  0  0  0  0  0  0  0
   -8.8567   -2.5580   26.2017 O   0  0  0  0  0  0  0  0  0  0  0  0
   -7.9416   -0.5283   27.0016 C   0  0  0  0  0  0  0  0  0  0  0  0
   -6.4799   -0.8193   26.6858 C   0  0  2  0  0  0  0  0  0  0  0  0
   -5.6351    0.2931   27.1675 N   0  0  0  0  0  0  0  0  0  0  0  0
   -5.9925    1.2876   27.9693 C   0  0  0  0  0  0  0  0  0  0  0  0
   -5.0136    2.1646   28.2471 N   0  0  0  0  0  0  0  0  0  0  0  0
   -3.9480    1.6691   27.5635 C   0  0  0  0  0  0  0  0  0  0  0  0
   -2.6361    2.0939   27.4260 C   0  0  0  0  0  0  0  0  0  0  0  0
   -2.2423    3.1359   28.0029 O   0  0  0  0  0  0  0  0  0  0  0  0
   -1.7911    1.3795   26.6728 N   0  0  0  0  0  0  0  0  0  0  0  0
   -2.1906    0.2632   26.0458 C   0  0  0  0  0  0  0  0  0  0  0  0
   -1.3143   -0.4402   25.2942 N   0  0  0  0  0  0  0  0  0  0  0  0
   -3.4545   -0.1812   26.1526 N   0  0  0  0  0  0  0  0  0  0  0  0
   -4.3452    0.5039   26.9075 C   0  0  0  0  0  0  0  0  0  0  0  0
   -7.1862    1.3951   28.4239 O   0  0  0  0  0  0  0  0  0  0  0  0
   -7.8476   -0.1712   22.7579 H   0  0  0  0  0  0  0  0  0  0  0  0
   -7.1524    0.8793   24.0716 H   0  0  0  0  0  0  0  0  0  0  0  0
   -7.7819   -2.0011   24.0739 H   0  0  0  0  0  0  0  0  0  0  0  0
   -9.6297   -0.7304   25.5941 H   0  0  0  0  0  0  0  0  0  0  0  0
   -8.8689   -2.6437   27.1879 H   0  0  0  0  0  0  0  0  0  0  0  0
   -8.1355    0.5542   27.0267 H   0  0  0  0  0  0  0  0  0  0  0  0
   -8.2611   -0.8996   27.9865 H   0  0  0  0  0  0  0  0  0  0  0  0
   -6.1359   -1.7432   27.1738 H   0  0  0  0  0  0  0  0  0  0  0  0
   -5.0593    3.0085   28.8359 H   0  0  0  0  0  0  0  0  0  0  0  0
   -0.8151    1.6932   26.5728 H   0  0  0  0  0  0  0  0  0  0  0  0
   -1.6210   -1.2975   24.8126 H   0  0  0  0  0  0  0  0  0  0  0  0
   -0.3400   -0.1189   25.2031 H   0  0  0  0  0  0  0  0  0  0  0  0
  2  1  1  1
  2  3  2  0
  2  4  1  0
  2  5  1  0
  5  6  1  0
  7  6  1  0
  7  8  1  0
  7  9  1  0
  8 12  1  0
  9 10  1  0
  9 11  1  0
 11 12  1  0
 12 13  1  0
 13 14  1  0
 13 23  1  0
 14 15  1  0
 14 24  2  0
 15 16  1  0
 16 17  1  0
 16 23  2  0
 17 18  2  0
 17 19  1  0
 19 20  1  0
 20 21  1  0
 20 22  2  0
 22 23  1  0
  6 25  1  0
  6 26  1  0
  7 27  1  6
  9 28  1  6
 10 29  1  0
 11 30  1  0
 11 31  1  0
 12 32  1  1
 15 33  1  0
 19 34  1  0
 21 35  1  0
 21 36  1  0
M  CHG  2   1  -1   4  -1
M  END
>  <filename_input>  (3) 
7X9K_8OG_docked.sdf

>  <pdb_id>  (3) 
7X9K_8OG

>  <pose_rank>  (3) 
2

>  <num_atoms_heavy>  (3) 
24

>  <num_torsions>  (3) 
4

>  <pose>  (3) 
[-7.678059018476173, -1.0967253526999023, 24.691336991269498, 0.39427109135714367, -0.1821544899818026, 0.5356300026692675, 4.572537032739288, 1.0850435432179673, 1.185595261943833, 4.528730467985611]

>  <energy>  (3) 
-704.5576731682863

>  <inter_energy>  (3) 
-752.4785146166732

>  <intra_energy>  (3) 
39.98158829866294

>  <rmsd>  (3) 
2.12844

>  <sdf_rank>  (3) 
0

$$$$

     RDKit          3D

 36 38  0  0  0  0  0  0  0  0999 V2000
  -11.3590    2.2071   22.0646 O   0  0  0  0  0  0  0  0  0  0  0  0
   -9.8869    2.4760   21.9354 P   0  0  1  0  0  0  0  0  0  0  0  0
   -9.3578    2.4382   20.5252 O   0  0  0  0  0  0  0  0  0  0  0  0
   -9.4510    3.6867   22.7383 O   0  0  0  0  0  0  0  0  0  0  0  0
   -9.1865    1.1981   22.6232 O   0  0  0  0  0  0  0  0  0  0  0  0
   -9.5160    0.8438   23.9621 C   0  0  0  0  0  0  0  0  0  0  0  0
   -9.0433   -0.5621   24.3315 C   0  0  1  0  0  0  0  0  0  0  0  0
   -7.6698   -0.6212   23.9641 O   0  0  0  0  0  0  0  0  0  0  0  0
   -9.0971   -0.8196   25.8262 C   0  0  1  0  0  0  0  0  0  0  0  0
   -9.3054   -2.2146   26.0654 O   0  0  0  0  0  0  0  0  0  0  0  0
   -7.7024   -0.4924   26.3132 C   0  0  0  0  0  0  0  0  0  0  0  0
   -6.8455   -0.8283   25.0992 C   0  0  2  0  0  0  0  0  0  0  0  0
   -5.6794    0.0775   25.0465 N   0  0  0  0  0  0  0  0  0  0  0  0
   -5.3937    0.9698   24.1074 C   0  0  0  0  0  0  0  0  0  0  0  0
   -4.2623    1.6629   24.3167 N   0  0  0  0  0  0  0  0  0  0  0  0
   -3.8047    1.1639   25.4956 C   0  0  0  0  0  0  0  0  0  0  0  0
   -2.6890    1.4446   26.2683 C   0  0  0  0  0  0  0  0  0  0  0  0
   -1.8649    2.3159   25.9007 O   0  0  0  0  0  0  0  0  0  0  0  0
   -2.5000    0.7780   27.4136 N   0  0  0  0  0  0  0  0  0  0  0  0
   -3.3672   -0.1586   27.8254 C   0  0  0  0  0  0  0  0  0  0  0  0
   -3.1527   -0.8137   28.9884 N   0  0  0  0  0  0  0  0  0  0  0  0
   -4.4603   -0.4610   27.1042 N   0  0  0  0  0  0  0  0  0  0  0  0
   -4.6980    0.1896   25.9412 C   0  0  0  0  0  0  0  0  0  0  0  0
   -6.1431    1.1353   23.0806 O   0  0  0  0  0  0  0  0  0  0  0  0
   -9.0423    1.5652   24.6441 H   0  0  0  0  0  0  0  0  0  0  0  0
  -10.6122    0.8608   24.0510 H   0  0  0  0  0  0  0  0  0  0  0  0
   -9.6876   -1.2978   23.8279 H   0  0  0  0  0  0  0  0  0  0  0  0
   -9.8951   -0.2404   26.3137 H   0  0  0  0  0  0  0  0  0  0  0  0
   -9.3304   -2.3820   27.0408 H   0  0  0  0  0  0  0  0  0  0  0  0
   -7.6136    0.5708   26.5812 H   0  0  0  0  0  0  0  0  0  0  0  0
   -7.4134   -1.0420   27.2211 H   0  0  0  0  0  0  0  0  0  0  0  0
   -6.4714   -1.8619   25.1405 H   0  0  0  0  0  0  0  0  0  0  0  0
   -3.8428    2.3956   23.7266 H   0  0  0  0  0  0  0  0  0  0  0  0
   -1.6726    0.9884   27.9898 H   0  0  0  0  0  0  0  0  0  0  0  0
   -3.8186   -1.5329   29.3048 H   0  0  0  0  0  0  0  0  0  0  0  0
   -2.3233   -0.5935   29.5581 H   0  0  0  0  0  0  0  0  0  0  0  0
  2  1  1  6
  2  3  2  0
  2  4  1  0
  2  5  1  0
  5  6  1  0
  7  6  1  0
  7  8  1  0
  7  9  1  0
  8 12  1  0
  9 10  1  0
  9 11  1  0
 11 12  1  0
 12 13  1  0
 13 14  1  0
 13 23  1  0
 14 15  1  0
 14 24  2  0
 15 16  1  0
 16 17  1  0
 16 23  2  0
 17 18  2  0
 17 19  1  0
 19 20  1  0
 20 21  1  0
 20 22  2  0
 22 23  1  0
  6 25  1  0
  6 26  1  0
  7 27  1  6
  9 28  1  1
 10 29  1  0
 11 30  1  0
 11 31  1  0
 12 32  1  1
 15 33  1  0
 19 34  1  0
 21 35  1  0
 21 36  1  0
M  CHG  2   1  -1   4  -1
M  END
>  <filename_input>  (4) 
7X9K_8OG_docked.sdf

>  <pdb_id>  (4) 
7X9K_8OG

>  <pose_rank>  (4) 
3

>  <num_atoms_heavy>  (4) 
24

>  <num_torsions>  (4) 
4

>  <pose>  (4) 
[-9.04332200709304, -0.5621278840812457, 24.331497140445855, 0.7134472751961174, 0.40417211222321536, 0.2051742279431608, -3.9491187355750093, -8.301364986854077, -5.896984279619254, -5.48987895512313]

>  <energy>  (4) 
-711.9458131595418

>  <inter_energy>  (4) 
-731.0122839578465

>  <intra_energy>  (4) 
32.2485680845639

>  <rmsd>  (4) 
3.09615

>  <sdf_rank>  (4) 
0

$$$$

     RDKit          3D

 36 38  0  0  0  0  0  0  0  0999 V2000
   -9.8359    0.8678   21.8987 O   0  0  0  0  0  0  0  0  0  0  0  0
  -10.1593    1.3914   23.2689 P   0  0  1  0  0  0  0  0  0  0  0  0
  -10.1002    2.8908   23.4040 O   0  0  0  0  0  0  0  0  0  0  0  0
  -11.4100    0.7568   23.8464 O   0  0  0  0  0  0  0  0  0  0  0  0
   -8.9316    0.8930   24.1860 O   0  0  0  0  0  0  0  0  0  0  0  0
   -8.4380   -0.4354   24.0495 C   0  0  0  0  0  0  0  0  0  0  0  0
   -8.3402   -1.1666   25.3883 C   0  0  1  0  0  0  0  0  0  0  0  0
   -6.9614   -1.4700   25.5674 O   0  0  0  0  0  0  0  0  0  0  0  0
   -8.7403   -0.2896   26.5604 C   0  0  1  0  0  0  0  0  0  0  0  0
   -9.2676   -1.1046   27.6113 O   0  0  0  0  0  0  0  0  0  0  0  0
   -7.4334    0.2849   27.0618 C   0  0  0  0  0  0  0  0  0  0  0  0
   -6.4376   -0.8130   26.7096 C   0  0  2  0  0  0  0  0  0  0  0  0
   -5.1267   -0.2122   26.3880 N   0  0  0  0  0  0  0  0  0  0  0  0
   -4.2062   -0.6836   25.5572 C   0  0  0  0  0  0  0  0  0  0  0  0
   -3.1019    0.0742   25.4540 N   0  0  0  0  0  0  0  0  0  0  0  0
   -3.3592    1.1154   26.2895 C   0  0  0  0  0  0  0  0  0  0  0  0
   -2.6343    2.2429   26.6412 C   0  0  0  0  0  0  0  0  0  0  0  0
   -1.4966    2.4444   26.1526 O   0  0  0  0  0  0  0  0  0  0  0  0
   -3.1614    3.1177   27.5064 N   0  0  0  0  0  0  0  0  0  0  0  0
   -4.3752    2.9219   28.0422 C   0  0  0  0  0  0  0  0  0  0  0  0
   -4.8840    3.8241   28.9111 N   0  0  0  0  0  0  0  0  0  0  0  0
   -5.1091    1.8406   27.7281 N   0  0  0  0  0  0  0  0  0  0  0  0
   -4.6214    0.9298   26.8534 C   0  0  0  0  0  0  0  0  0  0  0  0
   -4.3689   -1.7842   24.9206 O   0  0  0  0  0  0  0  0  0  0  0  0
   -9.1159   -0.9971   23.3901 H   0  0  0  0  0  0  0  0  0  0  0  0
   -7.4233   -0.3723   23.6295 H   0  0  0  0  0  0  0  0  0  0  0  0
   -9.0059   -2.0420   25.3650 H   0  0  0  0  0  0  0  0  0  0  0  0
   -9.4864    0.4654   26.2718 H   0  0  0  0  0  0  0  0  0  0  0  0
   -9.0168   -0.7170   28.4870 H   0  0  0  0  0  0  0  0  0  0  0  0
   -7.1880    1.2251   26.5462 H   0  0  0  0  0  0  0  0  0  0  0  0
   -7.4467    0.5397   28.1318 H   0  0  0  0  0  0  0  0  0  0  0  0
   -6.2945   -1.5137   27.5454 H   0  0  0  0  0  0  0  0  0  0  0  0
   -2.2629   -0.0932   24.8804 H   0  0  0  0  0  0  0  0  0  0  0  0
   -2.6243    3.9575   27.7658 H   0  0  0  0  0  0  0  0  0  0  0  0
   -5.8162    3.6738   29.3226 H   0  0  0  0  0  0  0  0  0  0  0  0
   -4.3394    4.6617   29.1615 H   0  0  0  0  0  0  0  0  0  0  0  0
  2  1  1  6
  2  3  2  0
  2  4  1  0
  2  5  1  0
  5  6  1  0
  7  6  1  0
  7  8  1  0
  7  9  1  0
  8 12  1  0
  9 10  1  0
  9 11  1  0
 11 12  1  0
 12 13  1  0
 13 14  1  0
 13 23  1  0
 14 15  1  0
 14 24  2  0
 15 16  1  0
 16 17  1  0
 16 23  2  0
 17 18  2  0
 17 19  1  0
 19 20  1  0
 20 21  1  0
 20 22  2  0
 22 23  1  0
  6 25  1  0
  6 26  1  0
  7 27  1  6
  9 28  1  6
 10 29  1  0
 11 30  1  0
 11 31  1  0
 12 32  1  1
 15 33  1  0
 19 34  1  0
 21 35  1  0
 21 36  1  0
M  CHG  2   1  -1   4  -1
M  END
>  <filename_input>  (5) 
7X9K_8OG_docked.sdf

>  <pdb_id>  (5) 
7X9K_8OG

>  <pose_rank>  (5) 
4

>  <num_atoms_heavy>  (5) 
24

>  <num_torsions>  (5) 
4

>  <pose>  (5) 
[-8.340155012950111, -1.1666339207445975, 25.3882713342133, -0.06389766697448762, 0.15618878987490006, 0.023615582321582188, 1.7418792072690512, -4.964537774708798, 1.5272265451780775, 1.0052381219201856]

>  <energy>  (5) 
-755.3030645026113

>  <inter_energy>  (5) 
-786.7811146187979

>  <intra_energy>  (5) 
38.28374839380391

>  <rmsd>  (5) 
2.22337

>  <sdf_rank>  (5) 
0

$$$$

     RDKit          3D

 36 38  0  0  0  0  0  0  0  0999 V2000
   -7.1564   -0.1965   22.0709 O   0  0  0  0  0  0  0  0  0  0  0  0
   -5.9337    0.1818   22.8571 P   0  0  1  0  0  0  0  0  0  0  0  0
   -4.6838   -0.5732   22.4863 O   0  0  0  0  0  0  0  0  0  0  0  0
   -5.7550    1.6848   22.9543 O   0  0  0  0  0  0  0  0  0  0  0  0
   -6.2444   -0.3366   24.3510 O   0  0  0  0  0  0  0  0  0  0  0  0
   -7.5401   -0.8290   24.6757 C   0  0  0  0  0  0  0  0  0  0  0  0
   -7.5766   -1.5411   26.0278 C   0  0  1  0  0  0  0  0  0  0  0  0
   -6.2263   -1.8730   26.3306 O   0  0  0  0  0  0  0  0  0  0  0  0
   -8.0558   -0.6369   27.1485 C   0  0  1  0  0  0  0  0  0  0  0  0
   -8.6919   -1.4231   28.1603 O   0  0  0  0  0  0  0  0  0  0  0  0
   -6.7839   -0.0845   27.7540 C   0  0  0  0  0  0  0  0  0  0  0  0
   -5.7881   -1.2103   27.5051 C   0  0  2  0  0  0  0  0  0  0  0  0
   -4.4401   -0.6446   27.2908 N   0  0  0  0  0  0  0  0  0  0  0  0
   -3.2887   -1.1046   27.7624 C   0  0  0  0  0  0  0  0  0  0  0  0
   -2.2095   -0.3887   27.4060 N   0  0  0  0  0  0  0  0  0  0  0  0
   -2.7332    0.6026   26.6370 C   0  0  0  0  0  0  0  0  0  0  0  0
   -2.1655    1.6715   25.9619 C   0  0  0  0  0  0  0  0  0  0  0  0
   -0.9261    1.8612   26.0009 O   0  0  0  0  0  0  0  0  0  0  0  0
   -2.9529    2.4994   25.2646 N   0  0  0  0  0  0  0  0  0  0  0  0
   -4.2804    2.3167   25.2100 C   0  0  0  0  0  0  0  0  0  0  0  0
   -5.0509    3.1669   24.4951 N   0  0  0  0  0  0  0  0  0  0  0  0
   -4.8696    1.2933   25.8519 N   0  0  0  0  0  0  0  0  0  0  0  0
   -4.1150    0.4256   26.5661 C   0  0  0  0  0  0  0  0  0  0  0  0
   -3.2304   -2.1449   28.5091 O   0  0  0  0  0  0  0  0  0  0  0  0
   -8.2417    0.0177   24.7045 H   0  0  0  0  0  0  0  0  0  0  0  0
   -7.8205   -1.5623   23.9053 H   0  0  0  0  0  0  0  0  0  0  0  0
   -8.2586   -2.4013   25.9585 H   0  0  0  0  0  0  0  0  0  0  0  0
   -8.7556    0.1303   26.7856 H   0  0  0  0  0  0  0  0  0  0  0  0
   -8.4234   -1.0912   29.0535 H   0  0  0  0  0  0  0  0  0  0  0  0
   -6.4722    0.8416   27.2490 H   0  0  0  0  0  0  0  0  0  0  0  0
   -6.8840    0.1874   28.8152 H   0  0  0  0  0  0  0  0  0  0  0  0
   -5.7349   -1.9008   28.3597 H   0  0  0  0  0  0  0  0  0  0  0  0
   -1.2234   -0.5515   27.6550 H   0  0  0  0  0  0  0  0  0  0  0  0
   -2.5310    3.2922   24.7602 H   0  0  0  0  0  0  0  0  0  0  0  0
   -6.0704    3.0267   24.4531 H   0  0  0  0  0  0  0  0  0  0  0  0
   -4.6183    3.9550   23.9923 H   0  0  0  0  0  0  0  0  0  0  0  0
  2  1  1  6
  2  3  2  0
  2  4  1  0
  2  5  1  0
  5  6  1  0
  7  6  1  0
  7  8  1  0
  7  9  1  0
  8 12  1  0
  9 10  1  0
  9 11  1  0
 11 12  1  0
 12 13  1  0
 13 14  1  0
 13 23  1  0
 14 15  1  0
 14 24  2  0
 15 16  1  0
 16 17  1  0
 16 23  2  0
 17 18  2  0
 17 19  1  0
 19 20  1  0
 20 21  1  0
 20 22  2  0
 22 23  1  0
  6 25  1  0
  6 26  1  0
  7 27  1  6
  9 28  1  6
 10 29  1  0
 11 30  1  0
 11 31  1  0
 12 32  1  1
 15 33  1  0
 19 34  1  0
 21 35  1  0
 21 36  1  0
M  CHG  2   1  -1   4  -1
M  END
>  <filename_input>  (6) 
7X9K_8OG_docked.sdf

>  <pdb_id>  (6) 
7X9K_8OG

>  <pose_rank>  (6) 
5

>  <num_atoms_heavy>  (6) 
24

>  <num_torsions>  (6) 
4

>  <pose>  (6) 
[-7.576553190809681, -1.5411230363504862, 26.027761596295928, -0.07764223382448852, 0.06996712421339273, -0.0037368391391375076, 0.5004435845057917, 3.04904404437628, 0.4271120810093269, 1.6209681966444545]

>  <energy>  (6) 
-836.4141258028724

>  <inter_energy>  (6) 
-987.3658596473165

>  <intra_energy>  (6) 
139.3368069356767

>  <rmsd>  (6) 
1.76263

>  <sdf_rank>  (6) 
0

$$$$

     RDKit          3D

 36 38  0  0  0  0  0  0  0  0999 V2000
   -2.1964    2.2582   27.6249 O   0  0  0  0  0  0  0  0  0  0  0  0
   -2.4353    1.4285   26.3959 P   0  0  1  0  0  0  0  0  0  0  0  0
   -2.0574    2.0950   25.0986 O   0  0  0  0  0  0  0  0  0  0  0  0
   -1.9166    0.0114   26.5492 O   0  0  0  0  0  0  0  0  0  0  0  0
   -4.0398    1.3169   26.2959 O   0  0  0  0  0  0  0  0  0  0  0  0
   -4.8534    1.8354   27.3428 C   0  0  0  0  0  0  0  0  0  0  0  0
   -5.3239    0.7521   28.3131 C   0  0  1  0  0  0  0  0  0  0  0  0
   -6.7070    0.5579   28.0404 O   0  0  0  0  0  0  0  0  0  0  0  0
   -4.6480   -0.5839   28.0651 C   0  0  1  0  0  0  0  0  0  0  0  0
   -4.5753   -1.3194   29.2900 O   0  0  0  0  0  0  0  0  0  0  0  0
   -5.6071   -1.3270   27.1610 C   0  0  0  0  0  0  0  0  0  0  0  0
   -6.9573   -0.7601   27.5812 C   0  0  2  0  0  0  0  0  0  0  0  0
   -7.8663   -0.7234   26.4169 N   0  0  0  0  0  0  0  0  0  0  0  0
   -9.0692   -1.2735   26.3161 C   0  0  0  0  0  0  0  0  0  0  0  0
   -9.6782   -1.0797   25.1346 N   0  0  0  0  0  0  0  0  0  0  0  0
   -8.7780   -0.3359   24.4383 C   0  0  0  0  0  0  0  0  0  0  0  0
   -8.7856    0.1997   23.1602 C   0  0  0  0  0  0  0  0  0  0  0  0
   -9.7704    0.0231   22.4035 O   0  0  0  0  0  0  0  0  0  0  0  0
   -7.7318    0.9106   22.7408 N   0  0  0  0  0  0  0  0  0  0  0  0
   -6.6676    1.1110   23.5322 C   0  0  0  0  0  0  0  0  0  0  0  0
   -5.6186    1.8361   23.0833 N   0  0  0  0  0  0  0  0  0  0  0  0
   -6.6208    0.6071   24.7773 N   0  0  0  0  0  0  0  0  0  0  0  0
   -7.6646   -0.1143   25.2489 C   0  0  0  0  0  0  0  0  0  0  0  0
   -9.5892   -1.9450   27.2763 O   0  0  0  0  0  0  0  0  0  0  0  0
   -4.2723    2.5823   27.9035 H   0  0  0  0  0  0  0  0  0  0  0  0
   -5.7473    2.2800   26.8810 H   0  0  0  0  0  0  0  0  0  0  0  0
   -5.0967    1.0719   29.3408 H   0  0  0  0  0  0  0  0  0  0  0  0
   -3.6367   -0.4612   27.6501 H   0  0  0  0  0  0  0  0  0  0  0  0
   -4.6371   -0.6938   30.0547 H   0  0  0  0  0  0  0  0  0  0  0  0
   -5.3994   -1.1166   26.1015 H   0  0  0  0  0  0  0  0  0  0  0  0
   -5.5413   -2.4210   27.2543 H   0  0  0  0  0  0  0  0  0  0  0  0
   -7.4297   -1.3744   28.3619 H   0  0  0  0  0  0  0  0  0  0  0  0
  -10.6036   -1.4138   24.8297 H   0  0  0  0  0  0  0  0  0  0  0  0
   -7.7383    1.3115   21.7921 H   0  0  0  0  0  0  0  0  0  0  0  0
   -4.8013    1.9900   23.6909 H   0  0  0  0  0  0  0  0  0  0  0  0
   -5.6367    2.2346   22.1337 H   0  0  0  0  0  0  0  0  0  0  0  0
  2  1  1  1
  2  3  2  0
  2  4  1  0
  2  5  1  0
  5  6  1  0
  7  6  1  0
  7  8  1  0
  7  9  1  0
  8 12  1  0
  9 10  1  0
  9 11  1  0
 11 12  1  0
 12 13  1  0
 13 14  1  0
 13 23  1  0
 14 15  1  0
 14 24  2  0
 15 16  1  0
 16 17  1  0
 16 23  2  0
 17 18  2  0
 17 19  1  0
 19 20  1  0
 20 21  1  0
 20 22  2  0
 22 23  1  0
  6 25  1  0
  6 26  1  0
  7 27  1  1
  9 28  1  6
 10 29  1  0
 11 30  1  0
 11 31  1  0
 12 32  1  1
 15 33  1  0
 19 34  1  0
 21 35  1  0
 21 36  1  0
M  CHG  2   1  -1   4  -1
M  END
>  <filename_input>  (7) 
7X9K_8OG_docked.sdf

>  <pdb_id>  (7) 
7X9K_8OG

>  <pose_rank>  (7) 
6

>  <num_atoms_heavy>  (7) 
24

>  <num_torsions>  (7) 
4

>  <pose>  (7) 
[-5.32385575964281, 0.7520547036545786, 28.313089198778457, -0.733297643085952, -2.0978032744151522, 2.5751150950656685, -6.028286298104418, 1.5114897509005005, 2.0515246315943974, -4.628638981485423]

>  <energy>  (7) 
-698.9886277058608

>  <inter_energy>  (7) 
-728.2124510553753

>  <intra_energy>  (7) 
37.551761596534355

>  <rmsd>  (7) 
5.62963

>  <sdf_rank>  (7) 
0

$$$$

     RDKit          3D

 36 38  0  0  0  0  0  0  0  0999 V2000
  -10.1156    2.1619   23.7160 O   0  0  0  0  0  0  0  0  0  0  0  0
   -9.2679    1.2687   22.8559 P   0  0  1  0  0  0  0  0  0  0  0  0
   -9.9271    0.8037   21.5834 O   0  0  0  0  0  0  0  0  0  0  0  0
   -7.8627    1.8099   22.6748 O   0  0  0  0  0  0  0  0  0  0  0  0
   -9.1252   -0.0896   23.7112 O   0  0  0  0  0  0  0  0  0  0  0  0
   -7.8837   -0.4114   24.3292 C   0  0  0  0  0  0  0  0  0  0  0  0
   -8.0442   -1.3773   25.5030 C   0  0  1  0  0  0  0  0  0  0  0  0
   -6.7284   -1.7977   25.8452 O   0  0  0  0  0  0  0  0  0  0  0  0
   -8.6116   -0.7022   26.7381 C   0  0  1  0  0  0  0  0  0  0  0  0
   -9.3404   -1.6573   27.5148 O   0  0  0  0  0  0  0  0  0  0  0  0
   -7.3928   -0.3146   27.5466 C   0  0  0  0  0  0  0  0  0  0  0  0
   -6.3887   -1.3936   27.1613 C   0  0  2  0  0  0  0  0  0  0  0  0
   -5.0223   -0.8317   27.1786 N   0  0  0  0  0  0  0  0  0  0  0  0
   -4.0499   -1.1040   28.0387 C   0  0  0  0  0  0  0  0  0  0  0  0
   -2.9010   -0.4450   27.8147 N   0  0  0  0  0  0  0  0  0  0  0  0
   -3.1789    0.2997   26.7117 C   0  0  0  0  0  0  0  0  0  0  0  0
   -2.4298    1.1966   25.9667 C   0  0  0  0  0  0  0  0  0  0  0  0
   -1.2435    1.4514   26.2850 O   0  0  0  0  0  0  0  0  0  0  0  0
   -2.9840    1.7876   24.9012 N   0  0  0  0  0  0  0  0  0  0  0  0
   -4.2510    1.5313   24.5432 C   0  0  0  0  0  0  0  0  0  0  0  0
   -4.7836    2.1404   23.4602 N   0  0  0  0  0  0  0  0  0  0  0  0
   -5.0108    0.6691   25.2402 N   0  0  0  0  0  0  0  0  0  0  0  0
   -4.4935    0.0422   26.3227 C   0  0  0  0  0  0  0  0  0  0  0  0
   -4.2150   -1.9246   29.0096 O   0  0  0  0  0  0  0  0  0  0  0  0
   -7.2264   -0.8750   23.5789 H   0  0  0  0  0  0  0  0  0  0  0  0
   -7.4553    0.5224   24.7224 H   0  0  0  0  0  0  0  0  0  0  0  0
   -8.7250   -2.1885   25.2057 H   0  0  0  0  0  0  0  0  0  0  0  0
   -9.2704    0.1398   26.4791 H   0  0  0  0  0  0  0  0  0  0  0  0
   -9.2011   -1.4748   28.4778 H   0  0  0  0  0  0  0  0  0  0  0  0
   -7.0301    0.6852   27.2656 H   0  0  0  0  0  0  0  0  0  0  0  0
   -7.5828   -0.2569   28.6285 H   0  0  0  0  0  0  0  0  0  0  0  0
   -6.4164   -2.2416   27.8614 H   0  0  0  0  0  0  0  0  0  0  0  0
   -2.0219   -0.4924   28.3493 H   0  0  0  0  0  0  0  0  0  0  0  0
   -2.4268    2.4520   24.3454 H   0  0  0  0  0  0  0  0  0  0  0  0
   -5.7565    1.9437   23.1852 H   0  0  0  0  0  0  0  0  0  0  0  0
   -4.2165    2.8012   22.9100 H   0  0  0  0  0  0  0  0  0  0  0  0
  2  1  1  1
  2  3  2  0
  2  4  1  0
  2  5  1  0
  5  6  1  0
  7  6  1  0
  7  8  1  0
  7  9  1  0
  8 12  1  0
  9 10  1  0
  9 11  1  0
 11 12  1  0
 12 13  1  0
 13 14  1  0
 13 23  1  0
 14 15  1  0
 14 24  2  0
 15 16  1  0
 16 17  1  0
 16 23  2  0
 17 18  2  0
 17 19  1  0
 19 20  1  0
 20 21  1  0
 20 22  2  0
 22 23  1  0
  6 25  1  0
  6 26  1  0
  7 27  1  6
  9 28  1  6
 10 29  1  0
 11 30  1  0
 11 31  1  0
 12 32  1  1
 15 33  1  0
 19 34  1  0
 21 35  1  0
 21 36  1  0
M  CHG  2   1  -1   4  -1
M  END
>  <filename_input>  (8) 
7X9K_8OG_docked.sdf

>  <pdb_id>  (8) 
7X9K_8OG

>  <pose_rank>  (8) 
7

>  <num_atoms_heavy>  (8) 
24

>  <num_torsions>  (8) 
4

>  <pose>  (8) 
[-8.044176251699684, -1.3772872834614032, 25.50302121163933, 6.300987059889136, -0.7803344278204549, -0.879981417701264, 0.007366221554310269, 0.04887270727399011, 0.2436734161064466, -0.11642911322096869]

>  <energy>  (8) 
-1005.0149795759224

>  <inter_energy>  (8) 
-994.1028354570427

>  <intra_energy>  (8) 
17.67019981183803

>  <rmsd>  (8) 
0.600847

>  <sdf_rank>  (8) 
0

$$$$

     RDKit          3D

 36 38  0  0  0  0  0  0  0  0999 V2000
  -10.9363   -0.5215   26.7810 O   0  0  0  0  0  0  0  0  0  0  0  0
  -11.0017   -1.6633   25.8072 P   0  0  1  0  0  0  0  0  0  0  0  0
   -9.9410   -2.7168   25.9947 O   0  0  0  0  0  0  0  0  0  0  0  0
  -12.4088   -2.2080   25.6536 O   0  0  0  0  0  0  0  0  0  0  0  0
  -10.6132   -1.0014   24.3902 O   0  0  0  0  0  0  0  0  0  0  0  0
  -10.8835    0.3761   24.1530 C   0  0  0  0  0  0  0  0  0  0  0  0
   -9.8057    1.0487   23.3030 C   0  0  1  0  0  0  0  0  0  0  0  0
   -8.7214    1.3137   24.1857 O   0  0  0  0  0  0  0  0  0  0  0  0
   -9.2623    0.1329   22.2217 C   0  0  1  0  0  0  0  0  0  0  0  0
   -8.8171    0.9151   21.1097 O   0  0  0  0  0  0  0  0  0  0  0  0
   -8.0315   -0.4908   22.8428 C   0  0  0  0  0  0  0  0  0  0  0  0
   -7.5601    0.5984   23.7980 C   0  0  2  0  0  0  0  0  0  0  0  0
   -6.9290   -0.0176   24.9834 N   0  0  0  0  0  0  0  0  0  0  0  0
   -7.4318   -0.9661   25.7627 C   0  0  0  0  0  0  0  0  0  0  0  0
   -6.6339   -1.3422   26.7758 N   0  0  0  0  0  0  0  0  0  0  0  0
   -5.5315   -0.5642   26.6096 C   0  0  0  0  0  0  0  0  0  0  0  0
   -4.3411   -0.4542   27.3106 C   0  0  0  0  0  0  0  0  0  0  0  0
   -4.1314   -1.1665   28.3217 O   0  0  0  0  0  0  0  0  0  0  0  0
   -3.4145    0.4186   26.8966 N   0  0  0  0  0  0  0  0  0  0  0  0
   -3.6177    1.1911   25.8192 C   0  0  0  0  0  0  0  0  0  0  0  0
   -2.6627    2.0616   25.4219 N   0  0  0  0  0  0  0  0  0  0  0  0
   -4.7590    1.1157   25.1133 N   0  0  0  0  0  0  0  0  0  0  0  0
   -5.7242    0.2443   25.4894 C   0  0  0  0  0  0  0  0  0  0  0  0
   -8.5950   -1.4643   25.5581 O   0  0  0  0  0  0  0  0  0  0  0  0
  -11.8479    0.4610   23.6309 H   0  0  0  0  0  0  0  0  0  0  0  0
  -10.9040    0.8843   25.1283 H   0  0  0  0  0  0  0  0  0  0  0  0
  -10.2366    1.9389   22.8214 H   0  0  0  0  0  0  0  0  0  0  0  0
  -10.0159   -0.5927   21.8819 H   0  0  0  0  0  0  0  0  0  0  0  0
   -8.3555    1.7261   21.4404 H   0  0  0  0  0  0  0  0  0  0  0  0
   -8.2837   -1.4140   23.3851 H   0  0  0  0  0  0  0  0  0  0  0  0
   -7.2708   -0.7895   22.1065 H   0  0  0  0  0  0  0  0  0  0  0  0
   -6.8202    1.2604   23.3244 H   0  0  0  0  0  0  0  0  0  0  0  0
   -6.8139   -2.0493   27.5028 H   0  0  0  0  0  0  0  0  0  0  0  0
   -2.5283    0.4985   27.4154 H   0  0  0  0  0  0  0  0  0  0  0  0
   -2.8186    2.6549   24.5945 H   0  0  0  0  0  0  0  0  0  0  0  0
   -1.7791    2.1315   25.9467 H   0  0  0  0  0  0  0  0  0  0  0  0
  2  1  1  1
  2  3  2  0
  2  4  1  0
  2  5  1  0
  5  6  1  0
  7  6  1  0
  7  8  1  0
  7  9  1  0
  8 12  1  0
  9 10  1  0
  9 11  1  0
 11 12  1  0
 12 13  1  0
 13 14  1  0
 13 23  1  0
 14 15  1  0
 14 24  2  0
 15 16  1  0
 16 17  1  0
 16 23  2  0
 17 18  2  0
 17 19  1  0
 19 20  1  0
 20 21  1  0
 20 22  2  0
 22 23  1  0
  6 25  1  0
  6 26  1  0
  7 27  1  6
  9 28  1  6
 10 29  1  0
 11 30  1  0
 11 31  1  0
 12 32  1  6
 15 33  1  0
 19 34  1  0
 21 35  1  0
 21 36  1  0
M  CHG  2   1  -1   4  -1
M  END
>  <filename_input>  (9) 
7X9K_8OG_docked.sdf

>  <pdb_id>  (9) 
7X9K_8OG

>  <pose_rank>  (9) 
8

>  <num_atoms_heavy>  (9) 
24

>  <num_torsions>  (9) 
4

>  <pose>  (9) 
[-9.805733051240704, 1.0487335733772893, 23.30300493159452, -2.843874476211907, 0.13160170481236994, -1.5103056682436204, 3.4652752924844603, 2.004551743088794, 0.009794183991431372, 1.2754069812840834]

>  <energy>  (9) 
-465.1253674122704

>  <inter_energy>  (9) 
-672.9207281312318

>  <intra_energy>  (9) 
208.53995727084057

>  <rmsd>  (9) 
4.19746

>  <sdf_rank>  (9) 
0

$$$$

     RDKit          3D

 36 38  0  0  0  0  0  0  0  0999 V2000
   -2.3813    2.6720   27.0178 O   0  0  0  0  0  0  0  0  0  0  0  0
   -2.2861    1.6429   25.9279 P   0  0  1  0  0  0  0  0  0  0  0  0
   -3.5100    1.5281   25.0567 O   0  0  0  0  0  0  0  0  0  0  0  0
   -0.9779    1.7323   25.1656 O   0  0  0  0  0  0  0  0  0  0  0  0
   -2.2609    0.2345   26.7105 O   0  0  0  0  0  0  0  0  0  0  0  0
   -3.4648   -0.5076   26.8740 C   0  0  0  0  0  0  0  0  0  0  0  0
   -4.4925    0.2222   27.7387 C   0  0  1  0  0  0  0  0  0  0  0  0
   -5.2720    1.0050   26.8416 O   0  0  0  0  0  0  0  0  0  0  0  0
   -5.4564   -0.7290   28.4238 C   0  0  1  0  0  0  0  0  0  0  0  0
   -5.9118   -0.1496   29.6500 O   0  0  0  0  0  0  0  0  0  0  0  0
   -6.6490   -0.7877   27.4943 C   0  0  0  0  0  0  0  0  0  0  0  0
   -6.6286    0.5925   26.8495 C   0  0  2  0  0  0  0  0  0  0  0  0
   -7.1357    0.5029   25.4647 N   0  0  0  0  0  0  0  0  0  0  0  0
   -6.4494    0.6740   24.3425 C   0  0  0  0  0  0  0  0  0  0  0  0
   -7.1684    0.5309   23.2169 N   0  0  0  0  0  0  0  0  0  0  0  0
   -8.4133    0.2371   23.6777 C   0  0  0  0  0  0  0  0  0  0  0  0
   -9.6159   -0.0264   23.0414 C   0  0  0  0  0  0  0  0  0  0  0  0
   -9.6875   -0.0159   21.7891 O   0  0  0  0  0  0  0  0  0  0  0  0
  -10.7016   -0.2953   23.7768 N   0  0  0  0  0  0  0  0  0  0  0  0
  -10.6487   -0.3106   25.1168 C   0  0  0  0  0  0  0  0  0  0  0  0
  -11.7605   -0.5887   25.8340 N   0  0  0  0  0  0  0  0  0  0  0  0
   -9.5022   -0.0589   25.7716 N   0  0  0  0  0  0  0  0  0  0  0  0
   -8.3758    0.2131   25.0718 C   0  0  0  0  0  0  0  0  0  0  0  0
   -5.2011    0.9653   24.3502 O   0  0  0  0  0  0  0  0  0  0  0  0
   -3.9043   -0.6890   25.8821 H   0  0  0  0  0  0  0  0  0  0  0  0
   -3.2095   -1.4488   27.3830 H   0  0  0  0  0  0  0  0  0  0  0  0
   -3.9624    0.7976   28.5119 H   0  0  0  0  0  0  0  0  0  0  0  0
   -4.9930   -1.7053   28.6289 H   0  0  0  0  0  0  0  0  0  0  0  0
   -5.5225   -0.6449   30.4136 H   0  0  0  0  0  0  0  0  0  0  0  0
   -6.5282   -1.5806   26.7415 H   0  0  0  0  0  0  0  0  0  0  0  0
   -7.5945   -1.0200   28.0062 H   0  0  0  0  0  0  0  0  0  0  0  0
   -7.2618    1.3054   27.3979 H   0  0  0  0  0  0  0  0  0  0  0  0
   -6.8529    0.6219   22.2407 H   0  0  0  0  0  0  0  0  0  0  0  0
  -11.5950   -0.4942   23.3043 H   0  0  0  0  0  0  0  0  0  0  0  0
  -11.7200   -0.6005   26.8631 H   0  0  0  0  0  0  0  0  0  0  0  0
  -12.6481   -0.7887   25.3512 H   0  0  0  0  0  0  0  0  0  0  0  0
  2  1  1  1
  2  3  2  0
  2  4  1  0
  2  5  1  0
  5  6  1  0
  7  6  1  0
  7  8  1  0
  7  9  1  0
  8 12  1  0
  9 10  1  0
  9 11  1  0
 11 12  1  0
 12 13  1  0
 13 14  1  0
 13 23  1  0
 14 15  1  0
 14 24  2  0
 15 16  1  0
 16 17  1  0
 16 23  2  0
 17 18  2  0
 17 19  1  0
 19 20  1  0
 20 21  1  0
 20 22  2  0
 22 23  1  0
  6 25  1  0
  6 26  1  0
  7 27  1  1
  9 28  1  1
 10 29  1  0
 11 30  1  0
 11 31  1  0
 12 32  1  1
 15 33  1  0
 19 34  1  0
 21 35  1  0
 21 36  1  0
M  CHG  2   1  -1   4  -1
M  END
>  <filename_input>  (10) 
7X9K_8OG_docked.sdf

>  <pdb_id>  (10) 
7X9K_8OG

>  <pose_rank>  (10) 
9

>  <num_atoms_heavy>  (10) 
24

>  <num_torsions>  (10) 
4

>  <pose>  (10) 
[-4.492496122626179, 0.22222402255514845, 27.738720811421533, -1.5678182671414795, -0.26790052414606524, 2.367420257486747, 14.981233037501783, 30.080749615277917, 8.936086588371408, 3.4489583402570663]

>  <energy>  (10) 
-550.3936919289978

>  <inter_energy>  (10) 
-677.9677885104068

>  <intra_energy>  (10) 
147.1819470907043

>  <rmsd>  (10) 
6.1096

>  <sdf_rank>  (10) 
0

$$$$

     RDKit          3D

 36 38  0  0  0  0  0  0  0  0999 V2000
   -1.6239    1.5251   25.7824 O   0  0  0  0  0  0  0  0  0  0  0  0
   -2.7197    1.3971   26.8017 P   0  0  1  0  0  0  0  0  0  0  0  0
   -2.3995    0.4958   27.9658 O   0  0  0  0  0  0  0  0  0  0  0  0
   -3.3037    2.7420   27.1898 O   0  0  0  0  0  0  0  0  0  0  0  0
   -3.8888    0.5988   26.0319 O   0  0  0  0  0  0  0  0  0  0  0  0
   -4.4115   -0.6032   26.5876 C   0  0  0  0  0  0  0  0  0  0  0  0
   -5.6476   -0.3615   27.4538 C   0  0  1  0  0  0  0  0  0  0  0  0
   -6.4100    0.6316   26.7773 O   0  0  0  0  0  0  0  0  0  0  0  0
   -6.5363   -1.5877   27.5537 C   0  0  1  0  0  0  0  0  0  0  0  0
   -7.2381   -1.5711   28.8002 O   0  0  0  0  0  0  0  0  0  0  0  0
   -7.5680   -1.3924   26.4643 C   0  0  0  0  0  0  0  0  0  0  0  0
   -7.6747    0.1252   26.3838 C   0  0  2  0  0  0  0  0  0  0  0  0
   -7.9692    0.5308   24.9939 N   0  0  0  0  0  0  0  0  0  0  0  0
   -7.1052    0.6854   23.9993 C   0  0  0  0  0  0  0  0  0  0  0  0
   -7.6536    1.0620   22.8323 N   0  0  0  0  0  0  0  0  0  0  0  0
   -8.9793    1.1426   23.1227 C   0  0  0  0  0  0  0  0  0  0  0  0
  -10.0913    1.4765   22.3660 C   0  0  0  0  0  0  0  0  0  0  0  0
   -9.9668    1.7870   21.1570 O   0  0  0  0  0  0  0  0  0  0  0  0
  -11.3017    1.4620   22.9375 N   0  0  0  0  0  0  0  0  0  0  0  0
  -11.4583    1.1346   24.2287 C   0  0  0  0  0  0  0  0  0  0  0  0
  -12.6933    1.1252   24.7785 N   0  0  0  0  0  0  0  0  0  0  0  0
  -10.4052    0.8061   24.9966 N   0  0  0  0  0  0  0  0  0  0  0  0
   -9.1612    0.8009   24.4628 C   0  0  0  0  0  0  0  0  0  0  0  0
   -5.8473    0.4984   24.1601 O   0  0  0  0  0  0  0  0  0  0  0  0
   -4.6843   -1.2817   25.7659 H   0  0  0  0  0  0  0  0  0  0  0  0
   -3.6333   -1.0383   27.2318 H   0  0  0  0  0  0  0  0  0  0  0  0
   -5.3230   -0.0831   28.4672 H   0  0  0  0  0  0  0  0  0  0  0  0
   -5.9592   -2.5204   27.4697 H   0  0  0  0  0  0  0  0  0  0  0  0
   -6.5869   -1.5865   29.5458 H   0  0  0  0  0  0  0  0  0  0  0  0
   -7.2248   -1.8185   25.5100 H   0  0  0  0  0  0  0  0  0  0  0  0
   -8.5267   -1.8902   26.6722 H   0  0  0  0  0  0  0  0  0  0  0  0
   -8.4792    0.5097   27.0278 H   0  0  0  0  0  0  0  0  0  0  0  0
   -7.1834    1.2455   21.9345 H   0  0  0  0  0  0  0  0  0  0  0  0
  -12.1288    1.7072   22.3747 H   0  0  0  0  0  0  0  0  0  0  0  0
  -12.8136    0.8738   25.7701 H   0  0  0  0  0  0  0  0  0  0  0  0
  -13.5138    1.3696   24.2059 H   0  0  0  0  0  0  0  0  0  0  0  0
  2  1  1  6
  2  3  2  0
  2  4  1  0
  2  5  1  0
  5  6  1  0
  7  6  1  0
  7  8  1  0
  7  9  1  0
  8 12  1  0
  9 10  1  0
  9 11  1  0
 11 12  1  0
 12 13  1  0
 13 14  1  0
 13 23  1  0
 14 15  1  0
 14 24  2  0
 15 16  1  0
 16 17  1  0
 16 23  2  0
 17 18  2  0
 17 19  1  0
 19 20  1  0
 20 21  1  0
 20 22  2  0
 22 23  1  0
  6 25  1  0
  6 26  1  0
  7 27  1  1
  9 28  1  6
 10 29  1  0
 11 30  1  0
 11 31  1  0
 12 32  1  1
 15 33  1  0
 19 34  1  0
 21 35  1  0
 21 36  1  0
M  CHG  2   1  -1   4  -1
M  END
>  <filename_input>  (11) 
7X9K_8OG_docked.sdf

>  <pdb_id>  (11) 
7X9K_8OG

>  <pose_rank>  (11) 
10

>  <num_atoms_heavy>  (11) 
24

>  <num_torsions>  (11) 
4

>  <pose>  (11) 
[-5.647600495026847, -0.3615056890541113, 27.453752231056665, 2.019665351797407, 1.055588558324197, -2.67677241268545, -3.3619216521239808, -2.2124356020490454, -0.876205142479936, -2.3396389619379248]

>  <energy>  (11) 
-590.9819527627432

>  <inter_energy>  (11) 
-632.9501594527308

>  <intra_energy>  (11) 
42.690329045822274

>  <rmsd>  (11) 
6.31379

>  <sdf_rank>  (11) 
0

$$$$

     RDKit          3D

 36 38  0  0  0  0  0  0  0  0999 V2000
  -14.2342    3.5845   23.2392 O   0  0  0  0  0  0  0  0  0  0  0  0
  -13.5335    2.9860   24.4253 P   0  0  1  0  0  0  0  0  0  0  0  0
  -12.3480    3.7715   24.9231 O   0  0  0  0  0  0  0  0  0  0  0  0
  -14.5032    2.5565   25.5095 O   0  0  0  0  0  0  0  0  0  0  0  0
  -12.8639    1.6364   23.8535 O   0  0  0  0  0  0  0  0  0  0  0  0
  -11.4615    1.4294   23.9853 C   0  0  0  0  0  0  0  0  0  0  0  0
  -10.6724    1.9748   22.7953 C   0  0  1  0  0  0  0  0  0  0  0  0
   -9.3907    2.3255   23.3047 O   0  0  0  0  0  0  0  0  0  0  0  0
  -10.4342    0.9251   21.7254 C   0  0  1  0  0  0  0  0  0  0  0  0
  -10.3271    1.5587   20.4472 O   0  0  0  0  0  0  0  0  0  0  0  0
   -9.0695    0.3595   22.0527 C   0  0  0  0  0  0  0  0  0  0  0  0
   -8.3703    1.5479   22.7007 C   0  0  2  0  0  0  0  0  0  0  0  0
   -7.4257    1.0690   23.7309 N   0  0  0  0  0  0  0  0  0  0  0  0
   -6.1598    1.4305   23.8940 C   0  0  0  0  0  0  0  0  0  0  0  0
   -5.5328    0.8329   24.9206 N   0  0  0  0  0  0  0  0  0  0  0  0
   -6.4955    0.0322   25.4502 C   0  0  0  0  0  0  0  0  0  0  0  0
   -6.5064   -0.8461   26.5222 C   0  0  0  0  0  0  0  0  0  0  0  0
   -5.4735   -1.0179   27.2128 O   0  0  0  0  0  0  0  0  0  0  0  0
   -7.6320   -1.5084   26.8157 N   0  0  0  0  0  0  0  0  0  0  0  0
   -8.7476   -1.3413   26.0903 C   0  0  0  0  0  0  0  0  0  0  0  0
   -9.8711   -2.0211   26.4119 N   0  0  0  0  0  0  0  0  0  0  0  0
   -8.7776   -0.5002   25.0424 N   0  0  0  0  0  0  0  0  0  0  0  0
   -7.6658    0.1965   24.7092 C   0  0  0  0  0  0  0  0  0  0  0  0
   -5.5916    2.2758   23.1156 O   0  0  0  0  0  0  0  0  0  0  0  0
  -11.1153    1.9347   24.8990 H   0  0  0  0  0  0  0  0  0  0  0  0
  -11.2878    0.3442   24.0311 H   0  0  0  0  0  0  0  0  0  0  0  0
  -11.2344    2.8075   22.3473 H   0  0  0  0  0  0  0  0  0  0  0  0
  -11.2403    0.1772   21.6980 H   0  0  0  0  0  0  0  0  0  0  0  0
  -10.1634    2.5271   20.5716 H   0  0  0  0  0  0  0  0  0  0  0  0
   -9.1464   -0.4865   22.7515 H   0  0  0  0  0  0  0  0  0  0  0  0
   -8.5373   -0.0398   21.1767 H   0  0  0  0  0  0  0  0  0  0  0  0
   -7.8014    2.1343   21.9642 H   0  0  0  0  0  0  0  0  0  0  0  0
   -4.5581    0.9523   25.2315 H   0  0  0  0  0  0  0  0  0  0  0  0
   -7.6415   -2.1590   27.6142 H   0  0  0  0  0  0  0  0  0  0  0  0
  -10.7279   -1.8929   25.8549 H   0  0  0  0  0  0  0  0  0  0  0  0
   -9.8702   -2.6672   27.2140 H   0  0  0  0  0  0  0  0  0  0  0  0
  2  1  1  6
  2  3  2  0
  2  4  1  0
  2  5  1  0
  5  6  1  0
  7  6  1  0
  7  8  1  0
  7  9  1  0
  8 12  1  0
  9 10  1  0
  9 11  1  0
 11 12  1  0
 12 13  1  0
 13 14  1  0
 13 23  1  0
 14 15  1  0
 14 24  2  0
 15 16  1  0
 16 17  1  0
 16 23  2  0
 17 18  2  0
 17 19  1  0
 19 20  1  0
 20 21  1  0
 20 22  2  0
 22 23  1  0
  6 25  1  0
  6 26  1  0
  7 27  1  6
  9 28  1  6
 10 29  1  0
 11 30  1  0
 11 31  1  0
 12 32  1  6
 15 33  1  0
 19 34  1  0
 21 35  1  0
 21 36  1  0
M  CHG  2   1  -1   4  -1
M  END
>  <filename_input>  (12) 
7X9K_8OG_docked.sdf

>  <pdb_id>  (12) 
7X9K_8OG

>  <pose_rank>  (12) 
11

>  <num_atoms_heavy>  (12) 
24

>  <num_torsions>  (12) 
4

>  <pose>  (12) 
[-10.672356501832013, 1.9748109983815323, 22.795295186760157, 2.762060102723957, -0.018257466494418687, 1.0104657340262224, 0.38143477451624586, -0.262800877847826, -4.07591582623589, -2.3599238408695347]

>  <energy>  (12) 
-495.3858274307392

>  <inter_energy>  (12) 
-520.6408302104161

>  <intra_energy>  (12) 
15.670349165550483

>  <rmsd>  (12) 
5.50708

>  <sdf_rank>  (12) 
0

$$$$

     RDKit          3D

 36 38  0  0  0  0  0  0  0  0999 V2000
  -10.9120    0.3629   26.7423 O   0  0  0  0  0  0  0  0  0  0  0  0
  -11.4316   -0.1017   25.4118 P   0  0  1  0  0  0  0  0  0  0  0  0
  -12.8142   -0.6995   25.4457 O   0  0  0  0  0  0  0  0  0  0  0  0
  -11.2189    0.9292   24.3198 O   0  0  0  0  0  0  0  0  0  0  0  0
  -10.4980   -1.3604   25.0368 O   0  0  0  0  0  0  0  0  0  0  0  0
   -9.4246   -1.1979   24.1157 C   0  0  0  0  0  0  0  0  0  0  0  0
   -8.9277    0.2457   24.0410 C   0  0  1  0  0  0  0  0  0  0  0  0
   -8.4530    0.5630   25.3444 O   0  0  0  0  0  0  0  0  0  0  0  0
   -7.7440    0.4054   23.1047 C   0  0  1  0  0  0  0  0  0  0  0  0
   -7.7400    1.7273   22.5577 O   0  0  0  0  0  0  0  0  0  0  0  0
   -6.5348    0.2985   24.0079 C   0  0  0  0  0  0  0  0  0  0  0  0
   -7.0636    0.8459   25.3276 C   0  0  2  0  0  0  0  0  0  0  0  0
   -6.3967    0.1608   26.4541 N   0  0  0  0  0  0  0  0  0  0  0  0
   -6.9628   -0.5907   27.3892 C   0  0  0  0  0  0  0  0  0  0  0  0
   -6.1105   -1.0941   28.2974 N   0  0  0  0  0  0  0  0  0  0  0  0
   -4.9037   -0.6203   27.8883 C   0  0  0  0  0  0  0  0  0  0  0  0
   -3.6171   -0.7667   28.3822 C   0  0  0  0  0  0  0  0  0  0  0  0
   -3.4062   -1.4513   29.4119 O   0  0  0  0  0  0  0  0  0  0  0  0
   -2.5996   -0.1719   27.7476 N   0  0  0  0  0  0  0  0  0  0  0  0
   -2.8018    0.5658   26.6459 C   0  0  0  0  0  0  0  0  0  0  0  0
   -1.7547    1.1523   26.0237 N   0  0  0  0  0  0  0  0  0  0  0  0
   -4.0342    0.7333   26.1363 N   0  0  0  0  0  0  0  0  0  0  0  0
   -5.0949    0.1472   26.7394 C   0  0  0  0  0  0  0  0  0  0  0  0
   -8.2273   -0.7993   27.4164 O   0  0  0  0  0  0  0  0  0  0  0  0
   -8.5901   -1.8419   24.4300 H   0  0  0  0  0  0  0  0  0  0  0  0
   -9.7970   -1.4741   23.1182 H   0  0  0  0  0  0  0  0  0  0  0  0
   -9.7463    0.8855   23.6797 H   0  0  0  0  0  0  0  0  0  0  0  0
   -7.7657   -0.3301   22.2871 H   0  0  0  0  0  0  0  0  0  0  0  0
   -7.7380    2.3891   23.2940 H   0  0  0  0  0  0  0  0  0  0  0  0
   -6.2076   -0.7465   24.1130 H   0  0  0  0  0  0  0  0  0  0  0  0
   -5.6541    0.8379   23.6294 H   0  0  0  0  0  0  0  0  0  0  0  0
   -6.8723    1.9247   25.4247 H   0  0  0  0  0  0  0  0  0  0  0  0
   -6.3207   -1.6940   29.1078 H   0  0  0  0  0  0  0  0  0  0  0  0
   -1.6428   -0.2829   28.1125 H   0  0  0  0  0  0  0  0  0  0  0  0
   -1.9098    1.7188   25.1776 H   0  0  0  0  0  0  0  0  0  0  0  0
   -0.8017    1.0326   26.3957 H   0  0  0  0  0  0  0  0  0  0  0  0
  2  1  1  1
  2  3  2  0
  2  4  1  0
  2  5  1  0
  5  6  1  0
  7  6  1  0
  7  8  1  0
  7  9  1  0
  8 12  1  0
  9 10  1  0
  9 11  1  0
 11 12  1  0
 12 13  1  0
 13 14  1  0
 13 23  1  0
 14 15  1  0
 14 24  2  0
 15 16  1  0
 16 17  1  0
 16 23  2  0
 17 18  2  0
 17 19  1  0
 19 20  1  0
 20 21  1  0
 20 22  2  0
 22 23  1  0
  6 25  1  0
  6 26  1  0
  7 27  1  6
  9 28  1  6
 10 29  1  0
 11 30  1  0
 11 31  1  0
 12 32  1  6
 15 33  1  0
 19 34  1  0
 21 35  1  0
 21 36  1  0
M  CHG  2   1  -1   4  -1
M  END
>  <filename_input>  (13) 
7X9K_8OG_docked.sdf

>  <pdb_id>  (13) 
7X9K_8OG

>  <pose_rank>  (13) 
12

>  <num_atoms_heavy>  (13) 
24

>  <num_torsions>  (13) 
4

>  <pose>  (13) 
[-8.927707218882485, 0.2457280572835996, 24.040965346094346, 2.937004113385128, 0.564279522743842, 2.2794661716074405, -16.54286629478965, -20.67740121855348, 4.202380038655798, 0.0076676936669434065]

>  <energy>  (13) 
-537.3198736213509

>  <inter_energy>  (13) 
-628.7665672567766

>  <intra_energy>  (13) 
110.65366662988198

>  <rmsd>  (13) 
3.58007

>  <sdf_rank>  (13) 
0

$$$$

     RDKit          3D

 36 38  0  0  0  0  0  0  0  0999 V2000
   -2.5887    0.6325   25.9230 O   0  0  0  0  0  0  0  0  0  0  0  0
   -3.3862    0.7655   27.1889 P   0  0  1  0  0  0  0  0  0  0  0  0
   -3.0074   -0.2015   28.2804 O   0  0  0  0  0  0  0  0  0  0  0  0
   -3.5098    2.2078   27.6416 O   0  0  0  0  0  0  0  0  0  0  0  0
   -4.8697    0.2895   26.7773 O   0  0  0  0  0  0  0  0  0  0  0  0
   -5.0409   -0.8118   25.8914 C   0  0  0  0  0  0  0  0  0  0  0  0
   -5.4064   -0.3740   24.4731 C   0  0  1  0  0  0  0  0  0  0  0  0
   -6.6750   -0.9577   24.1992 O   0  0  0  0  0  0  0  0  0  0  0  0
   -5.5933    1.1276   24.3581 C   0  0  1  0  0  0  0  0  0  0  0  0
   -5.2714    1.5508   23.0300 O   0  0  0  0  0  0  0  0  0  0  0  0
   -7.0813    1.3348   24.5382 C   0  0  0  0  0  0  0  0  0  0  0  0
   -7.6607    0.0389   23.9852 C   0  0  2  0  0  0  0  0  0  0  0  0
   -8.8952   -0.3081   24.7192 N   0  0  0  0  0  0  0  0  0  0  0  0
  -10.1379    0.0453   24.4183 C   0  0  0  0  0  0  0  0  0  0  0  0
  -11.0735   -0.4160   25.2646 N   0  0  0  0  0  0  0  0  0  0  0  0
  -10.3509   -1.1271   26.1705 C   0  0  0  0  0  0  0  0  0  0  0  0
  -10.7042   -1.8537   27.2965 C   0  0  0  0  0  0  0  0  0  0  0  0
  -11.9058   -1.9384   27.6464 O   0  0  0  0  0  0  0  0  0  0  0  0
   -9.7499   -2.4673   28.0069 N   0  0  0  0  0  0  0  0  0  0  0  0
   -8.4588   -2.3892   27.6522 C   0  0  0  0  0  0  0  0  0  0  0  0
   -7.5167   -3.0221   28.3867 N   0  0  0  0  0  0  0  0  0  0  0  0
   -8.0752   -1.6935   26.5681 N   0  0  0  0  0  0  0  0  0  0  0  0
   -9.0040   -1.0598   25.8142 C   0  0  0  0  0  0  0  0  0  0  0  0
  -10.4056    0.7806   23.4030 O   0  0  0  0  0  0  0  0  0  0  0  0
   -4.1013   -1.3823   25.8528 H   0  0  0  0  0  0  0  0  0  0  0  0
   -5.8711   -1.4226   26.2758 H   0  0  0  0  0  0  0  0  0  0  0  0
   -4.6011   -0.6782   23.7883 H   0  0  0  0  0  0  0  0  0  0  0  0
   -4.9688    1.6751   25.0794 H   0  0  0  0  0  0  0  0  0  0  0  0
   -4.6725    2.3380   23.0705 H   0  0  0  0  0  0  0  0  0  0  0  0
   -7.3395    1.4652   25.5995 H   0  0  0  0  0  0  0  0  0  0  0  0
   -7.4636    2.2364   24.0373 H   0  0  0  0  0  0  0  0  0  0  0  0
   -7.9138    0.1307   22.9187 H   0  0  0  0  0  0  0  0  0  0  0  0
  -12.0922   -0.2671   25.2345 H   0  0  0  0  0  0  0  0  0  0  0  0
  -10.0123   -3.0100   28.8421 H   0  0  0  0  0  0  0  0  0  0  0  0
   -6.5252   -2.9622   28.1144 H   0  0  0  0  0  0  0  0  0  0  0  0
   -7.7905   -3.5642   29.2186 H   0  0  0  0  0  0  0  0  0  0  0  0
  2  1  1  6
  2  3  2  0
  2  4  1  0
  2  5  1  0
  5  6  1  0
  7  6  1  0
  7  8  1  0
  7  9  1  0
  8 12  1  0
  9 10  1  0
  9 11  1  0
 11 12  1  0
 12 13  1  0
 13 14  1  0
 13 23  1  0
 14 15  1  0
 14 24  2  0
 15 16  1  0
 16 17  1  0
 16 23  2  0
 17 18  2  0
 17 19  1  0
 19 20  1  0
 20 21  1  0
 20 22  2  0
 22 23  1  0
  6 25  1  0
  6 26  1  0
  7 27  1  6
  9 28  1  1
 10 29  1  0
 11 30  1  0
 11 31  1  0
 12 32  1  6
 15 33  1  0
 19 34  1  0
 21 35  1  0
 21 36  1  0
M  CHG  2   1  -1   4  -1
M  END
>  <filename_input>  (14) 
7X9K_8OG_docked.sdf

>  <pdb_id>  (14) 
7X9K_8OG

>  <pose_rank>  (14) 
13

>  <num_atoms_heavy>  (14) 
24

>  <num_torsions>  (14) 
4

>  <pose>  (14) 
[-5.406365249629121, -0.37404174797475304, 24.47314277806037, -0.6473642787938783, 3.1087103783622427, 1.4968475826230638, -0.3377396153739692, 1.290988291473191, 1.979754637558451, 2.4443699499260267]

>  <energy>  (14) 
-490.30339160290134

>  <inter_energy>  (14) 
-523.9027540104971

>  <intra_energy>  (14) 
29.72562418137658

>  <rmsd>  (14) 
6.86019

>  <sdf_rank>  (14) 
0

$$$$

     RDKit          3D

 36 38  0  0  0  0  0  0  0  0999 V2000
   -9.7350    1.2538   21.1910 O   0  0  0  0  0  0  0  0  0  0  0  0
   -9.9106    1.2619   22.6827 P   0  0  1  0  0  0  0  0  0  0  0  0
   -9.0841    2.2891   23.4120 O   0  0  0  0  0  0  0  0  0  0  0  0
  -11.3711    1.2256   23.0899 O   0  0  0  0  0  0  0  0  0  0  0  0
   -9.2687   -0.1346   23.1671 O   0  0  0  0  0  0  0  0  0  0  0  0
   -8.1506   -0.1335   24.0484 C   0  0  0  0  0  0  0  0  0  0  0  0
   -8.4044   -0.9409   25.3212 C   0  0  1  0  0  0  0  0  0  0  0  0
   -7.1296   -1.4077   25.7480 O   0  0  0  0  0  0  0  0  0  0  0  0
   -8.9475   -0.0875   26.4525 C   0  0  1  0  0  0  0  0  0  0  0  0
   -9.7589   -0.8920   27.3133 O   0  0  0  0  0  0  0  0  0  0  0  0
   -7.7210    0.3078   27.2456 C   0  0  0  0  0  0  0  0  0  0  0  0
   -6.7892   -0.8757   27.0175 C   0  0  2  0  0  0  0  0  0  0  0  0
   -5.3867   -0.4111   27.0092 N   0  0  0  0  0  0  0  0  0  0  0  0
   -4.4273   -0.7291   27.8683 C   0  0  0  0  0  0  0  0  0  0  0  0
   -3.2373   -0.1585   27.6179 N   0  0  0  0  0  0  0  0  0  0  0  0
   -3.4731    0.5755   26.4981 C   0  0  0  0  0  0  0  0  0  0  0  0
   -2.6703    1.3982   25.7240 C   0  0  0  0  0  0  0  0  0  0  0  0
   -1.4660    1.5769   26.0260 O   0  0  0  0  0  0  0  0  0  0  0  0
   -3.1921    1.9993   24.6478 N   0  0  0  0  0  0  0  0  0  0  0  0
   -4.4774    1.8238   24.3069 C   0  0  0  0  0  0  0  0  0  0  0  0
   -4.9766    2.4410   23.2126 N   0  0  0  0  0  0  0  0  0  0  0  0
   -5.2890    1.0353   25.0321 N   0  0  0  0  0  0  0  0  0  0  0  0
   -4.8063    0.4014   26.1265 C   0  0  0  0  0  0  0  0  0  0  0  0
   -4.6400   -1.5110   28.8616 O   0  0  0  0  0  0  0  0  0  0  0  0
   -7.2871   -0.5669   23.5225 H   0  0  0  0  0  0  0  0  0  0  0  0
   -7.9627    0.9085   24.3468 H   0  0  0  0  0  0  0  0  0  0  0  0
   -9.1353   -1.7327   25.1004 H   0  0  0  0  0  0  0  0  0  0  0  0
   -9.5386    0.7615   26.0785 H   0  0  0  0  0  0  0  0  0  0  0  0
   -9.5473   -0.6821   28.2574 H   0  0  0  0  0  0  0  0  0  0  0  0
   -7.2818    1.2402   26.8611 H   0  0  0  0  0  0  0  0  0  0  0  0
   -7.9289    0.5056   28.3076 H   0  0  0  0  0  0  0  0  0  0  0  0
   -6.8922   -1.6313   27.8102 H   0  0  0  0  0  0  0  0  0  0  0  0
   -2.3585   -0.2540   28.1466 H   0  0  0  0  0  0  0  0  0  0  0  0
   -2.5951    2.6084   24.0704 H   0  0  0  0  0  0  0  0  0  0  0  0
   -5.9636    2.3063   22.9506 H   0  0  0  0  0  0  0  0  0  0  0  0
   -4.3700    3.0459   22.6408 H   0  0  0  0  0  0  0  0  0  0  0  0
  2  1  1  6
  2  3  2  0
  2  4  1  0
  2  5  1  0
  5  6  1  0
  7  6  1  0
  7  8  1  0
  7  9  1  0
  8 12  1  0
  9 10  1  0
  9 11  1  0
 11 12  1  0
 12 13  1  0
 13 14  1  0
 13 23  1  0
 14 15  1  0
 14 24  2  0
 15 16  1  0
 16 17  1  0
 16 23  2  0
 17 18  2  0
 17 19  1  0
 19 20  1  0
 20 21  1  0
 20 22  2  0
 22 23  1  0
  6 25  1  0
  6 26  1  0
  7 27  1  6
  9 28  1  6
 10 29  1  0
 11 30  1  0
 11 31  1  0
 12 32  1  1
 15 33  1  0
 19 34  1  0
 21 35  1  0
 21 36  1  0
M  CHG  2   1  -1   4  -1
M  END
>  <filename_input>  (15) 
7X9K_8OG_docked.sdf

>  <pdb_id>  (15) 
7X9K_8OG

>  <pose_rank>  (15) 
14

>  <num_atoms_heavy>  (15) 
24

>  <num_torsions>  (15) 
4

>  <pose>  (15) 
[-8.404392114506804, -0.9409218864061534, 25.321192347323926, -0.43078690050546464, 2.916584204757935, 5.438480670141164, 0.10492138933336614, 6.030925510118936, -6.619414055796164, -2.4540055292249305]

>  <energy>  (15) 
-925.1184468732353

>  <inter_energy>  (15) 
-940.378895883988

>  <intra_energy>  (15) 
13.405794053924858

>  <rmsd>  (15) 
0.900483

>  <sdf_rank>  (15) 
0

$$$$

     RDKit          3D

 36 38  0  0  0  0  0  0  0  0999 V2000
  -12.2224    2.2771   23.8879 O   0  0  0  0  0  0  0  0  0  0  0  0
  -11.2839    2.1278   22.7247 P   0  0  1  0  0  0  0  0  0  0  0  0
  -11.9513    1.8350   21.4061 O   0  0  0  0  0  0  0  0  0  0  0  0
  -10.2505    3.2369   22.6739 O   0  0  0  0  0  0  0  0  0  0  0  0
  -10.4766    0.7683   23.0359 O   0  0  0  0  0  0  0  0  0  0  0  0
   -9.4273    0.7709   23.9980 C   0  0  0  0  0  0  0  0  0  0  0  0
   -9.1668   -0.6151   24.5875 C   0  0  1  0  0  0  0  0  0  0  0  0
   -7.7881   -0.6367   24.9396 O   0  0  0  0  0  0  0  0  0  0  0  0
   -9.9393   -0.8555   25.8715 C   0  0  1  0  0  0  0  0  0  0  0  0
  -10.2092   -2.2531   26.0145 O   0  0  0  0  0  0  0  0  0  0  0  0
   -8.9680   -0.4795   26.9691 C   0  0  0  0  0  0  0  0  0  0  0  0
   -7.6201   -0.8041   26.3375 C   0  0  2  0  0  0  0  0  0  0  0  0
   -6.5962    0.1363   26.8378 N   0  0  0  0  0  0  0  0  0  0  0  0
   -6.4824    0.6253   28.0657 C   0  0  0  0  0  0  0  0  0  0  0  0
   -5.4485    1.4645   28.2424 N   0  0  0  0  0  0  0  0  0  0  0  0
   -4.8601    1.4964   27.0172 C   0  0  0  0  0  0  0  0  0  0  0  0
   -3.7521    2.1647   26.5209 C   0  0  0  0  0  0  0  0  0  0  0  0
   -3.0826    2.9228   27.2630 O   0  0  0  0  0  0  0  0  0  0  0  0
   -3.4009    1.9915   25.2409 N   0  0  0  0  0  0  0  0  0  0  0  0
   -4.1027    1.1870   24.4290 C   0  0  0  0  0  0  0  0  0  0  0  0
   -3.7228    1.0284   23.1413 N   0  0  0  0  0  0  0  0  0  0  0  0
   -5.1840    0.5225   24.8715 N   0  0  0  0  0  0  0  0  0  0  0  0
   -5.5759    0.6609   26.1598 C   0  0  0  0  0  0  0  0  0  0  0  0
   -7.3106    0.3203   28.9953 O   0  0  0  0  0  0  0  0  0  0  0  0
   -8.5060    1.1265   23.5135 H   0  0  0  0  0  0  0  0  0  0  0  0
   -9.7331    1.4315   24.8227 H   0  0  0  0  0  0  0  0  0  0  0  0
   -9.4672   -1.3765   23.8526 H   0  0  0  0  0  0  0  0  0  0  0  0
  -10.8855   -0.2949   25.8919 H   0  0  0  0  0  0  0  0  0  0  0  0
  -10.2537   -2.4838   26.9762 H   0  0  0  0  0  0  0  0  0  0  0  0
   -9.0436    0.5891   27.2187 H   0  0  0  0  0  0  0  0  0  0  0  0
   -9.1486   -1.0086   27.9164 H   0  0  0  0  0  0  0  0  0  0  0  0
   -7.2928   -1.8252   26.5832 H   0  0  0  0  0  0  0  0  0  0  0  0
   -5.1691    1.9633   29.0992 H   0  0  0  0  0  0  0  0  0  0  0  0
   -2.5757    2.4856   24.8723 H   0  0  0  0  0  0  0  0  0  0  0  0
   -4.2617    0.4106   22.5177 H   0  0  0  0  0  0  0  0  0  0  0  0
   -2.8944    1.5253   22.7838 H   0  0  0  0  0  0  0  0  0  0  0  0
  2  1  1  1
  2  3  2  0
  2  4  1  0
  2  5  1  0
  5  6  1  0
  7  6  1  0
  7  8  1  0
  7  9  1  0
  8 12  1  0
  9 10  1  0
  9 11  1  0
 11 12  1  0
 12 13  1  0
 13 14  1  0
 13 23  1  0
 14 15  1  0
 14 24  2  0
 15 16  1  0
 16 17  1  0
 16 23  2  0
 17 18  2  0
 17 19  1  0
 19 20  1  0
 20 21  1  0
 20 22  2  0
 22 23  1  0
  6 25  1  0
  6 26  1  0
  7 27  1  6
  9 28  1  6
 10 29  1  0
 11 30  1  0
 11 31  1  0
 12 32  1  6
 15 33  1  0
 19 34  1  0
 21 35  1  0
 21 36  1  0
M  CHG  2   1  -1   4  -1
M  END
>  <filename_input>  (16) 
7X9K_8OG_docked.sdf

>  <pdb_id>  (16) 
7X9K_8OG

>  <pose_rank>  (16) 
15

>  <num_atoms_heavy>  (16) 
24

>  <num_torsions>  (16) 
4

>  <pose>  (16) 
[-9.166792416231218, -0.6151460715649518, 24.587503674206967, -4.631875128007071, 0.5448015849890486, -3.012821418069622, -13.825331374273405, -19.119961061996634, 6.5076462345659305, 0.4151465462641636]

>  <energy>  (16) 
-617.8985267170136

>  <inter_energy>  (16) 
-659.8058395269211

>  <intra_energy>  (16) 
34.960977905928104

>  <rmsd>  (16) 
2.211

>  <sdf_rank>  (16) 
0

$$$$

     RDKit          3D

 36 38  0  0  0  0  0  0  0  0999 V2000
    0.9010   -2.9387   22.1155 O   0  0  0  0  0  0  0  0  0  0  0  0
   -0.0192   -3.3946   23.2117 P   0  0  1  0  0  0  0  0  0  0  0  0
   -1.4744   -3.4661   22.8280 O   0  0  0  0  0  0  0  0  0  0  0  0
    0.5039   -4.6258   23.9265 O   0  0  0  0  0  0  0  0  0  0  0  0
    0.0169   -2.1949   24.2871 O   0  0  0  0  0  0  0  0  0  0  0  0
   -1.1697   -1.8325   24.9853 C   0  0  0  0  0  0  0  0  0  0  0  0
   -1.4670   -0.3355   24.9018 C   0  0  1  0  0  0  0  0  0  0  0  0
   -2.8830   -0.2230   24.8168 O   0  0  0  0  0  0  0  0  0  0  0  0
   -1.0539    0.4103   26.1573 C   0  0  1  0  0  0  0  0  0  0  0  0
   -0.7207    1.7613   25.8250 O   0  0  0  0  0  0  0  0  0  0  0  0
   -2.3130    0.4602   26.9949 C   0  0  0  0  0  0  0  0  0  0  0  0
   -3.4089    0.4699   25.9366 C   0  0  2  0  0  0  0  0  0  0  0  0
   -4.6026   -0.2340   26.4491 N   0  0  0  0  0  0  0  0  0  0  0  0
   -4.7326   -0.8581   27.6125 C   0  0  0  0  0  0  0  0  0  0  0  0
   -5.9379   -1.4135   27.8203 N   0  0  0  0  0  0  0  0  0  0  0  0
   -6.6239   -1.1019   26.6887 C   0  0  0  0  0  0  0  0  0  0  0  0
   -7.9154   -1.3720   26.2650 C   0  0  0  0  0  0  0  0  0  0  0  0
   -8.6969   -2.0322   26.9909 O   0  0  0  0  0  0  0  0  0  0  0  0
   -8.3227   -0.9189   25.0731 N   0  0  0  0  0  0  0  0  0  0  0  0
   -7.5040   -0.2122   24.2799 C   0  0  0  0  0  0  0  0  0  0  0  0
   -7.9435    0.2357   23.0825 N   0  0  0  0  0  0  0  0  0  0  0  0
   -6.2440    0.0695   24.6537 N   0  0  0  0  0  0  0  0  0  0  0  0
   -5.7874   -0.3624   25.8526 C   0  0  0  0  0  0  0  0  0  0  0  0
   -3.7689   -0.9271   28.4550 O   0  0  0  0  0  0  0  0  0  0  0  0
   -2.0164   -2.3846   24.5514 H   0  0  0  0  0  0  0  0  0  0  0  0
   -1.0221   -2.0841   26.0460 H   0  0  0  0  0  0  0  0  0  0  0  0
   -0.9184    0.0891   24.0481 H   0  0  0  0  0  0  0  0  0  0  0  0
   -0.1970   -0.0674   26.6549 H   0  0  0  0  0  0  0  0  0  0  0  0
   -0.5919    2.2834   26.6562 H   0  0  0  0  0  0  0  0  0  0  0  0
   -2.3945   -0.4240   27.6442 H   0  0  0  0  0  0  0  0  0  0  0  0
   -2.3533    1.3218   27.6775 H   0  0  0  0  0  0  0  0  0  0  0  0
   -3.7068    1.4949   25.6710 H   0  0  0  0  0  0  0  0  0  0  0  0
   -6.2636   -1.9466   28.6392 H   0  0  0  0  0  0  0  0  0  0  0  0
   -9.2835   -1.1167   24.7590 H   0  0  0  0  0  0  0  0  0  0  0  0
   -7.3148    0.7784   22.4733 H   0  0  0  0  0  0  0  0  0  0  0  0
   -8.9071    0.0343   22.7794 H   0  0  0  0  0  0  0  0  0  0  0  0
  2  1  1  6
  2  3  2  0
  2  4  1  0
  2  5  1  0
  5  6  1  0
  7  6  1  0
  7  8  1  0
  7  9  1  0
  8 12  1  0
  9 10  1  0
  9 11  1  0
 11 12  1  0
 12 13  1  0
 13 14  1  0
 13 23  1  0
 14 15  1  0
 14 24  2  0
 15 16  1  0
 16 17  1  0
 16 23  2  0
 17 18  2  0
 17 19  1  0
 19 20  1  0
 20 21  1  0
 20 22  2  0
 22 23  1  0
  6 25  1  0
  6 26  1  0
  7 27  1  6
  9 28  1  1
 10 29  1  0
 11 30  1  0
 11 31  1  0
 12 32  1  6
 15 33  1  0
 19 34  1  0
 21 35  1  0
 21 36  1  0
M  CHG  2   1  -1   4  -1
M  END
>  <filename_input>  (17) 
7X9K_8OG_docked.sdf

>  <pdb_id>  (17) 
7X9K_8OG

>  <pose_rank>  (17) 
16

>  <num_atoms_heavy>  (17) 
24

>  <num_torsions>  (17) 
4

>  <pose>  (17) 
[-1.4669913349703048, -0.33547477430651335, 24.901772291625626, -0.19313168468296096, 1.718421358686074, 2.922961358870427, -1.977122774675262, -0.3977055284677521, 1.5383193300008033, -2.0306427622235934]

>  <energy>  (17) 
-464.9065109568779

>  <inter_energy>  (17) 
-508.30095794115255

>  <intra_energy>  (17) 
37.732525133879925

>  <rmsd>  (17) 
6.58032

>  <sdf_rank>  (17) 
0

$$$$

     RDKit          3D

 36 38  0  0  0  0  0  0  0  0999 V2000
  -10.4822    2.9460   20.5024 O   0  0  0  0  0  0  0  0  0  0  0  0
  -10.5365    2.3467   21.8786 P   0  0  1  0  0  0  0  0  0  0  0  0
   -9.7727    3.1076   22.9311 O   0  0  0  0  0  0  0  0  0  0  0  0
  -11.9464    1.9594   22.2817 O   0  0  0  0  0  0  0  0  0  0  0  0
   -9.7070    0.9713   21.7475 O   0  0  0  0  0  0  0  0  0  0  0  0
   -9.1073    0.3920   22.9014 C   0  0  0  0  0  0  0  0  0  0  0  0
  -10.1287   -0.2738   23.8233 C   0  0  1  0  0  0  0  0  0  0  0  0
   -9.3960   -1.2090   24.6067 O   0  0  0  0  0  0  0  0  0  0  0  0
  -10.7547    0.7043   24.8003 C   0  0  1  0  0  0  0  0  0  0  0  0
  -12.0738    0.2663   25.1389 O   0  0  0  0  0  0  0  0  0  0  0  0
   -9.9128    0.5751   26.0510 C   0  0  0  0  0  0  0  0  0  0  0  0
   -9.4484   -0.8743   25.9836 C   0  0  2  0  0  0  0  0  0  0  0  0
   -8.1031   -0.9947   26.5826 N   0  0  0  0  0  0  0  0  0  0  0  0
   -7.7627   -1.6758   27.6688 C   0  0  0  0  0  0  0  0  0  0  0  0
   -6.4590   -1.6119   27.9863 N   0  0  0  0  0  0  0  0  0  0  0  0
   -5.9379   -0.8267   27.0064 C   0  0  0  0  0  0  0  0  0  0  0  0
   -4.6552   -0.3711   26.7459 C   0  0  0  0  0  0  0  0  0  0  0  0
   -3.7048   -0.6821   27.5033 O   0  0  0  0  0  0  0  0  0  0  0  0
   -4.4391    0.4030   25.6754 N   0  0  0  0  0  0  0  0  0  0  0  0
   -5.4403    0.7491   24.8528 C   0  0  0  0  0  0  0  0  0  0  0  0
   -5.1920    1.5294   23.7771 N   0  0  0  0  0  0  0  0  0  0  0  0
   -6.6982    0.3292   25.0715 N   0  0  0  0  0  0  0  0  0  0  0  0
   -6.9662   -0.4600   26.1382 C   0  0  0  0  0  0  0  0  0  0  0  0
   -8.6254   -2.3279   28.3571 O   0  0  0  0  0  0  0  0  0  0  0  0
   -8.3789   -0.3657   22.5771 H   0  0  0  0  0  0  0  0  0  0  0  0
   -8.6251    1.2020   23.4684 H   0  0  0  0  0  0  0  0  0  0  0  0
  -10.9289   -0.7130   23.2094 H   0  0  0  0  0  0  0  0  0  0  0  0
  -10.8007    1.7231   24.3880 H   0  0  0  0  0  0  0  0  0  0  0  0
  -12.1684    0.2348   26.1239 H   0  0  0  0  0  0  0  0  0  0  0  0
   -9.0588    1.2681   26.0292 H   0  0  0  0  0  0  0  0  0  0  0  0
  -10.4572    0.8200   26.9748 H   0  0  0  0  0  0  0  0  0  0  0  0
  -10.1266   -1.5431   26.5339 H   0  0  0  0  0  0  0  0  0  0  0  0
   -5.9719   -2.0515   28.7802 H   0  0  0  0  0  0  0  0  0  0  0  0
   -3.4854    0.7393   25.4797 H   0  0  0  0  0  0  0  0  0  0  0  0
   -5.9608    1.7953   23.1454 H   0  0  0  0  0  0  0  0  0  0  0  0
   -4.2341    1.8581   23.5894 H   0  0  0  0  0  0  0  0  0  0  0  0
  2  1  1  6
  2  3  2  0
  2  4  1  0
  2  5  1  0
  5  6  1  0
  7  6  1  0
  7  8  1  0
  7  9  1  0
  8 12  1  0
  9 10  1  0
  9 11  1  0
 11 12  1  0
 12 13  1  0
 13 14  1  0
 13 23  1  0
 14 15  1  0
 14 24  2  0
 15 16  1  0
 16 17  1  0
 16 23  2  0
 17 18  2  0
 17 19  1  0
 19 20  1  0
 20 21  1  0
 20 22  2  0
 22 23  1  0
  6 25  1  0
  6 26  1  0
  7 27  1  6
  9 28  1  6
 10 29  1  0
 11 30  1  0
 11 31  1  0
 12 32  1  1
 15 33  1  0
 19 34  1  0
 21 35  1  0
 21 36  1  0
M  CHG  2   1  -1   4  -1
M  END
>  <filename_input>  (18) 
7X9K_8OG_docked.sdf

>  <pdb_id>  (18) 
7X9K_8OG

>  <pose_rank>  (18) 
17

>  <num_atoms_heavy>  (18) 
24

>  <num_torsions>  (18) 
4

>  <pose>  (18) 
[-10.12872774063746, -0.273830546985161, 23.823280068568558, 1.2201060811663957, -4.751189302871664, -4.932514106807708, 0.10335512768801312, 6.142447058029302, -7.48616253533057, -1.8007936846082762]

>  <energy>  (18) 
-567.0741915967808

>  <inter_energy>  (18) 
-613.1903111764667

>  <intra_energy>  (18) 
43.19977874119069

>  <rmsd>  (18) 
3.25334

>  <sdf_rank>  (18) 
0

$$$$

     RDKit          3D

 36 38  0  0  0  0  0  0  0  0999 V2000
  -10.9626    2.4105   20.8030 O   0  0  0  0  0  0  0  0  0  0  0  0
  -10.7556    2.2458   22.2816 P   0  0  1  0  0  0  0  0  0  0  0  0
   -9.3865    2.6341   22.7764 O   0  0  0  0  0  0  0  0  0  0  0  0
  -11.9028    2.8206   23.0903 O   0  0  0  0  0  0  0  0  0  0  0  0
  -10.7897    0.6515   22.5137 O   0  0  0  0  0  0  0  0  0  0  0  0
   -9.7865    0.0290   23.3094 C   0  0  0  0  0  0  0  0  0  0  0  0
  -10.3714   -0.7663   24.4764 C   0  0  1  0  0  0  0  0  0  0  0  0
   -9.2729   -1.4430   25.0768 O   0  0  0  0  0  0  0  0  0  0  0  0
  -10.9615    0.1278   25.5514 C   0  0  1  0  0  0  0  0  0  0  0  0
  -12.0194   -0.5631   26.2224 O   0  0  0  0  0  0  0  0  0  0  0  0
   -9.8409    0.2981   26.5538 C   0  0  0  0  0  0  0  0  0  0  0  0
   -9.0749   -1.0112   26.4128 C   0  0  2  0  0  0  0  0  0  0  0  0
   -7.6370   -0.7761   26.6581 N   0  0  0  0  0  0  0  0  0  0  0  0
   -6.9049   -1.2380   27.6632 C   0  0  0  0  0  0  0  0  0  0  0  0
   -5.6145   -0.8657   27.6357 N   0  0  0  0  0  0  0  0  0  0  0  0
   -5.5322   -0.1099   26.5086 C   0  0  0  0  0  0  0  0  0  0  0  0
   -4.4870    0.5701   25.9040 C   0  0  0  0  0  0  0  0  0  0  0  0
   -3.3410    0.5563   26.4141 O   0  0  0  0  0  0  0  0  0  0  0  0
   -4.7113    1.2406   24.7674 N   0  0  0  0  0  0  0  0  0  0  0  0
   -5.9285    1.2702   24.2050 C   0  0  0  0  0  0  0  0  0  0  0  0
   -6.1252    1.9529   23.0548 N   0  0  0  0  0  0  0  0  0  0  0  0
   -6.9684    0.6251   24.7608 N   0  0  0  0  0  0  0  0  0  0  0  0
   -6.7905   -0.0714   25.9078 C   0  0  0  0  0  0  0  0  0  0  0  0
   -7.4085   -1.9704   28.5869 O   0  0  0  0  0  0  0  0  0  0  0  0
   -9.2060   -0.6549   22.6728 H   0  0  0  0  0  0  0  0  0  0  0  0
   -9.1550    0.8246   23.7316 H   0  0  0  0  0  0  0  0  0  0  0  0
  -11.1663   -1.4243   24.0956 H   0  0  0  0  0  0  0  0  0  0  0  0
  -11.3449    1.0711   25.1354 H   0  0  0  0  0  0  0  0  0  0  0  0
  -11.8969   -0.4831   27.2015 H   0  0  0  0  0  0  0  0  0  0  0  0
   -9.2065    1.1598   26.2990 H   0  0  0  0  0  0  0  0  0  0  0  0
  -10.1926    0.4938   27.5775 H   0  0  0  0  0  0  0  0  0  0  0  0
   -9.4240   -1.7647   27.1342 H   0  0  0  0  0  0  0  0  0  0  0  0
   -4.8678   -1.0970   28.3064 H   0  0  0  0  0  0  0  0  0  0  0  0
   -3.9340    1.7436   24.3160 H   0  0  0  0  0  0  0  0  0  0  0  0
   -7.0599    1.9757   22.6228 H   0  0  0  0  0  0  0  0  0  0  0  0
   -5.3402    2.4503   22.6105 H   0  0  0  0  0  0  0  0  0  0  0  0
  2  1  1  6
  2  3  2  0
  2  4  1  0
  2  5  1  0
  5  6  1  0
  7  6  1  0
  7  8  1  0
  7  9  1  0
  8 12  1  0
  9 10  1  0
  9 11  1  0
 11 12  1  0
 12 13  1  0
 13 14  1  0
 13 23  1  0
 14 15  1  0
 14 24  2  0
 15 16  1  0
 16 17  1  0
 16 23  2  0
 17 18  2  0
 17 19  1  0
 19 20  1  0
 20 21  1  0
 20 22  2  0
 22 23  1  0
  6 25  1  0
  6 26  1  0
  7 27  1  6
  9 28  1  6
 10 29  1  0
 11 30  1  0
 11 31  1  0
 12 32  1  1
 15 33  1  0
 19 34  1  0
 21 35  1  0
 21 36  1  0
M  CHG  2   1  -1   4  -1
M  END
>  <filename_input>  (19) 
7X9K_8OG_docked.sdf

>  <pdb_id>  (19) 
7X9K_8OG

>  <pose_rank>  (19) 
18

>  <num_atoms_heavy>  (19) 
24

>  <num_torsions>  (19) 
4

>  <pose>  (19) 
[-10.37136361634816, -0.7662612657266411, 24.476399676128267, 1.1012828752944683, -4.279145289826806, -4.915573475581121, 0.06820620954187354, 6.408566689939197, -6.633184717886308, -2.2010100965169044]

>  <energy>  (19) 
-526.697200964128

>  <inter_energy>  (19) 
-538.6201649310154

>  <intra_energy>  (19) 
14.95822770261392

>  <rmsd>  (19) 
2.76367

>  <sdf_rank>  (19) 
0

$$$$

     RDKit          3D

 36 38  0  0  0  0  0  0  0  0999 V2000
   -4.7051   -7.5706   16.6776 O   0  0  0  0  0  0  0  0  0  0  0  0
   -4.5490   -7.4166   18.1636 P   0  0  1  0  0  0  0  0  0  0  0  0
   -4.5644   -5.9934   18.6578 O   0  0  0  0  0  0  0  0  0  0  0  0
   -5.4495   -8.3606   18.9371 O   0  0  0  0  0  0  0  0  0  0  0  0
   -3.0364   -7.8891   18.4565 O   0  0  0  0  0  0  0  0  0  0  0  0
   -2.2698   -7.2317   19.4600 C   0  0  0  0  0  0  0  0  0  0  0  0
   -1.5954   -8.2111   20.4204 C   0  0  1  0  0  0  0  0  0  0  0  0
   -0.2586   -8.3563   19.9546 O   0  0  0  0  0  0  0  0  0  0  0  0
   -1.4985   -7.6662   21.8335 C   0  0  1  0  0  0  0  0  0  0  0  0
   -1.5090   -8.7499   22.7673 O   0  0  0  0  0  0  0  0  0  0  0  0
   -0.1226   -7.0402   21.9002 C   0  0  0  0  0  0  0  0  0  0  0  0
    0.6719   -7.8930   20.9191 C   0  0  2  0  0  0  0  0  0  0  0  0
    1.7062   -7.0657   20.2641 N   0  0  0  0  0  0  0  0  0  0  0  0
    2.9762   -6.9305   20.6224 C   0  0  0  0  0  0  0  0  0  0  0  0
    3.6963   -6.1098   19.8399 N   0  0  0  0  0  0  0  0  0  0  0  0
    2.7972   -5.7021   18.9052 C   0  0  0  0  0  0  0  0  0  0  0  0
    2.8917   -4.8538   17.8134 C   0  0  0  0  0  0  0  0  0  0  0  0
    3.9786   -4.2908   17.5389 O   0  0  0  0  0  0  0  0  0  0  0  0
    1.8114   -4.6425   17.0518 N   0  0  0  0  0  0  0  0  0  0  0  0
    0.6389   -5.2327   17.3273 C   0  0  0  0  0  0  0  0  0  0  0  0
   -0.4349   -5.0034   16.5386 N   0  0  0  0  0  0  0  0  0  0  0  0
    0.5057   -6.0607   18.3776 N   0  0  0  0  0  0  0  0  0  0  0  0
    1.5711   -6.3103   19.1745 C   0  0  0  0  0  0  0  0  0  0  0  0
    3.4586   -7.5331   21.6458 O   0  0  0  0  0  0  0  0  0  0  0  0
   -1.4924   -6.6271   18.9699 H   0  0  0  0  0  0  0  0  0  0  0  0
   -2.9578   -6.6077   20.0493 H   0  0  0  0  0  0  0  0  0  0  0  0
   -2.1789   -9.1432   20.4458 H   0  0  0  0  0  0  0  0  0  0  0  0
   -2.3227   -6.9750   22.0639 H   0  0  0  0  0  0  0  0  0  0  0  0
   -1.5056   -8.3907   23.6898 H   0  0  0  0  0  0  0  0  0  0  0  0
   -0.1483   -5.9875   21.5824 H   0  0  0  0  0  0  0  0  0  0  0  0
    0.3042   -7.0233   22.9139 H   0  0  0  0  0  0  0  0  0  0  0  0
    1.1760   -8.7296   21.4250 H   0  0  0  0  0  0  0  0  0  0  0  0
    4.6897   -5.8518   19.9270 H   0  0  0  0  0  0  0  0  0  0  0  0
    1.8819   -4.0145   16.2384 H   0  0  0  0  0  0  0  0  0  0  0  0
   -1.3353   -5.4566   16.7500 H   0  0  0  0  0  0  0  0  0  0  0  0
   -0.3525   -4.3756   15.7262 H   0  0  0  0  0  0  0  0  0  0  0  0
  2  1  1  6
  2  3  2  0
  2  4  1  0
  2  5  1  0
  5  6  1  0
  7  6  1  0
  7  8  1  0
  7  9  1  0
  8 12  1  0
  9 10  1  0
  9 11  1  0
 11 12  1  0
 12 13  1  0
 13 14  1  0
 13 23  1  0
 14 15  1  0
 14 24  2  0
 15 16  1  0
 16 17  1  0
 16 23  2  0
 17 18  2  0
 17 19  1  0
 19 20  1  0
 20 21  1  0
 20 22  2  0
 22 23  1  0
  6 25  1  0
  6 26  1  0
  7 27  1  1
  9 28  1  1
 10 29  1  0
 11 30  1  0
 11 31  1  0
 12 32  1  1
 15 33  1  0
 19 34  1  0
 21 35  1  0
 21 36  1  0
M  CHG  2   1  -1   4  -1
M  END
>  <filename_input>  (20) 
7X9K_8OG_docked.sdf

>  <pdb_id>  (20) 
7X9K_8OG

>  <pose_rank>  (20) 
19

>  <num_atoms_heavy>  (20) 
24

>  <num_torsions>  (20) 
4

>  <pose>  (20) 
[-1.5953760691799441, -8.211109402169715, 20.420385009400995, -1.6221603309524768, -5.263708104033601, -1.3257746110160358, -0.2623872968878996, -1.1951241172433316, -0.21910177359783078, -2.011996654153812]

>  <energy>  (20) 
-220.8375659010792

>  <inter_energy>  (20) 
-184.69962571606973

>  <intra_energy>  (20) 
18.82742700038988

>  <rmsd>  (20) 
11.4072

>  <sdf_rank>  (20) 
0

$$$$

     RDKit          3D

 36 38  0  0  0  0  0  0  0  0999 V2000
   -4.2108   -8.4006   15.8686 O   0  0  0  0  0  0  0  0  0  0  0  0
   -4.0846   -7.3894   16.9720 P   0  0  1  0  0  0  0  0  0  0  0  0
   -2.7908   -6.6172   16.9782 O   0  0  0  0  0  0  0  0  0  0  0  0
   -5.3286   -6.5331   17.1121 O   0  0  0  0  0  0  0  0  0  0  0  0
   -3.9884   -8.2748   18.3150 O   0  0  0  0  0  0  0  0  0  0  0  0
   -2.8057   -8.2366   19.1065 C   0  0  0  0  0  0  0  0  0  0  0  0
   -2.8953   -9.1334   20.3411 C   0  0  1  0  0  0  0  0  0  0  0  0
   -1.5530   -9.3673   20.7518 O   0  0  0  0  0  0  0  0  0  0  0  0
   -3.5858   -8.4501   21.5071 C   0  0  1  0  0  0  0  0  0  0  0  0
   -4.2253   -9.4317   22.3280 O   0  0  0  0  0  0  0  0  0  0  0  0
   -2.4535   -7.8640   22.3219 C   0  0  0  0  0  0  0  0  0  0  0  0
   -1.3144   -8.8372   22.0451 C   0  0  2  0  0  0  0  0  0  0  0  0
   -0.0261   -8.1141   22.0631 N   0  0  0  0  0  0  0  0  0  0  0  0
    0.8925   -8.1279   23.0200 C   0  0  0  0  0  0  0  0  0  0  0  0
    1.9756   -7.3738   22.7698 N   0  0  0  0  0  0  0  0  0  0  0  0
    1.7129   -6.8481   21.5439 C   0  0  0  0  0  0  0  0  0  0  0  0
    2.4187   -5.9905   20.7151 C   0  0  0  0  0  0  0  0  0  0  0  0
    3.5371   -5.5445   21.0672 O   0  0  0  0  0  0  0  0  0  0  0  0
    1.8964   -5.6439   19.5324 N   0  0  0  0  0  0  0  0  0  0  0  0
    0.7018   -6.1074   19.1361 C   0  0  0  0  0  0  0  0  0  0  0  0
    0.2003   -5.7432   17.9346 N   0  0  0  0  0  0  0  0  0  0  0  0
   -0.0144   -6.9397   19.9112 N   0  0  0  0  0  0  0  0  0  0  0  0
    0.4740   -7.3234   21.1139 C   0  0  0  0  0  0  0  0  0  0  0  0
    0.7367   -8.8034   24.0982 O   0  0  0  0  0  0  0  0  0  0  0  0
   -1.9581   -8.5701   18.4897 H   0  0  0  0  0  0  0  0  0  0  0  0
   -2.6715   -7.2020   19.4552 H   0  0  0  0  0  0  0  0  0  0  0  0
   -3.4631  -10.0392   20.0824 H   0  0  0  0  0  0  0  0  0  0  0  0
   -4.3295   -7.7134   21.1689 H   0  0  0  0  0  0  0  0  0  0  0  0
   -4.0805   -9.2094   23.2818 H   0  0  0  0  0  0  0  0  0  0  0  0
   -2.2015   -6.8490   21.9810 H   0  0  0  0  0  0  0  0  0  0  0  0
   -2.6904   -7.7569   23.3907 H   0  0  0  0  0  0  0  0  0  0  0  0
   -1.2681   -9.6330   22.8031 H   0  0  0  0  0  0  0  0  0  0  0  0
    2.8049   -7.2289   23.3633 H   0  0  0  0  0  0  0  0  0  0  0  0
    2.4220   -5.0090   18.9147 H   0  0  0  0  0  0  0  0  0  0  0  0
   -0.7171   -6.0991   17.6302 H   0  0  0  0  0  0  0  0  0  0  0  0
    0.7355   -5.1097   17.3238 H   0  0  0  0  0  0  0  0  0  0  0  0
  2  1  1  6
  2  3  2  0
  2  4  1  0
  2  5  1  0
  5  6  1  0
  7  6  1  0
  7  8  1  0
  7  9  1  0
  8 12  1  0
  9 10  1  0
  9 11  1  0
 11 12  1  0
 12 13  1  0
 13 14  1  0
 13 23  1  0
 14 15  1  0
 14 24  2  0
 15 16  1  0
 16 17  1  0
 16 23  2  0
 17 18  2  0
 17 19  1  0
 19 20  1  0
 20 21  1  0
 20 22  2  0
 22 23  1  0
  6 25  1  0
  6 26  1  0
  7 27  1  6
  9 28  1  6
 10 29  1  0
 11 30  1  0
 11 31  1  0
 12 32  1  1
 15 33  1  0
 19 34  1  0
 21 35  1  0
 21 36  1  0
M  CHG  2   1  -1   4  -1
M  END
>  <filename_input>  (21) 
7X9K_8OG_docked.sdf

>  <pdb_id>  (21) 
7X9K_8OG

>  <pose_rank>  (21) 
20

>  <num_atoms_heavy>  (21) 
24

>  <num_torsions>  (21) 
4

>  <pose>  (21) 
[-2.8953067695075383, -9.133353112042643, 20.341129613253372, -2.709834126584098, 2.076850952641743, -5.123195361232225, -6.37561264581108, 6.171414560617078, 0.6338236104161376, -2.4897644620288526]

>  <energy>  (21) 
-164.11297247856425

>  <inter_energy>  (21) 
-152.9645772587524

>  <intra_energy>  (21) 
18.21446356934497

>  <rmsd>  (21) 
10.8758

>  <sdf_rank>  (21) 
0

$$$$

     RDKit          3D

 36 38  0  0  0  0  0  0  0  0999 V2000
    0.6474   -5.5758   18.4649 O   0  0  0  0  0  0  0  0  0  0  0  0
    0.0180   -5.2675   17.1363 P   0  0  1  0  0  0  0  0  0  0  0  0
   -0.1779   -3.8007   16.8536 O   0  0  0  0  0  0  0  0  0  0  0  0
    0.6574   -6.0464   16.0028 O   0  0  0  0  0  0  0  0  0  0  0  0
   -1.4903   -5.8184   17.2724 O   0  0  0  0  0  0  0  0  0  0  0  0
   -1.8250   -7.1034   16.7591 C   0  0  0  0  0  0  0  0  0  0  0  0
   -2.4824   -8.0018   17.8066 C   0  0  1  0  0  0  0  0  0  0  0  0
   -1.4781   -8.9230   18.2164 O   0  0  0  0  0  0  0  0  0  0  0  0
   -2.8948   -7.2379   19.0514 C   0  0  1  0  0  0  0  0  0  0  0  0
   -4.0209   -7.8797   19.6569 O   0  0  0  0  0  0  0  0  0  0  0  0
   -1.7279   -7.4084   19.9994 C   0  0  0  0  0  0  0  0  0  0  0  0
   -1.1722   -8.7672   19.5922 C   0  0  2  0  0  0  0  0  0  0  0  0
    0.2922   -8.7854   19.7876 N   0  0  0  0  0  0  0  0  0  0  0  0
    1.2229   -9.0530   18.8811 C   0  0  0  0  0  0  0  0  0  0  0  0
    2.4849   -8.9951   19.3377 N   0  0  0  0  0  0  0  0  0  0  0  0
    2.3282   -8.6535   20.6442 C   0  0  0  0  0  0  0  0  0  0  0  0
    3.2277   -8.4314   21.6748 C   0  0  0  0  0  0  0  0  0  0  0  0
    4.4612   -8.5427   21.4760 O   0  0  0  0  0  0  0  0  0  0  0  0
    2.7673   -8.0941   22.8856 N   0  0  0  0  0  0  0  0  0  0  0  0
    1.4528   -7.9707   23.1213 C   0  0  0  0  0  0  0  0  0  0  0  0
    1.0165   -7.6254   24.3534 N   0  0  0  0  0  0  0  0  0  0  0  0
    0.5483   -8.1791   22.1491 N   0  0  0  0  0  0  0  0  0  0  0  0
    0.9649   -8.5171   20.9063 C   0  0  0  0  0  0  0  0  0  0  0  0
    0.9232   -9.3541   17.6716 O   0  0  0  0  0  0  0  0  0  0  0  0
   -2.5213   -6.9761   15.9172 H   0  0  0  0  0  0  0  0  0  0  0  0
   -0.8903   -7.5895   16.4427 H   0  0  0  0  0  0  0  0  0  0  0  0
   -3.3795   -8.4626   17.3675 H   0  0  0  0  0  0  0  0  0  0  0  0
   -3.1464   -6.1912   18.8257 H   0  0  0  0  0  0  0  0  0  0  0  0
   -3.9374   -7.8321   20.6423 H   0  0  0  0  0  0  0  0  0  0  0  0
   -0.9805   -6.6139   19.8576 H   0  0  0  0  0  0  0  0  0  0  0  0
   -2.0112   -7.3493   21.0607 H   0  0  0  0  0  0  0  0  0  0  0  0
   -1.6055   -9.5794   20.1943 H   0  0  0  0  0  0  0  0  0  0  0  0
    3.3599   -9.1677   18.8224 H   0  0  0  0  0  0  0  0  0  0  0  0
    3.4356   -7.9259   23.6511 H   0  0  0  0  0  0  0  0  0  0  0  0
    0.0070   -7.5307   24.5345 H   0  0  0  0  0  0  0  0  0  0  0  0
    1.6937   -7.4571   25.1110 H   0  0  0  0  0  0  0  0  0  0  0  0
  2  1  1  1
  2  3  2  0
  2  4  1  0
  2  5  1  0
  5  6  1  0
  7  6  1  0
  7  8  1  0
  7  9  1  0
  8 12  1  0
  9 10  1  0
  9 11  1  0
 11 12  1  0
 12 13  1  0
 13 14  1  0
 13 23  1  0
 14 15  1  0
 14 24  2  0
 15 16  1  0
 16 17  1  0
 16 23  2  0
 17 18  2  0
 17 19  1  0
 19 20  1  0
 20 21  1  0
 20 22  2  0
 22 23  1  0
  6 25  1  0
  6 26  1  0
  7 27  1  6
  9 28  1  6
 10 29  1  0
 11 30  1  0
 11 31  1  0
 12 32  1  1
 15 33  1  0
 19 34  1  0
 21 35  1  0
 21 36  1  0
M  CHG  2   1  -1   4  -1
M  END
>  <filename_input>  (22) 
7X9K_8OG_docked.sdf

>  <pdb_id>  (22) 
7X9K_8OG

>  <pose_rank>  (22) 
21

>  <num_atoms_heavy>  (22) 
24

>  <num_torsions>  (22) 
4

>  <pose>  (22) 
[-2.482379322855362, -8.00184421525832, 17.80659180983942, -2.499324194275859, 1.7690629060187741, 4.9284656174040204, 2.208011511153709, 1.5702314883365736, -6.58985562887252, 0.06169481015373747]

>  <energy>  (22) 
-157.3312232427106

>  <inter_energy>  (22) 
-176.86241845301186

>  <intra_energy>  (22) 
38.44787262317268

>  <rmsd>  (22) 
12.416

>  <sdf_rank>  (22) 
0

$$$$

     RDKit          3D

 36 38  0  0  0  0  0  0  0  0999 V2000
    1.2293   -7.8508   21.7767 O   0  0  0  0  0  0  0  0  0  0  0  0
    0.0329   -6.9826   21.5104 P   0  0  1  0  0  0  0  0  0  0  0  0
    0.3153   -5.7485   20.6935 O   0  0  0  0  0  0  0  0  0  0  0  0
   -1.1669   -7.7845   21.0438 O   0  0  0  0  0  0  0  0  0  0  0  0
   -0.3546   -6.3838   22.9554 O   0  0  0  0  0  0  0  0  0  0  0  0
   -1.2273   -5.2628   23.0478 C   0  0  0  0  0  0  0  0  0  0  0  0
   -0.5961   -3.9802   22.5064 C   0  0  1  0  0  0  0  0  0  0  0  0
   -1.5769   -2.9625   22.6720 O   0  0  0  0  0  0  0  0  0  0  0  0
    0.6136   -3.5427   23.3116 C   0  0  1  0  0  0  0  0  0  0  0  0
    1.5163   -2.8219   22.4678 O   0  0  0  0  0  0  0  0  0  0  0  0
    0.0593   -2.5521   24.3121 C   0  0  0  0  0  0  0  0  0  0  0  0
   -1.1224   -1.9541   23.5591 C   0  0  2  0  0  0  0  0  0  0  0  0
   -2.1944   -1.6021   24.5131 N   0  0  0  0  0  0  0  0  0  0  0  0
   -3.3096   -2.2777   24.7573 C   0  0  0  0  0  0  0  0  0  0  0  0
   -4.1109   -1.7236   25.6821 N   0  0  0  0  0  0  0  0  0  0  0  0
   -3.4317   -0.6061   26.0536 C   0  0  0  0  0  0  0  0  0  0  0  0
   -3.7027    0.4024   26.9647 C   0  0  0  0  0  0  0  0  0  0  0  0
   -4.7620    0.3836   27.6364 O   0  0  0  0  0  0  0  0  0  0  0  0
   -2.8211    1.3971   27.1234 N   0  0  0  0  0  0  0  0  0  0  0  0
   -1.6829    1.4383   26.4151 C   0  0  0  0  0  0  0  0  0  0  0  0
   -0.8091    2.4535   26.5987 N   0  0  0  0  0  0  0  0  0  0  0  0
   -1.3839    0.4805   25.5209 N   0  0  0  0  0  0  0  0  0  0  0  0
   -2.2414   -0.5491   25.3285 C   0  0  0  0  0  0  0  0  0  0  0  0
   -3.5907   -3.3658   24.1405 O   0  0  0  0  0  0  0  0  0  0  0  0
   -2.1389   -5.4776   22.4709 H   0  0  0  0  0  0  0  0  0  0  0  0
   -1.4499   -5.1007   24.1128 H   0  0  0  0  0  0  0  0  0  0  0  0
   -0.2794   -4.1509   21.4669 H   0  0  0  0  0  0  0  0  0  0  0  0
    1.1370   -4.3983   23.7632 H   0  0  0  0  0  0  0  0  0  0  0  0
    2.1548   -2.3121   23.0269 H   0  0  0  0  0  0  0  0  0  0  0  0
   -0.2695   -3.0573   25.2322 H   0  0  0  0  0  0  0  0  0  0  0  0
    0.7942   -1.8035   24.6431 H   0  0  0  0  0  0  0  0  0  0  0  0
   -0.8370   -1.0408   23.0165 H   0  0  0  0  0  0  0  0  0  0  0  0
   -5.0202   -2.0633   26.0265 H   0  0  0  0  0  0  0  0  0  0  0  0
   -3.0207    2.1452   27.8026 H   0  0  0  0  0  0  0  0  0  0  0  0
    0.0650    2.4853   26.0548 H   0  0  0  0  0  0  0  0  0  0  0  0
   -1.0175    3.1951   27.2824 H   0  0  0  0  0  0  0  0  0  0  0  0
  2  1  1  1
  2  3  2  0
  2  4  1  0
  2  5  1  0
  5  6  1  0
  7  6  1  0
  7  8  1  0
  7  9  1  0
  8 12  1  0
  9 10  1  0
  9 11  1  0
 11 12  1  0
 12 13  1  0
 13 14  1  0
 13 23  1  0
 14 15  1  0
 14 24  2  0
 15 16  1  0
 16 17  1  0
 16 23  2  0
 17 18  2  0
 17 19  1  0
 19 20  1  0
 20 21  1  0
 20 22  2  0
 22 23  1  0
  6 25  1  0
  6 26  1  0
  7 27  1  6
  9 28  1  1
 10 29  1  0
 11 30  1  0
 11 31  1  0
 12 32  1  6
 15 33  1  0
 19 34  1  0
 21 35  1  0
 21 36  1  0
M  CHG  2   1  -1   4  -1
M  END
>  <filename_input>  (23) 
7X9K_8OG_docked.sdf

>  <pdb_id>  (23) 
7X9K_8OG

>  <pose_rank>  (23) 
22

>  <num_atoms_heavy>  (23) 
24

>  <num_torsions>  (23) 
4

>  <pose>  (23) 
[-0.5961400290688733, -3.980246673502606, 22.506383465474197, 0.8082310217149782, 1.7025259772350614, 2.287838621711884, 2.5837127080417535, 0.24180041568144875, -3.6956567476066104, -1.6535408160219107]

>  <energy>  (23) 
-57.65322340520247

>  <inter_energy>  (23) 
-99.13446438115031

>  <intra_energy>  (23) 
54.0498837439973

>  <rmsd>  (23) 
7.84351

>  <sdf_rank>  (23) 
0

$$$$

     RDKit          3D

 36 38  0  0  0  0  0  0  0  0999 V2000
   -2.4363    9.2306   33.9074 O   0  0  0  0  0  0  0  0  0  0  0  0
   -1.6751    8.3704   34.8753 P   0  0  1  0  0  0  0  0  0  0  0  0
   -1.1747    7.0680   34.3068 O   0  0  0  0  0  0  0  0  0  0  0  0
   -0.6367    9.1582   35.6509 O   0  0  0  0  0  0  0  0  0  0  0  0
   -2.7828    7.9001   35.9470 O   0  0  0  0  0  0  0  0  0  0  0  0
   -4.1455    7.7807   35.5525 C   0  0  0  0  0  0  0  0  0  0  0  0
   -4.4625    6.4173   34.9383 C   0  0  1  0  0  0  0  0  0  0  0  0
   -5.7615    6.0715   35.4051 O   0  0  0  0  0  0  0  0  0  0  0  0
   -4.5522    6.4685   33.4242 C   0  0  1  0  0  0  0  0  0  0  0  0
   -4.1855    5.1979   32.8787 O   0  0  0  0  0  0  0  0  0  0  0  0
   -6.0265    6.6601   33.1425 C   0  0  0  0  0  0  0  0  0  0  0  0
   -6.6790    5.9625   34.3294 C   0  0  2  0  0  0  0  0  0  0  0  0
   -7.9432    6.6448   34.6749 N   0  0  0  0  0  0  0  0  0  0  0  0
   -8.1867    7.9487   34.6555 C   0  0  0  0  0  0  0  0  0  0  0  0
   -9.4334    8.2927   35.0182 N   0  0  0  0  0  0  0  0  0  0  0  0
  -10.0231    7.0961   35.2804 C   0  0  0  0  0  0  0  0  0  0  0  0
  -11.2970    6.7443   35.6975 C   0  0  0  0  0  0  0  0  0  0  0  0
  -12.1623    7.6275   35.9092 O   0  0  0  0  0  0  0  0  0  0  0  0
  -11.5968    5.4512   35.8701 N   0  0  0  0  0  0  0  0  0  0  0  0
  -10.6871    4.4903   35.6511 C   0  0  0  0  0  0  0  0  0  0  0  0
  -11.0189    3.1921   35.8303 N   0  0  0  0  0  0  0  0  0  0  0  0
   -9.4407    4.7901   35.2474 N   0  0  0  0  0  0  0  0  0  0  0  0
   -9.0910    6.0834   35.0536 C   0  0  0  0  0  0  0  0  0  0  0  0
   -7.2871    8.8004   34.3262 O   0  0  0  0  0  0  0  0  0  0  0  0
   -4.7825    7.9249   36.4377 H   0  0  0  0  0  0  0  0  0  0  0  0
   -4.3383    8.5448   34.7851 H   0  0  0  0  0  0  0  0  0  0  0  0
   -3.6685    5.7086   35.2164 H   0  0  0  0  0  0  0  0  0  0  0  0
   -3.9045    7.2504   33.0011 H   0  0  0  0  0  0  0  0  0  0  0  0
   -4.0022    4.5628   33.6157 H   0  0  0  0  0  0  0  0  0  0  0  0
   -6.2908    7.7275   33.1137 H   0  0  0  0  0  0  0  0  0  0  0  0
   -6.3438    6.2598   32.1683 H   0  0  0  0  0  0  0  0  0  0  0  0
   -6.9108    4.9111   34.1043 H   0  0  0  0  0  0  0  0  0  0  0  0
   -9.8436    9.2353   35.0822 H   0  0  0  0  0  0  0  0  0  0  0  0
  -12.5444    5.1891   36.1772 H   0  0  0  0  0  0  0  0  0  0  0  0
  -10.3204    2.4540   35.6621 H   0  0  0  0  0  0  0  0  0  0  0  0
  -11.9702    2.9410   36.1351 H   0  0  0  0  0  0  0  0  0  0  0  0
  2  1  1  6
  2  3  2  0
  2  4  1  0
  2  5  1  0
  5  6  1  0
  7  6  1  0
  7  8  1  0
  7  9  1  0
  8 12  1  0
  9 10  1  0
  9 11  1  0
 11 12  1  0
 12 13  1  0
 13 14  1  0
 13 23  1  0
 14 15  1  0
 14 24  2  0
 15 16  1  0
 16 17  1  0
 16 23  2  0
 17 18  2  0
 17 19  1  0
 19 20  1  0
 20 21  1  0
 20 22  2  0
 22 23  1  0
  6 25  1  0
  6 26  1  0
  7 27  1  6
  9 28  1  6
 10 29  1  0
 11 30  1  0
 11 31  1  0
 12 32  1  6
 15 33  1  0
 19 34  1  0
 21 35  1  0
 21 36  1  0
M  CHG  2   1  -1   4  -1
M  END
>  <filename_input>  (24) 
7X9K_8OG_docked.sdf

>  <pdb_id>  (24) 
7X9K_8OG

>  <pose_rank>  (24) 
23

>  <num_atoms_heavy>  (24) 
24

>  <num_torsions>  (24) 
4

>  <pose>  (24) 
[-4.462453712878219, 6.417340917781122, 34.93829055744283, 0.02034610874586723, -2.579912284539292, 0.742054225910523, -2.5848251510448557, -0.4291450754735661, -1.0038619272211975, 2.2586996636255483]

>  <energy>  (24) 
-153.43471661970352

>  <inter_energy>  (24) 
-148.72271661802176

>  <intra_energy>  (24) 
25.43639478628755

>  <rmsd>  (24) 
13.0292

>  <sdf_rank>  (24) 
0

$$$$

     RDKit          3D

 36 38  0  0  0  0  0  0  0  0999 V2000
  -13.4550   -5.4525   20.5535 O   0  0  0  0  0  0  0  0  0  0  0  0
  -14.7309   -4.7018   20.2991 P   0  0  1  0  0  0  0  0  0  0  0  0
  -14.5485   -3.3117   19.7474 O   0  0  0  0  0  0  0  0  0  0  0  0
  -15.7548   -5.5421   19.5602 O   0  0  0  0  0  0  0  0  0  0  0  0
  -15.3364   -4.4355   21.7686 O   0  0  0  0  0  0  0  0  0  0  0  0
  -14.6476   -3.5809   22.6753 C   0  0  0  0  0  0  0  0  0  0  0  0
  -14.1260   -4.3257   23.9040 C   0  0  1  0  0  0  0  0  0  0  0  0
  -12.8802   -3.7193   24.2282 O   0  0  0  0  0  0  0  0  0  0  0  0
  -15.0189   -4.1423   25.1174 C   0  0  1  0  0  0  0  0  0  0  0  0
  -14.9157   -5.2891   25.9665 O   0  0  0  0  0  0  0  0  0  0  0  0
  -14.3999   -2.9823   25.8662 C   0  0  0  0  0  0  0  0  0  0  0  0
  -12.9246   -3.1135   25.5095 C   0  0  2  0  0  0  0  0  0  0  0  0
  -12.3043   -1.7736   25.4546 N   0  0  0  0  0  0  0  0  0  0  0  0
  -12.8731   -0.6372   25.0741 C   0  0  0  0  0  0  0  0  0  0  0  0
  -12.0695    0.4380   25.1255 N   0  0  0  0  0  0  0  0  0  0  0  0
  -10.8963   -0.0716   25.5864 C   0  0  0  0  0  0  0  0  0  0  0  0
   -9.6651    0.5002   25.8651 C   0  0  0  0  0  0  0  0  0  0  0  0
   -9.4817    1.7290   25.6914 O   0  0  0  0  0  0  0  0  0  0  0  0
   -8.6726   -0.2715   26.3245 N   0  0  0  0  0  0  0  0  0  0  0  0
   -8.8457   -1.5876   26.5164 C   0  0  0  0  0  0  0  0  0  0  0  0
   -7.8263   -2.3421   26.9848 N   0  0  0  0  0  0  0  0  0  0  0  0
  -10.0237   -2.1804   26.2568 N   0  0  0  0  0  0  0  0  0  0  0  0
  -11.0596   -1.4411   25.7955 C   0  0  0  0  0  0  0  0  0  0  0  0
  -14.0916   -0.5892   24.6789 O   0  0  0  0  0  0  0  0  0  0  0  0
  -13.7946   -3.1254   22.1510 H   0  0  0  0  0  0  0  0  0  0  0  0
  -15.3620   -2.8210   23.0247 H   0  0  0  0  0  0  0  0  0  0  0  0
  -14.0699   -5.3995   23.6719 H   0  0  0  0  0  0  0  0  0  0  0  0
  -16.0705   -3.9892   24.8334 H   0  0  0  0  0  0  0  0  0  0  0  0
  -14.9416   -5.0018   26.9136 H   0  0  0  0  0  0  0  0  0  0  0  0
  -14.8091   -2.0216   25.5205 H   0  0  0  0  0  0  0  0  0  0  0  0
  -14.5941   -3.0038   26.9487 H   0  0  0  0  0  0  0  0  0  0  0  0
  -12.3788   -3.7104   26.2550 H   0  0  0  0  0  0  0  0  0  0  0  0
  -12.2890    1.4129   24.8761 H   0  0  0  0  0  0  0  0  0  0  0  0
   -7.7583    0.1536   26.5348 H   0  0  0  0  0  0  0  0  0  0  0  0
   -7.9592   -3.3528   27.1322 H   0  0  0  0  0  0  0  0  0  0  0  0
   -6.9169   -1.9062   27.1941 H   0  0  0  0  0  0  0  0  0  0  0  0
  2  1  1  1
  2  3  2  0
  2  4  1  0
  2  5  1  0
  5  6  1  0
  7  6  1  0
  7  8  1  0
  7  9  1  0
  8 12  1  0
  9 10  1  0
  9 11  1  0
 11 12  1  0
 12 13  1  0
 13 14  1  0
 13 23  1  0
 14 15  1  0
 14 24  2  0
 15 16  1  0
 16 17  1  0
 16 23  2  0
 17 18  2  0
 17 19  1  0
 19 20  1  0
 20 21  1  0
 20 22  2  0
 22 23  1  0
  6 25  1  0
  6 26  1  0
  7 27  1  6
  9 28  1  6
 10 29  1  0
 11 30  1  0
 11 31  1  0
 12 32  1  1
 15 33  1  0
 19 34  1  0
 21 35  1  0
 21 36  1  0
M  CHG  2   1  -1   4  -1
M  END
>  <filename_input>  (25) 
7X9K_8OG_docked.sdf

>  <pdb_id>  (25) 
7X9K_8OG

>  <pose_rank>  (25) 
24

>  <num_atoms_heavy>  (25) 
24

>  <num_torsions>  (25) 
4

>  <pose>  (25) 
[-14.126039662646127, -4.325691945954766, 23.90399405536044, -0.46411830574127844, -0.30338776353149904, -5.523341369938303, 3.7877673123398767, -0.3895021970773258, -4.504111395748915, -3.369228827808872]

>  <energy>  (25) 
-127.9959396715858

>  <inter_energy>  (25) 
-154.96448261467103

>  <intra_energy>  (25) 
24.893736728480242

>  <rmsd>  (25) 
8.18023

>  <sdf_rank>  (25) 
0

$$$$

     RDKit          3D

 36 38  0  0  0  0  0  0  0  0999 V2000
  -10.0530    2.0700   24.1080 O   0  0  0  0  0  0  0  0  0  0  0  0
   -9.1570    1.3330   23.1540 P   0  0  1  0  0  0  0  0  0  0  0  0
   -9.8230    0.8820   21.8800 O   0  0  0  0  0  0  0  0  0  0  0  0
   -7.8280    2.0360   22.9540 O   0  0  0  0  0  0  0  0  0  0  0  0
   -8.8290   -0.0540   23.9060 O   0  0  0  0  0  0  0  0  0  0  0  0
   -7.5820   -0.2220   24.5720 C   0  0  0  0  0  0  0  0  0  0  0  0
   -7.7080   -1.0370   25.8590 C   0  0  1  0  0  0  0  0  0  0  0  0
   -6.3800   -1.3900   26.2290 O   0  0  0  0  0  0  0  0  0  0  0  0
   -8.2700   -0.2230   27.0100 C   0  0  1  0  0  0  0  0  0  0  0  0
   -8.9700   -1.0860   27.9110 O   0  0  0  0  0  0  0  0  0  0  0  0
   -7.0470    0.2820   27.7440 C   0  0  0  0  0  0  0  0  0  0  0  0
   -6.0290   -0.8200   27.4790 C   0  0  2  0  0  0  0  0  0  0  0  0
   -4.6730   -0.2380   27.4040 N   0  0  0  0  0  0  0  0  0  0  0  0
   -3.6860   -0.3790   28.2790 C   0  0  0  0  0  0  0  0  0  0  0  0
   -2.5520    0.2640   27.9550 N   0  0  0  0  0  0  0  0  0  0  0  0
   -2.8560    0.8530   26.7680 C   0  0  0  0  0  0  0  0  0  0  0  0
   -2.1320    1.6570   25.9020 C   0  0  0  0  0  0  0  0  0  0  0  0
   -0.9470    1.9710   26.1680 O   0  0  0  0  0  0  0  0  0  0  0  0
   -2.7090    2.0940   24.7760 N   0  0  0  0  0  0  0  0  0  0  0  0
   -3.9750    1.7720   24.4720 C   0  0  0  0  0  0  0  0  0  0  0  0
   -4.5310    2.2250   23.3260 N   0  0  0  0  0  0  0  0  0  0  0  0
   -4.7110    0.9960   25.2860 N   0  0  0  0  0  0  0  0  0  0  0  0
   -4.1700    0.5250   26.4340 C   0  0  0  0  0  0  0  0  0  0  0  0
   -3.8250   -1.0680   29.3510 O   0  0  0  0  0  0  0  0  0  0  0  0
   -6.8874   -0.7394   23.8939 H   0  0  0  0  0  0  0  0  0  0  0  0
   -7.2131    0.7776   24.8454 H   0  0  0  0  0  0  0  0  0  0  0  0
   -8.3780   -1.8899   25.6758 H   0  0  0  0  0  0  0  0  0  0  0  0
   -8.9477    0.5694   26.6595 H   0  0  0  0  0  0  0  0  0  0  0  0
   -8.7612   -0.8285   28.8438 H   0  0  0  0  0  0  0  0  0  0  0  0
   -6.7068    1.2449   27.3352 H   0  0  0  0  0  0  0  0  0  0  0  0
   -7.2226    0.4706   28.8134 H   0  0  0  0  0  0  0  0  0  0  0  0
   -6.0311   -1.5747   28.2792 H   0  0  0  0  0  0  0  0  0  0  0  0
   -1.6662    0.3017   28.4792 H   0  0  0  0  0  0  0  0  0  0  0  0
   -2.1703    2.6891   24.1305 H   0  0  0  0  0  0  0  0  0  0  0  0
   -5.5032    1.9778   23.0924 H   0  0  0  0  0  0  0  0  0  0  0  0
   -3.9824    2.8174   22.6864 H   0  0  0  0  0  0  0  0  0  0  0  0
  2  1  1  1
  2  3  2  0
  2  4  1  0
  2  5  1  0
  5  6  1  0
  7  6  1  0
  7  8  1  0
  7  9  1  0
  8 12  1  0
  9 10  1  0
  9 11  1  0
 11 12  1  0
 12 13  1  0
 13 14  1  0
 13 23  1  0
 14 15  1  0
 14 24  2  0
 15 16  1  0
 16 17  1  0
 16 23  2  0
 17 18  2  0
 17 19  1  0
 19 20  1  0
 20 21  1  0
 20 22  2  0
 22 23  1  0
  6 25  1  0
  6 26  1  0
  7 27  1  6
  9 28  1  6
 10 29  1  0
 11 30  1  0
 11 31  1  0
 12 32  1  1
 15 33  1  0
 19 34  1  0
 21 35  1  0
 21 36  1  0
M  CHG  2   1  -1   4  -1
M  END
>  <filename_input>  (26) 
7X9K_8OG_docked.sdf

>  <pdb_id>  (26) 
7X9K_8OG

>  <pose_rank>  (26) 
25

>  <num_atoms_heavy>  (26) 
24

>  <num_torsions>  (26) 
4

>  <pose>  (26) 
[-7.708, -1.037, 25.859, 1e-06, 1e-06, 1e-06, 0.0, 0.0, 0.0, 0.0]

>  <energy>  (26) 
-1171.8110058688972

>  <inter_energy>  (26) 
-1196.8589920660172

>  <intra_energy>  (26) 
15.931346371862208

>  <rmsd>  (26) 
0.0

>  <sdf_rank>  (26) 
0

$$$$
