
     RDKit          3D

 45 47  0  0  0  0  0  0  0  0999 V2000
  -37.9699    4.5012   -2.7617 P   0  0  2  0  0  0  0  0  0  0  0  0
  -38.8461    3.4907   -3.4416 O   0  0  0  0  0  0  0  0  0  0  0  0
  -36.5099    4.2908   -3.1071 O   0  0  0  0  0  0  0  0  0  0  0  0
  -38.1966    4.5634   -1.2707 O   0  0  0  0  0  0  0  0  0  0  0  0
  -39.8062    6.7536   -3.0303 P   0  0  1  0  0  0  0  0  0  0  0  0
  -40.9284    5.8707   -3.5000 O   0  0  0  0  0  0  0  0  0  0  0  0
  -39.8979    7.2945   -1.6300 O   0  0  0  0  0  0  0  0  0  0  0  0
  -38.4326    5.9618   -3.2808 O   0  0  0  0  0  0  0  0  0  0  0  0
  -38.4316    9.3805   -3.5417 P   0  0  1  0  0  0  0  0  0  0  0  0
  -37.3498    8.6216   -2.8260 O   0  0  0  0  0  0  0  0  0  0  0  0
  -38.0183   10.2594   -4.6846 O   0  0  0  0  0  0  0  0  0  0  0  0
  -39.6588    8.1811   -4.1299 C   0  0  0  0  0  0  0  0  0  0  0  0
  -39.2413   10.2551   -2.4965 O   0  0  0  0  0  0  0  0  0  0  0  0
  -38.5540   10.8552   -1.3927 C   0  0  0  0  0  0  0  0  0  0  0  0
  -39.5363   11.2840   -0.3359 C   0  0  1  0  0  0  0  0  0  0  0  0
  -40.4558   10.2025   -0.0326 O   0  0  0  0  0  0  0  0  0  0  0  0
  -38.8768   11.6225    1.0042 C   0  0  1  0  0  0  0  0  0  0  0  0
  -38.4046   12.9610    0.9603 O   0  0  0  0  0  0  0  0  0  0  0  0
  -40.0324   11.3925    1.9747 C   0  0  1  0  0  0  0  0  0  0  0  0
  -40.9042   12.5000    1.9859 O   0  0  0  0  0  0  0  0  0  0  0  0
  -40.6889   10.1569    1.3643 C   0  0  2  0  0  0  0  0  0  0  0  0
  -40.1823    8.8927    1.8902 N   0  0  0  0  0  0  0  0  0  0  0  0
  -39.2162    8.0718    1.3501 C   0  0  0  0  0  0  0  0  0  0  0  0
  -39.0212    6.9743    2.0395 N   0  0  0  0  0  0  0  0  0  0  0  0
  -39.9118    7.0712    3.1002 C   0  0  0  0  0  0  0  0  0  0  0  0
  -40.1876    6.2268    4.1949 C   0  0  0  0  0  0  0  0  0  0  0  0
  -39.5787    5.0662    4.4153 N   0  0  0  0  0  0  0  0  0  0  0  0
  -41.1395    6.6321    5.0730 N   0  0  0  0  0  0  0  0  0  0  0  0
  -41.7546    7.8005    4.8555 C   0  0  0  0  0  0  0  0  0  0  0  0
  -41.5798    8.6716    3.8677 N   0  0  0  0  0  0  0  0  0  0  0  0
  -40.6344    8.2470    3.0132 C   0  0  0  0  0  0  0  0  0  0  0  0
  -39.3591    7.8291   -5.1280 H   0  0  0  0  0  0  0  0  0  0  0  0
  -40.6357    8.6860   -4.1580 H   0  0  0  0  0  0  0  0  0  0  0  0
  -37.8529   10.1253   -0.9616 H   0  0  0  0  0  0  0  0  0  0  0  0
  -38.0054   11.7389   -1.7507 H   0  0  0  0  0  0  0  0  0  0  0  0
  -40.0304   12.1727   -0.7554 H   0  0  0  0  0  0  0  0  0  0  0  0
  -37.9920   11.0318    1.2838 H   0  0  0  0  0  0  0  0  0  0  0  0
  -38.2853   13.2993    1.8830 H   0  0  0  0  0  0  0  0  0  0  0  0
  -39.7342   11.2626    3.0255 H   0  0  0  0  0  0  0  0  0  0  0  0
  -41.1038   12.7535    2.9218 H   0  0  0  0  0  0  0  0  0  0  0  0
  -41.7583   10.1845    1.6206 H   0  0  0  0  0  0  0  0  0  0  0  0
  -38.6630    8.3138    0.4306 H   0  0  0  0  0  0  0  0  0  0  0  0
  -39.8316    4.4999    5.2376 H   0  0  0  0  0  0  0  0  0  0  0  0
  -38.8539    4.7330    3.7637 H   0  0  0  0  0  0  0  0  0  0  0  0
  -42.5135    8.0796    5.6012 H   0  0  0  0  0  0  0  0  0  0  0  0
  1  2  2  0
  1  3  1  1
  1  4  1  0
  1  8  1  0
  5  6  2  0
  5  7  1  1
  5  8  1  0
  5 12  1  0
  9 10  2  0
  9 11  1  6
  9 12  1  0
  9 13  1  0
 13 14  1  0
 15 14  1  0
 15 16  1  0
 15 17  1  0
 16 21  1  0
 17 18  1  0
 17 19  1  0
 19 20  1  0
 19 21  1  0
 21 22  1  0
 22 23  1  0
 22 31  1  0
 23 24  2  0
 24 25  1  0
 25 26  2  0
 25 31  1  0
 26 27  1  0
 26 28  1  0
 28 29  2  0
 29 30  1  0
 30 31  2  0
 12 32  1  0
 12 33  1  0
 14 34  1  0
 14 35  1  0
 15 36  1  6
 17 37  1  1
 18 38  1  0
 19 39  1  1
 20 40  1  0
 21 41  1  6
 23 42  1  0
 27 43  1  0
 27 44  1  0
 29 45  1  0
M  CHG  4   3  -1   4  -1   7  -1  11  -1
M  END
>  <filename_input>  (1) 
7XBV_APC_docked.sdf

>  <pdb_id>  (1) 
7XBV_APC

>  <pose_rank>  (1) 
0

>  <num_atoms_heavy>  (1) 
31

>  <num_torsions>  (1) 
8

>  <pose>  (1) 
[-39.536277940189855, 11.284026452185676, -0.33587865601356476, -1.8034091911504517, 5.710792473220963, -1.8014106434724733, -6.275053443247202, -0.4920038532795566, 0.19642187767666222, -0.2507728448100103, 4.046379934607109, 2.1962521896003393, -1.6181612730358403, -3.5171166106740808]

>  <energy>  (1) 
-817.2706937428829

>  <inter_energy>  (1) 
-830.7549706581683

>  <intra_energy>  (1) 
22.266013177023567

>  <rmsd>  (1) 
4.40586

>  <sdf_rank>  (1) 
0

$$$$

     RDKit          3D

 45 47  0  0  0  0  0  0  0  0999 V2000
  -38.8207    7.4032   -2.4443 P   0  0  2  0  0  0  0  0  0  0  0  0
  -40.2874    7.6501   -2.6410 O   0  0  0  0  0  0  0  0  0  0  0  0
  -38.3536    6.1896   -3.2216 O   0  0  0  0  0  0  0  0  0  0  0  0
  -38.4299    7.3288   -0.9882 O   0  0  0  0  0  0  0  0  0  0  0  0
  -37.9368    9.3077   -4.4714 P   0  0  1  0  0  0  0  0  0  0  0  0
  -36.7719    8.6395   -5.1467 O   0  0  0  0  0  0  0  0  0  0  0  0
  -39.2597    9.2688   -5.1859 O   0  0  0  0  0  0  0  0  0  0  0  0
  -38.0386    8.7123   -2.9843 O   0  0  0  0  0  0  0  0  0  0  0  0
  -38.8727   11.9103   -3.2870 P   0  0  1  0  0  0  0  0  0  0  0  0
  -38.2299   12.8949   -2.3512 O   0  0  0  0  0  0  0  0  0  0  0  0
  -39.8695   12.4436   -4.2726 O   0  0  0  0  0  0  0  0  0  0  0  0
  -37.5520   11.0509   -4.1858 C   0  0  0  0  0  0  0  0  0  0  0  0
  -39.5593   10.7552   -2.4461 O   0  0  0  0  0  0  0  0  0  0  0  0
  -39.0125   10.3837   -1.1756 C   0  0  0  0  0  0  0  0  0  0  0  0
  -39.8226   10.9889   -0.0606 C   0  0  1  0  0  0  0  0  0  0  0  0
  -40.7584   10.0144    0.4700 O   0  0  0  0  0  0  0  0  0  0  0  0
  -38.9765   11.4129    1.1434 C   0  0  1  0  0  0  0  0  0  0  0  0
  -38.4345   12.7016    0.8948 O   0  0  0  0  0  0  0  0  0  0  0  0
  -40.0088   11.3684    2.2670 C   0  0  1  0  0  0  0  0  0  0  0  0
  -40.8039   12.5322    2.2622 O   0  0  0  0  0  0  0  0  0  0  0  0
  -40.8116   10.1285    1.8813 C   0  0  2  0  0  0  0  0  0  0  0  0
  -40.3180    8.8908    2.4778 N   0  0  0  0  0  0  0  0  0  0  0  0
  -39.3392    8.0465    2.0001 C   0  0  0  0  0  0  0  0  0  0  0  0
  -39.1611    6.9825    2.7444 N   0  0  0  0  0  0  0  0  0  0  0  0
  -40.0771    7.1279    3.7776 C   0  0  0  0  0  0  0  0  0  0  0  0
  -40.3795    6.3352    4.9035 C   0  0  0  0  0  0  0  0  0  0  0  0
  -39.7763    5.1868    5.1924 N   0  0  0  0  0  0  0  0  0  0  0  0
  -41.3524    6.7800    5.7384 N   0  0  0  0  0  0  0  0  0  0  0  0
  -41.9619    7.9364    5.4518 C   0  0  0  0  0  0  0  0  0  0  0  0
  -41.7630    8.7607    4.4290 N   0  0  0  0  0  0  0  0  0  0  0  0
  -40.7973    8.2976    3.6184 C   0  0  0  0  0  0  0  0  0  0  0  0
  -36.6240   11.1166   -3.5988 H   0  0  0  0  0  0  0  0  0  0  0  0
  -37.4423   11.5361   -5.1670 H   0  0  0  0  0  0  0  0  0  0  0  0
  -39.0267    9.2879   -1.0809 H   0  0  0  0  0  0  0  0  0  0  0  0
  -37.9790   10.7546   -1.1088 H   0  0  0  0  0  0  0  0  0  0  0  0
  -40.3126   11.8641   -0.5122 H   0  0  0  0  0  0  0  0  0  0  0  0
  -38.1000   10.7904    1.3764 H   0  0  0  0  0  0  0  0  0  0  0  0
  -38.2452   13.1518    1.7560 H   0  0  0  0  0  0  0  0  0  0  0  0
  -39.5858   11.3247    3.2815 H   0  0  0  0  0  0  0  0  0  0  0  0
  -40.9919   12.8073    3.1945 H   0  0  0  0  0  0  0  0  0  0  0  0
  -41.8353   10.2605    2.2616 H   0  0  0  0  0  0  0  0  0  0  0  0
  -38.7639    8.2460    1.0840 H   0  0  0  0  0  0  0  0  0  0  0  0
  -40.0491    4.6592    6.0339 H   0  0  0  0  0  0  0  0  0  0  0  0
  -39.0359    4.8243    4.5748 H   0  0  0  0  0  0  0  0  0  0  0  0
  -42.7386    8.2492    6.1651 H   0  0  0  0  0  0  0  0  0  0  0  0
  1  2  2  0
  1  3  1  6
  1  4  1  0
  1  8  1  0
  5  6  2  0
  5  7  1  6
  5  8  1  0
  5 12  1  0
  9 10  2  0
  9 11  1  6
  9 12  1  0
  9 13  1  0
 13 14  1  0
 15 14  1  0
 15 16  1  0
 15 17  1  0
 16 21  1  0
 17 18  1  0
 17 19  1  0
 19 20  1  0
 19 21  1  0
 21 22  1  0
 22 23  1  0
 22 31  1  0
 23 24  2  0
 24 25  1  0
 25 26  2  0
 25 31  1  0
 26 27  1  0
 26 28  1  0
 28 29  2  0
 29 30  1  0
 30 31  2  0
 12 32  1  0
 12 33  1  0
 14 34  1  0
 14 35  1  0
 15 36  1  6
 17 37  1  1
 18 38  1  0
 19 39  1  1
 20 40  1  0
 21 41  1  6
 23 42  1  0
 27 43  1  0
 27 44  1  0
 29 45  1  0
M  CHG  4   3  -1   4  -1   7  -1  11  -1
M  END
>  <filename_input>  (2) 
7XBV_APC_docked.sdf

>  <pdb_id>  (2) 
7XBV_APC

>  <pose_rank>  (2) 
1

>  <num_atoms_heavy>  (2) 
31

>  <num_torsions>  (2) 
8

>  <pose>  (2) 
[-39.82262386588283, 10.988916436581414, -0.06064289595162092, -4.184804139199362, 4.23018518991114, -2.4492008562630865, 0.18360156668686853, 0.3724578111698257, -7.745646045311762, 23.733790902707707, 18.552995004193196, -3.9333616557166033, -2.1726675502141584, 0.46077066770720587]

>  <energy>  (2) 
-649.2107948955597

>  <inter_energy>  (2) 
-742.3091957687843

>  <intra_energy>  (2) 
95.70273077546365

>  <rmsd>  (2) 
3.61413

>  <sdf_rank>  (2) 
0

$$$$

     RDKit          3D

 45 47  0  0  0  0  0  0  0  0999 V2000
  -40.5479   11.5584   -7.1234 P   0  0  2  0  0  0  0  0  0  0  0  0
  -41.5565   10.5967   -7.6793 O   0  0  0  0  0  0  0  0  0  0  0  0
  -41.1970   12.8614   -6.7036 O   0  0  0  0  0  0  0  0  0  0  0  0
  -39.3782   11.7807   -8.0511 O   0  0  0  0  0  0  0  0  0  0  0  0
  -38.6733   11.3560   -4.8958 P   0  0  1  0  0  0  0  0  0  0  0  0
  -37.8697   10.1455   -4.5105 O   0  0  0  0  0  0  0  0  0  0  0  0
  -37.9274   12.5087   -5.5097 O   0  0  0  0  0  0  0  0  0  0  0  0
  -39.8810   10.8563   -5.8275 O   0  0  0  0  0  0  0  0  0  0  0  0
  -38.3771   12.7213   -2.2312 P   0  0  1  0  0  0  0  0  0  0  0  0
  -37.0566   12.9318   -2.9171 O   0  0  0  0  0  0  0  0  0  0  0  0
  -39.0210   13.9151   -1.5910 O   0  0  0  0  0  0  0  0  0  0  0  0
  -39.5253   12.0053   -3.4395 C   0  0  0  0  0  0  0  0  0  0  0  0
  -38.2286   11.5798   -1.1413 O   0  0  0  0  0  0  0  0  0  0  0  0
  -39.3178   10.6803   -0.9056 C   0  0  0  0  0  0  0  0  0  0  0  0
  -40.0656   11.0793    0.3382 C   0  0  1  0  0  0  0  0  0  0  0  0
  -41.0088   10.0423    0.7149 O   0  0  0  0  0  0  0  0  0  0  0  0
  -39.1612   11.2473    1.5626 C   0  0  1  0  0  0  0  0  0  0  0  0
  -38.5910   12.5476    1.5394 O   0  0  0  0  0  0  0  0  0  0  0  0
  -40.1500   11.0120    2.7015 C   0  0  1  0  0  0  0  0  0  0  0  0
  -40.9096   12.1726    2.9522 O   0  0  0  0  0  0  0  0  0  0  0  0
  -41.0038    9.8863    2.1232 C   0  0  2  0  0  0  0  0  0  0  0  0
  -40.5246    8.5470    2.4520 N   0  0  0  0  0  0  0  0  0  0  0  0
  -39.7319    7.7156    1.6908 C   0  0  0  0  0  0  0  0  0  0  0  0
  -39.5183    6.5480    2.2467 N   0  0  0  0  0  0  0  0  0  0  0  0
  -40.2116    6.6067    3.4482 C   0  0  0  0  0  0  0  0  0  0  0  0
  -40.3733    5.6851    4.5027 C   0  0  0  0  0  0  0  0  0  0  0  0
  -39.8351    4.4701    4.5222 N   0  0  0  0  0  0  0  0  0  0  0  0
  -41.1312    6.0713    5.5599 N   0  0  0  0  0  0  0  0  0  0  0  0
  -41.6743    7.2943    5.5450 C   0  0  0  0  0  0  0  0  0  0  0  0
  -41.5921    8.2394    4.6149 N   0  0  0  0  0  0  0  0  0  0  0  0
  -40.8384    7.8322    3.5803 C   0  0  0  0  0  0  0  0  0  0  0  0
  -40.2315   12.7849   -3.7612 H   0  0  0  0  0  0  0  0  0  0  0  0
  -40.0457   11.1672   -2.9530 H   0  0  0  0  0  0  0  0  0  0  0  0
  -40.0033   10.7073   -1.7655 H   0  0  0  0  0  0  0  0  0  0  0  0
  -38.9195    9.6635   -0.7727 H   0  0  0  0  0  0  0  0  0  0  0  0
  -40.5464   12.0351    0.0827 H   0  0  0  0  0  0  0  0  0  0  0  0
  -38.2953   10.5727    1.6347 H   0  0  0  0  0  0  0  0  0  0  0  0
  -38.4524   12.8638    2.4673 H   0  0  0  0  0  0  0  0  0  0  0  0
  -39.6894   10.7664    3.6698 H   0  0  0  0  0  0  0  0  0  0  0  0
  -40.9965   12.3053    3.9294 H   0  0  0  0  0  0  0  0  0  0  0  0
  -42.0076    9.9657    2.5660 H   0  0  0  0  0  0  0  0  0  0  0  0
  -39.3189    8.0036    0.7128 H   0  0  0  0  0  0  0  0  0  0  0  0
  -39.9958    3.8485    5.3276 H   0  0  0  0  0  0  0  0  0  0  0  0
  -39.2573    4.1500    3.7319 H   0  0  0  0  0  0  0  0  0  0  0  0
  -42.2747    7.5542    6.4292 H   0  0  0  0  0  0  0  0  0  0  0  0
  1  2  2  0
  1  3  1  1
  1  4  1  0
  1  8  1  0
  5  6  2  0
  5  7  1  6
  5  8  1  0
  5 12  1  0
  9 10  2  0
  9 11  1  1
  9 12  1  0
  9 13  1  0
 13 14  1  0
 15 14  1  0
 15 16  1  0
 15 17  1  0
 16 21  1  0
 17 18  1  0
 17 19  1  0
 19 20  1  0
 19 21  1  0
 21 22  1  0
 22 23  1  0
 22 31  1  0
 23 24  2  0
 24 25  1  0
 25 26  2  0
 25 31  1  0
 26 27  1  0
 26 28  1  0
 28 29  2  0
 29 30  1  0
 30 31  2  0
 12 32  1  0
 12 33  1  0
 14 34  1  0
 14 35  1  0
 15 36  1  6
 17 37  1  6
 18 38  1  0
 19 39  1  1
 20 40  1  0
 21 41  1  1
 23 42  1  0
 27 43  1  0
 27 44  1  0
 29 45  1  0
M  CHG  4   3  -1   4  -1   7  -1  11  -1
M  END
>  <filename_input>  (3) 
7XBV_APC_docked.sdf

>  <pdb_id>  (3) 
7XBV_APC

>  <pose_rank>  (3) 
2

>  <num_atoms_heavy>  (3) 
31

>  <num_torsions>  (3) 
8

>  <pose>  (3) 
[-40.06562154007856, 11.079347939622275, 0.33821956799219655, 0.09279013762953343, 0.14740129693741189, -0.07183320304520112, 0.015156924624557266, 1.9741392258183426, 1.283427860890685, 2.8867110775549927, 3.7582537074148425, 0.34805990620828026, -3.1298934601928923, -1.633881453750956]

>  <energy>  (3) 
-752.7278139936873

>  <inter_energy>  (3) 
-773.1754417703385

>  <intra_energy>  (3) 
27.27385564201845

>  <rmsd>  (3) 
1.86966

>  <sdf_rank>  (3) 
0

$$$$

     RDKit          3D

 45 47  0  0  0  0  0  0  0  0999 V2000
  -40.9305   11.2577   -7.2756 P   0  0  2  0  0  0  0  0  0  0  0  0
  -40.8977   11.8048   -8.6722 O   0  0  0  0  0  0  0  0  0  0  0  0
  -41.8170   10.0327   -7.1807 O   0  0  0  0  0  0  0  0  0  0  0  0
  -41.2931   12.3009   -6.2468 O   0  0  0  0  0  0  0  0  0  0  0  0
  -38.6779   10.8690   -5.4612 P   0  0  1  0  0  0  0  0  0  0  0  0
  -37.3670   10.1506   -5.6193 O   0  0  0  0  0  0  0  0  0  0  0  0
  -38.6368   12.2509   -4.8691 O   0  0  0  0  0  0  0  0  0  0  0  0
  -39.4149   10.8470   -6.8869 O   0  0  0  0  0  0  0  0  0  0  0  0
  -38.8767    8.8713   -3.2203 P   0  0  1  0  0  0  0  0  0  0  0  0
  -39.3391    7.4502   -3.3791 O   0  0  0  0  0  0  0  0  0  0  0  0
  -37.4078    9.1394   -3.3610 O   0  0  0  0  0  0  0  0  0  0  0  0
  -39.7825    9.8896   -4.4176 C   0  0  0  0  0  0  0  0  0  0  0  0
  -39.3621    9.4297   -1.8184 O   0  0  0  0  0  0  0  0  0  0  0  0
  -38.9898   10.7528   -1.4162 C   0  0  0  0  0  0  0  0  0  0  0  0
  -39.8266   11.1988   -0.2472 C   0  0  1  0  0  0  0  0  0  0  0  0
  -40.7554   10.1518    0.1375 O   0  0  0  0  0  0  0  0  0  0  0  0
  -39.0061   11.4758    1.0159 C   0  0  1  0  0  0  0  0  0  0  0  0
  -38.4804   12.7930    0.9442 O   0  0  0  0  0  0  0  0  0  0  0  0
  -40.0551   11.2735    2.1062 C   0  0  1  0  0  0  0  0  0  0  0  0
  -40.8680   12.4177    2.2368 O   0  0  0  0  0  0  0  0  0  0  0  0
  -40.8325   10.0829    1.5507 C   0  0  2  0  0  0  0  0  0  0  0  0
  -40.3292    8.7855    1.9920 N   0  0  0  0  0  0  0  0  0  0  0  0
  -39.4560    7.9436    1.3380 C   0  0  0  0  0  0  0  0  0  0  0  0
  -39.2395    6.8199    1.9772 N   0  0  0  0  0  0  0  0  0  0  0  0
  -40.0162    6.9209    3.1236 C   0  0  0  0  0  0  0  0  0  0  0  0
  -40.2174    6.0567    4.2191 C   0  0  0  0  0  0  0  0  0  0  0  0
  -39.6383    4.8675    4.3489 N   0  0  0  0  0  0  0  0  0  0  0  0
  -41.0603    6.4732    5.1976 N   0  0  0  0  0  0  0  0  0  0  0  0
  -41.6449    7.6704    5.0715 C   0  0  0  0  0  0  0  0  0  0  0  0
  -41.5325    8.5621    4.0931 N   0  0  0  0  0  0  0  0  0  0  0  0
  -40.6946    8.1258    3.1383 C   0  0  0  0  0  0  0  0  0  0  0  0
  -40.4482   10.5722   -3.8691 H   0  0  0  0  0  0  0  0  0  0  0  0
  -40.3512    9.2129   -5.0722 H   0  0  0  0  0  0  0  0  0  0  0  0
  -37.9287   10.7587   -1.1261 H   0  0  0  0  0  0  0  0  0  0  0  0
  -39.1544   11.4420   -2.2575 H   0  0  0  0  0  0  0  0  0  0  0  0
  -40.3229   12.1182   -0.5914 H   0  0  0  0  0  0  0  0  0  0  0  0
  -38.1239   10.8403    1.1825 H   0  0  0  0  0  0  0  0  0  0  0  0
  -38.3407   13.1428    1.8597 H   0  0  0  0  0  0  0  0  0  0  0  0
  -39.6474   11.1055    3.1140 H   0  0  0  0  0  0  0  0  0  0  0  0
  -41.0083   12.6150    3.1967 H   0  0  0  0  0  0  0  0  0  0  0  0
  -41.8639   10.1512    1.9267 H   0  0  0  0  0  0  0  0  0  0  0  0
  -38.9868    8.1903    0.3742 H   0  0  0  0  0  0  0  0  0  0  0  0
  -39.8320    4.2881    5.1781 H   0  0  0  0  0  0  0  0  0  0  0  0
  -38.9958    4.5253    3.6202 H   0  0  0  0  0  0  0  0  0  0  0  0
  -42.3142    7.9572    5.8960 H   0  0  0  0  0  0  0  0  0  0  0  0
  1  2  2  0
  1  3  1  6
  1  4  1  0
  1  8  1  0
  5  6  2  0
  5  7  1  1
  5  8  1  0
  5 12  1  0
  9 10  2  0
  9 11  1  6
  9 12  1  0
  9 13  1  0
 13 14  1  0
 15 14  1  0
 15 16  1  0
 15 17  1  0
 16 21  1  0
 17 18  1  0
 17 19  1  0
 19 20  1  0
 19 21  1  0
 21 22  1  0
 22 23  1  0
 22 31  1  0
 23 24  2  0
 24 25  1  0
 25 26  2  0
 25 31  1  0
 26 27  1  0
 26 28  1  0
 28 29  2  0
 29 30  1  0
 30 31  2  0
 12 32  1  0
 12 33  1  0
 14 34  1  0
 14 35  1  0
 15 36  1  6
 17 37  1  1
 18 38  1  0
 19 39  1  1
 20 40  1  0
 21 41  1  6
 23 42  1  0
 27 43  1  0
 27 44  1  0
 29 45  1  0
M  CHG  4   3  -1   4  -1   7  -1  11  -1
M  END
>  <filename_input>  (4) 
7XBV_APC_docked.sdf

>  <pdb_id>  (4) 
7XBV_APC

>  <pose_rank>  (4) 
3

>  <num_atoms_heavy>  (4) 
31

>  <num_torsions>  (4) 
8

>  <pose>  (4) 
[-39.826577424671974, 11.198829993710243, -0.24724191290600697, -1.8769019911574532, -5.398773812899441, 2.3631214479261993, 0.023304337977231505, -1.3381864991562376, 5.941752947758616, 8.502808407106194, 1.2819414927346249, -0.34047250608905494, -3.9618423043695237, -2.1040571222308944]

>  <energy>  (4) 
-773.6794067197923

>  <inter_energy>  (4) 
-805.9237603378687

>  <intra_energy>  (4) 
35.57329026456114

>  <rmsd>  (4) 
1.56941

>  <sdf_rank>  (4) 
0

$$$$

     RDKit          3D

 45 47  0  0  0  0  0  0  0  0999 V2000
  -38.2878   16.6804   -3.2290 P   0  0  2  0  0  0  0  0  0  0  0  0
  -39.2821   17.4790   -2.4387 O   0  0  0  0  0  0  0  0  0  0  0  0
  -37.0388   16.3939   -2.4208 O   0  0  0  0  0  0  0  0  0  0  0  0
  -37.9675   17.3032   -4.5661 O   0  0  0  0  0  0  0  0  0  0  0  0
  -40.0487   14.3952   -2.7874 P   0  0  1  0  0  0  0  0  0  0  0  0
  -39.5579   14.3283   -1.3682 O   0  0  0  0  0  0  0  0  0  0  0  0
  -41.4661   14.8493   -3.0033 O   0  0  0  0  0  0  0  0  0  0  0  0
  -38.9998   15.2811   -3.6190 O   0  0  0  0  0  0  0  0  0  0  0  0
  -38.2390   12.0651   -3.3766 P   0  0  1  0  0  0  0  0  0  0  0  0
  -38.2167   10.7397   -4.0846 O   0  0  0  0  0  0  0  0  0  0  0  0
  -37.2282   13.0900   -3.7976 O   0  0  0  0  0  0  0  0  0  0  0  0
  -39.9029   12.7651   -3.5555 C   0  0  0  0  0  0  0  0  0  0  0  0
  -38.1029   11.8304   -1.8148 O   0  0  0  0  0  0  0  0  0  0  0  0
  -38.7365   10.6966   -1.2115 C   0  0  0  0  0  0  0  0  0  0  0  0
  -39.6615   11.1394   -0.1097 C   0  0  1  0  0  0  0  0  0  0  0  0
  -40.5784   10.0698    0.2400 O   0  0  0  0  0  0  0  0  0  0  0  0
  -38.9342   11.4722    1.1962 C   0  0  1  0  0  0  0  0  0  0  0  0
  -38.4483   12.8047    1.1264 O   0  0  0  0  0  0  0  0  0  0  0  0
  -40.0444   11.2582    2.2218 C   0  0  1  0  0  0  0  0  0  0  0  0
  -40.9011   12.3763    2.2722 O   0  0  0  0  0  0  0  0  0  0  0  0
  -40.7446   10.0296    1.6467 C   0  0  2  0  0  0  0  0  0  0  0  0
  -40.2287    8.7603    2.1507 N   0  0  0  0  0  0  0  0  0  0  0  0
  -39.2192    7.9828    1.6258 C   0  0  0  0  0  0  0  0  0  0  0  0
  -39.0259    6.8666    2.2850 N   0  0  0  0  0  0  0  0  0  0  0  0
  -39.9639    6.9041    3.3080 C   0  0  0  0  0  0  0  0  0  0  0  0
  -40.2650    6.0148    4.3597 C   0  0  0  0  0  0  0  0  0  0  0  0
  -39.6363    4.8623    4.5667 N   0  0  0  0  0  0  0  0  0  0  0  0
  -41.2642    6.3653    5.2082 N   0  0  0  0  0  0  0  0  0  0  0  0
  -41.8993    7.5254    5.0041 C   0  0  0  0  0  0  0  0  0  0  0  0
  -41.7044    8.4351    4.0556 N   0  0  0  0  0  0  0  0  0  0  0  0
  -40.7123    8.0642    3.2297 C   0  0  0  0  0  0  0  0  0  0  0  0
  -40.6256   12.0849   -3.0812 H   0  0  0  0  0  0  0  0  0  0  0  0
  -40.1052   12.8808   -4.6305 H   0  0  0  0  0  0  0  0  0  0  0  0
  -39.3146   10.1552   -1.9749 H   0  0  0  0  0  0  0  0  0  0  0  0
  -37.9637   10.0389   -0.7870 H   0  0  0  0  0  0  0  0  0  0  0  0
  -40.1644   12.0333   -0.5071 H   0  0  0  0  0  0  0  0  0  0  0  0
  -38.0442   10.8711    1.4343 H   0  0  0  0  0  0  0  0  0  0  0  0
  -38.3197   13.1575    2.0424 H   0  0  0  0  0  0  0  0  0  0  0  0
  -39.6976   11.1266    3.2573 H   0  0  0  0  0  0  0  0  0  0  0  0
  -41.0814   12.6116    3.2168 H   0  0  0  0  0  0  0  0  0  0  0  0
  -41.8000   10.0708    1.9541 H   0  0  0  0  0  0  0  0  0  0  0  0
  -38.6331    8.2708    0.7406 H   0  0  0  0  0  0  0  0  0  0  0  0
  -39.9099    4.2612    5.3571 H   0  0  0  0  0  0  0  0  0  0  0  0
  -38.8756    4.5702    3.9368 H   0  0  0  0  0  0  0  0  0  0  0  0
  -42.6969    7.7593    5.7247 H   0  0  0  0  0  0  0  0  0  0  0  0
  1  2  2  0
  1  3  1  1
  1  4  1  0
  1  8  1  0
  5  6  2  0
  5  7  1  1
  5  8  1  0
  5 12  1  0
  9 10  2  0
  9 11  1  6
  9 12  1  0
  9 13  1  0
 13 14  1  0
 15 14  1  0
 15 16  1  0
 15 17  1  0
 16 21  1  0
 17 18  1  0
 17 19  1  0
 19 20  1  0
 19 21  1  0
 21 22  1  0
 22 23  1  0
 22 31  1  0
 23 24  2  0
 24 25  1  0
 25 26  2  0
 25 31  1  0
 26 27  1  0
 26 28  1  0
 28 29  2  0
 29 30  1  0
 30 31  2  0
 12 32  1  0
 12 33  1  0
 14 34  1  0
 14 35  1  0
 15 36  1  6
 17 37  1  1
 18 38  1  0
 19 39  1  1
 20 40  1  0
 21 41  1  6
 23 42  1  0
 27 43  1  0
 27 44  1  0
 29 45  1  0
M  CHG  4   3  -1   4  -1   7  -1  11  -1
M  END
>  <filename_input>  (5) 
7XBV_APC_docked.sdf

>  <pdb_id>  (5) 
7XBV_APC

>  <pose_rank>  (5) 
4

>  <num_atoms_heavy>  (5) 
31

>  <num_torsions>  (5) 
8

>  <pose>  (5) 
[-39.661485140575046, 11.139366722480851, -0.10972771466784204, -1.764586310819014, -5.904677531320016, 1.102694434161979, 0.11414585086346266, -23.62538451824638, 26.022974922162472, 36.1835243089945, 25.51114522904992, 29.66007824537984, 4.87190441351709, 0.9854849053074352]

>  <energy>  (5) 
-750.8952753512226

>  <inter_energy>  (5) 
-777.5010630294045

>  <intra_energy>  (5) 
25.470026329876102

>  <rmsd>  (5) 
3.38214

>  <sdf_rank>  (5) 
0

$$$$

     RDKit          3D

 45 47  0  0  0  0  0  0  0  0999 V2000
  -44.1252   11.9290   -4.6813 P   0  0  2  0  0  0  0  0  0  0  0  0
  -43.3516   12.1475   -3.4145 O   0  0  0  0  0  0  0  0  0  0  0  0
  -44.9909   13.1265   -5.0158 O   0  0  0  0  0  0  0  0  0  0  0  0
  -44.9160   10.6433   -4.6696 O   0  0  0  0  0  0  0  0  0  0  0  0
  -41.6657   10.8895   -5.8592 P   0  0  1  0  0  0  0  0  0  0  0  0
  -41.8505    9.6967   -4.9634 O   0  0  0  0  0  0  0  0  0  0  0  0
  -41.1553   10.6315   -7.2502 O   0  0  0  0  0  0  0  0  0  0  0  0
  -43.0480   11.7053   -5.8672 O   0  0  0  0  0  0  0  0  0  0  0  0
  -38.9635   11.2526   -4.5870 P   0  0  1  0  0  0  0  0  0  0  0  0
  -38.7081   10.1066   -5.5251 O   0  0  0  0  0  0  0  0  0  0  0  0
  -37.8928   12.2955   -4.4630 O   0  0  0  0  0  0  0  0  0  0  0  0
  -40.5129   12.0507   -5.0902 C   0  0  0  0  0  0  0  0  0  0  0  0
  -39.2911   10.6880   -3.1424 O   0  0  0  0  0  0  0  0  0  0  0  0
  -38.6100   11.2234   -2.0020 C   0  0  0  0  0  0  0  0  0  0  0  0
  -39.6028   11.6818   -0.9677 C   0  0  1  0  0  0  0  0  0  0  0  0
  -40.4688   10.5841   -0.5777 O   0  0  0  0  0  0  0  0  0  0  0  0
  -38.9493   12.1455    0.3373 C   0  0  1  0  0  0  0  0  0  0  0  0
  -38.5399   13.4975    0.1926 O   0  0  0  0  0  0  0  0  0  0  0  0
  -40.0853   11.9334    1.3345 C   0  0  1  0  0  0  0  0  0  0  0  0
  -41.0075   12.9979    1.2762 O   0  0  0  0  0  0  0  0  0  0  0  0
  -40.6887   10.6284    0.8214 C   0  0  2  0  0  0  0  0  0  0  0  0
  -40.1200    9.4298    1.4307 N   0  0  0  0  0  0  0  0  0  0  0  0
  -39.1193    8.6186    0.9411 C   0  0  0  0  0  0  0  0  0  0  0  0
  -38.8688    7.5830    1.7045 N   0  0  0  0  0  0  0  0  0  0  0  0
  -39.7568    7.7134    2.7638 C   0  0  0  0  0  0  0  0  0  0  0  0
  -39.9862    6.9368    3.9179 C   0  0  0  0  0  0  0  0  0  0  0  0
  -39.3220    5.8245    4.2141 N   0  0  0  0  0  0  0  0  0  0  0  0
  -40.9511    7.3586    4.7737 N   0  0  0  0  0  0  0  0  0  0  0  0
  -41.6219    8.4787    4.4798 C   0  0  0  0  0  0  0  0  0  0  0  0
  -41.4940    9.2846    3.4315 N   0  0  0  0  0  0  0  0  0  0  0  0
  -40.5347    8.8450    2.6006 C   0  0  0  0  0  0  0  0  0  0  0  0
  -40.2817   12.8489   -5.8109 H   0  0  0  0  0  0  0  0  0  0  0  0
  -40.9934   12.4522   -4.1858 H   0  0  0  0  0  0  0  0  0  0  0  0
  -37.9652   10.4458   -1.5665 H   0  0  0  0  0  0  0  0  0  0  0  0
  -38.0018   12.0831   -2.3197 H   0  0  0  0  0  0  0  0  0  0  0  0
  -40.1409   12.5145   -1.4442 H   0  0  0  0  0  0  0  0  0  0  0  0
  -38.0359   11.6174    0.6485 H   0  0  0  0  0  0  0  0  0  0  0  0
  -38.4172   13.9028    1.0875 H   0  0  0  0  0  0  0  0  0  0  0  0
  -39.7733   11.8932    2.3886 H   0  0  0  0  0  0  0  0  0  0  0  0
  -41.2486   13.2763    2.1951 H   0  0  0  0  0  0  0  0  0  0  0  0
  -41.7562   10.6255    1.0870 H   0  0  0  0  0  0  0  0  0  0  0  0
  -38.5835    8.8203    0.0018 H   0  0  0  0  0  0  0  0  0  0  0  0
  -39.5431    5.3069    5.0767 H   0  0  0  0  0  0  0  0  0  0  0  0
  -38.5860    5.4801    3.5812 H   0  0  0  0  0  0  0  0  0  0  0  0
  -42.3888    8.7743    5.2109 H   0  0  0  0  0  0  0  0  0  0  0  0
  1  2  2  0
  1  3  1  6
  1  4  1  0
  1  8  1  0
  5  6  2  0
  5  7  1  6
  5  8  1  0
  5 12  1  0
  9 10  2  0
  9 11  1  1
  9 12  1  0
  9 13  1  0
 13 14  1  0
 15 14  1  0
 15 16  1  0
 15 17  1  0
 16 21  1  0
 17 18  1  0
 17 19  1  0
 19 20  1  0
 19 21  1  0
 21 22  1  0
 22 23  1  0
 22 31  1  0
 23 24  2  0
 24 25  1  0
 25 26  2  0
 25 31  1  0
 26 27  1  0
 26 28  1  0
 28 29  2  0
 29 30  1  0
 30 31  2  0
 12 32  1  0
 12 33  1  0
 14 34  1  0
 14 35  1  0
 15 36  1  6
 17 37  1  1
 18 38  1  0
 19 39  1  1
 20 40  1  0
 21 41  1  6
 23 42  1  0
 27 43  1  0
 27 44  1  0
 29 45  1  0
M  CHG  4   3  -1   4  -1   7  -1  11  -1
M  END
>  <filename_input>  (6) 
7XBV_APC_docked.sdf

>  <pdb_id>  (6) 
7XBV_APC

>  <pose_rank>  (6) 
5

>  <num_atoms_heavy>  (6) 
31

>  <num_torsions>  (6) 
8

>  <pose>  (6) 
[-39.602812251525854, 11.681765344852204, -0.967730390481596, -4.677903767610566, -1.2544329491293211, 4.135398825206515, 6.293736807612481, -0.34607260045234933, 5.254509733572333, -4.873539791611379, 4.008353532716111, 0.05893273036584744, -0.030871999237043674, 2.2910054400204825]

>  <energy>  (6) 
-654.3336101946144

>  <inter_energy>  (6) 
-664.1208942372372

>  <intra_energy>  (6) 
11.682679505806854

>  <rmsd>  (6) 
2.17086

>  <sdf_rank>  (6) 
0

$$$$

     RDKit          3D

 45 47  0  0  0  0  0  0  0  0999 V2000
  -40.8826   11.7571   -9.7199 P   0  0  2  0  0  0  0  0  0  0  0  0
  -42.2257   11.6869  -10.3848 O   0  0  0  0  0  0  0  0  0  0  0  0
  -40.2672   13.1347   -9.8577 O   0  0  0  0  0  0  0  0  0  0  0  0
  -39.9441   10.6682  -10.1802 O   0  0  0  0  0  0  0  0  0  0  0  0
  -40.0423   11.0144   -7.0256 P   0  0  1  0  0  0  0  0  0  0  0  0
  -40.3607    9.6080   -6.6011 O   0  0  0  0  0  0  0  0  0  0  0  0
  -38.6290   11.2993   -7.4538 O   0  0  0  0  0  0  0  0  0  0  0  0
  -41.1076   11.4311   -8.1515 O   0  0  0  0  0  0  0  0  0  0  0  0
  -39.4221   11.8138   -4.1922 P   0  0  1  0  0  0  0  0  0  0  0  0
  -38.0221   11.4969   -4.6373 O   0  0  0  0  0  0  0  0  0  0  0  0
  -39.5983   12.9380   -3.2151 O   0  0  0  0  0  0  0  0  0  0  0  0
  -40.4145   12.1537   -5.6722 C   0  0  0  0  0  0  0  0  0  0  0  0
  -40.0915   10.5092   -3.5902 O   0  0  0  0  0  0  0  0  0  0  0  0
  -39.8832   10.1779   -2.2125 C   0  0  0  0  0  0  0  0  0  0  0  0
  -40.1839   11.3655   -1.3380 C   0  0  1  0  0  0  0  0  0  0  0  0
  -41.3449   11.1004   -0.5082 O   0  0  0  0  0  0  0  0  0  0  0  0
  -39.0620   11.6892   -0.3471 C   0  0  1  0  0  0  0  0  0  0  0  0
  -38.0793   12.4757   -1.0044 O   0  0  0  0  0  0  0  0  0  0  0  0
  -39.8305   12.4249    0.7476 C   0  0  1  0  0  0  0  0  0  0  0  0
  -40.0599   13.7668    0.3822 O   0  0  0  0  0  0  0  0  0  0  0  0
  -41.1254   11.6175    0.7927 C   0  0  2  0  0  0  0  0  0  0  0  0
  -41.1048   10.5127    1.7468 N   0  0  0  0  0  0  0  0  0  0  0  0
  -42.0160   10.2290    2.7409 C   0  0  0  0  0  0  0  0  0  0  0  0
  -41.6857    9.1900    3.4684 N   0  0  0  0  0  0  0  0  0  0  0  0
  -40.4826    8.7584    2.9260 C   0  0  0  0  0  0  0  0  0  0  0  0
  -39.6206    7.6896    3.2456 C   0  0  0  0  0  0  0  0  0  0  0  0
  -39.8361    6.8252    4.2318 N   0  0  0  0  0  0  0  0  0  0  0  0
  -38.5001    7.5439    2.4942 N   0  0  0  0  0  0  0  0  0  0  0  0
  -38.2796    8.4115    1.4995 C   0  0  0  0  0  0  0  0  0  0  0  0
  -39.0138    9.4478    1.1095 N   0  0  0  0  0  0  0  0  0  0  0  0
  -40.1149    9.5704    1.8688 C   0  0  0  0  0  0  0  0  0  0  0  0
  -40.2085   13.1808   -6.0078 H   0  0  0  0  0  0  0  0  0  0  0  0
  -41.4733   12.0229   -5.4042 H   0  0  0  0  0  0  0  0  0  0  0  0
  -40.5468    9.3457   -1.9351 H   0  0  0  0  0  0  0  0  0  0  0  0
  -38.8323    9.8858   -2.0699 H   0  0  0  0  0  0  0  0  0  0  0  0
  -40.3294   12.2009   -2.0387 H   0  0  0  0  0  0  0  0  0  0  0  0
  -38.4991   10.8360    0.0595 H   0  0  0  0  0  0  0  0  0  0  0  0
  -37.5136   12.9285   -0.3298 H   0  0  0  0  0  0  0  0  0  0  0  0
  -39.3116   12.4850    1.7156 H   0  0  0  0  0  0  0  0  0  0  0  0
  -40.1544   14.3194    1.1982 H   0  0  0  0  0  0  0  0  0  0  0  0
  -41.9286   12.2908    1.1266 H   0  0  0  0  0  0  0  0  0  0  0  0
  -42.9307   10.8168    2.9075 H   0  0  0  0  0  0  0  0  0  0  0  0
  -39.1618    6.0670    4.4085 H   0  0  0  0  0  0  0  0  0  0  0  0
  -40.6773    6.9136    4.8195 H   0  0  0  0  0  0  0  0  0  0  0  0
  -37.3587    8.2424    0.9221 H   0  0  0  0  0  0  0  0  0  0  0  0
  1  2  2  0
  1  3  1  1
  1  4  1  0
  1  8  1  0
  5  6  2  0
  5  7  1  6
  5  8  1  0
  5 12  1  0
  9 10  2  0
  9 11  1  1
  9 12  1  0
  9 13  1  0
 13 14  1  0
 15 14  1  0
 15 16  1  0
 15 17  1  0
 16 21  1  0
 17 18  1  0
 17 19  1  0
 19 20  1  0
 19 21  1  0
 21 22  1  0
 22 23  1  0
 22 31  1  0
 23 24  2  0
 24 25  1  0
 25 26  2  0
 25 31  1  0
 26 27  1  0
 26 28  1  0
 28 29  2  0
 29 30  1  0
 30 31  2  0
 12 32  1  0
 12 33  1  0
 14 34  1  0
 14 35  1  0
 15 36  1  6
 17 37  1  1
 18 38  1  0
 19 39  1  1
 20 40  1  0
 21 41  1  1
 23 42  1  0
 27 43  1  0
 27 44  1  0
 29 45  1  0
M  CHG  4   3  -1   4  -1   7  -1  11  -1
M  END
>  <filename_input>  (7) 
7XBV_APC_docked.sdf

>  <pdb_id>  (7) 
7XBV_APC

>  <pose_rank>  (7) 
6

>  <num_atoms_heavy>  (7) 
31

>  <num_torsions>  (7) 
8

>  <pose>  (7) 
[-40.183880393830314, 11.365545937631959, -1.3379953449719886, 3.224992094143167, -1.6463024220693683, 4.269246660477872, -2.355818118971356, -30.777908580516343, -40.04633194496492, -18.231759625530753, 10.488595027397013, 0.22327111661410673, -2.6311091620932907, -1.8343563651130568]

>  <energy>  (7) 
-402.95039017286285

>  <inter_energy>  (7) 
-536.2072854247074

>  <intra_energy>  (7) 
128.47706807315896

>  <rmsd>  (7) 
2.36383

>  <sdf_rank>  (7) 
0

$$$$

     RDKit          3D

 45 47  0  0  0  0  0  0  0  0999 V2000
  -48.4449   11.8153    7.9826 P   0  0  2  0  0  0  0  0  0  0  0  0
  -48.5244   13.2287    7.4857 O   0  0  0  0  0  0  0  0  0  0  0  0
  -49.8217   11.1993    8.1250 O   0  0  0  0  0  0  0  0  0  0  0  0
  -47.6318   11.6847    9.2476 O   0  0  0  0  0  0  0  0  0  0  0  0
  -47.6049    9.3982    6.5794 P   0  0  1  0  0  0  0  0  0  0  0  0
  -47.6763    8.6756    7.8955 O   0  0  0  0  0  0  0  0  0  0  0  0
  -48.6303    9.0359    5.5404 O   0  0  0  0  0  0  0  0  0  0  0  0
  -47.5967   10.9722    6.8933 O   0  0  0  0  0  0  0  0  0  0  0  0
  -45.6213   10.3267    4.5166 P   0  0  1  0  0  0  0  0  0  0  0  0
  -46.8628   10.4943    3.6866 O   0  0  0  0  0  0  0  0  0  0  0  0
  -45.0306   11.5600    5.1327 O   0  0  0  0  0  0  0  0  0  0  0  0
  -45.9841    9.1253    5.8265 C   0  0  0  0  0  0  0  0  0  0  0  0
  -44.5039    9.6060    3.6536 O   0  0  0  0  0  0  0  0  0  0  0  0
  -44.0822   10.1870    2.4143 C   0  0  0  0  0  0  0  0  0  0  0  0
  -42.7502   10.8675    2.5824 C   0  0  1  0  0  0  0  0  0  0  0  0
  -42.0097   10.2648    3.6757 O   0  0  0  0  0  0  0  0  0  0  0  0
  -41.8351   10.7196    1.3633 C   0  0  1  0  0  0  0  0  0  0  0  0
  -42.1750   11.7144    0.4087 O   0  0  0  0  0  0  0  0  0  0  0  0
  -40.4581   10.8980    1.9976 C   0  0  1  0  0  0  0  0  0  0  0  0
  -40.1728   12.2637    2.1980 O   0  0  0  0  0  0  0  0  0  0  0  0
  -40.6430   10.1549    3.3182 C   0  0  2  0  0  0  0  0  0  0  0  0
  -40.2777    8.7426    3.2625 N   0  0  0  0  0  0  0  0  0  0  0  0
  -39.6921    8.0549    2.2217 C   0  0  0  0  0  0  0  0  0  0  0  0
  -39.5388    6.7759    2.4641 N   0  0  0  0  0  0  0  0  0  0  0  0
  -40.0545    6.6034    3.7415 C   0  0  0  0  0  0  0  0  0  0  0  0
  -40.1766    5.4744    4.5770 C   0  0  0  0  0  0  0  0  0  0  0  0
  -39.7805    4.2508    4.2420 N   0  0  0  0  0  0  0  0  0  0  0  0
  -40.7384    5.6581    5.7984 N   0  0  0  0  0  0  0  0  0  0  0  0
  -41.1378    6.8888    6.1403 C   0  0  0  0  0  0  0  0  0  0  0  0
  -41.0748    8.0174    5.4422 N   0  0  0  0  0  0  0  0  0  0  0  0
  -40.5165    7.8083    4.2386 C   0  0  0  0  0  0  0  0  0  0  0  0
  -45.2132    9.2093    6.6067 H   0  0  0  0  0  0  0  0  0  0  0  0
  -45.9888    8.1236    5.3720 H   0  0  0  0  0  0  0  0  0  0  0  0
  -43.9925    9.3963    1.6549 H   0  0  0  0  0  0  0  0  0  0  0  0
  -44.8268   10.9318    2.0968 H   0  0  0  0  0  0  0  0  0  0  0  0
  -42.9949   11.9264    2.7520 H   0  0  0  0  0  0  0  0  0  0  0  0
  -41.9025    9.7740    0.8054 H   0  0  0  0  0  0  0  0  0  0  0  0
  -42.4569   12.5393    0.8778 H   0  0  0  0  0  0  0  0  0  0  0  0
  -39.6189   10.5244    1.3924 H   0  0  0  0  0  0  0  0  0  0  0  0
  -40.1331   12.4535    3.1688 H   0  0  0  0  0  0  0  0  0  0  0  0
  -39.9693   10.6128    4.0575 H   0  0  0  0  0  0  0  0  0  0  0  0
  -39.3836    8.5324    1.2800 H   0  0  0  0  0  0  0  0  0  0  0  0
  -39.9012    3.4711    4.9042 H   0  0  0  0  0  0  0  0  0  0  0  0
  -39.3530    4.0822    3.3202 H   0  0  0  0  0  0  0  0  0  0  0  0
  -41.5818    6.9788    7.1426 H   0  0  0  0  0  0  0  0  0  0  0  0
  1  2  2  0
  1  3  1  1
  1  4  1  0
  1  8  1  0
  5  6  2  0
  5  7  1  6
  5  8  1  0
  5 12  1  0
  9 10  2  0
  9 11  1  1
  9 12  1  0
  9 13  1  0
 13 14  1  0
 15 14  1  0
 15 16  1  0
 15 17  1  0
 16 21  1  0
 17 18  1  0
 17 19  1  0
 19 20  1  0
 19 21  1  0
 21 22  1  0
 22 23  1  0
 22 31  1  0
 23 24  2  0
 24 25  1  0
 25 26  2  0
 25 31  1  0
 26 27  1  0
 26 28  1  0
 28 29  2  0
 29 30  1  0
 30 31  2  0
 12 32  1  0
 12 33  1  0
 14 34  1  0
 14 35  1  0
 15 36  1  1
 17 37  1  6
 18 38  1  0
 19 39  1  6
 20 40  1  0
 21 41  1  1
 23 42  1  0
 27 43  1  0
 27 44  1  0
 29 45  1  0
M  CHG  4   3  -1   4  -1   7  -1  11  -1
M  END
>  <filename_input>  (8) 
7XBV_APC_docked.sdf

>  <pdb_id>  (8) 
7XBV_APC

>  <pose_rank>  (8) 
7

>  <num_atoms_heavy>  (8) 
31

>  <num_torsions>  (8) 
8

>  <pose>  (8) 
[-42.750197730419686, 10.867472998959428, 2.58235471427252, -0.3632549224673367, 1.947960935550041, -0.4085689145803861, -4.476802068206527, -0.896233958744433, -1.431840928660388, 0.12295956224112939, 2.738776693386186, 2.5920442548389575, -1.34811344489404, -1.1237530473680997]

>  <energy>  (8) 
-667.6290893587756

>  <inter_energy>  (8) 
-662.448948845402

>  <intra_energy>  (8) 
18.58249757604539

>  <rmsd>  (8) 
9.73881

>  <sdf_rank>  (8) 
0

$$$$

     RDKit          3D

 45 47  0  0  0  0  0  0  0  0999 V2000
  -38.9756   15.0855   -2.0159 P   0  0  2  0  0  0  0  0  0  0  0  0
  -40.2842   15.3155   -1.3191 O   0  0  0  0  0  0  0  0  0  0  0  0
  -38.0866   14.1440   -1.2295 O   0  0  0  0  0  0  0  0  0  0  0  0
  -38.2675   16.3707   -2.3701 O   0  0  0  0  0  0  0  0  0  0  0  0
  -39.9955   13.0145   -3.8015 P   0  0  1  0  0  0  0  0  0  0  0  0
  -40.5248   12.4407   -2.5170 O   0  0  0  0  0  0  0  0  0  0  0  0
  -40.9575   13.1251   -4.9523 O   0  0  0  0  0  0  0  0  0  0  0  0
  -39.3091   14.4232   -3.4536 O   0  0  0  0  0  0  0  0  0  0  0  0
  -38.9312   10.2371   -4.2541 P   0  0  1  0  0  0  0  0  0  0  0  0
  -40.3951   10.0166   -4.5127 O   0  0  0  0  0  0  0  0  0  0  0  0
  -37.9574    9.4962   -5.1215 O   0  0  0  0  0  0  0  0  0  0  0  0
  -38.6041   12.0168   -4.3819 C   0  0  0  0  0  0  0  0  0  0  0  0
  -38.6092    9.9103   -2.7368 O   0  0  0  0  0  0  0  0  0  0  0  0
  -39.4063    8.9495   -2.0350 C   0  0  0  0  0  0  0  0  0  0  0  0
  -38.5305    8.0501   -1.2046 C   0  0  1  0  0  0  0  0  0  0  0  0
  -38.2334    8.6734    0.0723 O   0  0  0  0  0  0  0  0  0  0  0  0
  -39.1965    6.7193   -0.8433 C   0  0  1  0  0  0  0  0  0  0  0  0
  -39.0304    5.8127   -1.9236 O   0  0  0  0  0  0  0  0  0  0  0  0
  -38.4365    6.3368    0.4241 C   0  0  1  0  0  0  0  0  0  0  0  0
  -37.1883    5.7647    0.1054 O   0  0  0  0  0  0  0  0  0  0  0  0
  -38.2838    7.6977    1.0986 C   0  0  2  0  0  0  0  0  0  0  0  0
  -39.3671    8.0306    2.0189 N   0  0  0  0  0  0  0  0  0  0  0  0
  -40.0606    9.2168    2.1243 C   0  0  0  0  0  0  0  0  0  0  0  0
  -40.9453    9.2181    3.0914 N   0  0  0  0  0  0  0  0  0  0  0  0
  -40.8318    7.9581    3.6635 C   0  0  0  0  0  0  0  0  0  0  0  0
  -41.5050    7.3309    4.7316 C   0  0  0  0  0  0  0  0  0  0  0  0
  -42.4615    7.9063    5.4528 N   0  0  0  0  0  0  0  0  0  0  0  0
  -41.1442    6.0590    5.0374 N   0  0  0  0  0  0  0  0  0  0  0  0
  -40.1820    5.4753    4.3133 C   0  0  0  0  0  0  0  0  0  0  0  0
  -39.4835    5.9636    3.2941 N   0  0  0  0  0  0  0  0  0  0  0  0
  -39.8587    7.2222    3.0126 C   0  0  0  0  0  0  0  0  0  0  0  0
  -38.4058   12.2651   -5.4350 H   0  0  0  0  0  0  0  0  0  0  0  0
  -37.7372   12.2458   -3.7446 H   0  0  0  0  0  0  0  0  0  0  0  0
  -40.1133    9.4759   -1.3769 H   0  0  0  0  0  0  0  0  0  0  0  0
  -39.9555    8.3380   -2.7662 H   0  0  0  0  0  0  0  0  0  0  0  0
  -37.6381    7.8766   -1.8240 H   0  0  0  0  0  0  0  0  0  0  0  0
  -40.2828    6.7399   -0.6712 H   0  0  0  0  0  0  0  0  0  0  0  0
  -38.8639    4.9036   -1.5688 H   0  0  0  0  0  0  0  0  0  0  0  0
  -38.9352    5.5841    1.0523 H   0  0  0  0  0  0  0  0  0  0  0  0
  -36.7043    5.5428    0.9401 H   0  0  0  0  0  0  0  0  0  0  0  0
  -37.3678    7.6692    1.7071 H   0  0  0  0  0  0  0  0  0  0  0  0
  -39.8886   10.0779    1.4618 H   0  0  0  0  0  0  0  0  0  0  0  0
  -42.9108    7.3869    6.2204 H   0  0  0  0  0  0  0  0  0  0  0  0
  -42.7536    8.8717    5.2441 H   0  0  0  0  0  0  0  0  0  0  0  0
  -39.9340    4.4436    4.6034 H   0  0  0  0  0  0  0  0  0  0  0  0
  1  2  2  0
  1  3  1  1
  1  4  1  0
  1  8  1  0
  5  6  2  0
  5  7  1  6
  5  8  1  0
  5 12  1  0
  9 10  2  0
  9 11  1  6
  9 12  1  0
  9 13  1  0
 13 14  1  0
 15 14  1  0
 15 16  1  0
 15 17  1  0
 16 21  1  0
 17 18  1  0
 17 19  1  0
 19 20  1  0
 19 21  1  0
 21 22  1  0
 22 23  1  0
 22 31  1  0
 23 24  2  0
 24 25  1  0
 25 26  2  0
 25 31  1  0
 26 27  1  0
 26 28  1  0
 28 29  2  0
 29 30  1  0
 30 31  2  0
 12 32  1  0
 12 33  1  0
 14 34  1  0
 14 35  1  0
 15 36  1  6
 17 37  1  1
 18 38  1  0
 19 39  1  1
 20 40  1  0
 21 41  1  1
 23 42  1  0
 27 43  1  0
 27 44  1  0
 29 45  1  0
M  CHG  4   3  -1   4  -1   7  -1  11  -1
M  END
>  <filename_input>  (9) 
7XBV_APC_docked.sdf

>  <pdb_id>  (9) 
7XBV_APC

>  <pose_rank>  (9) 
8

>  <num_atoms_heavy>  (9) 
31

>  <num_torsions>  (9) 
8

>  <pose>  (9) 
[-38.53045649359421, 8.050100618434188, -1.204552452862021, -0.5658383376089738, -1.354269259717201, 3.1741344542451344, -6.923885315666219, 0.11781311122032963, 5.444619380796688, 12.188472114445151, -8.48620333071742, -0.0781530102330763, -6.75742967449737, 0.4868616870690487]

>  <energy>  (9) 
-647.1159069380473

>  <inter_energy>  (9) 
-665.0313850963968

>  <intra_energy>  (9) 
19.418145662231073

>  <rmsd>  (9) 
4.38185

>  <sdf_rank>  (9) 
0

$$$$

     RDKit          3D

 45 47  0  0  0  0  0  0  0  0999 V2000
  -36.3775    1.8826   -3.0165 P   0  0  2  0  0  0  0  0  0  0  0  0
  -35.2167    2.6607   -2.4706 O   0  0  0  0  0  0  0  0  0  0  0  0
  -37.0766    1.0932   -1.9286 O   0  0  0  0  0  0  0  0  0  0  0  0
  -35.9994    1.0152   -4.1925 O   0  0  0  0  0  0  0  0  0  0  0  0
  -38.7684    3.5563   -3.0301 P   0  0  1  0  0  0  0  0  0  0  0  0
  -39.3473    4.4980   -4.0486 O   0  0  0  0  0  0  0  0  0  0  0  0
  -39.6743    2.4814   -2.4953 O   0  0  0  0  0  0  0  0  0  0  0  0
  -37.4157    2.9512   -3.6469 O   0  0  0  0  0  0  0  0  0  0  0  0
  -37.4471    6.0863   -2.0789 P   0  0  1  0  0  0  0  0  0  0  0  0
  -36.3588    6.4075   -1.0936 O   0  0  0  0  0  0  0  0  0  0  0  0
  -37.0724    6.0382   -3.5304 O   0  0  0  0  0  0  0  0  0  0  0  0
  -38.1793    4.4964   -1.6027 C   0  0  0  0  0  0  0  0  0  0  0  0
  -38.6417    7.1123   -1.8974 O   0  0  0  0  0  0  0  0  0  0  0  0
  -38.4524    8.4882   -2.2469 C   0  0  0  0  0  0  0  0  0  0  0  0
  -39.3278    9.3689   -1.3963 C   0  0  1  0  0  0  0  0  0  0  0  0
  -40.2218    8.5613   -0.5867 O   0  0  0  0  0  0  0  0  0  0  0  0
  -38.5427   10.2121   -0.3873 C   0  0  1  0  0  0  0  0  0  0  0  0
  -38.0678   11.3828   -1.0358 O   0  0  0  0  0  0  0  0  0  0  0  0
  -39.6031   10.4682    0.6804 C   0  0  1  0  0  0  0  0  0  0  0  0
  -40.4627   11.5152    0.2907 O   0  0  0  0  0  0  0  0  0  0  0  0
  -40.3226    9.1221    0.7107 C   0  0  2  0  0  0  0  0  0  0  0  0
  -39.7771    8.1776    1.6811 N   0  0  0  0  0  0  0  0  0  0  0  0
  -38.7661    7.2589    1.4997 C   0  0  0  0  0  0  0  0  0  0  0  0
  -38.5424    6.5160    2.5560 N   0  0  0  0  0  0  0  0  0  0  0  0
  -39.4605    6.9671    3.4948 C   0  0  0  0  0  0  0  0  0  0  0  0
  -39.7269    6.5900    4.8269 C   0  0  0  0  0  0  0  0  0  0  0  0
  -39.0764    5.6299    5.4759 N   0  0  0  0  0  0  0  0  0  0  0  0
  -40.7145    7.2538    5.4791 N   0  0  0  0  0  0  0  0  0  0  0  0
  -41.3716    8.2220    4.8297 C   0  0  0  0  0  0  0  0  0  0  0  0
  -41.2096    8.6597    3.5858 N   0  0  0  0  0  0  0  0  0  0  0  0
  -40.2283    7.9867    2.9627 C   0  0  0  0  0  0  0  0  0  0  0  0
  -39.0281    4.6857   -0.9292 H   0  0  0  0  0  0  0  0  0  0  0  0
  -37.3978    3.9014   -1.1075 H   0  0  0  0  0  0  0  0  0  0  0  0
  -37.3988    8.7614   -2.0874 H   0  0  0  0  0  0  0  0  0  0  0  0
  -38.7226    8.6292   -3.3038 H   0  0  0  0  0  0  0  0  0  0  0  0
  -39.8534   10.0182   -2.1119 H   0  0  0  0  0  0  0  0  0  0  0  0
  -37.6394    9.7552    0.0432 H   0  0  0  0  0  0  0  0  0  0  0  0
  -37.7972   12.0498   -0.3561 H   0  0  0  0  0  0  0  0  0  0  0  0
  -39.2081   10.7818    1.6579 H   0  0  0  0  0  0  0  0  0  0  0  0
  -40.8276   11.9598    1.0965 H   0  0  0  0  0  0  0  0  0  0  0  0
  -41.3628    9.3050    1.0181 H   0  0  0  0  0  0  0  0  0  0  0  0
  -38.2022    7.1589    0.5605 H   0  0  0  0  0  0  0  0  0  0  0  0
  -39.3249    5.4074    6.4504 H   0  0  0  0  0  0  0  0  0  0  0  0
  -38.3237    5.1082    5.0044 H   0  0  0  0  0  0  0  0  0  0  0  0
  -42.1582    8.7279    5.4086 H   0  0  0  0  0  0  0  0  0  0  0  0
  1  2  2  0
  1  3  1  1
  1  4  1  0
  1  8  1  0
  5  6  2  0
  5  7  1  1
  5  8  1  0
  5 12  1  0
  9 10  2  0
  9 11  1  6
  9 12  1  0
  9 13  1  0
 13 14  1  0
 15 14  1  0
 15 16  1  0
 15 17  1  0
 16 21  1  0
 17 18  1  0
 17 19  1  0
 19 20  1  0
 19 21  1  0
 21 22  1  0
 22 23  1  0
 22 31  1  0
 23 24  2  0
 24 25  1  0
 25 26  2  0
 25 31  1  0
 26 27  1  0
 26 28  1  0
 28 29  2  0
 29 30  1  0
 30 31  2  0
 12 32  1  0
 12 33  1  0
 14 34  1  0
 14 35  1  0
 15 36  1  6
 17 37  1  1
 18 38  1  0
 19 39  1  1
 20 40  1  0
 21 41  1  1
 23 42  1  0
 27 43  1  0
 27 44  1  0
 29 45  1  0
M  CHG  4   3  -1   4  -1   7  -1  11  -1
M  END
>  <filename_input>  (10) 
7XBV_APC_docked.sdf

>  <pdb_id>  (10) 
7XBV_APC

>  <pose_rank>  (10) 
9

>  <num_atoms_heavy>  (10) 
31

>  <num_torsions>  (10) 
8

>  <pose>  (10) 
[-39.32779605226214, 9.368941717484716, -1.3962558832455043, -0.43063502050944624, 0.06676282003528536, -0.01351366553040774, 12.711126697000516, -1.4680664618642154, -5.860719851967388, 0.3139108603974492, -5.381390453882995, -1.489506908021789, 2.5123513091358594, -0.1495869758918977]

>  <energy>  (10) 
-626.3569007569037

>  <inter_energy>  (10) 
-639.1579033408458

>  <intra_energy>  (10) 
22.895362798419207

>  <rmsd>  (10) 
6.17565

>  <sdf_rank>  (10) 
0

$$$$

     RDKit          3D

 45 47  0  0  0  0  0  0  0  0999 V2000
  -42.3791   12.9787   -0.2653 P   0  0  2  0  0  0  0  0  0  0  0  0
  -40.9517   13.4398   -0.2384 O   0  0  0  0  0  0  0  0  0  0  0  0
  -43.3192   14.1064   -0.6394 O   0  0  0  0  0  0  0  0  0  0  0  0
  -42.7967   12.2930    1.0129 O   0  0  0  0  0  0  0  0  0  0  0  0
  -42.8291   11.9088   -2.9431 P   0  0  1  0  0  0  0  0  0  0  0  0
  -44.2977   11.6294   -3.0996 O   0  0  0  0  0  0  0  0  0  0  0  0
  -42.3017   13.1761   -3.5578 O   0  0  0  0  0  0  0  0  0  0  0  0
  -42.4834   11.8098   -1.3788 O   0  0  0  0  0  0  0  0  0  0  0  0
  -40.1145   10.9543   -3.8217 P   0  0  1  0  0  0  0  0  0  0  0  0
  -39.9590   11.8668   -5.0055 O   0  0  0  0  0  0  0  0  0  0  0  0
  -39.5984   11.4426   -2.5008 O   0  0  0  0  0  0  0  0  0  0  0  0
  -41.8750   10.5492   -3.6570 C   0  0  0  0  0  0  0  0  0  0  0  0
  -39.4420    9.5553   -4.1429 O   0  0  0  0  0  0  0  0  0  0  0  0
  -39.8706    8.3852   -3.4371 C   0  0  0  0  0  0  0  0  0  0  0  0
  -38.7598    7.8646   -2.5649 C   0  0  1  0  0  0  0  0  0  0  0  0
  -38.3950    8.8540   -1.5675 O   0  0  0  0  0  0  0  0  0  0  0  0
  -39.1527    6.6237   -1.7578 C   0  0  1  0  0  0  0  0  0  0  0  0
  -38.9932    5.4732   -2.5747 O   0  0  0  0  0  0  0  0  0  0  0  0
  -38.1777    6.7059   -0.5862 C   0  0  1  0  0  0  0  0  0  0  0  0
  -36.9095    6.2135   -0.9552 O   0  0  0  0  0  0  0  0  0  0  0  0
  -38.1517    8.2104   -0.3288 C   0  0  2  0  0  0  0  0  0  0  0  0
  -39.1395    8.6645    0.6455 N   0  0  0  0  0  0  0  0  0  0  0  0
  -39.9322    9.7906    0.5930 C   0  0  0  0  0  0  0  0  0  0  0  0
  -40.6842    9.9475    1.6550 N   0  0  0  0  0  0  0  0  0  0  0  0
  -40.3715    8.8617    2.4617 C   0  0  0  0  0  0  0  0  0  0  0  0
  -40.8378    8.4463    3.7257 C   0  0  0  0  0  0  0  0  0  0  0  0
  -41.7504    9.0999    4.4372 N   0  0  0  0  0  0  0  0  0  0  0  0
  -40.3133    7.3062    4.2420 N   0  0  0  0  0  0  0  0  0  0  0  0
  -39.3947    6.6443    3.5285 C   0  0  0  0  0  0  0  0  0  0  0  0
  -38.8831    6.9377    2.3381 N   0  0  0  0  0  0  0  0  0  0  0  0
  -39.4174    8.0693    1.8502 C   0  0  0  0  0  0  0  0  0  0  0  0
  -41.9757    9.6673   -3.0074 H   0  0  0  0  0  0  0  0  0  0  0  0
  -42.2706   10.3538   -4.6647 H   0  0  0  0  0  0  0  0  0  0  0  0
  -40.7373    8.6378   -2.8086 H   0  0  0  0  0  0  0  0  0  0  0  0
  -40.1468    7.6090   -4.1659 H   0  0  0  0  0  0  0  0  0  0  0  0
  -37.9433    7.6258   -3.2622 H   0  0  0  0  0  0  0  0  0  0  0  0
  -40.1952    6.5680   -1.4115 H   0  0  0  0  0  0  0  0  0  0  0  0
  -38.8824    4.6740   -2.0011 H   0  0  0  0  0  0  0  0  0  0  0  0
  -38.4619    6.1104    0.2939 H   0  0  0  0  0  0  0  0  0  0  0  0
  -36.3848    6.0098   -0.1408 H   0  0  0  0  0  0  0  0  0  0  0  0
  -37.1690    8.4605    0.0975 H   0  0  0  0  0  0  0  0  0  0  0  0
  -39.9336   10.4891   -0.2567 H   0  0  0  0  0  0  0  0  0  0  0  0
  -42.0444    8.7371    5.3553 H   0  0  0  0  0  0  0  0  0  0  0  0
  -42.1636    9.9692    4.0705 H   0  0  0  0  0  0  0  0  0  0  0  0
  -39.0080    5.7259    3.9944 H   0  0  0  0  0  0  0  0  0  0  0  0
  1  2  2  0
  1  3  1  6
  1  4  1  0
  1  8  1  0
  5  6  2  0
  5  7  1  6
  5  8  1  0
  5 12  1  0
  9 10  2  0
  9 11  1  1
  9 12  1  0
  9 13  1  0
 13 14  1  0
 15 14  1  0
 15 16  1  0
 15 17  1  0
 16 21  1  0
 17 18  1  0
 17 19  1  0
 19 20  1  0
 19 21  1  0
 21 22  1  0
 22 23  1  0
 22 31  1  0
 23 24  2  0
 24 25  1  0
 25 26  2  0
 25 31  1  0
 26 27  1  0
 26 28  1  0
 28 29  2  0
 29 30  1  0
 30 31  2  0
 12 32  1  0
 12 33  1  0
 14 34  1  0
 14 35  1  0
 15 36  1  6
 17 37  1  1
 18 38  1  0
 19 39  1  1
 20 40  1  0
 21 41  1  1
 23 42  1  0
 27 43  1  0
 27 44  1  0
 29 45  1  0
M  CHG  4   3  -1   4  -1   7  -1  11  -1
M  END
>  <filename_input>  (11) 
7XBV_APC_docked.sdf

>  <pdb_id>  (11) 
7XBV_APC

>  <pose_rank>  (11) 
10

>  <num_atoms_heavy>  (11) 
31

>  <num_torsions>  (11) 
8

>  <pose>  (11) 
[-38.75980474054157, 7.864551857922696, -2.5649073223599554, 0.09935985367930444, 0.7615213666141203, -2.5692011013990395, -0.7179346246260527, -12.834664828157313, 1.0640350645727783, 2.679000865495099, 14.722071557901016, 2.086367724502364, -2.314876825138083, 0.005722120242934288]

>  <energy>  (11) 
-519.0818292162919

>  <inter_energy>  (11) 
-541.7704586168658

>  <intra_energy>  (11) 
30.68617815325119

>  <rmsd>  (11) 
4.81072

>  <sdf_rank>  (11) 
0

$$$$

     RDKit          3D

 45 47  0  0  0  0  0  0  0  0999 V2000
  -41.2115   11.9342   -8.3649 P   0  0  2  0  0  0  0  0  0  0  0  0
  -42.3882   11.7044   -9.2668 O   0  0  0  0  0  0  0  0  0  0  0  0
  -41.2927   13.2834   -7.6804 O   0  0  0  0  0  0  0  0  0  0  0  0
  -39.8894   11.7322   -9.0648 O   0  0  0  0  0  0  0  0  0  0  0  0
  -40.9660   10.8576   -5.6634 P   0  0  1  0  0  0  0  0  0  0  0  0
  -41.9613   11.8278   -5.0911 O   0  0  0  0  0  0  0  0  0  0  0  0
  -40.8889    9.4971   -5.0270 O   0  0  0  0  0  0  0  0  0  0  0  0
  -41.2333   10.7684   -7.2435 O   0  0  0  0  0  0  0  0  0  0  0  0
  -38.4559   11.1370   -4.0283 P   0  0  1  0  0  0  0  0  0  0  0  0
  -38.0545    9.6911   -4.1108 O   0  0  0  0  0  0  0  0  0  0  0  0
  -37.3723   12.1409   -3.7685 O   0  0  0  0  0  0  0  0  0  0  0  0
  -39.3064   11.5687   -5.5714 C   0  0  0  0  0  0  0  0  0  0  0  0
  -39.5816   11.3092   -2.9255 O   0  0  0  0  0  0  0  0  0  0  0  0
  -39.5304   12.4257   -2.0302 C   0  0  0  0  0  0  0  0  0  0  0  0
  -40.5077   12.2358   -0.9013 C   0  0  1  0  0  0  0  0  0  0  0  0
  -41.0015   10.8709   -0.8852 O   0  0  0  0  0  0  0  0  0  0  0  0
  -39.8842   12.4413    0.4823 C   0  0  1  0  0  0  0  0  0  0  0  0
  -39.8737   13.8295    0.7814 O   0  0  0  0  0  0  0  0  0  0  0  0
  -40.8198   11.6138    1.3598 C   0  0  1  0  0  0  0  0  0  0  0  0
  -41.9979   12.3312    1.6503 O   0  0  0  0  0  0  0  0  0  0  0  0
  -41.0914   10.4156    0.4537 C   0  0  2  0  0  0  0  0  0  0  0  0
  -40.1630    9.3048    0.6419 N   0  0  0  0  0  0  0  0  0  0  0  0
  -39.4591    8.9664    1.7772 C   0  0  0  0  0  0  0  0  0  0  0  0
  -38.6629    7.9389    1.6088 N   0  0  0  0  0  0  0  0  0  0  0  0
  -38.8478    7.5739    0.2821 C   0  0  0  0  0  0  0  0  0  0  0  0
  -38.2959    6.5474   -0.5110 C   0  0  0  0  0  0  0  0  0  0  0  0
  -37.4034    5.6644   -0.0752 N   0  0  0  0  0  0  0  0  0  0  0  0
  -38.7061    6.4654   -1.8019 N   0  0  0  0  0  0  0  0  0  0  0  0
  -39.6055    7.3519   -2.2449 C   0  0  0  0  0  0  0  0  0  0  0  0
  -40.1894    8.3531   -1.5955 N   0  0  0  0  0  0  0  0  0  0  0  0
  -39.7660    8.4129   -0.3222 C   0  0  0  0  0  0  0  0  0  0  0  0
  -38.7136   11.1937   -6.4187 H   0  0  0  0  0  0  0  0  0  0  0  0
  -39.4075   12.6636   -5.6046 H   0  0  0  0  0  0  0  0  0  0  0  0
  -38.5141   12.5148   -1.6190 H   0  0  0  0  0  0  0  0  0  0  0  0
  -39.7952   13.3395   -2.5825 H   0  0  0  0  0  0  0  0  0  0  0  0
  -41.2947   12.9829   -1.0820 H   0  0  0  0  0  0  0  0  0  0  0  0
  -38.8364   12.1296    0.6044 H   0  0  0  0  0  0  0  0  0  0  0  0
  -39.8727   13.9555    1.7633 H   0  0  0  0  0  0  0  0  0  0  0  0
  -40.4101   11.3417    2.3437 H   0  0  0  0  0  0  0  0  0  0  0  0
  -42.1094   12.3990    2.6317 H   0  0  0  0  0  0  0  0  0  0  0  0
  -42.0877   10.0235    0.7062 H   0  0  0  0  0  0  0  0  0  0  0  0
  -39.5559    9.5055    2.7311 H   0  0  0  0  0  0  0  0  0  0  0  0
  -37.0424    4.9397   -0.7120 H   0  0  0  0  0  0  0  0  0  0  0  0
  -37.0726    5.7047    0.8995 H   0  0  0  0  0  0  0  0  0  0  0  0
  -39.9038    7.2350   -3.2971 H   0  0  0  0  0  0  0  0  0  0  0  0
  1  2  2  0
  1  3  1  1
  1  4  1  0
  1  8  1  0
  5  6  2  0
  5  7  1  1
  5  8  1  0
  5 12  1  0
  9 10  2  0
  9 11  1  1
  9 12  1  0
  9 13  1  0
 13 14  1  0
 15 14  1  0
 15 16  1  0
 15 17  1  0
 16 21  1  0
 17 18  1  0
 17 19  1  0
 19 20  1  0
 19 21  1  0
 21 22  1  0
 22 23  1  0
 22 31  1  0
 23 24  2  0
 24 25  1  0
 25 26  2  0
 25 31  1  0
 26 27  1  0
 26 28  1  0
 28 29  2  0
 29 30  1  0
 30 31  2  0
 12 32  1  0
 12 33  1  0
 14 34  1  0
 14 35  1  0
 15 36  1  6
 17 37  1  6
 18 38  1  0
 19 39  1  1
 20 40  1  0
 21 41  1  1
 23 42  1  0
 27 43  1  0
 27 44  1  0
 29 45  1  0
M  CHG  4   3  -1   4  -1   7  -1  11  -1
M  END
>  <filename_input>  (12) 
7XBV_APC_docked.sdf

>  <pdb_id>  (12) 
7XBV_APC

>  <pose_rank>  (12) 
11

>  <num_atoms_heavy>  (12) 
31

>  <num_torsions>  (12) 
8

>  <pose>  (12) 
[-40.50774524282283, 12.235841057221542, -0.9012660909307472, -3.6052832421705485, -0.20622079638844074, -4.600013684769735, 2.171913686526947, -1.1344323658178286, -6.165129017092725, -4.747500095201061, -1.5156454138771533, -5.546181600576001, 0.37905678768047074, -0.8051972521391372]

>  <energy>  (12) 
-618.8907071624452

>  <inter_energy>  (12) 
-649.5114194687777

>  <intra_energy>  (12) 
34.89341581735734

>  <rmsd>  (12) 
2.81485

>  <sdf_rank>  (12) 
0

$$$$

     RDKit          3D

 45 47  0  0  0  0  0  0  0  0999 V2000
  -37.7262    5.9582   -0.9702 P   0  0  2  0  0  0  0  0  0  0  0  0
  -38.2532    4.5986   -1.3233 O   0  0  0  0  0  0  0  0  0  0  0  0
  -36.2521    6.0834   -1.2968 O   0  0  0  0  0  0  0  0  0  0  0  0
  -38.0260    6.3496    0.4565 O   0  0  0  0  0  0  0  0  0  0  0  0
  -39.4008    6.8307   -3.1955 P   0  0  1  0  0  0  0  0  0  0  0  0
  -38.4333    6.4421   -4.2783 O   0  0  0  0  0  0  0  0  0  0  0  0
  -40.5919    5.9368   -2.9854 O   0  0  0  0  0  0  0  0  0  0  0  0
  -38.5568    7.0355   -1.8456 O   0  0  0  0  0  0  0  0  0  0  0  0
  -38.7542    9.6314   -4.0842 P   0  0  1  0  0  0  0  0  0  0  0  0
  -37.4676    9.2377   -3.4147 O   0  0  0  0  0  0  0  0  0  0  0  0
  -38.7635    9.6885   -5.5829 O   0  0  0  0  0  0  0  0  0  0  0  0
  -40.0462    8.4866   -3.5266 C   0  0  0  0  0  0  0  0  0  0  0  0
  -39.2340   11.0330   -3.5203 O   0  0  0  0  0  0  0  0  0  0  0  0
  -39.0327   12.2165   -4.3011 C   0  0  0  0  0  0  0  0  0  0  0  0
  -39.1816   13.4423   -3.4404 C   0  0  1  0  0  0  0  0  0  0  0  0
  -40.1583   13.2079   -2.3925 O   0  0  0  0  0  0  0  0  0  0  0  0
  -37.8971   13.8225   -2.6982 C   0  0  1  0  0  0  0  0  0  0  0  0
  -37.0714   14.5845   -3.5666 O   0  0  0  0  0  0  0  0  0  0  0  0
  -38.4553   14.6036   -1.5115 C   0  0  1  0  0  0  0  0  0  0  0  0
  -38.7733   15.9245   -1.8871 O   0  0  0  0  0  0  0  0  0  0  0  0
  -39.7037   13.7888   -1.1827 C   0  0  2  0  0  0  0  0  0  0  0  0
  -39.4825   12.7314   -0.2008 N   0  0  0  0  0  0  0  0  0  0  0  0
  -38.3917   11.8982   -0.0777 C   0  0  0  0  0  0  0  0  0  0  0  0
  -38.5193   11.0119    0.8795 N   0  0  0  0  0  0  0  0  0  0  0  0
  -39.7700   11.2708    1.4238 C   0  0  0  0  0  0  0  0  0  0  0  0
  -40.4909   10.6809    2.4821 C   0  0  0  0  0  0  0  0  0  0  0  0
  -40.0475    9.6624    3.2117 N   0  0  0  0  0  0  0  0  0  0  0  0
  -41.7163   11.1908    2.7646 N   0  0  0  0  0  0  0  0  0  0  0  0
  -42.1663   12.2171    2.0331 C   0  0  0  0  0  0  0  0  0  0  0  0
  -41.5815   12.8484    1.0209 N   0  0  0  0  0  0  0  0  0  0  0  0
  -40.3723   12.3246    0.7612 C   0  0  0  0  0  0  0  0  0  0  0  0
  -40.8172    8.4159   -4.3079 H   0  0  0  0  0  0  0  0  0  0  0  0
  -40.4610    8.8799   -2.5867 H   0  0  0  0  0  0  0  0  0  0  0  0
  -38.0216   12.1979   -4.7341 H   0  0  0  0  0  0  0  0  0  0  0  0
  -39.7855   12.2487   -5.1025 H   0  0  0  0  0  0  0  0  0  0  0  0
  -39.4725   14.2418   -4.1377 H   0  0  0  0  0  0  0  0  0  0  0  0
  -37.2523   12.9945   -2.3683 H   0  0  0  0  0  0  0  0  0  0  0  0
  -36.4601   15.1487   -3.0299 H   0  0  0  0  0  0  0  0  0  0  0  0
  -37.7625   14.7145   -0.6644 H   0  0  0  0  0  0  0  0  0  0  0  0
  -38.9059   16.4755   -1.0754 H   0  0  0  0  0  0  0  0  0  0  0  0
  -40.4400   14.4707   -0.7324 H   0  0  0  0  0  0  0  0  0  0  0  0
  -37.5013   11.9700   -0.7196 H   0  0  0  0  0  0  0  0  0  0  0  0
  -40.6295    9.2812    3.9712 H   0  0  0  0  0  0  0  0  0  0  0  0
  -39.1219    9.2543    3.0176 H   0  0  0  0  0  0  0  0  0  0  0  0
  -43.1631   12.5915    2.3093 H   0  0  0  0  0  0  0  0  0  0  0  0
  1  2  2  0
  1  3  1  6
  1  4  1  0
  1  8  1  0
  5  6  2  0
  5  7  1  1
  5  8  1  0
  5 12  1  0
  9 10  2  0
  9 11  1  6
  9 12  1  0
  9 13  1  0
 13 14  1  0
 15 14  1  0
 15 16  1  0
 15 17  1  0
 16 21  1  0
 17 18  1  0
 17 19  1  0
 19 20  1  0
 19 21  1  0
 21 22  1  0
 22 23  1  0
 22 31  1  0
 23 24  2  0
 24 25  1  0
 25 26  2  0
 25 31  1  0
 26 27  1  0
 26 28  1  0
 28 29  2  0
 29 30  1  0
 30 31  2  0
 12 32  1  0
 12 33  1  0
 14 34  1  0
 14 35  1  0
 15 36  1  6
 17 37  1  1
 18 38  1  0
 19 39  1  1
 20 40  1  0
 21 41  1  1
 23 42  1  0
 27 43  1  0
 27 44  1  0
 29 45  1  0
M  CHG  4   3  -1   4  -1   7  -1  11  -1
M  END
>  <filename_input>  (13) 
7XBV_APC_docked.sdf

>  <pdb_id>  (13) 
7XBV_APC

>  <pose_rank>  (13) 
12

>  <num_atoms_heavy>  (13) 
31

>  <num_torsions>  (13) 
8

>  <pose>  (13) 
[-39.18156236611261, 13.442347860629189, -3.440386044748775, 3.472411979614724, -2.6250726631795565, 3.366481320280476, 1.0159353414579313, -1.9135312757373506, 0.19639457860519755, 0.9102682832944209, 2.924585915402579, -7.871526387201218, -1.780613937958779, 1.23845938526986]

>  <energy>  (13) 
-645.5447347810481

>  <inter_energy>  (13) 
-652.706235728407

>  <intra_energy>  (13) 
19.601735539883823

>  <rmsd>  (13) 
5.60572

>  <sdf_rank>  (13) 
0

$$$$

     RDKit          3D

 45 47  0  0  0  0  0  0  0  0999 V2000
  -39.5967   11.3399  -10.0549 P   0  0  2  0  0  0  0  0  0  0  0  0
  -40.3736   12.6216  -10.1233 O   0  0  0  0  0  0  0  0  0  0  0  0
  -38.1518   11.5450  -10.4619 O   0  0  0  0  0  0  0  0  0  0  0  0
  -40.2492   10.2183  -10.8259 O   0  0  0  0  0  0  0  0  0  0  0  0
  -40.8479   10.8957   -7.4559 P   0  0  1  0  0  0  0  0  0  0  0  0
  -40.8968   12.2977   -6.9161 O   0  0  0  0  0  0  0  0  0  0  0  0
  -42.1254   10.3284   -8.0109 O   0  0  0  0  0  0  0  0  0  0  0  0
  -39.6483   10.8305   -8.5203 O   0  0  0  0  0  0  0  0  0  0  0  0
  -39.2840   10.5965   -4.9032 P   0  0  1  0  0  0  0  0  0  0  0  0
  -38.3019   11.4818   -5.6174 O   0  0  0  0  0  0  0  0  0  0  0  0
  -40.1841   11.2397   -3.8904 O   0  0  0  0  0  0  0  0  0  0  0  0
  -40.2996    9.7656   -6.1558 C   0  0  0  0  0  0  0  0  0  0  0  0
  -38.5075    9.4032   -4.2061 O   0  0  0  0  0  0  0  0  0  0  0  0
  -39.2460    8.3549   -3.5685 C   0  0  0  0  0  0  0  0  0  0  0  0
  -38.4106    7.7019   -2.5002 C   0  0  1  0  0  0  0  0  0  0  0  0
  -38.0987    8.6547   -1.4504 O   0  0  0  0  0  0  0  0  0  0  0  0
  -39.1291    6.5544   -1.7844 C   0  0  1  0  0  0  0  0  0  0  0  0
  -38.9903    5.3709   -2.5567 O   0  0  0  0  0  0  0  0  0  0  0  0
  -38.3927    6.5257   -0.4477 C   0  0  1  0  0  0  0  0  0  0  0  0
  -37.1650    5.8435   -0.5674 O   0  0  0  0  0  0  0  0  0  0  0  0
  -38.1929    8.0168   -0.1886 C   0  0  2  0  0  0  0  0  0  0  0  0
  -39.2689    8.6368    0.5788 N   0  0  0  0  0  0  0  0  0  0  0  0
  -40.0649    9.7033    0.2210 C   0  0  0  0  0  0  0  0  0  0  0  0
  -40.9110   10.0582    1.1570 N   0  0  0  0  0  0  0  0  0  0  0  0
  -40.6613    9.1757    2.1994 C   0  0  0  0  0  0  0  0  0  0  0  0
  -41.2352    9.0220    3.4778 C   0  0  0  0  0  0  0  0  0  0  0  0
  -42.2146    9.7839    3.9537 N   0  0  0  0  0  0  0  0  0  0  0  0
  -40.7478    8.0316    4.2671 N   0  0  0  0  0  0  0  0  0  0  0  0
  -39.7622    7.2612    3.7917 C   0  0  0  0  0  0  0  0  0  0  0  0
  -39.1485    7.3125    2.6145 N   0  0  0  0  0  0  0  0  0  0  0  0
  -39.6481    8.3003    1.8539 C   0  0  0  0  0  0  0  0  0  0  0  0
  -41.1849    9.3354   -5.6647 H   0  0  0  0  0  0  0  0  0  0  0  0
  -39.6821    8.9862   -6.6262 H   0  0  0  0  0  0  0  0  0  0  0  0
  -40.1538    8.7763   -3.1121 H   0  0  0  0  0  0  0  0  0  0  0  0
  -39.5179    7.6001   -4.3210 H   0  0  0  0  0  0  0  0  0  0  0  0
  -37.5213    7.3274   -3.0284 H   0  0  0  0  0  0  0  0  0  0  0  0
  -40.2149    6.6610   -1.6443 H   0  0  0  0  0  0  0  0  0  0  0  0
  -38.8990    4.5917   -1.9529 H   0  0  0  0  0  0  0  0  0  0  0  0
  -38.9238    6.0025    0.3612 H   0  0  0  0  0  0  0  0  0  0  0  0
  -36.8083    5.6453    0.3346 H   0  0  0  0  0  0  0  0  0  0  0  0
  -37.2828    8.1325    0.4182 H   0  0  0  0  0  0  0  0  0  0  0  0
  -39.9969   10.2073   -0.7543 H   0  0  0  0  0  0  0  0  0  0  0  0
  -42.5864    9.6139    4.8991 H   0  0  0  0  0  0  0  0  0  0  0  0
  -42.6019   10.5445    3.3770 H   0  0  0  0  0  0  0  0  0  0  0  0
  -39.4098    6.4728    4.4730 H   0  0  0  0  0  0  0  0  0  0  0  0
  1  2  2  0
  1  3  1  6
  1  4  1  0
  1  8  1  0
  5  6  2  0
  5  7  1  6
  5  8  1  0
  5 12  1  0
  9 10  2  0
  9 11  1  1
  9 12  1  0
  9 13  1  0
 13 14  1  0
 15 14  1  0
 15 16  1  0
 15 17  1  0
 16 21  1  0
 17 18  1  0
 17 19  1  0
 19 20  1  0
 19 21  1  0
 21 22  1  0
 22 23  1  0
 22 31  1  0
 23 24  2  0
 24 25  1  0
 25 26  2  0
 25 31  1  0
 26 27  1  0
 26 28  1  0
 28 29  2  0
 29 30  1  0
 30 31  2  0
 12 32  1  0
 12 33  1  0
 14 34  1  0
 14 35  1  0
 15 36  1  6
 17 37  1  1
 18 38  1  0
 19 39  1  1
 20 40  1  0
 21 41  1  1
 23 42  1  0
 27 43  1  0
 27 44  1  0
 29 45  1  0
M  CHG  4   3  -1   4  -1   7  -1  11  -1
M  END
>  <filename_input>  (14) 
7XBV_APC_docked.sdf

>  <pdb_id>  (14) 
7XBV_APC

>  <pose_rank>  (14) 
13

>  <num_atoms_heavy>  (14) 
31

>  <num_torsions>  (14) 
8

>  <pose>  (14) 
[-38.41056471051499, 7.701916909015018, -2.5001550907915178, -0.5156263831049321, -0.8704224540579588, 3.362661632301514, -44.41977242176205, 18.612230805126778, 12.911573752372652, 8.65231364932852, -9.853322571742744, -1.3005051658992504, -2.011926343499639, -4.029641002756218]

>  <energy>  (14) 
-544.5430231814837

>  <inter_energy>  (14) 
-553.6195577555352

>  <intra_energy>  (14) 
12.061675732531853

>  <rmsd>  (14) 
3.68315

>  <sdf_rank>  (14) 
0

$$$$

     RDKit          3D

 45 47  0  0  0  0  0  0  0  0999 V2000
  -41.9170   16.3459   -2.3117 P   0  0  2  0  0  0  0  0  0  0  0  0
  -42.5345   15.6994   -3.5165 O   0  0  0  0  0  0  0  0  0  0  0  0
  -42.8554   16.3132   -1.1227 O   0  0  0  0  0  0  0  0  0  0  0  0
  -41.4056   17.7381   -2.5922 O   0  0  0  0  0  0  0  0  0  0  0  0
  -39.3806   15.0315   -2.9089 P   0  0  1  0  0  0  0  0  0  0  0  0
  -39.9904   14.2585   -4.0447 O   0  0  0  0  0  0  0  0  0  0  0  0
  -38.4569   16.1634   -3.2662 O   0  0  0  0  0  0  0  0  0  0  0  0
  -40.5783   15.5110   -1.9540 O   0  0  0  0  0  0  0  0  0  0  0  0
  -39.1376   12.2342   -1.8282 P   0  0  1  0  0  0  0  0  0  0  0  0
  -40.5761   12.3379   -1.4057 O   0  0  0  0  0  0  0  0  0  0  0  0
  -38.8495   11.5671   -3.1403 O   0  0  0  0  0  0  0  0  0  0  0  0
  -38.4402   13.9088   -1.8490 C   0  0  0  0  0  0  0  0  0  0  0  0
  -38.3068   11.5022   -0.6939 O   0  0  0  0  0  0  0  0  0  0  0  0
  -38.9958   10.8454    0.3761 C   0  0  0  0  0  0  0  0  0  0  0  0
  -40.4330   11.2902    0.4233 C   0  0  1  0  0  0  0  0  0  0  0  0
  -41.3075   10.1509    0.6335 O   0  0  0  0  0  0  0  0  0  0  0  0
  -40.7377   12.2359    1.5888 C   0  0  1  0  0  0  0  0  0  0  0  0
  -40.3849   13.5590    1.2129 O   0  0  0  0  0  0  0  0  0  0  0  0
  -42.2360   12.0109    1.7748 C   0  0  1  0  0  0  0  0  0  0  0  0
  -42.9740   12.7470    0.8259 O   0  0  0  0  0  0  0  0  0  0  0  0
  -42.3406   10.5069    1.5356 C   0  0  2  0  0  0  0  0  0  0  0  0
  -42.2134    9.7015    2.7466 N   0  0  0  0  0  0  0  0  0  0  0  0
  -43.0973    9.6007    3.7990 C   0  0  0  0  0  0  0  0  0  0  0  0
  -42.6672    8.8296    4.7677 N   0  0  0  0  0  0  0  0  0  0  0  0
  -41.4228    8.3931    4.3335 C   0  0  0  0  0  0  0  0  0  0  0  0
  -40.4580    7.5389    4.9055 C   0  0  0  0  0  0  0  0  0  0  0  0
  -40.5904    6.9490    6.0890 N   0  0  0  0  0  0  0  0  0  0  0  0
  -39.3236    7.3130    4.1961 N   0  0  0  0  0  0  0  0  0  0  0  0
  -39.1865    7.9043    3.0034 C   0  0  0  0  0  0  0  0  0  0  0  0
  -40.0203    8.7215    2.3693 N   0  0  0  0  0  0  0  0  0  0  0  0
  -41.1331    8.9293    3.0922 C   0  0  0  0  0  0  0  0  0  0  0  0
  -37.4057   13.8564   -2.2192 H   0  0  0  0  0  0  0  0  0  0  0  0
  -38.4807   14.3025   -0.8227 H   0  0  0  0  0  0  0  0  0  0  0  0
  -38.9578    9.7575    0.2184 H   0  0  0  0  0  0  0  0  0  0  0  0
  -38.5094   11.1057    1.3277 H   0  0  0  0  0  0  0  0  0  0  0  0
  -40.6016   11.7989   -0.5373 H   0  0  0  0  0  0  0  0  0  0  0  0
  -40.1850   12.0631    2.5240 H   0  0  0  0  0  0  0  0  0  0  0  0
  -40.2392   14.1052    2.0257 H   0  0  0  0  0  0  0  0  0  0  0  0
  -42.6342   12.3338    2.7481 H   0  0  0  0  0  0  0  0  0  0  0  0
  -43.5916   13.3631    1.2939 H   0  0  0  0  0  0  0  0  0  0  0  0
  -43.3454   10.2998    1.1386 H   0  0  0  0  0  0  0  0  0  0  0  0
  -44.0684   10.1168    3.8237 H   0  0  0  0  0  0  0  0  0  0  0  0
  -39.8432    6.3360    6.4453 H   0  0  0  0  0  0  0  0  0  0  0  0
  -41.4401    7.1046    6.6499 H   0  0  0  0  0  0  0  0  0  0  0  0
  -38.2494    7.6819    2.4720 H   0  0  0  0  0  0  0  0  0  0  0  0
  1  2  2  0
  1  3  1  1
  1  4  1  0
  1  8  1  0
  5  6  2  0
  5  7  1  6
  5  8  1  0
  5 12  1  0
  9 10  2  0
  9 11  1  6
  9 12  1  0
  9 13  1  0
 13 14  1  0
 15 14  1  0
 15 16  1  0
 15 17  1  0
 16 21  1  0
 17 18  1  0
 17 19  1  0
 19 20  1  0
 19 21  1  0
 21 22  1  0
 22 23  1  0
 22 31  1  0
 23 24  2  0
 24 25  1  0
 25 26  2  0
 25 31  1  0
 26 27  1  0
 26 28  1  0
 28 29  2  0
 29 30  1  0
 30 31  2  0
 12 32  1  0
 12 33  1  0
 14 34  1  0
 14 35  1  0
 15 36  1  6
 17 37  1  1
 18 38  1  0
 19 39  1  1
 20 40  1  0
 21 41  1  6
 23 42  1  0
 27 43  1  0
 27 44  1  0
 29 45  1  0
M  CHG  4   3  -1   4  -1   7  -1  11  -1
M  END
>  <filename_input>  (15) 
7XBV_APC_docked.sdf

>  <pdb_id>  (15) 
7XBV_APC

>  <pose_rank>  (15) 
14

>  <num_atoms_heavy>  (15) 
31

>  <num_torsions>  (15) 
8

>  <pose>  (15) 
[-40.43304606484359, 11.290238769706804, 0.4233393406352799, 2.879617251268903, 4.450836909981295, -1.3649748871227507, 2.905250974987241, 1.0329813072928142, -41.19967349273948, -57.22179943209802, -47.75393250560036, -32.80109082580703, 10.982786480782936, -3.8452156060848726]

>  <energy>  (15) 
-428.2971880021754

>  <inter_energy>  (15) 
-563.8453677743478

>  <intra_energy>  (15) 
145.50900803695137

>  <rmsd>  (15) 
4.06959

>  <sdf_rank>  (15) 
0

$$$$

     RDKit          3D

 45 47  0  0  0  0  0  0  0  0999 V2000
  -42.5694    8.6909  -11.0614 P   0  0  2  0  0  0  0  0  0  0  0  0
  -42.5109    8.8381   -9.5695 O   0  0  0  0  0  0  0  0  0  0  0  0
  -42.7979    7.2494  -11.4678 O   0  0  0  0  0  0  0  0  0  0  0  0
  -41.3722    9.2929  -11.7562 O   0  0  0  0  0  0  0  0  0  0  0  0
  -44.1805   11.1171  -11.2500 P   0  0  1  0  0  0  0  0  0  0  0  0
  -42.9336   11.9366  -11.4319 O   0  0  0  0  0  0  0  0  0  0  0  0
  -45.4128   11.5693  -11.9841 O   0  0  0  0  0  0  0  0  0  0  0  0
  -43.8078    9.5917  -11.5828 O   0  0  0  0  0  0  0  0  0  0  0  0
  -44.2068   12.5981   -8.6313 P   0  0  1  0  0  0  0  0  0  0  0  0
  -42.7164   12.7814   -8.6906 O   0  0  0  0  0  0  0  0  0  0  0  0
  -45.0610   13.7048   -9.1744 O   0  0  0  0  0  0  0  0  0  0  0  0
  -44.6139   11.0562   -9.4959 C   0  0  0  0  0  0  0  0  0  0  0  0
  -44.6428   12.3087   -7.1350 O   0  0  0  0  0  0  0  0  0  0  0  0
  -44.9996   10.9772   -6.7466 C   0  0  0  0  0  0  0  0  0  0  0  0
  -45.2266   10.9093   -5.2602 C   0  0  1  0  0  0  0  0  0  0  0  0
  -44.0246   10.4531   -4.5862 O   0  0  0  0  0  0  0  0  0  0  0  0
  -45.5340   12.2709   -4.6303 C   0  0  1  0  0  0  0  0  0  0  0  0
  -46.9178   12.5488   -4.7861 O   0  0  0  0  0  0  0  0  0  0  0  0
  -45.0952   12.0404   -3.1865 C   0  0  1  0  0  0  0  0  0  0  0  0
  -46.0889   11.3470   -2.4664 O   0  0  0  0  0  0  0  0  0  0  0  0
  -43.8429   11.1916   -3.3906 C   0  0  2  0  0  0  0  0  0  0  0  0
  -42.6094   11.9659   -3.4924 N   0  0  0  0  0  0  0  0  0  0  0  0
  -41.7058   11.9952   -4.5325 C   0  0  0  0  0  0  0  0  0  0  0  0
  -40.6651   12.7562   -4.2963 N   0  0  0  0  0  0  0  0  0  0  0  0
  -40.8901   13.2616   -3.0228 C   0  0  0  0  0  0  0  0  0  0  0  0
  -40.1558   14.1415   -2.2019 C   0  0  0  0  0  0  0  0  0  0  0  0
  -38.9947   14.6897   -2.5449 N   0  0  0  0  0  0  0  0  0  0  0  0
  -40.6744   14.4397   -0.9838 N   0  0  0  0  0  0  0  0  0  0  0  0
  -41.8438   13.8906   -0.6346 C   0  0  0  0  0  0  0  0  0  0  0  0
  -42.6180   13.0554   -1.3187 N   0  0  0  0  0  0  0  0  0  0  0  0
  -42.0825   12.7760   -2.5183 C   0  0  0  0  0  0  0  0  0  0  0  0
  -45.6950   10.8747   -9.4049 H   0  0  0  0  0  0  0  0  0  0  0  0
  -44.0299   10.2470   -9.0332 H   0  0  0  0  0  0  0  0  0  0  0  0
  -45.9219   10.6820   -7.2683 H   0  0  0  0  0  0  0  0  0  0  0  0
  -44.1798   10.2946   -7.0148 H   0  0  0  0  0  0  0  0  0  0  0  0
  -46.0815   10.2281   -5.1372 H   0  0  0  0  0  0  0  0  0  0  0  0
  -45.0308   13.1447   -5.0699 H   0  0  0  0  0  0  0  0  0  0  0  0
  -47.3398   12.6335   -3.8945 H   0  0  0  0  0  0  0  0  0  0  0  0
  -44.9193   12.9575   -2.6052 H   0  0  0  0  0  0  0  0  0  0  0  0
  -45.9304   11.4575   -1.4954 H   0  0  0  0  0  0  0  0  0  0  0  0
  -43.7250   10.5498   -2.5051 H   0  0  0  0  0  0  0  0  0  0  0  0
  -41.8443   11.4350   -5.4689 H   0  0  0  0  0  0  0  0  0  0  0  0
  -38.5128   15.3252   -1.8932 H   0  0  0  0  0  0  0  0  0  0  0  0
  -38.5769   14.4790   -3.4624 H   0  0  0  0  0  0  0  0  0  0  0  0
  -42.2174   14.1710    0.3613 H   0  0  0  0  0  0  0  0  0  0  0  0
  1  2  2  0
  1  3  1  1
  1  4  1  0
  1  8  1  0
  5  6  2  0
  5  7  1  6
  5  8  1  0
  5 12  1  0
  9 10  2  0
  9 11  1  6
  9 12  1  0
  9 13  1  0
 13 14  1  0
 15 14  1  0
 15 16  1  0
 15 17  1  0
 16 21  1  0
 17 18  1  0
 17 19  1  0
 19 20  1  0
 19 21  1  0
 21 22  1  0
 22 23  1  0
 22 31  1  0
 23 24  2  0
 24 25  1  0
 25 26  2  0
 25 31  1  0
 26 27  1  0
 26 28  1  0
 28 29  2  0
 29 30  1  0
 30 31  2  0
 12 32  1  0
 12 33  1  0
 14 34  1  0
 14 35  1  0
 15 36  1  6
 17 37  1  6
 18 38  1  0
 19 39  1  1
 20 40  1  0
 21 41  1  1
 23 42  1  0
 27 43  1  0
 27 44  1  0
 29 45  1  0
M  CHG  4   3  -1   4  -1   7  -1  11  -1
M  END
>  <filename_input>  (16) 
7XBV_APC_docked.sdf

>  <pdb_id>  (16) 
7XBV_APC

>  <pose_rank>  (16) 
15

>  <num_atoms_heavy>  (16) 
31

>  <num_torsions>  (16) 
8

>  <pose>  (16) 
[-45.226589593879424, 10.909272741639004, -5.260161797321972, 5.79143642134923, -8.487846990374448, -20.983237972962097, -19.271753006561138, 3.260360849349244, -19.05119759952016, -2.701317822055872, -3.8977902550032697, 6.035118440664616, 12.775061300287721, 2.4543394062548636]

>  <energy>  (16) 
-215.1106195768902

>  <inter_energy>  (16) 
-241.7686138663089

>  <intra_energy>  (16) 
26.16980659561429

>  <rmsd>  (16) 
7.58399

>  <sdf_rank>  (16) 
0

$$$$

     RDKit          3D

 45 47  0  0  0  0  0  0  0  0999 V2000
  -40.6206    8.2528    4.0146 P   0  0  2  0  0  0  0  0  0  0  0  0
  -42.0703    8.4658    4.3370 O   0  0  0  0  0  0  0  0  0  0  0  0
  -40.4322    7.1124    3.0350 O   0  0  0  0  0  0  0  0  0  0  0  0
  -39.7650    8.0887    5.2472 O   0  0  0  0  0  0  0  0  0  0  0  0
  -40.5311   10.3619    1.9994 P   0  0  1  0  0  0  0  0  0  0  0  0
  -40.5311    9.3379    0.8989 O   0  0  0  0  0  0  0  0  0  0  0  0
  -41.7907   11.1600    2.1949 O   0  0  0  0  0  0  0  0  0  0  0  0
  -40.0729    9.6210    3.3475 O   0  0  0  0  0  0  0  0  0  0  0  0
  -39.0347   12.0003   -0.0325 P   0  0  1  0  0  0  0  0  0  0  0  0
  -38.9013   13.4948   -0.1167 O   0  0  0  0  0  0  0  0  0  0  0  0
  -37.9454   11.1738   -0.6488 O   0  0  0  0  0  0  0  0  0  0  0  0
  -39.2003   11.5528    1.7176 C   0  0  0  0  0  0  0  0  0  0  0  0
  -40.4222   11.5592   -0.6594 O   0  0  0  0  0  0  0  0  0  0  0  0
  -40.4890   10.3831   -1.4739 C   0  0  0  0  0  0  0  0  0  0  0  0
  -40.2954   10.7394   -2.9235 C   0  0  1  0  0  0  0  0  0  0  0  0
  -40.7130   12.1080   -3.1672 O   0  0  0  0  0  0  0  0  0  0  0  0
  -38.8310   10.6932   -3.3695 C   0  0  1  0  0  0  0  0  0  0  0  0
  -38.4911    9.3540   -3.6972 O   0  0  0  0  0  0  0  0  0  0  0  0
  -38.8488   11.6490   -4.5595 C   0  0  1  0  0  0  0  0  0  0  0  0
  -39.3461   11.0054   -5.7107 O   0  0  0  0  0  0  0  0  0  0  0  0
  -39.8011   12.7304   -4.0554 C   0  0  2  0  0  0  0  0  0  0  0  0
  -39.1382   13.8312   -3.3624 N   0  0  0  0  0  0  0  0  0  0  0  0
  -37.8364   13.8947   -2.9147 C   0  0  0  0  0  0  0  0  0  0  0  0
  -37.5583   15.0070   -2.2796 N   0  0  0  0  0  0  0  0  0  0  0  0
  -38.7465   15.7247   -2.3057 C   0  0  0  0  0  0  0  0  0  0  0  0
  -39.1061   16.9936   -1.8078 C   0  0  0  0  0  0  0  0  0  0  0  0
  -38.2785   17.8011   -1.1526 N   0  0  0  0  0  0  0  0  0  0  0  0
  -40.3821   17.4073   -2.0130 N   0  0  0  0  0  0  0  0  0  0  0  0
  -41.2187   16.5978   -2.6731 C   0  0  0  0  0  0  0  0  0  0  0  0
  -40.9942   15.3918   -3.1832 N   0  0  0  0  0  0  0  0  0  0  0  0
  -39.7261   15.0058   -2.9660 C   0  0  0  0  0  0  0  0  0  0  0  0
  -39.4123   12.4635    2.2970 H   0  0  0  0  0  0  0  0  0  0  0  0
  -38.2571   11.0844    2.0355 H   0  0  0  0  0  0  0  0  0  0  0  0
  -39.7000    9.6820   -1.1641 H   0  0  0  0  0  0  0  0  0  0  0  0
  -41.4776    9.9173   -1.3491 H   0  0  0  0  0  0  0  0  0  0  0  0
  -40.8884    9.9966   -3.4772 H   0  0  0  0  0  0  0  0  0  0  0  0
  -38.0772   10.9900   -2.6253 H   0  0  0  0  0  0  0  0  0  0  0  0
  -38.3592    8.8340   -2.8651 H   0  0  0  0  0  0  0  0  0  0  0  0
  -37.8621   12.0319   -4.8593 H   0  0  0  0  0  0  0  0  0  0  0  0
  -39.9286   10.2515   -5.4416 H   0  0  0  0  0  0  0  0  0  0  0  0
  -40.2944   13.1774   -4.9311 H   0  0  0  0  0  0  0  0  0  0  0  0
  -37.1027   13.0909   -3.0747 H   0  0  0  0  0  0  0  0  0  0  0  0
  -38.6105   18.7164   -0.8167 H   0  0  0  0  0  0  0  0  0  0  0  0
  -37.3051   17.5116   -0.9808 H   0  0  0  0  0  0  0  0  0  0  0  0
  -42.2381   16.9865   -2.8134 H   0  0  0  0  0  0  0  0  0  0  0  0
  1  2  2  0
  1  3  1  6
  1  4  1  0
  1  8  1  0
  5  6  2  0
  5  7  1  1
  5  8  1  0
  5 12  1  0
  9 10  2  0
  9 11  1  6
  9 12  1  0
  9 13  1  0
 13 14  1  0
 15 14  1  0
 15 16  1  0
 15 17  1  0
 16 21  1  0
 17 18  1  0
 17 19  1  0
 19 20  1  0
 19 21  1  0
 21 22  1  0
 22 23  1  0
 22 31  1  0
 23 24  2  0
 24 25  1  0
 25 26  2  0
 25 31  1  0
 26 27  1  0
 26 28  1  0
 28 29  2  0
 29 30  1  0
 30 31  2  0
 12 32  1  0
 12 33  1  0
 14 34  1  0
 14 35  1  0
 15 36  1  6
 17 37  1  1
 18 38  1  0
 19 39  1  6
 20 40  1  0
 21 41  1  6
 23 42  1  0
 27 43  1  0
 27 44  1  0
 29 45  1  0
M  CHG  4   3  -1   4  -1   7  -1  11  -1
M  END
>  <filename_input>  (17) 
7XBV_APC_docked.sdf

>  <pdb_id>  (17) 
7XBV_APC

>  <pose_rank>  (17) 
16

>  <num_atoms_heavy>  (17) 
31

>  <num_torsions>  (17) 
8

>  <pose>  (17) 
[-40.29535530888261, 10.739367215367285, -2.9234923193453866, -2.3844595224754146, 0.23231895669694622, -1.0866631632517771, 1.4816247687263262, 4.4707903911317635, 1.4420350556791661, 1.5617599751487643, -0.4548505311957129, -0.14646044149574974, -1.5198620885217753, 0.5222762956886078]

>  <energy>  (17) 
-439.6389586417735

>  <inter_energy>  (17) 
-555.0227879920069

>  <intra_energy>  (17) 
120.94475495759019

>  <rmsd>  (17) 
8.76094

>  <sdf_rank>  (17) 
0

$$$$

     RDKit          3D

 45 47  0  0  0  0  0  0  0  0999 V2000
  -45.6451   10.7572   -2.7030 P   0  0  2  0  0  0  0  0  0  0  0  0
  -45.0838   11.1095   -4.0490 O   0  0  0  0  0  0  0  0  0  0  0  0
  -45.1159    9.4248   -2.2131 O   0  0  0  0  0  0  0  0  0  0  0  0
  -47.1528   10.8174   -2.6638 O   0  0  0  0  0  0  0  0  0  0  0  0
  -45.9134   12.4622   -0.3496 P   0  0  1  0  0  0  0  0  0  0  0  0
  -44.9331   13.3434    0.3728 O   0  0  0  0  0  0  0  0  0  0  0  0
  -47.2693   13.0417   -0.6458 O   0  0  0  0  0  0  0  0  0  0  0  0
  -45.1884   11.9197   -1.6750 O   0  0  0  0  0  0  0  0  0  0  0  0
  -46.2215   11.2677    2.3945 P   0  0  1  0  0  0  0  0  0  0  0  0
  -46.8859   12.5968    2.6191 O   0  0  0  0  0  0  0  0  0  0  0  0
  -46.8078   10.0759    3.0913 O   0  0  0  0  0  0  0  0  0  0  0  0
  -46.1911   10.9541    0.6080 C   0  0  0  0  0  0  0  0  0  0  0  0
  -44.6869   11.3744    2.7769 O   0  0  0  0  0  0  0  0  0  0  0  0
  -43.7370   10.5124    2.1400 C   0  0  0  0  0  0  0  0  0  0  0  0
  -42.3543   11.1000    2.2313 C   0  0  1  0  0  0  0  0  0  0  0  0
  -41.6304   10.5168    3.3462 O   0  0  0  0  0  0  0  0  0  0  0  0
  -41.4865   10.8031    1.0048 C   0  0  1  0  0  0  0  0  0  0  0  0
  -41.7782   11.7553   -0.0075 O   0  0  0  0  0  0  0  0  0  0  0  0
  -40.0831   10.9186    1.5943 C   0  0  1  0  0  0  0  0  0  0  0  0
  -39.6923   12.2692    1.6948 O   0  0  0  0  0  0  0  0  0  0  0  0
  -40.2859   10.2807    2.9663 C   0  0  2  0  0  0  0  0  0  0  0  0
  -40.0276    8.8442    2.9987 N   0  0  0  0  0  0  0  0  0  0  0  0
  -39.4303    8.0644    2.0321 C   0  0  0  0  0  0  0  0  0  0  0  0
  -39.3919    6.7913    2.3411 N   0  0  0  0  0  0  0  0  0  0  0  0
  -40.0012    6.7208    3.5867 C   0  0  0  0  0  0  0  0  0  0  0  0
  -40.2638    5.6467    4.4612 C   0  0  0  0  0  0  0  0  0  0  0  0
  -39.9421    4.3821    4.2090 N   0  0  0  0  0  0  0  0  0  0  0  0
  -40.8878    5.9317    5.6320 N   0  0  0  0  0  0  0  0  0  0  0  0
  -41.2127    7.2039    5.8905 C   0  0  0  0  0  0  0  0  0  0  0  0
  -41.0178    8.2888    5.1488 N   0  0  0  0  0  0  0  0  0  0  0  0
  -40.4003    7.9797    3.9968 C   0  0  0  0  0  0  0  0  0  0  0  0
  -47.1557   10.5181    0.3091 H   0  0  0  0  0  0  0  0  0  0  0  0
  -45.3577   10.2665    0.4015 H   0  0  0  0  0  0  0  0  0  0  0  0
  -43.7477    9.5310    2.6366 H   0  0  0  0  0  0  0  0  0  0  0  0
  -44.0092   10.4016    1.0800 H   0  0  0  0  0  0  0  0  0  0  0  0
  -42.5154   12.1833    2.3339 H   0  0  0  0  0  0  0  0  0  0  0  0
  -41.6388    9.8304    0.5143 H   0  0  0  0  0  0  0  0  0  0  0  0
  -42.0409   12.6128    0.4119 H   0  0  0  0  0  0  0  0  0  0  0  0
  -39.2908   10.4435    0.9972 H   0  0  0  0  0  0  0  0  0  0  0  0
  -39.6194   12.5214    2.6494 H   0  0  0  0  0  0  0  0  0  0  0  0
  -39.5602   10.7343    3.6573 H   0  0  0  0  0  0  0  0  0  0  0  0
  -39.0255    8.4706    1.0934 H   0  0  0  0  0  0  0  0  0  0  0  0
  -40.1651    3.6472    4.8954 H   0  0  0  0  0  0  0  0  0  0  0  0
  -39.4699    4.1369    3.3270 H   0  0  0  0  0  0  0  0  0  0  0  0
  -41.7126    7.3760    6.8552 H   0  0  0  0  0  0  0  0  0  0  0  0
  1  2  2  0
  1  3  1  1
  1  4  1  0
  1  8  1  0
  5  6  2  0
  5  7  1  6
  5  8  1  0
  5 12  1  0
  9 10  2  0
  9 11  1  1
  9 12  1  0
  9 13  1  0
 13 14  1  0
 15 14  1  0
 15 16  1  0
 15 17  1  0
 16 21  1  0
 17 18  1  0
 17 19  1  0
 19 20  1  0
 19 21  1  0
 21 22  1  0
 22 23  1  0
 22 31  1  0
 23 24  2  0
 24 25  1  0
 25 26  2  0
 25 31  1  0
 26 27  1  0
 26 28  1  0
 28 29  2  0
 29 30  1  0
 30 31  2  0
 12 32  1  0
 12 33  1  0
 14 34  1  0
 14 35  1  0
 15 36  1  1
 17 37  1  6
 18 38  1  0
 19 39  1  6
 20 40  1  0
 21 41  1  1
 23 42  1  0
 27 43  1  0
 27 44  1  0
 29 45  1  0
M  CHG  4   3  -1   4  -1   7  -1  11  -1
M  END
>  <filename_input>  (18) 
7XBV_APC_docked.sdf

>  <pdb_id>  (18) 
7XBV_APC

>  <pose_rank>  (18) 
17

>  <num_atoms_heavy>  (18) 
31

>  <num_torsions>  (18) 
8

>  <pose>  (18) 
[-42.3542531285622, 11.100024810262001, 2.2312578122396536, -0.3409195827219432, 1.9801157933750642, -0.5213067848834326, -4.382792010894588, 0.3479662065636504, -0.46577159179265715, 2.7449163087962516, -2.157989146824265, -0.19301312480308935, 2.3047865106375816, -2.054342409932924]

>  <energy>  (18) 
-603.7100505649313

>  <inter_energy>  (18) 
-615.1806790431085

>  <intra_energy>  (18) 
25.11784297593471

>  <rmsd>  (18) 
5.77921

>  <sdf_rank>  (18) 
0

$$$$

     RDKit          3D

 45 47  0  0  0  0  0  0  0  0999 V2000
  -40.9285    7.8016    4.3908 P   0  0  2  0  0  0  0  0  0  0  0  0
  -42.1589    7.6804    5.2409 O   0  0  0  0  0  0  0  0  0  0  0  0
  -40.9479    6.8127    3.2432 O   0  0  0  0  0  0  0  0  0  0  0  0
  -39.6525    7.7150    5.1925 O   0  0  0  0  0  0  0  0  0  0  0  0
  -41.9581   10.0477    2.8376 P   0  0  1  0  0  0  0  0  0  0  0  0
  -43.2034    9.2067    2.7981 O   0  0  0  0  0  0  0  0  0  0  0  0
  -42.1207   11.4991    3.1967 O   0  0  0  0  0  0  0  0  0  0  0  0
  -40.9051    9.3054    3.7949 O   0  0  0  0  0  0  0  0  0  0  0  0
  -41.4943   11.4776    0.2314 P   0  0  1  0  0  0  0  0  0  0  0  0
  -42.9712   11.7453    0.3061 O   0  0  0  0  0  0  0  0  0  0  0  0
  -40.5702   12.5812    0.6528 O   0  0  0  0  0  0  0  0  0  0  0  0
  -41.1444   10.0000    1.2239 C   0  0  0  0  0  0  0  0  0  0  0  0
  -41.1135   11.0320   -1.2414 O   0  0  0  0  0  0  0  0  0  0  0  0
  -40.7883   12.0259   -2.2199 C   0  0  0  0  0  0  0  0  0  0  0  0
  -39.9839   11.4166   -3.3367 C   0  0  1  0  0  0  0  0  0  0  0  0
  -38.7441   10.8639   -2.8227 O   0  0  0  0  0  0  0  0  0  0  0  0
  -40.6850   10.2364   -4.0157 C   0  0  1  0  0  0  0  0  0  0  0  0
  -41.5853   10.7360   -4.9937 O   0  0  0  0  0  0  0  0  0  0  0  0
  -39.4959    9.4681   -4.5865 C   0  0  1  0  0  0  0  0  0  0  0  0
  -39.0528   10.0539   -5.7896 O   0  0  0  0  0  0  0  0  0  0  0  0
  -38.4739    9.6296   -3.4641 C   0  0  2  0  0  0  0  0  0  0  0  0
  -38.5068    8.5601   -2.4710 N   0  0  0  0  0  0  0  0  0  0  0  0
  -39.0071    8.6047   -1.1877 C   0  0  0  0  0  0  0  0  0  0  0  0
  -38.8392    7.4866   -0.5246 N   0  0  0  0  0  0  0  0  0  0  0  0
  -38.1873    6.6497   -1.4203 C   0  0  0  0  0  0  0  0  0  0  0  0
  -37.7351    5.3178   -1.3259 C   0  0  0  0  0  0  0  0  0  0  0  0
  -37.8659    4.5594   -0.2425 N   0  0  0  0  0  0  0  0  0  0  0  0
  -37.1257    4.7857   -2.4153 N   0  0  0  0  0  0  0  0  0  0  0  0
  -36.9925    5.5455   -3.5089 C   0  0  0  0  0  0  0  0  0  0  0  0
  -37.3754    6.8014   -3.7117 N   0  0  0  0  0  0  0  0  0  0  0  0
  -37.9740    7.3044   -2.6196 C   0  0  0  0  0  0  0  0  0  0  0  0
  -40.0577    9.9268    1.3780 H   0  0  0  0  0  0  0  0  0  0  0  0
  -41.5328    9.1281    0.6772 H   0  0  0  0  0  0  0  0  0  0  0  0
  -41.7172   12.4484   -2.6304 H   0  0  0  0  0  0  0  0  0  0  0  0
  -40.1932   12.8177   -1.7413 H   0  0  0  0  0  0  0  0  0  0  0  0
  -39.8323   12.2368   -4.0539 H   0  0  0  0  0  0  0  0  0  0  0  0
  -41.3088    9.5958   -3.3750 H   0  0  0  0  0  0  0  0  0  0  0  0
  -42.3566   11.1640   -4.5442 H   0  0  0  0  0  0  0  0  0  0  0  0
  -39.7054    8.4204   -4.8480 H   0  0  0  0  0  0  0  0  0  0  0  0
  -38.4684   10.8264   -5.5848 H   0  0  0  0  0  0  0  0  0  0  0  0
  -37.4715    9.5926   -3.9157 H   0  0  0  0  0  0  0  0  0  0  0  0
  -39.4991    9.4915   -0.7617 H   0  0  0  0  0  0  0  0  0  0  0  0
  -37.5109    3.5925   -0.2447 H   0  0  0  0  0  0  0  0  0  0  0  0
  -38.3224    4.9384    0.5995 H   0  0  0  0  0  0  0  0  0  0  0  0
  -36.4949    5.0609   -4.3618 H   0  0  0  0  0  0  0  0  0  0  0  0
  1  2  2  0
  1  3  1  6
  1  4  1  0
  1  8  1  0
  5  6  2  0
  5  7  1  1
  5  8  1  0
  5 12  1  0
  9 10  2  0
  9 11  1  1
  9 12  1  0
  9 13  1  0
 13 14  1  0
 15 14  1  0
 15 16  1  0
 15 17  1  0
 16 21  1  0
 17 18  1  0
 17 19  1  0
 19 20  1  0
 19 21  1  0
 21 22  1  0
 22 23  1  0
 22 31  1  0
 23 24  2  0
 24 25  1  0
 25 26  2  0
 25 31  1  0
 26 27  1  0
 26 28  1  0
 28 29  2  0
 29 30  1  0
 30 31  2  0
 12 32  1  0
 12 33  1  0
 14 34  1  0
 14 35  1  0
 15 36  1  6
 17 37  1  1
 18 38  1  0
 19 39  1  6
 20 40  1  0
 21 41  1  6
 23 42  1  0
 27 43  1  0
 27 44  1  0
 29 45  1  0
M  CHG  4   3  -1   4  -1   7  -1  11  -1
M  END
>  <filename_input>  (19) 
7XBV_APC_docked.sdf

>  <pdb_id>  (19) 
7XBV_APC

>  <pose_rank>  (19) 
18

>  <num_atoms_heavy>  (19) 
31

>  <num_torsions>  (19) 
8

>  <pose>  (19) 
[-39.983945590942525, 11.416581778423469, -3.3367165485372956, 0.4728886060706876, -2.5119191014122793, 1.585039912075096, -0.1448997079716238, 3.8790039015407842, 5.821778857949333, 6.9411099391690305, 2.6803489809380454, 0.9001181260559549, -0.4165813580687729, 0.5251640981554261]

>  <energy>  (19) 
-537.6049323057557

>  <inter_energy>  (19) 
-547.812488303593

>  <intra_energy>  (19) 
18.391613725502697

>  <rmsd>  (19) 
7.85576

>  <sdf_rank>  (19) 
0

$$$$

     RDKit          3D

 45 47  0  0  0  0  0  0  0  0999 V2000
  -40.3740    4.2444    5.3049 P   0  0  2  0  0  0  0  0  0  0  0  0
  -38.9459    4.3867    5.7421 O   0  0  0  0  0  0  0  0  0  0  0  0
  -41.2868    3.9535    6.4786 O   0  0  0  0  0  0  0  0  0  0  0  0
  -40.5474    3.2420    4.1897 O   0  0  0  0  0  0  0  0  0  0  0  0
  -40.7449    7.1380    5.2231 P   0  0  1  0  0  0  0  0  0  0  0  0
  -41.9394    7.8852    4.6993 O   0  0  0  0  0  0  0  0  0  0  0  0
  -40.5304    7.1427    6.7117 O   0  0  0  0  0  0  0  0  0  0  0  0
  -40.8097    5.6482    4.6293 O   0  0  0  0  0  0  0  0  0  0  0  0
  -39.2429    7.6679    2.6706 P   0  0  1  0  0  0  0  0  0  0  0  0
  -38.0588    8.4302    2.1461 O   0  0  0  0  0  0  0  0  0  0  0  0
  -39.3566    6.2215    2.2906 O   0  0  0  0  0  0  0  0  0  0  0  0
  -39.2390    7.8069    4.4793 C   0  0  0  0  0  0  0  0  0  0  0  0
  -40.5776    8.4102    2.2460 O   0  0  0  0  0  0  0  0  0  0  0  0
  -40.5496    9.3580    1.1727 C   0  0  0  0  0  0  0  0  0  0  0  0
  -41.0614   10.6937    1.6413 C   0  0  1  0  0  0  0  0  0  0  0  0
  -40.4676   11.7639    0.8609 O   0  0  0  0  0  0  0  0  0  0  0  0
  -42.5715   10.8652    1.4528 C   0  0  1  0  0  0  0  0  0  0  0  0
  -43.2437   10.2694    2.5527 O   0  0  0  0  0  0  0  0  0  0  0  0
  -42.6955   12.3851    1.3855 C   0  0  1  0  0  0  0  0  0  0  0  0
  -42.6705   12.9468    2.6780 O   0  0  0  0  0  0  0  0  0  0  0  0
  -41.4487   12.7477    0.5826 C   0  0  2  0  0  0  0  0  0  0  0  0
  -41.6665   12.8080   -0.8597 N   0  0  0  0  0  0  0  0  0  0  0  0
  -42.8048   12.4795   -1.5635 C   0  0  0  0  0  0  0  0  0  0  0  0
  -42.6648   12.5929   -2.8617 N   0  0  0  0  0  0  0  0  0  0  0  0
  -41.3549   13.0210   -3.0306 C   0  0  0  0  0  0  0  0  0  0  0  0
  -40.5935   13.3350   -4.1748 C   0  0  0  0  0  0  0  0  0  0  0  0
  -41.0507   13.2593   -5.4204 N   0  0  0  0  0  0  0  0  0  0  0  0
  -39.3117   13.7365   -3.9821 N   0  0  0  0  0  0  0  0  0  0  0  0
  -38.8473   13.8150   -2.7295 C   0  0  0  0  0  0  0  0  0  0  0  0
  -39.4663   13.5466   -1.5850 N   0  0  0  0  0  0  0  0  0  0  0  0
  -40.7312   13.1510   -1.8032 C   0  0  0  0  0  0  0  0  0  0  0  0
  -39.1515    8.8690    4.7521 H   0  0  0  0  0  0  0  0  0  0  0  0
  -38.3881    7.2227    4.8596 H   0  0  0  0  0  0  0  0  0  0  0  0
  -39.5155    9.4708    0.8152 H   0  0  0  0  0  0  0  0  0  0  0  0
  -41.1927    8.9945    0.3577 H   0  0  0  0  0  0  0  0  0  0  0  0
  -40.8010   10.7356    2.7092 H   0  0  0  0  0  0  0  0  0  0  0  0
  -43.0179   10.3848    0.5696 H   0  0  0  0  0  0  0  0  0  0  0  0
  -42.8588   10.6105    3.3987 H   0  0  0  0  0  0  0  0  0  0  0  0
  -43.6318   12.7529    0.9405 H   0  0  0  0  0  0  0  0  0  0  0  0
  -42.7027   12.2232    3.3530 H   0  0  0  0  0  0  0  0  0  0  0  0
  -41.1383   13.7589    0.8843 H   0  0  0  0  0  0  0  0  0  0  0  0
  -43.7393   12.1540   -1.0829 H   0  0  0  0  0  0  0  0  0  0  0  0
  -40.4368   13.5047   -6.2101 H   0  0  0  0  0  0  0  0  0  0  0  0
  -42.0191   12.9553   -5.5959 H   0  0  0  0  0  0  0  0  0  0  0  0
  -37.8039   14.1496   -2.6337 H   0  0  0  0  0  0  0  0  0  0  0  0
  1  2  2  0
  1  3  1  1
  1  4  1  0
  1  8  1  0
  5  6  2  0
  5  7  1  1
  5  8  1  0
  5 12  1  0
  9 10  2  0
  9 11  1  1
  9 12  1  0
  9 13  1  0
 13 14  1  0
 15 14  1  0
 15 16  1  0
 15 17  1  0
 16 21  1  0
 17 18  1  0
 17 19  1  0
 19 20  1  0
 19 21  1  0
 21 22  1  0
 22 23  1  0
 22 31  1  0
 23 24  2  0
 24 25  1  0
 25 26  2  0
 25 31  1  0
 26 27  1  0
 26 28  1  0
 28 29  2  0
 29 30  1  0
 30 31  2  0
 12 32  1  0
 12 33  1  0
 14 34  1  0
 14 35  1  0
 15 36  1  1
 17 37  1  6
 18 38  1  0
 19 39  1  6
 20 40  1  0
 21 41  1  1
 23 42  1  0
 27 43  1  0
 27 44  1  0
 29 45  1  0
M  CHG  4   3  -1   4  -1   7  -1  11  -1
M  END
>  <filename_input>  (20) 
7XBV_APC_docked.sdf

>  <pdb_id>  (20) 
7XBV_APC

>  <pose_rank>  (20) 
19

>  <num_atoms_heavy>  (20) 
31

>  <num_torsions>  (20) 
8

>  <pose>  (20) 
[-41.06137842576141, 10.69370533238879, 1.6412878979284695, -1.632810409993054, 2.2670130919120175, 2.1321710019466162, 1.60009542114474, 1.3087785307601918, 0.8997569588776163, -0.5502388145238061, 0.20034542748268558, -1.892709300678126, 3.1171254219270583, 0.6401234669185566]

>  <energy>  (20) 
-522.8215873337273

>  <inter_energy>  (20) 
-541.680224261774

>  <intra_energy>  (20) 
27.532707459890197

>  <rmsd>  (20) 
9.50859

>  <sdf_rank>  (20) 
0

$$$$

     RDKit          3D

 45 47  0  0  0  0  0  0  0  0999 V2000
  -39.2702   14.8211   -1.6732 P   0  0  2  0  0  0  0  0  0  0  0  0
  -39.3969   16.3157   -1.6397 O   0  0  0  0  0  0  0  0  0  0  0  0
  -38.5383   14.2993   -0.4536 O   0  0  0  0  0  0  0  0  0  0  0  0
  -38.6633   14.3140   -2.9588 O   0  0  0  0  0  0  0  0  0  0  0  0
  -41.9045   14.2445   -0.5572 P   0  0  1  0  0  0  0  0  0  0  0  0
  -41.2297   13.9980    0.7631 O   0  0  0  0  0  0  0  0  0  0  0  0
  -42.7774   15.4645   -0.6653 O   0  0  0  0  0  0  0  0  0  0  0  0
  -40.7697   14.2143   -1.6919 O   0  0  0  0  0  0  0  0  0  0  0  0
  -43.9625   12.2763    0.4139 P   0  0  1  0  0  0  0  0  0  0  0  0
  -44.7547   13.4575    0.8995 O   0  0  0  0  0  0  0  0  0  0  0  0
  -44.7270   11.0511    0.0093 O   0  0  0  0  0  0  0  0  0  0  0  0
  -42.9411   12.8252   -0.9811 C   0  0  0  0  0  0  0  0  0  0  0  0
  -42.8966   11.8686    1.5142 O   0  0  0  0  0  0  0  0  0  0  0  0
  -42.3318   10.5526    1.4991 C   0  0  0  0  0  0  0  0  0  0  0  0
  -41.0036   10.5618    0.7910 C   0  0  1  0  0  0  0  0  0  0  0  0
  -39.9408   10.1885    1.7064 O   0  0  0  0  0  0  0  0  0  0  0  0
  -40.9152    9.5403   -0.3466 C   0  0  1  0  0  0  0  0  0  0  0  0
  -41.4944   10.1012   -1.5155 O   0  0  0  0  0  0  0  0  0  0  0  0
  -39.4077    9.3172   -0.4339 C   0  0  1  0  0  0  0  0  0  0  0  0
  -38.7891   10.3571   -1.1570 O   0  0  0  0  0  0  0  0  0  0  0  0
  -39.0197    9.3409    1.0423 C   0  0  2  0  0  0  0  0  0  0  0  0
  -39.0338    8.0288    1.6823 N   0  0  0  0  0  0  0  0  0  0  0  0
  -38.5669    6.8325    1.1825 C   0  0  0  0  0  0  0  0  0  0  0  0
  -38.7738    5.8170    1.9849 N   0  0  0  0  0  0  0  0  0  0  0  0
  -39.4177    6.3716    3.0829 C   0  0  0  0  0  0  0  0  0  0  0  0
  -39.8979    5.8184    4.2874 C   0  0  0  0  0  0  0  0  0  0  0  0
  -39.8105    4.5310    4.6055 N   0  0  0  0  0  0  0  0  0  0  0  0
  -40.4884    6.6619    5.1713 N   0  0  0  0  0  0  0  0  0  0  0  0
  -40.5778    7.9593    4.8555 C   0  0  0  0  0  0  0  0  0  0  0  0
  -40.1656    8.5884    3.7604 N   0  0  0  0  0  0  0  0  0  0  0  0
  -39.5865    7.7322    2.9026 C   0  0  0  0  0  0  0  0  0  0  0  0
  -43.6020   13.1064   -1.8142 H   0  0  0  0  0  0  0  0  0  0  0  0
  -42.2760   11.9941   -1.2583 H   0  0  0  0  0  0  0  0  0  0  0  0
  -42.1890   10.2073    2.5337 H   0  0  0  0  0  0  0  0  0  0  0  0
  -43.0162    9.8758    0.9668 H   0  0  0  0  0  0  0  0  0  0  0  0
  -40.9020   11.5839    0.3973 H   0  0  0  0  0  0  0  0  0  0  0  0
  -41.4554    8.5927   -0.2041 H   0  0  0  0  0  0  0  0  0  0  0  0
  -42.1810   10.7660   -1.2573 H   0  0  0  0  0  0  0  0  0  0  0  0
  -39.1064    8.3975   -0.9568 H   0  0  0  0  0  0  0  0  0  0  0  0
  -38.3995   11.0121   -0.5251 H   0  0  0  0  0  0  0  0  0  0  0  0
  -37.9822    9.6997    1.1104 H   0  0  0  0  0  0  0  0  0  0  0  0
  -38.0694    6.7389    0.2059 H   0  0  0  0  0  0  0  0  0  0  0  0
  -40.1839    4.1963    5.5052 H   0  0  0  0  0  0  0  0  0  0  0  0
  -39.3693    3.8680    3.9523 H   0  0  0  0  0  0  0  0  0  0  0  0
  -41.0619    8.5959    5.6107 H   0  0  0  0  0  0  0  0  0  0  0  0
  1  2  2  0
  1  3  1  1
  1  4  1  0
  1  8  1  0
  5  6  2  0
  5  7  1  1
  5  8  1  0
  5 12  1  0
  9 10  2  0
  9 11  1  6
  9 12  1  0
  9 13  1  0
 13 14  1  0
 15 14  1  0
 15 16  1  0
 15 17  1  0
 16 21  1  0
 17 18  1  0
 17 19  1  0
 19 20  1  0
 19 21  1  0
 21 22  1  0
 22 23  1  0
 22 31  1  0
 23 24  2  0
 24 25  1  0
 25 26  2  0
 25 31  1  0
 26 27  1  0
 26 28  1  0
 28 29  2  0
 29 30  1  0
 30 31  2  0
 12 32  1  0
 12 33  1  0
 14 34  1  0
 14 35  1  0
 15 36  1  6
 17 37  1  1
 18 38  1  0
 19 39  1  6
 20 40  1  0
 21 41  1  6
 23 42  1  0
 27 43  1  0
 27 44  1  0
 29 45  1  0
M  CHG  4   3  -1   4  -1   7  -1  11  -1
M  END
>  <filename_input>  (21) 
7XBV_APC_docked.sdf

>  <pdb_id>  (21) 
7XBV_APC

>  <pose_rank>  (21) 
20

>  <num_atoms_heavy>  (21) 
31

>  <num_torsions>  (21) 
8

>  <pose>  (21) 
[-41.003596701893585, 10.561835321746504, 0.7909738347348415, -0.4824363864585327, 2.358962974648246, -1.19154963629117, -3.8444334350174922, 6.974906209334843, -1.5468317598291401, 1.9128636418199227, -8.121807876281295, -0.03634597879165799, -1.346428198933746, 0.4215724939761397]

>  <energy>  (21) 
-566.7134215932656

>  <inter_energy>  (21) 
-621.2329343643792

>  <intra_energy>  (21) 
51.390737046750985

>  <rmsd>  (21) 
4.95095

>  <sdf_rank>  (21) 
0

$$$$

     RDKit          3D

 45 47  0  0  0  0  0  0  0  0999 V2000
  -37.9654   10.2134   -3.8704 P   0  0  2  0  0  0  0  0  0  0  0  0
  -38.8556   10.2922   -5.0755 O   0  0  0  0  0  0  0  0  0  0  0  0
  -37.8220   11.5633   -3.1978 O   0  0  0  0  0  0  0  0  0  0  0  0
  -36.6265    9.5852   -4.1721 O   0  0  0  0  0  0  0  0  0  0  0  0
  -39.2531    7.7108   -3.0981 P   0  0  1  0  0  0  0  0  0  0  0  0
  -40.5996    7.8847   -3.7433 O   0  0  0  0  0  0  0  0  0  0  0  0
  -38.2683    6.8129   -3.7951 O   0  0  0  0  0  0  0  0  0  0  0  0
  -38.6511    9.1755   -2.8362 O   0  0  0  0  0  0  0  0  0  0  0  0
  -37.9566    6.2572   -0.8051 P   0  0  1  0  0  0  0  0  0  0  0  0
  -38.0923    4.7765   -1.0233 O   0  0  0  0  0  0  0  0  0  0  0  0
  -36.7607    6.9367   -1.4031 O   0  0  0  0  0  0  0  0  0  0  0  0
  -39.4633    7.0531   -1.4273 C   0  0  0  0  0  0  0  0  0  0  0  0
  -37.9907    6.5659    0.7493 O   0  0  0  0  0  0  0  0  0  0  0  0
  -38.3861    7.8650    1.2045 C   0  0  0  0  0  0  0  0  0  0  0  0
  -38.8337    7.8021    2.6402 C   0  0  1  0  0  0  0  0  0  0  0  0
  -39.3084    9.1019    3.0785 O   0  0  0  0  0  0  0  0  0  0  0  0
  -40.0181    6.8579    2.8659 C   0  0  1  0  0  0  0  0  0  0  0  0
  -39.5302    5.5315    3.0043 O   0  0  0  0  0  0  0  0  0  0  0  0
  -40.6297    7.4412    4.1371 C   0  0  1  0  0  0  0  0  0  0  0  0
  -39.9168    7.0154    5.2762 O   0  0  0  0  0  0  0  0  0  0  0  0
  -40.4610    8.9375    3.8861 C   0  0  2  0  0  0  0  0  0  0  0  0
  -41.6010    9.5615    3.2211 N   0  0  0  0  0  0  0  0  0  0  0  0
  -41.6207   10.2390    2.0212 C   0  0  0  0  0  0  0  0  0  0  0  0
  -42.7980   10.7300    1.7201 N   0  0  0  0  0  0  0  0  0  0  0  0
  -43.6086   10.3578    2.7842 C   0  0  0  0  0  0  0  0  0  0  0  0
  -44.9750   10.5664    3.0615 C   0  0  0  0  0  0  0  0  0  0  0  0
  -45.8054   11.2330    2.2664 N   0  0  0  0  0  0  0  0  0  0  0  0
  -45.4638   10.0524    4.2183 N   0  0  0  0  0  0  0  0  0  0  0  0
  -44.6313    9.3796    5.0216 C   0  0  0  0  0  0  0  0  0  0  0  0
  -43.3372    9.1227    4.8659 N   0  0  0  0  0  0  0  0  0  0  0  0
  -42.8784    9.6424    3.7154 C   0  0  0  0  0  0  0  0  0  0  0  0
  -39.7308    7.8799   -0.7528 H   0  0  0  0  0  0  0  0  0  0  0  0
  -40.2557    6.2910   -1.4633 H   0  0  0  0  0  0  0  0  0  0  0  0
  -37.5330    8.5542    1.1202 H   0  0  0  0  0  0  0  0  0  0  0  0
  -39.2219    8.2220    0.5847 H   0  0  0  0  0  0  0  0  0  0  0  0
  -37.9513    7.4497    3.1945 H   0  0  0  0  0  0  0  0  0  0  0  0
  -40.7594    6.7911    2.0560 H   0  0  0  0  0  0  0  0  0  0  0  0
  -39.4482    5.3087    3.9654 H   0  0  0  0  0  0  0  0  0  0  0  0
  -41.6694    7.1386    4.3305 H   0  0  0  0  0  0  0  0  0  0  0  0
  -40.3975    7.3025    6.0927 H   0  0  0  0  0  0  0  0  0  0  0  0
  -40.3724    9.4335    4.8640 H   0  0  0  0  0  0  0  0  0  0  0  0
  -40.7352   10.3561    1.3791 H   0  0  0  0  0  0  0  0  0  0  0  0
  -46.7937   11.3468    2.5332 H   0  0  0  0  0  0  0  0  0  0  0  0
  -45.4607   11.6358    1.3833 H   0  0  0  0  0  0  0  0  0  0  0  0
  -45.0832    8.9825    5.9425 H   0  0  0  0  0  0  0  0  0  0  0  0
  1  2  2  0
  1  3  1  1
  1  4  1  0
  1  8  1  0
  5  6  2  0
  5  7  1  6
  5  8  1  0
  5 12  1  0
  9 10  2  0
  9 11  1  6
  9 12  1  0
  9 13  1  0
 13 14  1  0
 15 14  1  0
 15 16  1  0
 15 17  1  0
 16 21  1  0
 17 18  1  0
 17 19  1  0
 19 20  1  0
 19 21  1  0
 21 22  1  0
 22 23  1  0
 22 31  1  0
 23 24  2  0
 24 25  1  0
 25 26  2  0
 25 31  1  0
 26 27  1  0
 26 28  1  0
 28 29  2  0
 29 30  1  0
 30 31  2  0
 12 32  1  0
 12 33  1  0
 14 34  1  0
 14 35  1  0
 15 36  1  1
 17 37  1  6
 18 38  1  0
 19 39  1  1
 20 40  1  0
 21 41  1  1
 23 42  1  0
 27 43  1  0
 27 44  1  0
 29 45  1  0
M  CHG  4   3  -1   4  -1   7  -1  11  -1
M  END
>  <filename_input>  (22) 
7XBV_APC_docked.sdf

>  <pdb_id>  (22) 
7XBV_APC

>  <pose_rank>  (22) 
21

>  <num_atoms_heavy>  (22) 
31

>  <num_torsions>  (22) 
8

>  <pose>  (22) 
[-38.8336728987324, 7.802078517884177, 2.64021885454397, -2.0086550468991096, 0.2417151880528703, 3.1737926685143143, -0.4164092311543314, -4.431834815899225, -0.4544398705860674, -3.60291472786843, -4.500218090086718, 1.9297417920089672, 4.29495652783022, 2.4264316685898]

>  <energy>  (22) 
-554.5816187424336

>  <inter_energy>  (22) 
-557.5025098425355

>  <intra_energy>  (22) 
24.197926180185387

>  <rmsd>  (22) 
5.26635

>  <sdf_rank>  (22) 
0

$$$$

     RDKit          3D

 45 47  0  0  0  0  0  0  0  0999 V2000
  -40.3993   16.5794   -2.8703 P   0  0  2  0  0  0  0  0  0  0  0  0
  -39.4442   16.5134   -4.0254 O   0  0  0  0  0  0  0  0  0  0  0  0
  -41.8282   16.7571   -3.3417 O   0  0  0  0  0  0  0  0  0  0  0  0
  -40.0073   17.6159   -1.8455 O   0  0  0  0  0  0  0  0  0  0  0  0
  -38.9737   14.4325   -1.5008 P   0  0  1  0  0  0  0  0  0  0  0  0
  -38.2442   13.8442   -2.6760 O   0  0  0  0  0  0  0  0  0  0  0  0
  -38.1815   15.3073   -0.5685 O   0  0  0  0  0  0  0  0  0  0  0  0
  -40.2759   15.1807   -2.0670 O   0  0  0  0  0  0  0  0  0  0  0  0
  -38.4595   11.8069   -0.1245 P   0  0  1  0  0  0  0  0  0  0  0  0
  -38.3165   10.9438   -1.3464 O   0  0  0  0  0  0  0  0  0  0  0  0
  -37.2157   12.4428    0.4214 O   0  0  0  0  0  0  0  0  0  0  0  0
  -39.6736   13.1026   -0.4958 C   0  0  0  0  0  0  0  0  0  0  0  0
  -39.1518   10.9725    1.0319 O   0  0  0  0  0  0  0  0  0  0  0  0
  -38.7607    9.6130    1.2553 C   0  0  0  0  0  0  0  0  0  0  0  0
  -39.2309    9.1493    2.6079 C   0  0  1  0  0  0  0  0  0  0  0  0
  -40.1243   10.1309    3.1957 O   0  0  0  0  0  0  0  0  0  0  0  0
  -40.0516    7.8574    2.5550 C   0  0  1  0  0  0  0  0  0  0  0  0
  -39.1646    6.7487    2.5304 O   0  0  0  0  0  0  0  0  0  0  0  0
  -40.8798    7.9747    3.8319 C   0  0  1  0  0  0  0  0  0  0  0  0
  -40.1221    7.5906    4.9567 O   0  0  0  0  0  0  0  0  0  0  0  0
  -41.1971    9.4679    3.8417 C   0  0  2  0  0  0  0  0  0  0  0  0
  -42.4454    9.8154    3.1690 N   0  0  0  0  0  0  0  0  0  0  0  0
  -42.6115   10.4476    1.9559 C   0  0  0  0  0  0  0  0  0  0  0  0
  -43.8674   10.6647    1.6500 N   0  0  0  0  0  0  0  0  0  0  0  0
  -44.5779   10.1470    2.7247 C   0  0  0  0  0  0  0  0  0  0  0  0
  -45.9571   10.0593    3.0035 C   0  0  0  0  0  0  0  0  0  0  0  0
  -46.9124   10.5129    2.1986 N   0  0  0  0  0  0  0  0  0  0  0  0
  -46.3228    9.4750    4.1724 N   0  0  0  0  0  0  0  0  0  0  0  0
  -45.3641    9.0160    4.9855 C   0  0  0  0  0  0  0  0  0  0  0  0
  -44.0451    9.0434    4.8296 N   0  0  0  0  0  0  0  0  0  0  0  0
  -43.7099    9.6267    3.6670 C   0  0  0  0  0  0  0  0  0  0  0  0
  -40.0369   13.5287    0.4510 H   0  0  0  0  0  0  0  0  0  0  0  0
  -40.4915   12.6424   -1.0697 H   0  0  0  0  0  0  0  0  0  0  0  0
  -39.2061    8.9749    0.4779 H   0  0  0  0  0  0  0  0  0  0  0  0
  -37.6634    9.5455    1.2157 H   0  0  0  0  0  0  0  0  0  0  0  0
  -38.3093    8.9947    3.1882 H   0  0  0  0  0  0  0  0  0  0  0  0
  -40.6910    7.7128    1.6717 H   0  0  0  0  0  0  0  0  0  0  0  0
  -38.9483    6.4785    3.4579 H   0  0  0  0  0  0  0  0  0  0  0  0
  -41.7717    7.3317    3.8646 H   0  0  0  0  0  0  0  0  0  0  0  0
  -40.6091    7.8375    5.7825 H   0  0  0  0  0  0  0  0  0  0  0  0
  -41.3220    9.7771    4.8899 H   0  0  0  0  0  0  0  0  0  0  0  0
  -41.7726   10.7413    1.3079 H   0  0  0  0  0  0  0  0  0  0  0  0
  -47.9019   10.4146    2.4673 H   0  0  0  0  0  0  0  0  0  0  0  0
  -46.6633   10.9628    1.3062 H   0  0  0  0  0  0  0  0  0  0  0  0
  -45.7191    8.5490    5.9161 H   0  0  0  0  0  0  0  0  0  0  0  0
  1  2  2  0
  1  3  1  6
  1  4  1  0
  1  8  1  0
  5  6  2  0
  5  7  1  1
  5  8  1  0
  5 12  1  0
  9 10  2  0
  9 11  1  1
  9 12  1  0
  9 13  1  0
 13 14  1  0
 15 14  1  0
 15 16  1  0
 15 17  1  0
 16 21  1  0
 17 18  1  0
 17 19  1  0
 19 20  1  0
 19 21  1  0
 21 22  1  0
 22 23  1  0
 22 31  1  0
 23 24  2  0
 24 25  1  0
 25 26  2  0
 25 31  1  0
 26 27  1  0
 26 28  1  0
 28 29  2  0
 29 30  1  0
 30 31  2  0
 12 32  1  0
 12 33  1  0
 14 34  1  0
 14 35  1  0
 15 36  1  1
 17 37  1  6
 18 38  1  0
 19 39  1  6
 20 40  1  0
 21 41  1  1
 23 42  1  0
 27 43  1  0
 27 44  1  0
 29 45  1  0
M  CHG  4   3  -1   4  -1   7  -1  11  -1
M  END
>  <filename_input>  (23) 
7XBV_APC_docked.sdf

>  <pdb_id>  (23) 
7XBV_APC

>  <pose_rank>  (23) 
22

>  <num_atoms_heavy>  (23) 
31

>  <num_torsions>  (23) 
8

>  <pose>  (23) 
[-39.23094345249253, 9.149296637146787, 2.6078943919920614, 1.4443707644242687, 0.2067120139310111, -1.8453693208552286, -0.178454897555863, -1.1858987475322345, -0.3753059291481384, -0.14089284593402687, 2.1270453604999284, 0.007051499703411532, -1.9263191932885062, 2.4983087910606923]

>  <energy>  (23) 
-532.7774908015456

>  <inter_energy>  (23) 
-548.1463631570131

>  <intra_energy>  (23) 
6.94891996977083

>  <rmsd>  (23) 
5.37214

>  <sdf_rank>  (23) 
0

$$$$

     RDKit          3D

 45 47  0  0  0  0  0  0  0  0999 V2000
  -39.2155   14.1211   -2.3848 P   0  0  2  0  0  0  0  0  0  0  0  0
  -38.6648   14.6712   -3.6674 O   0  0  0  0  0  0  0  0  0  0  0  0
  -39.1344   15.1384   -1.2651 O   0  0  0  0  0  0  0  0  0  0  0  0
  -38.5921   12.8018   -1.9984 O   0  0  0  0  0  0  0  0  0  0  0  0
  -41.9333   14.6230   -3.3226 P   0  0  1  0  0  0  0  0  0  0  0  0
  -41.9909   15.9354   -2.5919 O   0  0  0  0  0  0  0  0  0  0  0  0
  -41.8074   14.6757   -4.8204 O   0  0  0  0  0  0  0  0  0  0  0  0
  -40.7669   13.7481   -2.6513 O   0  0  0  0  0  0  0  0  0  0  0  0
  -43.6466   13.3851   -1.1815 P   0  0  1  0  0  0  0  0  0  0  0  0
  -43.1222   12.0144   -0.8579 O   0  0  0  0  0  0  0  0  0  0  0  0
  -43.0642   14.5433   -0.4271 O   0  0  0  0  0  0  0  0  0  0  0  0
  -43.4216   13.6628   -2.9600 C   0  0  0  0  0  0  0  0  0  0  0  0
  -45.2214   13.4029   -1.0012 O   0  0  0  0  0  0  0  0  0  0  0  0
  -45.7823   13.5700    0.3058 C   0  0  0  0  0  0  0  0  0  0  0  0
  -46.9379   12.6259    0.5034 C   0  0  1  0  0  0  0  0  0  0  0  0
  -46.4597   11.2605    0.6219 O   0  0  0  0  0  0  0  0  0  0  0  0
  -47.7151   12.8807    1.7982 C   0  0  1  0  0  0  0  0  0  0  0  0
  -48.6572   13.9192    1.5733 O   0  0  0  0  0  0  0  0  0  0  0  0
  -48.3360   11.5093    2.0510 C   0  0  1  0  0  0  0  0  0  0  0  0
  -49.4845   11.3256    1.2547 O   0  0  0  0  0  0  0  0  0  0  0  0
  -47.1959   10.5866    1.6277 C   0  0  2  0  0  0  0  0  0  0  0  0
  -46.2921   10.2204    2.7143 N   0  0  0  0  0  0  0  0  0  0  0  0
  -46.6159    9.7806    3.9795 C   0  0  0  0  0  0  0  0  0  0  0  0
  -45.5705    9.5837    4.7452 N   0  0  0  0  0  0  0  0  0  0  0  0
  -44.4878    9.9137    3.9412 C   0  0  0  0  0  0  0  0  0  0  0  0
  -43.0959    9.9075    4.1652 C   0  0  0  0  0  0  0  0  0  0  0  0
  -42.5251    9.5517    5.3114 N   0  0  0  0  0  0  0  0  0  0  0  0
  -42.2958   10.2941    3.1395 N   0  0  0  0  0  0  0  0  0  0  0  0
  -42.8662   10.6523    1.9832 C   0  0  0  0  0  0  0  0  0  0  0  0
  -44.1539   10.6977    1.6594 N   0  0  0  0  0  0  0  0  0  0  0  0
  -44.9233   10.3118    2.6906 C   0  0  0  0  0  0  0  0  0  0  0  0
  -44.2961   14.2068   -3.3464 H   0  0  0  0  0  0  0  0  0  0  0  0
  -43.3136   12.6803   -3.4427 H   0  0  0  0  0  0  0  0  0  0  0  0
  -45.0104   13.3618    1.0613 H   0  0  0  0  0  0  0  0  0  0  0  0
  -46.1432   14.6039    0.4106 H   0  0  0  0  0  0  0  0  0  0  0  0
  -47.5856   12.7875   -0.3708 H   0  0  0  0  0  0  0  0  0  0  0  0
  -47.1330   13.2257    2.6654 H   0  0  0  0  0  0  0  0  0  0  0  0
  -48.9754   14.2700    2.4426 H   0  0  0  0  0  0  0  0  0  0  0  0
  -48.6824   11.3420    3.0815 H   0  0  0  0  0  0  0  0  0  0  0  0
  -50.2740   11.1993    1.8384 H   0  0  0  0  0  0  0  0  0  0  0  0
  -47.6407    9.6448    1.2738 H   0  0  0  0  0  0  0  0  0  0  0  0
  -47.6500    9.6114    4.3139 H   0  0  0  0  0  0  0  0  0  0  0  0
  -41.4995    9.5715    5.4039 H   0  0  0  0  0  0  0  0  0  0  0  0
  -43.1084    9.2562    6.1072 H   0  0  0  0  0  0  0  0  0  0  0  0
  -42.1692   10.9522    1.1868 H   0  0  0  0  0  0  0  0  0  0  0  0
  1  2  2  0
  1  3  1  1
  1  4  1  0
  1  8  1  0
  5  6  2  0
  5  7  1  6
  5  8  1  0
  5 12  1  0
  9 10  2  0
  9 11  1  1
  9 12  1  0
  9 13  1  0
 13 14  1  0
 15 14  1  0
 15 16  1  0
 15 17  1  0
 16 21  1  0
 17 18  1  0
 17 19  1  0
 19 20  1  0
 19 21  1  0
 21 22  1  0
 22 23  1  0
 22 31  1  0
 23 24  2  0
 24 25  1  0
 25 26  2  0
 25 31  1  0
 26 27  1  0
 26 28  1  0
 28 29  2  0
 29 30  1  0
 30 31  2  0
 12 32  1  0
 12 33  1  0
 14 34  1  0
 14 35  1  0
 15 36  1  6
 17 37  1  1
 18 38  1  0
 19 39  1  1
 20 40  1  0
 21 41  1  6
 23 42  1  0
 27 43  1  0
 27 44  1  0
 29 45  1  0
M  CHG  4   3  -1   4  -1   7  -1  11  -1
M  END
>  <filename_input>  (24) 
7XBV_APC_docked.sdf

>  <pdb_id>  (24) 
7XBV_APC

>  <pose_rank>  (24) 
23

>  <num_atoms_heavy>  (24) 
31

>  <num_torsions>  (24) 
8

>  <pose>  (24) 
[-46.9378619501434, 12.625928569989094, 0.5034457510523671, -0.09250646014234115, 2.6692361980449704, -4.188364865507739, 2.5200656507520485, -12.674246259826067, -18.19494307972567, 6.834623253644697, 26.909316012671695, 17.006164110015174, -1.571339292319706, 0.7377329778675499]

>  <energy>  (24) 
-212.3097752937158

>  <inter_energy>  (24) 
-260.8882538612137

>  <intra_energy>  (24) 
50.752733041440294

>  <rmsd>  (24) 
6.54905

>  <sdf_rank>  (24) 
0

$$$$

     RDKit          3D

 45 47  0  0  0  0  0  0  0  0999 V2000
  -39.6479   10.2930    1.1566 P   0  0  2  0  0  0  0  0  0  0  0  0
  -40.7743    9.5843    0.4637 O   0  0  0  0  0  0  0  0  0  0  0  0
  -38.3164    9.6283    0.8726 O   0  0  0  0  0  0  0  0  0  0  0  0
  -39.8894   10.4692    2.6361 O   0  0  0  0  0  0  0  0  0  0  0  0
  -40.7538   12.9397    0.6186 P   0  0  1  0  0  0  0  0  0  0  0  0
  -42.0569   12.2617    0.9376 O   0  0  0  0  0  0  0  0  0  0  0  0
  -40.3619   14.1123    1.4749 O   0  0  0  0  0  0  0  0  0  0  0  0
  -39.6158   11.8081    0.5906 O   0  0  0  0  0  0  0  0  0  0  0  0
  -39.1256   13.9468   -1.7023 P   0  0  1  0  0  0  0  0  0  0  0  0
  -39.2081   15.2827   -2.3858 O   0  0  0  0  0  0  0  0  0  0  0  0
  -38.1386   13.8039   -0.5822 O   0  0  0  0  0  0  0  0  0  0  0  0
  -40.7816   13.5304   -1.0898 C   0  0  0  0  0  0  0  0  0  0  0  0
  -38.8364   12.8207   -2.7798 O   0  0  0  0  0  0  0  0  0  0  0  0
  -37.9280   11.7586   -2.4672 C   0  0  0  0  0  0  0  0  0  0  0  0
  -38.6079   10.4252   -2.6264 C   0  0  1  0  0  0  0  0  0  0  0  0
  -40.0499   10.5912   -2.6313 O   0  0  0  0  0  0  0  0  0  0  0  0
  -38.2901    9.7369   -3.9570 C   0  0  1  0  0  0  0  0  0  0  0  0
  -37.0559    9.0452   -3.8347 O   0  0  0  0  0  0  0  0  0  0  0  0
  -39.5072    8.8311   -4.1254 C   0  0  1  0  0  0  0  0  0  0  0  0
  -39.3721    7.6622   -3.3493 O   0  0  0  0  0  0  0  0  0  0  0  0
  -40.6219    9.7348   -3.6046 C   0  0  2  0  0  0  0  0  0  0  0  0
  -41.2606   10.5466   -4.6364 N   0  0  0  0  0  0  0  0  0  0  0  0
  -42.4736   11.1979   -4.5780 C   0  0  0  0  0  0  0  0  0  0  0  0
  -42.7934   11.8034   -5.6955 N   0  0  0  0  0  0  0  0  0  0  0  0
  -41.7300   11.5374   -6.5477 C   0  0  0  0  0  0  0  0  0  0  0  0
  -41.4595   11.9081   -7.8807 C   0  0  0  0  0  0  0  0  0  0  0  0
  -42.2692   12.6505   -8.6287 N   0  0  0  0  0  0  0  0  0  0  0  0
  -40.2967   11.4718   -8.4274 N   0  0  0  0  0  0  0  0  0  0  0  0
  -39.4779   10.7248   -7.6775 C   0  0  0  0  0  0  0  0  0  0  0  0
  -39.6265   10.3160   -6.4222 N   0  0  0  0  0  0  0  0  0  0  0  0
  -40.7841   10.7598   -5.9053 C   0  0  0  0  0  0  0  0  0  0  0  0
  -41.2075   12.7433   -1.7293 H   0  0  0  0  0  0  0  0  0  0  0  0
  -41.3909   14.4458   -1.1191 H   0  0  0  0  0  0  0  0  0  0  0  0
  -37.0639   11.8086   -3.1461 H   0  0  0  0  0  0  0  0  0  0  0  0
  -37.5950   11.8680   -1.4245 H   0  0  0  0  0  0  0  0  0  0  0  0
  -38.2408    9.8201   -1.7843 H   0  0  0  0  0  0  0  0  0  0  0  0
  -38.1495   10.3898   -4.8310 H   0  0  0  0  0  0  0  0  0  0  0  0
  -36.8393    8.9237   -2.8763 H   0  0  0  0  0  0  0  0  0  0  0  0
  -39.6738    8.4670   -5.1499 H   0  0  0  0  0  0  0  0  0  0  0  0
  -39.3994    7.8991   -2.3884 H   0  0  0  0  0  0  0  0  0  0  0  0
  -41.4127    9.0893   -3.1948 H   0  0  0  0  0  0  0  0  0  0  0  0
  -43.1109   11.2085   -3.6815 H   0  0  0  0  0  0  0  0  0  0  0  0
  -42.0066   12.8831   -9.5971 H   0  0  0  0  0  0  0  0  0  0  0  0
  -43.1593   12.9933   -8.2400 H   0  0  0  0  0  0  0  0  0  0  0  0
  -38.5490   10.4031   -8.1710 H   0  0  0  0  0  0  0  0  0  0  0  0
  1  2  2  0
  1  3  1  1
  1  4  1  0
  1  8  1  0
  5  6  2  0
  5  7  1  1
  5  8  1  0
  5 12  1  0
  9 10  2  0
  9 11  1  1
  9 12  1  0
  9 13  1  0
 13 14  1  0
 15 14  1  0
 15 16  1  0
 15 17  1  0
 16 21  1  0
 17 18  1  0
 17 19  1  0
 19 20  1  0
 19 21  1  0
 21 22  1  0
 22 23  1  0
 22 31  1  0
 23 24  2  0
 24 25  1  0
 25 26  2  0
 25 31  1  0
 26 27  1  0
 26 28  1  0
 28 29  2  0
 29 30  1  0
 30 31  2  0
 12 32  1  0
 12 33  1  0
 14 34  1  0
 14 35  1  0
 15 36  1  1
 17 37  1  6
 18 38  1  0
 19 39  1  6
 20 40  1  0
 21 41  1  1
 23 42  1  0
 27 43  1  0
 27 44  1  0
 29 45  1  0
M  CHG  4   3  -1   4  -1   7  -1  11  -1
M  END
>  <filename_input>  (25) 
7XBV_APC_docked.sdf

>  <pdb_id>  (25) 
7XBV_APC

>  <pose_rank>  (25) 
24

>  <num_atoms_heavy>  (25) 
31

>  <num_torsions>  (25) 
8

>  <pose>  (25) 
[-38.607921658417524, 10.425190854677414, -2.626403511313769, 2.4418308551887304, 0.8428624085821398, -0.6787168824016292, -1.7467987887806242, -1.661262981439687, -1.081265159668298, 1.5699990316098762, 1.1606534893546414, 2.5657998771344426, -0.9096601734838937, -3.6618088496237737]

>  <energy>  (25) 
-468.9969297014318

>  <inter_energy>  (25) 
-552.2897321500033

>  <intra_energy>  (25) 
80.21414739406455

>  <rmsd>  (25) 
8.37575

>  <sdf_rank>  (25) 
0

$$$$

     RDKit          3D

 45 47  0  0  0  0  0  0  0  0999 V2000
  -41.1580   11.9160   -8.2140 P   0  0  2  0  0  0  0  0  0  0  0  0
  -41.6110   13.3170   -8.5020 O   0  0  0  0  0  0  0  0  0  0  0  0
  -39.6490   11.7970   -8.2780 O   0  0  0  0  0  0  0  0  0  0  0  0
  -41.8450   10.8890   -9.0810 O   0  0  0  0  0  0  0  0  0  0  0  0
  -40.9020   11.7260   -5.3130 P   0  0  1  0  0  0  0  0  0  0  0  0
  -40.1120   13.0030   -5.3810 O   0  0  0  0  0  0  0  0  0  0  0  0
  -41.8370   11.5580   -4.1470 O   0  0  0  0  0  0  0  0  0  0  0  0
  -41.6560   11.5500   -6.7190 O   0  0  0  0  0  0  0  0  0  0  0  0
  -38.4490   10.5220   -4.0540 P   0  0  1  0  0  0  0  0  0  0  0  0
  -37.8830    9.1630   -3.7520 O   0  0  0  0  0  0  0  0  0  0  0  0
  -37.4960   11.5760   -4.5340 O   0  0  0  0  0  0  0  0  0  0  0  0
  -39.7710   10.3160   -5.2790 C   0  0  0  0  0  0  0  0  0  0  0  0
  -39.2110   11.0710   -2.7770 O   0  0  0  0  0  0  0  0  0  0  0  0
  -38.5590   11.0540   -1.5020 C   0  0  0  0  0  0  0  0  0  0  0  0
  -39.5090   11.5000   -0.4230 C   0  0  1  0  0  0  0  0  0  0  0  0
  -40.4290   10.4290   -0.0860 O   0  0  0  0  0  0  0  0  0  0  0  0
  -38.8110   11.8440    0.8960 C   0  0  1  0  0  0  0  0  0  0  0  0
  -38.3290   13.1780    0.8280 O   0  0  0  0  0  0  0  0  0  0  0  0
  -39.9420   11.6320    1.8990 C   0  0  1  0  0  0  0  0  0  0  0  0
  -40.8040   12.7470    1.9240 O   0  0  0  0  0  0  0  0  0  0  0  0
  -40.6250   10.3970    1.3170 C   0  0  2  0  0  0  0  0  0  0  0  0
  -40.1150    9.1330    1.8400 N   0  0  0  0  0  0  0  0  0  0  0  0
  -39.1770    8.2950    1.2770 C   0  0  0  0  0  0  0  0  0  0  0  0
  -38.9710    7.2030    1.9720 N   0  0  0  0  0  0  0  0  0  0  0  0
  -39.8240    7.3220    3.0610 C   0  0  0  0  0  0  0  0  0  0  0  0
  -40.0720    6.4930    4.1740 C   0  0  0  0  0  0  0  0  0  0  0  0
  -39.4690    5.3280    4.3870 N   0  0  0  0  0  0  0  0  0  0  0  0
  -40.9890    6.9190    5.0790 N   0  0  0  0  0  0  0  0  0  0  0  0
  -41.5980    8.0920    4.8690 C   0  0  0  0  0  0  0  0  0  0  0  0
  -41.4470    8.9500    3.8660 N   0  0  0  0  0  0  0  0  0  0  0  0
  -40.5360    8.5050    2.9850 C   0  0  0  0  0  0  0  0  0  0  0  0
  -40.3433    9.4095   -5.0325 H   0  0  0  0  0  0  0  0  0  0  0  0
  -39.3013   10.2379   -6.2706 H   0  0  0  0  0  0  0  0  0  0  0  0
  -38.2159   10.0320   -1.2836 H   0  0  0  0  0  0  0  0  0  0  0  0
  -37.7011   11.7419   -1.5299 H   0  0  0  0  0  0  0  0  0  0  0  0
  -40.0068   12.3894   -0.8368 H   0  0  0  0  0  0  0  0  0  0  0  0
  -37.9239   11.2481    1.1569 H   0  0  0  0  0  0  0  0  0  0  0  0
  -38.2018   13.5300    1.7445 H   0  0  0  0  0  0  0  0  0  0  0  0
  -39.6168   11.5084    2.9425 H   0  0  0  0  0  0  0  0  0  0  0  0
  -40.9957   12.9949    2.8631 H   0  0  0  0  0  0  0  0  0  0  0  0
  -41.6868   10.4359    1.6016 H   0  0  0  0  0  0  0  0  0  0  0  0
  -38.6526    8.5204    0.3367 H   0  0  0  0  0  0  0  0  0  0  0  0
  -39.7002    4.7738    5.2239 H   0  0  0  0  0  0  0  0  0  0  0  0
  -38.7705    4.9792    3.7152 H   0  0  0  0  0  0  0  0  0  0  0  0
  -42.3280    8.3881    5.6367 H   0  0  0  0  0  0  0  0  0  0  0  0
  1  2  2  0
  1  3  1  1
  1  4  1  0
  1  8  1  0
  5  6  2  0
  5  7  1  1
  5  8  1  0
  5 12  1  0
  9 10  2  0
  9 11  1  6
  9 12  1  0
  9 13  1  0
 13 14  1  0
 15 14  1  0
 15 16  1  0
 15 17  1  0
 16 21  1  0
 17 18  1  0
 17 19  1  0
 19 20  1  0
 19 21  1  0
 21 22  1  0
 22 23  1  0
 22 31  1  0
 23 24  2  0
 24 25  1  0
 25 26  2  0
 25 31  1  0
 26 27  1  0
 26 28  1  0
 28 29  2  0
 29 30  1  0
 30 31  2  0
 12 32  1  0
 12 33  1  0
 14 34  1  0
 14 35  1  0
 15 36  1  6
 17 37  1  1
 18 38  1  0
 19 39  1  1
 20 40  1  0
 21 41  1  6
 23 42  1  0
 27 43  1  0
 27 44  1  0
 29 45  1  0
M  CHG  4   3  -1   4  -1   7  -1  11  -1
M  END
>  <filename_input>  (26) 
7XBV_APC_docked.sdf

>  <pdb_id>  (26) 
7XBV_APC

>  <pose_rank>  (26) 
25

>  <num_atoms_heavy>  (26) 
31

>  <num_torsions>  (26) 
8

>  <pose>  (26) 
[-39.509, 11.5, -0.423, 1e-06, 1e-06, 1e-06, 0.0, 0.0, 0.0, 0.0, 0.0, 0.0, 0.0, 0.0]

>  <energy>  (26) 
-756.5105725885855

>  <inter_energy>  (26) 
-771.7000697542085

>  <intra_energy>  (26) 
13.172733387898393

>  <rmsd>  (26) 
0.0

>  <sdf_rank>  (26) 
0

$$$$
