
     RDKit          3D

 60 64  0  0  0  0  0  0  0  0999 V2000
  -24.2817   -9.2653    2.1272 F   0  0  0  0  0  0  0  0  0  0  0  0
  -23.6938   -8.3348    2.7599 C   0  0  1  0  0  0  0  0  0  0  0  0
  -22.9175   -7.6283    1.8671 F   0  0  0  0  0  0  0  0  0  0  0  0
  -24.6323   -7.5134    3.1929 F   0  0  0  0  0  0  0  0  0  0  0  0
  -22.9027   -8.8347    3.8564 C   0  0  0  0  0  0  0  0  0  0  0  0
  -23.1080   -8.3542    5.1706 C   0  0  0  0  0  0  0  0  0  0  0  0
  -22.3519   -8.8177    6.2451 C   0  0  0  0  0  0  0  0  0  0  0  0
  -21.3985   -9.8108    6.0445 C   0  0  0  0  0  0  0  0  0  0  0  0
  -20.5195  -10.4325    7.4016 Cl  0  0  0  0  0  0  0  0  0  0  0  0
  -21.1817  -10.3125    4.7530 C   0  0  0  0  0  0  0  0  0  0  0  0
  -21.9087   -9.8280    3.6509 C   0  0  0  0  0  0  0  0  0  0  0  0
  -21.6437  -10.3591    2.4360 N   0  0  0  0  0  0  0  0  0  0  0  0
  -22.2826  -11.4338    1.9063 N   0  0  0  0  0  0  0  0  0  0  0  0
  -21.7699  -11.5821    0.6887 C   0  0  0  0  0  0  0  0  0  0  0  0
  -22.2110  -12.6936   -0.2541 C   0  0  0  0  0  0  0  0  0  0  0  0
  -20.8226  -10.6695    0.4292 N   0  0  0  0  0  0  0  0  0  0  0  0
  -20.7469   -9.9418    1.5358 C   0  0  0  0  0  0  0  0  0  0  0  0
  -19.8669   -8.7409    1.7505 C   0  0  1  0  0  0  0  0  0  0  0  0
  -18.3754   -9.0253    1.5779 C   0  0  2  0  0  0  0  0  0  0  0  0
  -17.9911   -9.9313    2.6221 O   0  0  0  0  0  0  0  0  0  0  0  0
  -20.2976   -7.7604    0.7802 O   0  0  0  0  0  0  0  0  0  0  0  0
  -19.6433   -6.5078    1.0269 C   0  0  2  0  0  0  0  0  0  0  0  0
  -20.2592   -5.5119    0.0335 C   0  0  0  0  0  0  0  0  0  0  0  0
  -21.5924   -5.8811   -0.3356 O   0  0  0  0  0  0  0  0  0  0  0  0
  -18.1499   -6.6574    0.7897 C   0  0  2  0  0  0  0  0  0  0  0  0
  -17.9150   -7.0463   -0.5668 O   0  0  0  0  0  0  0  0  0  0  0  0
  -17.6244   -7.7232    1.7479 C   0  0  2  0  0  0  0  0  0  0  0  0
  -16.1795   -7.9013    1.6091 N   0  0  0  0  0  0  0  0  0  0  0  0
  -15.4198   -8.2701    0.5558 C   0  0  0  0  0  0  0  0  0  0  0  0
  -15.4000   -7.6739    2.6787 N   0  0  0  0  0  0  0  0  0  0  0  0
  -14.1568   -7.9132    2.2851 N   0  0  0  0  0  0  0  0  0  0  0  0
  -14.1403   -8.2692    0.9837 C   0  0  0  0  0  0  0  0  0  0  0  0
  -12.9937   -8.5581    0.2946 C   0  0  0  0  0  0  0  0  0  0  0  0
  -11.7884   -8.7364    1.0051 C   0  0  0  0  0  0  0  0  0  0  0  0
  -10.6022   -8.9912    0.3320 C   0  0  0  0  0  0  0  0  0  0  0  0
   -9.4482   -9.1923    1.0248 F   0  0  0  0  0  0  0  0  0  0  0  0
  -10.5713   -9.0299   -1.0451 C   0  0  0  0  0  0  0  0  0  0  0  0
   -9.0656   -9.3854   -1.6994 Cl  0  0  0  0  0  0  0  0  0  0  0  0
  -11.7440   -8.8404   -1.7795 C   0  0  0  0  0  0  0  0  0  0  0  0
  -11.7438   -8.8707   -3.1293 F   0  0  0  0  0  0  0  0  0  0  0  0
  -12.9514   -8.6036   -1.1133 C   0  0  0  0  0  0  0  0  0  0  0  0
  -23.8842   -7.5954    5.3490 H   0  0  0  0  0  0  0  0  0  0  0  0
  -22.5085   -8.3993    7.2502 H   0  0  0  0  0  0  0  0  0  0  0  0
  -20.4290  -11.0997    4.5991 H   0  0  0  0  0  0  0  0  0  0  0  0
  -22.5541  -13.5581    0.3333 H   0  0  0  0  0  0  0  0  0  0  0  0
  -23.0336  -12.3315   -0.8883 H   0  0  0  0  0  0  0  0  0  0  0  0
  -21.3640  -12.9941   -0.8883 H   0  0  0  0  0  0  0  0  0  0  0  0
  -19.9711   -8.3977    2.7904 H   0  0  0  0  0  0  0  0  0  0  0  0
  -18.1560   -9.4560    0.5898 H   0  0  0  0  0  0  0  0  0  0  0  0
  -18.1679   -9.5144    3.5025 H   0  0  0  0  0  0  0  0  0  0  0  0
  -19.7768   -6.1643    2.0634 H   0  0  0  0  0  0  0  0  0  0  0  0
  -20.2819   -4.5148    0.4975 H   0  0  0  0  0  0  0  0  0  0  0  0
  -19.6412   -5.5120   -0.8765 H   0  0  0  0  0  0  0  0  0  0  0  0
  -22.1316   -6.0304    0.4812 H   0  0  0  0  0  0  0  0  0  0  0  0
  -17.6311   -5.7043    0.9695 H   0  0  0  0  0  0  0  0  0  0  0  0
  -17.4032   -7.8936   -0.5832 H   0  0  0  0  0  0  0  0  0  0  0  0
  -17.8055   -7.3735    2.7750 H   0  0  0  0  0  0  0  0  0  0  0  0
  -15.7747   -8.5221   -0.4544 H   0  0  0  0  0  0  0  0  0  0  0  0
  -11.7888   -8.6727    2.1032 H   0  0  0  0  0  0  0  0  0  0  0  0
  -13.8741   -8.4519   -1.6926 H   0  0  0  0  0  0  0  0  0  0  0  0
  2  1  1  6
  2  3  1  0
  2  4  1  0
  2  5  1  0
  5  6  2  0
  5 11  1  0
  6  7  1  0
  7  8  2  0
  8  9  1  0
  8 10  1  0
 10 11  2  0
 11 12  1  0
 12 13  1  0
 12 17  1  0
 13 14  2  0
 14 15  1  0
 14 16  1  0
 16 17  2  0
 18 17  1  0
 18 19  1  0
 18 21  1  0
 19 20  1  0
 19 27  1  0
 21 22  1  0
 22 23  1  0
 22 25  1  0
 23 24  1  0
 25 26  1  0
 25 27  1  0
 27 28  1  0
 28 29  1  0
 28 30  1  0
 29 32  2  0
 30 31  2  0
 31 32  1  0
 32 33  1  0
 33 34  2  0
 33 41  1  0
 34 35  1  0
 35 36  1  0
 35 37  2  0
 37 38  1  0
 37 39  1  0
 39 40  1  0
 39 41  2  0
  6 42  1  0
  7 43  1  0
 10 44  1  0
 15 45  1  0
 15 46  1  0
 15 47  1  0
 18 48  1  1
 19 49  1  6
 20 50  1  0
 22 51  1  1
 23 52  1  0
 23 53  1  0
 24 54  1  0
 25 55  1  1
 26 56  1  0
 27 57  1  1
 29 58  1  0
 34 59  1  0
 41 60  1  0
M  END
>  <filename_input>  (1) 
7XFA_D9J_docked.sdf

>  <pdb_id>  (1) 
7XFA_D9J

>  <pose_rank>  (1) 
0

>  <num_atoms_heavy>  (1) 
41

>  <num_torsions>  (1) 
6

>  <pose>  (1) 
[-19.866859071153762, -8.74089685461686, 1.750516678841269, 3.9272208178915324, -4.459006438009632, 2.0196877855307847, -0.5001371775612785, -3.0121395836135854, 1.9588881382043082, 0.03520027768865021, -0.1363091720532578, -0.6643759666121009]

>  <energy>  (1) 
-984.8387070929488

>  <inter_energy>  (1) 
-1018.1930003665935

>  <intra_energy>  (1) 
31.579582383485118

>  <rmsd>  (1) 
2.14796

>  <sdf_rank>  (1) 
0

$$$$

     RDKit          3D

 60 64  0  0  0  0  0  0  0  0999 V2000
  -20.3503   -9.6017    4.6189 F   0  0  0  0  0  0  0  0  0  0  0  0
  -21.5728   -9.7458    4.9293 C   0  0  1  0  0  0  0  0  0  0  0  0
  -21.9222  -11.0608    4.7112 F   0  0  0  0  0  0  0  0  0  0  0  0
  -21.6665   -9.5296    6.2283 F   0  0  0  0  0  0  0  0  0  0  0  0
  -22.4320   -8.8499    4.1962 C   0  0  0  0  0  0  0  0  0  0  0  0
  -23.1155   -7.8040    4.8588 C   0  0  0  0  0  0  0  0  0  0  0  0
  -23.9557   -6.9297    4.1728 C   0  0  0  0  0  0  0  0  0  0  0  0
  -24.1011   -7.0466    2.7942 C   0  0  0  0  0  0  0  0  0  0  0  0
  -25.0882   -5.9055    1.9432 Cl  0  0  0  0  0  0  0  0  0  0  0  0
  -23.4265   -8.0686    2.1105 C   0  0  0  0  0  0  0  0  0  0  0  0
  -22.6054   -8.9839    2.7930 C   0  0  0  0  0  0  0  0  0  0  0  0
  -21.9881   -9.9429    2.0667 N   0  0  0  0  0  0  0  0  0  0  0  0
  -22.5472  -11.1313    1.7219 N   0  0  0  0  0  0  0  0  0  0  0  0
  -21.6390  -11.7404    0.9660 C   0  0  0  0  0  0  0  0  0  0  0  0
  -21.8660  -13.1233    0.3701 C   0  0  0  0  0  0  0  0  0  0  0  0
  -20.5241  -11.0076    0.8334 N   0  0  0  0  0  0  0  0  0  0  0  0
  -20.7571   -9.9124    1.5448 C   0  0  0  0  0  0  0  0  0  0  0  0
  -19.8365   -8.7308    1.6833 C   0  0  1  0  0  0  0  0  0  0  0  0
  -18.3632   -9.0606    1.4477 C   0  0  2  0  0  0  0  0  0  0  0  0
  -17.9525   -9.9485    2.4975 O   0  0  0  0  0  0  0  0  0  0  0  0
  -20.2881   -7.7653    0.7074 O   0  0  0  0  0  0  0  0  0  0  0  0
  -19.5900   -6.5250    0.8871 C   0  0  2  0  0  0  0  0  0  0  0  0
  -20.2270   -5.5397   -0.1034 C   0  0  0  0  0  0  0  0  0  0  0  0
  -19.7637   -4.2006    0.1026 O   0  0  0  0  0  0  0  0  0  0  0  0
  -18.1143   -6.7220    0.5831 C   0  0  2  0  0  0  0  0  0  0  0  0
  -17.9557   -7.1536   -0.7715 O   0  0  0  0  0  0  0  0  0  0  0  0
  -17.5709   -7.7756    1.5448 C   0  0  2  0  0  0  0  0  0  0  0  0
  -16.1397   -7.9971    1.3422 N   0  0  0  0  0  0  0  0  0  0  0  0
  -15.4245   -8.2712    0.2304 C   0  0  0  0  0  0  0  0  0  0  0  0
  -15.3237   -7.9301    2.4067 N   0  0  0  0  0  0  0  0  0  0  0  0
  -14.1031   -8.1738    1.9501 N   0  0  0  0  0  0  0  0  0  0  0  0
  -14.1358   -8.3748    0.6163 C   0  0  0  0  0  0  0  0  0  0  0  0
  -13.0214   -8.6288   -0.1364 C   0  0  0  0  0  0  0  0  0  0  0  0
  -11.8259   -9.0093    0.5080 C   0  0  0  0  0  0  0  0  0  0  0  0
  -10.6693   -9.2354   -0.2242 C   0  0  0  0  0  0  0  0  0  0  0  0
   -9.5269   -9.6318    0.4002 F   0  0  0  0  0  0  0  0  0  0  0  0
  -10.6554   -9.0485   -1.5894 C   0  0  0  0  0  0  0  0  0  0  0  0
   -9.1877   -9.4000   -2.3267 Cl  0  0  0  0  0  0  0  0  0  0  0  0
  -11.8178   -8.6555   -2.2563 C   0  0  0  0  0  0  0  0  0  0  0  0
  -11.8337   -8.4625   -3.5925 F   0  0  0  0  0  0  0  0  0  0  0  0
  -12.9970   -8.4444   -1.5334 C   0  0  0  0  0  0  0  0  0  0  0  0
  -22.9804   -7.6776    5.9432 H   0  0  0  0  0  0  0  0  0  0  0  0
  -24.5032   -6.1483    4.7202 H   0  0  0  0  0  0  0  0  0  0  0  0
  -23.5418   -8.1559    1.0201 H   0  0  0  0  0  0  0  0  0  0  0  0
  -21.9864  -13.8567    1.1810 H   0  0  0  0  0  0  0  0  0  0  0  0
  -22.7741  -13.1106   -0.2506 H   0  0  0  0  0  0  0  0  0  0  0  0
  -21.0015  -13.4016   -0.2506 H   0  0  0  0  0  0  0  0  0  0  0  0
  -19.8811   -8.3570    2.7169 H   0  0  0  0  0  0  0  0  0  0  0  0
  -18.2033   -9.5236    0.4628 H   0  0  0  0  0  0  0  0  0  0  0  0
  -18.1447   -9.5329    3.3753 H   0  0  0  0  0  0  0  0  0  0  0  0
  -19.6640   -6.1502    1.9186 H   0  0  0  0  0  0  0  0  0  0  0  0
  -19.9725   -5.8504   -1.1275 H   0  0  0  0  0  0  0  0  0  0  0  0
  -21.3154   -5.5520    0.0559 H   0  0  0  0  0  0  0  0  0  0  0  0
  -19.7008   -4.0189    1.0738 H   0  0  0  0  0  0  0  0  0  0  0  0
  -17.5626   -5.7789    0.7110 H   0  0  0  0  0  0  0  0  0  0  0  0
  -17.6144   -8.0828   -0.7840 H   0  0  0  0  0  0  0  0  0  0  0  0
  -17.6928   -7.3935    2.5691 H   0  0  0  0  0  0  0  0  0  0  0  0
  -15.8161   -8.3875   -0.7909 H   0  0  0  0  0  0  0  0  0  0  0  0
  -11.8103   -9.1279    1.6015 H   0  0  0  0  0  0  0  0  0  0  0  0
  -13.9114   -8.1323   -2.0591 H   0  0  0  0  0  0  0  0  0  0  0  0
  2  1  1  6
  2  3  1  0
  2  4  1  0
  2  5  1  0
  5  6  2  0
  5 11  1  0
  6  7  1  0
  7  8  2  0
  8  9  1  0
  8 10  1  0
 10 11  2  0
 11 12  1  0
 12 13  1  0
 12 17  1  0
 13 14  2  0
 14 15  1  0
 14 16  1  0
 16 17  2  0
 18 17  1  0
 18 19  1  0
 18 21  1  0
 19 20  1  0
 19 27  1  0
 21 22  1  0
 22 23  1  0
 22 25  1  0
 23 24  1  0
 25 26  1  0
 25 27  1  0
 27 28  1  0
 28 29  1  0
 28 30  1  0
 29 32  2  0
 30 31  2  0
 31 32  1  0
 32 33  1  0
 33 34  2  0
 33 41  1  0
 34 35  1  0
 35 36  1  0
 35 37  2  0
 37 38  1  0
 37 39  1  0
 39 40  1  0
 39 41  2  0
  6 42  1  0
  7 43  1  0
 10 44  1  0
 15 45  1  0
 15 46  1  0
 15 47  1  0
 18 48  1  1
 19 49  1  6
 20 50  1  0
 22 51  1  1
 23 52  1  0
 23 53  1  0
 24 54  1  0
 25 55  1  6
 26 56  1  0
 27 57  1  1
 29 58  1  0
 34 59  1  0
 41 60  1  0
M  END
>  <filename_input>  (2) 
7XFA_D9J_docked.sdf

>  <pdb_id>  (2) 
7XFA_D9J

>  <pose_rank>  (2) 
1

>  <num_atoms_heavy>  (2) 
41

>  <num_torsions>  (2) 
6

>  <pose>  (2) 
[-19.836522852671493, -8.730797093601737, 1.6832746000088108, 2.9044679629732597, -4.82178049045183, 2.632700018586905, 0.09770130692687926, 0.19826093432384437, 2.171928045014298, 0.18242370934281849, -0.07813007581825557, 1.8545888001088349]

>  <energy>  (2) 
-1143.780995373514

>  <inter_energy>  (2) 
-1171.3848493186983

>  <intra_energy>  (2) 
37.37273111913964

>  <rmsd>  (2) 
0.537606

>  <sdf_rank>  (2) 
0

$$$$

     RDKit          3D

 60 64  0  0  0  0  0  0  0  0999 V2000
  -19.2208  -12.1771    3.1291 F   0  0  0  0  0  0  0  0  0  0  0  0
  -19.8964  -12.3363    4.1921 C   0  0  1  0  0  0  0  0  0  0  0  0
  -20.8512  -13.3017    3.9570 F   0  0  0  0  0  0  0  0  0  0  0  0
  -19.0711  -12.8201    5.1019 F   0  0  0  0  0  0  0  0  0  0  0  0
  -20.4984  -11.1077    4.6460 C   0  0  0  0  0  0  0  0  0  0  0  0
  -20.4204  -10.7266    6.0058 C   0  0  0  0  0  0  0  0  0  0  0  0
  -20.9994   -9.5472    6.4691 C   0  0  0  0  0  0  0  0  0  0  0  0
  -21.6345   -8.6897    5.5765 C   0  0  0  0  0  0  0  0  0  0  0  0
  -22.2829   -7.1902    6.1528 Cl  0  0  0  0  0  0  0  0  0  0  0  0
  -21.7173   -9.0382    4.2206 C   0  0  0  0  0  0  0  0  0  0  0  0
  -21.1725  -10.2435    3.7429 C   0  0  0  0  0  0  0  0  0  0  0  0
  -21.2921  -10.5119    2.4231 N   0  0  0  0  0  0  0  0  0  0  0  0
  -22.0679  -11.4968    1.9019 N   0  0  0  0  0  0  0  0  0  0  0  0
  -21.9502  -11.3758    0.5832 C   0  0  0  0  0  0  0  0  0  0  0  0
  -22.6633  -12.3051   -0.3898 C   0  0  0  0  0  0  0  0  0  0  0  0
  -21.1212  -10.3783    0.2434 N   0  0  0  0  0  0  0  0  0  0  0  0
  -20.7087   -9.8773    1.4004 C   0  0  0  0  0  0  0  0  0  0  0  0
  -19.7980   -8.6938    1.5815 C   0  0  1  0  0  0  0  0  0  0  0  0
  -18.3151   -9.0191    1.4077 C   0  0  2  0  0  0  0  0  0  0  0  0
  -17.9469   -9.9093    2.4712 O   0  0  0  0  0  0  0  0  0  0  0  0
  -20.2103   -7.7263    0.5904 O   0  0  0  0  0  0  0  0  0  0  0  0
  -19.5238   -6.4848    0.8034 C   0  0  2  0  0  0  0  0  0  0  0  0
  -20.1209   -5.4979   -0.2102 C   0  0  0  0  0  0  0  0  0  0  0  0
  -21.3522   -5.9779   -0.7613 O   0  0  0  0  0  0  0  0  0  0  0  0
  -18.0360   -6.6771    0.5617 C   0  0  2  0  0  0  0  0  0  0  0  0
  -17.8190   -7.1039   -0.7863 O   0  0  0  0  0  0  0  0  0  0  0  0
  -17.5312   -7.7325    1.5423 C   0  0  2  0  0  0  0  0  0  0  0  0
  -16.0920   -7.9496    1.3999 N   0  0  0  0  0  0  0  0  0  0  0  0
  -15.3408   -8.3039    0.3356 C   0  0  0  0  0  0  0  0  0  0  0  0
  -15.3091   -7.7840    2.4783 N   0  0  0  0  0  0  0  0  0  0  0  0
  -14.0726   -8.0471    2.0787 N   0  0  0  0  0  0  0  0  0  0  0  0
  -14.0631   -8.3573    0.7656 C   0  0  0  0  0  0  0  0  0  0  0  0
  -12.9239   -8.6565    0.0688 C   0  0  0  0  0  0  0  0  0  0  0  0
  -11.7555   -9.0092    0.7758 C   0  0  0  0  0  0  0  0  0  0  0  0
  -10.5746   -9.2797    0.0996 C   0  0  0  0  0  0  0  0  0  0  0  0
   -9.4587   -9.6488    0.7855 F   0  0  0  0  0  0  0  0  0  0  0  0
  -10.5095   -9.1647   -1.2720 C   0  0  0  0  0  0  0  0  0  0  0  0
   -9.0184   -9.5624   -1.9354 Cl  0  0  0  0  0  0  0  0  0  0  0  0
  -11.6439   -8.8009   -2.0010 C   0  0  0  0  0  0  0  0  0  0  0  0
  -11.6094   -8.6783   -3.3451 F   0  0  0  0  0  0  0  0  0  0  0  0
  -12.8470   -8.5458   -1.3340 C   0  0  0  0  0  0  0  0  0  0  0  0
  -19.8890  -11.3779    6.7155 H   0  0  0  0  0  0  0  0  0  0  0  0
  -20.9546   -9.2945    7.5388 H   0  0  0  0  0  0  0  0  0  0  0  0
  -22.2178   -8.3560    3.5177 H   0  0  0  0  0  0  0  0  0  0  0  0
  -23.2384  -13.0546    0.1737 H   0  0  0  0  0  0  0  0  0  0  0  0
  -23.3458  -11.7193   -1.0230 H   0  0  0  0  0  0  0  0  0  0  0  0
  -21.9207  -12.8128   -1.0230 H   0  0  0  0  0  0  0  0  0  0  0  0
  -19.8874   -8.3235    2.6135 H   0  0  0  0  0  0  0  0  0  0  0  0
  -18.1123   -9.4785    0.4290 H   0  0  0  0  0  0  0  0  0  0  0  0
  -18.1267   -9.4748    3.3424 H   0  0  0  0  0  0  0  0  0  0  0  0
  -19.6426   -6.1136    1.8321 H   0  0  0  0  0  0  0  0  0  0  0  0
  -20.3075   -4.5387    0.2950 H   0  0  0  0  0  0  0  0  0  0  0  0
  -19.4021   -5.3791   -1.0342 H   0  0  0  0  0  0  0  0  0  0  0  0
  -21.9707   -6.2191   -0.0269 H   0  0  0  0  0  0  0  0  0  0  0  0
  -17.4928   -5.7331    0.7158 H   0  0  0  0  0  0  0  0  0  0  0  0
  -17.3703   -7.9863   -0.7849 H   0  0  0  0  0  0  0  0  0  0  0  0
  -17.6974   -7.3540    2.5617 H   0  0  0  0  0  0  0  0  0  0  0  0
  -15.7004   -8.5092   -0.6836 H   0  0  0  0  0  0  0  0  0  0  0  0
  -11.7808   -9.0703    1.8738 H   0  0  0  0  0  0  0  0  0  0  0  0
  -13.7394   -8.2567   -1.9087 H   0  0  0  0  0  0  0  0  0  0  0  0
  2  1  1  6
  2  3  1  0
  2  4  1  0
  2  5  1  0
  5  6  2  0
  5 11  1  0
  6  7  1  0
  7  8  2  0
  8  9  1  0
  8 10  1  0
 10 11  2  0
 11 12  1  0
 12 13  1  0
 12 17  1  0
 13 14  2  0
 14 15  1  0
 14 16  1  0
 16 17  2  0
 18 17  1  0
 18 19  1  0
 18 21  1  0
 19 20  1  0
 19 27  1  0
 21 22  1  0
 22 23  1  0
 22 25  1  0
 23 24  1  0
 25 26  1  0
 25 27  1  0
 27 28  1  0
 28 29  1  0
 28 30  1  0
 29 32  2  0
 30 31  2  0
 31 32  1  0
 32 33  1  0
 33 34  2  0
 33 41  1  0
 34 35  1  0
 35 36  1  0
 35 37  2  0
 37 38  1  0
 37 39  1  0
 39 40  1  0
 39 41  2  0
  6 42  1  0
  7 43  1  0
 10 44  1  0
 15 45  1  0
 15 46  1  0
 15 47  1  0
 18 48  1  1
 19 49  1  6
 20 50  1  0
 22 51  1  1
 23 52  1  0
 23 53  1  0
 24 54  1  0
 25 55  1  1
 26 56  1  0
 27 57  1  1
 29 58  1  0
 34 59  1  0
 41 60  1  0
M  END
>  <filename_input>  (3) 
7XFA_D9J_docked.sdf

>  <pdb_id>  (3) 
7XFA_D9J

>  <pose_rank>  (3) 
2

>  <num_atoms_heavy>  (3) 
41

>  <num_torsions>  (3) 
6

>  <pose>  (3) 
[-19.798021796515794, -8.693829985839077, 1.5815271897195056, 4.347690359705311, -1.6900051352635508, 4.148191685537698, 5.401375187682666, 6.025971006442877, 1.801911755288586, -6.187901969032307, -0.04174738925626162, -0.8643775772372327]

>  <energy>  (3) 
-1001.1192340033884

>  <inter_energy>  (3) 
-1036.1899423024847

>  <intra_energy>  (3) 
48.09512651968373

>  <rmsd>  (3) 
1.80459

>  <sdf_rank>  (3) 
0

$$$$

     RDKit          3D

 60 64  0  0  0  0  0  0  0  0999 V2000
  -24.4803   -7.0702    1.6860 F   0  0  0  0  0  0  0  0  0  0  0  0
  -24.2205   -8.3090    1.7832 C   0  0  1  0  0  0  0  0  0  0  0  0
  -25.3956   -9.0110    1.6238 F   0  0  0  0  0  0  0  0  0  0  0  0
  -23.4420   -8.6187    0.7629 F   0  0  0  0  0  0  0  0  0  0  0  0
  -23.5831   -8.6371    3.0338 C   0  0  0  0  0  0  0  0  0  0  0  0
  -23.9540   -7.9744    4.2270 C   0  0  0  0  0  0  0  0  0  0  0  0
  -23.3482   -8.2700    5.4462 C   0  0  0  0  0  0  0  0  0  0  0  0
  -22.3849   -9.2712    5.5169 C   0  0  0  0  0  0  0  0  0  0  0  0
  -21.6953   -9.6812    7.0522 Cl  0  0  0  0  0  0  0  0  0  0  0  0
  -22.0058   -9.9515    4.3506 C   0  0  0  0  0  0  0  0  0  0  0  0
  -22.5789   -9.6388    3.1050 C   0  0  0  0  0  0  0  0  0  0  0  0
  -22.1622  -10.3367    2.0245 N   0  0  0  0  0  0  0  0  0  0  0  0
  -22.8260  -11.3894    1.4812 N   0  0  0  0  0  0  0  0  0  0  0  0
  -22.1173  -11.7372    0.4116 C   0  0  0  0  0  0  0  0  0  0  0  0
  -22.5156  -12.8972   -0.4910 C   0  0  0  0  0  0  0  0  0  0  0  0
  -21.0261  -10.9725    0.2630 N   0  0  0  0  0  0  0  0  0  0  0  0
  -21.0649  -10.1313    1.2880 C   0  0  0  0  0  0  0  0  0  0  0  0
  -20.0904   -9.0183    1.5609 C   0  0  1  0  0  0  0  0  0  0  0  0
  -18.6300   -9.3993    1.3225 C   0  0  2  0  0  0  0  0  0  0  0  0
  -18.2896  -10.4059    2.2868 O   0  0  0  0  0  0  0  0  0  0  0  0
  -20.4695   -7.9397    0.6769 O   0  0  0  0  0  0  0  0  0  0  0  0
  -19.7152   -6.7608    0.9923 C   0  0  2  0  0  0  0  0  0  0  0  0
  -20.2782   -5.6514    0.0922 C   0  0  0  0  0  0  0  0  0  0  0  0
  -19.3435   -4.5813   -0.0846 O   0  0  0  0  0  0  0  0  0  0  0  0
  -18.2441   -7.0033    0.6990 C   0  0  2  0  0  0  0  0  0  0  0  0
  -18.0741   -7.3076   -0.6884 O   0  0  0  0  0  0  0  0  0  0  0  0
  -17.7775   -8.1729    1.5619 C   0  0  2  0  0  0  0  0  0  0  0  0
  -16.3545   -8.4473    1.3661 N   0  0  0  0  0  0  0  0  0  0  0  0
  -15.5623   -8.3360    0.2786 C   0  0  0  0  0  0  0  0  0  0  0  0
  -15.6377   -8.8916    2.4113 N   0  0  0  0  0  0  0  0  0  0  0  0
  -14.4020   -9.0640    1.9629 N   0  0  0  0  0  0  0  0  0  0  0  0
  -14.3264   -8.7192    0.6606 C   0  0  0  0  0  0  0  0  0  0  0  0
  -13.1695   -8.7733   -0.0686 C   0  0  0  0  0  0  0  0  0  0  0  0
  -13.2303   -9.1238   -1.4335 C   0  0  0  0  0  0  0  0  0  0  0  0
  -12.0714   -9.2254   -2.1894 C   0  0  0  0  0  0  0  0  0  0  0  0
  -12.1389   -9.5343   -3.5131 F   0  0  0  0  0  0  0  0  0  0  0  0
  -10.8365   -9.0302   -1.6101 C   0  0  0  0  0  0  0  0  0  0  0  0
   -9.5405   -9.1543   -2.6715 Cl  0  0  0  0  0  0  0  0  0  0  0  0
  -10.7401   -8.6987   -0.2568 C   0  0  0  0  0  0  0  0  0  0  0  0
   -9.5439   -8.5037    0.3383 F   0  0  0  0  0  0  0  0  0  0  0  0
  -11.9016   -8.5720    0.5128 C   0  0  0  0  0  0  0  0  0  0  0  0
  -24.7405   -7.2062    4.1914 H   0  0  0  0  0  0  0  0  0  0  0  0
  -23.6310   -7.7126    6.3514 H   0  0  0  0  0  0  0  0  0  0  0  0
  -21.2458  -10.7445    4.4112 H   0  0  0  0  0  0  0  0  0  0  0  0
  -22.8111  -13.7579    0.1269 H   0  0  0  0  0  0  0  0  0  0  0  0
  -23.3611  -12.5941   -1.1260 H   0  0  0  0  0  0  0  0  0  0  0  0
  -21.6622  -13.1775   -1.1260 H   0  0  0  0  0  0  0  0  0  0  0  0
  -20.1417   -8.7459    2.6254 H   0  0  0  0  0  0  0  0  0  0  0  0
  -18.4692   -9.7712    0.2998 H   0  0  0  0  0  0  0  0  0  0  0  0
  -18.4123  -10.0432    3.1998 H   0  0  0  0  0  0  0  0  0  0  0  0
  -19.7958   -6.4856    2.0543 H   0  0  0  0  0  0  0  0  0  0  0  0
  -20.5185   -6.0798   -0.8921 H   0  0  0  0  0  0  0  0  0  0  0  0
  -21.1769   -5.2424    0.5769 H   0  0  0  0  0  0  0  0  0  0  0  0
  -19.0523   -4.2478    0.8010 H   0  0  0  0  0  0  0  0  0  0  0  0
  -17.6496   -6.1072    0.9305 H   0  0  0  0  0  0  0  0  0  0  0  0
  -17.5934   -8.1681   -0.7810 H   0  0  0  0  0  0  0  0  0  0  0  0
  -17.9053   -7.8872    2.6164 H   0  0  0  0  0  0  0  0  0  0  0  0
  -15.8654   -7.9987   -0.7236 H   0  0  0  0  0  0  0  0  0  0  0  0
  -14.2059   -9.3184   -1.9030 H   0  0  0  0  0  0  0  0  0  0  0  0
  -11.8246   -8.3134    1.5792 H   0  0  0  0  0  0  0  0  0  0  0  0
  2  1  1  1
  2  3  1  0
  2  4  1  0
  2  5  1  0
  5  6  2  0
  5 11  1  0
  6  7  1  0
  7  8  2  0
  8  9  1  0
  8 10  1  0
 10 11  2  0
 11 12  1  0
 12 13  1  0
 12 17  1  0
 13 14  2  0
 14 15  1  0
 14 16  1  0
 16 17  2  0
 18 17  1  0
 18 19  1  0
 18 21  1  0
 19 20  1  0
 19 27  1  0
 21 22  1  0
 22 23  1  0
 22 25  1  0
 23 24  1  0
 25 26  1  0
 25 27  1  0
 27 28  1  0
 28 29  1  0
 28 30  1  0
 29 32  2  0
 30 31  2  0
 31 32  1  0
 32 33  1  0
 33 34  2  0
 33 41  1  0
 34 35  1  0
 35 36  1  0
 35 37  2  0
 37 38  1  0
 37 39  1  0
 39 40  1  0
 39 41  2  0
  6 42  1  0
  7 43  1  0
 10 44  1  0
 15 45  1  0
 15 46  1  0
 15 47  1  0
 18 48  1  1
 19 49  1  6
 20 50  1  0
 22 51  1  1
 23 52  1  0
 23 53  1  0
 24 54  1  0
 25 55  1  1
 26 56  1  0
 27 57  1  1
 29 58  1  0
 34 59  1  0
 41 60  1  0
M  END
>  <filename_input>  (4) 
7XFA_D9J_docked.sdf

>  <pdb_id>  (4) 
7XFA_D9J

>  <pose_rank>  (4) 
3

>  <num_atoms_heavy>  (4) 
41

>  <num_torsions>  (4) 
6

>  <pose>  (4) 
[-20.090428150369103, -9.018298028922464, 1.5608618759482014, -3.8738874612838656, -1.9135002219645214, 4.4107674785016036, -0.2075729790620823, -2.8670459091523384, -1.5113625639222201, -5.7827286802479065, 2.190907287383344, 2.3875128095978506]

>  <energy>  (4) 
-886.4314277669769

>  <inter_energy>  (4) 
-946.6567344311106

>  <intra_energy>  (4) 
63.80393410406985

>  <rmsd>  (4) 
2.20754

>  <sdf_rank>  (4) 
0

$$$$

     RDKit          3D

 60 64  0  0  0  0  0  0  0  0999 V2000
  -21.4827  -10.9715    1.6930 F   0  0  0  0  0  0  0  0  0  0  0  0
  -21.2407  -11.9743    0.9531 C   0  0  1  0  0  0  0  0  0  0  0  0
  -21.7906  -13.0909    1.5447 F   0  0  0  0  0  0  0  0  0  0  0  0
  -21.8867  -11.7783   -0.1815 F   0  0  0  0  0  0  0  0  0  0  0  0
  -19.8297  -12.1513    0.7169 C   0  0  0  0  0  0  0  0  0  0  0  0
  -19.3235  -12.2234   -0.6017 C   0  0  0  0  0  0  0  0  0  0  0  0
  -17.9649  -12.4002   -0.8548 C   0  0  0  0  0  0  0  0  0  0  0  0
  -17.0651  -12.4634    0.2043 C   0  0  0  0  0  0  0  0  0  0  0  0
  -15.3706  -12.6061   -0.1266 Cl  0  0  0  0  0  0  0  0  0  0  0  0
  -17.5389  -12.3841    1.5218 C   0  0  0  0  0  0  0  0  0  0  0  0
  -18.9113  -12.2450    1.7961 C   0  0  0  0  0  0  0  0  0  0  0  0
  -19.2931  -12.1765    3.0914 N   0  0  0  0  0  0  0  0  0  0  0  0
  -19.6576  -13.2440    3.8472 N   0  0  0  0  0  0  0  0  0  0  0  0
  -19.8914  -12.7520    5.0600 C   0  0  0  0  0  0  0  0  0  0  0  0
  -20.3392  -13.6257    6.2241 C   0  0  0  0  0  0  0  0  0  0  0  0
  -19.7154  -11.4236    5.1046 N   0  0  0  0  0  0  0  0  0  0  0  0
  -19.3704  -11.0902    3.8678 C   0  0  0  0  0  0  0  0  0  0  0  0
  -19.0042   -9.7120    3.3889 C   0  0  1  0  0  0  0  0  0  0  0  0
  -17.5754   -9.5979    2.8594 C   0  0  2  0  0  0  0  0  0  0  0  0
  -16.6915   -9.8297    3.9658 O   0  0  0  0  0  0  0  0  0  0  0  0
  -19.9461   -9.3986    2.3386 O   0  0  0  0  0  0  0  0  0  0  0  0
  -19.7985   -8.0278    1.9422 C   0  0  2  0  0  0  0  0  0  0  0  0
  -20.9178   -7.7644    0.9245 C   0  0  0  0  0  0  0  0  0  0  0  0
  -21.2369   -6.3717    0.8301 O   0  0  0  0  0  0  0  0  0  0  0  0
  -18.4317   -7.8242    1.3104 C   0  0  2  0  0  0  0  0  0  0  0  0
  -18.3067   -8.6590    0.1554 O   0  0  0  0  0  0  0  0  0  0  0  0
  -17.3731   -8.1887    2.3480 C   0  0  2  0  0  0  0  0  0  0  0  0
  -16.0218   -7.9825    1.8284 N   0  0  0  0  0  0  0  0  0  0  0  0
  -15.3164   -8.6382    0.8824 C   0  0  0  0  0  0  0  0  0  0  0  0
  -15.2878   -6.9772    2.3324 N   0  0  0  0  0  0  0  0  0  0  0  0
  -14.1226   -7.0205    1.7014 N   0  0  0  0  0  0  0  0  0  0  0  0
  -14.1185   -8.0230    0.7984 C   0  0  0  0  0  0  0  0  0  0  0  0
  -13.0556   -8.2992   -0.0182 C   0  0  0  0  0  0  0  0  0  0  0  0
  -11.7506   -8.2751    0.5163 C   0  0  0  0  0  0  0  0  0  0  0  0
  -10.6501   -8.5120   -0.2947 C   0  0  0  0  0  0  0  0  0  0  0  0
   -9.3957   -8.5173    0.2330 F   0  0  0  0  0  0  0  0  0  0  0  0
  -10.8085   -8.7303   -1.6460 C   0  0  0  0  0  0  0  0  0  0  0  0
   -9.3801   -9.0360   -2.4754 Cl  0  0  0  0  0  0  0  0  0  0  0  0
  -12.0859   -8.7437   -2.2103 C   0  0  0  0  0  0  0  0  0  0  0  0
  -12.2715   -8.9529   -3.5312 F   0  0  0  0  0  0  0  0  0  0  0  0
  -13.2063   -8.5274   -1.4008 C   0  0  0  0  0  0  0  0  0  0  0  0
  -20.0199  -12.1378   -1.4488 H   0  0  0  0  0  0  0  0  0  0  0  0
  -17.6044  -12.4895   -1.8902 H   0  0  0  0  0  0  0  0  0  0  0  0
  -16.8239  -12.4317    2.3564 H   0  0  0  0  0  0  0  0  0  0  0  0
  -20.0854  -13.1306    7.1730 H   0  0  0  0  0  0  0  0  0  0  0  0
  -21.4271  -13.7792    6.1701 H   0  0  0  0  0  0  0  0  0  0  0  0
  -19.8285  -14.5985    6.1701 H   0  0  0  0  0  0  0  0  0  0  0  0
  -19.0490   -9.0113    4.2357 H   0  0  0  0  0  0  0  0  0  0  0  0
  -17.3832  -10.3189    2.0512 H   0  0  0  0  0  0  0  0  0  0  0  0
  -17.1843   -9.7004    4.8146 H   0  0  0  0  0  0  0  0  0  0  0  0
  -19.8706   -7.3368    2.7951 H   0  0  0  0  0  0  0  0  0  0  0  0
  -20.5917   -8.1222   -0.0632 H   0  0  0  0  0  0  0  0  0  0  0  0
  -21.8183   -8.2982    1.2624 H   0  0  0  0  0  0  0  0  0  0  0  0
  -21.3242   -5.9908    1.7396 H   0  0  0  0  0  0  0  0  0  0  0  0
  -18.3020   -6.7784    0.9951 H   0  0  0  0  0  0  0  0  0  0  0  0
  -18.1662   -9.5968    0.4397 H   0  0  0  0  0  0  0  0  0  0  0  0
  -17.4923   -7.5100    3.2055 H   0  0  0  0  0  0  0  0  0  0  0  0
  -15.6527   -9.5051    0.2946 H   0  0  0  0  0  0  0  0  0  0  0  0
  -11.6040   -8.0664    1.5863 H   0  0  0  0  0  0  0  0  0  0  0  0
  -14.2119   -8.5355   -1.8465 H   0  0  0  0  0  0  0  0  0  0  0  0
  2  1  1  1
  2  3  1  0
  2  4  1  0
  2  5  1  0
  5  6  2  0
  5 11  1  0
  6  7  1  0
  7  8  2  0
  8  9  1  0
  8 10  1  0
 10 11  2  0
 11 12  1  0
 12 13  1  0
 12 17  1  0
 13 14  2  0
 14 15  1  0
 14 16  1  0
 16 17  2  0
 18 17  1  0
 18 19  1  0
 18 21  1  0
 19 20  1  0
 19 27  1  0
 21 22  1  0
 22 23  1  0
 22 25  1  0
 23 24  1  0
 25 26  1  0
 25 27  1  0
 27 28  1  0
 28 29  1  0
 28 30  1  0
 29 32  2  0
 30 31  2  0
 31 32  1  0
 32 33  1  0
 33 34  2  0
 33 41  1  0
 34 35  1  0
 35 36  1  0
 35 37  2  0
 37 38  1  0
 37 39  1  0
 39 40  1  0
 39 41  2  0
  6 42  1  0
  7 43  1  0
 10 44  1  0
 15 45  1  0
 15 46  1  0
 15 47  1  0
 18 48  1  1
 19 49  1  6
 20 50  1  0
 22 51  1  1
 23 52  1  0
 23 53  1  0
 24 54  1  0
 25 55  1  6
 26 56  1  0
 27 57  1  1
 29 58  1  0
 34 59  1  0
 41 60  1  0
M  END
>  <filename_input>  (5) 
7XFA_D9J_docked.sdf

>  <pdb_id>  (5) 
7XFA_D9J

>  <pose_rank>  (5) 
4

>  <num_atoms_heavy>  (5) 
41

>  <num_torsions>  (5) 
6

>  <pose>  (5) 
[-19.004240597701322, -9.71198694901079, 3.3889263121490196, 3.81316713731429, -2.505801772039475, -3.389405620198581, 2.5864166352165348, 0.07880200141225235, -4.335034722948643, -0.13506348539063262, 0.4027884325287809, 1.6088660263086347]

>  <energy>  (5) 
-607.4830200095203

>  <inter_energy>  (5) 
-704.05750970243

>  <intra_energy>  (5) 
95.42524925774124

>  <rmsd>  (5) 
4.18498

>  <sdf_rank>  (5) 
0

$$$$

     RDKit          3D

 60 64  0  0  0  0  0  0  0  0999 V2000
  -22.1975  -11.7261    3.6911 F   0  0  0  0  0  0  0  0  0  0  0  0
  -21.8800  -10.6021    4.1888 C   0  0  1  0  0  0  0  0  0  0  0  0
  -22.0441  -10.6724    5.5552 F   0  0  0  0  0  0  0  0  0  0  0  0
  -20.5907  -10.4325    3.9609 F   0  0  0  0  0  0  0  0  0  0  0  0
  -22.6479   -9.5193    3.6268 C   0  0  0  0  0  0  0  0  0  0  0  0
  -23.3241   -8.6039    4.4666 C   0  0  0  0  0  0  0  0  0  0  0  0
  -24.0772   -7.5534    3.9468 C   0  0  0  0  0  0  0  0  0  0  0  0
  -24.1384   -7.3591    2.5706 C   0  0  0  0  0  0  0  0  0  0  0  0
  -25.0151   -6.0041    1.9411 Cl  0  0  0  0  0  0  0  0  0  0  0  0
  -23.4687   -8.2459    1.7151 C   0  0  0  0  0  0  0  0  0  0  0  0
  -22.7363   -9.3345    2.2215 C   0  0  0  0  0  0  0  0  0  0  0  0
  -22.1181  -10.1474    1.3352 N   0  0  0  0  0  0  0  0  0  0  0  0
  -22.6708  -11.2634    0.7942 N   0  0  0  0  0  0  0  0  0  0  0  0
  -21.7648  -11.7239   -0.0628 C   0  0  0  0  0  0  0  0  0  0  0  0
  -21.9861  -12.9848   -0.8873 C   0  0  0  0  0  0  0  0  0  0  0  0
  -20.6571  -10.9685   -0.0751 N   0  0  0  0  0  0  0  0  0  0  0  0
  -20.8923  -10.0152    0.8169 C   0  0  0  0  0  0  0  0  0  0  0  0
  -19.9801   -8.8667    1.1508 C   0  0  1  0  0  0  0  0  0  0  0  0
  -18.5012   -9.1538    0.8950 C   0  0  2  0  0  0  0  0  0  0  0  0
  -18.1051  -10.1904    1.8047 O   0  0  0  0  0  0  0  0  0  0  0  0
  -20.4187   -7.7646    0.3252 O   0  0  0  0  0  0  0  0  0  0  0  0
  -19.7299   -6.5648    0.7046 C   0  0  2  0  0  0  0  0  0  0  0  0
  -20.3538   -5.4413   -0.1359 C   0  0  0  0  0  0  0  0  0  0  0  0
  -20.8460   -5.9237   -1.3909 O   0  0  0  0  0  0  0  0  0  0  0  0
  -18.2480   -6.7102    0.4014 C   0  0  2  0  0  0  0  0  0  0  0  0
  -18.0631   -6.9300   -1.0000 O   0  0  0  0  0  0  0  0  0  0  0  0
  -17.7170   -7.8970    1.2013 C   0  0  2  0  0  0  0  0  0  0  0  0
  -16.2813   -8.0821    0.9937 N   0  0  0  0  0  0  0  0  0  0  0  0
  -15.2235   -7.3036    1.3066 C   0  0  0  0  0  0  0  0  0  0  0  0
  -15.8604   -9.2059    0.3909 N   0  0  0  0  0  0  0  0  0  0  0  0
  -14.5395   -9.1143    0.3234 N   0  0  0  0  0  0  0  0  0  0  0  0
  -14.1227   -7.9622    0.8886 C   0  0  0  0  0  0  0  0  0  0  0  0
  -12.8059   -7.6015    0.9845 C   0  0  0  0  0  0  0  0  0  0  0  0
  -11.8086   -8.5895    0.8490 C   0  0  0  0  0  0  0  0  0  0  0  0
  -10.4668   -8.2620    0.9801 C   0  0  0  0  0  0  0  0  0  0  0  0
   -9.5078   -9.2139    0.8183 F   0  0  0  0  0  0  0  0  0  0  0  0
  -10.0859   -6.9745    1.2901 C   0  0  0  0  0  0  0  0  0  0  0  0
   -8.4249   -6.7400    1.3765 Cl  0  0  0  0  0  0  0  0  0  0  0  0
  -11.0494   -5.9758    1.4478 C   0  0  0  0  0  0  0  0  0  0  0  0
  -10.7061   -4.7063    1.7536 F   0  0  0  0  0  0  0  0  0  0  0  0
  -12.4051   -6.2872    1.2975 C   0  0  0  0  0  0  0  0  0  0  0  0
  -23.2536   -8.7245    5.5577 H   0  0  0  0  0  0  0  0  0  0  0  0
  -24.6224   -6.8788    4.6233 H   0  0  0  0  0  0  0  0  0  0  0  0
  -23.5173   -8.0871    0.6277 H   0  0  0  0  0  0  0  0  0  0  0  0
  -22.1365  -13.8416   -0.2139 H   0  0  0  0  0  0  0  0  0  0  0  0
  -22.8755  -12.8566   -1.5218 H   0  0  0  0  0  0  0  0  0  0  0  0
  -21.1063  -13.1672   -1.5218 H   0  0  0  0  0  0  0  0  0  0  0  0
  -20.0450   -8.6549    2.2282 H   0  0  0  0  0  0  0  0  0  0  0  0
  -18.3214   -9.4610   -0.1458 H   0  0  0  0  0  0  0  0  0  0  0  0
  -18.2252   -9.8760    2.7357 H   0  0  0  0  0  0  0  0  0  0  0  0
  -19.8242   -6.3517    1.7796 H   0  0  0  0  0  0  0  0  0  0  0  0
  -21.1885   -4.9980    0.4268 H   0  0  0  0  0  0  0  0  0  0  0  0
  -19.5724   -4.6946   -0.3405 H   0  0  0  0  0  0  0  0  0  0  0  0
  -21.5439   -6.6074   -1.2309 H   0  0  0  0  0  0  0  0  0  0  0  0
  -17.7033   -5.7965    0.6816 H   0  0  0  0  0  0  0  0  0  0  0  0
  -17.4319   -7.6804   -1.1358 H   0  0  0  0  0  0  0  0  0  0  0  0
  -17.8590   -7.6757    2.2694 H   0  0  0  0  0  0  0  0  0  0  0  0
  -15.2534   -6.3235    1.8050 H   0  0  0  0  0  0  0  0  0  0  0  0
  -12.0973   -9.6297    0.6373 H   0  0  0  0  0  0  0  0  0  0  0  0
  -13.1634   -5.5006    1.4246 H   0  0  0  0  0  0  0  0  0  0  0  0
  2  1  1  6
  2  3  1  0
  2  4  1  0
  2  5  1  0
  5  6  2  0
  5 11  1  0
  6  7  1  0
  7  8  2  0
  8  9  1  0
  8 10  1  0
 10 11  2  0
 11 12  1  0
 12 13  1  0
 12 17  1  0
 13 14  2  0
 14 15  1  0
 14 16  1  0
 16 17  2  0
 18 17  1  0
 18 19  1  0
 18 21  1  0
 19 20  1  0
 19 27  1  0
 21 22  1  0
 22 23  1  0
 22 25  1  0
 23 24  1  0
 25 26  1  0
 25 27  1  0
 27 28  1  0
 28 29  1  0
 28 30  1  0
 29 32  2  0
 30 31  2  0
 31 32  1  0
 32 33  1  0
 33 34  2  0
 33 41  1  0
 34 35  1  0
 35 36  1  0
 35 37  2  0
 37 38  1  0
 37 39  1  0
 39 40  1  0
 39 41  2  0
  6 42  1  0
  7 43  1  0
 10 44  1  0
 15 45  1  0
 15 46  1  0
 15 47  1  0
 18 48  1  1
 19 49  1  6
 20 50  1  0
 22 51  1  1
 23 52  1  0
 23 53  1  0
 24 54  1  0
 25 55  1  1
 26 56  1  0
 27 57  1  1
 29 58  1  0
 34 59  1  0
 41 60  1  0
M  END
>  <filename_input>  (6) 
7XFA_D9J_docked.sdf

>  <pdb_id>  (6) 
7XFA_D9J

>  <pose_rank>  (6) 
5

>  <num_atoms_heavy>  (6) 
41

>  <num_torsions>  (6) 
6

>  <pose>  (6) 
[-19.980053800670298, -8.866673723274905, 1.1507815474755503, -5.794756920626565, -1.788318824817187, 1.0510075128569276, -12.503206403132657, 0.09522686257763846, -6.194794180887386, 2.213768762518984, 5.613493180754108, -1.6430977679548027]

>  <energy>  (6) 
-861.4538215485346

>  <inter_energy>  (6) 
-892.9164163524672

>  <intra_energy>  (6) 
40.61472564412581

>  <rmsd>  (6) 
1.78392

>  <sdf_rank>  (6) 
0

$$$$

     RDKit          3D

 60 64  0  0  0  0  0  0  0  0999 V2000
  -24.8691   -7.8082    1.6094 F   0  0  0  0  0  0  0  0  0  0  0  0
  -24.0761   -8.7936    1.7183 C   0  0  1  0  0  0  0  0  0  0  0  0
  -24.7722   -9.9440    1.4166 F   0  0  0  0  0  0  0  0  0  0  0  0
  -23.1502   -8.6451    0.7891 F   0  0  0  0  0  0  0  0  0  0  0  0
  -23.4807   -8.8735    3.0288 C   0  0  0  0  0  0  0  0  0  0  0  0
  -24.0046   -8.1203    4.1051 C   0  0  0  0  0  0  0  0  0  0  0  0
  -23.4426   -8.1764    5.3787 C   0  0  0  0  0  0  0  0  0  0  0  0
  -22.3674   -9.0240    5.6251 C   0  0  0  0  0  0  0  0  0  0  0  0
  -21.7275   -9.1415    7.2307 Cl  0  0  0  0  0  0  0  0  0  0  0  0
  -21.8348   -9.7900    4.5781 C   0  0  0  0  0  0  0  0  0  0  0  0
  -22.3650   -9.7161    3.2776 C   0  0  0  0  0  0  0  0  0  0  0  0
  -21.7982  -10.4836    2.3195 N   0  0  0  0  0  0  0  0  0  0  0  0
  -22.3131  -11.6536    1.8613 N   0  0  0  0  0  0  0  0  0  0  0  0
  -21.4907  -12.0436    0.8924 C   0  0  0  0  0  0  0  0  0  0  0  0
  -21.7031  -13.3323    0.1094 C   0  0  0  0  0  0  0  0  0  0  0  0
  -20.4687  -11.1913    0.7290 N   0  0  0  0  0  0  0  0  0  0  0  0
  -20.6696  -10.2492    1.6412 C   0  0  0  0  0  0  0  0  0  0  0  0
  -19.8304   -9.0177    1.8457 C   0  0  1  0  0  0  0  0  0  0  0  0
  -18.3257   -9.2709    1.7631 C   0  0  2  0  0  0  0  0  0  0  0  0
  -17.9756  -10.1194    2.8661 O   0  0  0  0  0  0  0  0  0  0  0  0
  -20.2326   -8.0927    0.8107 O   0  0  0  0  0  0  0  0  0  0  0  0
  -19.6216   -6.8139    1.0331 C   0  0  2  0  0  0  0  0  0  0  0  0
  -20.2077   -5.8794   -0.0351 C   0  0  0  0  0  0  0  0  0  0  0  0
  -19.8423   -4.5137    0.1915 O   0  0  0  0  0  0  0  0  0  0  0  0
  -18.1147   -6.9354    0.8801 C   0  0  2  0  0  0  0  0  0  0  0  0
  -17.7999   -7.3780   -0.4433 O   0  0  0  0  0  0  0  0  0  0  0  0
  -17.6154   -7.9436    1.9117 C   0  0  2  0  0  0  0  0  0  0  0  0
  -16.1615   -8.0904    1.8556 N   0  0  0  0  0  0  0  0  0  0  0  0
  -15.1628   -7.2669    2.2392 C   0  0  0  0  0  0  0  0  0  0  0  0
  -15.6508   -9.2226    1.3449 N   0  0  0  0  0  0  0  0  0  0  0  0
  -14.3329   -9.0913    1.4051 N   0  0  0  0  0  0  0  0  0  0  0  0
  -14.0074   -7.9055    1.9604 C   0  0  0  0  0  0  0  0  0  0  0  0
  -12.7177   -7.4993    2.1713 C   0  0  0  0  0  0  0  0  0  0  0  0
  -12.0234   -6.8416    1.1346 C   0  0  0  0  0  0  0  0  0  0  0  0
  -10.7025   -6.4528    1.3042 C   0  0  0  0  0  0  0  0  0  0  0  0
  -10.0475   -5.7916    0.3113 F   0  0  0  0  0  0  0  0  0  0  0  0
  -10.0304   -6.7422    2.4718 C   0  0  0  0  0  0  0  0  0  0  0  0
   -8.4520   -6.1703    2.5284 Cl  0  0  0  0  0  0  0  0  0  0  0  0
  -10.6834   -7.4075    3.5117 C   0  0  0  0  0  0  0  0  0  0  0  0
  -10.0499   -7.7063    4.6660 F   0  0  0  0  0  0  0  0  0  0  0  0
  -12.0219   -7.7868    3.3627 C   0  0  0  0  0  0  0  0  0  0  0  0
  -24.8778   -7.4739    3.9324 H   0  0  0  0  0  0  0  0  0  0  0  0
  -23.8484   -7.5515    6.1880 H   0  0  0  0  0  0  0  0  0  0  0  0
  -20.9864  -10.4612    4.7777 H   0  0  0  0  0  0  0  0  0  0  0  0
  -21.8409  -14.1687    0.8104 H   0  0  0  0  0  0  0  0  0  0  0  0
  -22.5971  -13.2335   -0.5239 H   0  0  0  0  0  0  0  0  0  0  0  0
  -20.8247  -13.5256   -0.5239 H   0  0  0  0  0  0  0  0  0  0  0  0
  -19.9971   -8.6314    2.8621 H   0  0  0  0  0  0  0  0  0  0  0  0
  -18.0447   -9.7393    0.8084 H   0  0  0  0  0  0  0  0  0  0  0  0
  -18.1687   -9.6514    3.7168 H   0  0  0  0  0  0  0  0  0  0  0  0
  -19.8174   -6.4283    2.0446 H   0  0  0  0  0  0  0  0  0  0  0  0
  -19.8333   -6.1887   -1.0221 H   0  0  0  0  0  0  0  0  0  0  0  0
  -21.3042   -5.9514    0.0136 H   0  0  0  0  0  0  0  0  0  0  0  0
  -19.7962   -4.3416    1.1653 H   0  0  0  0  0  0  0  0  0  0  0  0
  -17.6286   -5.9621    1.0425 H   0  0  0  0  0  0  0  0  0  0  0  0
  -17.2268   -8.1838   -0.3942 H   0  0  0  0  0  0  0  0  0  0  0  0
  -17.8583   -7.5534    2.9111 H   0  0  0  0  0  0  0  0  0  0  0  0
  -15.2701   -6.2697    2.6910 H   0  0  0  0  0  0  0  0  0  0  0  0
  -12.5342   -6.6350    0.1825 H   0  0  0  0  0  0  0  0  0  0  0  0
  -12.5348   -8.3131    4.1812 H   0  0  0  0  0  0  0  0  0  0  0  0
  2  1  1  1
  2  3  1  0
  2  4  1  0
  2  5  1  0
  5  6  2  0
  5 11  1  0
  6  7  1  0
  7  8  2  0
  8  9  1  0
  8 10  1  0
 10 11  2  0
 11 12  1  0
 12 13  1  0
 12 17  1  0
 13 14  2  0
 14 15  1  0
 14 16  1  0
 16 17  2  0
 18 17  1  0
 18 19  1  0
 18 21  1  0
 19 20  1  0
 19 27  1  0
 21 22  1  0
 22 23  1  0
 22 25  1  0
 23 24  1  0
 25 26  1  0
 25 27  1  0
 27 28  1  0
 28 29  1  0
 28 30  1  0
 29 32  2  0
 30 31  2  0
 31 32  1  0
 32 33  1  0
 33 34  2  0
 33 41  1  0
 34 35  1  0
 35 36  1  0
 35 37  2  0
 37 38  1  0
 37 39  1  0
 39 40  1  0
 39 41  2  0
  6 42  1  0
  7 43  1  0
 10 44  1  0
 15 45  1  0
 15 46  1  0
 15 47  1  0
 18 48  1  1
 19 49  1  6
 20 50  1  0
 22 51  1  1
 23 52  1  0
 23 53  1  0
 24 54  1  0
 25 55  1  1
 26 56  1  0
 27 57  1  1
 29 58  1  0
 34 59  1  0
 41 60  1  0
M  END
>  <filename_input>  (7) 
7XFA_D9J_docked.sdf

>  <pdb_id>  (7) 
7XFA_D9J

>  <pose_rank>  (7) 
6

>  <num_atoms_heavy>  (7) 
41

>  <num_torsions>  (7) 
6

>  <pose>  (7) 
[-19.830436112884037, -9.01766922153158, 1.8456864986953618, 4.308676199495342, 4.04874226038046, -1.903787690630781, -0.21294904892564764, -2.8272563247724776, -1.9043853228889491, -3.9375292210908412, 1.1653261811950644, 1.8505008022831455]

>  <energy>  (7) 
-678.4636861193378

>  <inter_energy>  (7) 
-709.7126337096987

>  <intra_energy>  (7) 
34.47724816648397

>  <rmsd>  (7) 
2.84424

>  <sdf_rank>  (7) 
0

$$$$

     RDKit          3D

 60 64  0  0  0  0  0  0  0  0999 V2000
  -22.8034   -8.0341    5.2370 F   0  0  0  0  0  0  0  0  0  0  0  0
  -22.1657   -8.8338    4.4850 C   0  0  1  0  0  0  0  0  0  0  0  0
  -23.0250   -9.8375    4.0937 F   0  0  0  0  0  0  0  0  0  0  0  0
  -21.8369   -8.1590    3.3990 F   0  0  0  0  0  0  0  0  0  0  0  0
  -20.9941   -9.3728    5.1293 C   0  0  0  0  0  0  0  0  0  0  0  0
  -20.6422   -8.9695    6.4385 C   0  0  0  0  0  0  0  0  0  0  0  0
  -19.5117   -9.4718    7.0792 C   0  0  0  0  0  0  0  0  0  0  0  0
  -18.7242  -10.4286    6.4469 C   0  0  0  0  0  0  0  0  0  0  0  0
  -17.3655  -11.1010    7.2852 Cl  0  0  0  0  0  0  0  0  0  0  0  0
  -19.0563  -10.8539    5.1525 C   0  0  0  0  0  0  0  0  0  0  0  0
  -20.1716  -10.3285    4.4758 C   0  0  0  0  0  0  0  0  0  0  0  0
  -20.4282  -10.7862    3.2297 N   0  0  0  0  0  0  0  0  0  0  0  0
  -21.1675  -11.8900    2.9488 N   0  0  0  0  0  0  0  0  0  0  0  0
  -21.2258  -11.9451    1.6218 C   0  0  0  0  0  0  0  0  0  0  0  0
  -21.9642  -13.0521    0.8814 C   0  0  0  0  0  0  0  0  0  0  0  0
  -20.5418  -10.9448    1.0480 N   0  0  0  0  0  0  0  0  0  0  0  0
  -20.0377  -10.2579    2.0647 C   0  0  0  0  0  0  0  0  0  0  0  0
  -19.2258   -8.9953    1.9678 C   0  0  1  0  0  0  0  0  0  0  0  0
  -17.8149   -9.2048    1.4196 C   0  0  2  0  0  0  0  0  0  0  0  0
  -17.1023  -10.0061    2.3731 O   0  0  0  0  0  0  0  0  0  0  0  0
  -19.9693   -8.1170    1.0936 O   0  0  0  0  0  0  0  0  0  0  0  0
  -19.3701   -6.8135    1.0848 C   0  0  2  0  0  0  0  0  0  0  0  0
  -20.2989   -5.9325    0.2370 C   0  0  0  0  0  0  0  0  0  0  0  0
  -21.4195   -5.4573    0.9911 O   0  0  0  0  0  0  0  0  0  0  0  0
  -17.9845   -6.8937    0.4663 C   0  0  2  0  0  0  0  0  0  0  0  0
  -18.0853   -7.3691   -0.8792 O   0  0  0  0  0  0  0  0  0  0  0  0
  -17.1466   -7.8523    1.3084 C   0  0  2  0  0  0  0  0  0  0  0  0
  -15.7797   -7.9563    0.7990 N   0  0  0  0  0  0  0  0  0  0  0  0
  -14.5915   -8.0432    1.4342 C   0  0  0  0  0  0  0  0  0  0  0  0
  -15.5909   -7.9769   -0.5304 N   0  0  0  0  0  0  0  0  0  0  0  0
  -14.2810   -8.0668   -0.7143 N   0  0  0  0  0  0  0  0  0  0  0  0
  -13.6460   -8.1208    0.4749 C   0  0  0  0  0  0  0  0  0  0  0  0
  -12.2881   -8.2364    0.6010 C   0  0  0  0  0  0  0  0  0  0  0  0
  -11.6082   -7.4113    1.5209 C   0  0  0  0  0  0  0  0  0  0  0  0
  -10.2278   -7.4772    1.6435 C   0  0  0  0  0  0  0  0  0  0  0  0
   -9.5806   -6.7002    2.5543 F   0  0  0  0  0  0  0  0  0  0  0  0
   -9.4912   -8.3174    0.8371 C   0  0  0  0  0  0  0  0  0  0  0  0
   -7.8388   -8.3025    1.1388 Cl  0  0  0  0  0  0  0  0  0  0  0  0
  -10.1319   -9.1354   -0.0961 C   0  0  0  0  0  0  0  0  0  0  0  0
   -9.4363   -9.9667   -0.9010 F   0  0  0  0  0  0  0  0  0  0  0  0
  -11.5253   -9.0948   -0.2159 C   0  0  0  0  0  0  0  0  0  0  0  0
  -21.2772   -8.2410    6.9640 H   0  0  0  0  0  0  0  0  0  0  0  0
  -19.2422   -9.1125    8.0834 H   0  0  0  0  0  0  0  0  0  0  0  0
  -18.4327  -11.6127    4.6571 H   0  0  0  0  0  0  0  0  0  0  0  0
  -22.4219  -13.7381    1.6093 H   0  0  0  0  0  0  0  0  0  0  0  0
  -22.7493  -12.6105    0.2500 H   0  0  0  0  0  0  0  0  0  0  0  0
  -21.2549  -13.6073    0.2500 H   0  0  0  0  0  0  0  0  0  0  0  0
  -19.0790   -8.5816    2.9765 H   0  0  0  0  0  0  0  0  0  0  0  0
  -17.8306   -9.6950    0.4350 H   0  0  0  0  0  0  0  0  0  0  0  0
  -17.3506   -9.7270    3.2899 H   0  0  0  0  0  0  0  0  0  0  0  0
  -19.2524   -6.4016    2.0980 H   0  0  0  0  0  0  0  0  0  0  0  0
  -19.7282   -5.0686   -0.1345 H   0  0  0  0  0  0  0  0  0  0  0  0
  -20.6817   -6.5422   -0.5947 H   0  0  0  0  0  0  0  0  0  0  0  0
  -21.2252   -5.5397    1.9583 H   0  0  0  0  0  0  0  0  0  0  0  0
  -17.5105   -5.9013    0.4463 H   0  0  0  0  0  0  0  0  0  0  0  0
  -18.2906   -8.3375   -0.8726 H   0  0  0  0  0  0  0  0  0  0  0  0
  -17.0776   -7.4376    2.3249 H   0  0  0  0  0  0  0  0  0  0  0  0
  -14.4265   -8.0494    2.5217 H   0  0  0  0  0  0  0  0  0  0  0  0
  -12.1778   -6.7088    2.1471 H   0  0  0  0  0  0  0  0  0  0  0  0
  -12.0290   -9.7375   -0.9530 H   0  0  0  0  0  0  0  0  0  0  0  0
  2  1  1  1
  2  3  1  0
  2  4  1  0
  2  5  1  0
  5  6  2  0
  5 11  1  0
  6  7  1  0
  7  8  2  0
  8  9  1  0
  8 10  1  0
 10 11  2  0
 11 12  1  0
 12 13  1  0
 12 17  1  0
 13 14  2  0
 14 15  1  0
 14 16  1  0
 16 17  2  0
 18 17  1  0
 18 19  1  0
 18 21  1  0
 19 20  1  0
 19 27  1  0
 21 22  1  0
 22 23  1  0
 22 25  1  0
 23 24  1  0
 25 26  1  0
 25 27  1  0
 27 28  1  0
 28 29  1  0
 28 30  1  0
 29 32  2  0
 30 31  2  0
 31 32  1  0
 32 33  1  0
 33 34  2  0
 33 41  1  0
 34 35  1  0
 35 36  1  0
 35 37  2  0
 37 38  1  0
 37 39  1  0
 39 40  1  0
 39 41  2  0
  6 42  1  0
  7 43  1  0
 10 44  1  0
 15 45  1  0
 15 46  1  0
 15 47  1  0
 18 48  1  1
 19 49  1  6
 20 50  1  0
 22 51  1  1
 23 52  1  0
 23 53  1  0
 24 54  1  0
 25 55  1  6
 26 56  1  0
 27 57  1  1
 29 58  1  0
 34 59  1  0
 41 60  1  0
M  END
>  <filename_input>  (8) 
7XFA_D9J_docked.sdf

>  <pdb_id>  (8) 
7XFA_D9J

>  <pose_rank>  (8) 
7

>  <num_atoms_heavy>  (8) 
41

>  <num_torsions>  (8) 
6

>  <pose>  (8) 
[-19.225804562468706, -8.99525114836918, 1.9678427056172205, 1.4866815751838047, -5.6439341868409265, -1.35974987207176, -0.7179210633156573, -3.0790577884497843, -2.183250853694444, -2.740822077326781, -4.283732128582814, 0.28937256311948717]

>  <energy>  (8) 
-690.8760260457728

>  <inter_energy>  (8) 
-723.8014979039075

>  <intra_energy>  (8) 
49.708169389615016

>  <rmsd>  (8) 
2.9947

>  <sdf_rank>  (8) 
0

$$$$

     RDKit          3D

 60 64  0  0  0  0  0  0  0  0999 V2000
  -21.0713  -10.2250    2.0985 F   0  0  0  0  0  0  0  0  0  0  0  0
  -21.9553  -10.9111    1.4990 C   0  0  1  0  0  0  0  0  0  0  0  0
  -23.1954  -10.4476    1.8816 F   0  0  0  0  0  0  0  0  0  0  0  0
  -21.8274  -10.6585    0.2095 F   0  0  0  0  0  0  0  0  0  0  0  0
  -21.8228  -12.3224    1.7617 C   0  0  0  0  0  0  0  0  0  0  0  0
  -22.9355  -13.0829    2.1907 C   0  0  0  0  0  0  0  0  0  0  0  0
  -22.8305  -14.4464    2.4565 C   0  0  0  0  0  0  0  0  0  0  0  0
  -21.6190  -15.1004    2.2562 C   0  0  0  0  0  0  0  0  0  0  0  0
  -21.5222  -16.8102    2.5168 Cl  0  0  0  0  0  0  0  0  0  0  0  0
  -20.5021  -14.3722    1.8213 C   0  0  0  0  0  0  0  0  0  0  0  0
  -20.5806  -12.9879    1.5858 C   0  0  0  0  0  0  0  0  0  0  0  0
  -19.4618  -12.3533    1.1690 N   0  0  0  0  0  0  0  0  0  0  0  0
  -19.1150  -12.1718   -0.1312 N   0  0  0  0  0  0  0  0  0  0  0  0
  -17.9956  -11.4554   -0.0993 C   0  0  0  0  0  0  0  0  0  0  0  0
  -17.2587  -11.0338   -1.3635 C   0  0  0  0  0  0  0  0  0  0  0  0
  -17.6038  -11.1933    1.1558 N   0  0  0  0  0  0  0  0  0  0  0  0
  -18.5144  -11.7816    1.9203 C   0  0  0  0  0  0  0  0  0  0  0  0
  -18.5706  -11.7444    3.4231 C   0  0  1  0  0  0  0  0  0  0  0  0
  -17.2017  -11.8215    4.0977 C   0  0  2  0  0  0  0  0  0  0  0  0
  -16.6527  -13.1134    3.8005 O   0  0  0  0  0  0  0  0  0  0  0  0
  -19.2174  -10.4969    3.7606 O   0  0  0  0  0  0  0  0  0  0  0  0
  -19.4873  -10.4511    5.1688 C   0  0  2  0  0  0  0  0  0  0  0  0
  -20.2811   -9.1573    5.4002 C   0  0  0  0  0  0  0  0  0  0  0  0
  -21.6927   -9.3694    5.2880 O   0  0  0  0  0  0  0  0  0  0  0  0
  -18.1772  -10.4289    5.9384 C   0  0  2  0  0  0  0  0  0  0  0  0
  -17.4231   -9.2702    5.5708 O   0  0  0  0  0  0  0  0  0  0  0  0
  -17.4047  -11.6991    5.5917 C   0  0  2  0  0  0  0  0  0  0  0  0
  -16.1416  -11.7734    6.3248 N   0  0  0  0  0  0  0  0  0  0  0  0
  -14.8607  -11.6471    5.9171 C   0  0  0  0  0  0  0  0  0  0  0  0
  -16.1806  -12.0045    7.6471 N   0  0  0  0  0  0  0  0  0  0  0  0
  -14.9187  -12.0305    8.0531 N   0  0  0  0  0  0  0  0  0  0  0  0
  -14.0897  -11.8023    7.0133 C   0  0  0  0  0  0  0  0  0  0  0  0
  -12.7272  -11.7501    7.1314 C   0  0  0  0  0  0  0  0  0  0  0  0
  -12.0749  -10.5025    7.0472 C   0  0  0  0  0  0  0  0  0  0  0  0
  -10.6920  -10.4212    7.1238 C   0  0  0  0  0  0  0  0  0  0  0  0
  -10.0705   -9.2117    7.0723 F   0  0  0  0  0  0  0  0  0  0  0  0
   -9.9275  -11.5620    7.2381 C   0  0  0  0  0  0  0  0  0  0  0  0
   -8.2748  -11.2854    7.3549 Cl  0  0  0  0  0  0  0  0  0  0  0  0
  -10.5411  -12.8147    7.3069 C   0  0  0  0  0  0  0  0  0  0  0  0
   -9.8179  -13.9495    7.4169 F   0  0  0  0  0  0  0  0  0  0  0  0
  -11.9359  -12.9100    7.2522 C   0  0  0  0  0  0  0  0  0  0  0  0
  -23.9082  -12.5852    2.3176 H   0  0  0  0  0  0  0  0  0  0  0  0
  -23.7039  -15.0049    2.8241 H   0  0  0  0  0  0  0  0  0  0  0  0
  -19.5468  -14.8935    1.6613 H   0  0  0  0  0  0  0  0  0  0  0  0
  -16.3340  -10.5048   -1.0897 H   0  0  0  0  0  0  0  0  0  0  0  0
  -17.0090  -11.9257   -1.9570 H   0  0  0  0  0  0  0  0  0  0  0  0
  -17.9009  -10.3665   -1.9570 H   0  0  0  0  0  0  0  0  0  0  0  0
  -19.1154  -12.6283    3.7864 H   0  0  0  0  0  0  0  0  0  0  0  0
  -16.5304  -11.0241    3.7462 H   0  0  0  0  0  0  0  0  0  0  0  0
  -16.4508  -13.5885    4.6453 H   0  0  0  0  0  0  0  0  0  0  0  0
  -20.0542  -11.3285    5.5137 H   0  0  0  0  0  0  0  0  0  0  0  0
  -20.0575   -8.7784    6.4084 H   0  0  0  0  0  0  0  0  0  0  0  0
  -19.9830   -8.4319    4.6288 H   0  0  0  0  0  0  0  0  0  0  0  0
  -22.0904   -9.4291    6.1927 H   0  0  0  0  0  0  0  0  0  0  0  0
  -18.3643  -10.3888    7.0216 H   0  0  0  0  0  0  0  0  0  0  0  0
  -17.1183   -8.8019    6.3880 H   0  0  0  0  0  0  0  0  0  0  0  0
  -18.0099  -12.5606    5.9106 H   0  0  0  0  0  0  0  0  0  0  0  0
  -14.5135  -11.4551    4.8911 H   0  0  0  0  0  0  0  0  0  0  0  0
  -12.6683   -9.5850    6.9195 H   0  0  0  0  0  0  0  0  0  0  0  0
  -12.4182  -13.8973    7.3039 H   0  0  0  0  0  0  0  0  0  0  0  0
  2  1  1  1
  2  3  1  0
  2  4  1  0
  2  5  1  0
  5  6  2  0
  5 11  1  0
  6  7  1  0
  7  8  2  0
  8  9  1  0
  8 10  1  0
 10 11  2  0
 11 12  1  0
 12 13  1  0
 12 17  1  0
 13 14  2  0
 14 15  1  0
 14 16  1  0
 16 17  2  0
 18 17  1  0
 18 19  1  0
 18 21  1  0
 19 20  1  0
 19 27  1  0
 21 22  1  0
 22 23  1  0
 22 25  1  0
 23 24  1  0
 25 26  1  0
 25 27  1  0
 27 28  1  0
 28 29  1  0
 28 30  1  0
 29 32  2  0
 30 31  2  0
 31 32  1  0
 32 33  1  0
 33 34  2  0
 33 41  1  0
 34 35  1  0
 35 36  1  0
 35 37  2  0
 37 38  1  0
 37 39  1  0
 39 40  1  0
 39 41  2  0
  6 42  1  0
  7 43  1  0
 10 44  1  0
 15 45  1  0
 15 46  1  0
 15 47  1  0
 18 48  1  1
 19 49  1  6
 20 50  1  0
 22 51  1  1
 23 52  1  0
 23 53  1  0
 24 54  1  0
 25 55  1  1
 26 56  1  0
 27 57  1  1
 29 58  1  0
 34 59  1  0
 41 60  1  0
M  END
>  <filename_input>  (9) 
7XFA_D9J_docked.sdf

>  <pdb_id>  (9) 
7XFA_D9J

>  <pose_rank>  (9) 
8

>  <num_atoms_heavy>  (9) 
41

>  <num_torsions>  (9) 
6

>  <pose>  (9) 
[-18.57063439390555, -11.744386373493446, 3.4230636309959905, 6.716552860470912, -3.390313091718544, 1.8098575933605732, 6.141705209941616, 3.2729267422458768, 0.1029393589206838, -0.8216022277016704, -2.2090071602497576, 0.43815735715221626]

>  <energy>  (9) 
-90.15974141646902

>  <inter_energy>  (9) 
-129.11537692737622

>  <intra_energy>  (9) 
40.48741664892837

>  <rmsd>  (9) 
6.45326

>  <sdf_rank>  (9) 
0

$$$$

     RDKit          3D

 60 64  0  0  0  0  0  0  0  0999 V2000
  -13.4825  -11.2021    3.0063 F   0  0  0  0  0  0  0  0  0  0  0  0
  -13.8203  -12.1471    3.7839 C   0  0  1  0  0  0  0  0  0  0  0  0
  -12.8774  -13.1470    3.6842 F   0  0  0  0  0  0  0  0  0  0  0  0
  -13.7548  -11.6731    5.0143 F   0  0  0  0  0  0  0  0  0  0  0  0
  -15.1416  -12.6462    3.4953 C   0  0  0  0  0  0  0  0  0  0  0  0
  -15.5917  -13.8620    4.0607 C   0  0  0  0  0  0  0  0  0  0  0  0
  -16.8618  -14.3674    3.7917 C   0  0  0  0  0  0  0  0  0  0  0  0
  -17.7378  -13.6477    2.9854 C   0  0  0  0  0  0  0  0  0  0  0  0
  -19.3405  -14.2499    2.7216 Cl  0  0  0  0  0  0  0  0  0  0  0  0
  -17.3207  -12.4339    2.4202 C   0  0  0  0  0  0  0  0  0  0  0  0
  -16.0285  -11.9286    2.6496 C   0  0  0  0  0  0  0  0  0  0  0  0
  -15.6976  -10.7526    2.0700 N   0  0  0  0  0  0  0  0  0  0  0  0
  -15.0875  -10.6304    0.8631 N   0  0  0  0  0  0  0  0  0  0  0  0
  -15.0055   -9.3221    0.6420 C   0  0  0  0  0  0  0  0  0  0  0  0
  -14.3705   -8.7439   -0.6156 C   0  0  0  0  0  0  0  0  0  0  0  0
  -15.5125   -8.6093    1.6580 N   0  0  0  0  0  0  0  0  0  0  0  0
  -15.9103   -9.5181    2.5386 C   0  0  0  0  0  0  0  0  0  0  0  0
  -16.6052   -9.2450    3.8445 C   0  0  1  0  0  0  0  0  0  0  0  0
  -17.8449  -10.1067    4.0803 C   0  0  2  0  0  0  0  0  0  0  0  0
  -18.8130   -9.7410    3.0862 O   0  0  0  0  0  0  0  0  0  0  0  0
  -15.6229   -9.5021    4.8728 O   0  0  0  0  0  0  0  0  0  0  0  0
  -16.1317   -9.0905    6.1494 C   0  0  2  0  0  0  0  0  0  0  0  0
  -14.9766   -9.2851    7.1422 C   0  0  0  0  0  0  0  0  0  0  0  0
  -14.1744   -8.1056    7.2662 O   0  0  0  0  0  0  0  0  0  0  0  0
  -17.3227   -9.9555    6.5264 C   0  0  2  0  0  0  0  0  0  0  0  0
  -16.9164  -11.3248    6.6066 O   0  0  0  0  0  0  0  0  0  0  0  0
  -18.3927   -9.7796    5.4519 C   0  0  2  0  0  0  0  0  0  0  0  0
  -19.5939  -10.5539    5.7617 N   0  0  0  0  0  0  0  0  0  0  0  0
  -20.6184  -10.3170    6.6084 C   0  0  0  0  0  0  0  0  0  0  0  0
  -19.7841  -11.7227    5.1284 N   0  0  0  0  0  0  0  0  0  0  0  0
  -20.9249  -12.2119    5.5944 N   0  0  0  0  0  0  0  0  0  0  0  0
  -21.4626  -11.3633    6.4950 C   0  0  0  0  0  0  0  0  0  0  0  0
  -22.6524  -11.5924    7.1314 C   0  0  0  0  0  0  0  0  0  0  0  0
  -23.6506  -10.5962    7.1071 C   0  0  0  0  0  0  0  0  0  0  0  0
  -24.8518  -10.7828    7.7758 C   0  0  0  0  0  0  0  0  0  0  0  0
  -25.8228   -9.8307    7.7235 F   0  0  0  0  0  0  0  0  0  0  0  0
  -25.0740  -11.9253    8.5135 C   0  0  0  0  0  0  0  0  0  0  0  0
  -26.5912  -12.0093    9.2295 Cl  0  0  0  0  0  0  0  0  0  0  0  0
  -24.0994  -12.9239    8.5724 C   0  0  0  0  0  0  0  0  0  0  0  0
  -24.2883  -14.0527    9.2886 F   0  0  0  0  0  0  0  0  0  0  0  0
  -22.8917  -12.7586    7.8856 C   0  0  0  0  0  0  0  0  0  0  0  0
  -14.9222  -14.4225    4.7296 H   0  0  0  0  0  0  0  0  0  0  0  0
  -17.1715  -15.3338    4.2162 H   0  0  0  0  0  0  0  0  0  0  0  0
  -18.0173  -11.8665    1.7855 H   0  0  0  0  0  0  0  0  0  0  0  0
  -13.5843   -8.0281   -0.3335 H   0  0  0  0  0  0  0  0  0  0  0  0
  -13.9295   -9.5570   -1.2108 H   0  0  0  0  0  0  0  0  0  0  0  0
  -15.1389   -8.2289   -1.2108 H   0  0  0  0  0  0  0  0  0  0  0  0
  -16.9757   -8.2093    3.8471 H   0  0  0  0  0  0  0  0  0  0  0  0
  -17.6112  -11.1798    4.0184 H   0  0  0  0  0  0  0  0  0  0  0  0
  -19.6405   -9.4284    3.5307 H   0  0  0  0  0  0  0  0  0  0  0  0
  -16.4753   -8.0455    6.1443 H   0  0  0  0  0  0  0  0  0  0  0  0
  -15.3939   -9.5367    8.1284 H   0  0  0  0  0  0  0  0  0  0  0  0
  -14.3354  -10.0952    6.7644 H   0  0  0  0  0  0  0  0  0  0  0  0
  -14.0350   -7.9006    8.2246 H   0  0  0  0  0  0  0  0  0  0  0  0
  -17.7241   -9.6574    7.5062 H   0  0  0  0  0  0  0  0  0  0  0  0
  -16.8376  -11.5905    7.5570 H   0  0  0  0  0  0  0  0  0  0  0  0
  -18.6898   -8.7205    5.4407 H   0  0  0  0  0  0  0  0  0  0  0  0
  -20.7410   -9.4416    7.2632 H   0  0  0  0  0  0  0  0  0  0  0  0
  -23.4750   -9.6625    6.5528 H   0  0  0  0  0  0  0  0  0  0  0  0
  -22.1236  -13.5445    7.9347 H   0  0  0  0  0  0  0  0  0  0  0  0
  2  1  1  6
  2  3  1  0
  2  4  1  0
  2  5  1  0
  5  6  2  0
  5 11  1  0
  6  7  1  0
  7  8  2  0
  8  9  1  0
  8 10  1  0
 10 11  2  0
 11 12  1  0
 12 13  1  0
 12 17  1  0
 13 14  2  0
 14 15  1  0
 14 16  1  0
 16 17  2  0
 18 17  1  0
 18 19  1  0
 18 21  1  0
 19 20  1  0
 19 27  1  0
 21 22  1  0
 22 23  1  0
 22 25  1  0
 23 24  1  0
 25 26  1  0
 25 27  1  0
 27 28  1  0
 28 29  1  0
 28 30  1  0
 29 32  2  0
 30 31  2  0
 31 32  1  0
 32 33  1  0
 33 34  2  0
 33 41  1  0
 34 35  1  0
 35 36  1  0
 35 37  2  0
 37 38  1  0
 37 39  1  0
 39 40  1  0
 39 41  2  0
  6 42  1  0
  7 43  1  0
 10 44  1  0
 15 45  1  0
 15 46  1  0
 15 47  1  0
 18 48  1  6
 19 49  1  1
 20 50  1  0
 22 51  1  6
 23 52  1  0
 23 53  1  0
 24 54  1  0
 25 55  1  1
 26 56  1  0
 27 57  1  6
 29 58  1  0
 34 59  1  0
 41 60  1  0
M  END
>  <filename_input>  (10) 
7XFA_D9J_docked.sdf

>  <pdb_id>  (10) 
7XFA_D9J

>  <pose_rank>  (10) 
9

>  <num_atoms_heavy>  (10) 
41

>  <num_torsions>  (10) 
6

>  <pose>  (10) 
[-16.605172342383714, -9.244998943645177, 3.844538103039791, -0.32767356373499407, 2.978120175995606, 2.083023959539631, -3.45311567035228, 0.0684393424490273, 0.7667028807037108, -22.66924629781041, -27.707158942279964, 0.450400453018013]

>  <energy>  (10) 
-39.63879529667241

>  <inter_energy>  (10) 
-152.834741997952

>  <intra_energy>  (10) 
110.9682178396088

>  <rmsd>  (10) 
10.2693

>  <sdf_rank>  (10) 
0

$$$$

     RDKit          3D

 60 64  0  0  0  0  0  0  0  0999 V2000
  -17.3376  -13.4337    6.4341 F   0  0  0  0  0  0  0  0  0  0  0  0
  -17.0166  -12.2523    6.0982 C   0  0  1  0  0  0  0  0  0  0  0  0
  -15.6921  -12.0551    6.4233 F   0  0  0  0  0  0  0  0  0  0  0  0
  -17.1067  -12.1900    4.7825 F   0  0  0  0  0  0  0  0  0  0  0  0
  -17.8586  -11.2601    6.7183 C   0  0  0  0  0  0  0  0  0  0  0  0
  -18.4170  -10.2094    5.9537 C   0  0  0  0  0  0  0  0  0  0  0  0
  -19.2285   -9.2356    6.5318 C   0  0  0  0  0  0  0  0  0  0  0  0
  -19.5442   -9.3102    7.8846 C   0  0  0  0  0  0  0  0  0  0  0  0
  -20.6162   -8.1368    8.5738 Cl  0  0  0  0  0  0  0  0  0  0  0  0
  -19.0124  -10.3477    8.6641 C   0  0  0  0  0  0  0  0  0  0  0  0
  -18.1600  -11.3165    8.1050 C   0  0  0  0  0  0  0  0  0  0  0  0
  -17.6852  -12.2860    8.9192 N   0  0  0  0  0  0  0  0  0  0  0  0
  -18.2712  -13.4972    9.1022 N   0  0  0  0  0  0  0  0  0  0  0  0
  -17.4581  -14.1609    9.9182 C   0  0  0  0  0  0  0  0  0  0  0  0
  -17.7525  -15.5784   10.3904 C   0  0  0  0  0  0  0  0  0  0  0  0
  -16.3983  -13.4230   10.2790 N   0  0  0  0  0  0  0  0  0  0  0  0
  -16.5769  -12.2595    9.6673 C   0  0  0  0  0  0  0  0  0  0  0  0
  -15.6355  -11.0866    9.6975 C   0  0  1  0  0  0  0  0  0  0  0  0
  -14.6177  -11.0780    8.5577 C   0  0  2  0  0  0  0  0  0  0  0  0
  -13.7636  -12.2164    8.7408 O   0  0  0  0  0  0  0  0  0  0  0  0
  -16.4717   -9.9104    9.6211 O   0  0  0  0  0  0  0  0  0  0  0  0
  -15.6798   -8.7328    9.8309 C   0  0  2  0  0  0  0  0  0  0  0  0
  -16.6721   -7.5613    9.8576 C   0  0  0  0  0  0  0  0  0  0  0  0
  -16.1125   -6.4015   10.4835 O   0  0  0  0  0  0  0  0  0  0  0  0
  -14.6867   -8.5767    8.6914 C   0  0  2  0  0  0  0  0  0  0  0  0
  -15.3916   -8.4495    7.4532 O   0  0  0  0  0  0  0  0  0  0  0  0
  -13.7936   -9.8146    8.6710 C   0  0  2  0  0  0  0  0  0  0  0  0
  -12.7797   -9.7250    7.6209 N   0  0  0  0  0  0  0  0  0  0  0  0
  -11.8869   -8.7586    7.3182 C   0  0  0  0  0  0  0  0  0  0  0  0
  -12.6515  -10.7515    6.7646 N   0  0  0  0  0  0  0  0  0  0  0  0
  -11.6830  -10.4115    5.9255 N   0  0  0  0  0  0  0  0  0  0  0  0
  -11.1893   -9.1986    6.2505 C   0  0  0  0  0  0  0  0  0  0  0  0
  -10.1650   -8.5943    5.5732 C   0  0  0  0  0  0  0  0  0  0  0  0
  -10.2896   -8.3765    4.1852 C   0  0  0  0  0  0  0  0  0  0  0  0
   -9.2530   -7.8021    3.4639 C   0  0  0  0  0  0  0  0  0  0  0  0
   -9.3909   -7.5669    2.1307 F   0  0  0  0  0  0  0  0  0  0  0  0
   -8.0654   -7.4753    4.0817 C   0  0  0  0  0  0  0  0  0  0  0  0
   -6.9296   -6.7566    3.0741 Cl  0  0  0  0  0  0  0  0  0  0  0  0
   -7.9029   -7.6936    5.4515 C   0  0  0  0  0  0  0  0  0  0  0  0
   -6.7501   -7.3855    6.0832 F   0  0  0  0  0  0  0  0  0  0  0  0
   -8.9476   -8.2526    6.1955 C   0  0  0  0  0  0  0  0  0  0  0  0
  -18.2051  -10.1598    4.8754 H   0  0  0  0  0  0  0  0  0  0  0  0
  -19.6190   -8.4093    5.9196 H   0  0  0  0  0  0  0  0  0  0  0  0
  -19.2668  -10.4047    9.7327 H   0  0  0  0  0  0  0  0  0  0  0  0
  -17.7580  -15.6048   11.4901 H   0  0  0  0  0  0  0  0  0  0  0  0
  -18.7355  -15.8944   10.0111 H   0  0  0  0  0  0  0  0  0  0  0  0
  -16.9767  -16.2598   10.0111 H   0  0  0  0  0  0  0  0  0  0  0  0
  -15.0316  -11.1313   10.6158 H   0  0  0  0  0  0  0  0  0  0  0  0
  -15.1092  -11.1155    7.5743 H   0  0  0  0  0  0  0  0  0  0  0  0
  -13.6387  -12.3829    9.7087 H   0  0  0  0  0  0  0  0  0  0  0  0
  -15.1007   -8.7803   10.7649 H   0  0  0  0  0  0  0  0  0  0  0  0
  -16.9511   -7.3080    8.8242 H   0  0  0  0  0  0  0  0  0  0  0  0
  -17.5513   -7.8726   10.4408 H   0  0  0  0  0  0  0  0  0  0  0  0
  -16.1609   -6.5017   11.4673 H   0  0  0  0  0  0  0  0  0  0  0  0
  -14.0728   -7.6749    8.8326 H   0  0  0  0  0  0  0  0  0  0  0  0
  -16.3493   -8.2765    7.6349 H   0  0  0  0  0  0  0  0  0  0  0  0
  -13.2566   -9.8600    9.6300 H   0  0  0  0  0  0  0  0  0  0  0  0
  -11.7542   -7.7996    7.8403 H   0  0  0  0  0  0  0  0  0  0  0  0
  -11.2176   -8.6649    3.6697 H   0  0  0  0  0  0  0  0  0  0  0  0
   -8.8178   -8.4267    7.2739 H   0  0  0  0  0  0  0  0  0  0  0  0
  2  1  1  1
  2  3  1  0
  2  4  1  0
  2  5  1  0
  5  6  2  0
  5 11  1  0
  6  7  1  0
  7  8  2  0
  8  9  1  0
  8 10  1  0
 10 11  2  0
 11 12  1  0
 12 13  1  0
 12 17  1  0
 13 14  2  0
 14 15  1  0
 14 16  1  0
 16 17  2  0
 18 17  1  0
 18 19  1  0
 18 21  1  0
 19 20  1  0
 19 27  1  0
 21 22  1  0
 22 23  1  0
 22 25  1  0
 23 24  1  0
 25 26  1  0
 25 27  1  0
 27 28  1  0
 28 29  1  0
 28 30  1  0
 29 32  2  0
 30 31  2  0
 31 32  1  0
 32 33  1  0
 33 34  2  0
 33 41  1  0
 34 35  1  0
 35 36  1  0
 35 37  2  0
 37 38  1  0
 37 39  1  0
 39 40  1  0
 39 41  2  0
  6 42  1  0
  7 43  1  0
 10 44  1  0
 15 45  1  0
 15 46  1  0
 15 47  1  0
 18 48  1  1
 19 49  1  6
 20 50  1  0
 22 51  1  1
 23 52  1  0
 23 53  1  0
 24 54  1  0
 25 55  1  1
 26 56  1  0
 27 57  1  1
 29 58  1  0
 34 59  1  0
 41 60  1  0
M  END
>  <filename_input>  (11) 
7XFA_D9J_docked.sdf

>  <pdb_id>  (11) 
7XFA_D9J

>  <pose_rank>  (11) 
10

>  <num_atoms_heavy>  (11) 
41

>  <num_torsions>  (11) 
6

>  <pose>  (11) 
[-15.635492619047291, -11.086635992574864, 9.697459132227921, -5.60385078618447, -10.352395135942379, -0.33402559420464756, -4.157504971076442, 3.302837633812638, 1.814464308582349, 1.983057398569683, 0.642878664774696, 1.6712054882957883]

>  <energy>  (11) 
0.3110059824731479

>  <inter_energy>  (11) 
-96.33612180650246

>  <intra_energy>  (11) 
112.13136232597581

>  <rmsd>  (11) 
7.82127

>  <sdf_rank>  (11) 
0

$$$$

     RDKit          3D

 60 64  0  0  0  0  0  0  0  0999 V2000
   -9.5312   -7.4821    6.3503 F   0  0  0  0  0  0  0  0  0  0  0  0
   -9.8350   -6.6809    5.4137 C   0  0  1  0  0  0  0  0  0  0  0  0
  -11.2048   -6.6913    5.2631 F   0  0  0  0  0  0  0  0  0  0  0  0
   -9.4984   -5.4707    5.8201 F   0  0  0  0  0  0  0  0  0  0  0  0
   -9.1724   -7.0101    4.1765 C   0  0  0  0  0  0  0  0  0  0  0  0
   -8.2049   -8.0407    4.1297 C   0  0  0  0  0  0  0  0  0  0  0  0
   -7.5469   -8.3728    2.9474 C   0  0  0  0  0  0  0  0  0  0  0  0
   -7.8711   -7.7146    1.7654 C   0  0  0  0  0  0  0  0  0  0  0  0
   -7.1008   -8.1900    0.2884 Cl  0  0  0  0  0  0  0  0  0  0  0  0
   -8.8345   -6.6956    1.7814 C   0  0  0  0  0  0  0  0  0  0  0  0
   -9.4800   -6.3210    2.9734 C   0  0  0  0  0  0  0  0  0  0  0  0
  -10.3967   -5.3291    2.9110 N   0  0  0  0  0  0  0  0  0  0  0  0
  -10.1845   -4.0533    3.3246 N   0  0  0  0  0  0  0  0  0  0  0  0
  -11.3029   -3.3980    3.0296 C   0  0  0  0  0  0  0  0  0  0  0  0
  -11.4895   -1.9188    3.3398 C   0  0  0  0  0  0  0  0  0  0  0  0
  -12.2210   -4.1994    2.4707 N   0  0  0  0  0  0  0  0  0  0  0  0
  -11.6440   -5.3933    2.4324 C   0  0  0  0  0  0  0  0  0  0  0  0
  -12.2332   -6.6460    1.8439 C   0  0  1  0  0  0  0  0  0  0  0  0
  -13.7456   -6.7659    2.0264 C   0  0  2  0  0  0  0  0  0  0  0  0
  -13.9962   -6.8897    3.4338 O   0  0  0  0  0  0  0  0  0  0  0  0
  -11.9076   -6.6089    0.4364 O   0  0  0  0  0  0  0  0  0  0  0  0
  -12.2650   -7.8534   -0.1814 C   0  0  2  0  0  0  0  0  0  0  0  0
  -11.7662   -7.7589   -1.6305 C   0  0  0  0  0  0  0  0  0  0  0  0
  -11.7066   -9.0437   -2.2597 O   0  0  0  0  0  0  0  0  0  0  0  0
  -13.7737   -8.0295   -0.1373 C   0  0  2  0  0  0  0  0  0  0  0  0
  -14.4038   -6.9592   -0.8472 O   0  0  0  0  0  0  0  0  0  0  0  0
  -14.2067   -8.0252    1.3265 C   0  0  2  0  0  0  0  0  0  0  0  0
  -15.6488   -8.2292    1.4581 N   0  0  0  0  0  0  0  0  0  0  0  0
  -16.6818   -7.3603    1.4357 C   0  0  0  0  0  0  0  0  0  0  0  0
  -16.1059   -9.4797    1.6336 N   0  0  0  0  0  0  0  0  0  0  0  0
  -17.4243   -9.3791    1.7297 N   0  0  0  0  0  0  0  0  0  0  0  0
  -17.8042   -8.0909    1.5999 C   0  0  0  0  0  0  0  0  0  0  0  0
  -19.1096   -7.6814    1.6363 C   0  0  0  0  0  0  0  0  0  0  0  0
  -19.5299   -6.6405    0.7825 C   0  0  0  0  0  0  0  0  0  0  0  0
  -20.8369   -6.1767    0.8238 C   0  0  0  0  0  0  0  0  0  0  0  0
  -21.2443   -5.1928   -0.0236 F   0  0  0  0  0  0  0  0  0  0  0  0
  -21.7362   -6.6932    1.7311 C   0  0  0  0  0  0  0  0  0  0  0  0
  -23.2834   -6.0477    1.6244 Cl  0  0  0  0  0  0  0  0  0  0  0  0
  -21.3475   -7.7130    2.6025 C   0  0  0  0  0  0  0  0  0  0  0  0
  -22.2062   -8.2368    3.5033 F   0  0  0  0  0  0  0  0  0  0  0  0
  -20.0386   -8.2051    2.5575 C   0  0  0  0  0  0  0  0  0  0  0  0
   -7.9658   -8.5940    5.0499 H   0  0  0  0  0  0  0  0  0  0  0  0
   -6.7725   -9.1540    2.9485 H   0  0  0  0  0  0  0  0  0  0  0  0
   -9.0900   -6.1796    0.8442 H   0  0  0  0  0  0  0  0  0  0  0  0
  -11.5080   -1.7723    4.4299 H   0  0  0  0  0  0  0  0  0  0  0  0
  -10.6566   -1.3454    2.9069 H   0  0  0  0  0  0  0  0  0  0  0  0
  -12.4388   -1.5703    2.9069 H   0  0  0  0  0  0  0  0  0  0  0  0
  -11.8152   -7.5208    2.3635 H   0  0  0  0  0  0  0  0  0  0  0  0
  -14.2748   -5.8947    1.6129 H   0  0  0  0  0  0  0  0  0  0  0  0
  -13.2331   -6.5127    3.9393 H   0  0  0  0  0  0  0  0  0  0  0  0
  -11.8199   -8.7177    0.3332 H   0  0  0  0  0  0  0  0  0  0  0  0
  -12.4515   -7.1149   -2.2012 H   0  0  0  0  0  0  0  0  0  0  0  0
  -10.7492   -7.3399   -1.6143 H   0  0  0  0  0  0  0  0  0  0  0  0
  -11.6739   -9.7495   -1.5663 H   0  0  0  0  0  0  0  0  0  0  0  0
  -14.0676   -8.9775   -0.6115 H   0  0  0  0  0  0  0  0  0  0  0  0
  -14.7841   -6.3132   -0.2006 H   0  0  0  0  0  0  0  0  0  0  0  0
  -13.7175   -8.8743    1.8263 H   0  0  0  0  0  0  0  0  0  0  0  0
  -16.6205   -6.2694    1.3085 H   0  0  0  0  0  0  0  0  0  0  0  0
  -18.8148   -6.1921    0.0771 H   0  0  0  0  0  0  0  0  0  0  0  0
  -19.7326   -9.0065    3.2461 H   0  0  0  0  0  0  0  0  0  0  0  0
  2  1  1  1
  2  3  1  0
  2  4  1  0
  2  5  1  0
  5  6  2  0
  5 11  1  0
  6  7  1  0
  7  8  2  0
  8  9  1  0
  8 10  1  0
 10 11  2  0
 11 12  1  0
 12 13  1  0
 12 17  1  0
 13 14  2  0
 14 15  1  0
 14 16  1  0
 16 17  2  0
 18 17  1  0
 18 19  1  0
 18 21  1  0
 19 20  1  0
 19 27  1  0
 21 22  1  0
 22 23  1  0
 22 25  1  0
 23 24  1  0
 25 26  1  0
 25 27  1  0
 27 28  1  0
 28 29  1  0
 28 30  1  0
 29 32  2  0
 30 31  2  0
 31 32  1  0
 32 33  1  0
 33 34  2  0
 33 41  1  0
 34 35  1  0
 35 36  1  0
 35 37  2  0
 37 38  1  0
 37 39  1  0
 39 40  1  0
 39 41  2  0
  6 42  1  0
  7 43  1  0
 10 44  1  0
 15 45  1  0
 15 46  1  0
 15 47  1  0
 18 48  1  1
 19 49  1  6
 20 50  1  0
 22 51  1  1
 23 52  1  0
 23 53  1  0
 24 54  1  0
 25 55  1  6
 26 56  1  0
 27 57  1  1
 29 58  1  0
 34 59  1  0
 41 60  1  0
M  END
>  <filename_input>  (12) 
7XFA_D9J_docked.sdf

>  <pdb_id>  (12) 
7XFA_D9J

>  <pose_rank>  (12) 
11

>  <num_atoms_heavy>  (12) 
41

>  <num_torsions>  (12) 
6

>  <pose>  (12) 
[-12.233238910128334, -6.6460202825905315, 1.8438906136964432, -0.2565121276327208, 1.045456368373233, -2.692406127249466, -0.0844490044583959, 6.1617393399034945, -2.2522790830142627, -0.4308489453648129, -2.8319851828058638, 1.7171975606100476]

>  <energy>  (12) 
-645.8191259987863

>  <inter_energy>  (12) 
-656.5426845352533

>  <intra_energy>  (12) 
29.810035266659753

>  <rmsd>  (12) 
10.8913

>  <sdf_rank>  (12) 
0

$$$$

     RDKit          3D

 60 64  0  0  0  0  0  0  0  0999 V2000
  -21.9183   -7.2265    2.0415 F   0  0  0  0  0  0  0  0  0  0  0  0
  -23.1040   -7.5893    2.3140 C   0  0  1  0  0  0  0  0  0  0  0  0
  -23.3391   -7.3324    3.6473 F   0  0  0  0  0  0  0  0  0  0  0  0
  -23.9125   -6.8098    1.6200 F   0  0  0  0  0  0  0  0  0  0  0  0
  -23.3359   -8.9775    2.0021 C   0  0  0  0  0  0  0  0  0  0  0  0
  -24.3565   -9.3519    1.0974 C   0  0  0  0  0  0  0  0  0  0  0  0
  -24.6033  -10.6870    0.7852 C   0  0  0  0  0  0  0  0  0  0  0  0
  -23.8052  -11.6860    1.3333 C   0  0  0  0  0  0  0  0  0  0  0  0
  -24.0737  -13.3354    0.8769 Cl  0  0  0  0  0  0  0  0  0  0  0  0
  -22.7793  -11.3418    2.2254 C   0  0  0  0  0  0  0  0  0  0  0  0
  -22.5417  -10.0023    2.5819 C   0  0  0  0  0  0  0  0  0  0  0  0
  -21.5356   -9.7478    3.4486 N   0  0  0  0  0  0  0  0  0  0  0  0
  -21.6886   -9.6058    4.7903 N   0  0  0  0  0  0  0  0  0  0  0  0
  -20.4599   -9.4331    5.2674 C   0  0  0  0  0  0  0  0  0  0  0  0
  -20.1805   -9.2247    6.7498 C   0  0  0  0  0  0  0  0  0  0  0  0
  -19.5388   -9.4359    4.2932 N   0  0  0  0  0  0  0  0  0  0  0  0
  -20.2338   -9.6069    3.1762 C   0  0  0  0  0  0  0  0  0  0  0  0
  -19.6672   -9.7375    1.7889 C   0  0  1  0  0  0  0  0  0  0  0  0
  -18.2348   -9.2232    1.6523 C   0  0  2  0  0  0  0  0  0  0  0  0
  -18.2667   -7.8076    1.8848 O   0  0  0  0  0  0  0  0  0  0  0  0
  -19.7169  -11.1476    1.4761 O   0  0  0  0  0  0  0  0  0  0  0  0
  -19.3706  -11.3558    0.0996 C   0  0  2  0  0  0  0  0  0  0  0  0
  -19.5763  -12.8550   -0.1608 C   0  0  0  0  0  0  0  0  0  0  0  0
  -20.5871  -13.4107    0.6875 O   0  0  0  0  0  0  0  0  0  0  0  0
  -17.9212  -10.9596   -0.1268 C   0  0  2  0  0  0  0  0  0  0  0  0
  -17.0690  -11.7632    0.6945 O   0  0  0  0  0  0  0  0  0  0  0  0
  -17.7732   -9.4841    0.2356 C   0  0  2  0  0  0  0  0  0  0  0  0
  -16.4079   -9.0121    0.0078 N   0  0  0  0  0  0  0  0  0  0  0  0
  -15.4708   -8.5387    0.8565 C   0  0  0  0  0  0  0  0  0  0  0  0
  -15.9269   -9.0226   -1.2460 N   0  0  0  0  0  0  0  0  0  0  0  0
  -14.6926   -8.5445   -1.1702 N   0  0  0  0  0  0  0  0  0  0  0  0
  -14.3842   -8.2510    0.1102 C   0  0  0  0  0  0  0  0  0  0  0  0
  -13.1685   -7.7580    0.4999 C   0  0  0  0  0  0  0  0  0  0  0  0
  -11.9910   -8.3831    0.0395 C   0  0  0  0  0  0  0  0  0  0  0  0
  -10.7445   -7.9311    0.4481 C   0  0  0  0  0  0  0  0  0  0  0  0
   -9.6114   -8.5192   -0.0234 F   0  0  0  0  0  0  0  0  0  0  0  0
  -10.6350   -6.8922    1.3467 C   0  0  0  0  0  0  0  0  0  0  0  0
   -9.0565   -6.4457    1.7079 Cl  0  0  0  0  0  0  0  0  0  0  0  0
  -11.7818   -6.2624    1.8353 C   0  0  0  0  0  0  0  0  0  0  0  0
  -11.7054   -5.2436    2.7180 F   0  0  0  0  0  0  0  0  0  0  0  0
  -13.0448   -6.6938    1.4155 C   0  0  0  0  0  0  0  0  0  0  0  0
  -24.9709   -8.5692    0.6285 H   0  0  0  0  0  0  0  0  0  0  0  0
  -25.4277  -10.9508    0.1064 H   0  0  0  0  0  0  0  0  0  0  0  0
  -22.1487  -12.1345    2.6545 H   0  0  0  0  0  0  0  0  0  0  0  0
  -20.9225   -9.7781    7.3441 H   0  0  0  0  0  0  0  0  0  0  0  0
  -19.1716   -9.5926    6.9881 H   0  0  0  0  0  0  0  0  0  0  0  0
  -20.2457   -8.1528    6.9881 H   0  0  0  0  0  0  0  0  0  0  0  0
  -20.2574   -9.1182    1.0976 H   0  0  0  0  0  0  0  0  0  0  0  0
  -17.5562   -9.7181    2.3626 H   0  0  0  0  0  0  0  0  0  0  0  0
  -18.2706   -7.6332    2.8593 H   0  0  0  0  0  0  0  0  0  0  0  0
  -19.9855  -10.7493   -0.5817 H   0  0  0  0  0  0  0  0  0  0  0  0
  -19.8756  -12.9959   -1.2099 H   0  0  0  0  0  0  0  0  0  0  0  0
  -18.6292  -13.3714    0.0543 H   0  0  0  0  0  0  0  0  0  0  0  0
  -20.3355  -13.2723    1.6349 H   0  0  0  0  0  0  0  0  0  0  0  0
  -17.6355  -11.1172   -1.1773 H   0  0  0  0  0  0  0  0  0  0  0  0
  -17.2624  -11.5809    1.6482 H   0  0  0  0  0  0  0  0  0  0  0  0
  -18.4268   -8.9045   -0.4328 H   0  0  0  0  0  0  0  0  0  0  0  0
  -15.5731   -8.4121    1.9444 H   0  0  0  0  0  0  0  0  0  0  0  0
  -12.0615   -9.2372   -0.6502 H   0  0  0  0  0  0  0  0  0  0  0  0
  -13.9476   -6.1989    1.8029 H   0  0  0  0  0  0  0  0  0  0  0  0
  2  1  1  6
  2  3  1  0
  2  4  1  0
  2  5  1  0
  5  6  2  0
  5 11  1  0
  6  7  1  0
  7  8  2  0
  8  9  1  0
  8 10  1  0
 10 11  2  0
 11 12  1  0
 12 13  1  0
 12 17  1  0
 13 14  2  0
 14 15  1  0
 14 16  1  0
 16 17  2  0
 18 17  1  0
 18 19  1  0
 18 21  1  0
 19 20  1  0
 19 27  1  0
 21 22  1  0
 22 23  1  0
 22 25  1  0
 23 24  1  0
 25 26  1  0
 25 27  1  0
 27 28  1  0
 28 29  1  0
 28 30  1  0
 29 32  2  0
 30 31  2  0
 31 32  1  0
 32 33  1  0
 33 34  2  0
 33 41  1  0
 34 35  1  0
 35 36  1  0
 35 37  2  0
 37 38  1  0
 37 39  1  0
 39 40  1  0
 39 41  2  0
  6 42  1  0
  7 43  1  0
 10 44  1  0
 15 45  1  0
 15 46  1  0
 15 47  1  0
 18 48  1  6
 19 49  1  1
 20 50  1  0
 22 51  1  6
 23 52  1  0
 23 53  1  0
 24 54  1  0
 25 55  1  6
 26 56  1  0
 27 57  1  6
 29 58  1  0
 34 59  1  0
 41 60  1  0
M  END
>  <filename_input>  (13) 
7XFA_D9J_docked.sdf

>  <pdb_id>  (13) 
7XFA_D9J

>  <pose_rank>  (13) 
12

>  <num_atoms_heavy>  (13) 
41

>  <num_torsions>  (13) 
6

>  <pose>  (13) 
[-19.667154896366934, -9.73754348222277, 1.7889089835123149, 4.020937581236837, 0.3458557314097294, -1.0574646750143553, 6.487586828236441, 6.309236011513826, 2.007787592972582, -7.236867625064769, -1.1863442001089417, -0.6364810744823005]

>  <energy>  (13) 
-520.5759215485273

>  <inter_energy>  (13) 
-574.0728191471086

>  <intra_energy>  (13) 
38.59038609598758

>  <rmsd>  (13) 
4.13063

>  <sdf_rank>  (13) 
0

$$$$

     RDKit          3D

 60 64  0  0  0  0  0  0  0  0999 V2000
   -8.7885   -9.8735    4.1418 F   0  0  0  0  0  0  0  0  0  0  0  0
   -8.3888  -10.3882    3.0523 C   0  0  1  0  0  0  0  0  0  0  0  0
   -7.0219  -10.2305    2.9755 F   0  0  0  0  0  0  0  0  0  0  0  0
   -8.6262  -11.6845    3.1309 F   0  0  0  0  0  0  0  0  0  0  0  0
   -9.0448   -9.8145    1.9040 C   0  0  0  0  0  0  0  0  0  0  0  0
   -8.2889   -9.2626    0.8436 C   0  0  0  0  0  0  0  0  0  0  0  0
   -8.9003   -8.6973   -0.2733 C   0  0  0  0  0  0  0  0  0  0  0  0
  -10.2870   -8.7089   -0.3847 C   0  0  0  0  0  0  0  0  0  0  0  0
  -11.0309   -8.0719   -1.8136 Cl  0  0  0  0  0  0  0  0  0  0  0  0
  -11.0604   -9.2592    0.6477 C   0  0  0  0  0  0  0  0  0  0  0  0
  -10.4610   -9.7987    1.7999 C   0  0  0  0  0  0  0  0  0  0  0  0
  -11.2716  -10.3104    2.7534 N   0  0  0  0  0  0  0  0  0  0  0  0
  -10.9877  -11.4070    3.5021 N   0  0  0  0  0  0  0  0  0  0  0  0
  -12.0046  -11.5260    4.3502 C   0  0  0  0  0  0  0  0  0  0  0  0
  -12.0864  -12.6485    5.3760 C   0  0  0  0  0  0  0  0  0  0  0  0
  -12.9289  -10.5734    4.1613 N   0  0  0  0  0  0  0  0  0  0  0  0
  -12.4628   -9.8506    3.1513 C   0  0  0  0  0  0  0  0  0  0  0  0
  -13.0997   -8.6158    2.5745 C   0  0  1  0  0  0  0  0  0  0  0  0
  -14.5983   -8.7557    2.3105 C   0  0  2  0  0  0  0  0  0  0  0  0
  -14.7592   -9.7443    1.2830 O   0  0  0  0  0  0  0  0  0  0  0  0
  -12.8647   -7.5660    3.5395 O   0  0  0  0  0  0  0  0  0  0  0  0
  -13.2721   -6.3022    2.9964 C   0  0  2  0  0  0  0  0  0  0  0  0
  -12.8663   -5.2496    4.0381 C   0  0  0  0  0  0  0  0  0  0  0  0
  -13.4530   -3.9726    3.7635 O   0  0  0  0  0  0  0  0  0  0  0  0
  -14.7763   -6.3010    2.7812 C   0  0  2  0  0  0  0  0  0  0  0  0
  -15.4410   -6.5069    4.0311 O   0  0  0  0  0  0  0  0  0  0  0  0
  -15.1144   -7.4261    1.8065 C   0  0  2  0  0  0  0  0  0  0  0  0
  -16.5469   -7.4686    1.5153 N   0  0  0  0  0  0  0  0  0  0  0  0
  -17.5215   -8.3036    1.9341 C   0  0  0  0  0  0  0  0  0  0  0  0
  -17.0613   -6.5408    0.6918 N   0  0  0  0  0  0  0  0  0  0  0  0
  -18.3555   -6.8118    0.5954 N   0  0  0  0  0  0  0  0  0  0  0  0
  -18.6657   -7.8814    1.3572 C   0  0  0  0  0  0  0  0  0  0  0  0
  -19.9337   -8.3833    1.4731 C   0  0  0  0  0  0  0  0  0  0  0  0
  -20.1158   -9.7773    1.5868 C   0  0  0  0  0  0  0  0  0  0  0  0
  -21.3905  -10.3194    1.6664 C   0  0  0  0  0  0  0  0  0  0  0  0
  -21.5588  -11.6626    1.8064 F   0  0  0  0  0  0  0  0  0  0  0  0
  -22.5031   -9.5100    1.5901 C   0  0  0  0  0  0  0  0  0  0  0  0
  -23.9669  -10.3204    1.7390 Cl  0  0  0  0  0  0  0  0  0  0  0  0
  -22.3580   -8.1271    1.4602 C   0  0  0  0  0  0  0  0  0  0  0  0
  -23.4296   -7.3096    1.3809 F   0  0  0  0  0  0  0  0  0  0  0  0
  -21.0784   -7.5645    1.4001 C   0  0  0  0  0  0  0  0  0  0  0  0
   -7.1906   -9.2803    0.9022 H   0  0  0  0  0  0  0  0  0  0  0  0
   -8.2877   -8.2426   -1.0658 H   0  0  0  0  0  0  0  0  0  0  0  0
  -12.1564   -9.2690    0.5545 H   0  0  0  0  0  0  0  0  0  0  0  0
  -12.0553  -12.2220    6.3895 H   0  0  0  0  0  0  0  0  0  0  0  0
  -13.0272  -13.2019    5.2398 H   0  0  0  0  0  0  0  0  0  0  0  0
  -11.2357  -13.3324    5.2398 H   0  0  0  0  0  0  0  0  0  0  0  0
  -12.6570   -8.4073    1.5894 H   0  0  0  0  0  0  0  0  0  0  0  0
  -15.1451   -9.0476    3.2193 H   0  0  0  0  0  0  0  0  0  0  0  0
  -14.9035  -10.6314    1.6982 H   0  0  0  0  0  0  0  0  0  0  0  0
  -12.8025   -6.0954    2.0234 H   0  0  0  0  0  0  0  0  0  0  0  0
  -13.1971   -5.5866    5.0316 H   0  0  0  0  0  0  0  0  0  0  0  0
  -11.7727   -5.1372    4.0011 H   0  0  0  0  0  0  0  0  0  0  0  0
  -13.6630   -3.5157    4.6163 H   0  0  0  0  0  0  0  0  0  0  0  0
  -15.1084   -5.3367    2.3692 H   0  0  0  0  0  0  0  0  0  0  0  0
  -14.8154   -6.3131    4.7735 H   0  0  0  0  0  0  0  0  0  0  0  0
  -14.6017   -7.2158    0.8563 H   0  0  0  0  0  0  0  0  0  0  0  0
  -17.4054   -9.1610    2.6134 H   0  0  0  0  0  0  0  0  0  0  0  0
  -19.2390  -10.4410    1.6127 H   0  0  0  0  0  0  0  0  0  0  0  0
  -20.9650   -6.4754    1.2950 H   0  0  0  0  0  0  0  0  0  0  0  0
  2  1  1  1
  2  3  1  0
  2  4  1  0
  2  5  1  0
  5  6  2  0
  5 11  1  0
  6  7  1  0
  7  8  2  0
  8  9  1  0
  8 10  1  0
 10 11  2  0
 11 12  1  0
 12 13  1  0
 12 17  1  0
 13 14  2  0
 14 15  1  0
 14 16  1  0
 16 17  2  0
 18 17  1  0
 18 19  1  0
 18 21  1  0
 19 20  1  0
 19 27  1  0
 21 22  1  0
 22 23  1  0
 22 25  1  0
 23 24  1  0
 25 26  1  0
 25 27  1  0
 27 28  1  0
 28 29  1  0
 28 30  1  0
 29 32  2  0
 30 31  2  0
 31 32  1  0
 32 33  1  0
 33 34  2  0
 33 41  1  0
 34 35  1  0
 35 36  1  0
 35 37  2  0
 37 38  1  0
 37 39  1  0
 39 40  1  0
 39 41  2  0
  6 42  1  0
  7 43  1  0
 10 44  1  0
 15 45  1  0
 15 46  1  0
 15 47  1  0
 18 48  1  6
 19 49  1  1
 20 50  1  0
 22 51  1  6
 23 52  1  0
 23 53  1  0
 24 54  1  0
 25 55  1  6
 26 56  1  0
 27 57  1  6
 29 58  1  0
 34 59  1  0
 41 60  1  0
M  END
>  <filename_input>  (14) 
7XFA_D9J_docked.sdf

>  <pdb_id>  (14) 
7XFA_D9J

>  <pose_rank>  (14) 
13

>  <num_atoms_heavy>  (14) 
41

>  <num_torsions>  (14) 
6

>  <pose>  (14) 
[-13.099706291303743, -8.61582250293422, 2.5745494326217853, -0.1664506583250056, -3.4318974005312946, 0.17394334969720335, -0.2920072717447924, -2.0916172324021107, 0.03725344223251139, -7.025046823540297, -4.11450632825677, 2.2169672979295667]

>  <energy>  (14) 
-371.49211617904325

>  <inter_energy>  (14) 
-454.90165370451024

>  <intra_energy>  (14) 
95.75074365222915

>  <rmsd>  (14) 
10.296

>  <sdf_rank>  (14) 
0

$$$$

     RDKit          3D

 60 64  0  0  0  0  0  0  0  0999 V2000
  -13.0458   -8.5220   -2.4439 F   0  0  0  0  0  0  0  0  0  0  0  0
  -13.6787   -8.7058   -1.3588 C   0  0  1  0  0  0  0  0  0  0  0  0
  -12.7683   -9.0323   -0.3772 F   0  0  0  0  0  0  0  0  0  0  0  0
  -14.2108   -7.5448   -1.0241 F   0  0  0  0  0  0  0  0  0  0  0  0
  -14.6956   -9.7198   -1.4845 C   0  0  0  0  0  0  0  0  0  0  0  0
  -14.8028  -10.4899   -2.6659 C   0  0  0  0  0  0  0  0  0  0  0  0
  -15.7809  -11.4710   -2.8129 C   0  0  0  0  0  0  0  0  0  0  0  0
  -16.6526  -11.7436   -1.7635 C   0  0  0  0  0  0  0  0  0  0  0  0
  -17.8137  -13.0181   -1.9314 Cl  0  0  0  0  0  0  0  0  0  0  0  0
  -16.5616  -11.0018   -0.5767 C   0  0  0  0  0  0  0  0  0  0  0  0
  -15.6057   -9.9814   -0.4261 C   0  0  0  0  0  0  0  0  0  0  0  0
  -15.5789   -9.3086    0.7464 N   0  0  0  0  0  0  0  0  0  0  0  0
  -14.4925   -9.2071    1.5547 N   0  0  0  0  0  0  0  0  0  0  0  0
  -14.8715   -8.4177    2.5550 C   0  0  0  0  0  0  0  0  0  0  0  0
  -13.9412   -8.0488    3.7027 C   0  0  0  0  0  0  0  0  0  0  0  0
  -16.1499   -8.0325    2.4327 N   0  0  0  0  0  0  0  0  0  0  0  0
  -16.5708   -8.6181    1.3193 C   0  0  0  0  0  0  0  0  0  0  0  0
  -17.9314   -8.4668    0.6959 C   0  0  1  0  0  0  0  0  0  0  0  0
  -19.0069   -9.3467    1.3317 C   0  0  2  0  0  0  0  0  0  0  0  0
  -18.6514  -10.7116    1.0676 O   0  0  0  0  0  0  0  0  0  0  0  0
  -18.2803   -7.0728    0.8492 O   0  0  0  0  0  0  0  0  0  0  0  0
  -19.4822   -6.7863    0.1202 C   0  0  2  0  0  0  0  0  0  0  0  0
  -19.6929   -5.2702    0.2414 C   0  0  0  0  0  0  0  0  0  0  0  0
  -20.5433   -4.7647   -0.7938 O   0  0  0  0  0  0  0  0  0  0  0  0
  -20.6450   -7.5466    0.7356 C   0  0  2  0  0  0  0  0  0  0  0  0
  -20.8181   -7.1416    2.0966 O   0  0  0  0  0  0  0  0  0  0  0  0
  -20.3267   -9.0377    0.6601 C   0  0  2  0  0  0  0  0  0  0  0  0
  -21.4194   -9.8457    1.2002 N   0  0  0  0  0  0  0  0  0  0  0  0
  -21.9800  -10.9960    0.7699 C   0  0  0  0  0  0  0  0  0  0  0  0
  -22.0236   -9.4352    2.3271 N   0  0  0  0  0  0  0  0  0  0  0  0
  -22.9662  -10.3309    2.5860 N   0  0  0  0  0  0  0  0  0  0  0  0
  -22.9528  -11.3049    1.6523 C   0  0  0  0  0  0  0  0  0  0  0  0
  -23.8013  -12.3785    1.6691 C   0  0  0  0  0  0  0  0  0  0  0  0
  -23.2880  -13.6674    1.4152 C   0  0  0  0  0  0  0  0  0  0  0  0
  -24.1292  -14.7703    1.3864 C   0  0  0  0  0  0  0  0  0  0  0  0
  -23.6235  -16.0152    1.1709 F   0  0  0  0  0  0  0  0  0  0  0  0
  -25.4880  -14.6209    1.5605 C   0  0  0  0  0  0  0  0  0  0  0  0
  -26.3569  -16.0582    1.5332 Cl  0  0  0  0  0  0  0  0  0  0  0  0
  -26.0309  -13.3561    1.7969 C   0  0  0  0  0  0  0  0  0  0  0  0
  -27.3583  -13.1791    1.9690 F   0  0  0  0  0  0  0  0  0  0  0  0
  -25.1919  -12.2377    1.8497 C   0  0  0  0  0  0  0  0  0  0  0  0
  -14.0962  -10.3097   -3.4894 H   0  0  0  0  0  0  0  0  0  0  0  0
  -15.8639  -12.0292   -3.7572 H   0  0  0  0  0  0  0  0  0  0  0  0
  -17.2507  -11.2224    0.2517 H   0  0  0  0  0  0  0  0  0  0  0  0
  -14.4437   -8.2481    4.6606 H   0  0  0  0  0  0  0  0  0  0  0  0
  -13.0227   -8.6507    3.6382 H   0  0  0  0  0  0  0  0  0  0  0  0
  -13.6850   -6.9810    3.6382 H   0  0  0  0  0  0  0  0  0  0  0  0
  -17.8858   -8.7901   -0.3545 H   0  0  0  0  0  0  0  0  0  0  0  0
  -19.0890   -9.1692    2.4142 H   0  0  0  0  0  0  0  0  0  0  0  0
  -18.5264  -11.1916    1.9244 H   0  0  0  0  0  0  0  0  0  0  0  0
  -19.4134   -7.0917   -0.9343 H   0  0  0  0  0  0  0  0  0  0  0  0
  -20.1520   -5.0518    1.2169 H   0  0  0  0  0  0  0  0  0  0  0  0
  -18.7123   -4.7811    0.1461 H   0  0  0  0  0  0  0  0  0  0  0  0
  -21.3193   -4.3034   -0.3875 H   0  0  0  0  0  0  0  0  0  0  0  0
  -21.5777   -7.3353    0.1920 H   0  0  0  0  0  0  0  0  0  0  0  0
  -20.5091   -7.8647    2.6980 H   0  0  0  0  0  0  0  0  0  0  0  0
  -20.2242   -9.3083   -0.4012 H   0  0  0  0  0  0  0  0  0  0  0  0
  -21.6985  -11.5696   -0.1255 H   0  0  0  0  0  0  0  0  0  0  0  0
  -22.2104  -13.7995    1.2382 H   0  0  0  0  0  0  0  0  0  0  0  0
  -25.6207  -11.2415    2.0333 H   0  0  0  0  0  0  0  0  0  0  0  0
  2  1  1  6
  2  3  1  0
  2  4  1  0
  2  5  1  0
  5  6  2  0
  5 11  1  0
  6  7  1  0
  7  8  2  0
  8  9  1  0
  8 10  1  0
 10 11  2  0
 11 12  1  0
 12 13  1  0
 12 17  1  0
 13 14  2  0
 14 15  1  0
 14 16  1  0
 16 17  2  0
 18 17  1  0
 18 19  1  0
 18 21  1  0
 19 20  1  0
 19 27  1  0
 21 22  1  0
 22 23  1  0
 22 25  1  0
 23 24  1  0
 25 26  1  0
 25 27  1  0
 27 28  1  0
 28 29  1  0
 28 30  1  0
 29 32  2  0
 30 31  2  0
 31 32  1  0
 32 33  1  0
 33 34  2  0
 33 41  1  0
 34 35  1  0
 35 36  1  0
 35 37  2  0
 37 38  1  0
 37 39  1  0
 39 40  1  0
 39 41  2  0
  6 42  1  0
  7 43  1  0
 10 44  1  0
 15 45  1  0
 15 46  1  0
 15 47  1  0
 18 48  1  6
 19 49  1  1
 20 50  1  0
 22 51  1  6
 23 52  1  0
 23 53  1  0
 24 54  1  0
 25 55  1  6
 26 56  1  0
 27 57  1  6
 29 58  1  0
 34 59  1  0
 41 60  1  0
M  END
>  <filename_input>  (15) 
7XFA_D9J_docked.sdf

>  <pdb_id>  (15) 
7XFA_D9J

>  <pose_rank>  (15) 
14

>  <num_atoms_heavy>  (15) 
41

>  <num_torsions>  (15) 
6

>  <pose>  (15) 
[-17.93143171464683, -8.466828407862137, 0.6959454901308928, 0.9468711292521059, -2.7834476641175816, 0.9509765491286222, -0.8903060143019328, -8.733628139742967, -2.027092774886504, -2.7886363928506044, 3.5744575265524605, 1.6411907331528948]

>  <energy>  (15) 
-524.4385285288333

>  <inter_energy>  (15) 
-623.8443671391589

>  <intra_energy>  (15) 
104.17006920309485

>  <rmsd>  (15) 
9.72734

>  <sdf_rank>  (15) 
0

$$$$

     RDKit          3D

 60 64  0  0  0  0  0  0  0  0999 V2000
  -17.3629  -17.5147    5.8460 F   0  0  0  0  0  0  0  0  0  0  0  0
  -17.4724  -16.2736    5.6024 C   0  0  1  0  0  0  0  0  0  0  0  0
  -18.8132  -15.9586    5.5572 F   0  0  0  0  0  0  0  0  0  0  0  0
  -16.9578  -15.6332    6.6358 F   0  0  0  0  0  0  0  0  0  0  0  0
  -16.8070  -15.8959    4.3806 C   0  0  0  0  0  0  0  0  0  0  0  0
  -15.7306  -16.6644    3.8793 C   0  0  0  0  0  0  0  0  0  0  0  0
  -15.0683  -16.3159    2.7043 C   0  0  0  0  0  0  0  0  0  0  0  0
  -15.4933  -15.2134    1.9698 C   0  0  0  0  0  0  0  0  0  0  0  0
  -14.7103  -14.8365    0.4713 Cl  0  0  0  0  0  0  0  0  0  0  0  0
  -16.5650  -14.4399    2.4387 C   0  0  0  0  0  0  0  0  0  0  0  0
  -17.2196  -14.7546    3.6430 C   0  0  0  0  0  0  0  0  0  0  0  0
  -18.2439  -13.9620    4.0315 N   0  0  0  0  0  0  0  0  0  0  0  0
  -18.2572  -13.2172    5.1668 N   0  0  0  0  0  0  0  0  0  0  0  0
  -19.4052  -12.5476    5.1340 C   0  0  0  0  0  0  0  0  0  0  0  0
  -19.8242  -11.5890    6.2405 C   0  0  0  0  0  0  0  0  0  0  0  0
  -20.1297  -12.8479    4.0466 N   0  0  0  0  0  0  0  0  0  0  0  0
  -19.3997  -13.7437    3.3951 C   0  0  0  0  0  0  0  0  0  0  0  0
  -19.7375  -14.3703    2.0699 C   0  0  1  0  0  0  0  0  0  0  0  0
  -21.2205  -14.2978    1.7088 C   0  0  2  0  0  0  0  0  0  0  0  0
  -21.9312  -15.0977    2.6649 O   0  0  0  0  0  0  0  0  0  0  0  0
  -18.9550  -13.6558    1.0873 O   0  0  0  0  0  0  0  0  0  0  0  0
  -19.0649  -14.3013   -0.1891 C   0  0  2  0  0  0  0  0  0  0  0  0
  -18.1061  -13.5478   -1.1223 C   0  0  0  0  0  0  0  0  0  0  0  0
  -17.5984  -12.3543   -0.5158 O   0  0  0  0  0  0  0  0  0  0  0  0
  -20.4967  -14.2032   -0.6883 C   0  0  2  0  0  0  0  0  0  0  0  0
  -20.8639  -12.8277   -0.8288 O   0  0  0  0  0  0  0  0  0  0  0  0
  -21.3998  -14.8941    0.3302 C   0  0  2  0  0  0  0  0  0  0  0  0
  -22.7983  -14.8770   -0.0971 N   0  0  0  0  0  0  0  0  0  0  0  0
  -23.4042  -14.2988   -1.1559 C   0  0  0  0  0  0  0  0  0  0  0  0
  -23.7035  -15.5346    0.6456 N   0  0  0  0  0  0  0  0  0  0  0  0
  -24.8724  -15.3522    0.0473 N   0  0  0  0  0  0  0  0  0  0  0  0
  -24.7146  -14.6073   -1.0666 C   0  0  0  0  0  0  0  0  0  0  0  0
  -25.7450  -14.2716   -1.9025 C   0  0  0  0  0  0  0  0  0  0  0  0
  -25.4752  -14.0230   -3.2644 C   0  0  0  0  0  0  0  0  0  0  0  0
  -26.4919  -13.6425   -4.1283 C   0  0  0  0  0  0  0  0  0  0  0  0
  -26.2309  -13.4335   -5.4475 F   0  0  0  0  0  0  0  0  0  0  0  0
  -27.7754  -13.4563   -3.6626 C   0  0  0  0  0  0  0  0  0  0  0  0
  -28.8915  -13.0319   -4.8440 Cl  0  0  0  0  0  0  0  0  0  0  0  0
  -28.0729  -13.6774   -2.3161 C   0  0  0  0  0  0  0  0  0  0  0  0
  -29.3205  -13.5009   -1.8310 F   0  0  0  0  0  0  0  0  0  0  0  0
  -27.0618  -14.0820   -1.4377 C   0  0  0  0  0  0  0  0  0  0  0  0
  -15.4084  -17.5597    4.4311 H   0  0  0  0  0  0  0  0  0  0  0  0
  -14.2108  -16.9113    2.3578 H   0  0  0  0  0  0  0  0  0  0  0  0
  -16.8999  -13.5707    1.8536 H   0  0  0  0  0  0  0  0  0  0  0  0
  -19.6233  -12.0487    7.2195 H   0  0  0  0  0  0  0  0  0  0  0  0
  -19.2531  -10.6532    6.1507 H   0  0  0  0  0  0  0  0  0  0  0  0
  -20.8990  -11.3726    6.1507 H   0  0  0  0  0  0  0  0  0  0  0  0
  -19.5081  -15.4454    2.1095 H   0  0  0  0  0  0  0  0  0  0  0  0
  -21.5903  -13.2619    1.7179 H   0  0  0  0  0  0  0  0  0  0  0  0
  -21.6816  -14.8168    3.5808 H   0  0  0  0  0  0  0  0  0  0  0  0
  -18.8084  -15.3698   -0.1397 H   0  0  0  0  0  0  0  0  0  0  0  0
  -17.2615  -14.2069   -1.3718 H   0  0  0  0  0  0  0  0  0  0  0  0
  -18.6649  -13.2602   -2.0251 H   0  0  0  0  0  0  0  0  0  0  0  0
  -17.6361  -12.4430    0.4695 H   0  0  0  0  0  0  0  0  0  0  0  0
  -20.5995  -14.6892   -1.6697 H   0  0  0  0  0  0  0  0  0  0  0  0
  -20.9722  -12.4218    0.0676 H   0  0  0  0  0  0  0  0  0  0  0  0
  -21.0971  -15.9499    0.3893 H   0  0  0  0  0  0  0  0  0  0  0  0
  -22.9233  -13.6940   -1.9388 H   0  0  0  0  0  0  0  0  0  0  0  0
  -24.4490  -14.1319   -3.6452 H   0  0  0  0  0  0  0  0  0  0  0  0
  -27.2965  -14.2533   -0.3767 H   0  0  0  0  0  0  0  0  0  0  0  0
  2  1  1  1
  2  3  1  0
  2  4  1  0
  2  5  1  0
  5  6  2  0
  5 11  1  0
  6  7  1  0
  7  8  2  0
  8  9  1  0
  8 10  1  0
 10 11  2  0
 11 12  1  0
 12 13  1  0
 12 17  1  0
 13 14  2  0
 14 15  1  0
 14 16  1  0
 16 17  2  0
 18 17  1  0
 18 19  1  0
 18 21  1  0
 19 20  1  0
 19 27  1  0
 21 22  1  0
 22 23  1  0
 22 25  1  0
 23 24  1  0
 25 26  1  0
 25 27  1  0
 27 28  1  0
 28 29  1  0
 28 30  1  0
 29 32  2  0
 30 31  2  0
 31 32  1  0
 32 33  1  0
 33 34  2  0
 33 41  1  0
 34 35  1  0
 35 36  1  0
 35 37  2  0
 37 38  1  0
 37 39  1  0
 39 40  1  0
 39 41  2  0
  6 42  1  0
  7 43  1  0
 10 44  1  0
 15 45  1  0
 15 46  1  0
 15 47  1  0
 18 48  1  1
 19 49  1  6
 20 50  1  0
 22 51  1  1
 23 52  1  0
 23 53  1  0
 24 54  1  0
 25 55  1  6
 26 56  1  0
 27 57  1  1
 29 58  1  0
 34 59  1  0
 41 60  1  0
M  END
>  <filename_input>  (16) 
7XFA_D9J_docked.sdf

>  <pdb_id>  (16) 
7XFA_D9J

>  <pose_rank>  (16) 
15

>  <num_atoms_heavy>  (16) 
41

>  <num_torsions>  (16) 
6

>  <pose>  (16) 
[-19.737481572530136, -14.370328343069527, 2.069910148855652, -0.42363415675277083, -2.052545978082914, 2.7529743476557615, 6.4506928945134385, 5.924739134231762, 3.696896775098383, 0.9993779305823884, 3.271110502628271, -1.3006350094607595]

>  <energy>  (16) 
-18.68515862515399

>  <inter_energy>  (16) 
-119.76296988768424

>  <intra_energy>  (16) 
98.64606409801571

>  <rmsd>  (16) 
11.0383

>  <sdf_rank>  (16) 
0

$$$$

     RDKit          3D

 60 64  0  0  0  0  0  0  0  0999 V2000
  -13.5738   -4.3260    5.0586 F   0  0  0  0  0  0  0  0  0  0  0  0
  -12.3674   -4.4560    5.4321 C   0  0  1  0  0  0  0  0  0  0  0  0
  -12.1721   -3.6676    6.5453 F   0  0  0  0  0  0  0  0  0  0  0  0
  -12.2175   -5.7108    5.8141 F   0  0  0  0  0  0  0  0  0  0  0  0
  -11.4328   -4.1221    4.3866 C   0  0  0  0  0  0  0  0  0  0  0  0
  -10.4387   -3.1381    4.5963 C   0  0  0  0  0  0  0  0  0  0  0  0
   -9.5285   -2.7941    3.5992 C   0  0  0  0  0  0  0  0  0  0  0  0
   -9.5557   -3.4580    2.3769 C   0  0  0  0  0  0  0  0  0  0  0  0
   -8.3696   -3.0742    1.1740 Cl  0  0  0  0  0  0  0  0  0  0  0  0
  -10.5245   -4.4454    2.1461 C   0  0  0  0  0  0  0  0  0  0  0  0
  -11.4755   -4.7775    3.1274 C   0  0  0  0  0  0  0  0  0  0  0  0
  -12.3792   -5.7389    2.8321 N   0  0  0  0  0  0  0  0  0  0  0  0
  -13.6531   -5.5035    2.4252 N   0  0  0  0  0  0  0  0  0  0  0  0
  -14.1716   -6.7034    2.1830 C   0  0  0  0  0  0  0  0  0  0  0  0
  -15.6057   -6.8932    1.7072 C   0  0  0  0  0  0  0  0  0  0  0  0
  -13.2978   -7.6879    2.4375 N   0  0  0  0  0  0  0  0  0  0  0  0
  -12.2061   -7.0648    2.8616 C   0  0  0  0  0  0  0  0  0  0  0  0
  -10.9001   -7.7135    3.2309 C   0  0  1  0  0  0  0  0  0  0  0  0
  -11.0467   -9.1231    3.8023 C   0  0  2  0  0  0  0  0  0  0  0  0
  -11.7440   -9.0060    5.0509 O   0  0  0  0  0  0  0  0  0  0  0  0
  -10.1236   -7.7533    2.0127 O   0  0  0  0  0  0  0  0  0  0  0  0
   -8.7860   -8.1857    2.2991 C   0  0  2  0  0  0  0  0  0  0  0  0
   -8.0175   -8.0716    0.9746 C   0  0  0  0  0  0  0  0  0  0  0  0
   -6.8857   -7.2018    1.0871 O   0  0  0  0  0  0  0  0  0  0  0  0
   -8.8094   -9.6233    2.7907 C   0  0  2  0  0  0  0  0  0  0  0  0
   -9.3656  -10.4684    1.7794 O   0  0  0  0  0  0  0  0  0  0  0  0
   -9.6615   -9.6754    4.0562 C   0  0  2  0  0  0  0  0  0  0  0  0
   -9.7036  -11.0253    4.6172 N   0  0  0  0  0  0  0  0  0  0  0  0
   -8.7360  -11.8083    5.1400 C   0  0  0  0  0  0  0  0  0  0  0  0
  -10.8826  -11.6669    4.6556 N   0  0  0  0  0  0  0  0  0  0  0  0
  -10.6382  -12.8532    5.1949 N   0  0  0  0  0  0  0  0  0  0  0  0
   -9.3311  -12.9607    5.5118 C   0  0  0  0  0  0  0  0  0  0  0  0
   -8.7863  -14.0682    6.1031 C   0  0  0  0  0  0  0  0  0  0  0  0
   -8.6696  -15.2605    5.3588 C   0  0  0  0  0  0  0  0  0  0  0  0
   -8.1579  -16.4107    5.9420 C   0  0  0  0  0  0  0  0  0  0  0  0
   -8.0196  -17.5496    5.2100 F   0  0  0  0  0  0  0  0  0  0  0  0
   -7.7966  -16.4219    7.2717 C   0  0  0  0  0  0  0  0  0  0  0  0
   -7.1627  -17.8813    7.8101 Cl  0  0  0  0  0  0  0  0  0  0  0  0
   -7.9156  -15.2628    8.0417 C   0  0  0  0  0  0  0  0  0  0  0  0
   -7.5715  -15.2445    9.3471 F   0  0  0  0  0  0  0  0  0  0  0  0
   -8.4102  -14.0898    7.4611 C   0  0  0  0  0  0  0  0  0  0  0  0
  -10.3829   -2.6315    5.5711 H   0  0  0  0  0  0  0  0  0  0  0  0
   -8.7896   -1.9991    3.7781 H   0  0  0  0  0  0  0  0  0  0  0  0
  -10.5407   -4.9699    1.1794 H   0  0  0  0  0  0  0  0  0  0  0  0
  -16.2722   -6.9814    2.5779 H   0  0  0  0  0  0  0  0  0  0  0  0
  -15.9083   -6.0273    1.1001 H   0  0  0  0  0  0  0  0  0  0  0  0
  -15.6726   -7.8080    1.1001 H   0  0  0  0  0  0  0  0  0  0  0  0
  -10.4214   -7.1316    4.0323 H   0  0  0  0  0  0  0  0  0  0  0  0
  -11.5917   -9.7856    3.1138 H   0  0  0  0  0  0  0  0  0  0  0  0
  -11.1034   -9.1136    5.7980 H   0  0  0  0  0  0  0  0  0  0  0  0
   -8.3106   -7.5794    3.0842 H   0  0  0  0  0  0  0  0  0  0  0  0
   -7.6691   -9.0720    0.6784 H   0  0  0  0  0  0  0  0  0  0  0  0
   -8.6983   -7.6493    0.2208 H   0  0  0  0  0  0  0  0  0  0  0  0
   -6.6830   -7.0460    2.0435 H   0  0  0  0  0  0  0  0  0  0  0  0
   -7.7906   -9.9745    3.0111 H   0  0  0  0  0  0  0  0  0  0  0  0
   -9.8567  -11.2146    2.2063 H   0  0  0  0  0  0  0  0  0  0  0  0
   -9.1864   -9.0311    4.8106 H   0  0  0  0  0  0  0  0  0  0  0  0
   -7.6703  -11.5560    5.2429 H   0  0  0  0  0  0  0  0  0  0  0  0
   -8.9873  -15.2786    4.3058 H   0  0  0  0  0  0  0  0  0  0  0  0
   -8.5060  -13.1780    8.0690 H   0  0  0  0  0  0  0  0  0  0  0  0
  2  1  1  6
  2  3  1  0
  2  4  1  0
  2  5  1  0
  5  6  2  0
  5 11  1  0
  6  7  1  0
  7  8  2  0
  8  9  1  0
  8 10  1  0
 10 11  2  0
 11 12  1  0
 12 13  1  0
 12 17  1  0
 13 14  2  0
 14 15  1  0
 14 16  1  0
 16 17  2  0
 18 17  1  0
 18 19  1  0
 18 21  1  0
 19 20  1  0
 19 27  1  0
 21 22  1  0
 22 23  1  0
 22 25  1  0
 23 24  1  0
 25 26  1  0
 25 27  1  0
 27 28  1  0
 28 29  1  0
 28 30  1  0
 29 32  2  0
 30 31  2  0
 31 32  1  0
 32 33  1  0
 33 34  2  0
 33 41  1  0
 34 35  1  0
 35 36  1  0
 35 37  2  0
 37 38  1  0
 37 39  1  0
 39 40  1  0
 39 41  2  0
  6 42  1  0
  7 43  1  0
 10 44  1  0
 15 45  1  0
 15 46  1  0
 15 47  1  0
 18 48  1  1
 19 49  1  6
 20 50  1  0
 22 51  1  1
 23 52  1  0
 23 53  1  0
 24 54  1  0
 25 55  1  1
 26 56  1  0
 27 57  1  1
 29 58  1  0
 34 59  1  0
 41 60  1  0
M  END
>  <filename_input>  (17) 
7XFA_D9J_docked.sdf

>  <pdb_id>  (17) 
7XFA_D9J

>  <pose_rank>  (17) 
16

>  <num_atoms_heavy>  (17) 
41

>  <num_torsions>  (17) 
6

>  <pose>  (17) 
[-10.900092404095595, -7.713492010823914, 3.2308935026998036, 1.5062054042177344, 0.6939451075114592, 4.412037237288288, -31.42727998564276, -0.04809536798024345, 0.016830737137024813, -4.077128590254342, 0.880367207826848, 0.9874589554008855]

>  <energy>  (17) 
-212.42835101808865

>  <inter_energy>  (17) 
-253.69675843422704

>  <intra_energy>  (17) 
37.27755276880031

>  <rmsd>  (17) 
10.9171

>  <sdf_rank>  (17) 
0

$$$$

     RDKit          3D

 60 64  0  0  0  0  0  0  0  0999 V2000
  -19.9092   -8.9254    0.9816 F   0  0  0  0  0  0  0  0  0  0  0  0
  -19.0573   -9.7392    0.5088 C   0  0  1  0  0  0  0  0  0  0  0  0
  -19.4387  -10.0677   -0.7740 F   0  0  0  0  0  0  0  0  0  0  0  0
  -17.9131   -9.0868    0.4185 F   0  0  0  0  0  0  0  0  0  0  0  0
  -18.9138  -10.9171    1.3274 C   0  0  0  0  0  0  0  0  0  0  0  0
  -19.8300  -11.1849    2.3711 C   0  0  0  0  0  0  0  0  0  0  0  0
  -19.7084  -12.3132    3.1792 C   0  0  0  0  0  0  0  0  0  0  0  0
  -18.6928  -13.2327    2.9375 C   0  0  0  0  0  0  0  0  0  0  0  0
  -18.5995  -14.6696    3.9006 Cl  0  0  0  0  0  0  0  0  0  0  0  0
  -17.7767  -12.9970    1.9022 C   0  0  0  0  0  0  0  0  0  0  0  0
  -17.8614  -11.8436    1.1020 C   0  0  0  0  0  0  0  0  0  0  0  0
  -16.9418  -11.6842    0.1236 N   0  0  0  0  0  0  0  0  0  0  0  0
  -17.0778  -12.1429   -1.1471 N   0  0  0  0  0  0  0  0  0  0  0  0
  -15.9933  -11.7218   -1.7904 C   0  0  0  0  0  0  0  0  0  0  0  0
  -15.7428  -12.0317   -3.2602 C   0  0  0  0  0  0  0  0  0  0  0  0
  -15.1666  -11.0390   -0.9855 N   0  0  0  0  0  0  0  0  0  0  0  0
  -15.7652  -11.0525    0.1982 C   0  0  0  0  0  0  0  0  0  0  0  0
  -15.2766  -10.3736    1.4484 C   0  0  1  0  0  0  0  0  0  0  0  0
  -14.2113  -11.1631    2.2079 C   0  0  2  0  0  0  0  0  0  0  0  0
  -14.8315  -12.3666    2.6835 O   0  0  0  0  0  0  0  0  0  0  0  0
  -14.7371   -9.1033    1.0197 O   0  0  0  0  0  0  0  0  0  0  0  0
  -14.4135   -8.2985    2.1623 C   0  0  2  0  0  0  0  0  0  0  0  0
  -13.9736   -6.9375    1.6037 C   0  0  0  0  0  0  0  0  0  0  0  0
  -13.9842   -5.9187    2.6097 O   0  0  0  0  0  0  0  0  0  0  0  0
  -13.2875   -8.9535    2.9447 C   0  0  2  0  0  0  0  0  0  0  0  0
  -12.1288   -9.0698    2.1137 O   0  0  0  0  0  0  0  0  0  0  0  0
  -13.7635  -10.3336    3.3909 C   0  0  2  0  0  0  0  0  0  0  0  0
  -12.7459  -11.0184    4.1872 N   0  0  0  0  0  0  0  0  0  0  0  0
  -12.0993  -12.1885    3.9992 C   0  0  0  0  0  0  0  0  0  0  0  0
  -12.3257  -10.4405    5.3243 N   0  0  0  0  0  0  0  0  0  0  0  0
  -11.4244  -11.2627    5.8433 N   0  0  0  0  0  0  0  0  0  0  0  0
  -11.2585  -12.3369    5.0439 C   0  0  0  0  0  0  0  0  0  0  0  0
  -10.3761  -13.3482    5.3119 C   0  0  0  0  0  0  0  0  0  0  0  0
   -9.4219  -13.1776    6.3364 C   0  0  0  0  0  0  0  0  0  0  0  0
   -8.4889  -14.1686    6.6056 C   0  0  0  0  0  0  0  0  0  0  0  0
   -7.5903  -14.0108    7.6153 F   0  0  0  0  0  0  0  0  0  0  0  0
   -8.4482  -15.3184    5.8472 C   0  0  0  0  0  0  0  0  0  0  0  0
   -7.2840  -16.4300    6.3275 Cl  0  0  0  0  0  0  0  0  0  0  0  0
   -9.3679  -15.5113    4.8141 C   0  0  0  0  0  0  0  0  0  0  0  0
   -9.3507  -16.6266    4.0533 F   0  0  0  0  0  0  0  0  0  0  0  0
  -10.3280  -14.5298    4.5451 C   0  0  0  0  0  0  0  0  0  0  0  0
  -20.6594  -10.4846    2.5493 H   0  0  0  0  0  0  0  0  0  0  0  0
  -20.4142  -12.4767    4.0070 H   0  0  0  0  0  0  0  0  0  0  0  0
  -16.9769  -13.7280    1.7124 H   0  0  0  0  0  0  0  0  0  0  0  0
  -15.0532  -12.8847   -3.3427 H   0  0  0  0  0  0  0  0  0  0  0  0
  -16.6956  -12.2817   -3.7497 H   0  0  0  0  0  0  0  0  0  0  0  0
  -15.2986  -11.1524   -3.7497 H   0  0  0  0  0  0  0  0  0  0  0  0
  -16.1129  -10.2737    2.1560 H   0  0  0  0  0  0  0  0  0  0  0  0
  -13.3474  -11.3979    1.5688 H   0  0  0  0  0  0  0  0  0  0  0  0
  -14.8325  -12.3684    3.6735 H   0  0  0  0  0  0  0  0  0  0  0  0
  -15.2659   -8.1862    2.8484 H   0  0  0  0  0  0  0  0  0  0  0  0
  -12.9536   -7.0307    1.2026 H   0  0  0  0  0  0  0  0  0  0  0  0
  -14.6844   -6.6465    0.8163 H   0  0  0  0  0  0  0  0  0  0  0  0
  -13.9798   -6.3396    3.5057 H   0  0  0  0  0  0  0  0  0  0  0  0
  -13.0218   -8.3473    3.8233 H   0  0  0  0  0  0  0  0  0  0  0  0
  -11.3221   -9.1508    2.6819 H   0  0  0  0  0  0  0  0  0  0  0  0
  -14.6387  -10.1950    4.0426 H   0  0  0  0  0  0  0  0  0  0  0  0
  -12.2320  -12.8851    3.1583 H   0  0  0  0  0  0  0  0  0  0  0  0
   -9.4174  -12.2501    6.9277 H   0  0  0  0  0  0  0  0  0  0  0  0
  -11.0503  -14.6813    3.7295 H   0  0  0  0  0  0  0  0  0  0  0  0
  2  1  1  1
  2  3  1  0
  2  4  1  0
  2  5  1  0
  5  6  2  0
  5 11  1  0
  6  7  1  0
  7  8  2  0
  8  9  1  0
  8 10  1  0
 10 11  2  0
 11 12  1  0
 12 13  1  0
 12 17  1  0
 13 14  2  0
 14 15  1  0
 14 16  1  0
 16 17  2  0
 18 17  1  0
 18 19  1  0
 18 21  1  0
 19 20  1  0
 19 27  1  0
 21 22  1  0
 22 23  1  0
 22 25  1  0
 23 24  1  0
 25 26  1  0
 25 27  1  0
 27 28  1  0
 28 29  1  0
 28 30  1  0
 29 32  2  0
 30 31  2  0
 31 32  1  0
 32 33  1  0
 33 34  2  0
 33 41  1  0
 34 35  1  0
 35 36  1  0
 35 37  2  0
 37 38  1  0
 37 39  1  0
 39 40  1  0
 39 41  2  0
  6 42  1  0
  7 43  1  0
 10 44  1  0
 15 45  1  0
 15 46  1  0
 15 47  1  0
 18 48  1  1
 19 49  1  6
 20 50  1  0
 22 51  1  1
 23 52  1  0
 23 53  1  0
 24 54  1  0
 25 55  1  1
 26 56  1  0
 27 57  1  1
 29 58  1  0
 34 59  1  0
 41 60  1  0
M  END
>  <filename_input>  (18) 
7XFA_D9J_docked.sdf

>  <pdb_id>  (18) 
7XFA_D9J

>  <pose_rank>  (18) 
17

>  <num_atoms_heavy>  (18) 
41

>  <num_torsions>  (18) 
6

>  <pose>  (18) 
[-15.276605572319161, -10.373579520712822, 1.4484434514579865, -2.2038324306709725, 4.598308653389926, 1.513207501357104, -0.8983437993117122, 3.2507029663404285, -1.9548555828071266, -1.0157732481288797, -0.5444845380489279, 1.7167279468221202]

>  <energy>  (18) 
-159.81253501819643

>  <inter_energy>  (18) 
-193.9782654051975

>  <intra_energy>  (18) 
40.339776536775524

>  <rmsd>  (18) 
6.92118

>  <sdf_rank>  (18) 
0

$$$$

     RDKit          3D

 60 64  0  0  0  0  0  0  0  0999 V2000
  -12.1869   -6.9151   -0.8883 F   0  0  0  0  0  0  0  0  0  0  0  0
  -12.8988   -7.9609   -0.9948 C   0  0  1  0  0  0  0  0  0  0  0  0
  -14.1694   -7.5825   -1.3707 F   0  0  0  0  0  0  0  0  0  0  0  0
  -12.3943   -8.6683   -1.9887 F   0  0  0  0  0  0  0  0  0  0  0  0
  -12.9235   -8.7313    0.2234 C   0  0  0  0  0  0  0  0  0  0  0  0
  -12.0497   -8.4193    1.2909 C   0  0  0  0  0  0  0  0  0  0  0  0
  -12.0511   -9.1531    2.4752 C   0  0  0  0  0  0  0  0  0  0  0  0
  -12.9597  -10.1927    2.6454 C   0  0  0  0  0  0  0  0  0  0  0  0
  -13.0024  -11.0469    4.1519 Cl  0  0  0  0  0  0  0  0  0  0  0  0
  -13.8445  -10.5167    1.6067 C   0  0  0  0  0  0  0  0  0  0  0  0
  -13.8301   -9.8117    0.3900 C   0  0  0  0  0  0  0  0  0  0  0  0
  -14.7123  -10.1819   -0.5655 N   0  0  0  0  0  0  0  0  0  0  0  0
  -14.3740  -10.5599   -1.8251 N   0  0  0  0  0  0  0  0  0  0  0  0
  -15.5189  -10.8997   -2.4091 C   0  0  0  0  0  0  0  0  0  0  0  0
  -15.5891  -11.3813   -3.8520 C   0  0  0  0  0  0  0  0  0  0  0  0
  -16.5677  -10.7344   -1.5903 N   0  0  0  0  0  0  0  0  0  0  0  0
  -16.0434  -10.2656   -0.4655 C   0  0  0  0  0  0  0  0  0  0  0  0
  -16.7914   -9.9602    0.8033 C   0  0  1  0  0  0  0  0  0  0  0  0
  -18.1213   -9.2409    0.5823 C   0  0  2  0  0  0  0  0  0  0  0  0
  -17.8208   -7.9492    0.0342 O   0  0  0  0  0  0  0  0  0  0  0  0
  -17.0210  -11.2369    1.4403 O   0  0  0  0  0  0  0  0  0  0  0  0
  -17.5655  -11.0380    2.7526 C   0  0  2  0  0  0  0  0  0  0  0  0
  -17.6513  -12.4345    3.3853 C   0  0  0  0  0  0  0  0  0  0  0  0
  -16.8391  -13.3868    2.6900 O   0  0  0  0  0  0  0  0  0  0  0  0
  -18.9433  -10.4067    2.6424 C   0  0  2  0  0  0  0  0  0  0  0  0
  -19.8111  -11.2718    1.9043 O   0  0  0  0  0  0  0  0  0  0  0  0
  -18.7924   -9.0668    1.9267 C   0  0  2  0  0  0  0  0  0  0  0  0
  -20.0752   -8.3737    1.8137 N   0  0  0  0  0  0  0  0  0  0  0  0
  -21.3349   -8.7699    2.0941 C   0  0  0  0  0  0  0  0  0  0  0  0
  -20.0832   -7.1105    1.3579 N   0  0  0  0  0  0  0  0  0  0  0  0
  -21.3535   -6.7312    1.3483 N   0  0  0  0  0  0  0  0  0  0  0  0
  -22.1407   -7.7267    1.8063 C   0  0  0  0  0  0  0  0  0  0  0  0
  -23.4994   -7.6188    1.9296 C   0  0  0  0  0  0  0  0  0  0  0  0
  -24.0819   -6.3397    2.0468 C   0  0  0  0  0  0  0  0  0  0  0  0
  -25.4523   -6.1995    2.2125 C   0  0  0  0  0  0  0  0  0  0  0  0
  -26.0117   -4.9616    2.2946 F   0  0  0  0  0  0  0  0  0  0  0  0
  -26.2641   -7.3086    2.3112 C   0  0  0  0  0  0  0  0  0  0  0  0
  -27.9000   -6.9634    2.4727 Cl  0  0  0  0  0  0  0  0  0  0  0  0
  -25.7170   -8.5900    2.2163 C   0  0  0  0  0  0  0  0  0  0  0  0
  -26.4873   -9.6948    2.3114 F   0  0  0  0  0  0  0  0  0  0  0  0
  -24.3395   -8.7461    2.0278 C   0  0  0  0  0  0  0  0  0  0  0  0
  -11.3515   -7.5761    1.1834 H   0  0  0  0  0  0  0  0  0  0  0  0
  -11.3350   -8.9108    3.2743 H   0  0  0  0  0  0  0  0  0  0  0  0
  -14.5633  -11.3375    1.7464 H   0  0  0  0  0  0  0  0  0  0  0  0
  -15.7476  -12.4697   -3.8680 H   0  0  0  0  0  0  0  0  0  0  0  0
  -16.4239  -10.8816   -4.3652 H   0  0  0  0  0  0  0  0  0  0  0  0
  -14.6464  -11.1405   -4.3652 H   0  0  0  0  0  0  0  0  0  0  0  0
  -16.1947   -9.2696    1.4174 H   0  0  0  0  0  0  0  0  0  0  0  0
  -18.7808   -9.8054   -0.0933 H   0  0  0  0  0  0  0  0  0  0  0  0
  -17.6709   -7.3050    0.7709 H   0  0  0  0  0  0  0  0  0  0  0  0
  -16.9457  -10.3656    3.3639 H   0  0  0  0  0  0  0  0  0  0  0  0
  -17.3119  -12.3730    4.4299 H   0  0  0  0  0  0  0  0  0  0  0  0
  -18.6969  -12.7713    3.3272 H   0  0  0  0  0  0  0  0  0  0  0  0
  -16.3577  -13.9511    3.3456 H   0  0  0  0  0  0  0  0  0  0  0  0
  -19.3794  -10.2508    3.6401 H   0  0  0  0  0  0  0  0  0  0  0  0
  -20.3524  -11.8114    2.5335 H   0  0  0  0  0  0  0  0  0  0  0  0
  -18.1377   -8.4286    2.5382 H   0  0  0  0  0  0  0  0  0  0  0  0
  -21.6441   -9.7518    2.4817 H   0  0  0  0  0  0  0  0  0  0  0  0
  -23.4437   -5.4447    2.0065 H   0  0  0  0  0  0  0  0  0  0  0  0
  -23.9091   -9.7559    1.9559 H   0  0  0  0  0  0  0  0  0  0  0  0
  2  1  1  1
  2  3  1  0
  2  4  1  0
  2  5  1  0
  5  6  2  0
  5 11  1  0
  6  7  1  0
  7  8  2  0
  8  9  1  0
  8 10  1  0
 10 11  2  0
 11 12  1  0
 12 13  1  0
 12 17  1  0
 13 14  2  0
 14 15  1  0
 14 16  1  0
 16 17  2  0
 18 17  1  0
 18 19  1  0
 18 21  1  0
 19 20  1  0
 19 27  1  0
 21 22  1  0
 22 23  1  0
 22 25  1  0
 23 24  1  0
 25 26  1  0
 25 27  1  0
 27 28  1  0
 28 29  1  0
 28 30  1  0
 29 32  2  0
 30 31  2  0
 31 32  1  0
 32 33  1  0
 33 34  2  0
 33 41  1  0
 34 35  1  0
 35 36  1  0
 35 37  2  0
 37 38  1  0
 37 39  1  0
 39 40  1  0
 39 41  2  0
  6 42  1  0
  7 43  1  0
 10 44  1  0
 15 45  1  0
 15 46  1  0
 15 47  1  0
 18 48  1  1
 19 49  1  6
 20 50  1  0
 22 51  1  1
 23 52  1  0
 23 53  1  0
 24 54  1  0
 25 55  1  1
 26 56  1  0
 27 57  1  1
 29 58  1  0
 34 59  1  0
 41 60  1  0
M  END
>  <filename_input>  (19) 
7XFA_D9J_docked.sdf

>  <pdb_id>  (19) 
7XFA_D9J

>  <pose_rank>  (19) 
18

>  <num_atoms_heavy>  (19) 
41

>  <num_torsions>  (19) 
6

>  <pose>  (19) 
[-16.791360997345745, -9.960203518897911, 0.8033430044842357, -0.6716632076256003, -2.052087301190189, -2.8075106645176766, -0.22022585073173548, -0.46648183045518776, -2.3235803512004023, 0.9429578147053238, -0.7467200631586243, -0.8363207945112033]

>  <energy>  (19) 
-474.09490656391665

>  <inter_energy>  (19) 
-540.7833512777015

>  <intra_energy>  (19) 
79.76186482873844

>  <rmsd>  (19) 
10.0959

>  <sdf_rank>  (19) 
0

$$$$

     RDKit          3D

 60 64  0  0  0  0  0  0  0  0999 V2000
  -18.7311   -7.9253    7.6272 F   0  0  0  0  0  0  0  0  0  0  0  0
  -19.1493   -8.4392    8.7101 C   0  0  1  0  0  0  0  0  0  0  0  0
  -18.1861   -8.2521    9.6777 F   0  0  0  0  0  0  0  0  0  0  0  0
  -20.2101   -7.7454    9.0792 F   0  0  0  0  0  0  0  0  0  0  0  0
  -19.4747   -9.8357    8.5622 C   0  0  0  0  0  0  0  0  0  0  0  0
  -20.8204  -10.2697    8.5995 C   0  0  0  0  0  0  0  0  0  0  0  0
  -21.1590  -11.6143    8.4649 C   0  0  0  0  0  0  0  0  0  0  0  0
  -20.1640  -12.5608    8.2420 C   0  0  0  0  0  0  0  0  0  0  0  0
  -20.6057  -14.2183    7.9998 Cl  0  0  0  0  0  0  0  0  0  0  0  0
  -18.8222  -12.1564    8.1901 C   0  0  0  0  0  0  0  0  0  0  0  0
  -18.4595  -10.8086    8.3630 C   0  0  0  0  0  0  0  0  0  0  0  0
  -17.1458  -10.4947    8.3011 N   0  0  0  0  0  0  0  0  0  0  0  0
  -16.2352  -10.7863    9.2652 N   0  0  0  0  0  0  0  0  0  0  0  0
  -15.0687  -10.3672    8.7847 C   0  0  0  0  0  0  0  0  0  0  0  0
  -13.7681  -10.4987    9.5658 C   0  0  0  0  0  0  0  0  0  0  0  0
  -15.1980   -9.8045    7.5746 N   0  0  0  0  0  0  0  0  0  0  0  0
  -16.4962   -9.8737    7.3105 C   0  0  0  0  0  0  0  0  0  0  0  0
  -17.1695   -9.4265    6.0419 C   0  0  1  0  0  0  0  0  0  0  0  0
  -16.2233   -9.2972    4.8490 C   0  0  2  0  0  0  0  0  0  0  0  0
  -15.3030   -8.2378    5.1484 O   0  0  0  0  0  0  0  0  0  0  0  0
  -18.1814  -10.4200    5.7636 O   0  0  0  0  0  0  0  0  0  0  0  0
  -19.0059   -9.9862    4.6727 C   0  0  2  0  0  0  0  0  0  0  0  0
  -20.1149  -11.0402    4.5424 C   0  0  0  0  0  0  0  0  0  0  0  0
  -19.6943  -12.3207    5.0256 O   0  0  0  0  0  0  0  0  0  0  0  0
  -18.1745   -9.9137    3.4029 C   0  0  2  0  0  0  0  0  0  0  0  0
  -17.6447  -11.2076    3.1003 O   0  0  0  0  0  0  0  0  0  0  0  0
  -17.0429   -8.9160    3.6361 C   0  0  2  0  0  0  0  0  0  0  0  0
  -16.2142   -8.7587    2.4415 N   0  0  0  0  0  0  0  0  0  0  0  0
  -14.8900   -8.9295    2.2414 C   0  0  0  0  0  0  0  0  0  0  0  0
  -16.8053   -8.3801    1.2967 N   0  0  0  0  0  0  0  0  0  0  0  0
  -15.8398   -8.3077    0.3909 N   0  0  0  0  0  0  0  0  0  0  0  0
  -14.6570   -8.6512    0.9419 C   0  0  0  0  0  0  0  0  0  0  0  0
  -13.4811   -8.6889    0.2428 C   0  0  0  0  0  0  0  0  0  0  0  0
  -13.5142   -8.6319   -1.1661 C   0  0  0  0  0  0  0  0  0  0  0  0
  -12.3420   -8.7076   -1.9043 C   0  0  0  0  0  0  0  0  0  0  0  0
  -12.3778   -8.6215   -3.2620 F   0  0  0  0  0  0  0  0  0  0  0  0
  -11.1281   -8.8854   -1.2769 C   0  0  0  0  0  0  0  0  0  0  0  0
   -9.8060   -8.9200   -2.3126 Cl  0  0  0  0  0  0  0  0  0  0  0  0
  -11.0620   -8.9630    0.1159 C   0  0  0  0  0  0  0  0  0  0  0  0
   -9.8873   -9.1391    0.7579 F   0  0  0  0  0  0  0  0  0  0  0  0
  -12.2338   -8.8669    0.8743 C   0  0  0  0  0  0  0  0  0  0  0  0
  -21.6196   -9.5268    8.7384 H   0  0  0  0  0  0  0  0  0  0  0  0
  -22.2113  -11.9272    8.5348 H   0  0  0  0  0  0  0  0  0  0  0  0
  -18.0387  -12.9074    8.0108 H   0  0  0  0  0  0  0  0  0  0  0  0
  -13.9843  -10.4768   10.6442 H   0  0  0  0  0  0  0  0  0  0  0  0
  -13.2806  -11.4507    9.3088 H   0  0  0  0  0  0  0  0  0  0  0  0
  -13.1000   -9.6635    9.3088 H   0  0  0  0  0  0  0  0  0  0  0  0
  -17.5808   -8.4167    6.1876 H   0  0  0  0  0  0  0  0  0  0  0  0
  -15.6844  -10.2363    4.6547 H   0  0  0  0  0  0  0  0  0  0  0  0
  -15.2190   -8.1411    6.1301 H   0  0  0  0  0  0  0  0  0  0  0  0
  -19.4307   -8.9860    4.8429 H   0  0  0  0  0  0  0  0  0  0  0  0
  -20.9889  -10.7105    5.1234 H   0  0  0  0  0  0  0  0  0  0  0  0
  -20.3636  -11.1433    3.4759 H   0  0  0  0  0  0  0  0  0  0  0  0
  -19.6956  -12.3166    6.0156 H   0  0  0  0  0  0  0  0  0  0  0  0
  -18.7919   -9.5870    2.5531 H   0  0  0  0  0  0  0  0  0  0  0  0
  -17.4477  -11.6887    3.9428 H   0  0  0  0  0  0  0  0  0  0  0  0
  -17.4946   -7.9345    3.8426 H   0  0  0  0  0  0  0  0  0  0  0  0
  -14.1460   -9.2358    2.9915 H   0  0  0  0  0  0  0  0  0  0  0  0
  -14.4787   -8.5264   -1.6845 H   0  0  0  0  0  0  0  0  0  0  0  0
  -12.1813   -8.9308    1.9712 H   0  0  0  0  0  0  0  0  0  0  0  0
  2  1  1  6
  2  3  1  0
  2  4  1  0
  2  5  1  0
  5  6  2  0
  5 11  1  0
  6  7  1  0
  7  8  2  0
  8  9  1  0
  8 10  1  0
 10 11  2  0
 11 12  1  0
 12 13  1  0
 12 17  1  0
 13 14  2  0
 14 15  1  0
 14 16  1  0
 16 17  2  0
 18 17  1  0
 18 19  1  0
 18 21  1  0
 19 20  1  0
 19 27  1  0
 21 22  1  0
 22 23  1  0
 22 25  1  0
 23 24  1  0
 25 26  1  0
 25 27  1  0
 27 28  1  0
 28 29  1  0
 28 30  1  0
 29 32  2  0
 30 31  2  0
 31 32  1  0
 32 33  1  0
 33 34  2  0
 33 41  1  0
 34 35  1  0
 35 36  1  0
 35 37  2  0
 37 38  1  0
 37 39  1  0
 39 40  1  0
 39 41  2  0
  6 42  1  0
  7 43  1  0
 10 44  1  0
 15 45  1  0
 15 46  1  0
 15 47  1  0
 18 48  1  1
 19 49  1  6
 20 50  1  0
 22 51  1  1
 23 52  1  0
 23 53  1  0
 24 54  1  0
 25 55  1  6
 26 56  1  0
 27 57  1  1
 29 58  1  0
 34 59  1  0
 41 60  1  0
M  END
>  <filename_input>  (20) 
7XFA_D9J_docked.sdf

>  <pdb_id>  (20) 
7XFA_D9J

>  <pose_rank>  (20) 
19

>  <num_atoms_heavy>  (20) 
41

>  <num_torsions>  (20) 
6

>  <pose>  (20) 
[-17.169534132543173, -9.426451496385864, 6.041905932967725, 3.3255466200512758, -1.8574738718216501, -2.5109375280101442, 0.8700812286842976, -5.872330501737412, 2.2202295911374663, -1.0634923668807834, -0.5746653219933565, -1.6017631893827031]

>  <energy>  (20) 
-332.74779279042673

>  <inter_energy>  (20) 
-438.55855066948277

>  <intra_energy>  (20) 
117.88888562408056

>  <rmsd>  (20) 
5.93454

>  <sdf_rank>  (20) 
0

$$$$

     RDKit          3D

 60 64  0  0  0  0  0  0  0  0999 V2000
  -22.0551   -9.0826   -0.4901 F   0  0  0  0  0  0  0  0  0  0  0  0
  -22.1181   -9.2079    0.7717 C   0  0  1  0  0  0  0  0  0  0  0  0
  -20.8443   -9.0841    1.2826 F   0  0  0  0  0  0  0  0  0  0  0  0
  -22.8189   -8.1846    1.2241 F   0  0  0  0  0  0  0  0  0  0  0  0
  -22.7190  -10.4571    1.1673 C   0  0  0  0  0  0  0  0  0  0  0  0
  -24.0853  -10.5169    1.5282 C   0  0  0  0  0  0  0  0  0  0  0  0
  -24.6865  -11.7111    1.9197 C   0  0  0  0  0  0  0  0  0  0  0  0
  -23.9501  -12.8914    1.9172 C   0  0  0  0  0  0  0  0  0  0  0  0
  -24.7300  -14.3815    2.3321 Cl  0  0  0  0  0  0  0  0  0  0  0  0
  -22.5959  -12.8623    1.5537 C   0  0  0  0  0  0  0  0  0  0  0  0
  -21.9632  -11.6591    1.1935 C   0  0  0  0  0  0  0  0  0  0  0  0
  -20.6548  -11.7094    0.8562 N   0  0  0  0  0  0  0  0  0  0  0  0
  -20.1722  -11.5182   -0.3985 N   0  0  0  0  0  0  0  0  0  0  0  0
  -18.8498  -11.5873   -0.2804 C   0  0  0  0  0  0  0  0  0  0  0  0
  -17.9136  -11.4324   -1.4715 C   0  0  0  0  0  0  0  0  0  0  0  0
  -18.4715  -11.8351    0.9817 N   0  0  0  0  0  0  0  0  0  0  0  0
  -19.6082  -11.9312    1.6589 C   0  0  0  0  0  0  0  0  0  0  0  0
  -19.7432  -12.1505    3.1410 C   0  0  1  0  0  0  0  0  0  0  0  0
  -18.7146  -13.1200    3.7214 C   0  0  2  0  0  0  0  0  0  0  0  0
  -18.9771  -14.4106    3.1519 O   0  0  0  0  0  0  0  0  0  0  0  0
  -19.5891  -10.8472    3.7460 O   0  0  0  0  0  0  0  0  0  0  0  0
  -19.8874  -10.9200    5.1473 C   0  0  2  0  0  0  0  0  0  0  0  0
  -19.8196   -9.4758    5.6645 C   0  0  0  0  0  0  0  0  0  0  0  0
  -21.1026   -8.8404    5.6442 O   0  0  0  0  0  0  0  0  0  0  0  0
  -18.8575  -11.7943    5.8429 C   0  0  2  0  0  0  0  0  0  0  0  0
  -17.5540  -11.2299    5.6730 O   0  0  0  0  0  0  0  0  0  0  0  0
  -18.9209  -13.1858    5.2185 C   0  0  2  0  0  0  0  0  0  0  0  0
  -17.9816  -14.1037    5.8618 N   0  0  0  0  0  0  0  0  0  0  0  0
  -16.7125  -14.4469    5.5548 C   0  0  0  0  0  0  0  0  0  0  0  0
  -18.3796  -14.7599    6.9638 N   0  0  0  0  0  0  0  0  0  0  0  0
  -17.3553  -15.5174    7.3307 N   0  0  0  0  0  0  0  0  0  0  0  0
  -16.3160  -15.3352    6.4897 C   0  0  0  0  0  0  0  0  0  0  0  0
  -15.1118  -15.9703    6.6292 C   0  0  0  0  0  0  0  0  0  0  0  0
  -14.7160  -16.4263    7.9038 C   0  0  0  0  0  0  0  0  0  0  0  0
  -13.4842  -17.0385    8.0845 C   0  0  0  0  0  0  0  0  0  0  0  0
  -13.1208  -17.5035    9.3108 F   0  0  0  0  0  0  0  0  0  0  0  0
  -12.6057  -17.1716    7.0312 C   0  0  0  0  0  0  0  0  0  0  0  0
  -11.1758  -17.9668    7.4115 Cl  0  0  0  0  0  0  0  0  0  0  0  0
  -12.9596  -16.7154    5.7595 C   0  0  0  0  0  0  0  0  0  0  0  0
  -12.1188  -16.8303    4.7094 F   0  0  0  0  0  0  0  0  0  0  0  0
  -14.2073  -16.1151    5.5582 C   0  0  0  0  0  0  0  0  0  0  0  0
  -24.6883   -9.5974    1.4990 H   0  0  0  0  0  0  0  0  0  0  0  0
  -25.7418  -11.7208    2.2303 H   0  0  0  0  0  0  0  0  0  0  0  0
  -22.0178  -13.7982    1.5502 H   0  0  0  0  0  0  0  0  0  0  0  0
  -16.8880  -11.2628   -1.1120 H   0  0  0  0  0  0  0  0  0  0  0  0
  -17.9418  -12.3474   -2.0814 H   0  0  0  0  0  0  0  0  0  0  0  0
  -18.2349  -10.5752   -2.0814 H   0  0  0  0  0  0  0  0  0  0  0  0
  -20.7186  -12.6139    3.3504 H   0  0  0  0  0  0  0  0  0  0  0  0
  -17.6855  -12.8001    3.5006 H   0  0  0  0  0  0  0  0  0  0  0  0
  -19.1113  -15.0705    3.8776 H   0  0  0  0  0  0  0  0  0  0  0  0
  -20.8758  -11.3621    5.3410 H   0  0  0  0  0  0  0  0  0  0  0  0
  -19.4440   -9.4855    6.6983 H   0  0  0  0  0  0  0  0  0  0  0  0
  -19.1478   -8.9083    5.0037 H   0  0  0  0  0  0  0  0  0  0  0  0
  -21.4102   -8.6881    6.5728 H   0  0  0  0  0  0  0  0  0  0  0  0
  -19.0673  -11.8581    6.9208 H   0  0  0  0  0  0  0  0  0  0  0  0
  -17.1516  -11.0556    6.5605 H   0  0  0  0  0  0  0  0  0  0  0  0
  -19.9297  -13.5885    5.3917 H   0  0  0  0  0  0  0  0  0  0  0  0
  -16.1177  -14.0749    4.7076 H   0  0  0  0  0  0  0  0  0  0  0  0
  -15.3904  -16.2953    8.7629 H   0  0  0  0  0  0  0  0  0  0  0  0
  -14.4841  -15.7536    4.5568 H   0  0  0  0  0  0  0  0  0  0  0  0
  2  1  1  6
  2  3  1  0
  2  4  1  0
  2  5  1  0
  5  6  2  0
  5 11  1  0
  6  7  1  0
  7  8  2  0
  8  9  1  0
  8 10  1  0
 10 11  2  0
 11 12  1  0
 12 13  1  0
 12 17  1  0
 13 14  2  0
 14 15  1  0
 14 16  1  0
 16 17  2  0
 18 17  1  0
 18 19  1  0
 18 21  1  0
 19 20  1  0
 19 27  1  0
 21 22  1  0
 22 23  1  0
 22 25  1  0
 23 24  1  0
 25 26  1  0
 25 27  1  0
 27 28  1  0
 28 29  1  0
 28 30  1  0
 29 32  2  0
 30 31  2  0
 31 32  1  0
 32 33  1  0
 33 34  2  0
 33 41  1  0
 34 35  1  0
 35 36  1  0
 35 37  2  0
 37 38  1  0
 37 39  1  0
 39 40  1  0
 39 41  2  0
  6 42  1  0
  7 43  1  0
 10 44  1  0
 15 45  1  0
 15 46  1  0
 15 47  1  0
 18 48  1  6
 19 49  1  1
 20 50  1  0
 22 51  1  6
 23 52  1  0
 23 53  1  0
 24 54  1  0
 25 55  1  1
 26 56  1  0
 27 57  1  6
 29 58  1  0
 34 59  1  0
 41 60  1  0
M  END
>  <filename_input>  (21) 
7XFA_D9J_docked.sdf

>  <pdb_id>  (21) 
7XFA_D9J

>  <pose_rank>  (21) 
20

>  <num_atoms_heavy>  (21) 
41

>  <num_torsions>  (21) 
6

>  <pose>  (21) 
[-19.743223550913044, -12.150488540549599, 3.1409659409024293, 5.86004732529854, -5.160093679169513, -1.121171825242792, 6.139117734061449, 3.609594971950188, 2.4203010628475283, -6.8329692797442005, -0.777962740549563, 0.489929602177671]

>  <energy>  (21) 
-130.58729949987796

>  <inter_energy>  (21) 
-167.33690284138677

>  <intra_energy>  (21) 
35.75014657520012

>  <rmsd>  (21) 
7.36739

>  <sdf_rank>  (21) 
0

$$$$

     RDKit          3D

 60 64  0  0  0  0  0  0  0  0999 V2000
  -11.9269   -5.3302    4.2298 F   0  0  0  0  0  0  0  0  0  0  0  0
  -12.2830   -6.4401    3.7268 C   0  0  1  0  0  0  0  0  0  0  0  0
  -13.5132   -6.7765    4.2487 F   0  0  0  0  0  0  0  0  0  0  0  0
  -12.4522   -6.2380    2.4332 F   0  0  0  0  0  0  0  0  0  0  0  0
  -11.3148   -7.4821    3.9616 C   0  0  0  0  0  0  0  0  0  0  0  0
  -10.3769   -7.3701    5.0143 C   0  0  0  0  0  0  0  0  0  0  0  0
   -9.4281   -8.3609    5.2568 C   0  0  0  0  0  0  0  0  0  0  0  0
   -9.4190   -9.5164    4.4821 C   0  0  0  0  0  0  0  0  0  0  0  0
   -8.2838  -10.7740    4.8436 Cl  0  0  0  0  0  0  0  0  0  0  0  0
  -10.3448   -9.6580    3.4382 C   0  0  0  0  0  0  0  0  0  0  0  0
  -11.2839   -8.6503    3.1546 C   0  0  0  0  0  0  0  0  0  0  0  0
  -12.1439   -8.8575    2.1320 N   0  0  0  0  0  0  0  0  0  0  0  0
  -11.9772   -8.3777    0.8727 N   0  0  0  0  0  0  0  0  0  0  0  0
  -13.0008   -8.8599    0.1749 C   0  0  0  0  0  0  0  0  0  0  0  0
  -13.2004   -8.5511   -1.3029 C   0  0  0  0  0  0  0  0  0  0  0  0
  -13.8195   -9.6023    0.9339 N   0  0  0  0  0  0  0  0  0  0  0  0
  -13.2799   -9.5632    2.1451 C   0  0  0  0  0  0  0  0  0  0  0  0
  -13.7830  -10.2850    3.3653 C   0  0  1  0  0  0  0  0  0  0  0  0
  -15.3054  -10.3942    3.4384 C   0  0  2  0  0  0  0  0  0  0  0  0
  -15.8214   -9.0630    3.5823 O   0  0  0  0  0  0  0  0  0  0  0  0
  -13.1959  -11.6044    3.3105 O   0  0  0  0  0  0  0  0  0  0  0  0
  -13.4657  -12.3109    4.5296 C   0  0  2  0  0  0  0  0  0  0  0  0
  -12.6990  -13.6370    4.4224 C   0  0  0  0  0  0  0  0  0  0  0  0
  -12.4058  -14.1899    5.7102 O   0  0  0  0  0  0  0  0  0  0  0  0
  -14.9599  -12.5567    4.6561 C   0  0  2  0  0  0  0  0  0  0  0  0
  -15.4130  -13.3444    3.5512 O   0  0  0  0  0  0  0  0  0  0  0  0
  -15.6619  -11.2012    4.6671 C   0  0  2  0  0  0  0  0  0  0  0  0
  -17.1081  -11.3494    4.8255 N   0  0  0  0  0  0  0  0  0  0  0  0
  -18.1368  -10.5692    4.4310 C   0  0  0  0  0  0  0  0  0  0  0  0
  -17.5749  -12.4329    5.4670 N   0  0  0  0  0  0  0  0  0  0  0  0
  -18.8954  -12.3142    5.4763 N   0  0  0  0  0  0  0  0  0  0  0  0
  -19.2663  -11.1854    4.8369 C   0  0  0  0  0  0  0  0  0  0  0  0
  -20.5707  -10.8064    4.6697 C   0  0  0  0  0  0  0  0  0  0  0  0
  -21.4960  -11.7322    4.1445 C   0  0  0  0  0  0  0  0  0  0  0  0
  -22.8163  -11.3658    3.9266 C   0  0  0  0  0  0  0  0  0  0  0  0
  -23.7113  -12.2725    3.4480 F   0  0  0  0  0  0  0  0  0  0  0  0
  -23.2373  -10.0778    4.1766 C   0  0  0  0  0  0  0  0  0  0  0  0
  -24.8716   -9.8109    3.8943 Cl  0  0  0  0  0  0  0  0  0  0  0  0
  -22.3423   -9.1318    4.6810 C   0  0  0  0  0  0  0  0  0  0  0  0
  -22.7258   -7.8621    4.9335 F   0  0  0  0  0  0  0  0  0  0  0  0
  -21.0130   -9.4930    4.9256 C   0  0  0  0  0  0  0  0  0  0  0  0
  -10.3971   -6.4781    5.6577 H   0  0  0  0  0  0  0  0  0  0  0  0
   -8.6875   -8.2299    6.0595 H   0  0  0  0  0  0  0  0  0  0  0  0
  -10.3361  -10.5744    2.8298 H   0  0  0  0  0  0  0  0  0  0  0  0
  -13.7948   -7.6315   -1.4082 H   0  0  0  0  0  0  0  0  0  0  0  0
  -12.2210   -8.4118   -1.7839 H   0  0  0  0  0  0  0  0  0  0  0  0
  -13.7296   -9.3869   -1.7839 H   0  0  0  0  0  0  0  0  0  0  0  0
  -13.4964   -9.7190    4.2639 H   0  0  0  0  0  0  0  0  0  0  0  0
  -15.7213  -10.8770    2.5417 H   0  0  0  0  0  0  0  0  0  0  0  0
  -15.9062   -8.8442    4.5440 H   0  0  0  0  0  0  0  0  0  0  0  0
  -13.1512  -11.7444    5.4185 H   0  0  0  0  0  0  0  0  0  0  0  0
  -13.3100  -14.3563    3.8573 H   0  0  0  0  0  0  0  0  0  0  0  0
  -11.7453  -13.4389    3.9113 H   0  0  0  0  0  0  0  0  0  0  0  0
  -12.7315  -13.5757    6.4150 H   0  0  0  0  0  0  0  0  0  0  0  0
  -15.1860  -13.1026    5.5839 H   0  0  0  0  0  0  0  0  0  0  0  0
  -15.8769  -14.1510    3.8892 H   0  0  0  0  0  0  0  0  0  0  0  0
  -15.3009  -10.6406    5.5420 H   0  0  0  0  0  0  0  0  0  0  0  0
  -18.0675   -9.6167    3.8851 H   0  0  0  0  0  0  0  0  0  0  0  0
  -21.1678  -12.7545    3.9053 H   0  0  0  0  0  0  0  0  0  0  0  0
  -20.3080   -8.7465    5.3204 H   0  0  0  0  0  0  0  0  0  0  0  0
  2  1  1  1
  2  3  1  0
  2  4  1  0
  2  5  1  0
  5  6  2  0
  5 11  1  0
  6  7  1  0
  7  8  2  0
  8  9  1  0
  8 10  1  0
 10 11  2  0
 11 12  1  0
 12 13  1  0
 12 17  1  0
 13 14  2  0
 14 15  1  0
 14 16  1  0
 16 17  2  0
 18 17  1  0
 18 19  1  0
 18 21  1  0
 19 20  1  0
 19 27  1  0
 21 22  1  0
 22 23  1  0
 22 25  1  0
 23 24  1  0
 25 26  1  0
 25 27  1  0
 27 28  1  0
 28 29  1  0
 28 30  1  0
 29 32  2  0
 30 31  2  0
 31 32  1  0
 32 33  1  0
 33 34  2  0
 33 41  1  0
 34 35  1  0
 35 36  1  0
 35 37  2  0
 37 38  1  0
 37 39  1  0
 39 40  1  0
 39 41  2  0
  6 42  1  0
  7 43  1  0
 10 44  1  0
 15 45  1  0
 15 46  1  0
 15 47  1  0
 18 48  1  1
 19 49  1  6
 20 50  1  0
 22 51  1  1
 23 52  1  0
 23 53  1  0
 24 54  1  0
 25 55  1  1
 26 56  1  0
 27 57  1  1
 29 58  1  0
 34 59  1  0
 41 60  1  0
M  END
>  <filename_input>  (22) 
7XFA_D9J_docked.sdf

>  <pdb_id>  (22) 
7XFA_D9J

>  <pose_rank>  (22) 
21

>  <num_atoms_heavy>  (22) 
41

>  <num_torsions>  (22) 
6

>  <pose>  (22) 
[-13.783025857184883, -10.285004159280644, 3.3652741691836443, 0.31832332757227755, 1.3498037100243605, 3.050555120736735, -0.0834486391169555, -0.01157704715888743, -1.7827178984420753, -1.5820407670455234, -1.22808044349506, 1.5842217253765314]

>  <energy>  (22) 
-198.53030328752826

>  <inter_energy>  (22) 
-249.89445780082062

>  <intra_energy>  (22) 
52.07414167077468

>  <rmsd>  (22) 
10.659

>  <sdf_rank>  (22) 
0

$$$$

     RDKit          3D

 60 64  0  0  0  0  0  0  0  0999 V2000
   -8.7291   -8.6627   -0.1492 F   0  0  0  0  0  0  0  0  0  0  0  0
   -9.1996   -8.9563    0.9929 C   0  0  1  0  0  0  0  0  0  0  0  0
  -10.2259   -9.8591    0.8185 F   0  0  0  0  0  0  0  0  0  0  0  0
   -8.2417   -9.5802    1.6532 F   0  0  0  0  0  0  0  0  0  0  0  0
   -9.6471   -7.7918    1.7152 C   0  0  0  0  0  0  0  0  0  0  0  0
   -8.8228   -7.1910    2.6950 C   0  0  0  0  0  0  0  0  0  0  0  0
   -9.2359   -6.0691    3.4101 C   0  0  0  0  0  0  0  0  0  0  0  0
  -10.4683   -5.4859    3.1336 C   0  0  0  0  0  0  0  0  0  0  0  0
  -10.9363   -4.0464    3.9761 Cl  0  0  0  0  0  0  0  0  0  0  0  0
  -11.3012   -6.0552    2.1595 C   0  0  0  0  0  0  0  0  0  0  0  0
  -10.9166   -7.2105    1.4558 C   0  0  0  0  0  0  0  0  0  0  0  0
  -11.7728   -7.7024    0.5322 N   0  0  0  0  0  0  0  0  0  0  0  0
  -11.5189   -7.7673   -0.8001 N   0  0  0  0  0  0  0  0  0  0  0  0
  -12.5794   -8.3681   -1.3308 C   0  0  0  0  0  0  0  0  0  0  0  0
  -12.7055   -8.6344   -2.8249 C   0  0  0  0  0  0  0  0  0  0  0  0
  -13.5021   -8.6665   -0.4049 N   0  0  0  0  0  0  0  0  0  0  0  0
  -12.9889   -8.2212    0.7344 C   0  0  0  0  0  0  0  0  0  0  0  0
  -13.6062   -8.3567    2.0995 C   0  0  1  0  0  0  0  0  0  0  0  0
  -15.1250   -8.5236    2.0803 C   0  0  2  0  0  0  0  0  0  0  0  0
  -15.6807   -7.3052    1.5649 O   0  0  0  0  0  0  0  0  0  0  0  0
  -12.9895   -9.5201    2.6950 O   0  0  0  0  0  0  0  0  0  0  0  0
  -13.3752   -9.6270    4.0727 C   0  0  2  0  0  0  0  0  0  0  0  0
  -12.5743  -10.8077    4.6404 C   0  0  0  0  0  0  0  0  0  0  0  0
  -11.4993  -10.3700    5.4788 O   0  0  0  0  0  0  0  0  0  0  0  0
  -14.8689   -9.8902    4.1649 C   0  0  2  0  0  0  0  0  0  0  0  0
  -15.1834  -11.1155    3.4969 O   0  0  0  0  0  0  0  0  0  0  0  0
  -15.5956   -8.7217    3.5042 C   0  0  2  0  0  0  0  0  0  0  0  0
  -17.0471   -8.8803    3.5851 N   0  0  0  0  0  0  0  0  0  0  0  0
  -18.0064   -8.8419    2.6359 C   0  0  0  0  0  0  0  0  0  0  0  0
  -17.6008   -9.1104    4.7867 N   0  0  0  0  0  0  0  0  0  0  0  0
  -18.9067   -9.2041    4.5779 N   0  0  0  0  0  0  0  0  0  0  0  0
  -19.1807   -9.0547    3.2652 C   0  0  0  0  0  0  0  0  0  0  0  0
  -20.4449   -9.1231    2.7454 C   0  0  0  0  0  0  0  0  0  0  0  0
  -20.6401   -9.7207    1.4828 C   0  0  0  0  0  0  0  0  0  0  0  0
  -21.9036   -9.7699    0.9118 C   0  0  0  0  0  0  0  0  0  0  0  0
  -22.0905  -10.3747   -0.2929 F   0  0  0  0  0  0  0  0  0  0  0  0
  -22.9833   -9.1959    1.5470 C   0  0  0  0  0  0  0  0  0  0  0  0
  -24.4448   -9.3758    0.7386 Cl  0  0  0  0  0  0  0  0  0  0  0  0
  -22.8213   -8.5811    2.7905 C   0  0  0  0  0  0  0  0  0  0  0  0
  -23.8603   -8.0086    3.4352 F   0  0  0  0  0  0  0  0  0  0  0  0
  -21.5568   -8.5427    3.3880 C   0  0  0  0  0  0  0  0  0  0  0  0
   -7.8305   -7.6205    2.8974 H   0  0  0  0  0  0  0  0  0  0  0  0
   -8.5888   -5.6451    4.1921 H   0  0  0  0  0  0  0  0  0  0  0  0
  -12.2737   -5.5893    1.9417 H   0  0  0  0  0  0  0  0  0  0  0  0
  -13.1713   -9.6181   -2.9839 H   0  0  0  0  0  0  0  0  0  0  0  0
  -13.3299   -7.8543   -3.2849 H   0  0  0  0  0  0  0  0  0  0  0  0
  -11.7064   -8.6230   -3.2849 H   0  0  0  0  0  0  0  0  0  0  0  0
  -13.4302   -7.4323    2.6692 H   0  0  0  0  0  0  0  0  0  0  0  0
  -15.4314   -9.3815    1.4637 H   0  0  0  0  0  0  0  0  0  0  0  0
  -15.9477   -6.7200    2.3175 H   0  0  0  0  0  0  0  0  0  0  0  0
  -13.1704   -8.7046    4.6360 H   0  0  0  0  0  0  0  0  0  0  0  0
  -13.2495  -11.4442    5.2311 H   0  0  0  0  0  0  0  0  0  0  0  0
  -12.1426  -11.3644    3.7955 H   0  0  0  0  0  0  0  0  0  0  0  0
  -11.7577  -10.4753    6.4287 H   0  0  0  0  0  0  0  0  0  0  0  0
  -15.1828   -9.9802    5.2153 H   0  0  0  0  0  0  0  0  0  0  0  0
  -15.3643  -11.8203    4.1681 H   0  0  0  0  0  0  0  0  0  0  0  0
  -15.3430   -7.8076    4.0617 H   0  0  0  0  0  0  0  0  0  0  0  0
  -17.8593   -8.6706    1.5593 H   0  0  0  0  0  0  0  0  0  0  0  0
  -19.7823  -10.1517    0.9457 H   0  0  0  0  0  0  0  0  0  0  0  0
  -21.4296   -8.0559    4.3662 H   0  0  0  0  0  0  0  0  0  0  0  0
  2  1  1  6
  2  3  1  0
  2  4  1  0
  2  5  1  0
  5  6  2  0
  5 11  1  0
  6  7  1  0
  7  8  2  0
  8  9  1  0
  8 10  1  0
 10 11  2  0
 11 12  1  0
 12 13  1  0
 12 17  1  0
 13 14  2  0
 14 15  1  0
 14 16  1  0
 16 17  2  0
 18 17  1  0
 18 19  1  0
 18 21  1  0
 19 20  1  0
 19 27  1  0
 21 22  1  0
 22 23  1  0
 22 25  1  0
 23 24  1  0
 25 26  1  0
 25 27  1  0
 27 28  1  0
 28 29  1  0
 28 30  1  0
 29 32  2  0
 30 31  2  0
 31 32  1  0
 32 33  1  0
 33 34  2  0
 33 41  1  0
 34 35  1  0
 35 36  1  0
 35 37  2  0
 37 38  1  0
 37 39  1  0
 39 40  1  0
 39 41  2  0
  6 42  1  0
  7 43  1  0
 10 44  1  0
 15 45  1  0
 15 46  1  0
 15 47  1  0
 18 48  1  1
 19 49  1  6
 20 50  1  0
 22 51  1  1
 23 52  1  0
 23 53  1  0
 24 54  1  0
 25 55  1  1
 26 56  1  0
 27 57  1  1
 29 58  1  0
 34 59  1  0
 41 60  1  0
M  END
>  <filename_input>  (23) 
7XFA_D9J_docked.sdf

>  <pdb_id>  (23) 
7XFA_D9J

>  <pose_rank>  (23) 
22

>  <num_atoms_heavy>  (23) 
41

>  <num_torsions>  (23) 
6

>  <pose>  (23) 
[-13.606164415131031, -8.356723350498541, 2.099487002288356, -0.18312367532961815, -1.8092813280540432, -2.362568662233267, 37.80253056964891, -27.710217626156858, 8.699388531489118, -1.1381950091942776, 3.4389740451717943, 0.7034104699024664]

>  <energy>  (23) 
-435.950353749112

>  <inter_energy>  (23) 
-490.8446208418287

>  <intra_energy>  (23) 
52.64307165540749

>  <rmsd>  (23) 
10.4162

>  <sdf_rank>  (23) 
0

$$$$

     RDKit          3D

 60 64  0  0  0  0  0  0  0  0999 V2000
  -12.9078  -10.6667    1.8996 F   0  0  0  0  0  0  0  0  0  0  0  0
  -13.0997  -11.3508    2.9517 C   0  0  1  0  0  0  0  0  0  0  0  0
  -12.8338  -12.6718    2.6630 F   0  0  0  0  0  0  0  0  0  0  0  0
  -12.1998  -10.9576    3.8341 F   0  0  0  0  0  0  0  0  0  0  0  0
  -14.4343  -11.1897    3.4723 C   0  0  0  0  0  0  0  0  0  0  0  0
  -14.6427  -10.6798    4.7750 C   0  0  0  0  0  0  0  0  0  0  0  0
  -15.9225  -10.5210    5.3020 C   0  0  0  0  0  0  0  0  0  0  0  0
  -17.0351  -10.8238    4.5236 C   0  0  0  0  0  0  0  0  0  0  0  0
  -18.6212  -10.5490    5.1636 Cl  0  0  0  0  0  0  0  0  0  0  0  0
  -16.8572  -11.3214    3.2245 C   0  0  0  0  0  0  0  0  0  0  0  0
  -15.5719  -11.5248    2.6911 C   0  0  0  0  0  0  0  0  0  0  0  0
  -15.4795  -12.0085    1.4319 N   0  0  0  0  0  0  0  0  0  0  0  0
  -15.2140  -13.3028    1.1186 N   0  0  0  0  0  0  0  0  0  0  0  0
  -15.2764  -13.3629   -0.2079 C   0  0  0  0  0  0  0  0  0  0  0  0
  -15.0293  -14.6518   -0.9803 C   0  0  0  0  0  0  0  0  0  0  0  0
  -15.5458  -12.1673   -0.7518 N   0  0  0  0  0  0  0  0  0  0  0  0
  -15.6414  -11.3429    0.2831 C   0  0  0  0  0  0  0  0  0  0  0  0
  -15.9881   -9.8804    0.2244 C   0  0  1  0  0  0  0  0  0  0  0  0
  -17.4346   -9.5693    0.6063 C   0  0  2  0  0  0  0  0  0  0  0  0
  -18.2761  -10.1681   -0.3898 O   0  0  0  0  0  0  0  0  0  0  0  0
  -15.0839   -9.2258    1.1423 O   0  0  0  0  0  0  0  0  0  0  0  0
  -15.2089   -7.8019    1.0202 C   0  0  2  0  0  0  0  0  0  0  0  0
  -14.1276   -7.2076    1.9343 C   0  0  0  0  0  0  0  0  0  0  0  0
  -13.7223   -8.1301    2.9517 O   0  0  0  0  0  0  0  0  0  0  0  0
  -16.5954   -7.3716    1.4692 C   0  0  2  0  0  0  0  0  0  0  0  0
  -16.7943   -7.7410    2.8368 O   0  0  0  0  0  0  0  0  0  0  0  0
  -17.6181   -8.0681    0.5753 C   0  0  2  0  0  0  0  0  0  0  0  0
  -18.9842   -7.6754    0.9192 N   0  0  0  0  0  0  0  0  0  0  0  0
  -19.7856   -8.0281    1.9468 C   0  0  0  0  0  0  0  0  0  0  0  0
  -19.6230   -6.8084    0.1169 N   0  0  0  0  0  0  0  0  0  0  0  0
  -20.8257   -6.6347    0.6471 N   0  0  0  0  0  0  0  0  0  0  0  0
  -20.9468   -7.3626    1.7767 C   0  0  0  0  0  0  0  0  0  0  0  0
  -22.0733   -7.3686    2.5539 C   0  0  0  0  0  0  0  0  0  0  0  0
  -22.0085   -7.9012    3.8582 C   0  0  0  0  0  0  0  0  0  0  0  0
  -23.1422   -7.9572    4.6560 C   0  0  0  0  0  0  0  0  0  0  0  0
  -23.0669   -8.4443    5.9245 F   0  0  0  0  0  0  0  0  0  0  0  0
  -24.3617   -7.5353    4.1726 C   0  0  0  0  0  0  0  0  0  0  0  0
  -25.6230   -7.6368    5.2774 Cl  0  0  0  0  0  0  0  0  0  0  0  0
  -24.4638   -7.0185    2.8792 C   0  0  0  0  0  0  0  0  0  0  0  0
  -25.6455   -6.5996    2.3780 F   0  0  0  0  0  0  0  0  0  0  0  0
  -23.3247   -6.9363    2.0710 C   0  0  0  0  0  0  0  0  0  0  0  0
  -13.7723  -10.4018    5.3875 H   0  0  0  0  0  0  0  0  0  0  0  0
  -16.0531  -10.1566    6.3316 H   0  0  0  0  0  0  0  0  0  0  0  0
  -17.7395  -11.5569    2.6113 H   0  0  0  0  0  0  0  0  0  0  0  0
  -14.8708  -15.4788   -0.2725 H   0  0  0  0  0  0  0  0  0  0  0  0
  -15.9014  -14.8730   -1.6132 H   0  0  0  0  0  0  0  0  0  0  0  0
  -14.1373  -14.5348   -1.6132 H   0  0  0  0  0  0  0  0  0  0  0  0
  -15.8865   -9.5261   -0.8120 H   0  0  0  0  0  0  0  0  0  0  0  0
  -17.6822   -9.9546    1.6064 H   0  0  0  0  0  0  0  0  0  0  0  0
  -18.9976  -10.6815    0.0529 H   0  0  0  0  0  0  0  0  0  0  0  0
  -15.0802   -7.4592   -0.0171 H   0  0  0  0  0  0  0  0  0  0  0  0
  -13.2514   -6.9440    1.3238 H   0  0  0  0  0  0  0  0  0  0  0  0
  -14.5489   -6.3194    2.4278 H   0  0  0  0  0  0  0  0  0  0  0  0
  -13.8957   -7.7355    3.8429 H   0  0  0  0  0  0  0  0  0  0  0  0
  -16.7085   -6.2805    1.3872 H   0  0  0  0  0  0  0  0  0  0  0  0
  -16.4171   -7.0405    3.4260 H   0  0  0  0  0  0  0  0  0  0  0  0
  -17.4425   -7.7391   -0.4596 H   0  0  0  0  0  0  0  0  0  0  0  0
  -19.5397   -8.7228    2.7636 H   0  0  0  0  0  0  0  0  0  0  0  0
  -21.0499   -8.2757    4.2467 H   0  0  0  0  0  0  0  0  0  0  0  0
  -23.4066   -6.5316    1.0514 H   0  0  0  0  0  0  0  0  0  0  0  0
  2  1  1  6
  2  3  1  0
  2  4  1  0
  2  5  1  0
  5  6  2  0
  5 11  1  0
  6  7  1  0
  7  8  2  0
  8  9  1  0
  8 10  1  0
 10 11  2  0
 11 12  1  0
 12 13  1  0
 12 17  1  0
 13 14  2  0
 14 15  1  0
 14 16  1  0
 16 17  2  0
 18 17  1  0
 18 19  1  0
 18 21  1  0
 19 20  1  0
 19 27  1  0
 21 22  1  0
 22 23  1  0
 22 25  1  0
 23 24  1  0
 25 26  1  0
 25 27  1  0
 27 28  1  0
 28 29  1  0
 28 30  1  0
 29 32  2  0
 30 31  2  0
 31 32  1  0
 32 33  1  0
 33 34  2  0
 33 41  1  0
 34 35  1  0
 35 36  1  0
 35 37  2  0
 37 38  1  0
 37 39  1  0
 39 40  1  0
 39 41  2  0
  6 42  1  0
  7 43  1  0
 10 44  1  0
 15 45  1  0
 15 46  1  0
 15 47  1  0
 18 48  1  6
 19 49  1  1
 20 50  1  0
 22 51  1  6
 23 52  1  0
 23 53  1  0
 24 54  1  0
 25 55  1  1
 26 56  1  0
 27 57  1  6
 29 58  1  0
 34 59  1  0
 41 60  1  0
M  END
>  <filename_input>  (24) 
7XFA_D9J_docked.sdf

>  <pdb_id>  (24) 
7XFA_D9J

>  <pose_rank>  (24) 
23

>  <num_atoms_heavy>  (24) 
41

>  <num_torsions>  (24) 
6

>  <pose>  (24) 
[-15.988053183416811, -9.880350195343457, 0.2244450586404654, 0.663787003169955, 3.2154123289662353, 0.09278696934075994, 2.3039180575053133, 6.2076024498946705, 2.0385373857313804, -0.23919019054642449, -3.2323297858218547, -1.5244295366618497]

>  <energy>  (24) 
-364.2824478116428

>  <inter_energy>  (24) 
-436.1939969344231

>  <intra_energy>  (24) 
93.15946757703976

>  <rmsd>  (24) 
8.71257

>  <sdf_rank>  (24) 
0

$$$$

     RDKit          3D

 60 64  0  0  0  0  0  0  0  0999 V2000
   -8.0851   -8.2745    4.0646 F   0  0  0  0  0  0  0  0  0  0  0  0
   -8.4363   -9.0978    3.1643 C   0  0  1  0  0  0  0  0  0  0  0  0
   -9.1978   -8.4232    2.2348 F   0  0  0  0  0  0  0  0  0  0  0  0
   -7.3341   -9.4897    2.5523 F   0  0  0  0  0  0  0  0  0  0  0  0
   -9.1527  -10.2259    3.7048 C   0  0  0  0  0  0  0  0  0  0  0  0
   -8.5846  -11.5209    3.6763 C   0  0  0  0  0  0  0  0  0  0  0  0
   -9.2601  -12.6271    4.1869 C   0  0  0  0  0  0  0  0  0  0  0  0
  -10.5058  -12.4636    4.7843 C   0  0  0  0  0  0  0  0  0  0  0  0
  -11.3003  -13.8350    5.4836 Cl  0  0  0  0  0  0  0  0  0  0  0  0
  -11.0878  -11.1887    4.8354 C   0  0  0  0  0  0  0  0  0  0  0  0
  -10.4371  -10.0676    4.2898 C   0  0  0  0  0  0  0  0  0  0  0  0
  -11.0607   -8.8710    4.3756 N   0  0  0  0  0  0  0  0  0  0  0  0
  -10.8074   -7.9338    5.3249 N   0  0  0  0  0  0  0  0  0  0  0  0
  -11.5797   -6.8983    5.0109 C   0  0  0  0  0  0  0  0  0  0  0  0
  -11.6081   -5.6195    5.8373 C   0  0  0  0  0  0  0  0  0  0  0  0
  -12.3260   -7.1410    3.9238 N   0  0  0  0  0  0  0  0  0  0  0  0
  -12.0039   -8.3772    3.5661 C   0  0  0  0  0  0  0  0  0  0  0  0
  -12.5226   -9.1175    2.3638 C   0  0  1  0  0  0  0  0  0  0  0  0
  -14.0375   -9.3178    2.3639 C   0  0  2  0  0  0  0  0  0  0  0  0
  -14.3531  -10.1790    3.4674 O   0  0  0  0  0  0  0  0  0  0  0  0
  -12.1293   -8.3293    1.2181 O   0  0  0  0  0  0  0  0  0  0  0  0
  -12.4155   -9.0467    0.0092 C   0  0  2  0  0  0  0  0  0  0  0  0
  -11.8491   -8.1876   -1.1305 C   0  0  0  0  0  0  0  0  0  0  0  0
  -12.0644   -8.7904   -2.4114 O   0  0  0  0  0  0  0  0  0  0  0  0
  -13.9180   -9.2200   -0.1371 C   0  0  2  0  0  0  0  0  0  0  0  0
  -14.5466   -7.9364   -0.1975 O   0  0  0  0  0  0  0  0  0  0  0  0
  -14.4226  -10.0037    1.0718 C   0  0  2  0  0  0  0  0  0  0  0  0
  -15.8621  -10.2475    0.9881 N   0  0  0  0  0  0  0  0  0  0  0  0
  -16.8209  -10.2838    1.9378 C   0  0  0  0  0  0  0  0  0  0  0  0
  -16.4030  -10.4840   -0.2181 N   0  0  0  0  0  0  0  0  0  0  0  0
  -17.6979  -10.6766   -0.0089 N   0  0  0  0  0  0  0  0  0  0  0  0
  -17.9823  -10.5476    1.3037 C   0  0  0  0  0  0  0  0  0  0  0  0
  -19.2441  -10.6729    1.8187 C   0  0  0  0  0  0  0  0  0  0  0  0
  -19.4182  -11.2904    3.0747 C   0  0  0  0  0  0  0  0  0  0  0  0
  -20.6879  -11.4674    3.6054 C   0  0  0  0  0  0  0  0  0  0  0  0
  -20.8474  -12.0366    4.8312 F   0  0  0  0  0  0  0  0  0  0  0  0
  -21.8048  -11.0843    2.8951 C   0  0  0  0  0  0  0  0  0  0  0  0
  -23.2603  -11.3353    3.6951 Cl  0  0  0  0  0  0  0  0  0  0  0  0
  -21.6682  -10.4854    1.6408 C   0  0  0  0  0  0  0  0  0  0  0  0
  -22.7443  -10.1018    0.9212 F   0  0  0  0  0  0  0  0  0  0  0  0
  -20.3930  -10.2813    1.1026 C   0  0  0  0  0  0  0  0  0  0  0  0
   -7.5842  -11.6580    3.2399 H   0  0  0  0  0  0  0  0  0  0  0  0
   -8.8092  -13.6281    4.1179 H   0  0  0  0  0  0  0  0  0  0  0  0
  -12.0716  -11.0631    5.3111 H   0  0  0  0  0  0  0  0  0  0  0  0
  -11.6024   -5.8742    6.9074 H   0  0  0  0  0  0  0  0  0  0  0  0
  -10.7232   -5.0103    5.6007 H   0  0  0  0  0  0  0  0  0  0  0  0
  -12.5191   -5.0502    5.6007 H   0  0  0  0  0  0  0  0  0  0  0  0
  -12.1027  -10.1341    2.3563 H   0  0  0  0  0  0  0  0  0  0  0  0
  -14.5735   -8.3613    2.4522 H   0  0  0  0  0  0  0  0  0  0  0  0
  -14.1787   -9.7031    4.3178 H   0  0  0  0  0  0  0  0  0  0  0  0
  -11.9686  -10.0518    0.0048 H   0  0  0  0  0  0  0  0  0  0  0  0
  -12.3416   -7.2042   -1.1130 H   0  0  0  0  0  0  0  0  0  0  0  0
  -10.7642   -8.0907   -0.9775 H   0  0  0  0  0  0  0  0  0  0  0  0
  -12.3948   -9.7156   -2.2894 H   0  0  0  0  0  0  0  0  0  0  0  0
  -14.1574   -9.7646   -1.0624 H   0  0  0  0  0  0  0  0  0  0  0  0
  -14.7089   -7.6049    0.7212 H   0  0  0  0  0  0  0  0  0  0  0  0
  -13.9314  -10.9880    1.0658 H   0  0  0  0  0  0  0  0  0  0  0  0
  -16.6824  -10.1286    3.0179 H   0  0  0  0  0  0  0  0  0  0  0  0
  -18.5391  -11.6350    3.6389 H   0  0  0  0  0  0  0  0  0  0  0  0
  -20.2865   -9.8119    0.1135 H   0  0  0  0  0  0  0  0  0  0  0  0
  2  1  1  1
  2  3  1  0
  2  4  1  0
  2  5  1  0
  5  6  2  0
  5 11  1  0
  6  7  1  0
  7  8  2  0
  8  9  1  0
  8 10  1  0
 10 11  2  0
 11 12  1  0
 12 13  1  0
 12 17  1  0
 13 14  2  0
 14 15  1  0
 14 16  1  0
 16 17  2  0
 18 17  1  0
 18 19  1  0
 18 21  1  0
 19 20  1  0
 19 27  1  0
 21 22  1  0
 22 23  1  0
 22 25  1  0
 23 24  1  0
 25 26  1  0
 25 27  1  0
 27 28  1  0
 28 29  1  0
 28 30  1  0
 29 32  2  0
 30 31  2  0
 31 32  1  0
 32 33  1  0
 33 34  2  0
 33 41  1  0
 34 35  1  0
 35 36  1  0
 35 37  2  0
 37 38  1  0
 37 39  1  0
 39 40  1  0
 39 41  2  0
  6 42  1  0
  7 43  1  0
 10 44  1  0
 15 45  1  0
 15 46  1  0
 15 47  1  0
 18 48  1  6
 19 49  1  1
 20 50  1  0
 22 51  1  1
 23 52  1  0
 23 53  1  0
 24 54  1  0
 25 55  1  6
 26 56  1  0
 27 57  1  1
 29 58  1  0
 34 59  1  0
 41 60  1  0
M  END
>  <filename_input>  (25) 
7XFA_D9J_docked.sdf

>  <pdb_id>  (25) 
7XFA_D9J

>  <pose_rank>  (25) 
24

>  <num_atoms_heavy>  (25) 
41

>  <num_torsions>  (25) 
6

>  <pose>  (25) 
[-12.522640792483632, -9.11745397036853, 2.3637649567078522, 0.09663373982468827, -2.092797810345302, 2.75333051952581, -0.5346972264380756, 3.3939629550675, 2.170710926451899, -1.4292537646554624, -4.133337112944792, 2.004922670419117]

>  <energy>  (25) 
-254.2405637867751

>  <inter_energy>  (25) 
-289.90554766592805

>  <intra_energy>  (25) 
35.918915952189586

>  <rmsd>  (25) 
10.6194

>  <sdf_rank>  (25) 
0

$$$$

     RDKit          3D

 60 64  0  0  0  0  0  0  0  0999 V2000
  -22.3070  -11.6020    4.3580 F   0  0  0  0  0  0  0  0  0  0  0  0
  -21.9090  -10.4630    4.7530 C   0  0  1  0  0  0  0  0  0  0  0  0
  -22.0470  -10.4080    6.1230 F   0  0  0  0  0  0  0  0  0  0  0  0
  -20.6170  -10.3960    4.4900 F   0  0  0  0  0  0  0  0  0  0  0  0
  -22.6200   -9.3840    4.1140 C   0  0  0  0  0  0  0  0  0  0  0  0
  -23.3090   -8.4190    4.8850 C   0  0  0  0  0  0  0  0  0  0  0  0
  -24.0080   -7.3710    4.2900 C   0  0  0  0  0  0  0  0  0  0  0  0
  -24.0000   -7.2300    2.9060 C   0  0  0  0  0  0  0  0  0  0  0  0
  -24.8090   -5.8790    2.1840 Cl  0  0  0  0  0  0  0  0  0  0  0  0
  -23.3160   -8.1670    2.1180 C   0  0  0  0  0  0  0  0  0  0  0  0
  -22.6380   -9.2530    2.7000 C   0  0  0  0  0  0  0  0  0  0  0  0
  -22.0020  -10.1160    1.8760 N   0  0  0  0  0  0  0  0  0  0  0  0
  -22.5220  -11.2910    1.4370 N   0  0  0  0  0  0  0  0  0  0  0  0
  -21.6100  -11.7910    0.6090 C   0  0  0  0  0  0  0  0  0  0  0  0
  -21.7970  -13.1230   -0.1050 C   0  0  0  0  0  0  0  0  0  0  0  0
  -20.5290  -11.0030    0.5190 N   0  0  0  0  0  0  0  0  0  0  0  0
  -20.7870   -9.9870    1.3320 C   0  0  0  0  0  0  0  0  0  0  0  0
  -19.9110   -8.7850    1.5570 C   0  0  1  0  0  0  0  0  0  0  0  0
  -18.4180   -9.0650    1.3910 C   0  0  2  0  0  0  0  0  0  0  0  0
  -18.0370   -9.9750    2.4330 O   0  0  0  0  0  0  0  0  0  0  0  0
  -20.3390   -7.8010    0.5890 O   0  0  0  0  0  0  0  0  0  0  0  0
  -19.6890   -6.5480    0.8450 C   0  0  2  0  0  0  0  0  0  0  0  0
  -20.3020   -5.5490   -0.1470 C   0  0  0  0  0  0  0  0  0  0  0  0
  -21.6940   -5.3300    0.1070 O   0  0  0  0  0  0  0  0  0  0  0  0
  -18.1940   -6.6930    0.6150 C   0  0  2  0  0  0  0  0  0  0  0  0
  -17.9510   -7.0750   -0.7420 O   0  0  0  0  0  0  0  0  0  0  0  0
  -17.6710   -7.7620    1.5710 C   0  0  2  0  0  0  0  0  0  0  0  0
  -16.2250   -7.9360    1.4390 N   0  0  0  0  0  0  0  0  0  0  0  0
  -15.4620   -8.3320    0.3980 C   0  0  0  0  0  0  0  0  0  0  0  0
  -15.4480   -7.6720    2.5020 N   0  0  0  0  0  0  0  0  0  0  0  0
  -14.2030   -7.9160    2.1170 N   0  0  0  0  0  0  0  0  0  0  0  0
  -14.1830   -8.3110    0.8270 C   0  0  0  0  0  0  0  0  0  0  0  0
  -13.0340   -8.6140    0.1480 C   0  0  0  0  0  0  0  0  0  0  0  0
  -11.8660   -8.9270    0.8740 C   0  0  0  0  0  0  0  0  0  0  0  0
  -10.6760   -9.2000    0.2150 C   0  0  0  0  0  0  0  0  0  0  0  0
   -9.5600   -9.5310    0.9200 F   0  0  0  0  0  0  0  0  0  0  0  0
  -10.6020   -9.1260   -1.1590 C   0  0  0  0  0  0  0  0  0  0  0  0
   -9.1000   -9.5210   -1.7990 Cl  0  0  0  0  0  0  0  0  0  0  0  0
  -11.7360   -8.8020   -1.9070 C   0  0  0  0  0  0  0  0  0  0  0  0
  -11.6930   -8.7200   -3.2540 F   0  0  0  0  0  0  0  0  0  0  0  0
  -12.9480   -8.5450   -1.2570 C   0  0  0  0  0  0  0  0  0  0  0  0
  -23.2925   -8.4979    5.9820 H   0  0  0  0  0  0  0  0  0  0  0  0
  -24.5652   -6.6563    4.9134 H   0  0  0  0  0  0  0  0  0  0  0  0
  -23.3097   -8.0503    1.0242 H   0  0  0  0  0  0  0  0  0  0  0  0
  -21.9096  -13.9253    0.6391 H   0  0  0  0  0  0  0  0  0  0  0  0
  -22.6976  -13.0781   -0.7349 H   0  0  0  0  0  0  0  0  0  0  0  0
  -20.9188  -13.3278   -0.7349 H   0  0  0  0  0  0  0  0  0  0  0  0
  -20.0215   -8.4469    2.5979 H   0  0  0  0  0  0  0  0  0  0  0  0
  -18.1923   -9.4906    0.4021 H   0  0  0  0  0  0  0  0  0  0  0  0
  -18.2111   -9.5591    3.3143 H   0  0  0  0  0  0  0  0  0  0  0  0
  -19.8288   -6.2097    1.8823 H   0  0  0  0  0  0  0  0  0  0  0  0
  -19.7697   -4.5902   -0.0608 H   0  0  0  0  0  0  0  0  0  0  0  0
  -20.2021   -5.9686   -1.1589 H   0  0  0  0  0  0  0  0  0  0  0  0
  -21.8513   -5.3053    1.0841 H   0  0  0  0  0  0  0  0  0  0  0  0
  -17.6785   -5.7394    0.8020 H   0  0  0  0  0  0  0  0  0  0  0  0
  -17.4197   -7.9102   -0.7596 H   0  0  0  0  0  0  0  0  0  0  0  0
  -17.8584   -7.4175    2.5987 H   0  0  0  0  0  0  0  0  0  0  0  0
  -15.8144   -8.6163   -0.6045 H   0  0  0  0  0  0  0  0  0  0  0  0
  -11.8989   -8.9549    1.9731 H   0  0  0  0  0  0  0  0  0  0  0  0
  -13.8401   -8.2873   -1.8468 H   0  0  0  0  0  0  0  0  0  0  0  0
  2  1  1  6
  2  3  1  0
  2  4  1  0
  2  5  1  0
  5  6  2  0
  5 11  1  0
  6  7  1  0
  7  8  2  0
  8  9  1  0
  8 10  1  0
 10 11  2  0
 11 12  1  0
 12 13  1  0
 12 17  1  0
 13 14  2  0
 14 15  1  0
 14 16  1  0
 16 17  2  0
 18 17  1  0
 18 19  1  0
 18 21  1  0
 19 20  1  0
 19 27  1  0
 21 22  1  0
 22 23  1  0
 22 25  1  0
 23 24  1  0
 25 26  1  0
 25 27  1  0
 27 28  1  0
 28 29  1  0
 28 30  1  0
 29 32  2  0
 30 31  2  0
 31 32  1  0
 32 33  1  0
 33 34  2  0
 33 41  1  0
 34 35  1  0
 35 36  1  0
 35 37  2  0
 37 38  1  0
 37 39  1  0
 39 40  1  0
 39 41  2  0
  6 42  1  0
  7 43  1  0
 10 44  1  0
 15 45  1  0
 15 46  1  0
 15 47  1  0
 18 48  1  1
 19 49  1  6
 20 50  1  0
 22 51  1  1
 23 52  1  0
 23 53  1  0
 24 54  1  0
 25 55  1  1
 26 56  1  0
 27 57  1  1
 29 58  1  0
 34 59  1  0
 41 60  1  0
M  END
>  <filename_input>  (26) 
7XFA_D9J_docked.sdf

>  <pdb_id>  (26) 
7XFA_D9J

>  <pose_rank>  (26) 
25

>  <num_atoms_heavy>  (26) 
41

>  <num_torsions>  (26) 
6

>  <pose>  (26) 
[-19.911, -8.785, 1.557, 1e-06, 1e-06, 1e-06, 0.0, 0.0, 0.0, 0.0, 0.0, 0.0]

>  <energy>  (26) 
-1044.3473760302068

>  <inter_energy>  (26) 
-1069.649768131756

>  <intra_energy>  (26) 
31.85967338992133

>  <rmsd>  (26) 
0.0

>  <sdf_rank>  (26) 
0

$$$$
