
     RDKit          3D

 24 24  0  0  0  0  0  0  0  0999 V2000
  -40.7675  -29.7001   18.4079 N   0  0  0  0  0  0  0  0  0  0  0  0
  -39.7340  -30.5453   18.3805 C   0  0  0  0  0  0  0  0  0  0  0  0
  -39.9272  -31.9418   18.8944 C   0  0  0  0  0  0  0  0  0  0  0  0
  -38.4862  -30.1259   17.8812 C   0  0  0  0  0  0  0  0  0  0  0  0
  -37.4539  -31.0063   17.8598 O   0  0  0  0  0  0  0  0  0  0  0  0
  -38.3446  -28.8059   17.4164 C   0  0  0  0  0  0  0  0  0  0  0  0
  -37.0551  -28.3440   16.9035 C   0  0  0  0  0  0  0  0  0  0  0  0
  -36.0940  -28.0841   17.5911 O   0  0  0  0  0  0  0  0  0  0  0  0
  -39.4457  -27.9427   17.4684 C   0  0  0  0  0  0  0  0  0  0  0  0
  -40.6251  -28.4267   17.9661 C   0  0  0  0  0  0  0  0  0  0  0  0
  -39.3314  -26.5213   16.9826 C   0  0  0  0  0  0  0  0  0  0  0  0
  -38.2915  -25.8569   17.7697 O   0  0  0  0  0  0  0  0  0  0  0  0
  -37.5158  -24.5518   17.2047 P   0  0  2  0  0  0  0  0  0  0  0  0
  -36.5224  -24.1375   18.2794 O   0  0  0  0  0  0  0  0  0  0  0  0
  -38.5966  -23.5480   16.9655 O   0  0  0  0  0  0  0  0  0  0  0  0
  -36.7564  -24.9960   15.9226 O   0  0  0  0  0  0  0  0  0  0  0  0
  -39.9257  -31.9313   19.9944 H   0  0  0  0  0  0  0  0  0  0  0  0
  -40.8884  -32.3359   18.5328 H   0  0  0  0  0  0  0  0  0  0  0  0
  -39.1091  -32.5821   18.5328 H   0  0  0  0  0  0  0  0  0  0  0  0
  -36.5708  -30.7254   17.5114 H   0  0  0  0  0  0  0  0  0  0  0  0
  -36.9516  -28.2244   15.8149 H   0  0  0  0  0  0  0  0  0  0  0  0
  -41.4942  -27.7538   18.0094 H   0  0  0  0  0  0  0  0  0  0  0  0
  -39.0568  -26.5117   15.9174 H   0  0  0  0  0  0  0  0  0  0  0  0
  -40.2922  -25.9987   17.1000 H   0  0  0  0  0  0  0  0  0  0  0  0
  1  2  2  0
  1 10  1  0
  2  3  1  0
  2  4  1  0
  4  5  1  0
  4  6  2  0
  6  7  1  0
  6  9  1  0
  7  8  2  0
  9 10  2  0
  9 11  1  0
 11 12  1  0
 12 13  1  0
 13 14  2  0
 13 15  1  6
 13 16  1  0
  3 17  1  0
  3 18  1  0
  3 19  1  0
  5 20  1  0
  7 21  1  0
 10 22  1  0
 11 23  1  0
 11 24  1  0
M  CHG  2  15  -1  16  -1
M  END
>  <filename_input>  (1) 
7XG5_PLP_docked.sdf

>  <pdb_id>  (1) 
7XG5_PLP

>  <pose_rank>  (1) 
0

>  <num_atoms_heavy>  (1) 
16

>  <num_torsions>  (1) 
4

>  <pose>  (1) 
[-40.767480268761304, -29.70006015380355, 18.407949905426864, -2.485908226630803, 5.684307153182761, -0.43268939644184506, 5.003715034622512, 6.543035779206717, 18.922799779472026, 4.359588860789379]

>  <energy>  (1) 
-863.2679501766047

>  <inter_energy>  (1) 
-876.4375372404243

>  <intra_energy>  (1) 
18.39210975525979

>  <rmsd>  (1) 
0.509531

>  <sdf_rank>  (1) 
0

$$$$

     RDKit          3D

 24 24  0  0  0  0  0  0  0  0999 V2000
  -36.6690  -31.8112   18.2409 N   0  0  0  0  0  0  0  0  0  0  0  0
  -37.8065  -32.0632   18.8934 C   0  0  0  0  0  0  0  0  0  0  0  0
  -37.8986  -33.3014   19.7360 C   0  0  0  0  0  0  0  0  0  0  0  0
  -38.8984  -31.1810   18.7849 C   0  0  0  0  0  0  0  0  0  0  0  0
  -40.0409  -31.4579   19.4625 O   0  0  0  0  0  0  0  0  0  0  0  0
  -38.7739  -30.0355   17.9781 C   0  0  0  0  0  0  0  0  0  0  0  0
  -39.8983  -29.1102   17.8410 C   0  0  0  0  0  0  0  0  0  0  0  0
  -39.8150  -27.9068   17.9359 O   0  0  0  0  0  0  0  0  0  0  0  0
  -37.5707  -29.8063   17.2999 C   0  0  0  0  0  0  0  0  0  0  0  0
  -36.5555  -30.7102   17.4585 C   0  0  0  0  0  0  0  0  0  0  0  0
  -37.4013  -28.5920   16.4244 C   0  0  0  0  0  0  0  0  0  0  0  0
  -37.4264  -27.4078   17.2842 O   0  0  0  0  0  0  0  0  0  0  0  0
  -36.5769  -26.0802   16.9100 P   0  0  2  0  0  0  0  0  0  0  0  0
  -35.3564  -26.5499   16.1333 O   0  0  0  0  0  0  0  0  0  0  0  0
  -36.2483  -25.4614   18.2299 O   0  0  0  0  0  0  0  0  0  0  0  0
  -37.4825  -25.2053   15.9978 O   0  0  0  0  0  0  0  0  0  0  0  0
  -37.8779  -33.0232   20.8001 H   0  0  0  0  0  0  0  0  0  0  0  0
  -38.8383  -33.8278   19.5129 H   0  0  0  0  0  0  0  0  0  0  0  0
  -37.0470  -33.9610   19.5129 H   0  0  0  0  0  0  0  0  0  0  0  0
  -40.8167  -30.8465   19.3956 H   0  0  0  0  0  0  0  0  0  0  0  0
  -40.8906  -29.5389   17.6370 H   0  0  0  0  0  0  0  0  0  0  0  0
  -35.6074  -30.5359   16.9288 H   0  0  0  0  0  0  0  0  0  0  0  0
  -36.4402  -28.6467   15.8922 H   0  0  0  0  0  0  0  0  0  0  0  0
  -38.2099  -28.5415   15.6804 H   0  0  0  0  0  0  0  0  0  0  0  0
  1  2  2  0
  1 10  1  0
  2  3  1  0
  2  4  1  0
  4  5  1  0
  4  6  2  0
  6  7  1  0
  6  9  1  0
  7  8  2  0
  9 10  2  0
  9 11  1  0
 11 12  1  0
 12 13  1  0
 13 14  2  0
 13 15  1  1
 13 16  1  0
  3 17  1  0
  3 18  1  0
  3 19  1  0
  5 20  1  0
  7 21  1  0
 10 22  1  0
 11 23  1  0
 11 24  1  0
M  CHG  2  15  -1  16  -1
M  END
>  <filename_input>  (2) 
7XG5_PLP_docked.sdf

>  <pdb_id>  (2) 
7XG5_PLP

>  <pose_rank>  (2) 
1

>  <num_atoms_heavy>  (2) 
16

>  <num_torsions>  (2) 
4

>  <pose>  (2) 
[-36.66900754293835, -31.811217703614016, 18.240851047141124, 0.27303326409441, 2.7564925769357624, -1.475476548908971, 2.341811681093858, -3.8235362428256154, -0.0752958492686905, 0.7018503756218797]

>  <energy>  (2) 
-513.8844252666063

>  <inter_energy>  (2) 
-555.4194842671847

>  <intra_energy>  (2) 
45.422595801749964

>  <rmsd>  (2) 
2.7665

>  <sdf_rank>  (2) 
0

$$$$

     RDKit          3D

 24 24  0  0  0  0  0  0  0  0999 V2000
  -36.6119  -29.9568   17.2926 N   0  0  0  0  0  0  0  0  0  0  0  0
  -37.4052  -30.8091   17.9466 C   0  0  0  0  0  0  0  0  0  0  0  0
  -36.8920  -32.1854   18.2536 C   0  0  0  0  0  0  0  0  0  0  0  0
  -38.7010  -30.4185   18.3346 C   0  0  0  0  0  0  0  0  0  0  0  0
  -39.4847  -31.3021   19.0026 O   0  0  0  0  0  0  0  0  0  0  0  0
  -39.1469  -29.1220   18.0205 C   0  0  0  0  0  0  0  0  0  0  0  0
  -40.4931  -28.6973   18.4032 C   0  0  0  0  0  0  0  0  0  0  0  0
  -41.5146  -29.1253   17.9158 O   0  0  0  0  0  0  0  0  0  0  0  0
  -38.2933  -28.2568   17.3253 C   0  0  0  0  0  0  0  0  0  0  0  0
  -37.0479  -28.7108   16.9852 C   0  0  0  0  0  0  0  0  0  0  0  0
  -38.7370  -26.8621   16.9686 C   0  0  0  0  0  0  0  0  0  0  0  0
  -37.9389  -25.9192   17.7538 O   0  0  0  0  0  0  0  0  0  0  0  0
  -36.8702  -24.9297   17.0446 P   0  0  2  0  0  0  0  0  0  0  0  0
  -37.6524  -24.0875   16.0483 O   0  0  0  0  0  0  0  0  0  0  0  0
  -35.8764  -25.8462   16.4078 O   0  0  0  0  0  0  0  0  0  0  0  0
  -36.2830  -24.0217   18.1618 O   0  0  0  0  0  0  0  0  0  0  0  0
  -36.8408  -32.3229   19.3437 H   0  0  0  0  0  0  0  0  0  0  0  0
  -37.5712  -32.9348   17.8210 H   0  0  0  0  0  0  0  0  0  0  0  0
  -35.8880  -32.3073   17.8210 H   0  0  0  0  0  0  0  0  0  0  0  0
  -40.3980  -31.0413   19.2817 H   0  0  0  0  0  0  0  0  0  0  0  0
  -40.5835  -27.9344   19.1905 H   0  0  0  0  0  0  0  0  0  0  0  0
  -36.3721  -28.0361   16.4393 H   0  0  0  0  0  0  0  0  0  0  0  0
  -38.5777  -26.6826   15.8952 H   0  0  0  0  0  0  0  0  0  0  0  0
  -39.8070  -26.7332   17.1890 H   0  0  0  0  0  0  0  0  0  0  0  0
  1  2  2  0
  1 10  1  0
  2  3  1  0
  2  4  1  0
  4  5  1  0
  4  6  2  0
  6  7  1  0
  6  9  1  0
  7  8  2  0
  9 10  2  0
  9 11  1  0
 11 12  1  0
 12 13  1  0
 13 14  2  0
 13 15  1  6
 13 16  1  0
  3 17  1  0
  3 18  1  0
  3 19  1  0
  5 20  1  0
  7 21  1  0
 10 22  1  0
 11 23  1  0
 11 24  1  0
M  CHG  2  15  -1  16  -1
M  END
>  <filename_input>  (3) 
7XG5_PLP_docked.sdf

>  <pdb_id>  (3) 
7XG5_PLP

>  <pose_rank>  (3) 
2

>  <num_atoms_heavy>  (3) 
16

>  <num_torsions>  (3) 
4

>  <pose>  (3) 
[-36.611890492733544, -29.956834413578758, 17.292629710972577, 0.3727223238308902, -2.928287987478557, 0.9373817536184692, -1.1874112574050621, -3.0316556762734557, -0.6993106230423565, 2.2488921516252645]

>  <energy>  (3) 
-599.1377163882969

>  <inter_energy>  (3) 
-596.1756815041193

>  <intra_energy>  (3) 
9.232090371553936

>  <rmsd>  (3) 
2.5443

>  <sdf_rank>  (3) 
0

$$$$

     RDKit          3D

 24 24  0  0  0  0  0  0  0  0999 V2000
  -35.9736  -29.1352   15.9450 N   0  0  0  0  0  0  0  0  0  0  0  0
  -35.8532  -30.3721   16.4337 C   0  0  0  0  0  0  0  0  0  0  0  0
  -34.7134  -31.2280   15.9646 C   0  0  0  0  0  0  0  0  0  0  0  0
  -36.7854  -30.8604   17.3690 C   0  0  0  0  0  0  0  0  0  0  0  0
  -36.6371  -32.1191   17.8535 O   0  0  0  0  0  0  0  0  0  0  0  0
  -37.8442  -30.0290   17.7767 C   0  0  0  0  0  0  0  0  0  0  0  0
  -38.8313  -30.5182   18.7387 C   0  0  0  0  0  0  0  0  0  0  0  0
  -38.5824  -30.8347   19.8797 O   0  0  0  0  0  0  0  0  0  0  0  0
  -37.9465  -28.7410   17.2373 C   0  0  0  0  0  0  0  0  0  0  0  0
  -36.9994  -28.3396   16.3348 C   0  0  0  0  0  0  0  0  0  0  0  0
  -39.0685  -27.8231   17.6476 C   0  0  0  0  0  0  0  0  0  0  0  0
  -39.0018  -26.6250   16.8094 O   0  0  0  0  0  0  0  0  0  0  0  0
  -37.9307  -25.4478   17.1110 P   0  0  2  0  0  0  0  0  0  0  0  0
  -36.7032  -25.7498   16.2651 O   0  0  0  0  0  0  0  0  0  0  0  0
  -37.6833  -25.5343   18.5823 O   0  0  0  0  0  0  0  0  0  0  0  0
  -38.5808  -24.1140   16.6463 O   0  0  0  0  0  0  0  0  0  0  0  0
  -34.1756  -31.6317   16.8350 H   0  0  0  0  0  0  0  0  0  0  0  0
  -35.1038  -32.0580   15.3574 H   0  0  0  0  0  0  0  0  0  0  0  0
  -34.0252  -30.6215   15.3574 H   0  0  0  0  0  0  0  0  0  0  0  0
  -37.2849  -32.4757   18.5117 H   0  0  0  0  0  0  0  0  0  0  0  0
  -39.8746  -30.6044   18.4008 H   0  0  0  0  0  0  0  0  0  0  0  0
  -37.0738  -27.3287   15.9075 H   0  0  0  0  0  0  0  0  0  0  0  0
  -40.0353  -28.3271   17.5022 H   0  0  0  0  0  0  0  0  0  0  0  0
  -38.9721  -27.5525   18.7095 H   0  0  0  0  0  0  0  0  0  0  0  0
  1  2  2  0
  1 10  1  0
  2  3  1  0
  2  4  1  0
  4  5  1  0
  4  6  2  0
  6  7  1  0
  6  9  1  0
  7  8  2  0
  9 10  2  0
  9 11  1  0
 11 12  1  0
 12 13  1  0
 13 14  2  0
 13 15  1  1
 13 16  1  0
  3 17  1  0
  3 18  1  0
  3 19  1  0
  5 20  1  0
  7 21  1  0
 10 22  1  0
 11 23  1  0
 11 24  1  0
M  CHG  2  15  -1  16  -1
M  END
>  <filename_input>  (4) 
7XG5_PLP_docked.sdf

>  <pdb_id>  (4) 
7XG5_PLP

>  <pose_rank>  (4) 
3

>  <num_atoms_heavy>  (4) 
16

>  <num_torsions>  (4) 
4

>  <pose>  (4) 
[-35.973569834086774, -29.13515282302329, 15.945031578030202, 1.2858094077880744, -2.534570414660516, 0.3382140258831627, 1.1219540193640551, 10.836042544667635, 2.241608438218827, 2.8459342960550567]

>  <energy>  (4) 
-479.49596851804245

>  <inter_energy>  (4) 
-538.8887419192849

>  <intra_energy>  (4) 
56.68295977672997

>  <rmsd>  (4) 
2.97074

>  <sdf_rank>  (4) 
0

$$$$

     RDKit          3D

 24 24  0  0  0  0  0  0  0  0999 V2000
  -35.7166  -28.8000   16.8197 N   0  0  0  0  0  0  0  0  0  0  0  0
  -36.0249  -27.5921   16.3408 C   0  0  0  0  0  0  0  0  0  0  0  0
  -34.9955  -26.8447   15.5450 C   0  0  0  0  0  0  0  0  0  0  0  0
  -37.2938  -27.0333   16.5856 C   0  0  0  0  0  0  0  0  0  0  0  0
  -37.5831  -25.8065   16.0831 O   0  0  0  0  0  0  0  0  0  0  0  0
  -38.2275  -27.7633   17.3432 C   0  0  0  0  0  0  0  0  0  0  0  0
  -39.5480  -27.1987   17.6201 C   0  0  0  0  0  0  0  0  0  0  0  0
  -40.2790  -26.7159   16.7856 O   0  0  0  0  0  0  0  0  0  0  0  0
  -37.8685  -29.0226   17.8386 C   0  0  0  0  0  0  0  0  0  0  0  0
  -36.6164  -29.4971   17.5555 C   0  0  0  0  0  0  0  0  0  0  0  0
  -38.8407  -29.8323   18.6564 C   0  0  0  0  0  0  0  0  0  0  0  0
  -38.6460  -31.2441   18.3228 O   0  0  0  0  0  0  0  0  0  0  0  0
  -38.0672  -32.2926   19.4135 P   0  0  2  0  0  0  0  0  0  0  0  0
  -36.6779  -31.8029   19.7925 O   0  0  0  0  0  0  0  0  0  0  0  0
  -38.0686  -33.6086   18.7055 O   0  0  0  0  0  0  0  0  0  0  0  0
  -39.0088  -32.2269   20.6491 O   0  0  0  0  0  0  0  0  0  0  0  0
  -34.2989  -26.3389   16.2297 H   0  0  0  0  0  0  0  0  0  0  0  0
  -34.4388  -27.5504   14.9109 H   0  0  0  0  0  0  0  0  0  0  0  0
  -35.4942  -26.0968   14.9109 H   0  0  0  0  0  0  0  0  0  0  0  0
  -38.4713  -25.4012   16.2473 H   0  0  0  0  0  0  0  0  0  0  0  0
  -39.9018  -27.2140   18.6616 H   0  0  0  0  0  0  0  0  0  0  0  0
  -36.3282  -30.4860   17.9415 H   0  0  0  0  0  0  0  0  0  0  0  0
  -38.6510  -29.6724   19.7281 H   0  0  0  0  0  0  0  0  0  0  0  0
  -39.8738  -29.5262   18.4354 H   0  0  0  0  0  0  0  0  0  0  0  0
  1  2  2  0
  1 10  1  0
  2  3  1  0
  2  4  1  0
  4  5  1  0
  4  6  2  0
  6  7  1  0
  6  9  1  0
  7  8  2  0
  9 10  2  0
  9 11  1  0
 11 12  1  0
 12 13  1  0
 13 14  2  0
 13 15  1  6
 13 16  1  0
  3 17  1  0
  3 18  1  0
  3 19  1  0
  5 20  1  0
  7 21  1  0
 10 22  1  0
 11 23  1  0
 11 24  1  0
M  CHG  2  15  -1  16  -1
M  END
>  <filename_input>  (5) 
7XG5_PLP_docked.sdf

>  <pdb_id>  (5) 
7XG5_PLP

>  <pose_rank>  (5) 
4

>  <num_atoms_heavy>  (5) 
16

>  <num_torsions>  (5) 
4

>  <pose>  (5) 
[-35.7166469358174, -28.799971599143724, 16.819698735876653, -1.2173386820203018, -1.4672554543731346, -3.379554500563915, 0.8828679211057238, -2.4699355592965846, -6.971869837354509, 0.15135805843050326]

>  <energy>  (5) 
-462.70409587565695

>  <inter_energy>  (5) 
-455.0824508725376

>  <intra_energy>  (5) 
14.63368332714138

>  <rmsd>  (5) 
5.87065

>  <sdf_rank>  (5) 
0

$$$$

     RDKit          3D

 24 24  0  0  0  0  0  0  0  0999 V2000
  -40.2156  -30.5617   18.4572 N   0  0  0  0  0  0  0  0  0  0  0  0
  -39.5708  -31.6959   18.7420 C   0  0  0  0  0  0  0  0  0  0  0  0
  -40.3420  -32.8367   19.3385 C   0  0  0  0  0  0  0  0  0  0  0  0
  -38.1907  -31.8115   18.4889 C   0  0  0  0  0  0  0  0  0  0  0  0
  -37.5609  -32.9769   18.7829 O   0  0  0  0  0  0  0  0  0  0  0  0
  -37.5030  -30.7159   17.9365 C   0  0  0  0  0  0  0  0  0  0  0  0
  -36.0669  -30.8084   17.6751 C   0  0  0  0  0  0  0  0  0  0  0  0
  -35.5796  -31.1773   16.6309 O   0  0  0  0  0  0  0  0  0  0  0  0
  -38.2073  -29.5381   17.6588 C   0  0  0  0  0  0  0  0  0  0  0  0
  -39.5479  -29.5056   17.9318 C   0  0  0  0  0  0  0  0  0  0  0  0
  -37.5042  -28.3430   17.0698 C   0  0  0  0  0  0  0  0  0  0  0  0
  -38.4414  -27.2188   17.0760 O   0  0  0  0  0  0  0  0  0  0  0  0
  -37.9152  -25.6871   17.1112 P   0  0  2  0  0  0  0  0  0  0  0  0
  -39.0197  -24.8341   16.5063 O   0  0  0  0  0  0  0  0  0  0  0  0
  -36.6579  -25.7043   16.3037 O   0  0  0  0  0  0  0  0  0  0  0  0
  -37.7132  -25.3119   18.6066 O   0  0  0  0  0  0  0  0  0  0  0  0
  -40.2995  -32.7739   20.4359 H   0  0  0  0  0  0  0  0  0  0  0  0
  -41.3899  -32.7832   19.0084 H   0  0  0  0  0  0  0  0  0  0  0  0
  -39.9017  -33.7891   19.0084 H   0  0  0  0  0  0  0  0  0  0  0  0
  -36.5907  -33.0725   18.6102 H   0  0  0  0  0  0  0  0  0  0  0  0
  -35.3808  -30.5221   18.4859 H   0  0  0  0  0  0  0  0  0  0  0  0
  -40.1073  -28.5834   17.7157 H   0  0  0  0  0  0  0  0  0  0  0  0
  -36.6195  -28.0949   17.6746 H   0  0  0  0  0  0  0  0  0  0  0  0
  -37.1752  -28.5608   16.0430 H   0  0  0  0  0  0  0  0  0  0  0  0
  1  2  2  0
  1 10  1  0
  2  3  1  0
  2  4  1  0
  4  5  1  0
  4  6  2  0
  6  7  1  0
  6  9  1  0
  7  8  2  0
  9 10  2  0
  9 11  1  0
 11 12  1  0
 12 13  1  0
 13 14  2  0
 13 15  1  6
 13 16  1  0
  3 17  1  0
  3 18  1  0
  3 19  1  0
  5 20  1  0
  7 21  1  0
 10 22  1  0
 11 23  1  0
 11 24  1  0
M  CHG  2  15  -1  16  -1
M  END
>  <filename_input>  (6) 
7XG5_PLP_docked.sdf

>  <pdb_id>  (6) 
7XG5_PLP

>  <pose_rank>  (6) 
5

>  <num_atoms_heavy>  (6) 
16

>  <num_torsions>  (6) 
4

>  <pose>  (6) 
[-40.21558604918217, -30.56166696097999, 18.45717715863736, -1.8684916754549377, -3.8891022769050663, -5.17559663506406, 1.608921629016165, 23.4294945286065, -6.257112506350992, 10.218482986118609]

>  <energy>  (6) 
-605.5621734624076

>  <inter_energy>  (6) 
-590.3154823247245

>  <intra_energy>  (6) 
0.6398642424362354

>  <rmsd>  (6) 
1.66705

>  <sdf_rank>  (6) 
0

$$$$

     RDKit          3D

 24 24  0  0  0  0  0  0  0  0999 V2000
  -39.3539  -26.3958   17.4641 N   0  0  0  0  0  0  0  0  0  0  0  0
  -38.0989  -26.4809   17.0158 C   0  0  0  0  0  0  0  0  0  0  0  0
  -37.3992  -25.2268   16.5805 C   0  0  0  0  0  0  0  0  0  0  0  0
  -37.4507  -27.7290   16.9509 C   0  0  0  0  0  0  0  0  0  0  0  0
  -36.1735  -27.7868   16.4963 O   0  0  0  0  0  0  0  0  0  0  0  0
  -38.1447  -28.8817   17.3609 C   0  0  0  0  0  0  0  0  0  0  0  0
  -37.4960  -30.1908   17.2920 C   0  0  0  0  0  0  0  0  0  0  0  0
  -36.4590  -30.4154   16.7106 O   0  0  0  0  0  0  0  0  0  0  0  0
  -39.4628  -28.7584   17.8166 C   0  0  0  0  0  0  0  0  0  0  0  0
  -40.0219  -27.5098   17.8513 C   0  0  0  0  0  0  0  0  0  0  0  0
  -40.2388  -29.9708   18.2611 C   0  0  0  0  0  0  0  0  0  0  0  0
  -39.3316  -31.1192   18.2443 O   0  0  0  0  0  0  0  0  0  0  0  0
  -38.8157  -31.8020   19.6197 P   0  0  2  0  0  0  0  0  0  0  0  0
  -37.3318  -31.4873   19.7313 O   0  0  0  0  0  0  0  0  0  0  0  0
  -39.1107  -33.2570   19.4492 O   0  0  0  0  0  0  0  0  0  0  0  0
  -39.5919  -31.1211   20.7823 O   0  0  0  0  0  0  0  0  0  0  0  0
  -37.0816  -24.6577   17.4667 H   0  0  0  0  0  0  0  0  0  0  0  0
  -36.5172  -25.4894   15.9779 H   0  0  0  0  0  0  0  0  0  0  0  0
  -38.0858  -24.6141   15.9779 H   0  0  0  0  0  0  0  0  0  0  0  0
  -35.7052  -28.6576   16.4452 H   0  0  0  0  0  0  0  0  0  0  0  0
  -37.9860  -31.0312   17.8055 H   0  0  0  0  0  0  0  0  0  0  0  0
  -41.0570  -27.4059   18.2086 H   0  0  0  0  0  0  0  0  0  0  0  0
  -40.6245  -29.8145   19.2793 H   0  0  0  0  0  0  0  0  0  0  0  0
  -41.0910  -30.1470   17.5883 H   0  0  0  0  0  0  0  0  0  0  0  0
  1  2  2  0
  1 10  1  0
  2  3  1  0
  2  4  1  0
  4  5  1  0
  4  6  2  0
  6  7  1  0
  6  9  1  0
  7  8  2  0
  9 10  2  0
  9 11  1  0
 11 12  1  0
 12 13  1  0
 13 14  2  0
 13 15  1  6
 13 16  1  0
  3 17  1  0
  3 18  1  0
  3 19  1  0
  5 20  1  0
  7 21  1  0
 10 22  1  0
 11 23  1  0
 11 24  1  0
M  CHG  2  15  -1  16  -1
M  END
>  <filename_input>  (7) 
7XG5_PLP_docked.sdf

>  <pdb_id>  (7) 
7XG5_PLP

>  <pose_rank>  (7) 
6

>  <num_atoms_heavy>  (7) 
16

>  <num_torsions>  (7) 
4

>  <pose>  (7) 
[-39.353949083383284, -26.395771755533005, 17.464121025483934, -2.6519419322306153, 1.1320737037464883, 0.6862350706895138, -0.19277404763992853, 1.3979191429277824, -0.7640173697830587, -0.7162369968259463]

>  <energy>  (7) 
-448.2981426590228

>  <inter_energy>  (7) 
-538.3304708692293

>  <intra_energy>  (7) 
116.10297596433531

>  <rmsd>  (7) 
5.23849

>  <sdf_rank>  (7) 
0

$$$$

     RDKit          3D

 24 24  0  0  0  0  0  0  0  0999 V2000
  -39.9324  -30.6199   18.2336 N   0  0  0  0  0  0  0  0  0  0  0  0
  -38.9241  -31.4946   18.1912 C   0  0  0  0  0  0  0  0  0  0  0  0
  -39.1420  -32.8771   18.7324 C   0  0  0  0  0  0  0  0  0  0  0  0
  -37.6795  -31.1185   17.6510 C   0  0  0  0  0  0  0  0  0  0  0  0
  -36.6733  -32.0282   17.6153 O   0  0  0  0  0  0  0  0  0  0  0  0
  -37.5140  -29.8103   17.1616 C   0  0  0  0  0  0  0  0  0  0  0  0
  -36.2269  -29.3931   16.6061 C   0  0  0  0  0  0  0  0  0  0  0  0
  -35.8813  -29.5717   15.4604 O   0  0  0  0  0  0  0  0  0  0  0  0
  -38.5887  -28.9154   17.2301 C   0  0  0  0  0  0  0  0  0  0  0  0
  -39.7667  -29.3579   17.7677 C   0  0  0  0  0  0  0  0  0  0  0  0
  -38.4481  -27.5053   16.7187 C   0  0  0  0  0  0  0  0  0  0  0  0
  -37.6578  -26.7486   17.6909 O   0  0  0  0  0  0  0  0  0  0  0  0
  -36.7172  -25.5133   17.2289 P   0  0  2  0  0  0  0  0  0  0  0  0
  -35.8679  -26.0219   16.0741 O   0  0  0  0  0  0  0  0  0  0  0  0
  -35.9274  -25.1670   18.4494 O   0  0  0  0  0  0  0  0  0  0  0  0
  -37.6639  -24.3834   16.7344 O   0  0  0  0  0  0  0  0  0  0  0  0
  -39.1370  -32.8454   19.8319 H   0  0  0  0  0  0  0  0  0  0  0  0
  -40.1115  -33.2598   18.3810 H   0  0  0  0  0  0  0  0  0  0  0  0
  -38.3371  -33.5395   18.3810 H   0  0  0  0  0  0  0  0  0  0  0  0
  -35.7928  -31.7778   17.2383 H   0  0  0  0  0  0  0  0  0  0  0  0
  -35.5229  -28.8803   17.2779 H   0  0  0  0  0  0  0  0  0  0  0  0
  -40.6151  -28.6600   17.8242 H   0  0  0  0  0  0  0  0  0  0  0  0
  -37.9366  -27.5105   15.7449 H   0  0  0  0  0  0  0  0  0  0  0  0
  -39.4388  -27.0448   16.5902 H   0  0  0  0  0  0  0  0  0  0  0  0
  1  2  2  0
  1 10  1  0
  2  3  1  0
  2  4  1  0
  4  5  1  0
  4  6  2  0
  6  7  1  0
  6  9  1  0
  7  8  2  0
  9 10  2  0
  9 11  1  0
 11 12  1  0
 12 13  1  0
 13 14  2  0
 13 15  1  1
 13 16  1  0
  3 17  1  0
  3 18  1  0
  3 19  1  0
  5 20  1  0
  7 21  1  0
 10 22  1  0
 11 23  1  0
 11 24  1  0
M  CHG  2  15  -1  16  -1
M  END
>  <filename_input>  (8) 
7XG5_PLP_docked.sdf

>  <pdb_id>  (8) 
7XG5_PLP

>  <pose_rank>  (8) 
7

>  <num_atoms_heavy>  (8) 
16

>  <num_torsions>  (8) 
4

>  <pose>  (8) 
[-39.932356830009276, -30.61994352692518, 18.23356972108141, 1.4594851448228883, -4.8919496557624695, -3.7313939638483604, 1.5068632805866466, 25.116858778367824, -6.332077240645534, 12.90957761793076]

>  <energy>  (8) 
-660.3359542813417

>  <inter_energy>  (8) 
-674.4239310657675

>  <intra_energy>  (8) 
5.98321359476728

>  <rmsd>  (8) 
1.12437

>  <sdf_rank>  (8) 
0

$$$$

     RDKit          3D

 24 24  0  0  0  0  0  0  0  0999 V2000
  -34.6153  -30.2877   15.3722 N   0  0  0  0  0  0  0  0  0  0  0  0
  -34.0569  -29.1830   14.8710 C   0  0  0  0  0  0  0  0  0  0  0  0
  -32.9010  -29.3219   13.9242 C   0  0  0  0  0  0  0  0  0  0  0  0
  -34.5459  -27.9130   15.2320 C   0  0  0  0  0  0  0  0  0  0  0  0
  -33.9636  -26.8069   14.7042 O   0  0  0  0  0  0  0  0  0  0  0  0
  -35.6260  -27.8261   16.1288 C   0  0  0  0  0  0  0  0  0  0  0  0
  -36.1440  -26.5177   16.5273 C   0  0  0  0  0  0  0  0  0  0  0  0
  -35.4602  -25.5892   16.8938 O   0  0  0  0  0  0  0  0  0  0  0  0
  -36.1819  -29.0037   16.6432 C   0  0  0  0  0  0  0  0  0  0  0  0
  -35.6512  -30.1996   16.2418 C   0  0  0  0  0  0  0  0  0  0  0  0
  -37.3375  -28.9502   17.6082 C   0  0  0  0  0  0  0  0  0  0  0  0
  -37.5302  -30.2932   18.1575 O   0  0  0  0  0  0  0  0  0  0  0  0
  -38.9404  -30.7344   18.8214 P   0  0  2  0  0  0  0  0  0  0  0  0
  -38.7593  -30.6407   20.3287 O   0  0  0  0  0  0  0  0  0  0  0  0
  -39.1671  -32.1268   18.3284 O   0  0  0  0  0  0  0  0  0  0  0  0
  -40.0052  -29.7044   18.3494 O   0  0  0  0  0  0  0  0  0  0  0  0
  -31.9689  -29.4339   14.4975 H   0  0  0  0  0  0  0  0  0  0  0  0
  -33.0505  -30.2085   13.2906 H   0  0  0  0  0  0  0  0  0  0  0  0
  -32.8362  -28.4251   13.2906 H   0  0  0  0  0  0  0  0  0  0  0  0
  -34.2970  -25.9074   14.9491 H   0  0  0  0  0  0  0  0  0  0  0  0
  -37.2330  -26.3670   16.4913 H   0  0  0  0  0  0  0  0  0  0  0  0
  -36.0836  -31.1286   16.6419 H   0  0  0  0  0  0  0  0  0  0  0  0
  -37.1131  -28.2433   18.4206 H   0  0  0  0  0  0  0  0  0  0  0  0
  -38.2496  -28.6130   17.0941 H   0  0  0  0  0  0  0  0  0  0  0  0
  1  2  2  0
  1 10  1  0
  2  3  1  0
  2  4  1  0
  4  5  1  0
  4  6  2  0
  6  7  1  0
  6  9  1  0
  7  8  2  0
  9 10  2  0
  9 11  1  0
 11 12  1  0
 12 13  1  0
 13 14  2  0
 13 15  1  1
 13 16  1  0
  3 17  1  0
  3 18  1  0
  3 19  1  0
  5 20  1  0
  7 21  1  0
 10 22  1  0
 11 23  1  0
 11 24  1  0
M  CHG  2  15  -1  16  -1
M  END
>  <filename_input>  (9) 
7XG5_PLP_docked.sdf

>  <pdb_id>  (9) 
7XG5_PLP

>  <pose_rank>  (9) 
8

>  <num_atoms_heavy>  (9) 
16

>  <num_torsions>  (9) 
4

>  <pose>  (9) 
[-34.61533464798948, -30.28765441761583, 15.372167494192928, 1.0438547829843998, 0.5563590496137302, 1.3762249471004189, -0.8142386520389997, -1.661207731391849, 0.8364715799753963, -0.5360981889879829]

>  <energy>  (9) 
-366.0172652614785

>  <inter_energy>  (9) 
-378.4418900065449

>  <intra_energy>  (9) 
6.960587118190276

>  <rmsd>  (9) 
5.70472

>  <sdf_rank>  (9) 
0

$$$$

     RDKit          3D

 24 24  0  0  0  0  0  0  0  0999 V2000
  -35.5447  -27.5383   17.1443 N   0  0  0  0  0  0  0  0  0  0  0  0
  -35.6646  -26.2085   17.1715 C   0  0  0  0  0  0  0  0  0  0  0  0
  -34.4236  -25.3682   17.0979 C   0  0  0  0  0  0  0  0  0  0  0  0
  -36.9358  -25.6116   17.2722 C   0  0  0  0  0  0  0  0  0  0  0  0
  -37.0299  -24.2582   17.2926 O   0  0  0  0  0  0  0  0  0  0  0  0
  -38.0735  -26.4352   17.3471 C   0  0  0  0  0  0  0  0  0  0  0  0
  -39.4037  -25.8383   17.4635 C   0  0  0  0  0  0  0  0  0  0  0  0
  -40.0757  -25.4668   16.5284 O   0  0  0  0  0  0  0  0  0  0  0  0
  -37.9117  -27.8258   17.3258 C   0  0  0  0  0  0  0  0  0  0  0  0
  -36.6429  -28.3286   17.2242 C   0  0  0  0  0  0  0  0  0  0  0  0
  -39.1064  -28.7398   17.4072 C   0  0  0  0  0  0  0  0  0  0  0  0
  -38.9259  -29.6178   18.5642 O   0  0  0  0  0  0  0  0  0  0  0  0
  -39.4432  -31.1528   18.5424 P   0  0  2  0  0  0  0  0  0  0  0  0
  -40.6500  -31.1915   17.6173 O   0  0  0  0  0  0  0  0  0  0  0  0
  -39.7685  -31.4588   19.9684 O   0  0  0  0  0  0  0  0  0  0  0  0
  -38.2908  -32.0107   17.9480 O   0  0  0  0  0  0  0  0  0  0  0  0
  -34.0782  -25.1343   18.1157 H   0  0  0  0  0  0  0  0  0  0  0  0
  -33.6378  -25.9208   16.5620 H   0  0  0  0  0  0  0  0  0  0  0  0
  -34.6450  -24.4334   16.5620 H   0  0  0  0  0  0  0  0  0  0  0  0
  -37.9171  -23.8247   17.3630 H   0  0  0  0  0  0  0  0  0  0  0  0
  -39.8232  -25.7186   18.4733 H   0  0  0  0  0  0  0  0  0  0  0  0
  -36.5088  -29.4202   17.2066 H   0  0  0  0  0  0  0  0  0  0  0  0
  -40.0238  -28.1452   17.5293 H   0  0  0  0  0  0  0  0  0  0  0  0
  -39.1961  -29.3346   16.4862 H   0  0  0  0  0  0  0  0  0  0  0  0
  1  2  2  0
  1 10  1  0
  2  3  1  0
  2  4  1  0
  4  5  1  0
  4  6  2  0
  6  7  1  0
  6  9  1  0
  7  8  2  0
  9 10  2  0
  9 11  1  0
 11 12  1  0
 12 13  1  0
 13 14  2  0
 13 15  1  1
 13 16  1  0
  3 17  1  0
  3 18  1  0
  3 19  1  0
  5 20  1  0
  7 21  1  0
 10 22  1  0
 11 23  1  0
 11 24  1  0
M  CHG  2  15  -1  16  -1
M  END
>  <filename_input>  (10) 
7XG5_PLP_docked.sdf

>  <pdb_id>  (10) 
7XG5_PLP

>  <pose_rank>  (10) 
9

>  <num_atoms_heavy>  (10) 
16

>  <num_torsions>  (10) 
4

>  <pose>  (10) 
[-35.54469448819047, -27.538261512701997, 17.14430563161192, -1.057400758723443, -0.39623539726158585, -3.74111352877727, 1.510434464785576, -0.8428630130340985, 1.0826181296050859, 0.7013128388532609]

>  <energy>  (10) 
-435.3792645965959

>  <inter_energy>  (10) 
-436.76678053966117

>  <intra_energy>  (10) 
0.20669813823676553

>  <rmsd>  (10) 
5.76008

>  <sdf_rank>  (10) 
0

$$$$

     RDKit          3D

 24 24  0  0  0  0  0  0  0  0999 V2000
  -36.6143  -31.3059   18.0447 N   0  0  0  0  0  0  0  0  0  0  0  0
  -37.8556  -31.0134   18.4410 C   0  0  0  0  0  0  0  0  0  0  0  0
  -38.5208  -31.9009   19.4517 C   0  0  0  0  0  0  0  0  0  0  0  0
  -38.5248  -29.8931   17.9125 C   0  0  0  0  0  0  0  0  0  0  0  0
  -39.7836  -29.6154   18.3360 O   0  0  0  0  0  0  0  0  0  0  0  0
  -37.8689  -29.0914   16.9609 C   0  0  0  0  0  0  0  0  0  0  0  0
  -38.5479  -27.9289   16.3893 C   0  0  0  0  0  0  0  0  0  0  0  0
  -38.3299  -26.7810   16.7036 O   0  0  0  0  0  0  0  0  0  0  0  0
  -36.5713  -29.4319   16.5601 C   0  0  0  0  0  0  0  0  0  0  0  0
  -35.9884  -30.5352   17.1221 C   0  0  0  0  0  0  0  0  0  0  0  0
  -35.8383  -28.5989   15.5410 C   0  0  0  0  0  0  0  0  0  0  0  0
  -34.4048  -28.7055   15.8167 O   0  0  0  0  0  0  0  0  0  0  0  0
  -33.3089  -28.5582   14.6329 P   0  0  2  0  0  0  0  0  0  0  0  0
  -33.9876  -29.0198   13.3524 O   0  0  0  0  0  0  0  0  0  0  0  0
  -32.1750  -29.4322   15.0614 O   0  0  0  0  0  0  0  0  0  0  0  0
  -32.9528  -27.0481   14.5306 O   0  0  0  0  0  0  0  0  0  0  0  0
  -38.2643  -31.5588   20.4652 H   0  0  0  0  0  0  0  0  0  0  0  0
  -39.6115  -31.8586   19.3154 H   0  0  0  0  0  0  0  0  0  0  0  0
  -38.1741  -32.9359   19.3154 H   0  0  0  0  0  0  0  0  0  0  0  0
  -40.2662  -28.8310   17.9731 H   0  0  0  0  0  0  0  0  0  0  0  0
  -39.3113  -28.1112   15.6186 H   0  0  0  0  0  0  0  0  0  0  0  0
  -34.9690  -30.8080   16.8119 H   0  0  0  0  0  0  0  0  0  0  0  0
  -36.0527  -28.9730   14.5291 H   0  0  0  0  0  0  0  0  0  0  0  0
  -36.1621  -27.5493   15.6010 H   0  0  0  0  0  0  0  0  0  0  0  0
  1  2  2  0
  1 10  1  0
  2  3  1  0
  2  4  1  0
  4  5  1  0
  4  6  2  0
  6  7  1  0
  6  9  1  0
  7  8  2  0
  9 10  2  0
  9 11  1  0
 11 12  1  0
 12 13  1  0
 13 14  2  0
 13 15  1  1
 13 16  1  0
  3 17  1  0
  3 18  1  0
  3 19  1  0
  5 20  1  0
  7 21  1  0
 10 22  1  0
 11 23  1  0
 11 24  1  0
M  CHG  2  15  -1  16  -1
M  END
>  <filename_input>  (11) 
7XG5_PLP_docked.sdf

>  <pdb_id>  (11) 
7XG5_PLP

>  <pose_rank>  (11) 
10

>  <num_atoms_heavy>  (11) 
16

>  <num_torsions>  (11) 
4

>  <pose>  (11) 
[-36.61432381577777, -31.30594254194087, 18.044729459623994, 0.8821122659760511, 2.4373540966789626, -1.7009612213264544, 1.8226740085542674, 3.928103295011523, -0.02625623999338082, 0.7269020030380052]

>  <energy>  (11) 
-432.05218838983075

>  <inter_energy>  (11) 
-432.5444268404675

>  <intra_energy>  (11) 
2.769739518702286

>  <rmsd>  (11) 
4.33552

>  <sdf_rank>  (11) 
0

$$$$

     RDKit          3D

 24 24  0  0  0  0  0  0  0  0999 V2000
  -40.4895  -29.9441   18.2850 N   0  0  0  0  0  0  0  0  0  0  0  0
  -39.4925  -30.8318   18.2493 C   0  0  0  0  0  0  0  0  0  0  0  0
  -39.7333  -32.2127   18.7851 C   0  0  0  0  0  0  0  0  0  0  0  0
  -38.2383  -30.4709   17.7210 C   0  0  0  0  0  0  0  0  0  0  0  0
  -37.2439  -31.3936   17.6918 O   0  0  0  0  0  0  0  0  0  0  0  0
  -38.0514  -29.1638   17.2363 C   0  0  0  0  0  0  0  0  0  0  0  0
  -36.7541  -28.7623   16.6932 C   0  0  0  0  0  0  0  0  0  0  0  0
  -36.3481  -29.0562   15.5920 O   0  0  0  0  0  0  0  0  0  0  0  0
  -39.1147  -28.2550   17.2977 C   0  0  0  0  0  0  0  0  0  0  0  0
  -40.3032  -28.6833   17.8238 C   0  0  0  0  0  0  0  0  0  0  0  0
  -38.9512  -26.8456   16.7911 C   0  0  0  0  0  0  0  0  0  0  0  0
  -38.0441  -26.1415   17.6987 O   0  0  0  0  0  0  0  0  0  0  0  0
  -37.3073  -24.7697   17.2523 P   0  0  2  0  0  0  0  0  0  0  0  0
  -36.3155  -25.1442   16.1615 O   0  0  0  0  0  0  0  0  0  0  0  0
  -36.6636  -24.2659   18.5033 O   0  0  0  0  0  0  0  0  0  0  0  0
  -38.4054  -23.8336   16.6730 O   0  0  0  0  0  0  0  0  0  0  0  0
  -39.7285  -32.1853   19.8847 H   0  0  0  0  0  0  0  0  0  0  0  0
  -40.7087  -32.5782   18.4316 H   0  0  0  0  0  0  0  0  0  0  0  0
  -38.9391  -32.8868   18.4316 H   0  0  0  0  0  0  0  0  0  0  0  0
  -36.3569  -31.1539   17.3232 H   0  0  0  0  0  0  0  0  0  0  0  0
  -36.1008  -28.1493   17.3316 H   0  0  0  0  0  0  0  0  0  0  0  0
  -41.1428  -27.9744   17.8746 H   0  0  0  0  0  0  0  0  0  0  0  0
  -38.5267  -26.8605   15.7764 H   0  0  0  0  0  0  0  0  0  0  0  0
  -39.9259  -26.3372   16.7543 H   0  0  0  0  0  0  0  0  0  0  0  0
  1  2  2  0
  1 10  1  0
  2  3  1  0
  2  4  1  0
  4  5  1  0
  4  6  2  0
  6  7  1  0
  6  9  1  0
  7  8  2  0
  9 10  2  0
  9 11  1  0
 11 12  1  0
 12 13  1  0
 13 14  2  0
 13 15  1  1
 13 16  1  0
  3 17  1  0
  3 18  1  0
  3 19  1  0
  5 20  1  0
  7 21  1  0
 10 22  1  0
 11 23  1  0
 11 24  1  0
M  CHG  2  15  -1  16  -1
M  END
>  <filename_input>  (12) 
7XG5_PLP_docked.sdf

>  <pdb_id>  (12) 
7XG5_PLP

>  <pose_rank>  (12) 
11

>  <num_atoms_heavy>  (12) 
16

>  <num_torsions>  (12) 
4

>  <pose>  (12) 
[-40.4894793672347, -29.944134870083428, 18.285011118348045, 1.327433327724579, -4.553492970134932, -4.205110389225782, 1.3742142662332288, 25.21922198557991, -6.120685153243922, 12.600418045249622]

>  <energy>  (12) 
-784.5449062903023

>  <inter_energy>  (12) 
-794.6979421643148

>  <intra_energy>  (12) 
8.353671869299063

>  <rmsd>  (12) 
0.3897

>  <sdf_rank>  (12) 
0

$$$$

     RDKit          3D

 24 24  0  0  0  0  0  0  0  0999 V2000
  -39.6923  -30.1736   19.1523 N   0  0  0  0  0  0  0  0  0  0  0  0
  -38.8144  -31.1787   19.1045 C   0  0  0  0  0  0  0  0  0  0  0  0
  -39.0312  -32.3718   19.9884 C   0  0  0  0  0  0  0  0  0  0  0  0
  -37.7044  -31.1122   18.2409 C   0  0  0  0  0  0  0  0  0  0  0  0
  -36.8303  -32.1496   18.2080 O   0  0  0  0  0  0  0  0  0  0  0  0
  -37.5331  -29.9725   17.4346 C   0  0  0  0  0  0  0  0  0  0  0  0
  -36.3817  -29.8757   16.5378 C   0  0  0  0  0  0  0  0  0  0  0  0
  -35.9473  -30.7894   15.8742 O   0  0  0  0  0  0  0  0  0  0  0  0
  -38.4669  -28.9324   17.5164 C   0  0  0  0  0  0  0  0  0  0  0  0
  -39.5197  -29.0738   18.3791 C   0  0  0  0  0  0  0  0  0  0  0  0
  -38.3149  -27.6951   16.6706 C   0  0  0  0  0  0  0  0  0  0  0  0
  -38.2974  -26.5361   17.5643 O   0  0  0  0  0  0  0  0  0  0  0  0
  -37.2009  -25.3567   17.3886 P   0  0  2  0  0  0  0  0  0  0  0  0
  -35.8876  -26.0344   17.0288 O   0  0  0  0  0  0  0  0  0  0  0  0
  -37.1780  -24.6660   18.7136 O   0  0  0  0  0  0  0  0  0  0  0  0
  -37.6795  -24.4655   16.2078 O   0  0  0  0  0  0  0  0  0  0  0  0
  -38.9749  -32.0622   21.0425 H   0  0  0  0  0  0  0  0  0  0  0  0
  -40.0224  -32.8033   19.7854 H   0  0  0  0  0  0  0  0  0  0  0  0
  -38.2551  -33.1244   19.7854 H   0  0  0  0  0  0  0  0  0  0  0  0
  -36.0453  -32.1166   17.6057 H   0  0  0  0  0  0  0  0  0  0  0  0
  -35.8744  -28.9027   16.4613 H   0  0  0  0  0  0  0  0  0  0  0  0
  -40.2572  -28.2605   18.4480 H   0  0  0  0  0  0  0  0  0  0  0  0
  -37.3735  -27.7436   16.1037 H   0  0  0  0  0  0  0  0  0  0  0  0
  -39.1483  -27.6150   15.9571 H   0  0  0  0  0  0  0  0  0  0  0  0
  1  2  2  0
  1 10  1  0
  2  3  1  0
  2  4  1  0
  4  5  1  0
  4  6  2  0
  6  7  1  0
  6  9  1  0
  7  8  2  0
  9 10  2  0
  9 11  1  0
 11 12  1  0
 12 13  1  0
 13 14  2  0
 13 15  1  1
 13 16  1  0
  3 17  1  0
  3 18  1  0
  3 19  1  0
  5 20  1  0
  7 21  1  0
 10 22  1  0
 11 23  1  0
 11 24  1  0
M  CHG  2  15  -1  16  -1
M  END
>  <filename_input>  (13) 
7XG5_PLP_docked.sdf

>  <pdb_id>  (13) 
7XG5_PLP

>  <pose_rank>  (13) 
12

>  <num_atoms_heavy>  (13) 
16

>  <num_torsions>  (13) 
4

>  <pose>  (13) 
[-39.6922516720993, -30.173585875530282, 19.15231118818563, -4.421198643520978, 3.928338989797897, -2.957182342341158, 0.7315978846736639, 24.263684406607577, -6.608405938154049, 13.102813133225556]

>  <energy>  (13) 
-642.632388003827

>  <inter_energy>  (13) 
-647.1618185423114

>  <intra_energy>  (13) 
9.34404280381229

>  <rmsd>  (13) 
1.17973

>  <sdf_rank>  (13) 
0

$$$$

     RDKit          3D

 24 24  0  0  0  0  0  0  0  0999 V2000
  -31.6975  -30.2006   15.0598 N   0  0  0  0  0  0  0  0  0  0  0  0
  -31.8322  -31.1694   14.1506 C   0  0  0  0  0  0  0  0  0  0  0  0
  -30.5978  -31.8116   13.5889 C   0  0  0  0  0  0  0  0  0  0  0  0
  -33.1127  -31.5737   13.7274 C   0  0  0  0  0  0  0  0  0  0  0  0
  -33.2216  -32.5640   12.8062 O   0  0  0  0  0  0  0  0  0  0  0  0
  -34.2442  -30.9406   14.2727 C   0  0  0  0  0  0  0  0  0  0  0  0
  -35.5845  -31.3357   13.8403 C   0  0  0  0  0  0  0  0  0  0  0  0
  -36.0782  -31.0431   12.7751 O   0  0  0  0  0  0  0  0  0  0  0  0
  -34.0673  -29.9218   15.2166 C   0  0  0  0  0  0  0  0  0  0  0  0
  -32.7901  -29.5879   15.5774 C   0  0  0  0  0  0  0  0  0  0  0  0
  -35.2551  -29.2188   15.8203 C   0  0  0  0  0  0  0  0  0  0  0  0
  -35.0345  -27.7766   15.7029 O   0  0  0  0  0  0  0  0  0  0  0  0
  -35.4922  -26.7588   16.8771 P   0  0  2  0  0  0  0  0  0  0  0  0
  -34.2246  -26.1015   17.4010 O   0  0  0  0  0  0  0  0  0  0  0  0
  -36.1776  -27.6285   17.8806 O   0  0  0  0  0  0  0  0  0  0  0  0
  -36.4107  -25.6911   16.2184 O   0  0  0  0  0  0  0  0  0  0  0  0
  -29.9517  -32.1477   14.4133 H   0  0  0  0  0  0  0  0  0  0  0  0
  -30.8829  -32.6757   12.9708 H   0  0  0  0  0  0  0  0  0  0  0  0
  -30.0539  -31.0821   12.9708 H   0  0  0  0  0  0  0  0  0  0  0  0
  -34.1156  -32.8585   12.4994 H   0  0  0  0  0  0  0  0  0  0  0  0
  -36.1865  -31.9421   14.5329 H   0  0  0  0  0  0  0  0  0  0  0  0
  -32.6440  -28.7885   16.3188 H   0  0  0  0  0  0  0  0  0  0  0  0
  -36.1706  -29.5016   15.2801 H   0  0  0  0  0  0  0  0  0  0  0  0
  -35.3712  -29.5030   16.8766 H   0  0  0  0  0  0  0  0  0  0  0  0
  1  2  2  0
  1 10  1  0
  2  3  1  0
  2  4  1  0
  4  5  1  0
  4  6  2  0
  6  7  1  0
  6  9  1  0
  7  8  2  0
  9 10  2  0
  9 11  1  0
 11 12  1  0
 12 13  1  0
 13 14  2  0
 13 15  1  1
 13 16  1  0
  3 17  1  0
  3 18  1  0
  3 19  1  0
  5 20  1  0
  7 21  1  0
 10 22  1  0
 11 23  1  0
 11 24  1  0
M  CHG  2  15  -1  16  -1
M  END
>  <filename_input>  (14) 
7XG5_PLP_docked.sdf

>  <pdb_id>  (14) 
7XG5_PLP

>  <pose_rank>  (14) 
13

>  <num_atoms_heavy>  (14) 
16

>  <num_torsions>  (14) 
4

>  <pose>  (14) 
[-31.697499890081772, -30.20059558640859, 15.059755345627776, -0.683186930042103, 2.246317217354079, 0.6273979625364062, 5.000744699616974, 5.313075663366773, 7.409628641842857, 3.26764699266745]

>  <energy>  (14) 
-304.28444341600226

>  <inter_energy>  (14) 
-310.0060477462842

>  <intra_energy>  (14) 
0.802501722381115

>  <rmsd>  (14) 
6.15235

>  <sdf_rank>  (14) 
0

$$$$

     RDKit          3D

 24 24  0  0  0  0  0  0  0  0999 V2000
  -35.0571  -26.6846   16.0092 N   0  0  0  0  0  0  0  0  0  0  0  0
  -35.9959  -26.3232   16.8875 C   0  0  0  0  0  0  0  0  0  0  0  0
  -36.1716  -24.8662   17.2006 C   0  0  0  0  0  0  0  0  0  0  0  0
  -36.8004  -27.2973   17.5088 C   0  0  0  0  0  0  0  0  0  0  0  0
  -37.7505  -26.9026   18.3936 O   0  0  0  0  0  0  0  0  0  0  0  0
  -36.5982  -28.6531   17.1938 C   0  0  0  0  0  0  0  0  0  0  0  0
  -37.4140  -29.6839   17.8348 C   0  0  0  0  0  0  0  0  0  0  0  0
  -37.3447  -29.9885   19.0038 O   0  0  0  0  0  0  0  0  0  0  0  0
  -35.5987  -28.9984   16.2760 C   0  0  0  0  0  0  0  0  0  0  0  0
  -34.8603  -27.9927   15.7138 C   0  0  0  0  0  0  0  0  0  0  0  0
  -35.3509  -30.4401   15.9160 C   0  0  0  0  0  0  0  0  0  0  0  0
  -35.1550  -30.5171   14.4676 O   0  0  0  0  0  0  0  0  0  0  0  0
  -34.0540  -31.5140   13.8210 P   0  0  2  0  0  0  0  0  0  0  0  0
  -34.0118  -31.2077   12.3317 O   0  0  0  0  0  0  0  0  0  0  0  0
  -34.5571  -32.8847   14.1390 O   0  0  0  0  0  0  0  0  0  0  0  0
  -32.6870  -31.1639   14.4741 O   0  0  0  0  0  0  0  0  0  0  0  0
  -36.1887  -24.7250   18.2914 H   0  0  0  0  0  0  0  0  0  0  0  0
  -35.3359  -24.2952   16.7700 H   0  0  0  0  0  0  0  0  0  0  0  0
  -37.1192  -24.5103   16.7700 H   0  0  0  0  0  0  0  0  0  0  0  0
  -38.3235  -27.5765   18.8381 H   0  0  0  0  0  0  0  0  0  0  0  0
  -38.1427  -30.2207   17.2096 H   0  0  0  0  0  0  0  0  0  0  0  0
  -34.0737  -28.2570   14.9917 H   0  0  0  0  0  0  0  0  0  0  0  0
  -34.4518  -30.8050   16.4343 H   0  0  0  0  0  0  0  0  0  0  0  0
  -36.2056  -31.0623   16.2198 H   0  0  0  0  0  0  0  0  0  0  0  0
  1  2  2  0
  1 10  1  0
  2  3  1  0
  2  4  1  0
  4  5  1  0
  4  6  2  0
  6  7  1  0
  6  9  1  0
  7  8  2  0
  9 10  2  0
  9 11  1  0
 11 12  1  0
 12 13  1  0
 13 14  2  0
 13 15  1  6
 13 16  1  0
  3 17  1  0
  3 18  1  0
  3 19  1  0
  5 20  1  0
  7 21  1  0
 10 22  1  0
 11 23  1  0
 11 24  1  0
M  CHG  2  15  -1  16  -1
M  END
>  <filename_input>  (15) 
7XG5_PLP_docked.sdf

>  <pdb_id>  (15) 
7XG5_PLP

>  <pose_rank>  (15) 
14

>  <num_atoms_heavy>  (15) 
16

>  <num_torsions>  (15) 
4

>  <pose>  (15) 
[-35.05713329676635, -26.684584442849328, 16.009214442165916, -1.2459534983955922, -0.20595939231835858, -2.329326545706243, 5.0914392679019675, -8.876260643707969, -6.481993648967027, -1.804276378207755]

>  <energy>  (15) 
-389.7408945742804

>  <inter_energy>  (15) 
-365.5052045028568

>  <intra_energy>  (15) 
1.5636081612320138

>  <rmsd>  (15) 
6.2793

>  <sdf_rank>  (15) 
0

$$$$

     RDKit          3D

 24 24  0  0  0  0  0  0  0  0999 V2000
  -33.8831  -31.9559   12.3341 N   0  0  0  0  0  0  0  0  0  0  0  0
  -34.9592  -32.2057   13.0844 C   0  0  0  0  0  0  0  0  0  0  0  0
  -36.0068  -33.1425   12.5583 C   0  0  0  0  0  0  0  0  0  0  0  0
  -35.1046  -31.5943   14.3443 C   0  0  0  0  0  0  0  0  0  0  0  0
  -36.2052  -31.8695   15.0887 O   0  0  0  0  0  0  0  0  0  0  0  0
  -34.1036  -30.7161   14.7973 C   0  0  0  0  0  0  0  0  0  0  0  0
  -34.2379  -30.0603   16.0978 C   0  0  0  0  0  0  0  0  0  0  0  0
  -35.0200  -29.1700   16.3422 O   0  0  0  0  0  0  0  0  0  0  0  0
  -32.9930  -30.4685   13.9814 C   0  0  0  0  0  0  0  0  0  0  0  0
  -32.9243  -31.1032   12.7710 C   0  0  0  0  0  0  0  0  0  0  0  0
  -31.9024  -29.5317   14.4316 C   0  0  0  0  0  0  0  0  0  0  0  0
  -30.6223  -30.0767   13.9770 O   0  0  0  0  0  0  0  0  0  0  0  0
  -29.6864  -29.2638   12.9343 P   0  0  2  0  0  0  0  0  0  0  0  0
  -29.6087  -30.1075   11.6711 O   0  0  0  0  0  0  0  0  0  0  0  0
  -28.3779  -29.1172   13.6411 O   0  0  0  0  0  0  0  0  0  0  0  0
  -30.4071  -27.9197   12.6316 O   0  0  0  0  0  0  0  0  0  0  0  0
  -36.5338  -33.6138   13.4009 H   0  0  0  0  0  0  0  0  0  0  0  0
  -36.7259  -32.5807   11.9441 H   0  0  0  0  0  0  0  0  0  0  0  0
  -35.5285  -33.9197   11.9441 H   0  0  0  0  0  0  0  0  0  0  0  0
  -36.3207  -31.4468   15.9764 H   0  0  0  0  0  0  0  0  0  0  0  0
  -33.5811  -30.4009   16.9117 H   0  0  0  0  0  0  0  0  0  0  0  0
  -32.0542  -30.9134   12.1253 H   0  0  0  0  0  0  0  0  0  0  0  0
  -32.0611  -28.5357   13.9926 H   0  0  0  0  0  0  0  0  0  0  0  0
  -31.9094  -29.4354   15.5273 H   0  0  0  0  0  0  0  0  0  0  0  0
  1  2  2  0
  1 10  1  0
  2  3  1  0
  2  4  1  0
  4  5  1  0
  4  6  2  0
  6  7  1  0
  6  9  1  0
  7  8  2  0
  9 10  2  0
  9 11  1  0
 11 12  1  0
 12 13  1  0
 13 14  2  0
 13 15  1  1
 13 16  1  0
  3 17  1  0
  3 18  1  0
  3 19  1  0
  5 20  1  0
  7 21  1  0
 10 22  1  0
 11 23  1  0
 11 24  1  0
M  CHG  2  15  -1  16  -1
M  END
>  <filename_input>  (16) 
7XG5_PLP_docked.sdf

>  <pdb_id>  (16) 
7XG5_PLP

>  <pose_rank>  (16) 
15

>  <num_atoms_heavy>  (16) 
16

>  <num_torsions>  (16) 
4

>  <pose>  (16) 
[-33.88312941568277, -31.955853623809205, 12.334117951314322, 1.2259121889738727, 3.621293518626029, 0.4917219535307418, -1.2365509018520018, 41.487432183333844, 30.802441569931645, -7.089489007740671]

>  <energy>  (16) 
-255.0658564369219

>  <inter_energy>  (16) 
-271.18519418589204

>  <intra_energy>  (16) 
3.3836093612913145

>  <rmsd>  (16) 
7.82077

>  <sdf_rank>  (16) 
0

$$$$

     RDKit          3D

 24 24  0  0  0  0  0  0  0  0999 V2000
  -47.3871  -20.6977   15.2062 N   0  0  0  0  0  0  0  0  0  0  0  0
  -47.2292  -20.5834   13.8851 C   0  0  0  0  0  0  0  0  0  0  0  0
  -47.4031  -19.2354   13.2492 C   0  0  0  0  0  0  0  0  0  0  0  0
  -46.9096  -21.7127   13.1073 C   0  0  0  0  0  0  0  0  0  0  0  0
  -46.7496  -21.5679   11.7677 O   0  0  0  0  0  0  0  0  0  0  0  0
  -46.7633  -22.9598   13.7410 C   0  0  0  0  0  0  0  0  0  0  0  0
  -46.4426  -24.1492   12.9525 C   0  0  0  0  0  0  0  0  0  0  0  0
  -47.2402  -24.7696   12.2871 O   0  0  0  0  0  0  0  0  0  0  0  0
  -46.9452  -23.0465   15.1266 C   0  0  0  0  0  0  0  0  0  0  0  0
  -47.2525  -21.9026   15.8121 C   0  0  0  0  0  0  0  0  0  0  0  0
  -46.7997  -24.3655   15.8397 C   0  0  0  0  0  0  0  0  0  0  0  0
  -47.7932  -24.4107   16.9136 O   0  0  0  0  0  0  0  0  0  0  0  0
  -47.5493  -25.2987   18.2463 P   0  0  2  0  0  0  0  0  0  0  0  0
  -48.2602  -24.5806   19.3832 O   0  0  0  0  0  0  0  0  0  0  0  0
  -46.0635  -25.3440   18.3995 O   0  0  0  0  0  0  0  0  0  0  0  0
  -48.2118  -26.6829   17.9959 O   0  0  0  0  0  0  0  0  0  0  0  0
  -47.5018  -18.4702   14.0333 H   0  0  0  0  0  0  0  0  0  0  0  0
  -46.5267  -19.0090   12.6242 H   0  0  0  0  0  0  0  0  0  0  0  0
  -48.3083  -19.2388   12.6242 H   0  0  0  0  0  0  0  0  0  0  0  0
  -46.5248  -22.3532   11.2083 H   0  0  0  0  0  0  0  0  0  0  0  0
  -45.4018  -24.5051   12.9654 H   0  0  0  0  0  0  0  0  0  0  0  0
  -47.3964  -21.9636   16.9010 H   0  0  0  0  0  0  0  0  0  0  0  0
  -46.9737  -25.1920   15.1351 H   0  0  0  0  0  0  0  0  0  0  0  0
  -45.7853  -24.4667   16.2529 H   0  0  0  0  0  0  0  0  0  0  0  0
  1  2  2  0
  1 10  1  0
  2  3  1  0
  2  4  1  0
  4  5  1  0
  4  6  2  0
  6  7  1  0
  6  9  1  0
  7  8  2  0
  9 10  2  0
  9 11  1  0
 11 12  1  0
 12 13  1  0
 13 14  2  0
 13 15  1  1
 13 16  1  0
  3 17  1  0
  3 18  1  0
  3 19  1  0
  5 20  1  0
  7 21  1  0
 10 22  1  0
 11 23  1  0
 11 24  1  0
M  CHG  2  15  -1  16  -1
M  END
>  <filename_input>  (17) 
7XG5_PLP_docked.sdf

>  <pdb_id>  (17) 
7XG5_PLP

>  <pose_rank>  (17) 
16

>  <num_atoms_heavy>  (17) 
16

>  <num_torsions>  (17) 
4

>  <pose>  (17) 
[-47.3870839209369, -20.69771913672163, 15.206153989382805, 1.9377395775027633, -0.8800012904185986, -2.0186389490380128, -1.343828822484058, -1.210101602283725, 7.230832764115513, 3.822338055544486]

>  <energy>  (17) 
-184.27443080666805

>  <inter_energy>  (17) 
-176.22417482017124

>  <intra_energy>  (17) 
0.42864133314394837

>  <rmsd>  (17) 
11.6168

>  <sdf_rank>  (17) 
0

$$$$

     RDKit          3D

 24 24  0  0  0  0  0  0  0  0999 V2000
  -31.7654  -18.3605   14.6337 N   0  0  0  0  0  0  0  0  0  0  0  0
  -32.6125  -18.3213   15.6652 C   0  0  0  0  0  0  0  0  0  0  0  0
  -32.1618  -17.6872   16.9484 C   0  0  0  0  0  0  0  0  0  0  0  0
  -33.9031  -18.8712   15.5461 C   0  0  0  0  0  0  0  0  0  0  0  0
  -34.7460  -18.8135   16.6078 O   0  0  0  0  0  0  0  0  0  0  0  0
  -34.2838  -19.4637   14.3285 C   0  0  0  0  0  0  0  0  0  0  0  0
  -35.6154  -20.0515   14.1845 C   0  0  0  0  0  0  0  0  0  0  0  0
  -36.6514  -19.4279   14.2270 O   0  0  0  0  0  0  0  0  0  0  0  0
  -33.3678  -19.4966   13.2701 C   0  0  0  0  0  0  0  0  0  0  0  0
  -32.1333  -18.9390   13.4645 C   0  0  0  0  0  0  0  0  0  0  0  0
  -33.7386  -20.1255   11.9523 C   0  0  0  0  0  0  0  0  0  0  0  0
  -32.5006  -20.4696   11.2515 O   0  0  0  0  0  0  0  0  0  0  0  0
  -32.3649  -20.2864    9.6476 P   0  0  2  0  0  0  0  0  0  0  0  0
  -33.0433  -21.4911    9.0137 O   0  0  0  0  0  0  0  0  0  0  0  0
  -30.8922  -20.2265    9.4008 O   0  0  0  0  0  0  0  0  0  0  0  0
  -33.1323  -18.9869    9.2736 O   0  0  0  0  0  0  0  0  0  0  0  0
  -32.5654  -18.2551   17.7996 H   0  0  0  0  0  0  0  0  0  0  0  0
  -31.0627  -17.6913   16.9931 H   0  0  0  0  0  0  0  0  0  0  0  0
  -32.5267  -16.6505   16.9931 H   0  0  0  0  0  0  0  0  0  0  0  0
  -35.6565  -19.1960   16.5384 H   0  0  0  0  0  0  0  0  0  0  0  0
  -35.6795  -21.1382   14.0261 H   0  0  0  0  0  0  0  0  0  0  0  0
  -31.4091  -18.9611   12.6369 H   0  0  0  0  0  0  0  0  0  0  0  0
  -34.3339  -21.0340   12.1265 H   0  0  0  0  0  0  0  0  0  0  0  0
  -34.3371  -19.4262   11.3500 H   0  0  0  0  0  0  0  0  0  0  0  0
  1  2  2  0
  1 10  1  0
  2  3  1  0
  2  4  1  0
  4  5  1  0
  4  6  2  0
  6  7  1  0
  6  9  1  0
  7  8  2  0
  9 10  2  0
  9 11  1  0
 11 12  1  0
 12 13  1  0
 13 14  2  0
 13 15  1  1
 13 16  1  0
  3 17  1  0
  3 18  1  0
  3 19  1  0
  5 20  1  0
  7 21  1  0
 10 22  1  0
 11 23  1  0
 11 24  1  0
M  CHG  2  15  -1  16  -1
M  END
>  <filename_input>  (18) 
7XG5_PLP_docked.sdf

>  <pdb_id>  (18) 
7XG5_PLP

>  <pose_rank>  (18) 
17

>  <num_atoms_heavy>  (18) 
16

>  <num_torsions>  (18) 
4

>  <pose>  (18) 
[-31.76536689208575, -18.360486508466863, 14.63369396929385, 1.080672071817854, -1.4012146460607042, 2.9817926338031917, 1.1537569557984153, -1.4771027751954773, 1.1428582061474828, -0.17891193536693287]

>  <energy>  (18) 
-108.36605605957087

>  <inter_energy>  (18) 
-112.66859190761166

>  <intra_energy>  (18) 
2.511933975132749

>  <rmsd>  (18) 
11.7895

>  <sdf_rank>  (18) 
0

$$$$

     RDKit          3D

 24 24  0  0  0  0  0  0  0  0999 V2000
  -42.5815  -20.2562   26.3713 N   0  0  0  0  0  0  0  0  0  0  0  0
  -43.8311  -20.3620   25.9123 C   0  0  0  0  0  0  0  0  0  0  0  0
  -44.9491  -20.5541   26.8945 C   0  0  0  0  0  0  0  0  0  0  0  0
  -44.0879  -20.2981   24.5295 C   0  0  0  0  0  0  0  0  0  0  0  0
  -45.3674  -20.4031   24.0900 O   0  0  0  0  0  0  0  0  0  0  0  0
  -43.0108  -20.1253   23.6415 C   0  0  0  0  0  0  0  0  0  0  0  0
  -43.2516  -20.0673   22.2000 C   0  0  0  0  0  0  0  0  0  0  0  0
  -43.5838  -19.0722   21.5972 O   0  0  0  0  0  0  0  0  0  0  0  0
  -41.7120  -20.0277   24.1554 C   0  0  0  0  0  0  0  0  0  0  0  0
  -41.5454  -20.0972   25.5120 C   0  0  0  0  0  0  0  0  0  0  0  0
  -40.5333  -19.8453   23.2353 C   0  0  0  0  0  0  0  0  0  0  0  0
  -39.3129  -20.0293   24.0221 O   0  0  0  0  0  0  0  0  0  0  0  0
  -38.0816  -18.9817   23.9194 P   0  0  2  0  0  0  0  0  0  0  0  0
  -38.6371  -17.7196   23.2774 O   0  0  0  0  0  0  0  0  0  0  0  0
  -37.0617  -19.6833   23.0823 O   0  0  0  0  0  0  0  0  0  0  0  0
  -37.6215  -18.6794   25.3735 O   0  0  0  0  0  0  0  0  0  0  0  0
  -44.5533  -20.4861   27.9186 H   0  0  0  0  0  0  0  0  0  0  0  0
  -45.7089  -19.7733   26.7425 H   0  0  0  0  0  0  0  0  0  0  0  0
  -45.4048  -21.5437   26.7425 H   0  0  0  0  0  0  0  0  0  0  0  0
  -45.5628  -20.3600   23.1204 H   0  0  0  0  0  0  0  0  0  0  0  0
  -43.1213  -20.9945   21.6228 H   0  0  0  0  0  0  0  0  0  0  0  0
  -40.5277  -20.0209   25.9223 H   0  0  0  0  0  0  0  0  0  0  0  0
  -40.5720  -20.5901   22.4267 H   0  0  0  0  0  0  0  0  0  0  0  0
  -40.5507  -18.8413   22.7861 H   0  0  0  0  0  0  0  0  0  0  0  0
  1  2  2  0
  1 10  1  0
  2  3  1  0
  2  4  1  0
  4  5  1  0
  4  6  2  0
  6  7  1  0
  6  9  1  0
  7  8  2  0
  9 10  2  0
  9 11  1  0
 11 12  1  0
 12 13  1  0
 13 14  2  0
 13 15  1  6
 13 16  1  0
  3 17  1  0
  3 18  1  0
  3 19  1  0
  5 20  1  0
  7 21  1  0
 10 22  1  0
 11 23  1  0
 11 24  1  0
M  CHG  2  15  -1  16  -1
M  END
>  <filename_input>  (19) 
7XG5_PLP_docked.sdf

>  <pdb_id>  (19) 
7XG5_PLP

>  <pose_rank>  (19) 
18

>  <num_atoms_heavy>  (19) 
16

>  <num_torsions>  (19) 
4

>  <pose>  (19) 
[-42.581496074916494, -20.256227492643113, 26.371279179308903, -1.2354509220609786, -2.107700366465433, 3.159919655173438, 1.4778936199044157, -1.662100865972397, 1.299405469737588, 1.5167068007146287]

>  <energy>  (19) 
-152.28617229343817

>  <inter_energy>  (19) 
-116.47699273279258

>  <intra_energy>  (19) 
0.20692426242249984

>  <rmsd>  (19) 
11.5965

>  <sdf_rank>  (19) 
0

$$$$

     RDKit          3D

 24 24  0  0  0  0  0  0  0  0999 V2000
  -33.2735  -18.5602   14.3138 N   0  0  0  0  0  0  0  0  0  0  0  0
  -34.0916  -19.5954   14.1079 C   0  0  0  0  0  0  0  0  0  0  0  0
  -34.8082  -20.1962   15.2815 C   0  0  0  0  0  0  0  0  0  0  0  0
  -34.2709  -20.1125   12.8107 C   0  0  0  0  0  0  0  0  0  0  0  0
  -35.1119  -21.1615   12.6284 O   0  0  0  0  0  0  0  0  0  0  0  0
  -33.5742  -19.5258   11.7388 C   0  0  0  0  0  0  0  0  0  0  0  0
  -33.7356  -20.0527   10.3840 C   0  0  0  0  0  0  0  0  0  0  0  0
  -33.4362  -21.1737   10.0412 O   0  0  0  0  0  0  0  0  0  0  0  0
  -32.7168  -18.4480   11.9909 C   0  0  0  0  0  0  0  0  0  0  0  0
  -32.5982  -18.0024   13.2794 C   0  0  0  0  0  0  0  0  0  0  0  0
  -31.9517  -17.7960   10.8688 C   0  0  0  0  0  0  0  0  0  0  0  0
  -30.6696  -18.4890   10.7335 O   0  0  0  0  0  0  0  0  0  0  0  0
  -30.0587  -18.8476    9.2766 P   0  0  2  0  0  0  0  0  0  0  0  0
  -28.5496  -18.9320    9.4470 O   0  0  0  0  0  0  0  0  0  0  0  0
  -30.5028  -17.7240    8.3973 O   0  0  0  0  0  0  0  0  0  0  0  0
  -30.6266  -20.2389    8.8773 O   0  0  0  0  0  0  0  0  0  0  0  0
  -34.3618  -19.8219   16.2146 H   0  0  0  0  0  0  0  0  0  0  0  0
  -35.8711  -19.9152   15.2451 H   0  0  0  0  0  0  0  0  0  0  0  0
  -34.7172  -21.2918   15.2451 H   0  0  0  0  0  0  0  0  0  0  0  0
  -35.2477  -21.5354   11.7219 H   0  0  0  0  0  0  0  0  0  0  0  0
  -34.1596  -19.3818    9.6223 H   0  0  0  0  0  0  0  0  0  0  0  0
  -31.9265  -17.1557   13.4843 H   0  0  0  0  0  0  0  0  0  0  0  0
  -32.5213  -17.8781    9.9314 H   0  0  0  0  0  0  0  0  0  0  0  0
  -31.7889  -16.7300   11.0860 H   0  0  0  0  0  0  0  0  0  0  0  0
  1  2  2  0
  1 10  1  0
  2  3  1  0
  2  4  1  0
  4  5  1  0
  4  6  2  0
  6  7  1  0
  6  9  1  0
  7  8  2  0
  9 10  2  0
  9 11  1  0
 11 12  1  0
 12 13  1  0
 13 14  2  0
 13 15  1  6
 13 16  1  0
  3 17  1  0
  3 18  1  0
  3 19  1  0
  5 20  1  0
  7 21  1  0
 10 22  1  0
 11 23  1  0
 11 24  1  0
M  CHG  2  15  -1  16  -1
M  END
>  <filename_input>  (20) 
7XG5_PLP_docked.sdf

>  <pdb_id>  (20) 
7XG5_PLP

>  <pose_rank>  (20) 
19

>  <num_atoms_heavy>  (20) 
16

>  <num_torsions>  (20) 
4

>  <pose>  (20) 
[-33.27348182275738, -18.560247067486404, 14.31376911737673, -0.0032216893268923546, 1.036835115082807, -1.323083072314078, -1.0646348968226, -0.2714629214321835, -0.25706542903393026, -2.373974214153398]

>  <energy>  (20) 
-137.8961264725449

>  <inter_energy>  (20) 
-125.4162497288106

>  <intra_energy>  (20) 
5.637359264577393

>  <rmsd>  (20) 
12.4561

>  <sdf_rank>  (20) 
0

$$$$

     RDKit          3D

 24 24  0  0  0  0  0  0  0  0999 V2000
  -45.6498  -17.9418   21.6261 N   0  0  0  0  0  0  0  0  0  0  0  0
  -46.7439  -18.6316   21.2940 C   0  0  0  0  0  0  0  0  0  0  0  0
  -47.6353  -18.0977   20.2113 C   0  0  0  0  0  0  0  0  0  0  0  0
  -47.0526  -19.8358   21.9549 C   0  0  0  0  0  0  0  0  0  0  0  0
  -48.1677  -20.5198   21.5945 O   0  0  0  0  0  0  0  0  0  0  0  0
  -46.1952  -20.2976   22.9699 C   0  0  0  0  0  0  0  0  0  0  0  0
  -46.5011  -21.5401   23.6784 C   0  0  0  0  0  0  0  0  0  0  0  0
  -46.2064  -22.6463   23.2867 O   0  0  0  0  0  0  0  0  0  0  0  0
  -45.0617  -19.5450   23.3000 C   0  0  0  0  0  0  0  0  0  0  0  0
  -44.8301  -18.3863   22.6097 C   0  0  0  0  0  0  0  0  0  0  0  0
  -44.1220  -20.0062   24.3835 C   0  0  0  0  0  0  0  0  0  0  0  0
  -43.2029  -18.9070   24.6826 O   0  0  0  0  0  0  0  0  0  0  0  0
  -41.6056  -19.0649   24.4636 P   0  0  2  0  0  0  0  0  0  0  0  0
  -40.9734  -19.0464   25.8469 O   0  0  0  0  0  0  0  0  0  0  0  0
  -41.2267  -17.8957   23.6135 O   0  0  0  0  0  0  0  0  0  0  0  0
  -41.3750  -20.4485   23.7928 O   0  0  0  0  0  0  0  0  0  0  0  0
  -48.4950  -17.5828   20.6649 H   0  0  0  0  0  0  0  0  0  0  0  0
  -47.0707  -17.3890   19.5877 H   0  0  0  0  0  0  0  0  0  0  0  0
  -47.9937  -18.9300   19.5877 H   0  0  0  0  0  0  0  0  0  0  0  0
  -48.3973  -21.3680   22.0506 H   0  0  0  0  0  0  0  0  0  0  0  0
  -47.0374  -21.4633   24.6357 H   0  0  0  0  0  0  0  0  0  0  0  0
  -43.9410  -17.7904   22.8639 H   0  0  0  0  0  0  0  0  0  0  0  0
  -44.6933  -20.2711   25.2854 H   0  0  0  0  0  0  0  0  0  0  0  0
  -43.5621  -20.8931   24.0519 H   0  0  0  0  0  0  0  0  0  0  0  0
  1  2  2  0
  1 10  1  0
  2  3  1  0
  2  4  1  0
  4  5  1  0
  4  6  2  0
  6  7  1  0
  6  9  1  0
  7  8  2  0
  9 10  2  0
  9 11  1  0
 11 12  1  0
 12 13  1  0
 13 14  2  0
 13 15  1  6
 13 16  1  0
  3 17  1  0
  3 18  1  0
  3 19  1  0
  5 20  1  0
  7 21  1  0
 10 22  1  0
 11 23  1  0
 11 24  1  0
M  CHG  2  15  -1  16  -1
M  END
>  <filename_input>  (21) 
7XG5_PLP_docked.sdf

>  <pdb_id>  (21) 
7XG5_PLP

>  <pose_rank>  (21) 
20

>  <num_atoms_heavy>  (21) 
16

>  <num_torsions>  (21) 
4

>  <pose>  (21) 
[-45.649812992160065, -17.941821733743062, 21.62610685140589, 0.11039595430922373, -1.482460715534538, -1.7776718820472883, 1.4917450975111752, -1.6508057156691833, 1.5482218530962761, -0.7353193277608918]

>  <energy>  (21) 
-119.14036200783195

>  <inter_energy>  (21) 
-113.6132983432267

>  <intra_energy>  (21) 
1.6272337829663837

>  <rmsd>  (21) 
12.6696

>  <sdf_rank>  (21) 
0

$$$$

     RDKit          3D

 24 24  0  0  0  0  0  0  0  0999 V2000
  -47.3632  -22.2912   10.1182 N   0  0  0  0  0  0  0  0  0  0  0  0
  -46.3822  -22.6255    9.2761 C   0  0  0  0  0  0  0  0  0  0  0  0
  -46.5184  -23.8831    8.4688 C   0  0  0  0  0  0  0  0  0  0  0  0
  -45.2405  -21.8104    9.1556 C   0  0  0  0  0  0  0  0  0  0  0  0
  -44.2607  -22.1704    8.2886 O   0  0  0  0  0  0  0  0  0  0  0  0
  -45.1480  -20.6440    9.9363 C   0  0  0  0  0  0  0  0  0  0  0  0
  -43.9667  -19.7875    9.8366 C   0  0  0  0  0  0  0  0  0  0  0  0
  -42.8258  -20.1892    9.8052 O   0  0  0  0  0  0  0  0  0  0  0  0
  -46.1900  -20.3279   10.8164 C   0  0  0  0  0  0  0  0  0  0  0  0
  -47.2669  -21.1703   10.8742 C   0  0  0  0  0  0  0  0  0  0  0  0
  -46.1249  -19.0888   11.6708 C   0  0  0  0  0  0  0  0  0  0  0  0
  -47.2647  -19.1123   12.5888 O   0  0  0  0  0  0  0  0  0  0  0  0
  -47.0531  -19.2802   14.1860 P   0  0  2  0  0  0  0  0  0  0  0  0
  -45.7624  -18.5538   14.5322 O   0  0  0  0  0  0  0  0  0  0  0  0
  -46.9884  -20.7575   14.4021 O   0  0  0  0  0  0  0  0  0  0  0  0
  -48.2576  -18.5819   14.8783 O   0  0  0  0  0  0  0  0  0  0  0  0
  -46.6118  -24.7450    9.1458 H   0  0  0  0  0  0  0  0  0  0  0  0
  -47.4146  -23.8163    7.8345 H   0  0  0  0  0  0  0  0  0  0  0  0
  -45.6288  -24.0098    7.8345 H   0  0  0  0  0  0  0  0  0  0  0  0
  -43.4524  -21.6069    8.1935 H   0  0  0  0  0  0  0  0  0  0  0  0
  -44.1268  -18.7003    9.7868 H   0  0  0  0  0  0  0  0  0  0  0  0
  -48.0892  -20.9276   11.5634 H   0  0  0  0  0  0  0  0  0  0  0  0
  -45.1852  -19.0785   12.2425 H   0  0  0  0  0  0  0  0  0  0  0  0
  -46.1600  -18.1878   11.0408 H   0  0  0  0  0  0  0  0  0  0  0  0
  1  2  2  0
  1 10  1  0
  2  3  1  0
  2  4  1  0
  4  5  1  0
  4  6  2  0
  6  7  1  0
  6  9  1  0
  7  8  2  0
  9 10  2  0
  9 11  1  0
 11 12  1  0
 12 13  1  0
 13 14  2  0
 13 15  1  6
 13 16  1  0
  3 17  1  0
  3 18  1  0
  3 19  1  0
  5 20  1  0
  7 21  1  0
 10 22  1  0
 11 23  1  0
 11 24  1  0
M  CHG  2  15  -1  16  -1
M  END
>  <filename_input>  (22) 
7XG5_PLP_docked.sdf

>  <pdb_id>  (22) 
7XG5_PLP

>  <pose_rank>  (22) 
21

>  <num_atoms_heavy>  (22) 
16

>  <num_torsions>  (22) 
4

>  <pose>  (22) 
[-47.363155007695035, -22.291163873887957, 10.118205062689418, 0.9679479523048075, 0.13898723060476023, 0.035119556132266666, -0.7470949589793804, 4.553696980027704, 5.59020027768029, 1.8260357073747222]

>  <energy>  (22) 
-144.55286408037952

>  <inter_energy>  (22) 
-101.08500241021348

>  <intra_energy>  (22) 
9.190259195895063

>  <rmsd>  (22) 
12.8114

>  <sdf_rank>  (22) 
0

$$$$

     RDKit          3D

 24 24  0  0  0  0  0  0  0  0999 V2000
  -47.0408  -20.5624   14.6325 N   0  0  0  0  0  0  0  0  0  0  0  0
  -47.2982  -21.5824   15.4551 C   0  0  0  0  0  0  0  0  0  0  0  0
  -47.4604  -21.3067   16.9212 C   0  0  0  0  0  0  0  0  0  0  0  0
  -47.4097  -22.8918   14.9500 C   0  0  0  0  0  0  0  0  0  0  0  0
  -47.6768  -23.9095   15.8069 O   0  0  0  0  0  0  0  0  0  0  0  0
  -47.2427  -23.1087   13.5703 C   0  0  0  0  0  0  0  0  0  0  0  0
  -47.3429  -24.4617   13.0239 C   0  0  0  0  0  0  0  0  0  0  0  0
  -48.2078  -24.8352   12.2647 O   0  0  0  0  0  0  0  0  0  0  0  0
  -46.9641  -22.0184   12.7372 C   0  0  0  0  0  0  0  0  0  0  0  0
  -46.8733  -20.7764   13.3047 C   0  0  0  0  0  0  0  0  0  0  0  0
  -46.7760  -22.2122   11.2551 C   0  0  0  0  0  0  0  0  0  0  0  0
  -46.0176  -21.0701   10.7426 O   0  0  0  0  0  0  0  0  0  0  0  0
  -46.0512  -20.6766    9.1716 P   0  0  2  0  0  0  0  0  0  0  0  0
  -46.2533  -19.1706    9.1050 O   0  0  0  0  0  0  0  0  0  0  0  0
  -47.1933  -21.4620    8.6131 O   0  0  0  0  0  0  0  0  0  0  0  0
  -44.6631  -21.0528    8.5807 O   0  0  0  0  0  0  0  0  0  0  0  0
  -46.9861  -22.1127   17.5005 H   0  0  0  0  0  0  0  0  0  0  0  0
  -46.9829  -20.3472   17.1689 H   0  0  0  0  0  0  0  0  0  0  0  0
  -48.5310  -21.2583   17.1689 H   0  0  0  0  0  0  0  0  0  0  0  0
  -47.7580  -24.8353   15.4658 H   0  0  0  0  0  0  0  0  0  0  0  0
  -46.5771  -25.1919   13.3247 H   0  0  0  0  0  0  0  0  0  0  0  0
  -46.6550  -19.9155   12.6557 H   0  0  0  0  0  0  0  0  0  0  0  0
  -46.2210  -23.1433   11.0678 H   0  0  0  0  0  0  0  0  0  0  0  0
  -47.7516  -22.2802   10.7516 H   0  0  0  0  0  0  0  0  0  0  0  0
  1  2  2  0
  1 10  1  0
  2  3  1  0
  2  4  1  0
  4  5  1  0
  4  6  2  0
  6  7  1  0
  6  9  1  0
  7  8  2  0
  9 10  2  0
  9 11  1  0
 11 12  1  0
 12 13  1  0
 13 14  2  0
 13 15  1  6
 13 16  1  0
  3 17  1  0
  3 18  1  0
  3 19  1  0
  5 20  1  0
  7 21  1  0
 10 22  1  0
 11 23  1  0
 11 24  1  0
M  CHG  2  15  -1  16  -1
M  END
>  <filename_input>  (23) 
7XG5_PLP_docked.sdf

>  <pdb_id>  (23) 
7XG5_PLP

>  <pose_rank>  (23) 
22

>  <num_atoms_heavy>  (23) 
16

>  <num_torsions>  (23) 
4

>  <pose>  (23) 
[-47.0408354914958, -20.562360052694075, 14.632503695533893, -0.9803503093869198, 0.704705875666788, -1.2829306674388878, 2.0147666087786367, -14.037445696342003, -5.445548479879466, -2.720852333756164]

>  <energy>  (23) 
-102.60183469266089

>  <inter_energy>  (23) 
-108.29412596954711

>  <intra_energy>  (23) 
5.960337991355869

>  <rmsd>  (23) 
12.1709

>  <sdf_rank>  (23) 
0

$$$$

     RDKit          3D

 24 24  0  0  0  0  0  0  0  0999 V2000
  -44.6597  -25.2640   26.0001 N   0  0  0  0  0  0  0  0  0  0  0  0
  -45.9808  -25.3917   25.8522 C   0  0  0  0  0  0  0  0  0  0  0  0
  -46.5496  -26.7518   25.5724 C   0  0  0  0  0  0  0  0  0  0  0  0
  -46.8193  -24.2653   25.9537 C   0  0  0  0  0  0  0  0  0  0  0  0
  -48.1586  -24.4236   25.8044 O   0  0  0  0  0  0  0  0  0  0  0  0
  -46.2454  -23.0068   26.2090 C   0  0  0  0  0  0  0  0  0  0  0  0
  -47.0950  -21.8204   26.3075 C   0  0  0  0  0  0  0  0  0  0  0  0
  -47.7183  -21.5001   27.2939 O   0  0  0  0  0  0  0  0  0  0  0  0
  -44.8559  -22.9065   26.3491 C   0  0  0  0  0  0  0  0  0  0  0  0
  -44.1098  -24.0484   26.2386 C   0  0  0  0  0  0  0  0  0  0  0  0
  -44.2050  -21.5751   26.6199 C   0  0  0  0  0  0  0  0  0  0  0  0
  -43.5475  -21.1347   25.3886 O   0  0  0  0  0  0  0  0  0  0  0  0
  -42.6294  -19.8004   25.3580 P   0  0  2  0  0  0  0  0  0  0  0  0
  -41.1956  -20.2540   25.5861 O   0  0  0  0  0  0  0  0  0  0  0  0
  -43.1723  -18.9468   26.4580 O   0  0  0  0  0  0  0  0  0  0  0  0
  -42.7720  -19.1849   23.9373 O   0  0  0  0  0  0  0  0  0  0  0  0
  -46.7633  -27.2625   26.5229 H   0  0  0  0  0  0  0  0  0  0  0  0
  -47.4799  -26.6483   24.9945 H   0  0  0  0  0  0  0  0  0  0  0  0
  -45.8228  -27.3415   24.9945 H   0  0  0  0  0  0  0  0  0  0  0  0
  -48.7604  -23.6405   25.8732 H   0  0  0  0  0  0  0  0  0  0  0  0
  -47.1730  -21.1730   25.4216 H   0  0  0  0  0  0  0  0  0  0  0  0
  -43.0176  -23.9767   26.3480 H   0  0  0  0  0  0  0  0  0  0  0  0
  -44.9673  -20.8409   26.9193 H   0  0  0  0  0  0  0  0  0  0  0  0
  -43.4705  -21.6672   27.4336 H   0  0  0  0  0  0  0  0  0  0  0  0
  1  2  2  0
  1 10  1  0
  2  3  1  0
  2  4  1  0
  4  5  1  0
  4  6  2  0
  6  7  1  0
  6  9  1  0
  7  8  2  0
  9 10  2  0
  9 11  1  0
 11 12  1  0
 12 13  1  0
 13 14  2  0
 13 15  1  1
 13 16  1  0
  3 17  1  0
  3 18  1  0
  3 19  1  0
  5 20  1  0
  7 21  1  0
 10 22  1  0
 11 23  1  0
 11 24  1  0
M  CHG  2  15  -1  16  -1
M  END
>  <filename_input>  (24) 
7XG5_PLP_docked.sdf

>  <pdb_id>  (24) 
7XG5_PLP

>  <pose_rank>  (24) 
23

>  <num_atoms_heavy>  (24) 
16

>  <num_torsions>  (24) 
4

>  <pose>  (24) 
[-44.65972792853198, -25.264018774894332, 26.00012893876697, 0.8507865656593983, 2.7239170271582447, -0.33499473818746694, 1.4344067584380145, -0.5537034643233439, -5.709273871354673, -3.4191082950224954]

>  <energy>  (24) 
-108.39315480648874

>  <inter_energy>  (24) 
-97.79701524256586

>  <intra_energy>  (24) 
0.2544886887411978

>  <rmsd>  (24) 
12.363

>  <sdf_rank>  (24) 
0

$$$$

     RDKit          3D

 24 24  0  0  0  0  0  0  0  0999 V2000
  -40.9772  -26.3805   26.2736 N   0  0  0  0  0  0  0  0  0  0  0  0
  -40.0748  -27.2181   26.7907 C   0  0  0  0  0  0  0  0  0  0  0  0
  -40.5163  -28.5906   27.2070 C   0  0  0  0  0  0  0  0  0  0  0  0
  -38.7352  -26.8131   26.9441 C   0  0  0  0  0  0  0  0  0  0  0  0
  -37.8374  -27.6856   27.4675 O   0  0  0  0  0  0  0  0  0  0  0  0
  -38.3641  -25.5152   26.5489 C   0  0  0  0  0  0  0  0  0  0  0  0
  -36.9807  -25.0680   26.7090 C   0  0  0  0  0  0  0  0  0  0  0  0
  -36.4973  -24.6848   27.7499 O   0  0  0  0  0  0  0  0  0  0  0  0
  -39.3371  -24.6589   26.0195 C   0  0  0  0  0  0  0  0  0  0  0  0
  -40.6172  -25.1281   25.9008 C   0  0  0  0  0  0  0  0  0  0  0  0
  -38.9779  -23.2609   25.5881 C   0  0  0  0  0  0  0  0  0  0  0  0
  -40.1975  -22.4521   25.6150 O   0  0  0  0  0  0  0  0  0  0  0  0
  -40.2578  -21.0505   26.4248 P   0  0  2  0  0  0  0  0  0  0  0  0
  -39.1003  -21.0683   27.4114 O   0  0  0  0  0  0  0  0  0  0  0  0
  -41.6029  -21.0516   27.0758 O   0  0  0  0  0  0  0  0  0  0  0  0
  -40.0496  -19.9158   25.3824 O   0  0  0  0  0  0  0  0  0  0  0  0
  -40.5360  -28.6520   28.3051 H   0  0  0  0  0  0  0  0  0  0  0  0
  -41.5232  -28.7879   26.8106 H   0  0  0  0  0  0  0  0  0  0  0  0
  -39.8132  -29.3379   26.8106 H   0  0  0  0  0  0  0  0  0  0  0  0
  -36.8921  -27.4145   27.5812 H   0  0  0  0  0  0  0  0  0  0  0  0
  -36.3337  -25.0809   25.8195 H   0  0  0  0  0  0  0  0  0  0  0  0
  -41.3865  -24.4606   25.4853 H   0  0  0  0  0  0  0  0  0  0  0  0
  -38.2335  -22.8370   26.2782 H   0  0  0  0  0  0  0  0  0  0  0  0
  -38.5486  -23.2718   24.5754 H   0  0  0  0  0  0  0  0  0  0  0  0
  1  2  2  0
  1 10  1  0
  2  3  1  0
  2  4  1  0
  4  5  1  0
  4  6  2  0
  6  7  1  0
  6  9  1  0
  7  8  2  0
  9 10  2  0
  9 11  1  0
 11 12  1  0
 12 13  1  0
 13 14  2  0
 13 15  1  1
 13 16  1  0
  3 17  1  0
  3 18  1  0
  3 19  1  0
  5 20  1  0
  7 21  1  0
 10 22  1  0
 11 23  1  0
 11 24  1  0
M  CHG  2  15  -1  16  -1
M  END
>  <filename_input>  (25) 
7XG5_PLP_docked.sdf

>  <pdb_id>  (25) 
7XG5_PLP

>  <pose_rank>  (25) 
24

>  <num_atoms_heavy>  (25) 
16

>  <num_torsions>  (25) 
4

>  <pose>  (25) 
[-40.97719903742901, -26.38047903778354, 26.27360478745069, 0.24146763633087348, 5.709851552240004, -0.0790575840549405, -1.3690719115937158, -1.4421363348503013, -0.4488493723125244, 0.8965024549118111]

>  <energy>  (25) 
-127.48692486484265

>  <inter_energy>  (25) 
-111.88842955206955

>  <intra_energy>  (25) 
0.3152064537707102

>  <rmsd>  (25) 
9.89872

>  <sdf_rank>  (25) 
0

$$$$

     RDKit          3D

 24 24  0  0  0  0  0  0  0  0999 V2000
  -40.4990  -29.7940   18.4390 N   0  0  0  0  0  0  0  0  0  0  0  0
  -39.4720  -30.6450   18.3730 C   0  0  0  0  0  0  0  0  0  0  0  0
  -39.6400  -32.0270   18.9330 C   0  0  0  0  0  0  0  0  0  0  0  0
  -38.2540  -30.2450   17.7910 C   0  0  0  0  0  0  0  0  0  0  0  0
  -37.2280  -31.1310   17.7320 O   0  0  0  0  0  0  0  0  0  0  0  0
  -38.1350  -28.9380   17.2850 C   0  0  0  0  0  0  0  0  0  0  0  0
  -36.8760  -28.4960   16.6860 C   0  0  0  0  0  0  0  0  0  0  0  0
  -35.8790  -29.1760   16.5990 O   0  0  0  0  0  0  0  0  0  0  0  0
  -39.2280  -28.0680   17.3790 C   0  0  0  0  0  0  0  0  0  0  0  0
  -40.3780  -28.5330   17.9570 C   0  0  0  0  0  0  0  0  0  0  0  0
  -39.1370  -26.6600   16.8510 C   0  0  0  0  0  0  0  0  0  0  0  0
  -38.3170  -25.8810   17.7800 O   0  0  0  0  0  0  0  0  0  0  0  0
  -37.4740  -24.5920   17.2780 P   0  0  2  0  0  0  0  0  0  0  0  0
  -36.3450  -25.1230   16.4080 O   0  0  0  0  0  0  0  0  0  0  0  0
  -37.0060  -23.9370   18.5370 O   0  0  0  0  0  0  0  0  0  0  0  0
  -38.4400  -23.7240   16.4230 O   0  0  0  0  0  0  0  0  0  0  0  0
  -39.6343  -31.9805   20.0320 H   0  0  0  0  0  0  0  0  0  0  0  0
  -40.5960  -32.4484   18.5887 H   0  0  0  0  0  0  0  0  0  0  0  0
  -38.8128  -32.6652   18.5887 H   0  0  0  0  0  0  0  0  0  0  0  0
  -36.3658  -30.8636   17.3256 H   0  0  0  0  0  0  0  0  0  0  0  0
  -36.8324  -27.4722   16.2860 H   0  0  0  0  0  0  0  0  0  0  0  0
  -41.2406  -27.8547   18.0337 H   0  0  0  0  0  0  0  0  0  0  0  0
  -38.6707  -26.6643   15.8547 H   0  0  0  0  0  0  0  0  0  0  0  0
  -40.1408  -26.2185   16.7646 H   0  0  0  0  0  0  0  0  0  0  0  0
  1  2  2  0
  1 10  1  0
  2  3  1  0
  2  4  1  0
  4  5  1  0
  4  6  2  0
  6  7  1  0
  6  9  1  0
  7  8  2  0
  9 10  2  0
  9 11  1  0
 11 12  1  0
 12 13  1  0
 13 14  2  0
 13 15  1  1
 13 16  1  0
  3 17  1  0
  3 18  1  0
  3 19  1  0
  5 20  1  0
  7 21  1  0
 10 22  1  0
 11 23  1  0
 11 24  1  0
M  CHG  2  15  -1  16  -1
M  END
>  <filename_input>  (26) 
7XG5_PLP_docked.sdf

>  <pdb_id>  (26) 
7XG5_PLP

>  <pose_rank>  (26) 
25

>  <num_atoms_heavy>  (26) 
16

>  <num_torsions>  (26) 
4

>  <pose>  (26) 
[-40.499, -29.794, 18.439, 1e-06, 1e-06, 1e-06, 0.0, 0.0, 0.0, 0.0]

>  <energy>  (26) 
-749.2561588124046

>  <inter_energy>  (26) 
-792.5150802565685

>  <intra_energy>  (26) 
23.91800426170071

>  <rmsd>  (26) 
0.0

>  <sdf_rank>  (26) 
0

$$$$
