
     RDKit          3D

 42 43  0  0  0  0  0  0  0  0999 V2000
   -3.4060  -16.8285    2.2067 C   0  0  0  0  0  0  0  0  0  0  0  0
   -3.1197  -17.6499    1.1435 C   0  0  0  0  0  0  0  0  0  0  0  0
   -2.7232  -18.9532    1.4069 C   0  0  0  0  0  0  0  0  0  0  0  0
   -2.6475  -19.4125    2.6367 N   0  0  0  0  0  0  0  0  0  0  0  0
   -3.3234  -17.2829    3.4457 N   0  0  0  0  0  0  0  0  0  0  0  0
   -2.6624  -11.3435   -0.9876 C   0  0  0  0  0  0  0  0  0  0  0  0
   -2.1733  -12.7371   -0.5867 C   0  0  0  0  0  0  0  0  0  0  0  0
   -3.0973  -13.3041    0.4869 C   0  0  0  0  0  0  0  0  0  0  0  0
   -2.2610  -13.4703    1.7562 C   0  0  0  0  0  0  0  0  0  0  0  0
   -2.9629  -14.3852    2.7564 C   0  0  0  0  0  0  0  0  0  0  0  0
   -3.8522  -15.3793    2.0107 C   0  0  0  0  0  0  0  0  0  0  0  0
   -2.9540  -18.5473    3.5903 C   0  0  0  0  0  0  0  0  0  0  0  0
   -2.8649  -19.0106    4.9598 N   0  0  0  0  0  0  0  0  0  0  0  0
   -2.3957  -19.8581    0.3408 N   0  0  0  0  0  0  0  0  0  0  0  0
   -3.1730  -17.1774   -0.3129 C   0  0  0  0  0  0  0  0  0  0  0  0
   -4.2573  -17.3215   -1.0712 C   0  0  0  0  0  0  0  0  0  0  0  0
   -4.2125  -16.8315   -2.5151 C   0  0  0  0  0  0  0  0  0  0  0  0
   -3.1044  -16.2933   -2.9983 C   0  0  0  0  0  0  0  0  0  0  0  0
   -1.8730  -16.1431   -2.1242 C   0  0  0  0  0  0  0  0  0  0  0  0
   -1.9074  -16.5595   -0.8775 C   0  0  0  0  0  0  0  0  0  0  0  0
   -2.8696  -10.7533   -0.0828 H   0  0  0  0  0  0  0  0  0  0  0  0
   -1.8872  -10.8403   -1.5841 H   0  0  0  0  0  0  0  0  0  0  0  0
   -3.5821  -11.4353   -1.5841 H   0  0  0  0  0  0  0  0  0  0  0  0
   -2.1829  -13.3975   -1.4663 H   0  0  0  0  0  0  0  0  0  0  0  0
   -1.1481  -12.6698   -0.1937 H   0  0  0  0  0  0  0  0  0  0  0  0
   -3.9309  -12.6107    0.6722 H   0  0  0  0  0  0  0  0  0  0  0  0
   -3.5230  -14.2673    0.1690 H   0  0  0  0  0  0  0  0  0  0  0  0
   -1.2870  -13.9071    1.4908 H   0  0  0  0  0  0  0  0  0  0  0  0
   -2.1261  -12.4818    2.2194 H   0  0  0  0  0  0  0  0  0  0  0  0
   -2.2097  -14.9349    3.3399 H   0  0  0  0  0  0  0  0  0  0  0  0
   -3.5831  -13.7779    3.4321 H   0  0  0  0  0  0  0  0  0  0  0  0
   -3.8210  -15.1432    0.9367 H   0  0  0  0  0  0  0  0  0  0  0  0
   -4.8701  -15.2859    2.4169 H   0  0  0  0  0  0  0  0  0  0  0  0
   -3.0938  -18.3725    5.7353 H   0  0  0  0  0  0  0  0  0  0  0  0
   -2.5727  -19.9781    5.1582 H   0  0  0  0  0  0  0  0  0  0  0  0
   -2.1032  -20.8222    0.5552 H   0  0  0  0  0  0  0  0  0  0  0  0
   -2.4532  -19.5431   -0.6381 H   0  0  0  0  0  0  0  0  0  0  0  0
   -5.1682  -17.7850   -0.6645 H   0  0  0  0  0  0  0  0  0  0  0  0
   -5.1022  -16.9257   -3.1552 H   0  0  0  0  0  0  0  0  0  0  0  0
   -3.0755  -15.9516   -4.0435 H   0  0  0  0  0  0  0  0  0  0  0  0
   -0.9575  -15.6888   -2.5310 H   0  0  0  0  0  0  0  0  0  0  0  0
   -1.0155  -16.4595   -0.2415 H   0  0  0  0  0  0  0  0  0  0  0  0
  1  2  2  0
  1  5  1  0
  1 11  1  0
  2  3  1  0
  2 15  1  0
  3  4  2  0
  3 14  1  0
  4 12  1  0
  5 12  2  0
  6  7  1  0
  7  8  1  0
  8  9  1  0
  9 10  1  0
 10 11  1  0
 12 13  1  0
 15 16  2  0
 15 20  1  0
 16 17  1  0
 17 18  2  0
 18 19  1  0
 19 20  2  0
  6 21  1  0
  6 22  1  0
  6 23  1  0
  7 24  1  0
  7 25  1  0
  8 26  1  0
  8 27  1  0
  9 28  1  0
  9 29  1  0
 10 30  1  0
 10 31  1  0
 11 32  1  0
 11 33  1  0
 13 34  1  0
 13 35  1  0
 14 36  1  0
 14 37  1  0
 16 38  1  0
 17 39  1  0
 18 40  1  0
 19 41  1  0
 20 42  1  0
M  END
>  <filename_input>  (1) 
7XI7_4RI_docked.sdf

>  <pdb_id>  (1) 
7XI7_4RI

>  <pose_rank>  (1) 
0

>  <num_atoms_heavy>  (1) 
20

>  <num_torsions>  (1) 
6

>  <pose>  (1) 
[-3.4059851307709064, -16.828531078899633, 2.206731366076656, 2.057149867711916, 4.4062992809554675, 3.8906384311523685, -0.30539798880067354, -0.09786663532111822, -5.501878700576785, -0.7371623254346028, 0.3372299429633009, 0.9949028586809675]

>  <energy>  (1) 
-1666.9060307649509

>  <inter_energy>  (1) 
-1663.5034047630113

>  <intra_energy>  (1) 
3.8164451176173753

>  <rmsd>  (1) 
0.706619

>  <sdf_rank>  (1) 
0

$$$$

     RDKit          3D

 42 43  0  0  0  0  0  0  0  0999 V2000
   -3.5299  -16.9507    2.2771 C   0  0  0  0  0  0  0  0  0  0  0  0
   -3.2553  -17.7312    1.1805 C   0  0  0  0  0  0  0  0  0  0  0  0
   -2.7894  -19.0210    1.3910 C   0  0  0  0  0  0  0  0  0  0  0  0
   -2.6379  -19.5070    2.6034 N   0  0  0  0  0  0  0  0  0  0  0  0
   -3.3713  -17.4316    3.4986 N   0  0  0  0  0  0  0  0  0  0  0  0
   -6.9970  -12.8722    4.1466 C   0  0  0  0  0  0  0  0  0  0  0  0
   -5.5635  -12.6373    3.6649 C   0  0  0  0  0  0  0  0  0  0  0  0
   -4.7100  -13.8518    4.0176 C   0  0  0  0  0  0  0  0  0  0  0  0
   -3.2961  -13.5693    3.5086 C   0  0  0  0  0  0  0  0  0  0  0  0
   -2.9491  -14.4751    2.3299 C   0  0  0  0  0  0  0  0  0  0  0  0
   -4.0489  -15.5190    2.1401 C   0  0  0  0  0  0  0  0  0  0  0  0
   -2.9395  -18.6809    3.5925 C   0  0  0  0  0  0  0  0  0  0  0  0
   -2.7681  -19.1737    4.9438 N   0  0  0  0  0  0  0  0  0  0  0  0
   -2.4700  -19.8830    0.2875 N   0  0  0  0  0  0  0  0  0  0  0  0
   -3.3953  -17.2253   -0.2589 C   0  0  0  0  0  0  0  0  0  0  0  0
   -4.5616  -17.2090   -0.8998 C   0  0  0  0  0  0  0  0  0  0  0  0
   -4.6014  -16.6991   -2.3369 C   0  0  0  0  0  0  0  0  0  0  0  0
   -3.4872  -16.3020   -2.9303 C   0  0  0  0  0  0  0  0  0  0  0  0
   -2.1631  -16.3341   -2.1896 C   0  0  0  0  0  0  0  0  0  0  0  0
   -2.1238  -16.7683   -0.9491 C   0  0  0  0  0  0  0  0  0  0  0  0
   -7.0184  -12.8757    5.2463 H   0  0  0  0  0  0  0  0  0  0  0  0
   -7.6467  -12.0684    3.7697 H   0  0  0  0  0  0  0  0  0  0  0  0
   -7.3564  -13.8411    3.7697 H   0  0  0  0  0  0  0  0  0  0  0  0
   -5.5612  -12.4902    2.5748 H   0  0  0  0  0  0  0  0  0  0  0  0
   -5.1517  -11.7420    4.1536 H   0  0  0  0  0  0  0  0  0  0  0  0
   -4.6963  -14.0000    5.1075 H   0  0  0  0  0  0  0  0  0  0  0  0
   -5.1173  -14.7642    3.5574 H   0  0  0  0  0  0  0  0  0  0  0  0
   -3.2326  -12.5194    3.1866 H   0  0  0  0  0  0  0  0  0  0  0  0
   -2.5839  -13.7657    4.3236 H   0  0  0  0  0  0  0  0  0  0  0  0
   -2.8596  -13.8684    1.4167 H   0  0  0  0  0  0  0  0  0  0  0  0
   -1.9950  -14.9842    2.5307 H   0  0  0  0  0  0  0  0  0  0  0  0
   -4.4823  -15.3958    1.1366 H   0  0  0  0  0  0  0  0  0  0  0  0
   -4.7995  -15.3596    2.9282 H   0  0  0  0  0  0  0  0  0  0  0  0
   -2.9902  -18.5664    5.7455 H   0  0  0  0  0  0  0  0  0  0  0  0
   -2.4242  -20.1315    5.1030 H   0  0  0  0  0  0  0  0  0  0  0  0
   -2.1253  -20.8377    0.4627 H   0  0  0  0  0  0  0  0  0  0  0  0
   -2.5857  -19.5466   -0.6791 H   0  0  0  0  0  0  0  0  0  0  0  0
   -5.4793  -17.5565   -0.4027 H   0  0  0  0  0  0  0  0  0  0  0  0
   -5.5570  -16.6615   -2.8805 H   0  0  0  0  0  0  0  0  0  0  0  0
   -3.5212  -15.9452   -3.9702 H   0  0  0  0  0  0  0  0  0  0  0  0
   -1.2421  -15.9962   -2.6873 H   0  0  0  0  0  0  0  0  0  0  0  0
   -1.1656  -16.8004   -0.4098 H   0  0  0  0  0  0  0  0  0  0  0  0
  1  2  2  0
  1  5  1  0
  1 11  1  0
  2  3  1  0
  2 15  1  0
  3  4  2  0
  3 14  1  0
  4 12  1  0
  5 12  2  0
  6  7  1  0
  7  8  1  0
  8  9  1  0
  9 10  1  0
 10 11  1  0
 12 13  1  0
 15 16  2  0
 15 20  1  0
 16 17  1  0
 17 18  2  0
 18 19  1  0
 19 20  2  0
  6 21  1  0
  6 22  1  0
  6 23  1  0
  7 24  1  0
  7 25  1  0
  8 26  1  0
  8 27  1  0
  9 28  1  0
  9 29  1  0
 10 30  1  0
 10 31  1  0
 11 32  1  0
 11 33  1  0
 13 34  1  0
 13 35  1  0
 14 36  1  0
 14 37  1  0
 16 38  1  0
 17 39  1  0
 18 40  1  0
 19 41  1  0
 20 42  1  0
M  END
>  <filename_input>  (2) 
7XI7_4RI_docked.sdf

>  <pdb_id>  (2) 
7XI7_4RI

>  <pose_rank>  (2) 
1

>  <num_atoms_heavy>  (2) 
20

>  <num_torsions>  (2) 
6

>  <pose>  (2) 
[-3.5298805976528276, -16.95067070523561, 2.277124034398401, 3.4651690168824367, 2.345592869044593, 4.706197485784703, -0.11629719583200548, -12.244665125027312, 2.937118055382523, -1.366815779710609, 1.2634422163255399, -0.12937229797436922]

>  <energy>  (2) 
-1460.559787577961

>  <inter_energy>  (2) 
-1461.2910334544506

>  <intra_energy>  (2) 
7.385840819355783

>  <rmsd>  (2) 
2.57765

>  <sdf_rank>  (2) 
0

$$$$

     RDKit          3D

 42 43  0  0  0  0  0  0  0  0999 V2000
   -3.2410  -16.9005    2.1295 C   0  0  0  0  0  0  0  0  0  0  0  0
   -2.9797  -17.7226    1.0604 C   0  0  0  0  0  0  0  0  0  0  0  0
   -2.6165  -19.0373    1.3147 C   0  0  0  0  0  0  0  0  0  0  0  0
   -2.5488  -19.5059    2.5415 N   0  0  0  0  0  0  0  0  0  0  0  0
   -3.1663  -17.3643    3.3655 N   0  0  0  0  0  0  0  0  0  0  0  0
   -6.1023  -19.2731   -0.0213 C   0  0  0  0  0  0  0  0  0  0  0  0
   -7.0169  -18.0678    0.2083 C   0  0  0  0  0  0  0  0  0  0  0  0
   -6.5162  -17.2801    1.4152 C   0  0  0  0  0  0  0  0  0  0  0  0
   -5.8325  -16.0225    0.8777 C   0  0  0  0  0  0  0  0  0  0  0  0
   -5.1638  -15.2404    2.0052 C   0  0  0  0  0  0  0  0  0  0  0  0
   -3.6499  -15.4389    1.9435 C   0  0  0  0  0  0  0  0  0  0  0  0
   -2.8294  -18.6387    3.5012 C   0  0  0  0  0  0  0  0  0  0  0  0
   -2.7480  -19.1125    4.8677 N   0  0  0  0  0  0  0  0  0  0  0  0
   -2.3161  -19.9441    0.2422 N   0  0  0  0  0  0  0  0  0  0  0  0
   -3.0254  -17.2401   -0.3930 C   0  0  0  0  0  0  0  0  0  0  0  0
   -3.9531  -17.6527   -1.2536 C   0  0  0  0  0  0  0  0  0  0  0  0
   -3.9110  -17.1270   -2.6849 C   0  0  0  0  0  0  0  0  0  0  0  0
   -2.9536  -16.2925   -3.0565 C   0  0  0  0  0  0  0  0  0  0  0  0
   -1.8975  -15.8372   -2.0664 C   0  0  0  0  0  0  0  0  0  0  0  0
   -1.9317  -16.2836   -0.8301 C   0  0  0  0  0  0  0  0  0  0  0  0
   -5.7891  -19.6858    0.9491 H   0  0  0  0  0  0  0  0  0  0  0  0
   -6.6457  -20.0429   -0.5890 H   0  0  0  0  0  0  0  0  0  0  0  0
   -5.2147  -18.9570   -0.5890 H   0  0  0  0  0  0  0  0  0  0  0  0
   -7.0056  -17.4225   -0.6825 H   0  0  0  0  0  0  0  0  0  0  0  0
   -8.0445  -18.4138    0.3935 H   0  0  0  0  0  0  0  0  0  0  0  0
   -7.3615  -17.0030    2.0623 H   0  0  0  0  0  0  0  0  0  0  0  0
   -5.8159  -17.8819    2.0130 H   0  0  0  0  0  0  0  0  0  0  0  0
   -5.0700  -16.3145    0.1406 H   0  0  0  0  0  0  0  0  0  0  0  0
   -6.5944  -15.3816    0.4099 H   0  0  0  0  0  0  0  0  0  0  0  0
   -5.3969  -14.1709    1.8964 H   0  0  0  0  0  0  0  0  0  0  0  0
   -5.5394  -15.6042    2.9730 H   0  0  0  0  0  0  0  0  0  0  0  0
   -3.1831  -14.8386    2.7383 H   0  0  0  0  0  0  0  0  0  0  0  0
   -3.3125  -15.1227    0.9454 H   0  0  0  0  0  0  0  0  0  0  0  0
   -2.9576  -18.4733    5.6477 H   0  0  0  0  0  0  0  0  0  0  0  0
   -2.4804  -20.0885    5.0593 H   0  0  0  0  0  0  0  0  0  0  0  0
   -2.0482  -20.9167    0.4498 H   0  0  0  0  0  0  0  0  0  0  0  0
   -2.3686  -19.6217   -0.7347 H   0  0  0  0  0  0  0  0  0  0  0  0
   -4.7352  -18.3592   -0.9387 H   0  0  0  0  0  0  0  0  0  0  0  0
   -4.6771  -17.4419   -3.4088 H   0  0  0  0  0  0  0  0  0  0  0  0
   -2.9229  -15.9254   -4.0930 H   0  0  0  0  0  0  0  0  0  0  0  0
   -1.1085  -15.1383   -2.3809 H   0  0  0  0  0  0  0  0  0  0  0  0
   -1.1647  -15.9624   -0.1100 H   0  0  0  0  0  0  0  0  0  0  0  0
  1  2  2  0
  1  5  1  0
  1 11  1  0
  2  3  1  0
  2 15  1  0
  3  4  2  0
  3 14  1  0
  4 12  1  0
  5 12  2  0
  6  7  1  0
  7  8  1  0
  8  9  1  0
  9 10  1  0
 10 11  1  0
 12 13  1  0
 15 16  2  0
 15 20  1  0
 16 17  1  0
 17 18  2  0
 18 19  1  0
 19 20  2  0
  6 21  1  0
  6 22  1  0
  6 23  1  0
  7 24  1  0
  7 25  1  0
  8 26  1  0
  8 27  1  0
  9 28  1  0
  9 29  1  0
 10 30  1  0
 10 31  1  0
 11 32  1  0
 11 33  1  0
 13 34  1  0
 13 35  1  0
 14 36  1  0
 14 37  1  0
 16 38  1  0
 17 39  1  0
 18 40  1  0
 19 41  1  0
 20 42  1  0
M  END
>  <filename_input>  (3) 
7XI7_4RI_docked.sdf

>  <pdb_id>  (3) 
7XI7_4RI

>  <pose_rank>  (3) 
2

>  <num_atoms_heavy>  (3) 
20

>  <num_torsions>  (3) 
6

>  <pose>  (3) 
[-3.2409888288279403, -16.90048605616748, 2.1294726441726493, 1.119986583474862, 3.0836360676840346, 5.274518037536059, -0.6256487672492373, -2.5187308578773093, 3.954361298948384, 6.8858431802481155, 6.444778887770294, 4.848158114547064]

>  <energy>  (3) 
-1353.7760956478787

>  <inter_energy>  (3) 
-1443.5297380930504

>  <intra_energy>  (3) 
69.08661705257722

>  <rmsd>  (3) 
3.13648

>  <sdf_rank>  (3) 
0

$$$$

     RDKit          3D

 42 43  0  0  0  0  0  0  0  0999 V2000
   -3.2846  -16.8214    1.8877 C   0  0  0  0  0  0  0  0  0  0  0  0
   -3.0534  -17.7402    0.8929 C   0  0  0  0  0  0  0  0  0  0  0  0
   -2.7477  -19.0431    1.2588 C   0  0  0  0  0  0  0  0  0  0  0  0
   -2.7059  -19.4101    2.5208 N   0  0  0  0  0  0  0  0  0  0  0  0
   -3.2357  -17.1832    3.1586 N   0  0  0  0  0  0  0  0  0  0  0  0
   -6.8925  -12.6311    4.6439 C   0  0  0  0  0  0  0  0  0  0  0  0
   -5.8196  -13.6995    4.4211 C   0  0  0  0  0  0  0  0  0  0  0  0
   -6.4917  -15.0128    4.0320 C   0  0  0  0  0  0  0  0  0  0  0  0
   -5.4851  -15.8003    3.1928 C   0  0  0  0  0  0  0  0  0  0  0  0
   -5.0667  -15.0082    1.9568 C   0  0  0  0  0  0  0  0  0  0  0  0
   -3.6300  -15.3646    1.5774 C   0  0  0  0  0  0  0  0  0  0  0  0
   -2.9541  -18.4548    3.4027 C   0  0  0  0  0  0  0  0  0  0  0  0
   -2.8996  -18.8159    4.8044 N   0  0  0  0  0  0  0  0  0  0  0  0
   -2.4810  -20.0480    0.2679 N   0  0  0  0  0  0  0  0  0  0  0  0
   -3.0714  -17.3791   -0.5959 C   0  0  0  0  0  0  0  0  0  0  0  0
   -2.0261  -16.8302   -1.2103 C   0  0  0  0  0  0  0  0  0  0  0  0
   -2.1414  -16.4931   -2.6935 C   0  0  0  0  0  0  0  0  0  0  0  0
   -3.2713  -16.7288   -3.3408 C   0  0  0  0  0  0  0  0  0  0  0  0
   -4.4577  -17.3476   -2.6250 C   0  0  0  0  0  0  0  0  0  0  0  0
   -4.3624  -17.6443   -1.3476 C   0  0  0  0  0  0  0  0  0  0  0  0
   -7.0426  -12.4817    5.7233 H   0  0  0  0  0  0  0  0  0  0  0  0
   -6.5694  -11.6855    4.1842 H   0  0  0  0  0  0  0  0  0  0  0  0
   -7.8368  -12.9584    4.1842 H   0  0  0  0  0  0  0  0  0  0  0  0
   -5.1435  -13.3792    3.6146 H   0  0  0  0  0  0  0  0  0  0  0  0
   -5.2411  -13.8405    5.3460 H   0  0  0  0  0  0  0  0  0  0  0  0
   -6.7583  -15.5823    4.9346 H   0  0  0  0  0  0  0  0  0  0  0  0
   -7.4154  -14.8272    3.4642 H   0  0  0  0  0  0  0  0  0  0  0  0
   -4.5947  -16.0115    3.8033 H   0  0  0  0  0  0  0  0  0  0  0  0
   -5.9584  -16.7377    2.8653 H   0  0  0  0  0  0  0  0  0  0  0  0
   -5.7374  -15.2547    1.1204 H   0  0  0  0  0  0  0  0  0  0  0  0
   -5.1290  -13.9320    2.1759 H   0  0  0  0  0  0  0  0  0  0  0  0
   -2.9451  -14.7126    2.1394 H   0  0  0  0  0  0  0  0  0  0  0  0
   -3.5265  -15.2214    0.4917 H   0  0  0  0  0  0  0  0  0  0  0  0
   -3.0856  -18.1056    5.5268 H   0  0  0  0  0  0  0  0  0  0  0  0
   -2.6747  -19.7829    5.0788 H   0  0  0  0  0  0  0  0  0  0  0  0
   -2.2557  -21.0103    0.5580 H   0  0  0  0  0  0  0  0  0  0  0  0
   -2.5149  -19.8064   -0.7328 H   0  0  0  0  0  0  0  0  0  0  0  0
   -1.0969  -16.6235   -0.6591 H   0  0  0  0  0  0  0  0  0  0  0  0
   -1.2847  -16.0538   -3.2255 H   0  0  0  0  0  0  0  0  0  0  0  0
   -3.3513  -16.4737   -4.4079 H   0  0  0  0  0  0  0  0  0  0  0  0
   -5.3915  -17.5465   -3.1713 H   0  0  0  0  0  0  0  0  0  0  0  0
   -5.2216  -18.0865   -0.8221 H   0  0  0  0  0  0  0  0  0  0  0  0
  1  2  2  0
  1  5  1  0
  1 11  1  0
  2  3  1  0
  2 15  1  0
  3  4  2  0
  3 14  1  0
  4 12  1  0
  5 12  2  0
  6  7  1  0
  7  8  1  0
  8  9  1  0
  9 10  1  0
 10 11  1  0
 12 13  1  0
 15 16  2  0
 15 20  1  0
 16 17  1  0
 17 18  2  0
 18 19  1  0
 19 20  2  0
  6 21  1  0
  6 22  1  0
  6 23  1  0
  7 24  1  0
  7 25  1  0
  8 26  1  0
  8 27  1  0
  9 28  1  0
  9 29  1  0
 10 30  1  0
 10 31  1  0
 11 32  1  0
 11 33  1  0
 13 34  1  0
 13 35  1  0
 14 36  1  0
 14 37  1  0
 16 38  1  0
 17 39  1  0
 18 40  1  0
 19 41  1  0
 20 42  1  0
M  END
>  <filename_input>  (4) 
7XI7_4RI_docked.sdf

>  <pdb_id>  (4) 
7XI7_4RI

>  <pose_rank>  (4) 
3

>  <num_atoms_heavy>  (4) 
20

>  <num_torsions>  (4) 
6

>  <pose>  (4) 
[-3.2846097779732144, -16.821389786711833, 1.8876981407071538, 4.0353358487481215, 1.8512220607782588, 4.235310959268121, -3.52835539942973, -2.2593546243760407, -0.6718140380430508, 1.3707566167795096, 2.17418976467433, -0.5942989569611073]

>  <energy>  (4) 
-1289.6241513115733

>  <inter_energy>  (4) 
-1337.614568137919

>  <intra_energy>  (4) 
38.59765898005921

>  <rmsd>  (4) 
3.0021

>  <sdf_rank>  (4) 
0

$$$$

     RDKit          3D

 42 43  0  0  0  0  0  0  0  0999 V2000
   -3.4820  -16.9100    2.0985 C   0  0  0  0  0  0  0  0  0  0  0  0
   -3.1674  -17.7473    1.0558 C   0  0  0  0  0  0  0  0  0  0  0  0
   -2.7175  -19.0260    1.3515 C   0  0  0  0  0  0  0  0  0  0  0  0
   -2.6180  -19.4489    2.5927 N   0  0  0  0  0  0  0  0  0  0  0  0
   -3.3759  -17.3275    3.3486 N   0  0  0  0  0  0  0  0  0  0  0  0
   -3.2988  -11.9369   -0.9206 C   0  0  0  0  0  0  0  0  0  0  0  0
   -3.6821  -12.9180   -2.0309 C   0  0  0  0  0  0  0  0  0  0  0  0
   -4.7370  -13.8859   -1.5037 C   0  0  0  0  0  0  0  0  0  0  0  0
   -4.5949  -13.9185    0.0184 C   0  0  0  0  0  0  0  0  0  0  0  0
   -4.7510  -15.3406    0.5509 C   0  0  0  0  0  0  0  0  0  0  0  0
   -3.9872  -15.4856    1.8665 C   0  0  0  0  0  0  0  0  0  0  0  0
   -2.9550  -18.5716    3.5246 C   0  0  0  0  0  0  0  0  0  0  0  0
   -2.8414  -18.9943    4.9054 N   0  0  0  0  0  0  0  0  0  0  0  0
   -2.3582  -19.9452    0.3081 N   0  0  0  0  0  0  0  0  0  0  0  0
   -3.2460  -17.3163   -0.4123 C   0  0  0  0  0  0  0  0  0  0  0  0
   -2.4662  -16.3645   -0.9199 C   0  0  0  0  0  0  0  0  0  0  0  0
   -2.6252  -15.9935   -2.3909 C   0  0  0  0  0  0  0  0  0  0  0  0
   -3.5381  -16.6001   -3.1324 C   0  0  0  0  0  0  0  0  0  0  0  0
   -4.4257  -17.6777   -2.5378 C   0  0  0  0  0  0  0  0  0  0  0  0
   -4.2899  -18.0047   -1.2715 C   0  0  0  0  0  0  0  0  0  0  0  0
   -3.4807  -12.4027    0.0591 H   0  0  0  0  0  0  0  0  0  0  0  0
   -2.2335  -11.6783   -1.0115 H   0  0  0  0  0  0  0  0  0  0  0  0
   -3.9066  -11.0246   -1.0115 H   0  0  0  0  0  0  0  0  0  0  0  0
   -4.0888  -12.3621   -2.8886 H   0  0  0  0  0  0  0  0  0  0  0  0
   -2.7921  -13.4799   -2.3508 H   0  0  0  0  0  0  0  0  0  0  0  0
   -5.7424  -13.5367   -1.7816 H   0  0  0  0  0  0  0  0  0  0  0  0
   -4.5972  -14.8894   -1.9320 H   0  0  0  0  0  0  0  0  0  0  0  0
   -3.6008  -13.5376    0.2953 H   0  0  0  0  0  0  0  0  0  0  0  0
   -5.3837  -13.2905    0.4580 H   0  0  0  0  0  0  0  0  0  0  0  0
   -5.8169  -15.5518    0.7219 H   0  0  0  0  0  0  0  0  0  0  0  0
   -4.3465  -16.0511   -0.1850 H   0  0  0  0  0  0  0  0  0  0  0  0
   -4.6565  -15.2098    2.6948 H   0  0  0  0  0  0  0  0  0  0  0  0
   -3.1095  -14.8245    1.8171 H   0  0  0  0  0  0  0  0  0  0  0  0
   -3.0926  -18.3455    5.6649 H   0  0  0  0  0  0  0  0  0  0  0  0
   -2.5095  -19.9437    5.1278 H   0  0  0  0  0  0  0  0  0  0  0  0
   -2.0261  -20.8906    0.5463 H   0  0  0  0  0  0  0  0  0  0  0  0
   -2.4326  -19.6589   -0.6786 H   0  0  0  0  0  0  0  0  0  0  0  0
   -1.7215  -15.8552   -0.2906 H   0  0  0  0  0  0  0  0  0  0  0  0
   -1.9804  -15.2212   -2.8357 H   0  0  0  0  0  0  0  0  0  0  0  0
   -3.6546  -16.3205   -4.1899 H   0  0  0  0  0  0  0  0  0  0  0  0
   -5.1780  -18.1821   -3.1621 H   0  0  0  0  0  0  0  0  0  0  0  0
   -4.9355  -18.7802   -0.8335 H   0  0  0  0  0  0  0  0  0  0  0  0
  1  2  2  0
  1  5  1  0
  1 11  1  0
  2  3  1  0
  2 15  1  0
  3  4  2  0
  3 14  1  0
  4 12  1  0
  5 12  2  0
  6  7  1  0
  7  8  1  0
  8  9  1  0
  9 10  1  0
 10 11  1  0
 12 13  1  0
 15 16  2  0
 15 20  1  0
 16 17  1  0
 17 18  2  0
 18 19  1  0
 19 20  2  0
  6 21  1  0
  6 22  1  0
  6 23  1  0
  7 24  1  0
  7 25  1  0
  8 26  1  0
  8 27  1  0
  9 28  1  0
  9 29  1  0
 10 30  1  0
 10 31  1  0
 11 32  1  0
 11 33  1  0
 13 34  1  0
 13 35  1  0
 14 36  1  0
 14 37  1  0
 16 38  1  0
 17 39  1  0
 18 40  1  0
 19 41  1  0
 20 42  1  0
M  END
>  <filename_input>  (5) 
7XI7_4RI_docked.sdf

>  <pdb_id>  (5) 
7XI7_4RI

>  <pose_rank>  (5) 
4

>  <num_atoms_heavy>  (5) 
20

>  <num_torsions>  (5) 
6

>  <pose>  (5) 
[-3.482029073321179, -16.910021877359366, 2.0984611217258036, 4.838959897647648, 3.8578383760081336, -0.6845875378029375, 2.454356841948665, -3.7003087349064083, -3.8813612074689976, 1.4417986810876486, 0.7639770775370228, 2.6093227824265224]

>  <energy>  (5) 
-1366.1763919411974

>  <inter_energy>  (5) 
-1501.4359602302695

>  <intra_energy>  (5) 
126.49118342316943

>  <rmsd>  (5) 
1.60885

>  <sdf_rank>  (5) 
0

$$$$

     RDKit          3D

 42 43  0  0  0  0  0  0  0  0999 V2000
   -3.3885  -17.0573    2.5095 C   0  0  0  0  0  0  0  0  0  0  0  0
   -3.1329  -17.6977    1.3213 C   0  0  0  0  0  0  0  0  0  0  0  0
   -2.6664  -19.0036    1.3647 C   0  0  0  0  0  0  0  0  0  0  0  0
   -2.4966  -19.6344    2.5059 N   0  0  0  0  0  0  0  0  0  0  0  0
   -3.2115  -17.6843    3.6601 N   0  0  0  0  0  0  0  0  0  0  0  0
   -0.5764  -13.6147    0.1149 C   0  0  0  0  0  0  0  0  0  0  0  0
   -1.7067  -12.5846    0.0564 C   0  0  0  0  0  0  0  0  0  0  0  0
   -2.2199  -12.3214    1.4690 C   0  0  0  0  0  0  0  0  0  0  0  0
   -3.3376  -13.3302    1.7351 C   0  0  0  0  0  0  0  0  0  0  0  0
   -2.7899  -14.5877    2.4053 C   0  0  0  0  0  0  0  0  0  0  0  0
   -3.9067  -15.6196    2.5571 C   0  0  0  0  0  0  0  0  0  0  0  0
   -2.7808  -18.9357    3.5934 C   0  0  0  0  0  0  0  0  0  0  0  0
   -2.5890  -19.5904    4.8713 N   0  0  0  0  0  0  0  0  0  0  0  0
   -2.3663  -19.7240    0.1589 N   0  0  0  0  0  0  0  0  0  0  0  0
   -3.2947  -17.0193   -0.0429 C   0  0  0  0  0  0  0  0  0  0  0  0
   -2.4212  -17.1886   -1.0327 C   0  0  0  0  0  0  0  0  0  0  0  0
   -2.6587  -16.4616   -2.3526 C   0  0  0  0  0  0  0  0  0  0  0  0
   -3.7064  -15.6652   -2.4912 C   0  0  0  0  0  0  0  0  0  0  0  0
   -4.6895  -15.4753   -1.3509 C   0  0  0  0  0  0  0  0  0  0  0  0
   -4.4921  -16.1031   -0.2126 C   0  0  0  0  0  0  0  0  0  0  0  0
   -0.3348  -13.8347    1.1653 H   0  0  0  0  0  0  0  0  0  0  0  0
   -0.8959  -14.5386   -0.3892 H   0  0  0  0  0  0  0  0  0  0  0  0
    0.3141  -13.2110   -0.3892 H   0  0  0  0  0  0  0  0  0  0  0  0
   -1.3283  -11.6475   -0.3780 H   0  0  0  0  0  0  0  0  0  0  0  0
   -2.5259  -12.9702   -0.5683 H   0  0  0  0  0  0  0  0  0  0  0  0
   -1.4071  -12.4576    2.1975 H   0  0  0  0  0  0  0  0  0  0  0  0
   -2.5912  -11.2905    1.5654 H   0  0  0  0  0  0  0  0  0  0  0  0
   -4.0889  -12.8697    2.3935 H   0  0  0  0  0  0  0  0  0  0  0  0
   -3.7907  -13.6139    0.7737 H   0  0  0  0  0  0  0  0  0  0  0  0
   -1.9839  -15.0097    1.7870 H   0  0  0  0  0  0  0  0  0  0  0  0
   -2.3965  -14.3283    3.3992 H   0  0  0  0  0  0  0  0  0  0  0  0
   -4.6302  -15.4786    1.7407 H   0  0  0  0  0  0  0  0  0  0  0  0
   -4.3716  -15.4653    3.5420 H   0  0  0  0  0  0  0  0  0  0  0  0
   -2.7970  -19.0858    5.7448 H   0  0  0  0  0  0  0  0  0  0  0  0
   -2.2445  -20.5604    4.9064 H   0  0  0  0  0  0  0  0  0  0  0  0
   -2.0208  -20.6929    0.2104 H   0  0  0  0  0  0  0  0  0  0  0  0
   -2.4966  -19.2716   -0.7572 H   0  0  0  0  0  0  0  0  0  0  0  0
   -1.5448  -17.8404   -0.9016 H   0  0  0  0  0  0  0  0  0  0  0  0
   -1.9586  -16.5995   -3.1897 H   0  0  0  0  0  0  0  0  0  0  0  0
   -3.8661  -15.1357   -3.4421 H   0  0  0  0  0  0  0  0  0  0  0  0
   -5.5616  -14.8166   -1.4759 H   0  0  0  0  0  0  0  0  0  0  0  0
   -5.1977  -15.9636    0.6197 H   0  0  0  0  0  0  0  0  0  0  0  0
  1  2  2  0
  1  5  1  0
  1 11  1  0
  2  3  1  0
  2 15  1  0
  3  4  2  0
  3 14  1  0
  4 12  1  0
  5 12  2  0
  6  7  1  0
  7  8  1  0
  8  9  1  0
  9 10  1  0
 10 11  1  0
 12 13  1  0
 15 16  2  0
 15 20  1  0
 16 17  1  0
 17 18  2  0
 18 19  1  0
 19 20  2  0
  6 21  1  0
  6 22  1  0
  6 23  1  0
  7 24  1  0
  7 25  1  0
  8 26  1  0
  8 27  1  0
  9 28  1  0
  9 29  1  0
 10 30  1  0
 10 31  1  0
 11 32  1  0
 11 33  1  0
 13 34  1  0
 13 35  1  0
 14 36  1  0
 14 37  1  0
 16 38  1  0
 17 39  1  0
 18 40  1  0
 19 41  1  0
 20 42  1  0
M  END
>  <filename_input>  (6) 
7XI7_4RI_docked.sdf

>  <pdb_id>  (6) 
7XI7_4RI

>  <pose_rank>  (6) 
5

>  <num_atoms_heavy>  (6) 
20

>  <num_torsions>  (6) 
6

>  <pose>  (6) 
[-3.3884643964764845, -17.0573417738239, 2.509454304686367, 0.1307207264156953, 0.020621823317893313, 0.00983730010899119, 16.316430282946076, 25.77550609632694, 20.21531032294705, -10.578948978465027, 4.810425357922318, -4.827620497418865]

>  <energy>  (6) 
-1226.8588591094035

>  <inter_energy>  (6) 
-1278.0090288987817

>  <intra_energy>  (6) 
64.28659585162765

>  <rmsd>  (6) 
0.945883

>  <sdf_rank>  (6) 
0

$$$$

     RDKit          3D

 42 43  0  0  0  0  0  0  0  0999 V2000
   -3.4636  -13.4052   -1.9928 C   0  0  0  0  0  0  0  0  0  0  0  0
   -2.4708  -13.9643   -1.2255 C   0  0  0  0  0  0  0  0  0  0  0  0
   -2.0168  -13.2584   -0.1206 C   0  0  0  0  0  0  0  0  0  0  0  0
   -2.5349  -12.0966    0.2122 N   0  0  0  0  0  0  0  0  0  0  0  0
   -3.9824  -12.2333   -1.6673 N   0  0  0  0  0  0  0  0  0  0  0  0
   -6.8089  -18.9627   -3.1505 C   0  0  0  0  0  0  0  0  0  0  0  0
   -5.4244  -18.5655   -3.6677 C   0  0  0  0  0  0  0  0  0  0  0  0
   -4.9564  -17.3105   -2.9370 C   0  0  0  0  0  0  0  0  0  0  0  0
   -5.4266  -16.1108   -3.7603 C   0  0  0  0  0  0  0  0  0  0  0  0
   -5.3485  -14.8238   -2.9432 C   0  0  0  0  0  0  0  0  0  0  0  0
   -4.0262  -14.1122   -3.2263 C   0  0  0  0  0  0  0  0  0  0  0  0
   -3.4930  -11.6486   -0.5835 C   0  0  0  0  0  0  0  0  0  0  0  0
   -4.0765  -10.3628   -0.2602 N   0  0  0  0  0  0  0  0  0  0  0  0
   -0.9712  -13.7806    0.7141 N   0  0  0  0  0  0  0  0  0  0  0  0
   -1.8125  -15.3061   -1.5625 C   0  0  0  0  0  0  0  0  0  0  0  0
   -0.7420  -15.3990   -2.3478 C   0  0  0  0  0  0  0  0  0  0  0  0
   -0.1631  -16.7802   -2.6377 C   0  0  0  0  0  0  0  0  0  0  0  0
   -0.7355  -17.8590   -2.1281 C   0  0  0  0  0  0  0  0  0  0  0  0
   -1.9608  -17.7382   -1.2410 C   0  0  0  0  0  0  0  0  0  0  0  0
   -2.4613  -16.5497   -0.9841 C   0  0  0  0  0  0  0  0  0  0  0  0
   -6.8038  -18.9612   -2.0505 H   0  0  0  0  0  0  0  0  0  0  0  0
   -7.5567  -18.2429   -3.5147 H   0  0  0  0  0  0  0  0  0  0  0  0
   -7.0614  -19.9695   -3.5147 H   0  0  0  0  0  0  0  0  0  0  0  0
   -4.7139  -19.3848   -3.4834 H   0  0  0  0  0  0  0  0  0  0  0  0
   -5.4769  -18.3659   -4.7481 H   0  0  0  0  0  0  0  0  0  0  0  0
   -5.3974  -17.2734   -1.9300 H   0  0  0  0  0  0  0  0  0  0  0  0
   -3.8619  -17.3059   -2.8273 H   0  0  0  0  0  0  0  0  0  0  0  0
   -4.7870  -16.0118   -4.6497 H   0  0  0  0  0  0  0  0  0  0  0  0
   -6.4733  -16.2762   -4.0554 H   0  0  0  0  0  0  0  0  0  0  0  0
   -6.1847  -14.1645   -3.2191 H   0  0  0  0  0  0  0  0  0  0  0  0
   -5.4081  -15.0684   -1.8724 H   0  0  0  0  0  0  0  0  0  0  0  0
   -4.1903  -13.3649   -4.0167 H   0  0  0  0  0  0  0  0  0  0  0  0
   -3.2964  -14.8752   -3.5350 H   0  0  0  0  0  0  0  0  0  0  0  0
   -4.8252   -9.9738   -0.8510 H   0  0  0  0  0  0  0  0  0  0  0  0
   -3.7426   -9.8375    0.5605 H   0  0  0  0  0  0  0  0  0  0  0  0
   -0.6467  -13.2426    1.5303 H   0  0  0  0  0  0  0  0  0  0  0  0
   -0.5457  -14.6930    0.4965 H   0  0  0  0  0  0  0  0  0  0  0  0
   -0.2835  -14.4972   -2.7795 H   0  0  0  0  0  0  0  0  0  0  0  0
    0.7309  -16.8796   -3.2709 H   0  0  0  0  0  0  0  0  0  0  0  0
   -0.3191  -18.8528   -2.3496 H   0  0  0  0  0  0  0  0  0  0  0  0
   -2.4272  -18.6390   -0.8157 H   0  0  0  0  0  0  0  0  0  0  0  0
   -3.3535  -16.4568   -0.3475 H   0  0  0  0  0  0  0  0  0  0  0  0
  1  2  2  0
  1  5  1  0
  1 11  1  0
  2  3  1  0
  2 15  1  0
  3  4  2  0
  3 14  1  0
  4 12  1  0
  5 12  2  0
  6  7  1  0
  7  8  1  0
  8  9  1  0
  9 10  1  0
 10 11  1  0
 12 13  1  0
 15 16  2  0
 15 20  1  0
 16 17  1  0
 17 18  2  0
 18 19  1  0
 19 20  2  0
  6 21  1  0
  6 22  1  0
  6 23  1  0
  7 24  1  0
  7 25  1  0
  8 26  1  0
  8 27  1  0
  9 28  1  0
  9 29  1  0
 10 30  1  0
 10 31  1  0
 11 32  1  0
 11 33  1  0
 13 34  1  0
 13 35  1  0
 14 36  1  0
 14 37  1  0
 16 38  1  0
 17 39  1  0
 18 40  1  0
 19 41  1  0
 20 42  1  0
M  END
>  <filename_input>  (7) 
7XI7_4RI_docked.sdf

>  <pdb_id>  (7) 
7XI7_4RI

>  <pose_rank>  (7) 
6

>  <num_atoms_heavy>  (7) 
20

>  <num_torsions>  (7) 
6

>  <pose>  (7) 
[-3.4636449893736643, -13.405173348636302, -1.9928104126099362, 4.070659013040593, 0.7318141603415403, -1.672566833817945, 2.881809746437645, 3.8093614190697047, 2.502028627995551, 0.4275822508109914, -0.21454774885259226, 1.4353857453578405]

>  <energy>  (7) 
-467.887900787991

>  <inter_energy>  (7) 
-489.19775708241286

>  <intra_energy>  (7) 
15.511590451605956

>  <rmsd>  (7) 
6.02869

>  <sdf_rank>  (7) 
0

$$$$

     RDKit          3D

 42 43  0  0  0  0  0  0  0  0999 V2000
   -2.4021  -16.0655   -0.6534 C   0  0  0  0  0  0  0  0  0  0  0  0
   -3.1662  -15.9060   -1.7838 C   0  0  0  0  0  0  0  0  0  0  0  0
   -2.8040  -14.9187   -2.6889 C   0  0  0  0  0  0  0  0  0  0  0  0
   -1.7421  -14.1673   -2.4968 N   0  0  0  0  0  0  0  0  0  0  0  0
   -1.3380  -15.3070   -0.4513 N   0  0  0  0  0  0  0  0  0  0  0  0
   -3.4093  -11.6523    2.2762 C   0  0  0  0  0  0  0  0  0  0  0  0
   -3.4409  -12.9724    1.5025 C   0  0  0  0  0  0  0  0  0  0  0  0
   -3.3649  -14.1343    2.4884 C   0  0  0  0  0  0  0  0  0  0  0  0
   -2.3964  -15.1601    1.8988 C   0  0  0  0  0  0  0  0  0  0  0  0
   -3.0656  -16.5249    1.7585 C   0  0  0  0  0  0  0  0  0  0  0  0
   -2.7253  -17.1289    0.3967 C   0  0  0  0  0  0  0  0  0  0  0  0
   -1.0663  -14.4059   -1.3841 C   0  0  0  0  0  0  0  0  0  0  0  0
    0.1000  -13.5860   -1.1279 N   0  0  0  0  0  0  0  0  0  0  0  0
   -3.5691  -14.6909   -3.8828 N   0  0  0  0  0  0  0  0  0  0  0  0
   -4.4233  -16.7357   -2.0642 C   0  0  0  0  0  0  0  0  0  0  0  0
   -5.6448  -16.3089   -1.7524 C   0  0  0  0  0  0  0  0  0  0  0  0
   -6.8367  -17.2105   -2.0582 C   0  0  0  0  0  0  0  0  0  0  0  0
   -6.6446  -18.4001   -2.6051 C   0  0  0  0  0  0  0  0  0  0  0  0
   -5.2452  -18.8768   -2.9475 C   0  0  0  0  0  0  0  0  0  0  0  0
   -4.2146  -18.1019   -2.6903 C   0  0  0  0  0  0  0  0  0  0  0  0
   -3.4142  -11.8602    3.3563 H   0  0  0  0  0  0  0  0  0  0  0  0
   -2.4975  -11.0955    2.0141 H   0  0  0  0  0  0  0  0  0  0  0  0
   -4.2933  -11.0525    2.0141 H   0  0  0  0  0  0  0  0  0  0  0  0
   -4.3759  -13.0390    0.9268 H   0  0  0  0  0  0  0  0  0  0  0  0
   -2.5852  -13.0168    0.8127 H   0  0  0  0  0  0  0  0  0  0  0  0
   -2.9935  -13.7801    3.4614 H   0  0  0  0  0  0  0  0  0  0  0  0
   -4.3583  -14.5792    2.6473 H   0  0  0  0  0  0  0  0  0  0  0  0
   -2.0682  -14.8165    0.9067 H   0  0  0  0  0  0  0  0  0  0  0  0
   -1.5353  -15.2594    2.5760 H   0  0  0  0  0  0  0  0  0  0  0  0
   -2.7048  -17.1925    2.5548 H   0  0  0  0  0  0  0  0  0  0  0  0
   -4.1560  -16.4058    1.8415 H   0  0  0  0  0  0  0  0  0  0  0  0
   -3.5858  -17.7186    0.0477 H   0  0  0  0  0  0  0  0  0  0  0  0
   -1.8297  -17.7547    0.5240 H   0  0  0  0  0  0  0  0  0  0  0  0
    0.6572  -13.7354   -0.2745 H   0  0  0  0  0  0  0  0  0  0  0  0
    0.3722  -12.8536   -1.7990 H   0  0  0  0  0  0  0  0  0  0  0  0
   -3.2853  -13.9534   -4.5435 H   0  0  0  0  0  0  0  0  0  0  0  0
   -4.4016  -15.2651   -4.0784 H   0  0  0  0  0  0  0  0  0  0  0  0
   -5.7920  -15.3249   -1.2833 H   0  0  0  0  0  0  0  0  0  0  0  0
   -7.8566  -16.8714   -1.8240 H   0  0  0  0  0  0  0  0  0  0  0  0
   -7.5076  -19.0496   -2.8135 H   0  0  0  0  0  0  0  0  0  0  0  0
   -5.0940  -19.8643   -3.4079 H   0  0  0  0  0  0  0  0  0  0  0  0
   -3.1974  -18.4453   -2.9299 H   0  0  0  0  0  0  0  0  0  0  0  0
  1  2  2  0
  1  5  1  0
  1 11  1  0
  2  3  1  0
  2 15  1  0
  3  4  2  0
  3 14  1  0
  4 12  1  0
  5 12  2  0
  6  7  1  0
  7  8  1  0
  8  9  1  0
  9 10  1  0
 10 11  1  0
 12 13  1  0
 15 16  2  0
 15 20  1  0
 16 17  1  0
 17 18  2  0
 18 19  1  0
 19 20  2  0
  6 21  1  0
  6 22  1  0
  6 23  1  0
  7 24  1  0
  7 25  1  0
  8 26  1  0
  8 27  1  0
  9 28  1  0
  9 29  1  0
 10 30  1  0
 10 31  1  0
 11 32  1  0
 11 33  1  0
 13 34  1  0
 13 35  1  0
 14 36  1  0
 14 37  1  0
 16 38  1  0
 17 39  1  0
 18 40  1  0
 19 41  1  0
 20 42  1  0
M  END
>  <filename_input>  (8) 
7XI7_4RI_docked.sdf

>  <pdb_id>  (8) 
7XI7_4RI

>  <pose_rank>  (8) 
7

>  <num_atoms_heavy>  (8) 
20

>  <num_torsions>  (8) 
6

>  <pose>  (8) 
[-2.402081687899641, -16.065474165848084, -0.6533770657923454, -1.3965358068730922, -1.6622288641862462, -3.25003577544464, -3.2956621100708334, 37.72299586861555, 4.576798248129396, -5.147064805457766, -5.245155793658138, 0.6209644335688961]

>  <energy>  (8) 
-475.37224458128696

>  <inter_energy>  (8) 
-512.4452890429085

>  <intra_energy>  (8) 
43.35622085991438

>  <rmsd>  (8) 
4.46081

>  <sdf_rank>  (8) 
0

$$$$

     RDKit          3D

 42 43  0  0  0  0  0  0  0  0999 V2000
   -3.7649  -14.0613    0.6669 C   0  0  0  0  0  0  0  0  0  0  0  0
   -3.4076  -15.3869    0.7140 C   0  0  0  0  0  0  0  0  0  0  0  0
   -3.3351  -16.0052    1.9539 C   0  0  0  0  0  0  0  0  0  0  0  0
   -3.6269  -15.3591    3.0614 N   0  0  0  0  0  0  0  0  0  0  0  0
   -4.0513  -13.4046    1.7783 N   0  0  0  0  0  0  0  0  0  0  0  0
   -5.3002   -7.8730    0.9845 C   0  0  0  0  0  0  0  0  0  0  0  0
   -5.5692   -8.9252   -0.0937 C   0  0  0  0  0  0  0  0  0  0  0  0
   -4.6516  -10.1228    0.1333 C   0  0  0  0  0  0  0  0  0  0  0  0
   -4.7520  -11.0067   -1.1104 C   0  0  0  0  0  0  0  0  0  0  0  0
   -5.1308  -12.4368   -0.7345 C   0  0  0  0  0  0  0  0  0  0  0  0
   -3.8724  -13.3000   -0.6548 C   0  0  0  0  0  0  0  0  0  0  0  0
   -3.9705  -14.0900    2.9096 C   0  0  0  0  0  0  0  0  0  0  0  0
   -4.2817  -13.3392    4.1086 N   0  0  0  0  0  0  0  0  0  0  0  0
   -2.9535  -17.3847    2.0731 N   0  0  0  0  0  0  0  0  0  0  0  0
   -3.0408  -16.1962   -0.5342 C   0  0  0  0  0  0  0  0  0  0  0  0
   -3.9544  -16.8179   -1.2760 C   0  0  0  0  0  0  0  0  0  0  0  0
   -3.4931  -17.6111   -2.4947 C   0  0  0  0  0  0  0  0  0  0  0  0
   -2.2046  -17.6880   -2.7864 C   0  0  0  0  0  0  0  0  0  0  0  0
   -1.1736  -16.9807   -1.9265 C   0  0  0  0  0  0  0  0  0  0  0  0
   -1.5660  -16.2917   -0.8775 C   0  0  0  0  0  0  0  0  0  0  0  0
   -5.4167   -8.3288    1.9788 H   0  0  0  0  0  0  0  0  0  0  0  0
   -4.2751   -7.4894    0.8748 H   0  0  0  0  0  0  0  0  0  0  0  0
   -6.0154   -7.0444    0.8748 H   0  0  0  0  0  0  0  0  0  0  0  0
   -6.6187   -9.2500   -0.0370 H   0  0  0  0  0  0  0  0  0  0  0  0
   -5.3752   -8.4942   -1.0870 H   0  0  0  0  0  0  0  0  0  0  0  0
   -3.6147   -9.7829    0.2721 H   0  0  0  0  0  0  0  0  0  0  0  0
   -4.9486  -10.6791    1.0345 H   0  0  0  0  0  0  0  0  0  0  0  0
   -5.5194  -10.5959   -1.7829 H   0  0  0  0  0  0  0  0  0  0  0  0
   -3.7718  -11.0229   -1.6094 H   0  0  0  0  0  0  0  0  0  0  0  0
   -5.6361  -12.4363    0.2426 H   0  0  0  0  0  0  0  0  0  0  0  0
   -5.8059  -12.8475   -1.4998 H   0  0  0  0  0  0  0  0  0  0  0  0
   -2.9916  -12.6494   -0.7593 H   0  0  0  0  0  0  0  0  0  0  0  0
   -3.9259  -14.0431   -1.4641 H   0  0  0  0  0  0  0  0  0  0  0  0
   -4.5542  -12.3483    4.0396 H   0  0  0  0  0  0  0  0  0  0  0  0
   -4.2306  -13.7962    5.0302 H   0  0  0  0  0  0  0  0  0  0  0  0
   -2.9051  -17.8272    3.0019 H   0  0  0  0  0  0  0  0  0  0  0  0
   -2.7282  -17.9314    1.2298 H   0  0  0  0  0  0  0  0  0  0  0  0
   -5.0215  -16.7608   -1.0154 H   0  0  0  0  0  0  0  0  0  0  0  0
   -4.2321  -18.1195   -3.1314 H   0  0  0  0  0  0  0  0  0  0  0  0
   -1.8778  -18.2703   -3.6606 H   0  0  0  0  0  0  0  0  0  0  0  0
   -0.1049  -17.0438   -2.1790 H   0  0  0  0  0  0  0  0  0  0  0  0
   -0.8224  -15.7829   -0.2466 H   0  0  0  0  0  0  0  0  0  0  0  0
  1  2  2  0
  1  5  1  0
  1 11  1  0
  2  3  1  0
  2 15  1  0
  3  4  2  0
  3 14  1  0
  4 12  1  0
  5 12  2  0
  6  7  1  0
  7  8  1  0
  8  9  1  0
  9 10  1  0
 10 11  1  0
 12 13  1  0
 15 16  2  0
 15 20  1  0
 16 17  1  0
 17 18  2  0
 18 19  1  0
 19 20  2  0
  6 21  1  0
  6 22  1  0
  6 23  1  0
  7 24  1  0
  7 25  1  0
  8 26  1  0
  8 27  1  0
  9 28  1  0
  9 29  1  0
 10 30  1  0
 10 31  1  0
 11 32  1  0
 11 33  1  0
 13 34  1  0
 13 35  1  0
 14 36  1  0
 14 37  1  0
 16 38  1  0
 17 39  1  0
 18 40  1  0
 19 41  1  0
 20 42  1  0
M  END
>  <filename_input>  (9) 
7XI7_4RI_docked.sdf

>  <pdb_id>  (9) 
7XI7_4RI

>  <pose_rank>  (9) 
8

>  <num_atoms_heavy>  (9) 
20

>  <num_torsions>  (9) 
6

>  <pose>  (9) 
[-3.764920679814147, -14.061266382194477, 0.6669290823461784, 4.927864826910232, 1.94562294244194, 0.5436232919940353, -0.18838219869585707, -1.8474152716345822, 0.9771855907713229, -2.9277707160255746, -5.27658788639067, 0.07254090938593358]

>  <energy>  (9) 
-530.8430227325379

>  <inter_energy>  (9) 
-511.0243091198362

>  <intra_energy>  (9) 
4.353513171769737

>  <rmsd>  (9) 
3.9012

>  <sdf_rank>  (9) 
0

$$$$

     RDKit          3D

 42 43  0  0  0  0  0  0  0  0999 V2000
   -3.4277  -16.7460    2.1797 C   0  0  0  0  0  0  0  0  0  0  0  0
   -3.1763  -17.6426    1.1697 C   0  0  0  0  0  0  0  0  0  0  0  0
   -2.8920  -18.9567    1.5122 C   0  0  0  0  0  0  0  0  0  0  0  0
   -2.8889  -19.3543    2.7656 N   0  0  0  0  0  0  0  0  0  0  0  0
   -3.4177  -17.1387    3.4422 N   0  0  0  0  0  0  0  0  0  0  0  0
   -4.1781  -11.0688    2.2648 C   0  0  0  0  0  0  0  0  0  0  0  0
   -3.0449  -11.8574    1.6046 C   0  0  0  0  0  0  0  0  0  0  0  0
   -3.5596  -12.4932    0.3166 C   0  0  0  0  0  0  0  0  0  0  0  0
   -2.7919  -13.8015    0.1245 C   0  0  0  0  0  0  0  0  0  0  0  0
   -2.5231  -14.4787    1.4659 C   0  0  0  0  0  0  0  0  0  0  0  0
   -3.7520  -15.2791    1.8953 C   0  0  0  0  0  0  0  0  0  0  0  0
   -3.1538  -18.4183    3.6632 C   0  0  0  0  0  0  0  0  0  0  0  0
   -3.1418  -18.8135    5.0567 N   0  0  0  0  0  0  0  0  0  0  0  0
   -2.6059  -19.9399    0.5051 N   0  0  0  0  0  0  0  0  0  0  0  0
   -3.1493  -17.2457   -0.3098 C   0  0  0  0  0  0  0  0  0  0  0  0
   -2.0230  -16.9269   -0.9432 C   0  0  0  0  0  0  0  0  0  0  0  0
   -2.0960  -16.5319   -2.4148 C   0  0  0  0  0  0  0  0  0  0  0  0
   -3.2654  -16.4918   -3.0330 C   0  0  0  0  0  0  0  0  0  0  0  0
   -4.5424  -16.8500   -2.2955 C   0  0  0  0  0  0  0  0  0  0  0  0
   -4.4848  -17.1956   -1.0282 C   0  0  0  0  0  0  0  0  0  0  0  0
   -4.0824  -11.1354    3.3586 H   0  0  0  0  0  0  0  0  0  0  0  0
   -4.1203  -10.0148    1.9552 H   0  0  0  0  0  0  0  0  0  0  0  0
   -5.1463  -11.4893    1.9552 H   0  0  0  0  0  0  0  0  0  0  0  0
   -2.2112  -11.1785    1.3720 H   0  0  0  0  0  0  0  0  0  0  0  0
   -2.6937  -12.6431    2.2896 H   0  0  0  0  0  0  0  0  0  0  0  0
   -4.6373  -12.6967    0.4006 H   0  0  0  0  0  0  0  0  0  0  0  0
   -3.4082  -11.8204   -0.5404 H   0  0  0  0  0  0  0  0  0  0  0  0
   -3.3859  -14.4779   -0.5075 H   0  0  0  0  0  0  0  0  0  0  0  0
   -1.8275  -13.5755   -0.3540 H   0  0  0  0  0  0  0  0  0  0  0  0
   -1.6619  -15.1560    1.3673 H   0  0  0  0  0  0  0  0  0  0  0  0
   -2.3054  -13.7116    2.2237 H   0  0  0  0  0  0  0  0  0  0  0  0
   -4.5010  -15.2332    1.0911 H   0  0  0  0  0  0  0  0  0  0  0  0
   -4.1303  -14.8345    2.8276 H   0  0  0  0  0  0  0  0  0  0  0  0
   -3.3422  -18.1191    5.7906 H   0  0  0  0  0  0  0  0  0  0  0  0
   -2.9329  -19.7888    5.3137 H   0  0  0  0  0  0  0  0  0  0  0  0
   -2.3970  -20.9109    0.7779 H   0  0  0  0  0  0  0  0  0  0  0  0
   -2.6096  -19.6740   -0.4900 H   0  0  0  0  0  0  0  0  0  0  0  0
   -1.0579  -16.9479   -0.4157 H   0  0  0  0  0  0  0  0  0  0  0  0
   -1.1759  -16.2802   -2.9626 H   0  0  0  0  0  0  0  0  0  0  0  0
   -3.3122  -16.1960   -4.0914 H   0  0  0  0  0  0  0  0  0  0  0  0
   -5.5100  -16.8206   -2.8178 H   0  0  0  0  0  0  0  0  0  0  0  0
   -5.4081  -17.4494   -0.4869 H   0  0  0  0  0  0  0  0  0  0  0  0
  1  2  2  0
  1  5  1  0
  1 11  1  0
  2  3  1  0
  2 15  1  0
  3  4  2  0
  3 14  1  0
  4 12  1  0
  5 12  2  0
  6  7  1  0
  7  8  1  0
  8  9  1  0
  9 10  1  0
 10 11  1  0
 12 13  1  0
 15 16  2  0
 15 20  1  0
 16 17  1  0
 17 18  2  0
 18 19  1  0
 19 20  2  0
  6 21  1  0
  6 22  1  0
  6 23  1  0
  7 24  1  0
  7 25  1  0
  8 26  1  0
  8 27  1  0
  9 28  1  0
  9 29  1  0
 10 30  1  0
 10 31  1  0
 11 32  1  0
 11 33  1  0
 13 34  1  0
 13 35  1  0
 14 36  1  0
 14 37  1  0
 16 38  1  0
 17 39  1  0
 18 40  1  0
 19 41  1  0
 20 42  1  0
M  END
>  <filename_input>  (10) 
7XI7_4RI_docked.sdf

>  <pdb_id>  (10) 
7XI7_4RI

>  <pose_rank>  (10) 
9

>  <num_atoms_heavy>  (10) 
20

>  <num_torsions>  (10) 
6

>  <pose>  (10) 
[-3.427730314003958, -16.746005761988965, 2.179658014221444, -0.07150559590347919, -0.0708312166155205, -0.11229945415059744, 15.544663271265502, 25.912336380964167, 19.776090081129308, -12.355337640311944, 3.826677995012979, -5.858139662206498]

>  <energy>  (10) 
-1358.0685314762518

>  <inter_energy>  (10) 
-1381.0119528223272

>  <intra_energy>  (10) 
24.570022477804095

>  <rmsd>  (10) 
1.54995

>  <sdf_rank>  (10) 
0

$$$$

     RDKit          3D

 42 43  0  0  0  0  0  0  0  0999 V2000
   -3.3000  -14.8489   -1.3320 C   0  0  0  0  0  0  0  0  0  0  0  0
   -3.1777  -15.0718    0.0180 C   0  0  0  0  0  0  0  0  0  0  0  0
   -3.0448  -13.9745    0.8566 C   0  0  0  0  0  0  0  0  0  0  0  0
   -3.0634  -12.7460    0.3880 N   0  0  0  0  0  0  0  0  0  0  0  0
   -3.3109  -13.6158   -1.8094 N   0  0  0  0  0  0  0  0  0  0  0  0
   -6.8203  -18.7982   -4.0949 C   0  0  0  0  0  0  0  0  0  0  0  0
   -7.3694  -17.3701   -4.0582 C   0  0  0  0  0  0  0  0  0  0  0  0
   -7.2103  -16.8070   -2.6491 C   0  0  0  0  0  0  0  0  0  0  0  0
   -5.9314  -15.9690   -2.6428 C   0  0  0  0  0  0  0  0  0  0  0  0
   -4.7479  -16.7831   -2.1263 C   0  0  0  0  0  0  0  0  0  0  0  0
   -3.4531  -15.9974   -2.3297 C   0  0  0  0  0  0  0  0  0  0  0  0
   -3.1966  -12.6363   -0.9242 C   0  0  0  0  0  0  0  0  0  0  0  0
   -3.2032  -11.2990   -1.4807 N   0  0  0  0  0  0  0  0  0  0  0  0
   -2.8984  -14.1396    2.2758 N   0  0  0  0  0  0  0  0  0  0  0  0
   -3.1340  -16.4754    0.6306 C   0  0  0  0  0  0  0  0  0  0  0  0
   -2.0372  -17.2291    0.6114 C   0  0  0  0  0  0  0  0  0  0  0  0
   -2.0923  -18.6199    1.2355 C   0  0  0  0  0  0  0  0  0  0  0  0
   -3.2207  -19.0644    1.7649 C   0  0  0  0  0  0  0  0  0  0  0  0
   -4.4658  -18.1969    1.7721 C   0  0  0  0  0  0  0  0  0  0  0  0
   -4.4227  -16.9954    1.2396 C   0  0  0  0  0  0  0  0  0  0  0  0
   -6.6799  -19.1635   -3.0669 H   0  0  0  0  0  0  0  0  0  0  0  0
   -7.5316  -19.4510   -4.6221 H   0  0  0  0  0  0  0  0  0  0  0  0
   -5.8549  -18.8064   -4.6221 H   0  0  0  0  0  0  0  0  0  0  0  0
   -6.8120  -16.7434   -4.7699 H   0  0  0  0  0  0  0  0  0  0  0  0
   -8.4338  -17.3764   -4.3355 H   0  0  0  0  0  0  0  0  0  0  0  0
   -8.0755  -16.1773   -2.3943 H   0  0  0  0  0  0  0  0  0  0  0  0
   -7.1517  -17.6172   -1.9075 H   0  0  0  0  0  0  0  0  0  0  0  0
   -5.7167  -15.6323   -3.6678 H   0  0  0  0  0  0  0  0  0  0  0  0
   -6.0807  -15.1058   -1.9776 H   0  0  0  0  0  0  0  0  0  0  0  0
   -4.8859  -16.9890   -1.0546 H   0  0  0  0  0  0  0  0  0  0  0  0
   -4.6890  -17.7315   -2.6805 H   0  0  0  0  0  0  0  0  0  0  0  0
   -3.4492  -15.5822   -3.3483 H   0  0  0  0  0  0  0  0  0  0  0  0
   -2.6140  -16.6908   -2.1713 H   0  0  0  0  0  0  0  0  0  0  0  0
   -3.3044  -11.1645   -2.4969 H   0  0  0  0  0  0  0  0  0  0  0  0
   -3.1066  -10.4825   -0.8603 H   0  0  0  0  0  0  0  0  0  0  0  0
   -2.8010  -13.3134    2.8831 H   0  0  0  0  0  0  0  0  0  0  0  0
   -2.8909  -15.0842    2.6863 H   0  0  0  0  0  0  0  0  0  0  0  0
   -1.1087  -16.8562    0.1544 H   0  0  0  0  0  0  0  0  0  0  0  0
   -1.1934  -19.2538    1.2455 H   0  0  0  0  0  0  0  0  0  0  0  0
   -3.2565  -20.0724    2.2040 H   0  0  0  0  0  0  0  0  0  0  0  0
   -5.3984  -18.5708    2.2198 H   0  0  0  0  0  0  0  0  0  0  0  0
   -5.3241  -16.3650    1.2358 H   0  0  0  0  0  0  0  0  0  0  0  0
  1  2  2  0
  1  5  1  0
  1 11  1  0
  2  3  1  0
  2 15  1  0
  3  4  2  0
  3 14  1  0
  4 12  1  0
  5 12  2  0
  6  7  1  0
  7  8  1  0
  8  9  1  0
  9 10  1  0
 10 11  1  0
 12 13  1  0
 15 16  2  0
 15 20  1  0
 16 17  1  0
 17 18  2  0
 18 19  1  0
 19 20  2  0
  6 21  1  0
  6 22  1  0
  6 23  1  0
  7 24  1  0
  7 25  1  0
  8 26  1  0
  8 27  1  0
  9 28  1  0
  9 29  1  0
 10 30  1  0
 10 31  1  0
 11 32  1  0
 11 33  1  0
 13 34  1  0
 13 35  1  0
 14 36  1  0
 14 37  1  0
 16 38  1  0
 17 39  1  0
 18 40  1  0
 19 41  1  0
 20 42  1  0
M  END
>  <filename_input>  (11) 
7XI7_4RI_docked.sdf

>  <pdb_id>  (11) 
7XI7_4RI

>  <pose_rank>  (11) 
10

>  <num_atoms_heavy>  (11) 
20

>  <num_torsions>  (11) 
6

>  <pose>  (11) 
[-3.2999574505822116, -14.84891536601246, -1.3320335987389627, -2.305806053961103, -0.2877332761379568, -0.07440744572415238, -3.5850715947997918, 15.758646559252572, 25.180898578132073, 26.892325746267552, 1.5225391350340263, -7.849717149266263]

>  <energy>  (11) 
-518.1044538907884

>  <inter_energy>  (11) 
-522.7689813041596

>  <intra_energy>  (11) 
24.347574355425618

>  <rmsd>  (11) 
5.90861

>  <sdf_rank>  (11) 
0

$$$$

     RDKit          3D

 42 43  0  0  0  0  0  0  0  0999 V2000
   -4.4862  -16.8440    1.8115 C   0  0  0  0  0  0  0  0  0  0  0  0
   -4.2222  -17.5725    0.6771 C   0  0  0  0  0  0  0  0  0  0  0  0
   -3.7451  -18.8672    0.8228 C   0  0  0  0  0  0  0  0  0  0  0  0
   -3.5732  -19.4060    2.0100 N   0  0  0  0  0  0  0  0  0  0  0  0
   -4.3073  -17.3782    3.0077 N   0  0  0  0  0  0  0  0  0  0  0  0
   -5.3689   -9.6675    2.7202 C   0  0  0  0  0  0  0  0  0  0  0  0
   -5.1234  -10.9302    3.5493 C   0  0  0  0  0  0  0  0  0  0  0  0
   -4.6630  -12.0550    2.6269 C   0  0  0  0  0  0  0  0  0  0  0  0
   -5.4183  -13.3164    3.0464 C   0  0  0  0  0  0  0  0  0  0  0  0
   -4.5325  -14.5526    2.9139 C   0  0  0  0  0  0  0  0  0  0  0  0
   -5.0164  -15.4113    1.7462 C   0  0  0  0  0  0  0  0  0  0  0  0
   -3.8661  -18.6274    3.0393 C   0  0  0  0  0  0  0  0  0  0  0  0
   -3.6724  -19.1792    4.3646 N   0  0  0  0  0  0  0  0  0  0  0  0
   -3.4358  -19.6765   -0.3227 N   0  0  0  0  0  0  0  0  0  0  0  0
   -4.3859  -17.0035   -0.7359 C   0  0  0  0  0  0  0  0  0  0  0  0
   -5.3988  -17.3433   -1.5297 C   0  0  0  0  0  0  0  0  0  0  0  0
   -5.4718  -16.7345   -2.9264 C   0  0  0  0  0  0  0  0  0  0  0  0
   -4.5291  -15.9011   -3.3362 C   0  0  0  0  0  0  0  0  0  0  0  0
   -3.3755  -15.5293   -2.4230 C   0  0  0  0  0  0  0  0  0  0  0  0
   -3.3101  -16.0475   -1.2163 C   0  0  0  0  0  0  0  0  0  0  0  0
   -5.5350   -8.8134    3.3933 H   0  0  0  0  0  0  0  0  0  0  0  0
   -4.4925   -9.4692    2.0857 H   0  0  0  0  0  0  0  0  0  0  0  0
   -6.2558   -9.8121    2.0857 H   0  0  0  0  0  0  0  0  0  0  0  0
   -4.3465  -10.7307    4.3021 H   0  0  0  0  0  0  0  0  0  0  0  0
   -6.0537  -11.2258    4.0564 H   0  0  0  0  0  0  0  0  0  0  0  0
   -4.8965  -11.8052    1.5814 H   0  0  0  0  0  0  0  0  0  0  0  0
   -3.5760  -12.2050    2.7040 H   0  0  0  0  0  0  0  0  0  0  0  0
   -5.7377  -13.2131    4.0940 H   0  0  0  0  0  0  0  0  0  0  0  0
   -6.2912  -13.4380    2.3882 H   0  0  0  0  0  0  0  0  0  0  0  0
   -3.4937  -14.2399    2.7319 H   0  0  0  0  0  0  0  0  0  0  0  0
   -4.5848  -15.1390    3.8431 H   0  0  0  0  0  0  0  0  0  0  0  0
   -4.6761  -14.9521    0.8064 H   0  0  0  0  0  0  0  0  0  0  0  0
   -6.1140  -15.4592    1.8000 H   0  0  0  0  0  0  0  0  0  0  0  0
   -3.8869  -18.6101    5.1958 H   0  0  0  0  0  0  0  0  0  0  0  0
   -3.3200  -20.1407    4.4756 H   0  0  0  0  0  0  0  0  0  0  0  0
   -3.0825  -20.6356   -0.1954 H   0  0  0  0  0  0  0  0  0  0  0  0
   -3.5674  -19.2978   -1.2714 H   0  0  0  0  0  0  0  0  0  0  0  0
   -6.1685  -18.0495   -1.1851 H   0  0  0  0  0  0  0  0  0  0  0  0
   -6.3087  -16.9885   -3.5936 H   0  0  0  0  0  0  0  0  0  0  0  0
   -4.5821  -15.4737   -4.3484 H   0  0  0  0  0  0  0  0  0  0  0  0
   -2.5991  -14.8308   -2.7683 H   0  0  0  0  0  0  0  0  0  0  0  0
   -2.4724  -15.7870   -0.5527 H   0  0  0  0  0  0  0  0  0  0  0  0
  1  2  2  0
  1  5  1  0
  1 11  1  0
  2  3  1  0
  2 15  1  0
  3  4  2  0
  3 14  1  0
  4 12  1  0
  5 12  2  0
  6  7  1  0
  7  8  1  0
  8  9  1  0
  9 10  1  0
 10 11  1  0
 12 13  1  0
 15 16  2  0
 15 20  1  0
 16 17  1  0
 17 18  2  0
 18 19  1  0
 19 20  2  0
  6 21  1  0
  6 22  1  0
  6 23  1  0
  7 24  1  0
  7 25  1  0
  8 26  1  0
  8 27  1  0
  9 28  1  0
  9 29  1  0
 10 30  1  0
 10 31  1  0
 11 32  1  0
 11 33  1  0
 13 34  1  0
 13 35  1  0
 14 36  1  0
 14 37  1  0
 16 38  1  0
 17 39  1  0
 18 40  1  0
 19 41  1  0
 20 42  1  0
M  END
>  <filename_input>  (12) 
7XI7_4RI_docked.sdf

>  <pdb_id>  (12) 
7XI7_4RI

>  <pose_rank>  (12) 
11

>  <num_atoms_heavy>  (12) 
20

>  <num_torsions>  (12) 
6

>  <pose>  (12) 
[-4.486236218072046, -16.844029170167694, 1.811487940905622, 5.6951215204505, 2.061147280989586, 1.8812520839866789, -0.5143953740149039, -0.5114088112985946, 2.2030540583952214, -3.1389384227690766, -5.595240765079844, 0.6378725240532109]

>  <energy>  (12) 
-632.153640616528

>  <inter_energy>  (12) 
-634.1620194663816

>  <intra_energy>  (12) 
8.430792660132166

>  <rmsd>  (12) 
2.61613

>  <sdf_rank>  (12) 
0

$$$$

     RDKit          3D

 42 43  0  0  0  0  0  0  0  0999 V2000
   -4.8946  -13.1661   -2.8811 C   0  0  0  0  0  0  0  0  0  0  0  0
   -3.9613  -12.7971   -1.9430 C   0  0  0  0  0  0  0  0  0  0  0  0
   -4.1751  -11.6286   -1.2263 C   0  0  0  0  0  0  0  0  0  0  0  0
   -5.2536  -10.8987   -1.4090 N   0  0  0  0  0  0  0  0  0  0  0  0
   -5.9768  -12.4313   -3.0746 N   0  0  0  0  0  0  0  0  0  0  0  0
   -5.4368  -17.9383    1.0852 C   0  0  0  0  0  0  0  0  0  0  0  0
   -4.6818  -17.5878   -0.1991 C   0  0  0  0  0  0  0  0  0  0  0  0
   -5.6760  -17.1009   -1.2491 C   0  0  0  0  0  0  0  0  0  0  0  0
   -4.8595  -16.5781   -2.4314 C   0  0  0  0  0  0  0  0  0  0  0  0
   -5.6615  -15.5639   -3.2428 C   0  0  0  0  0  0  0  0  0  0  0  0
   -4.7422  -14.4384   -3.7153 C   0  0  0  0  0  0  0  0  0  0  0  0
   -6.0970  -11.3442   -2.3265 C   0  0  0  0  0  0  0  0  0  0  0  0
   -7.2887  -10.5574   -2.5697 N   0  0  0  0  0  0  0  0  0  0  0  0
   -3.2307  -11.1795   -0.2418 N   0  0  0  0  0  0  0  0  0  0  0  0
   -2.6762  -13.5915   -1.6885 C   0  0  0  0  0  0  0  0  0  0  0  0
   -1.6045  -13.4857   -2.4706 C   0  0  0  0  0  0  0  0  0  0  0  0
   -0.3739  -14.3266   -2.1458 C   0  0  0  0  0  0  0  0  0  0  0  0
   -0.3913  -15.1561   -1.1149 C   0  0  0  0  0  0  0  0  0  0  0  0
   -1.6235  -15.2722   -0.2368 C   0  0  0  0  0  0  0  0  0  0  0  0
   -2.6855  -14.5464   -0.5094 C   0  0  0  0  0  0  0  0  0  0  0  0
   -4.8283  -17.6558    1.9569 H   0  0  0  0  0  0  0  0  0  0  0  0
   -6.3905  -17.3909    1.1109 H   0  0  0  0  0  0  0  0  0  0  0  0
   -5.6341  -19.0202    1.1109 H   0  0  0  0  0  0  0  0  0  0  0  0
   -3.9493  -16.7942    0.0097 H   0  0  0  0  0  0  0  0  0  0  0  0
   -4.1561  -18.4786   -0.5733 H   0  0  0  0  0  0  0  0  0  0  0  0
   -6.3201  -17.9317   -1.5730 H   0  0  0  0  0  0  0  0  0  0  0  0
   -6.3231  -16.3111   -0.8398 H   0  0  0  0  0  0  0  0  0  0  0  0
   -3.9466  -16.0951   -2.0528 H   0  0  0  0  0  0  0  0  0  0  0  0
   -4.6040  -17.4261   -3.0837 H   0  0  0  0  0  0  0  0  0  0  0  0
   -6.1059  -16.0638   -4.1160 H   0  0  0  0  0  0  0  0  0  0  0  0
   -6.4586  -15.1424   -2.6126 H   0  0  0  0  0  0  0  0  0  0  0  0
   -4.9821  -14.2038   -4.7629 H   0  0  0  0  0  0  0  0  0  0  0  0
   -3.7047  -14.7869   -3.6052 H   0  0  0  0  0  0  0  0  0  0  0  0
   -7.9738  -10.8649   -3.2746 H   0  0  0  0  0  0  0  0  0  0  0  0
   -7.4509   -9.6904   -2.0378 H   0  0  0  0  0  0  0  0  0  0  0  0
   -3.4060  -10.3094    0.2808 H   0  0  0  0  0  0  0  0  0  0  0  0
   -2.3781  -11.7276   -0.0584 H   0  0  0  0  0  0  0  0  0  0  0  0
   -1.6062  -12.8050   -3.3347 H   0  0  0  0  0  0  0  0  0  0  0  0
    0.5287  -14.2433   -2.7690 H   0  0  0  0  0  0  0  0  0  0  0  0
    0.4958  -15.7673   -0.8924 H   0  0  0  0  0  0  0  0  0  0  0  0
   -1.6282  -15.9592    0.6223 H   0  0  0  0  0  0  0  0  0  0  0  0
   -3.5839  -14.6318    0.1195 H   0  0  0  0  0  0  0  0  0  0  0  0
  1  2  2  0
  1  5  1  0
  1 11  1  0
  2  3  1  0
  2 15  1  0
  3  4  2  0
  3 14  1  0
  4 12  1  0
  5 12  2  0
  6  7  1  0
  7  8  1  0
  8  9  1  0
  9 10  1  0
 10 11  1  0
 12 13  1  0
 15 16  2  0
 15 20  1  0
 16 17  1  0
 17 18  2  0
 18 19  1  0
 19 20  2  0
  6 21  1  0
  6 22  1  0
  6 23  1  0
  7 24  1  0
  7 25  1  0
  8 26  1  0
  8 27  1  0
  9 28  1  0
  9 29  1  0
 10 30  1  0
 10 31  1  0
 11 32  1  0
 11 33  1  0
 13 34  1  0
 13 35  1  0
 14 36  1  0
 14 37  1  0
 16 38  1  0
 17 39  1  0
 18 40  1  0
 19 41  1  0
 20 42  1  0
M  END
>  <filename_input>  (13) 
7XI7_4RI_docked.sdf

>  <pdb_id>  (13) 
7XI7_4RI

>  <pose_rank>  (13) 
12

>  <num_atoms_heavy>  (13) 
20

>  <num_torsions>  (13) 
6

>  <pose>  (13) 
[-4.89462882537706, -13.16607588892624, -2.881071713443221, 3.197884829242455, 1.2122297360887748, -1.7376349873964827, 2.7211914749310857, -2.391728240965872, -3.0385248058393284, 1.2437225218851773, 0.4744229032207382, -0.2619730095815157]

>  <energy>  (13) 
-413.1378885474265

>  <inter_energy>  (13) 
-409.89163456433334

>  <intra_energy>  (13) 
7.901078032679981

>  <rmsd>  (13) 
6.79618

>  <sdf_rank>  (13) 
0

$$$$

     RDKit          3D

 42 43  0  0  0  0  0  0  0  0999 V2000
   -3.8844  -12.5568    0.1515 C   0  0  0  0  0  0  0  0  0  0  0  0
   -3.4542  -13.8167    0.4901 C   0  0  0  0  0  0  0  0  0  0  0  0
   -3.2410  -14.1009    1.8313 C   0  0  0  0  0  0  0  0  0  0  0  0
   -3.4689  -13.2059    2.7674 N   0  0  0  0  0  0  0  0  0  0  0  0
   -4.1072  -11.6505    1.0883 N   0  0  0  0  0  0  0  0  0  0  0  0
   -8.0753   -8.6635   -4.6476 C   0  0  0  0  0  0  0  0  0  0  0  0
   -7.6353   -9.9698   -3.9826 C   0  0  0  0  0  0  0  0  0  0  0  0
   -6.3430   -9.7286   -3.2083 C   0  0  0  0  0  0  0  0  0  0  0  0
   -5.7326  -11.0998   -2.9165 C   0  0  0  0  0  0  0  0  0  0  0  0
   -5.3505  -11.2251   -1.4439 C   0  0  0  0  0  0  0  0  0  0  0  0
   -4.1472  -12.1560   -1.3004 C   0  0  0  0  0  0  0  0  0  0  0  0
   -3.8916  -12.0266    2.3405 C   0  0  0  0  0  0  0  0  0  0  0  0
   -4.1365  -11.0080    3.3408 N   0  0  0  0  0  0  0  0  0  0  0  0
   -2.7775  -15.3940    2.2505 N   0  0  0  0  0  0  0  0  0  0  0  0
   -3.1552  -14.9027   -0.5484 C   0  0  0  0  0  0  0  0  0  0  0  0
   -3.9793  -15.9238   -0.7714 C   0  0  0  0  0  0  0  0  0  0  0  0
   -3.5911  -16.9643   -1.8172 C   0  0  0  0  0  0  0  0  0  0  0  0
   -2.4450  -16.8530   -2.4692 C   0  0  0  0  0  0  0  0  0  0  0  0
   -1.5115  -15.6876   -2.1984 C   0  0  0  0  0  0  0  0  0  0  0  0
   -1.8432  -14.7853   -1.3013 C   0  0  0  0  0  0  0  0  0  0  0  0
   -8.3245   -7.9234   -3.8729 H   0  0  0  0  0  0  0  0  0  0  0  0
   -7.2576   -8.2774   -5.2740 H   0  0  0  0  0  0  0  0  0  0  0  0
   -8.9599   -8.8507   -5.2740 H   0  0  0  0  0  0  0  0  0  0  0  0
   -8.4194  -10.3131   -3.2918 H   0  0  0  0  0  0  0  0  0  0  0  0
   -7.4670  -10.7376   -4.7522 H   0  0  0  0  0  0  0  0  0  0  0  0
   -5.6478   -9.1267   -3.8120 H   0  0  0  0  0  0  0  0  0  0  0  0
   -6.5415   -9.1813   -2.2750 H   0  0  0  0  0  0  0  0  0  0  0  0
   -6.4661  -11.8807   -3.1657 H   0  0  0  0  0  0  0  0  0  0  0  0
   -4.8243  -11.2165   -3.5259 H   0  0  0  0  0  0  0  0  0  0  0  0
   -5.0936  -10.2318   -1.0472 H   0  0  0  0  0  0  0  0  0  0  0  0
   -6.2003  -11.6395   -0.8815 H   0  0  0  0  0  0  0  0  0  0  0  0
   -3.2561  -11.6429   -1.6912 H   0  0  0  0  0  0  0  0  0  0  0  0
   -4.3667  -13.0741   -1.8652 H   0  0  0  0  0  0  0  0  0  0  0  0
   -4.4664  -10.0748    3.0555 H   0  0  0  0  0  0  0  0  0  0  0  0
   -3.9808  -11.2168    4.3373 H   0  0  0  0  0  0  0  0  0  0  0  0
   -2.6246  -15.5871    3.2506 H   0  0  0  0  0  0  0  0  0  0  0  0
   -2.5978  -16.1284    1.5509 H   0  0  0  0  0  0  0  0  0  0  0  0
   -4.9221  -16.0156   -0.2123 H   0  0  0  0  0  0  0  0  0  0  0  0
   -4.2645  -17.8078   -2.0295 H   0  0  0  0  0  0  0  0  0  0  0  0
   -2.1663  -17.6124   -3.2146 H   0  0  0  0  0  0  0  0  0  0  0  0
   -0.5635  -15.5982   -2.7491 H   0  0  0  0  0  0  0  0  0  0  0  0
   -1.1670  -13.9423   -1.0960 H   0  0  0  0  0  0  0  0  0  0  0  0
  1  2  2  0
  1  5  1  0
  1 11  1  0
  2  3  1  0
  2 15  1  0
  3  4  2  0
  3 14  1  0
  4 12  1  0
  5 12  2  0
  6  7  1  0
  7  8  1  0
  8  9  1  0
  9 10  1  0
 10 11  1  0
 12 13  1  0
 15 16  2  0
 15 20  1  0
 16 17  1  0
 17 18  2  0
 18 19  1  0
 19 20  2  0
  6 21  1  0
  6 22  1  0
  6 23  1  0
  7 24  1  0
  7 25  1  0
  8 26  1  0
  8 27  1  0
  9 28  1  0
  9 29  1  0
 10 30  1  0
 10 31  1  0
 11 32  1  0
 11 33  1  0
 13 34  1  0
 13 35  1  0
 14 36  1  0
 14 37  1  0
 16 38  1  0
 17 39  1  0
 18 40  1  0
 19 41  1  0
 20 42  1  0
M  END
>  <filename_input>  (14) 
7XI7_4RI_docked.sdf

>  <pdb_id>  (14) 
7XI7_4RI

>  <pose_rank>  (14) 
13

>  <num_atoms_heavy>  (14) 
20

>  <num_torsions>  (14) 
6

>  <pose>  (14) 
[-3.8844100461422006, -12.55680796579226, 0.15153551255369727, 4.946557276300535, 1.3007817103087922, -0.12181531060736311, -0.4952081008122428, -1.7158801445542304, 2.093736170310783, -3.8425794706046004, -5.370433541795281, 0.16059642914883576]

>  <energy>  (14) 
-420.4088203358505

>  <inter_energy>  (14) 
-423.65540883469544

>  <intra_energy>  (14) 
7.695384632687915

>  <rmsd>  (14) 
5.41514

>  <sdf_rank>  (14) 
0

$$$$

     RDKit          3D

 42 43  0  0  0  0  0  0  0  0999 V2000
   -3.4932  -17.2097    1.8109 C   0  0  0  0  0  0  0  0  0  0  0  0
   -3.3754  -18.2894    0.9697 C   0  0  0  0  0  0  0  0  0  0  0  0
   -3.1503  -19.5385    1.5300 C   0  0  0  0  0  0  0  0  0  0  0  0
   -3.0787  -19.7040    2.8325 N   0  0  0  0  0  0  0  0  0  0  0  0
   -3.4138  -17.3693    3.1211 N   0  0  0  0  0  0  0  0  0  0  0  0
    1.0983  -13.5253    0.7432 C   0  0  0  0  0  0  0  0  0  0  0  0
   -0.2479  -13.4857    0.0164 C   0  0  0  0  0  0  0  0  0  0  0  0
   -1.3281  -13.0148    0.9855 C   0  0  0  0  0  0  0  0  0  0  0  0
   -2.6366  -13.6790    0.5557 C   0  0  0  0  0  0  0  0  0  0  0  0
   -2.5157  -15.2002    0.5965 C   0  0  0  0  0  0  0  0  0  0  0  0
   -3.7441  -15.7972    1.2820 C   0  0  0  0  0  0  0  0  0  0  0  0
   -3.2158  -18.6049    3.5571 C   0  0  0  0  0  0  0  0  0  0  0  0
   -3.1247  -18.7435    4.9961 N   0  0  0  0  0  0  0  0  0  0  0  0
   -3.0033  -20.7052    0.7053 N   0  0  0  0  0  0  0  0  0  0  0  0
   -3.4341  -18.1674   -0.5564 C   0  0  0  0  0  0  0  0  0  0  0  0
   -2.4077  -18.4928   -1.3388 C   0  0  0  0  0  0  0  0  0  0  0  0
   -2.5543  -18.3257   -2.8479 C   0  0  0  0  0  0  0  0  0  0  0  0
   -3.6786  -17.8467   -3.3555 C   0  0  0  0  0  0  0  0  0  0  0  0
   -4.8376  -17.4721   -2.4503 C   0  0  0  0  0  0  0  0  0  0  0  0
   -4.7184  -17.6184   -1.1491 C   0  0  0  0  0  0  0  0  0  0  0  0
    0.9286  -13.5203    1.8300 H   0  0  0  0  0  0  0  0  0  0  0  0
    1.6407  -14.4398    0.4610 H   0  0  0  0  0  0  0  0  0  0  0  0
    1.6934  -12.6442    0.4610 H   0  0  0  0  0  0  0  0  0  0  0  0
   -0.1870  -12.7895   -0.8331 H   0  0  0  0  0  0  0  0  0  0  0  0
   -0.4971  -14.4909   -0.3545 H   0  0  0  0  0  0  0  0  0  0  0  0
   -1.0715  -13.3156    2.0120 H   0  0  0  0  0  0  0  0  0  0  0  0
   -1.4204  -11.9189    0.9673 H   0  0  0  0  0  0  0  0  0  0  0  0
   -3.4410  -13.3635    1.2364 H   0  0  0  0  0  0  0  0  0  0  0  0
   -2.8633  -13.3725   -0.4761 H   0  0  0  0  0  0  0  0  0  0  0  0
   -2.4450  -15.5889   -0.4301 H   0  0  0  0  0  0  0  0  0  0  0  0
   -1.6132  -15.4785    1.1603 H   0  0  0  0  0  0  0  0  0  0  0  0
   -4.5696  -15.8342    0.5560 H   0  0  0  0  0  0  0  0  0  0  0  0
   -3.9894  -15.1576    2.1427 H   0  0  0  0  0  0  0  0  0  0  0  0
   -3.2252  -17.9156    5.6006 H   0  0  0  0  0  0  0  0  0  0  0  0
   -2.9595  -19.6700    5.4148 H   0  0  0  0  0  0  0  0  0  0  0  0
   -2.8366  -21.6246    1.1388 H   0  0  0  0  0  0  0  0  0  0  0  0
   -3.0646  -20.6225   -0.3195 H   0  0  0  0  0  0  0  0  0  0  0  0
   -1.4716  -18.8749   -0.9054 H   0  0  0  0  0  0  0  0  0  0  0  0
   -1.7248  -18.6036   -3.5148 H   0  0  0  0  0  0  0  0  0  0  0  0
   -3.7740  -17.7189   -4.4439 H   0  0  0  0  0  0  0  0  0  0  0  0
   -5.7715  -17.0807   -2.8801 H   0  0  0  0  0  0  0  0  0  0  0  0
   -5.5527  -17.3418   -0.4877 H   0  0  0  0  0  0  0  0  0  0  0  0
  1  2  2  0
  1  5  1  0
  1 11  1  0
  2  3  1  0
  2 15  1  0
  3  4  2  0
  3 14  1  0
  4 12  1  0
  5 12  2  0
  6  7  1  0
  7  8  1  0
  8  9  1  0
  9 10  1  0
 10 11  1  0
 12 13  1  0
 15 16  2  0
 15 20  1  0
 16 17  1  0
 17 18  2  0
 18 19  1  0
 19 20  2  0
  6 21  1  0
  6 22  1  0
  6 23  1  0
  7 24  1  0
  7 25  1  0
  8 26  1  0
  8 27  1  0
  9 28  1  0
  9 29  1  0
 10 30  1  0
 10 31  1  0
 11 32  1  0
 11 33  1  0
 13 34  1  0
 13 35  1  0
 14 36  1  0
 14 37  1  0
 16 38  1  0
 17 39  1  0
 18 40  1  0
 19 41  1  0
 20 42  1  0
M  END
>  <filename_input>  (15) 
7XI7_4RI_docked.sdf

>  <pdb_id>  (15) 
7XI7_4RI

>  <pose_rank>  (15) 
14

>  <num_atoms_heavy>  (15) 
20

>  <num_torsions>  (15) 
6

>  <pose>  (15) 
[-3.493244044636778, -17.20972061000143, 1.8108981937925397, 31.117109276796192, 1.1456675489033121, 20.691177491046474, 15.943727992599694, 25.945166974746037, 21.099299773467713, -11.459799461183714, 4.236784523880395, -5.875655897578281]

>  <energy>  (15) 
-834.0336782607002

>  <inter_energy>  (15) 
-902.5103149903093

>  <intra_energy>  (15) 
30.420189641878082

>  <rmsd>  (15) 
1.34911

>  <sdf_rank>  (15) 
0

$$$$

     RDKit          3D

 42 43  0  0  0  0  0  0  0  0999 V2000
    5.6260  -22.2727   -4.4502 C   0  0  0  0  0  0  0  0  0  0  0  0
    5.7774  -22.3444   -3.0867 C   0  0  0  0  0  0  0  0  0  0  0  0
    5.6947  -23.5895   -2.4801 C   0  0  0  0  0  0  0  0  0  0  0  0
    5.5060  -24.6846   -3.1832 N   0  0  0  0  0  0  0  0  0  0  0  0
    5.4277  -23.3699   -5.1610 N   0  0  0  0  0  0  0  0  0  0  0  0
    6.1449  -16.2934   -7.6748 C   0  0  0  0  0  0  0  0  0  0  0  0
    6.9307  -17.5627   -8.0117 C   0  0  0  0  0  0  0  0  0  0  0  0
    6.2274  -18.7676   -7.3941 C   0  0  0  0  0  0  0  0  0  0  0  0
    7.2502  -19.4774   -6.5065 C   0  0  0  0  0  0  0  0  0  0  0  0
    6.8302  -20.9198   -6.2357 C   0  0  0  0  0  0  0  0  0  0  0  0
    5.7042  -20.9441   -5.2029 C   0  0  0  0  0  0  0  0  0  0  0  0
    5.3833  -24.5115   -4.4896 C   0  0  0  0  0  0  0  0  0  0  0  0
    5.1560  -25.6927   -5.2967 N   0  0  0  0  0  0  0  0  0  0  0  0
    5.8295  -23.7312   -1.0573 N   0  0  0  0  0  0  0  0  0  0  0  0
    5.9852  -21.1089   -2.2050 C   0  0  0  0  0  0  0  0  0  0  0  0
    7.1515  -20.8327   -1.6262 C   0  0  0  0  0  0  0  0  0  0  0  0
    7.2602  -19.5856   -0.7544 C   0  0  0  0  0  0  0  0  0  0  0  0
    6.2025  -18.8122   -0.5692 C   0  0  0  0  0  0  0  0  0  0  0  0
    4.8769  -19.1444   -1.2290 C   0  0  0  0  0  0  0  0  0  0  0  0
    4.7787  -20.2156   -1.9852 C   0  0  0  0  0  0  0  0  0  0  0  0
    6.0769  -16.1834   -6.5824 H   0  0  0  0  0  0  0  0  0  0  0  0
    6.6602  -15.4194   -8.0999 H   0  0  0  0  0  0  0  0  0  0  0  0
    5.1329  -16.3649   -8.0999 H   0  0  0  0  0  0  0  0  0  0  0  0
    6.9803  -17.6856   -9.1037 H   0  0  0  0  0  0  0  0  0  0  0  0
    7.9509  -17.4836   -7.6081 H   0  0  0  0  0  0  0  0  0  0  0  0
    5.3697  -18.4356   -6.7906 H   0  0  0  0  0  0  0  0  0  0  0  0
    5.8497  -19.4439   -8.1751 H   0  0  0  0  0  0  0  0  0  0  0  0
    8.2275  -19.4759   -7.0114 H   0  0  0  0  0  0  0  0  0  0  0  0
    7.3122  -18.9438   -5.5466 H   0  0  0  0  0  0  0  0  0  0  0  0
    6.4782  -21.3797   -7.1709 H   0  0  0  0  0  0  0  0  0  0  0  0
    7.6918  -21.4830   -5.8480 H   0  0  0  0  0  0  0  0  0  0  0  0
    4.7481  -20.7751   -5.7199 H   0  0  0  0  0  0  0  0  0  0  0  0
    5.9113  -20.1548   -4.4653 H   0  0  0  0  0  0  0  0  0  0  0  0
    5.0543  -25.6069   -6.3180 H   0  0  0  0  0  0  0  0  0  0  0  0
    5.0961  -26.6185   -4.8492 H   0  0  0  0  0  0  0  0  0  0  0  0
    5.7654  -24.6636   -0.6242 H   0  0  0  0  0  0  0  0  0  0  0  0
    5.9905  -22.9005   -0.4699 H   0  0  0  0  0  0  0  0  0  0  0  0
    8.0203  -21.4911   -1.7736 H   0  0  0  0  0  0  0  0  0  0  0  0
    8.2186  -19.3290   -0.2794 H   0  0  0  0  0  0  0  0  0  0  0  0
    6.2850  -17.9201    0.0690 H   0  0  0  0  0  0  0  0  0  0  0  0
    4.0037  -18.4931   -1.0757 H   0  0  0  0  0  0  0  0  0  0  0  0
    3.8184  -20.4650   -2.4601 H   0  0  0  0  0  0  0  0  0  0  0  0
  1  2  2  0
  1  5  1  0
  1 11  1  0
  2  3  1  0
  2 15  1  0
  3  4  2  0
  3 14  1  0
  4 12  1  0
  5 12  2  0
  6  7  1  0
  7  8  1  0
  8  9  1  0
  9 10  1  0
 10 11  1  0
 12 13  1  0
 15 16  2  0
 15 20  1  0
 16 17  1  0
 17 18  2  0
 18 19  1  0
 19 20  2  0
  6 21  1  0
  6 22  1  0
  6 23  1  0
  7 24  1  0
  7 25  1  0
  8 26  1  0
  8 27  1  0
  9 28  1  0
  9 29  1  0
 10 30  1  0
 10 31  1  0
 11 32  1  0
 11 33  1  0
 13 34  1  0
 13 35  1  0
 14 36  1  0
 14 37  1  0
 16 38  1  0
 17 39  1  0
 18 40  1  0
 19 41  1  0
 20 42  1  0
M  END
>  <filename_input>  (16) 
7XI7_4RI_docked.sdf

>  <pdb_id>  (16) 
7XI7_4RI

>  <pose_rank>  (16) 
15

>  <num_atoms_heavy>  (16) 
20

>  <num_torsions>  (16) 
6

>  <pose>  (16) 
[5.625964252244765, -22.27272666728377, -4.450219321797926, -0.40462290771215254, 3.2186582197775264, -0.9651966747276035, -0.5672583555628626, 10.44368981409819, 2.311127723990907, -2.557309187508529, 0.4003805751290272, 0.8548710697131686]

>  <energy>  (16) 
-130.77421768878824

>  <inter_energy>  (16) 
-138.11942660479357

>  <intra_energy>  (16) 
10.64002150725053

>  <rmsd>  (16) 
11.7169

>  <sdf_rank>  (16) 
0

$$$$

     RDKit          3D

 42 43  0  0  0  0  0  0  0  0999 V2000
    5.4647   -9.0635    7.3724 C   0  0  0  0  0  0  0  0  0  0  0  0
    5.9478   -9.6925    6.2508 C   0  0  0  0  0  0  0  0  0  0  0  0
    6.6465  -10.8803    6.4119 C   0  0  0  0  0  0  0  0  0  0  0  0
    6.8237  -11.4170    7.5992 N   0  0  0  0  0  0  0  0  0  0  0  0
    5.6473   -9.5946    8.5695 N   0  0  0  0  0  0  0  0  0  0  0  0
   -1.0651   -6.4356    8.4664 C   0  0  0  0  0  0  0  0  0  0  0  0
    0.4561   -6.5394    8.5985 C   0  0  0  0  0  0  0  0  0  0  0  0
    0.9148   -7.8951    8.0698 C   0  0  0  0  0  0  0  0  0  0  0  0
    2.4198   -7.9891    8.3226 C   0  0  0  0  0  0  0  0  0  0  0  0
    3.1962   -7.9727    7.0084 C   0  0  0  0  0  0  0  0  0  0  0  0
    4.6820   -7.7526    7.2896 C   0  0  0  0  0  0  0  0  0  0  0  0
    6.3110  -10.7406    8.6149 C   0  0  0  0  0  0  0  0  0  0  0  0
    6.5013  -11.2905    9.9414 N   0  0  0  0  0  0  0  0  0  0  0  0
    7.1899  -11.5798    5.2814 N   0  0  0  0  0  0  0  0  0  0  0  0
    5.7905   -9.1172    4.8395 C   0  0  0  0  0  0  0  0  0  0  0  0
    6.6954   -8.3084    4.2931 C   0  0  0  0  0  0  0  0  0  0  0  0
    6.4467   -7.7742    2.8861 C   0  0  0  0  0  0  0  0  0  0  0  0
    5.3391   -8.1004    2.2396 C   0  0  0  0  0  0  0  0  0  0  0  0
    4.3124   -9.0171    2.8786 C   0  0  0  0  0  0  0  0  0  0  0  0
    4.5238   -9.4841    4.0894 C   0  0  0  0  0  0  0  0  0  0  0  0
   -1.5188   -6.4047    9.4680 H   0  0  0  0  0  0  0  0  0  0  0  0
   -1.3238   -5.5178    7.9182 H   0  0  0  0  0  0  0  0  0  0  0  0
   -1.4460   -7.3099    7.9182 H   0  0  0  0  0  0  0  0  0  0  0  0
    0.9315   -5.7371    8.0151 H   0  0  0  0  0  0  0  0  0  0  0  0
    0.7428   -6.4390    9.6557 H   0  0  0  0  0  0  0  0  0  0  0  0
    0.3915   -8.7040    8.6006 H   0  0  0  0  0  0  0  0  0  0  0  0
    0.6905   -7.9939    6.9974 H   0  0  0  0  0  0  0  0  0  0  0  0
    2.7356   -7.1336    8.9379 H   0  0  0  0  0  0  0  0  0  0  0  0
    2.6299   -8.9354    8.8426 H   0  0  0  0  0  0  0  0  0  0  0  0
    3.0605   -8.9343    6.4917 H   0  0  0  0  0  0  0  0  0  0  0  0
    2.8210   -7.1560    6.3742 H   0  0  0  0  0  0  0  0  0  0  0  0
    4.7845   -7.2199    8.2465 H   0  0  0  0  0  0  0  0  0  0  0  0
    5.0965   -7.1691    6.4543 H   0  0  0  0  0  0  0  0  0  0  0  0
    6.1200  -10.7989   10.7622 H   0  0  0  0  0  0  0  0  0  0  0  0
    7.0179  -12.1731   10.0637 H   0  0  0  0  0  0  0  0  0  0  0  0
    7.7058  -12.4605    5.4200 H   0  0  0  0  0  0  0  0  0  0  0  0
    7.0638  -11.2009    4.3320 H   0  0  0  0  0  0  0  0  0  0  0  0
    7.6051   -8.0305    4.8456 H   0  0  0  0  0  0  0  0  0  0  0  0
    7.1886   -7.1173    2.4086 H   0  0  0  0  0  0  0  0  0  0  0  0
    5.1610   -7.7033    1.2293 H   0  0  0  0  0  0  0  0  0  0  0  0
    3.3971   -9.2890    2.3324 H   0  0  0  0  0  0  0  0  0  0  0  0
    3.7795  -10.1433    4.5602 H   0  0  0  0  0  0  0  0  0  0  0  0
  1  2  2  0
  1  5  1  0
  1 11  1  0
  2  3  1  0
  2 15  1  0
  3  4  2  0
  3 14  1  0
  4 12  1  0
  5 12  2  0
  6  7  1  0
  7  8  1  0
  8  9  1  0
  9 10  1  0
 10 11  1  0
 12 13  1  0
 15 16  2  0
 15 20  1  0
 16 17  1  0
 17 18  2  0
 18 19  1  0
 19 20  2  0
  6 21  1  0
  6 22  1  0
  6 23  1  0
  7 24  1  0
  7 25  1  0
  8 26  1  0
  8 27  1  0
  9 28  1  0
  9 29  1  0
 10 30  1  0
 10 31  1  0
 11 32  1  0
 11 33  1  0
 13 34  1  0
 13 35  1  0
 14 36  1  0
 14 37  1  0
 16 38  1  0
 17 39  1  0
 18 40  1  0
 19 41  1  0
 20 42  1  0
M  END
>  <filename_input>  (17) 
7XI7_4RI_docked.sdf

>  <pdb_id>  (17) 
7XI7_4RI

>  <pose_rank>  (17) 
16

>  <num_atoms_heavy>  (17) 
20

>  <num_torsions>  (17) 
6

>  <pose>  (17) 
[5.464674616671391, -9.063535257322245, 7.372428900261647, -2.015373276651431, 1.506325119211031, -5.507456453020796, 2.9041990716689057, -21.587902578261584, 12.970688526444107, -17.160049976410754, -5.0446518582715125, -0.04921667880824339]

>  <energy>  (17) 
-177.5610414946315

>  <inter_energy>  (17) 
-174.50120671277597

>  <intra_energy>  (17) 
7.327510481359016

>  <rmsd>  (17) 
12.548

>  <sdf_rank>  (17) 
0

$$$$

     RDKit          3D

 42 43  0  0  0  0  0  0  0  0999 V2000
    5.7636  -23.5332   -1.9919 C   0  0  0  0  0  0  0  0  0  0  0  0
    6.0285  -24.3070   -3.0956 C   0  0  0  0  0  0  0  0  0  0  0  0
    6.4738  -25.6059   -2.8971 C   0  0  0  0  0  0  0  0  0  0  0  0
    6.6150  -26.1062   -1.6892 N   0  0  0  0  0  0  0  0  0  0  0  0
    5.9120  -24.0287   -0.7750 N   0  0  0  0  0  0  0  0  0  0  0  0
    7.3317  -18.3762   -4.3152 C   0  0  0  0  0  0  0  0  0  0  0  0
    6.0085  -18.9977   -4.7679 C   0  0  0  0  0  0  0  0  0  0  0  0
    5.5761  -20.0525   -3.7537 C   0  0  0  0  0  0  0  0  0  0  0  0
    6.6271  -20.0641   -2.6432 C   0  0  0  0  0  0  0  0  0  0  0  0
    6.2658  -21.0776   -1.5603 C   0  0  0  0  0  0  0  0  0  0  0  0
    5.2673  -22.0923   -2.1157 C   0  0  0  0  0  0  0  0  0  0  0  0
    6.3241  -25.2854   -0.6926 C   0  0  0  0  0  0  0  0  0  0  0  0
    6.4847  -25.7943    0.6541 N   0  0  0  0  0  0  0  0  0  0  0  0
    6.7822  -26.4618   -4.0085 N   0  0  0  0  0  0  0  0  0  0  0  0
    5.8996  -23.7847   -4.5302 C   0  0  0  0  0  0  0  0  0  0  0  0
    4.7913  -23.9411   -5.2503 C   0  0  0  0  0  0  0  0  0  0  0  0
    4.7602  -23.3984   -6.6755 C   0  0  0  0  0  0  0  0  0  0  0  0
    5.8282  -22.8028   -7.1813 C   0  0  0  0  0  0  0  0  0  0  0  0
    7.0879  -22.6390   -6.3511 C   0  0  0  0  0  0  0  0  0  0  0  0
    7.1187  -23.1009   -5.1204 C   0  0  0  0  0  0  0  0  0  0  0  0
    7.3711  -18.3577   -3.2160 H   0  0  0  0  0  0  0  0  0  0  0  0
    8.1694  -18.9750   -4.7020 H   0  0  0  0  0  0  0  0  0  0  0  0
    7.4057  -17.3492   -4.7020 H   0  0  0  0  0  0  0  0  0  0  0  0
    5.2385  -18.2150   -4.8354 H   0  0  0  0  0  0  0  0  0  0  0  0
    6.1388  -19.4658   -5.7548 H   0  0  0  0  0  0  0  0  0  0  0  0
    4.5907  -19.7951   -3.3382 H   0  0  0  0  0  0  0  0  0  0  0  0
    5.4954  -21.0420   -4.2275 H   0  0  0  0  0  0  0  0  0  0  0  0
    7.6033  -20.3307   -3.0744 H   0  0  0  0  0  0  0  0  0  0  0  0
    6.6678  -19.0636   -2.1880 H   0  0  0  0  0  0  0  0  0  0  0  0
    7.1755  -21.6019   -1.2323 H   0  0  0  0  0  0  0  0  0  0  0  0
    5.8136  -20.5520   -0.7064 H   0  0  0  0  0  0  0  0  0  0  0  0
    5.0931  -21.8697   -3.1788 H   0  0  0  0  0  0  0  0  0  0  0  0
    4.3422  -22.0065   -1.5267 H   0  0  0  0  0  0  0  0  0  0  0  0
    6.2703  -25.1916    1.4614 H   0  0  0  0  0  0  0  0  0  0  0  0
    6.8134  -26.7588    0.8044 H   0  0  0  0  0  0  0  0  0  0  0  0
    7.1116  -27.4234   -3.8420 H   0  0  0  0  0  0  0  0  0  0  0  0
    6.6740  -26.1140   -4.9719 H   0  0  0  0  0  0  0  0  0  0  0  0
    3.9145  -24.4521   -4.8258 H   0  0  0  0  0  0  0  0  0  0  0  0
    3.8492  -23.5021   -7.2833 H   0  0  0  0  0  0  0  0  0  0  0  0
    5.8026  -22.4229   -8.2133 H   0  0  0  0  0  0  0  0  0  0  0  0
    7.9696  -22.1370   -6.7762 H   0  0  0  0  0  0  0  0  0  0  0  0
    8.0316  -22.9911   -4.5166 H   0  0  0  0  0  0  0  0  0  0  0  0
  1  2  2  0
  1  5  1  0
  1 11  1  0
  2  3  1  0
  2 15  1  0
  3  4  2  0
  3 14  1  0
  4 12  1  0
  5 12  2  0
  6  7  1  0
  7  8  1  0
  8  9  1  0
  9 10  1  0
 10 11  1  0
 12 13  1  0
 15 16  2  0
 15 20  1  0
 16 17  1  0
 17 18  2  0
 18 19  1  0
 19 20  2  0
  6 21  1  0
  6 22  1  0
  6 23  1  0
  7 24  1  0
  7 25  1  0
  8 26  1  0
  8 27  1  0
  9 28  1  0
  9 29  1  0
 10 30  1  0
 10 31  1  0
 11 32  1  0
 11 33  1  0
 13 34  1  0
 13 35  1  0
 14 36  1  0
 14 37  1  0
 16 38  1  0
 17 39  1  0
 18 40  1  0
 19 41  1  0
 20 42  1  0
M  END
>  <filename_input>  (18) 
7XI7_4RI_docked.sdf

>  <pdb_id>  (18) 
7XI7_4RI

>  <pose_rank>  (18) 
17

>  <num_atoms_heavy>  (18) 
20

>  <num_torsions>  (18) 
6

>  <pose>  (18) 
[5.763632532304551, -23.533180106010125, -1.9918859496950856, -5.960691661456117, -1.0111955508186827, 1.6404449335015834, -0.31168217310278856, 0.057343838107198286, 0.898577968660947, -0.89264573385626, 0.03632046254180189, 3.0397384400524894]

>  <energy>  (18) 
-94.47802306836934

>  <inter_energy>  (18) 
-90.3643778897956

>  <intra_energy>  (18) 
4.034234275536246

>  <rmsd>  (18) 
11.861

>  <sdf_rank>  (18) 
0

$$$$

     RDKit          3D

 42 43  0  0  0  0  0  0  0  0999 V2000
    4.8509  -18.9008   -4.1911 C   0  0  0  0  0  0  0  0  0  0  0  0
    5.6610  -19.9651   -3.8779 C   0  0  0  0  0  0  0  0  0  0  0  0
    6.5459  -20.4248   -4.8427 C   0  0  0  0  0  0  0  0  0  0  0  0
    6.6381  -19.8474   -6.0205 N   0  0  0  0  0  0  0  0  0  0  0  0
    4.9338  -18.3218   -5.3770 N   0  0  0  0  0  0  0  0  0  0  0  0
   -1.4828  -16.2261   -2.1889 C   0  0  0  0  0  0  0  0  0  0  0  0
   -0.6519  -17.1917   -3.0371 C   0  0  0  0  0  0  0  0  0  0  0  0
    0.8306  -16.9278   -2.7913 C   0  0  0  0  0  0  0  0  0  0  0  0
    1.5972  -17.5589   -3.9541 C   0  0  0  0  0  0  0  0  0  0  0  0
    2.4123  -18.7603   -3.4826 C   0  0  0  0  0  0  0  0  0  0  0  0
    3.8481  -18.3268   -3.1897 C   0  0  0  0  0  0  0  0  0  0  0  0
    5.8235  -18.8238   -6.2211 C   0  0  0  0  0  0  0  0  0  0  0  0
    5.8825  -18.1726   -7.5136 N   0  0  0  0  0  0  0  0  0  0  0  0
    7.4098  -21.5425   -4.5838 N   0  0  0  0  0  0  0  0  0  0  0  0
    5.5967  -20.6939   -2.5318 C   0  0  0  0  0  0  0  0  0  0  0  0
    4.7609  -21.7049   -2.3063 C   0  0  0  0  0  0  0  0  0  0  0  0
    4.7590  -22.3614   -0.9294 C   0  0  0  0  0  0  0  0  0  0  0  0
    5.5637  -21.9120    0.0202 C   0  0  0  0  0  0  0  0  0  0  0  0
    6.5054  -20.7529   -0.2490 C   0  0  0  0  0  0  0  0  0  0  0  0
    6.5145  -20.1862   -1.4355 C   0  0  0  0  0  0  0  0  0  0  0  0
   -1.3069  -16.4305   -1.1225 H   0  0  0  0  0  0  0  0  0  0  0  0
   -1.1885  -15.1911   -2.4173 H   0  0  0  0  0  0  0  0  0  0  0  0
   -2.5501  -16.3628   -2.4173 H   0  0  0  0  0  0  0  0  0  0  0  0
   -0.8925  -18.2278   -2.7570 H   0  0  0  0  0  0  0  0  0  0  0  0
   -0.8824  -17.0401   -4.1020 H   0  0  0  0  0  0  0  0  0  0  0  0
    1.0208  -15.8449   -2.7572 H   0  0  0  0  0  0  0  0  0  0  0  0
    1.1514  -17.3579   -1.8310 H   0  0  0  0  0  0  0  0  0  0  0  0
    0.8807  -17.8886   -4.7208 H   0  0  0  0  0  0  0  0  0  0  0  0
    2.2861  -16.8082   -4.3688 H   0  0  0  0  0  0  0  0  0  0  0  0
    1.9610  -19.1718   -2.5677 H   0  0  0  0  0  0  0  0  0  0  0  0
    2.4175  -19.5282   -4.2702 H   0  0  0  0  0  0  0  0  0  0  0  0
    4.1212  -18.6705   -2.1811 H   0  0  0  0  0  0  0  0  0  0  0  0
    3.8881  -17.2304   -3.2691 H   0  0  0  0  0  0  0  0  0  0  0  0
    5.2672  -17.3715   -7.7153 H   0  0  0  0  0  0  0  0  0  0  0  0
    6.5398  -18.5105   -8.2310 H   0  0  0  0  0  0  0  0  0  0  0  0
    8.0604  -21.8701   -5.3120 H   0  0  0  0  0  0  0  0  0  0  0  0
    7.3787  -22.0166   -3.6699 H   0  0  0  0  0  0  0  0  0  0  0  0
    4.0846  -22.0603   -3.0977 H   0  0  0  0  0  0  0  0  0  0  0  0
    4.0881  -23.2090   -0.7257 H   0  0  0  0  0  0  0  0  0  0  0  0
    5.5498  -22.3831    1.0141 H   0  0  0  0  0  0  0  0  0  0  0  0
    7.1760  -20.3890    0.5434 H   0  0  0  0  0  0  0  0  0  0  0  0
    7.1901  -19.3411   -1.6340 H   0  0  0  0  0  0  0  0  0  0  0  0
  1  2  2  0
  1  5  1  0
  1 11  1  0
  2  3  1  0
  2 15  1  0
  3  4  2  0
  3 14  1  0
  4 12  1  0
  5 12  2  0
  6  7  1  0
  7  8  1  0
  8  9  1  0
  9 10  1  0
 10 11  1  0
 12 13  1  0
 15 16  2  0
 15 20  1  0
 16 17  1  0
 17 18  2  0
 18 19  1  0
 19 20  2  0
  6 21  1  0
  6 22  1  0
  6 23  1  0
  7 24  1  0
  7 25  1  0
  8 26  1  0
  8 27  1  0
  9 28  1  0
  9 29  1  0
 10 30  1  0
 10 31  1  0
 11 32  1  0
 11 33  1  0
 13 34  1  0
 13 35  1  0
 14 36  1  0
 14 37  1  0
 16 38  1  0
 17 39  1  0
 18 40  1  0
 19 41  1  0
 20 42  1  0
M  END
>  <filename_input>  (19) 
7XI7_4RI_docked.sdf

>  <pdb_id>  (19) 
7XI7_4RI

>  <pose_rank>  (19) 
18

>  <num_atoms_heavy>  (19) 
20

>  <num_torsions>  (19) 
6

>  <pose>  (19) 
[4.8509120966631665, -18.900798325992497, -4.191140370138268, 1.750678011439008, -2.5843288046758324, -1.1737505596287925, 9.132006773894817, 19.12626454922463, 21.940081594778043, 3.3803392961073513, 1.2495982170666051, -6.088652594609231]

>  <energy>  (19) 
-99.62398613400265

>  <inter_energy>  (19) 
-106.85703068745325

>  <intra_energy>  (19) 
3.406858403426853

>  <rmsd>  (19) 
10.305

>  <sdf_rank>  (19) 
0

$$$$

     RDKit          3D

 42 43  0  0  0  0  0  0  0  0999 V2000
    6.1719  -21.1834    3.7170 C   0  0  0  0  0  0  0  0  0  0  0  0
    6.5032  -22.0292    2.6864 C   0  0  0  0  0  0  0  0  0  0  0  0
    7.0136  -23.2805    3.0003 C   0  0  0  0  0  0  0  0  0  0  0  0
    7.1544  -23.6713    4.2480 N   0  0  0  0  0  0  0  0  0  0  0  0
    6.3193  -21.5683    4.9734 N   0  0  0  0  0  0  0  0  0  0  0  0
    6.4227  -15.4023    6.4480 C   0  0  0  0  0  0  0  0  0  0  0  0
    6.1664  -16.8202    6.9638 C   0  0  0  0  0  0  0  0  0  0  0  0
    7.1064  -17.7902    6.2543 C   0  0  0  0  0  0  0  0  0  0  0  0
    6.5968  -17.9407    4.8206 C   0  0  0  0  0  0  0  0  0  0  0  0
    5.4690  -18.9668    4.7469 C   0  0  0  0  0  0  0  0  0  0  0  0
    5.6011  -19.7875    3.4647 C   0  0  0  0  0  0  0  0  0  0  0  0
    6.7969  -22.7890    5.1675 C   0  0  0  0  0  0  0  0  0  0  0  0
    6.9544  -23.1759    6.5545 N   0  0  0  0  0  0  0  0  0  0  0  0
    7.3929  -24.2062    1.9698 N   0  0  0  0  0  0  0  0  0  0  0  0
    6.3787  -21.6344    1.2113 C   0  0  0  0  0  0  0  0  0  0  0  0
    7.4146  -21.1970    0.4992 C   0  0  0  0  0  0  0  0  0  0  0  0
    7.1917  -20.8149   -0.9607 C   0  0  0  0  0  0  0  0  0  0  0  0
    5.9827  -20.9024   -1.4915 C   0  0  0  0  0  0  0  0  0  0  0  0
    4.8093  -21.3951   -0.6649 C   0  0  0  0  0  0  0  0  0  0  0  0
    4.9965  -21.7302    0.5927 C   0  0  0  0  0  0  0  0  0  0  0  0
    6.5463  -14.7187    7.3009 H   0  0  0  0  0  0  0  0  0  0  0  0
    7.3369  -15.3943    5.8362 H   0  0  0  0  0  0  0  0  0  0  0  0
    5.5692  -15.0748    5.8362 H   0  0  0  0  0  0  0  0  0  0  0  0
    6.3504  -16.8562    8.0477 H   0  0  0  0  0  0  0  0  0  0  0  0
    5.1227  -17.1034    6.7625 H   0  0  0  0  0  0  0  0  0  0  0  0
    8.1306  -17.3890    6.2508 H   0  0  0  0  0  0  0  0  0  0  0  0
    7.1261  -18.7630    6.7674 H   0  0  0  0  0  0  0  0  0  0  0  0
    6.2224  -16.9684    4.4678 H   0  0  0  0  0  0  0  0  0  0  0  0
    7.4274  -18.2860    4.1874 H   0  0  0  0  0  0  0  0  0  0  0  0
    5.5271  -19.6368    5.6174 H   0  0  0  0  0  0  0  0  0  0  0  0
    4.5011  -18.4442    4.7464 H   0  0  0  0  0  0  0  0  0  0  0  0
    6.2684  -19.2539    2.7719 H   0  0  0  0  0  0  0  0  0  0  0  0
    4.5929  -19.9109    3.0425 H   0  0  0  0  0  0  0  0  0  0  0  0
    6.6895  -22.5219    7.3048 H   0  0  0  0  0  0  0  0  0  0  0  0
    7.3313  -24.1050    6.7904 H   0  0  0  0  0  0  0  0  0  0  0  0
    7.7701  -25.1310    2.2215 H   0  0  0  0  0  0  0  0  0  0  0  0
    7.2878  -23.9452    0.9789 H   0  0  0  0  0  0  0  0  0  0  0  0
    8.4123  -21.1127    0.9547 H   0  0  0  0  0  0  0  0  0  0  0  0
    8.0367  -20.4663   -1.5726 H   0  0  0  0  0  0  0  0  0  0  0  0
    5.8268  -20.6154   -2.5419 H   0  0  0  0  0  0  0  0  0  0  0  0
    3.8084  -21.4713   -1.1149 H   0  0  0  0  0  0  0  0  0  0  0  0
    4.1481  -22.0812    1.1985 H   0  0  0  0  0  0  0  0  0  0  0  0
  1  2  2  0
  1  5  1  0
  1 11  1  0
  2  3  1  0
  2 15  1  0
  3  4  2  0
  3 14  1  0
  4 12  1  0
  5 12  2  0
  6  7  1  0
  7  8  1  0
  8  9  1  0
  9 10  1  0
 10 11  1  0
 12 13  1  0
 15 16  2  0
 15 20  1  0
 16 17  1  0
 17 18  2  0
 18 19  1  0
 19 20  2  0
  6 21  1  0
  6 22  1  0
  6 23  1  0
  7 24  1  0
  7 25  1  0
  8 26  1  0
  8 27  1  0
  9 28  1  0
  9 29  1  0
 10 30  1  0
 10 31  1  0
 11 32  1  0
 11 33  1  0
 13 34  1  0
 13 35  1  0
 14 36  1  0
 14 37  1  0
 16 38  1  0
 17 39  1  0
 18 40  1  0
 19 41  1  0
 20 42  1  0
M  END
>  <filename_input>  (20) 
7XI7_4RI_docked.sdf

>  <pdb_id>  (20) 
7XI7_4RI

>  <pose_rank>  (20) 
19

>  <num_atoms_heavy>  (20) 
20

>  <num_torsions>  (20) 
6

>  <pose>  (20) 
[6.171901834622363, -21.18343025626751, 3.716982505276651, 4.801680807548603, 1.259762090877078, -3.713204929295305, -3.2505300150409018, -0.9465641345911178, -5.732547479480798, 2.5772836083250468, 1.7491726581047446, 1.7460240662157736]

>  <energy>  (20) 
-162.96244185589595

>  <inter_energy>  (20) 
-149.8180589806117

>  <intra_energy>  (20) 
6.2218590462310335

>  <rmsd>  (20) 
10.696

>  <sdf_rank>  (20) 
0

$$$$

     RDKit          3D

 42 43  0  0  0  0  0  0  0  0999 V2000
   -7.5191   -9.1729   -6.3828 C   0  0  0  0  0  0  0  0  0  0  0  0
   -8.7159   -8.6858   -6.8494 C   0  0  0  0  0  0  0  0  0  0  0  0
   -8.6898   -7.6539   -7.7764 C   0  0  0  0  0  0  0  0  0  0  0  0
   -7.5556   -7.1648   -8.2276 N   0  0  0  0  0  0  0  0  0  0  0  0
   -6.3758   -8.6790   -6.8270 N   0  0  0  0  0  0  0  0  0  0  0  0
   -4.2523  -10.5120   -0.5977 C   0  0  0  0  0  0  0  0  0  0  0  0
   -5.6494  -10.1373   -1.0977 C   0  0  0  0  0  0  0  0  0  0  0  0
   -5.7673  -10.4979   -2.5755 C   0  0  0  0  0  0  0  0  0  0  0  0
   -6.5059   -9.3475   -3.2603 C   0  0  0  0  0  0  0  0  0  0  0  0
   -7.7772   -9.8448   -3.9434 C   0  0  0  0  0  0  0  0  0  0  0  0
   -7.4524  -10.3097   -5.3624 C   0  0  0  0  0  0  0  0  0  0  0  0
   -6.4583   -7.7083   -7.7253 C   0  0  0  0  0  0  0  0  0  0  0  0
   -5.1884   -7.1838   -8.1842 N   0  0  0  0  0  0  0  0  0  0  0  0
   -9.9057   -7.0903   -8.2927 N   0  0  0  0  0  0  0  0  0  0  0  0
  -10.0732   -9.1982   -6.3571 C   0  0  0  0  0  0  0  0  0  0  0  0
  -10.6862  -10.2419   -6.9109 C   0  0  0  0  0  0  0  0  0  0  0  0
  -12.0425  -10.6720   -6.3611 C   0  0  0  0  0  0  0  0  0  0  0  0
  -12.5974   -9.9999   -5.3653 C   0  0  0  0  0  0  0  0  0  0  0  0
  -11.8904   -8.8068   -4.7493 C   0  0  0  0  0  0  0  0  0  0  0  0
  -10.7190   -8.4344   -5.2162 C   0  0  0  0  0  0  0  0  0  0  0  0
   -4.2449  -10.5140    0.5023 H   0  0  0  0  0  0  0  0  0  0  0  0
   -3.9866  -11.5131   -0.9680 H   0  0  0  0  0  0  0  0  0  0  0  0
   -3.5213   -9.7782   -0.9680 H   0  0  0  0  0  0  0  0  0  0  0  0
   -6.4065  -10.6904   -0.5226 H   0  0  0  0  0  0  0  0  0  0  0  0
   -5.8110   -9.0571   -0.9671 H   0  0  0  0  0  0  0  0  0  0  0  0
   -4.7664  -10.6191   -3.0156 H   0  0  0  0  0  0  0  0  0  0  0  0
   -6.3108  -11.4453   -2.7057 H   0  0  0  0  0  0  0  0  0  0  0  0
   -6.7740   -8.5926   -2.5065 H   0  0  0  0  0  0  0  0  0  0  0  0
   -5.8449   -8.9111   -4.0237 H   0  0  0  0  0  0  0  0  0  0  0  0
   -8.1953  -10.6853   -3.3702 H   0  0  0  0  0  0  0  0  0  0  0  0
   -8.5106   -9.0261   -3.9877 H   0  0  0  0  0  0  0  0  0  0  0  0
   -8.1749  -11.0867   -5.6527 H   0  0  0  0  0  0  0  0  0  0  0  0
   -6.4220  -10.6949   -5.3594 H   0  0  0  0  0  0  0  0  0  0  0  0
   -4.3079   -7.5757   -7.8210 H   0  0  0  0  0  0  0  0  0  0  0  0
   -5.1661   -6.4190   -8.8737 H   0  0  0  0  0  0  0  0  0  0  0  0
   -9.8671   -6.3245   -8.9804 H   0  0  0  0  0  0  0  0  0  0  0  0
  -10.8164   -7.4519   -7.9752 H   0  0  0  0  0  0  0  0  0  0  0  0
  -10.2235  -10.7838   -7.7489 H   0  0  0  0  0  0  0  0  0  0  0  0
  -12.5597  -11.5416   -6.7927 H   0  0  0  0  0  0  0  0  0  0  0  0
  -13.5804  -10.3091   -4.9805 H   0  0  0  0  0  0  0  0  0  0  0  0
  -12.3550   -8.2570   -3.9175 H   0  0  0  0  0  0  0  0  0  0  0  0
  -10.2053   -7.5659   -4.7782 H   0  0  0  0  0  0  0  0  0  0  0  0
  1  2  2  0
  1  5  1  0
  1 11  1  0
  2  3  1  0
  2 15  1  0
  3  4  2  0
  3 14  1  0
  4 12  1  0
  5 12  2  0
  6  7  1  0
  7  8  1  0
  8  9  1  0
  9 10  1  0
 10 11  1  0
 12 13  1  0
 15 16  2  0
 15 20  1  0
 16 17  1  0
 17 18  2  0
 18 19  1  0
 19 20  2  0
  6 21  1  0
  6 22  1  0
  6 23  1  0
  7 24  1  0
  7 25  1  0
  8 26  1  0
  8 27  1  0
  9 28  1  0
  9 29  1  0
 10 30  1  0
 10 31  1  0
 11 32  1  0
 11 33  1  0
 13 34  1  0
 13 35  1  0
 14 36  1  0
 14 37  1  0
 16 38  1  0
 17 39  1  0
 18 40  1  0
 19 41  1  0
 20 42  1  0
M  END
>  <filename_input>  (21) 
7XI7_4RI_docked.sdf

>  <pdb_id>  (21) 
7XI7_4RI

>  <pose_rank>  (21) 
20

>  <num_atoms_heavy>  (21) 
20

>  <num_torsions>  (21) 
6

>  <pose>  (21) 
[-7.519146619257419, -9.17285821754734, -6.382787408987811, 1.6169836122394265, 1.0825618782202693, 1.591233860543006, -0.20451118233135349, 0.7343113985395816, -2.7809069088227587, -2.761659276675582, 1.0710257970117893, 0.6028688086426797]

>  <energy>  (21) 
-161.42320392610205

>  <inter_energy>  (21) 
-162.33662193087886

>  <intra_energy>  (21) 
11.858086290520903

>  <rmsd>  (21) 
12.3792

>  <sdf_rank>  (21) 
0

$$$$

     RDKit          3D

 42 43  0  0  0  0  0  0  0  0999 V2000
    5.2966  -21.0253   -3.6220 C   0  0  0  0  0  0  0  0  0  0  0  0
    5.6398  -22.2114   -3.0199 C   0  0  0  0  0  0  0  0  0  0  0  0
    5.9058  -22.2053   -1.6582 C   0  0  0  0  0  0  0  0  0  0  0  0
    5.8071  -21.1053   -0.9443 N   0  0  0  0  0  0  0  0  0  0  0  0
    5.2040  -19.9148   -2.9103 N   0  0  0  0  0  0  0  0  0  0  0  0
    6.1719  -24.4081   -8.2479 C   0  0  0  0  0  0  0  0  0  0  0  0
    5.6426  -22.9835   -8.0676 C   0  0  0  0  0  0  0  0  0  0  0  0
    6.6340  -22.1817   -7.2297 C   0  0  0  0  0  0  0  0  0  0  0  0
    6.1932  -20.7189   -7.2915 C   0  0  0  0  0  0  0  0  0  0  0  0
    6.0315  -20.1377   -5.8893 C   0  0  0  0  0  0  0  0  0  0  0  0
    4.9845  -20.9387   -5.1163 C   0  0  0  0  0  0  0  0  0  0  0  0
    5.4596  -20.0180   -1.6142 C   0  0  0  0  0  0  0  0  0  0  0  0
    5.3580  -18.7820   -0.8657 N   0  0  0  0  0  0  0  0  0  0  0  0
    6.2841  -23.4086   -0.9714 N   0  0  0  0  0  0  0  0  0  0  0  0
    5.7874  -23.5263   -3.7923 C   0  0  0  0  0  0  0  0  0  0  0  0
    4.7424  -24.2814   -4.1231 C   0  0  0  0  0  0  0  0  0  0  0  0
    4.9884  -25.5817   -4.8818 C   0  0  0  0  0  0  0  0  0  0  0  0
    6.2233  -25.9504   -5.1820 C   0  0  0  0  0  0  0  0  0  0  0  0
    7.4057  -25.0832   -4.7910 C   0  0  0  0  0  0  0  0  0  0  0  0
    7.1992  -23.9591   -4.1409 C   0  0  0  0  0  0  0  0  0  0  0  0
    6.3412  -24.8639   -7.2612 H   0  0  0  0  0  0  0  0  0  0  0  0
    5.4355  -25.0050   -8.8060 H   0  0  0  0  0  0  0  0  0  0  0  0
    7.1193  -24.3793   -8.8060 H   0  0  0  0  0  0  0  0  0  0  0  0
    5.5240  -22.5078   -9.0523 H   0  0  0  0  0  0  0  0  0  0  0  0
    4.6679  -23.0132   -7.5585 H   0  0  0  0  0  0  0  0  0  0  0  0
    6.6215  -22.5360   -6.1885 H   0  0  0  0  0  0  0  0  0  0  0  0
    7.6577  -22.2992   -7.6147 H   0  0  0  0  0  0  0  0  0  0  0  0
    6.9510  -20.1373   -7.8370 H   0  0  0  0  0  0  0  0  0  0  0  0
    5.2230  -20.6662   -7.8072 H   0  0  0  0  0  0  0  0  0  0  0  0
    6.9943  -20.1879   -5.3596 H   0  0  0  0  0  0  0  0  0  0  0  0
    5.7053  -19.0900   -5.9650 H   0  0  0  0  0  0  0  0  0  0  0  0
    4.9460  -21.9580   -5.5280 H   0  0  0  0  0  0  0  0  0  0  0  0
    4.0205  -20.4204   -5.2261 H   0  0  0  0  0  0  0  0  0  0  0  0
    5.0907  -17.9103   -1.3447 H   0  0  0  0  0  0  0  0  0  0  0  0
    5.5531  -18.7749    0.1457 H   0  0  0  0  0  0  0  0  0  0  0  0
    6.4778  -23.3851    0.0400 H   0  0  0  0  0  0  0  0  0  0  0  0
    6.3616  -24.2950   -1.4902 H   0  0  0  0  0  0  0  0  0  0  0  0
    3.7211  -23.9736   -3.8545 H   0  0  0  0  0  0  0  0  0  0  0  0
    4.1385  -26.2133   -5.1796 H   0  0  0  0  0  0  0  0  0  0  0  0
    6.3944  -26.8944   -5.7201 H   0  0  0  0  0  0  0  0  0  0  0  0
    8.4289  -25.3931   -5.0498 H   0  0  0  0  0  0  0  0  0  0  0  0
    8.0531  -23.3301   -3.8488 H   0  0  0  0  0  0  0  0  0  0  0  0
  1  2  2  0
  1  5  1  0
  1 11  1  0
  2  3  1  0
  2 15  1  0
  3  4  2  0
  3 14  1  0
  4 12  1  0
  5 12  2  0
  6  7  1  0
  7  8  1  0
  8  9  1  0
  9 10  1  0
 10 11  1  0
 12 13  1  0
 15 16  2  0
 15 20  1  0
 16 17  1  0
 17 18  2  0
 18 19  1  0
 19 20  2  0
  6 21  1  0
  6 22  1  0
  6 23  1  0
  7 24  1  0
  7 25  1  0
  8 26  1  0
  8 27  1  0
  9 28  1  0
  9 29  1  0
 10 30  1  0
 10 31  1  0
 11 32  1  0
 11 33  1  0
 13 34  1  0
 13 35  1  0
 14 36  1  0
 14 37  1  0
 16 38  1  0
 17 39  1  0
 18 40  1  0
 19 41  1  0
 20 42  1  0
M  END
>  <filename_input>  (22) 
7XI7_4RI_docked.sdf

>  <pdb_id>  (22) 
7XI7_4RI

>  <pose_rank>  (22) 
21

>  <num_atoms_heavy>  (22) 
20

>  <num_torsions>  (22) 
6

>  <pose>  (22) 
[5.296581382738688, -21.025336793235947, -3.622004424655644, -1.3658392644324204, -0.20335845353673213, 0.01013047440457952, -0.09124191502235748, 0.10905177959894154, 1.3046944395019544, 4.010972131460073, -0.8794396897556757, -0.29838657086657955]

>  <energy>  (22) 
-93.75465751313605

>  <inter_energy>  (22) 
-99.55451672186558

>  <intra_energy>  (22) 
12.814963342018382

>  <rmsd>  (22) 
12.2243

>  <sdf_rank>  (22) 
0

$$$$

     RDKit          3D

 42 43  0  0  0  0  0  0  0  0999 V2000
    5.0385  -21.8862   -1.7319 C   0  0  0  0  0  0  0  0  0  0  0  0
    5.3148  -22.9315   -2.5793 C   0  0  0  0  0  0  0  0  0  0  0  0
    5.9987  -24.0268   -2.0719 C   0  0  0  0  0  0  0  0  0  0  0  0
    6.3537  -24.0889   -0.8072 N   0  0  0  0  0  0  0  0  0  0  0  0
    5.4005  -21.9400   -0.4613 N   0  0  0  0  0  0  0  0  0  0  0  0
    7.2791  -17.2716   -4.1311 C   0  0  0  0  0  0  0  0  0  0  0  0
    6.2369  -18.2571   -4.6647 C   0  0  0  0  0  0  0  0  0  0  0  0
    6.0497  -19.3857   -3.6552 C   0  0  0  0  0  0  0  0  0  0  0  0
    5.9029  -18.7363   -2.2788 C   0  0  0  0  0  0  0  0  0  0  0  0
    4.7557  -19.3697   -1.4959 C   0  0  0  0  0  0  0  0  0  0  0  0
    4.2877  -20.6405   -2.2037 C   0  0  0  0  0  0  0  0  0  0  0  0
    6.0322  -23.0374   -0.0706 C   0  0  0  0  0  0  0  0  0  0  0  0
    6.4225  -23.0604    1.3241 N   0  0  0  0  0  0  0  0  0  0  0  0
    6.3312  -25.1458   -2.9086 N   0  0  0  0  0  0  0  0  0  0  0  0
    4.9439  -22.9200   -4.0658 C   0  0  0  0  0  0  0  0  0  0  0  0
    5.8229  -22.6192   -5.0188 C   0  0  0  0  0  0  0  0  0  0  0  0
    5.3584  -22.6212   -6.4718 C   0  0  0  0  0  0  0  0  0  0  0  0
    4.0981  -22.8991   -6.7643 C   0  0  0  0  0  0  0  0  0  0  0  0
    3.1050  -23.2321   -5.6662 C   0  0  0  0  0  0  0  0  0  0  0  0
    3.5010  -23.2363   -4.4124 C   0  0  0  0  0  0  0  0  0  0  0  0
    7.2660  -17.2840   -3.0312 H   0  0  0  0  0  0  0  0  0  0  0  0
    8.2772  -17.5639   -4.4892 H   0  0  0  0  0  0  0  0  0  0  0  0
    7.0431  -16.2587   -4.4892 H   0  0  0  0  0  0  0  0  0  0  0  0
    5.2802  -17.7354   -4.8148 H   0  0  0  0  0  0  0  0  0  0  0  0
    6.5787  -18.6727   -5.6241 H   0  0  0  0  0  0  0  0  0  0  0  0
    5.1459  -19.9636   -3.8983 H   0  0  0  0  0  0  0  0  0  0  0  0
    6.9069  -20.0748   -3.6741 H   0  0  0  0  0  0  0  0  0  0  0  0
    6.8389  -18.8691   -1.7164 H   0  0  0  0  0  0  0  0  0  0  0  0
    5.6853  -17.6669   -2.4167 H   0  0  0  0  0  0  0  0  0  0  0  0
    5.1004  -19.6218   -0.4822 H   0  0  0  0  0  0  0  0  0  0  0  0
    3.9194  -18.6577   -1.4358 H   0  0  0  0  0  0  0  0  0  0  0  0
    4.4482  -20.5209   -3.2854 H   0  0  0  0  0  0  0  0  0  0  0  0
    3.2233  -20.7824   -1.9651 H   0  0  0  0  0  0  0  0  0  0  0  0
    6.1938  -22.2641    1.9361 H   0  0  0  0  0  0  0  0  0  0  0  0
    6.9287  -23.8730    1.7040 H   0  0  0  0  0  0  0  0  0  0  0  0
    6.8394  -25.9504   -2.5146 H   0  0  0  0  0  0  0  0  0  0  0  0
    6.0614  -25.1437   -3.9026 H   0  0  0  0  0  0  0  0  0  0  0  0
    6.8644  -22.3739   -4.7636 H   0  0  0  0  0  0  0  0  0  0  0  0
    6.0717  -22.3915   -7.2771 H   0  0  0  0  0  0  0  0  0  0  0  0
    3.7672  -22.8886   -7.8133 H   0  0  0  0  0  0  0  0  0  0  0  0
    2.0605  -23.4684   -5.9176 H   0  0  0  0  0  0  0  0  0  0  0  0
    2.7837  -23.4701   -3.6119 H   0  0  0  0  0  0  0  0  0  0  0  0
  1  2  2  0
  1  5  1  0
  1 11  1  0
  2  3  1  0
  2 15  1  0
  3  4  2  0
  3 14  1  0
  4 12  1  0
  5 12  2  0
  6  7  1  0
  7  8  1  0
  8  9  1  0
  9 10  1  0
 10 11  1  0
 12 13  1  0
 15 16  2  0
 15 20  1  0
 16 17  1  0
 17 18  2  0
 18 19  1  0
 19 20  2  0
  6 21  1  0
  6 22  1  0
  6 23  1  0
  7 24  1  0
  7 25  1  0
  8 26  1  0
  8 27  1  0
  9 28  1  0
  9 29  1  0
 10 30  1  0
 10 31  1  0
 11 32  1  0
 11 33  1  0
 13 34  1  0
 13 35  1  0
 14 36  1  0
 14 37  1  0
 16 38  1  0
 17 39  1  0
 18 40  1  0
 19 41  1  0
 20 42  1  0
M  END
>  <filename_input>  (23) 
7XI7_4RI_docked.sdf

>  <pdb_id>  (23) 
7XI7_4RI

>  <pose_rank>  (23) 
22

>  <num_atoms_heavy>  (23) 
20

>  <num_torsions>  (23) 
6

>  <pose>  (23) 
[5.038495305057737, -21.886181206420154, -1.7319108909113259, 4.897046168607588, -2.2508373364995995, -2.4466316451540537, 3.055289476340232, 5.798125541687361, 0.31538032264825017, -7.315967259817603, -0.7271654780440105, -2.4489982456212]

>  <energy>  (23) 
-115.3763662292014

>  <inter_energy>  (23) 
-146.47056584692405

>  <intra_energy>  (23) 
16.568402246971672

>  <rmsd>  (23) 
10.525

>  <sdf_rank>  (23) 
0

$$$$

     RDKit          3D

 42 43  0  0  0  0  0  0  0  0999 V2000
    4.3467  -19.4449   -3.2242 C   0  0  0  0  0  0  0  0  0  0  0  0
    5.2579  -19.7285   -4.2123 C   0  0  0  0  0  0  0  0  0  0  0  0
    6.3975  -20.4427   -3.8712 C   0  0  0  0  0  0  0  0  0  0  0  0
    6.5989  -20.8688   -2.6435 N   0  0  0  0  0  0  0  0  0  0  0  0
    4.5484  -19.8639   -1.9863 N   0  0  0  0  0  0  0  0  0  0  0  0
   -0.3274  -15.2881   -2.1353 C   0  0  0  0  0  0  0  0  0  0  0  0
   -0.8046  -16.4929   -2.9496 C   0  0  0  0  0  0  0  0  0  0  0  0
    0.3460  -17.4832   -3.1025 C   0  0  0  0  0  0  0  0  0  0  0  0
    1.6435  -16.6934   -2.9277 C   0  0  0  0  0  0  0  0  0  0  0  0
    2.7749  -17.6007   -2.4514 C   0  0  0  0  0  0  0  0  0  0  0  0
    3.0625  -18.6655   -3.5091 C   0  0  0  0  0  0  0  0  0  0  0  0
    5.6581  -20.5541   -1.7673 C   0  0  0  0  0  0  0  0  0  0  0  0
    5.8529  -20.9902   -0.3998 N   0  0  0  0  0  0  0  0  0  0  0  0
    7.3958  -20.7591   -4.8540 N   0  0  0  0  0  0  0  0  0  0  0  0
    5.0943  -19.2515   -5.6590 C   0  0  0  0  0  0  0  0  0  0  0  0
    4.6672  -20.0536   -6.6314 C   0  0  0  0  0  0  0  0  0  0  0  0
    4.5478  -19.4928   -8.0450 C   0  0  0  0  0  0  0  0  0  0  0  0
    4.8845  -18.2368   -8.2903 C   0  0  0  0  0  0  0  0  0  0  0  0
    5.3779  -17.3363   -7.1729 C   0  0  0  0  0  0  0  0  0  0  0  0
    5.4784  -17.8131   -5.9517 C   0  0  0  0  0  0  0  0  0  0  0  0
   -0.4163  -15.5125   -1.0621 H   0  0  0  0  0  0  0  0  0  0  0  0
    0.7235  -15.0737   -2.3793 H   0  0  0  0  0  0  0  0  0  0  0  0
   -0.9465  -14.4122   -2.3793 H   0  0  0  0  0  0  0  0  0  0  0  0
   -1.6424  -16.9800   -2.4291 H   0  0  0  0  0  0  0  0  0  0  0  0
   -1.1386  -16.1585   -3.9428 H   0  0  0  0  0  0  0  0  0  0  0  0
    0.2745  -18.2667   -2.3339 H   0  0  0  0  0  0  0  0  0  0  0  0
    0.3143  -17.9718   -4.0875 H   0  0  0  0  0  0  0  0  0  0  0  0
    1.9241  -16.2440   -3.8917 H   0  0  0  0  0  0  0  0  0  0  0  0
    1.4792  -15.9112   -2.1719 H   0  0  0  0  0  0  0  0  0  0  0  0
    3.6801  -16.9987   -2.2833 H   0  0  0  0  0  0  0  0  0  0  0  0
    2.4774  -18.0912   -1.5128 H   0  0  0  0  0  0  0  0  0  0  0  0
    3.1591  -18.1728   -4.4879 H   0  0  0  0  0  0  0  0  0  0  0  0
    2.2279  -19.3819   -3.4965 H   0  0  0  0  0  0  0  0  0  0  0  0
    5.1472  -20.7685    0.3169 H   0  0  0  0  0  0  0  0  0  0  0  0
    6.6970  -21.5222   -0.1442 H   0  0  0  0  0  0  0  0  0  0  0  0
    8.2356  -21.2902   -4.5825 H   0  0  0  0  0  0  0  0  0  0  0  0
    7.2721  -20.4550   -5.8302 H   0  0  0  0  0  0  0  0  0  0  0  0
    4.4052  -21.1008   -6.4198 H   0  0  0  0  0  0  0  0  0  0  0  0
    4.1816  -20.1331   -8.8611 H   0  0  0  0  0  0  0  0  0  0  0  0
    4.8060  -17.8417   -9.3139 H   0  0  0  0  0  0  0  0  0  0  0  0
    5.6498  -16.2914   -7.3833 H   0  0  0  0  0  0  0  0  0  0  0  0
    5.8422  -17.1669   -5.1392 H   0  0  0  0  0  0  0  0  0  0  0  0
  1  2  2  0
  1  5  1  0
  1 11  1  0
  2  3  1  0
  2 15  1  0
  3  4  2  0
  3 14  1  0
  4 12  1  0
  5 12  2  0
  6  7  1  0
  7  8  1  0
  8  9  1  0
  9 10  1  0
 10 11  1  0
 12 13  1  0
 15 16  2  0
 15 20  1  0
 16 17  1  0
 17 18  2  0
 18 19  1  0
 19 20  2  0
  6 21  1  0
  6 22  1  0
  6 23  1  0
  7 24  1  0
  7 25  1  0
  8 26  1  0
  8 27  1  0
  9 28  1  0
  9 29  1  0
 10 30  1  0
 10 31  1  0
 11 32  1  0
 11 33  1  0
 13 34  1  0
 13 35  1  0
 14 36  1  0
 14 37  1  0
 16 38  1  0
 17 39  1  0
 18 40  1  0
 19 41  1  0
 20 42  1  0
M  END
>  <filename_input>  (24) 
7XI7_4RI_docked.sdf

>  <pdb_id>  (24) 
7XI7_4RI

>  <pose_rank>  (24) 
23

>  <num_atoms_heavy>  (24) 
20

>  <num_torsions>  (24) 
6

>  <pose>  (24) 
[4.346685592521685, -19.444884317096864, -3.2241591442457147, -0.4384357793985233, 1.5990287330609285, -5.2800019491710675, -0.4497062227644504, -0.30043832910449203, -4.580902975862593, -0.1341710570426491, -0.38331904109629594, 2.6100231147899193]

>  <energy>  (24) 
-132.8010605620177

>  <inter_energy>  (24) 
-92.64450626860248

>  <intra_energy>  (24) 
6.12248403215614

>  <rmsd>  (24) 
9.33204

>  <sdf_rank>  (24) 
0

$$$$

     RDKit          3D

 42 43  0  0  0  0  0  0  0  0999 V2000
  -11.0082  -23.7575    6.5872 C   0  0  0  0  0  0  0  0  0  0  0  0
  -10.9181  -24.4102    5.3818 C   0  0  0  0  0  0  0  0  0  0  0  0
  -10.5601  -25.7507    5.3846 C   0  0  0  0  0  0  0  0  0  0  0  0
  -10.3385  -26.3998    6.5065 N   0  0  0  0  0  0  0  0  0  0  0  0
  -10.7783  -24.4034    7.7178 N   0  0  0  0  0  0  0  0  0  0  0  0
  -11.1343  -18.6517   10.9346 C   0  0  0  0  0  0  0  0  0  0  0  0
  -11.9090  -18.8869    9.6359 C   0  0  0  0  0  0  0  0  0  0  0  0
  -11.6532  -20.3102    9.1493 C   0  0  0  0  0  0  0  0  0  0  0  0
  -12.6468  -20.5832    8.0196 C   0  0  0  0  0  0  0  0  0  0  0  0
  -12.6001  -22.0484    7.5938 C   0  0  0  0  0  0  0  0  0  0  0  0
  -11.3981  -22.2819    6.6796 C   0  0  0  0  0  0  0  0  0  0  0  0
  -10.4615  -25.6859    7.6142 C   0  0  0  0  0  0  0  0  0  0  0  0
  -10.2074  -26.3614    8.8702 N   0  0  0  0  0  0  0  0  0  0  0  0
  -10.4342  -26.4868    4.1578 N   0  0  0  0  0  0  0  0  0  0  0  0
  -11.1485  -23.7131    4.0371 C   0  0  0  0  0  0  0  0  0  0  0  0
  -10.1991  -23.0080    3.4264 C   0  0  0  0  0  0  0  0  0  0  0  0
  -10.5250  -22.3382    2.0952 C   0  0  0  0  0  0  0  0  0  0  0  0
  -11.7381  -22.4474    1.5779 C   0  0  0  0  0  0  0  0  0  0  0  0
  -12.8130  -23.2478    2.2898 C   0  0  0  0  0  0  0  0  0  0  0  0
  -12.5362  -23.8311    3.4352 C   0  0  0  0  0  0  0  0  0  0  0  0
  -11.7909  -18.8510   11.7944 H   0  0  0  0  0  0  0  0  0  0  0  0
  -10.2668  -19.3269   10.9715 H   0  0  0  0  0  0  0  0  0  0  0  0
  -10.7886  -17.6081   10.9715 H   0  0  0  0  0  0  0  0  0  0  0  0
  -12.9848  -18.7486    9.8191 H   0  0  0  0  0  0  0  0  0  0  0  0
  -11.5752  -18.1697    8.8716 H   0  0  0  0  0  0  0  0  0  0  0  0
  -10.6226  -20.4020    8.7759 H   0  0  0  0  0  0  0  0  0  0  0  0
  -11.7820  -21.0334    9.9680 H   0  0  0  0  0  0  0  0  0  0  0  0
  -13.6622  -20.3416    8.3671 H   0  0  0  0  0  0  0  0  0  0  0  0
  -12.3768  -19.9579    7.1559 H   0  0  0  0  0  0  0  0  0  0  0  0
  -12.5100  -22.6856    8.4859 H   0  0  0  0  0  0  0  0  0  0  0  0
  -13.5237  -22.2994    7.0517 H   0  0  0  0  0  0  0  0  0  0  0  0
  -10.5412  -21.7149    7.0724 H   0  0  0  0  0  0  0  0  0  0  0  0
  -11.6772  -21.9469    5.6697 H   0  0  0  0  0  0  0  0  0  0  0  0
  -10.2908  -25.8462    9.7581 H   0  0  0  0  0  0  0  0  0  0  0  0
   -9.9433  -27.3570    8.8753 H   0  0  0  0  0  0  0  0  0  0  0  0
  -10.1674  -27.4814    4.1791 H   0  0  0  0  0  0  0  0  0  0  0  0
  -10.6106  -26.0201    3.2567 H   0  0  0  0  0  0  0  0  0  0  0  0
   -9.1986  -22.9101    3.8731 H   0  0  0  0  0  0  0  0  0  0  0  0
   -9.7510  -21.7640    1.5649 H   0  0  0  0  0  0  0  0  0  0  0  0
  -11.9695  -21.9532    0.6228 H   0  0  0  0  0  0  0  0  0  0  0  0
  -13.8172  -23.3395    1.8503 H   0  0  0  0  0  0  0  0  0  0  0  0
  -13.3136  -24.4067    3.9590 H   0  0  0  0  0  0  0  0  0  0  0  0
  1  2  2  0
  1  5  1  0
  1 11  1  0
  2  3  1  0
  2 15  1  0
  3  4  2  0
  3 14  1  0
  4 12  1  0
  5 12  2  0
  6  7  1  0
  7  8  1  0
  8  9  1  0
  9 10  1  0
 10 11  1  0
 12 13  1  0
 15 16  2  0
 15 20  1  0
 16 17  1  0
 17 18  2  0
 18 19  1  0
 19 20  2  0
  6 21  1  0
  6 22  1  0
  6 23  1  0
  7 24  1  0
  7 25  1  0
  8 26  1  0
  8 27  1  0
  9 28  1  0
  9 29  1  0
 10 30  1  0
 10 31  1  0
 11 32  1  0
 11 33  1  0
 13 34  1  0
 13 35  1  0
 14 36  1  0
 14 37  1  0
 16 38  1  0
 17 39  1  0
 18 40  1  0
 19 41  1  0
 20 42  1  0
M  END
>  <filename_input>  (25) 
7XI7_4RI_docked.sdf

>  <pdb_id>  (25) 
7XI7_4RI

>  <pose_rank>  (25) 
24

>  <num_atoms_heavy>  (25) 
20

>  <num_torsions>  (25) 
6

>  <pose>  (25) 
[-11.008201953885667, -23.757479467819724, 6.5872110951271265, -4.299622959791824, -3.474821992661786, 2.5639653052007367, 2.764789052587109, -2.0342799559182088, 7.838902204969564, -8.900218823048109, -6.092682712030314, -0.3115932616915722]

>  <energy>  (25) 
-119.44557314609744

>  <inter_energy>  (25) 
-108.05106196702938

>  <intra_energy>  (25) 
4.265830405049211

>  <rmsd>  (25) 
12.268

>  <sdf_rank>  (25) 
0

$$$$

     RDKit          3D

 42 43  0  0  0  0  0  0  0  0999 V2000
   -3.5010  -16.8430    2.1950 C   0  0  0  0  0  0  0  0  0  0  0  0
   -3.2290  -17.6350    1.1060 C   0  0  0  0  0  0  0  0  0  0  0  0
   -2.7780  -18.9280    1.3290 C   0  0  0  0  0  0  0  0  0  0  0  0
   -2.6380  -19.4060    2.5460 N   0  0  0  0  0  0  0  0  0  0  0  0
   -3.3540  -17.3160    3.4210 N   0  0  0  0  0  0  0  0  0  0  0  0
   -1.0150  -12.5870   -1.5440 C   0  0  0  0  0  0  0  0  0  0  0  0
   -0.7900  -13.4320   -0.2880 C   0  0  0  0  0  0  0  0  0  0  0  0
   -2.1090  -13.5720    0.4660 C   0  0  0  0  0  0  0  0  0  0  0  0
   -1.7960  -14.2660    1.7920 C   0  0  0  0  0  0  0  0  0  0  0  0
   -3.0490  -14.3830    2.6560 C   0  0  0  0  0  0  0  0  0  0  0  0
   -4.0040  -15.4070    2.0440 C   0  0  0  0  0  0  0  0  0  0  0  0
   -2.9360  -18.5690    3.5270 C   0  0  0  0  0  0  0  0  0  0  0  0
   -2.7770  -19.0530    4.8830 N   0  0  0  0  0  0  0  0  0  0  0  0
   -2.4620  -19.8020    0.2340 N   0  0  0  0  0  0  0  0  0  0  0  0
   -3.3560  -17.1390   -0.3380 C   0  0  0  0  0  0  0  0  0  0  0  0
   -4.5330  -16.9930   -0.9420 C   0  0  0  0  0  0  0  0  0  0  0  0
   -4.5600  -16.5050   -2.3870 C   0  0  0  0  0  0  0  0  0  0  0  0
   -3.4270  -16.2540   -3.0230 C   0  0  0  0  0  0  0  0  0  0  0  0
   -2.0920  -16.4330   -2.3240 C   0  0  0  0  0  0  0  0  0  0  0  0
   -2.0630  -16.8490   -1.0770 C   0  0  0  0  0  0  0  0  0  0  0  0
   -1.2879  -11.5621   -1.2523 H   0  0  0  0  0  0  0  0  0  0  0  0
   -0.0915  -12.5647   -2.1412 H   0  0  0  0  0  0  0  0  0  0  0  0
   -1.8273  -13.0269   -2.1412 H   0  0  0  0  0  0  0  0  0  0  0  0
   -0.4233  -14.4283   -0.5758 H   0  0  0  0  0  0  0  0  0  0  0  0
   -0.0456  -12.9431    0.3576 H   0  0  0  0  0  0  0  0  0  0  0  0
   -2.5442  -12.5792    0.6530 H   0  0  0  0  0  0  0  0  0  0  0  0
   -2.8353  -14.1547   -0.1196 H   0  0  0  0  0  0  0  0  0  0  0  0
   -1.4045  -15.2734    1.5874 H   0  0  0  0  0  0  0  0  0  0  0  0
   -1.0503  -13.6663    2.3345 H   0  0  0  0  0  0  0  0  0  0  0  0
   -2.7659  -14.7067    3.6684 H   0  0  0  0  0  0  0  0  0  0  0  0
   -3.5487  -13.4043    2.7068 H   0  0  0  0  0  0  0  0  0  0  0  0
   -4.1196  -15.1849    0.9729 H   0  0  0  0  0  0  0  0  0  0  0  0
   -4.9619  -15.3312    2.5795 H   0  0  0  0  0  0  0  0  0  0  0  0
   -2.9968  -18.4371    5.6788 H   0  0  0  0  0  0  0  0  0  0  0  0
   -2.4441  -20.0131    5.0514 H   0  0  0  0  0  0  0  0  0  0  0  0
   -2.1284  -20.7589    0.4185 H   0  0  0  0  0  0  0  0  0  0  0  0
   -2.5690  -19.4719   -0.7358 H   0  0  0  0  0  0  0  0  0  0  0  0
   -5.4683  -17.2199   -0.4094 H   0  0  0  0  0  0  0  0  0  0  0  0
   -5.5220  -16.3616   -2.9007 H   0  0  0  0  0  0  0  0  0  0  0  0
   -3.4532  -15.9124   -4.0683 H   0  0  0  0  0  0  0  0  0  0  0  0
   -1.1546  -16.2161   -2.8571 H   0  0  0  0  0  0  0  0  0  0  0  0
   -1.0979  -16.9873   -0.5677 H   0  0  0  0  0  0  0  0  0  0  0  0
  1  2  2  0
  1  5  1  0
  1 11  1  0
  2  3  1  0
  2 15  1  0
  3  4  2  0
  3 14  1  0
  4 12  1  0
  5 12  2  0
  6  7  1  0
  7  8  1  0
  8  9  1  0
  9 10  1  0
 10 11  1  0
 12 13  1  0
 15 16  2  0
 15 20  1  0
 16 17  1  0
 17 18  2  0
 18 19  1  0
 19 20  2  0
  6 21  1  0
  6 22  1  0
  6 23  1  0
  7 24  1  0
  7 25  1  0
  8 26  1  0
  8 27  1  0
  9 28  1  0
  9 29  1  0
 10 30  1  0
 10 31  1  0
 11 32  1  0
 11 33  1  0
 13 34  1  0
 13 35  1  0
 14 36  1  0
 14 37  1  0
 16 38  1  0
 17 39  1  0
 18 40  1  0
 19 41  1  0
 20 42  1  0
M  END
>  <filename_input>  (26) 
7XI7_4RI_docked.sdf

>  <pdb_id>  (26) 
7XI7_4RI

>  <pose_rank>  (26) 
25

>  <num_atoms_heavy>  (26) 
20

>  <num_torsions>  (26) 
6

>  <pose>  (26) 
[-3.501, -16.843, 2.195, 1e-06, 1e-06, 1e-06, 0.0, 0.0, 0.0, 0.0, 0.0, 0.0]

>  <energy>  (26) 
-1540.8383519495474

>  <inter_energy>  (26) 
-1596.589212183406

>  <intra_energy>  (26) 
11.478604212356894

>  <rmsd>  (26) 
0.0

>  <sdf_rank>  (26) 
0

$$$$
