
     RDKit          3D

 29 28  0  0  0  0  0  0  0  0999 V2000
    1.0374    8.5837   33.1676 C   0  0  0  0  0  0  0  0  0  0  0  0
    2.2606    9.3130   33.5946 N   0  0  0  0  0  0  0  0  0  0  0  0
    0.2986    8.0675   34.3898 C   0  0  0  0  0  0  0  0  0  0  0  0
   -1.0640    6.7922   32.8029 N   0  0  0  0  0  0  0  0  0  0  0  0
   -1.0689    7.4860   34.0953 C   0  0  0  0  0  0  0  0  0  0  0  0
   -5.5579    5.9248   32.4917 N   0  0  0  0  0  0  0  0  0  0  0  0
   -2.2081    5.9018   32.5983 C   0  0  0  0  0  0  0  0  0  0  0  0
   -3.2890    6.5386   31.7553 C   0  0  0  0  0  0  0  0  0  0  0  0
   -4.4843    6.9090   32.6187 C   0  0  0  0  0  0  0  0  0  0  0  0
    0.3826    9.2652   32.6049 H   0  0  0  0  0  0  0  0  0  0  0  0
    1.3228    7.7352   32.5283 H   0  0  0  0  0  0  0  0  0  0  0  0
    2.3035    9.3386   34.6234 H   0  0  0  0  0  0  0  0  0  0  0  0
    3.0935    8.8306   33.2281 H   0  0  0  0  0  0  0  0  0  0  0  0
    2.2320   10.2752   33.2281 H   0  0  0  0  0  0  0  0  0  0  0  0
    0.9125    7.2834   34.8572 H   0  0  0  0  0  0  0  0  0  0  0  0
    0.1362    8.9341   35.0476 H   0  0  0  0  0  0  0  0  0  0  0  0
   -1.0677    7.5007   32.0553 H   0  0  0  0  0  0  0  0  0  0  0  0
   -0.2207    6.2010   32.7863 H   0  0  0  0  0  0  0  0  0  0  0  0
   -1.3375    6.7726   34.8883 H   0  0  0  0  0  0  0  0  0  0  0  0
   -1.8030    8.3043   34.0573 H   0  0  0  0  0  0  0  0  0  0  0  0
   -5.8722    5.6367   33.4294 H   0  0  0  0  0  0  0  0  0  0  0  0
   -6.3472    6.3421   31.9782 H   0  0  0  0  0  0  0  0  0  0  0  0
   -5.2106    5.1023   31.9782 H   0  0  0  0  0  0  0  0  0  0  0  0
   -1.8593    4.9882   32.0947 H   0  0  0  0  0  0  0  0  0  0  0  0
   -2.6399    5.6778   33.5849 H   0  0  0  0  0  0  0  0  0  0  0  0
   -2.8901    7.4466   31.2795 H   0  0  0  0  0  0  0  0  0  0  0  0
   -3.6123    5.8206   30.9871 H   0  0  0  0  0  0  0  0  0  0  0  0
   -4.8617    7.8933   32.3045 H   0  0  0  0  0  0  0  0  0  0  0  0
   -4.1589    6.9337   33.6692 H   0  0  0  0  0  0  0  0  0  0  0  0
  1  2  1  0
  1  3  1  0
  3  5  1  0
  4  5  1  0
  4  7  1  0
  6  9  1  0
  7  8  1  0
  8  9  1  0
  1 10  1  0
  1 11  1  0
  2 12  1  0
  2 13  1  0
  2 14  1  0
  3 15  1  0
  3 16  1  0
  4 17  1  0
  4 18  1  0
  5 19  1  0
  5 20  1  0
  6 21  1  0
  6 22  1  0
  6 23  1  0
  7 24  1  0
  7 25  1  0
  8 26  1  0
  8 27  1  0
  9 28  1  0
  9 29  1  0
M  CHG  3   2   1   4   1   6   1
M  END
>  <filename_input>  (1) 
7XJN_NSD_docked.sdf

>  <pdb_id>  (1) 
7XJN_NSD

>  <pose_rank>  (1) 
0

>  <num_atoms_heavy>  (1) 
9

>  <num_torsions>  (1) 
6

>  <pose>  (1) 
[-1.0639740590643172, 6.792187701744982, 32.80287684425658, -1.8854788742837016, 4.823686932659328, -2.8112928553956125, -6.622728935619283, -2.6719668777736922, -0.2996078368078996, -5.961105478767786, 1.4201514987142072, 1.4147012233623535]

>  <energy>  (1) 
-567.535676873676

>  <inter_energy>  (1) 
-555.8699643838163

>  <intra_energy>  (1) 
0.03595890118669247

>  <rmsd>  (1) 
0.957876

>  <sdf_rank>  (1) 
0

$$$$

     RDKit          3D

 29 28  0  0  0  0  0  0  0  0999 V2000
   -4.8136    6.3418   31.8637 C   0  0  0  0  0  0  0  0  0  0  0  0
   -6.1509    6.9882   31.9273 N   0  0  0  0  0  0  0  0  0  0  0  0
   -4.1469    6.4139   33.2262 C   0  0  0  0  0  0  0  0  0  0  0  0
   -1.8846    6.7061   32.3328 N   0  0  0  0  0  0  0  0  0  0  0  0
   -2.8828    7.2480   33.2611 C   0  0  0  0  0  0  0  0  0  0  0  0
    1.9356    9.4260   33.5471 N   0  0  0  0  0  0  0  0  0  0  0  0
   -0.4988    6.9703   32.7245 C   0  0  0  0  0  0  0  0  0  0  0  0
   -0.2595    8.4279   33.0451 C   0  0  0  0  0  0  0  0  0  0  0  0
    0.8663    8.5693   34.0570 C   0  0  0  0  0  0  0  0  0  0  0  0
   -4.9300    5.2886   31.5684 H   0  0  0  0  0  0  0  0  0  0  0  0
   -4.1900    6.8652   31.1240 H   0  0  0  0  0  0  0  0  0  0  0  0
   -6.4224    7.1194   32.9122 H   0  0  0  0  0  0  0  0  0  0  0  0
   -6.1125    7.9037   31.4569 H   0  0  0  0  0  0  0  0  0  0  0  0
   -6.8445    6.3894   31.4569 H   0  0  0  0  0  0  0  0  0  0  0  0
   -4.8649    6.8473   33.9380 H   0  0  0  0  0  0  0  0  0  0  0  0
   -3.8523    5.3865   33.4862 H   0  0  0  0  0  0  0  0  0  0  0  0
   -2.0159    5.6861   32.2759 H   0  0  0  0  0  0  0  0  0  0  0  0
   -2.0329    7.1772   31.4289 H   0  0  0  0  0  0  0  0  0  0  0  0
   -3.1230    8.2817   32.9716 H   0  0  0  0  0  0  0  0  0  0  0  0
   -2.4699    7.2262   34.2804 H   0  0  0  0  0  0  0  0  0  0  0  0
    2.4510    9.8390   34.3374 H   0  0  0  0  0  0  0  0  0  0  0  0
    2.5804    8.8651   32.9723 H   0  0  0  0  0  0  0  0  0  0  0  0
    1.5287   10.1777   32.9723 H   0  0  0  0  0  0  0  0  0  0  0  0
   -0.2625    6.3691   33.6148 H   0  0  0  0  0  0  0  0  0  0  0  0
    0.1470    6.7028   31.8751 H   0  0  0  0  0  0  0  0  0  0  0  0
    0.0128    8.9620   32.1228 H   0  0  0  0  0  0  0  0  0  0  0  0
   -1.1789    8.8553   33.4716 H   0  0  0  0  0  0  0  0  0  0  0  0
    1.2788    7.5732   34.2753 H   0  0  0  0  0  0  0  0  0  0  0  0
    0.4575    9.0300   34.9684 H   0  0  0  0  0  0  0  0  0  0  0  0
  1  2  1  0
  1  3  1  0
  3  5  1  0
  4  5  1  0
  4  7  1  0
  6  9  1  0
  7  8  1  0
  8  9  1  0
  1 10  1  0
  1 11  1  0
  2 12  1  0
  2 13  1  0
  2 14  1  0
  3 15  1  0
  3 16  1  0
  4 17  1  0
  4 18  1  0
  5 19  1  0
  5 20  1  0
  6 21  1  0
  6 22  1  0
  6 23  1  0
  7 24  1  0
  7 25  1  0
  8 26  1  0
  8 27  1  0
  9 28  1  0
  9 29  1  0
M  CHG  3   2   1   4   1   6   1
M  END
>  <filename_input>  (2) 
7XJN_NSD_docked.sdf

>  <pdb_id>  (2) 
7XJN_NSD

>  <pose_rank>  (2) 
1

>  <num_atoms_heavy>  (2) 
9

>  <num_torsions>  (2) 
6

>  <pose>  (2) 
[-1.8846409105047532, 6.706130062015642, 32.332776641183465, -0.47594092790603565, 1.0984680049485438, 2.3951321518201865, 0.4301014455317489, 1.950493611866783, 0.9741352961185579, -2.2883595157791015, -0.346985553228514, -0.9563463528093258]

>  <energy>  (2) 
-533.2741958424388

>  <inter_energy>  (2) 
-523.1967807404462

>  <intra_energy>  (2) 
0.0

>  <rmsd>  (2) 
0.811181

>  <sdf_rank>  (2) 
0

$$$$

     RDKit          3D

 29 28  0  0  0  0  0  0  0  0999 V2000
    1.7737    9.0721   32.4391 C   0  0  0  0  0  0  0  0  0  0  0  0
    2.2367    9.4971   33.7865 N   0  0  0  0  0  0  0  0  0  0  0  0
    0.2664    8.8884   32.4522 C   0  0  0  0  0  0  0  0  0  0  0  0
   -1.3452    7.0690   32.7595 N   0  0  0  0  0  0  0  0  0  0  0  0
   -0.2221    7.7875   33.3712 C   0  0  0  0  0  0  0  0  0  0  0  0
   -5.4882    6.3892   31.6030 N   0  0  0  0  0  0  0  0  0  0  0  0
   -2.5604    7.0534   33.5759 C   0  0  0  0  0  0  0  0  0  0  0  0
   -3.7534    7.6223   32.8426 C   0  0  0  0  0  0  0  0  0  0  0  0
   -4.9318    6.6653   32.9265 C   0  0  0  0  0  0  0  0  0  0  0  0
    2.0422    9.8415   31.7003 H   0  0  0  0  0  0  0  0  0  0  0  0
    2.2552    8.1200   32.1713 H   0  0  0  0  0  0  0  0  0  0  0  0
    1.6953    9.0001   34.5081 H   0  0  0  0  0  0  0  0  0  0  0  0
    3.2365    9.2734   33.8923 H   0  0  0  0  0  0  0  0  0  0  0  0
    2.0990   10.5124   33.8923 H   0  0  0  0  0  0  0  0  0  0  0  0
   -0.1927    9.8346   32.7746 H   0  0  0  0  0  0  0  0  0  0  0  0
   -0.0232    8.5970   31.4318 H   0  0  0  0  0  0  0  0  0  0  0  0
   -1.5657    7.5193   31.8597 H   0  0  0  0  0  0  0  0  0  0  0  0
   -1.0473    6.0889   32.6513 H   0  0  0  0  0  0  0  0  0  0  0  0
    0.6002    7.0814   33.5593 H   0  0  0  0  0  0  0  0  0  0  0  0
   -0.5596    8.2367   34.3169 H   0  0  0  0  0  0  0  0  0  0  0  0
   -6.4063    5.9335   31.7048 H   0  0  0  0  0  0  0  0  0  0  0  0
   -5.5990    7.2731   31.0859 H   0  0  0  0  0  0  0  0  0  0  0  0
   -4.8513    5.7664   31.0859 H   0  0  0  0  0  0  0  0  0  0  0  0
   -2.7824    6.0140   33.8593 H   0  0  0  0  0  0  0  0  0  0  0  0
   -2.3789    7.6818   34.4603 H   0  0  0  0  0  0  0  0  0  0  0  0
   -4.0340    8.5837   33.2976 H   0  0  0  0  0  0  0  0  0  0  0  0
   -3.4865    7.7683   31.7856 H   0  0  0  0  0  0  0  0  0  0  0  0
   -5.7134    7.1141   33.5571 H   0  0  0  0  0  0  0  0  0  0  0  0
   -4.5788    5.7175   33.3589 H   0  0  0  0  0  0  0  0  0  0  0  0
  1  2  1  0
  1  3  1  0
  3  5  1  0
  4  5  1  0
  4  7  1  0
  6  9  1  0
  7  8  1  0
  8  9  1  0
  1 10  1  0
  1 11  1  0
  2 12  1  0
  2 13  1  0
  2 14  1  0
  3 15  1  0
  3 16  1  0
  4 17  1  0
  4 18  1  0
  5 19  1  0
  5 20  1  0
  6 21  1  0
  6 22  1  0
  6 23  1  0
  7 24  1  0
  7 25  1  0
  8 26  1  0
  8 27  1  0
  9 28  1  0
  9 29  1  0
M  CHG  3   2   1   4   1   6   1
M  END
>  <filename_input>  (3) 
7XJN_NSD_docked.sdf

>  <pdb_id>  (3) 
7XJN_NSD

>  <pose_rank>  (3) 
2

>  <num_atoms_heavy>  (3) 
9

>  <num_torsions>  (3) 
6

>  <pose>  (3) 
[-1.3451535817725968, 7.0689875111683635, 32.75946877526909, -0.27380014478305686, 0.3406221834636942, -0.3792641648357202, -5.360447245887409, -5.767779070609554, 1.8813891205937936, 0.7482400665965392, -0.7389590654529367, 7.21670296604731]

>  <energy>  (3) 
-450.7444539919583

>  <inter_energy>  (3) 
-451.9762993028997

>  <intra_energy>  (3) 
0.0

>  <rmsd>  (3) 
1.14251

>  <sdf_rank>  (3) 
0

$$$$

     RDKit          3D

 29 28  0  0  0  0  0  0  0  0999 V2000
    5.0719   12.9196   25.5514 C   0  0  0  0  0  0  0  0  0  0  0  0
    6.1586   11.9429   25.8262 N   0  0  0  0  0  0  0  0  0  0  0  0
    5.5820   14.3302   25.7881 C   0  0  0  0  0  0  0  0  0  0  0  0
    3.2067   14.6682   26.2833 N   0  0  0  0  0  0  0  0  0  0  0  0
    4.5023   15.3379   26.1255 C   0  0  0  0  0  0  0  0  0  0  0  0
   -0.3323   15.2219   26.7913 N   0  0  0  0  0  0  0  0  0  0  0  0
    2.3571   15.2484   27.3251 C   0  0  0  0  0  0  0  0  0  0  0  0
    1.7345   16.5575   26.8967 C   0  0  0  0  0  0  0  0  0  0  0  0
    0.4239   16.3068   26.1681 C   0  0  0  0  0  0  0  0  0  0  0  0
    4.7454   12.8192   24.5058 H   0  0  0  0  0  0  0  0  0  0  0  0
    4.2238   12.7206   26.2230 H   0  0  0  0  0  0  0  0  0  0  0  0
    6.2760   11.8374   26.8440 H   0  0  0  0  0  0  0  0  0  0  0  0
    5.9141   11.0319   25.4125 H   0  0  0  0  0  0  0  0  0  0  0  0
    7.0384   12.2829   25.4125 H   0  0  0  0  0  0  0  0  0  0  0  0
    6.2985   14.3014   26.6223 H   0  0  0  0  0  0  0  0  0  0  0  0
    6.0369   14.6622   24.8432 H   0  0  0  0  0  0  0  0  0  0  0  0
    2.7027   14.7236   25.3868 H   0  0  0  0  0  0  0  0  0  0  0  0
    3.4061   13.6987   26.5683 H   0  0  0  0  0  0  0  0  0  0  0  0
    4.7633   15.8474   27.0648 H   0  0  0  0  0  0  0  0  0  0  0  0
    4.4282   16.0681   25.3062 H   0  0  0  0  0  0  0  0  0  0  0  0
   -0.2732   15.3067   27.8161 H   0  0  0  0  0  0  0  0  0  0  0  0
   -1.3182   15.2782   26.4985 H   0  0  0  0  0  0  0  0  0  0  0  0
    0.0616   14.3164   26.4985 H   0  0  0  0  0  0  0  0  0  0  0  0
    1.5535   14.5360   27.5632 H   0  0  0  0  0  0  0  0  0  0  0  0
    2.9904   15.4488   28.2019 H   0  0  0  0  0  0  0  0  0  0  0  0
    1.5425   17.1758   27.7860 H   0  0  0  0  0  0  0  0  0  0  0  0
    2.4268   17.0770   26.2179 H   0  0  0  0  0  0  0  0  0  0  0  0
    0.6405   16.0385   25.1236 H   0  0  0  0  0  0  0  0  0  0  0  0
   -0.1811   17.2242   26.2173 H   0  0  0  0  0  0  0  0  0  0  0  0
  1  2  1  0
  1  3  1  0
  3  5  1  0
  4  5  1  0
  4  7  1  0
  6  9  1  0
  7  8  1  0
  8  9  1  0
  1 10  1  0
  1 11  1  0
  2 12  1  0
  2 13  1  0
  2 14  1  0
  3 15  1  0
  3 16  1  0
  4 17  1  0
  4 18  1  0
  5 19  1  0
  5 20  1  0
  6 21  1  0
  6 22  1  0
  6 23  1  0
  7 24  1  0
  7 25  1  0
  8 26  1  0
  8 27  1  0
  9 28  1  0
  9 29  1  0
M  CHG  3   2   1   4   1   6   1
M  END
>  <filename_input>  (4) 
7XJN_NSD_docked.sdf

>  <pdb_id>  (4) 
7XJN_NSD

>  <pose_rank>  (4) 
3

>  <num_atoms_heavy>  (4) 
9

>  <num_torsions>  (4) 
6

>  <pose>  (4) 
[3.2067068865002644, 14.668243091714716, 26.28332673244519, 3.597992346595285, -2.7446534995849485, 2.455016920617499, -0.691448287939267, -3.1871740741463546, 0.2858891888983734, -0.09819151070753276, -1.4682841921890963, -2.42619689584579]

>  <energy>  (4) 
-112.95286776144553

>  <inter_energy>  (4) 
-105.16059047253427

>  <intra_energy>  (4) 
0.0

>  <rmsd>  (4) 
11.5228

>  <sdf_rank>  (4) 
0

$$$$

     RDKit          3D

 29 28  0  0  0  0  0  0  0  0999 V2000
    7.5191    9.5309   25.3896 C   0  0  0  0  0  0  0  0  0  0  0  0
    6.4852   10.2306   24.5824 N   0  0  0  0  0  0  0  0  0  0  0  0
    7.9599   10.4224   26.5372 C   0  0  0  0  0  0  0  0  0  0  0  0
    7.2399   12.6396   27.2904 N   0  0  0  0  0  0  0  0  0  0  0  0
    6.8442   11.2327   27.1645 C   0  0  0  0  0  0  0  0  0  0  0  0
    6.7455   14.7418   23.7450 N   0  0  0  0  0  0  0  0  0  0  0  0
    7.1528   13.3989   26.0416 C   0  0  0  0  0  0  0  0  0  0  0  0
    6.1682   14.5422   26.1311 C   0  0  0  0  0  0  0  0  0  0  0  0
    6.3289   15.4735   24.9402 C   0  0  0  0  0  0  0  0  0  0  0  0
    7.0993    8.5972   25.7919 H   0  0  0  0  0  0  0  0  0  0  0  0
    8.3858    9.3009   24.7524 H   0  0  0  0  0  0  0  0  0  0  0  0
    5.8097   10.6877   25.2115 H   0  0  0  0  0  0  0  0  0  0  0  0
    6.9360   10.9410   23.9882 H   0  0  0  0  0  0  0  0  0  0  0  0
    5.9934    9.5480   23.9882 H   0  0  0  0  0  0  0  0  0  0  0  0
    8.4029    9.7855   27.3170 H   0  0  0  0  0  0  0  0  0  0  0  0
    8.6745   11.1452   26.1166 H   0  0  0  0  0  0  0  0  0  0  0  0
    6.6254   13.0876   27.9850 H   0  0  0  0  0  0  0  0  0  0  0  0
    8.2303   12.6454   27.5732 H   0  0  0  0  0  0  0  0  0  0  0  0
    5.9470   11.1641   26.5318 H   0  0  0  0  0  0  0  0  0  0  0  0
    6.6327   10.8313   28.1666 H   0  0  0  0  0  0  0  0  0  0  0  0
    7.2361   13.8801   24.0235 H   0  0  0  0  0  0  0  0  0  0  0  0
    5.9161   14.4988   23.1846 H   0  0  0  0  0  0  0  0  0  0  0  0
    7.3777   15.3310   23.1846 H   0  0  0  0  0  0  0  0  0  0  0  0
    8.1469   13.8062   25.8055 H   0  0  0  0  0  0  0  0  0  0  0  0
    6.8014   12.7139   25.2559 H   0  0  0  0  0  0  0  0  0  0  0  0
    5.1446   14.1394   26.1408 H   0  0  0  0  0  0  0  0  0  0  0  0
    6.3604   15.1075   27.0549 H   0  0  0  0  0  0  0  0  0  0  0  0
    7.0889   16.2321   25.1787 H   0  0  0  0  0  0  0  0  0  0  0  0
    5.3569   15.9464   24.7361 H   0  0  0  0  0  0  0  0  0  0  0  0
  1  2  1  0
  1  3  1  0
  3  5  1  0
  4  5  1  0
  4  7  1  0
  6  9  1  0
  7  8  1  0
  8  9  1  0
  1 10  1  0
  1 11  1  0
  2 12  1  0
  2 13  1  0
  2 14  1  0
  3 15  1  0
  3 16  1  0
  4 17  1  0
  4 18  1  0
  5 19  1  0
  5 20  1  0
  6 21  1  0
  6 22  1  0
  6 23  1  0
  7 24  1  0
  7 25  1  0
  8 26  1  0
  8 27  1  0
  9 28  1  0
  9 29  1  0
M  CHG  3   2   1   4   1   6   1
M  END
>  <filename_input>  (5) 
7XJN_NSD_docked.sdf

>  <pdb_id>  (5) 
7XJN_NSD

>  <pose_rank>  (5) 
4

>  <num_atoms_heavy>  (5) 
9

>  <num_torsions>  (5) 
6

>  <pose>  (5) 
[7.239936576229109, 12.639570269435021, 27.290397358408683, -3.2732944279649856, 1.8401429915420624, -0.8400383809905367, -1.841591686797787, 0.7020881033694535, -2.6309726290940376, 0.6551142245711893, -0.06748892552713652, -2.548452446373955]

>  <energy>  (5) 
-112.20882193784898

>  <inter_energy>  (5) 
-89.41066344785294

>  <intra_energy>  (5) 
0.6620027250959946

>  <rmsd>  (5) 
13.0123

>  <sdf_rank>  (5) 
0

$$$$

     RDKit          3D

 29 28  0  0  0  0  0  0  0  0999 V2000
    3.6842   -2.0798   29.2079 C   0  0  0  0  0  0  0  0  0  0  0  0
    4.8537   -1.8940   28.3090 N   0  0  0  0  0  0  0  0  0  0  0  0
    4.1541   -2.5984   30.5556 C   0  0  0  0  0  0  0  0  0  0  0  0
    4.3271   -0.3133   31.4217 N   0  0  0  0  0  0  0  0  0  0  0  0
    4.9956   -1.6168   31.3451 C   0  0  0  0  0  0  0  0  0  0  0  0
    6.8455    2.9317   31.4757 N   0  0  0  0  0  0  0  0  0  0  0  0
    5.2375    0.8307   31.3432 C   0  0  0  0  0  0  0  0  0  0  0  0
    6.6019    0.5203   31.9148 C   0  0  0  0  0  0  0  0  0  0  0  0
    7.5616    1.6686   31.6470 C   0  0  0  0  0  0  0  0  0  0  0  0
    3.1713   -1.1164   29.3450 H   0  0  0  0  0  0  0  0  0  0  0  0
    2.9906   -2.8060   28.7590 H   0  0  0  0  0  0  0  0  0  0  0  0
    5.7037   -1.7589   28.8749 H   0  0  0  0  0  0  0  0  0  0  0  0
    4.9659   -2.7277   27.7147 H   0  0  0  0  0  0  0  0  0  0  0  0
    4.7019   -1.0666   27.7147 H   0  0  0  0  0  0  0  0  0  0  0  0
    3.2671   -2.8512   31.1552 H   0  0  0  0  0  0  0  0  0  0  0  0
    4.7956   -3.4682   30.3510 H   0  0  0  0  0  0  0  0  0  0  0  0
    3.6567   -0.2473   30.6425 H   0  0  0  0  0  0  0  0  0  0  0  0
    3.8708   -0.2671   32.3440 H   0  0  0  0  0  0  0  0  0  0  0  0
    5.1472   -2.0063   32.3626 H   0  0  0  0  0  0  0  0  0  0  0  0
    5.9643   -1.4910   30.8394 H   0  0  0  0  0  0  0  0  0  0  0  0
    6.6212    3.3273   32.3999 H   0  0  0  0  0  0  0  0  0  0  0  0
    7.4369    3.5936   30.9533 H   0  0  0  0  0  0  0  0  0  0  0  0
    5.9738    2.7640   30.9533 H   0  0  0  0  0  0  0  0  0  0  0  0
    5.3535    1.1182   30.2878 H   0  0  0  0  0  0  0  0  0  0  0  0
    4.8023    1.6476   31.9375 H   0  0  0  0  0  0  0  0  0  0  0  0
    6.5138    0.3671   33.0005 H   0  0  0  0  0  0  0  0  0  0  0  0
    6.9914   -0.3898   31.4354 H   0  0  0  0  0  0  0  0  0  0  0  0
    8.1315    1.4530   30.7312 H   0  0  0  0  0  0  0  0  0  0  0  0
    8.2352    1.7664   32.5112 H   0  0  0  0  0  0  0  0  0  0  0  0
  1  2  1  0
  1  3  1  0
  3  5  1  0
  4  5  1  0
  4  7  1  0
  6  9  1  0
  7  8  1  0
  8  9  1  0
  1 10  1  0
  1 11  1  0
  2 12  1  0
  2 13  1  0
  2 14  1  0
  3 15  1  0
  3 16  1  0
  4 17  1  0
  4 18  1  0
  5 19  1  0
  5 20  1  0
  6 21  1  0
  6 22  1  0
  6 23  1  0
  7 24  1  0
  7 25  1  0
  8 26  1  0
  8 27  1  0
  9 28  1  0
  9 29  1  0
M  CHG  3   2   1   4   1   6   1
M  END
>  <filename_input>  (6) 
7XJN_NSD_docked.sdf

>  <pdb_id>  (6) 
7XJN_NSD

>  <pose_rank>  (6) 
5

>  <num_atoms_heavy>  (6) 
9

>  <num_torsions>  (6) 
6

>  <pose>  (6) 
[4.327118443473836, -0.3132983743288908, 31.421706626848092, -1.2753075457998742, 1.119315544302599, -2.1284828767911397, 0.5847996058467254, -2.410224427960486, -2.1293275554377638, -1.9363176597871339, 0.01737751994691681, -2.67101086493591]

>  <energy>  (6) 
-108.43272899894824

>  <inter_energy>  (6) 
-95.97668655814246

>  <intra_energy>  (6) 
0.1447560162693267

>  <rmsd>  (6) 
10.9529

>  <sdf_rank>  (6) 
0

$$$$

     RDKit          3D

 29 28  0  0  0  0  0  0  0  0999 V2000
    7.8867   10.6087   25.8758 C   0  0  0  0  0  0  0  0  0  0  0  0
    8.2490    9.4945   24.9605 N   0  0  0  0  0  0  0  0  0  0  0  0
    6.7422   10.1776   26.7760 C   0  0  0  0  0  0  0  0  0  0  0  0
    5.3969   12.2234   26.8536 N   0  0  0  0  0  0  0  0  0  0  0  0
    5.4092   10.8153   26.4426 C   0  0  0  0  0  0  0  0  0  0  0  0
    3.9073   16.3684   25.0337 N   0  0  0  0  0  0  0  0  0  0  0  0
    4.2728   12.9928   26.3168 C   0  0  0  0  0  0  0  0  0  0  0  0
    4.4439   14.4806   26.5220 C   0  0  0  0  0  0  0  0  0  0  0  0
    4.7269   15.1686   25.1961 C   0  0  0  0  0  0  0  0  0  0  0  0
    8.7579   10.8734   26.4929 H   0  0  0  0  0  0  0  0  0  0  0  0
    7.5759   11.4816   25.2830 H   0  0  0  0  0  0  0  0  0  0  0  0
    8.5175    8.6687   25.5144 H   0  0  0  0  0  0  0  0  0  0  0  0
    7.4404    9.2614   24.3665 H   0  0  0  0  0  0  0  0  0  0  0  0
    9.0400    9.7816   24.3665 H   0  0  0  0  0  0  0  0  0  0  0  0
    6.6317    9.0863   26.6933 H   0  0  0  0  0  0  0  0  0  0  0  0
    7.0019   10.5065   27.7931 H   0  0  0  0  0  0  0  0  0  0  0  0
    5.3521   12.2599   27.8820 H   0  0  0  0  0  0  0  0  0  0  0  0
    6.2556   12.6502   26.4775 H   0  0  0  0  0  0  0  0  0  0  0  0
    5.2394   10.7534   25.3575 H   0  0  0  0  0  0  0  0  0  0  0  0
    4.6136   10.2801   26.9817 H   0  0  0  0  0  0  0  0  0  0  0  0
    3.6540   16.7392   25.9606 H   0  0  0  0  0  0  0  0  0  0  0  0
    4.4397   17.0799   24.5130 H   0  0  0  0  0  0  0  0  0  0  0  0
    3.0508   16.1312   24.5130 H   0  0  0  0  0  0  0  0  0  0  0  0
    4.1899   12.7920   25.2385 H   0  0  0  0  0  0  0  0  0  0  0  0
    3.3654   12.6818   26.8552 H   0  0  0  0  0  0  0  0  0  0  0  0
    3.5221   14.8951   26.9561 H   0  0  0  0  0  0  0  0  0  0  0  0
    5.2917   14.6522   27.2015 H   0  0  0  0  0  0  0  0  0  0  0  0
    4.5057   14.4700   24.3757 H   0  0  0  0  0  0  0  0  0  0  0  0
    5.7855   15.4669   25.1792 H   0  0  0  0  0  0  0  0  0  0  0  0
  1  2  1  0
  1  3  1  0
  3  5  1  0
  4  5  1  0
  4  7  1  0
  6  9  1  0
  7  8  1  0
  8  9  1  0
  1 10  1  0
  1 11  1  0
  2 12  1  0
  2 13  1  0
  2 14  1  0
  3 15  1  0
  3 16  1  0
  4 17  1  0
  4 18  1  0
  5 19  1  0
  5 20  1  0
  6 21  1  0
  6 22  1  0
  6 23  1  0
  7 24  1  0
  7 25  1  0
  8 26  1  0
  8 27  1  0
  9 28  1  0
  9 29  1  0
M  CHG  3   2   1   4   1   6   1
M  END
>  <filename_input>  (7) 
7XJN_NSD_docked.sdf

>  <pdb_id>  (7) 
7XJN_NSD

>  <pose_rank>  (7) 
6

>  <num_atoms_heavy>  (7) 
9

>  <num_torsions>  (7) 
6

>  <pose>  (7) 
[5.396894056394477, 12.22344787861104, 26.853575938520795, 2.447411979325733, -0.40177206926437076, -0.24191074717746025, -0.28442041904030935, -4.571622673919051, 1.1192982582630315, 1.9379109389979667, -1.0922291015071364, -0.777255066409994]

>  <energy>  (7) 
-107.54291493743861

>  <inter_energy>  (7) 
-96.83398230402844

>  <intra_energy>  (7) 
0.0

>  <rmsd>  (7) 
12.0805

>  <sdf_rank>  (7) 
0

$$$$

     RDKit          3D

 29 28  0  0  0  0  0  0  0  0999 V2000
    6.6750   14.2811   26.2294 C   0  0  0  0  0  0  0  0  0  0  0  0
    6.6566   15.7048   25.8015 N   0  0  0  0  0  0  0  0  0  0  0  0
    5.9901   13.4241   25.1794 C   0  0  0  0  0  0  0  0  0  0  0  0
    3.6968   13.4435   24.3180 N   0  0  0  0  0  0  0  0  0  0  0  0
    4.9746   14.1637   24.3328 C   0  0  0  0  0  0  0  0  0  0  0  0
   -0.4370   15.4861   25.9514 N   0  0  0  0  0  0  0  0  0  0  0  0
    2.7849   13.8220   25.3991 C   0  0  0  0  0  0  0  0  0  0  0  0
    1.6601   14.7100   24.9185 C   0  0  0  0  0  0  0  0  0  0  0  0
    1.0173   15.4318   26.0920 C   0  0  0  0  0  0  0  0  0  0  0  0
    7.7165   13.9487   26.3505 H   0  0  0  0  0  0  0  0  0  0  0  0
    6.1424   14.1807   27.1866 H   0  0  0  0  0  0  0  0  0  0  0  0
    6.6488   16.3130   26.6327 H   0  0  0  0  0  0  0  0  0  0  0  0
    7.4951   15.9046   25.2377 H   0  0  0  0  0  0  0  0  0  0  0  0
    5.8133   15.8830   25.2377 H   0  0  0  0  0  0  0  0  0  0  0  0
    6.7626   13.0156   24.5113 H   0  0  0  0  0  0  0  0  0  0  0  0
    5.4369   12.6440   25.7229 H   0  0  0  0  0  0  0  0  0  0  0  0
    3.2295   13.6321   23.4197 H   0  0  0  0  0  0  0  0  0  0  0  0
    3.9165   12.4459   24.4503 H   0  0  0  0  0  0  0  0  0  0  0  0
    4.8186   15.1693   24.7505 H   0  0  0  0  0  0  0  0  0  0  0  0
    5.3545   14.2359   23.3030 H   0  0  0  0  0  0  0  0  0  0  0  0
   -0.8718   15.5023   26.8850 H   0  0  0  0  0  0  0  0  0  0  0  0
   -0.7004   16.3375   25.4351 H   0  0  0  0  0  0  0  0  0  0  0  0
   -0.7632   14.6567   25.4351 H   0  0  0  0  0  0  0  0  0  0  0  0
    2.3530   12.9083   25.8334 H   0  0  0  0  0  0  0  0  0  0  0  0
    3.3639   14.3872   26.1444 H   0  0  0  0  0  0  0  0  0  0  0  0
    2.0604   15.4518   24.2118 H   0  0  0  0  0  0  0  0  0  0  0  0
    0.9006   14.0875   24.4228 H   0  0  0  0  0  0  0  0  0  0  0  0
    1.4109   16.4578   26.1406 H   0  0  0  0  0  0  0  0  0  0  0  0
    1.2563   14.8788   27.0124 H   0  0  0  0  0  0  0  0  0  0  0  0
  1  2  1  0
  1  3  1  0
  3  5  1  0
  4  5  1  0
  4  7  1  0
  6  9  1  0
  7  8  1  0
  8  9  1  0
  1 10  1  0
  1 11  1  0
  2 12  1  0
  2 13  1  0
  2 14  1  0
  3 15  1  0
  3 16  1  0
  4 17  1  0
  4 18  1  0
  5 19  1  0
  5 20  1  0
  6 21  1  0
  6 22  1  0
  6 23  1  0
  7 24  1  0
  7 25  1  0
  8 26  1  0
  8 27  1  0
  9 28  1  0
  9 29  1  0
M  CHG  3   2   1   4   1   6   1
M  END
>  <filename_input>  (8) 
7XJN_NSD_docked.sdf

>  <pdb_id>  (8) 
7XJN_NSD

>  <pose_rank>  (8) 
7

>  <num_atoms_heavy>  (8) 
9

>  <num_torsions>  (8) 
6

>  <pose>  (8) 
[3.6967617444295344, 13.443466048250425, 24.318041244979202, 3.4026302275208833, -3.160831024501758, 2.550983219132452, -1.649469193075929, 0.746793771632139, 2.551020094319127, 0.4107209166410564, 0.46456833060909375, 0.7354832818551665]

>  <energy>  (8) 
-104.79495072570035

>  <inter_energy>  (8) 
-100.88000142602095

>  <intra_energy>  (8) 
0.0

>  <rmsd>  (8) 
11.9409

>  <sdf_rank>  (8) 
0

$$$$

     RDKit          3D

 29 28  0  0  0  0  0  0  0  0999 V2000
   -7.2627   -1.5701   36.4487 C   0  0  0  0  0  0  0  0  0  0  0  0
   -8.6274   -2.0462   36.7968 N   0  0  0  0  0  0  0  0  0  0  0  0
   -6.2951   -1.9385   37.5596 C   0  0  0  0  0  0  0  0  0  0  0  0
   -5.5968   -1.0864   39.7477 N   0  0  0  0  0  0  0  0  0  0  0  0
   -5.7422   -0.7546   38.3263 C   0  0  0  0  0  0  0  0  0  0  0  0
   -5.3405    1.5463   42.2126 N   0  0  0  0  0  0  0  0  0  0  0  0
   -6.8562   -1.0824   40.4942 C   0  0  0  0  0  0  0  0  0  0  0  0
   -7.1411    0.2567   41.1348 C   0  0  0  0  0  0  0  0  0  0  0  0
   -6.2846    0.4421   42.3771 C   0  0  0  0  0  0  0  0  0  0  0  0
   -6.9387   -2.0425   35.5097 H   0  0  0  0  0  0  0  0  0  0  0  0
   -7.2778   -0.4771   36.3253 H   0  0  0  0  0  0  0  0  0  0  0  0
   -8.7278   -2.0813   37.8213 H   0  0  0  0  0  0  0  0  0  0  0  0
   -9.3269   -1.3996   36.4052 H   0  0  0  0  0  0  0  0  0  0  0  0
   -8.7728   -2.9877   36.4052 H   0  0  0  0  0  0  0  0  0  0  0  0
   -6.8205   -2.5935   38.2703 H   0  0  0  0  0  0  0  0  0  0  0  0
   -5.4365   -2.4293   37.0781 H   0  0  0  0  0  0  0  0  0  0  0  0
   -5.1810   -2.0260   39.8197 H   0  0  0  0  0  0  0  0  0  0  0  0
   -5.0023   -0.3555   40.1641 H   0  0  0  0  0  0  0  0  0  0  0  0
   -4.7585   -0.4843   37.9150 H   0  0  0  0  0  0  0  0  0  0  0  0
   -6.4394    0.0906   38.2275 H   0  0  0  0  0  0  0  0  0  0  0  0
   -5.0478    1.8886   43.1389 H   0  0  0  0  0  0  0  0  0  0  0  0
   -4.5151    1.2175   41.6915 H   0  0  0  0  0  0  0  0  0  0  0  0
   -5.7935    2.3106   41.6915 H   0  0  0  0  0  0  0  0  0  0  0  0
   -7.6772   -1.3256   39.8037 H   0  0  0  0  0  0  0  0  0  0  0  0
   -6.7723   -1.8282   41.2984 H   0  0  0  0  0  0  0  0  0  0  0  0
   -6.9152    1.0580   40.4157 H   0  0  0  0  0  0  0  0  0  0  0  0
   -8.2019    0.2962   41.4232 H   0  0  0  0  0  0  0  0  0  0  0  0
   -5.7227   -0.4844   42.5662 H   0  0  0  0  0  0  0  0  0  0  0  0
   -6.9472    0.6756   43.2235 H   0  0  0  0  0  0  0  0  0  0  0  0
  1  2  1  0
  1  3  1  0
  3  5  1  0
  4  5  1  0
  4  7  1  0
  6  9  1  0
  7  8  1  0
  8  9  1  0
  1 10  1  0
  1 11  1  0
  2 12  1  0
  2 13  1  0
  2 14  1  0
  3 15  1  0
  3 16  1  0
  4 17  1  0
  4 18  1  0
  5 19  1  0
  5 20  1  0
  6 21  1  0
  6 22  1  0
  6 23  1  0
  7 24  1  0
  7 25  1  0
  8 26  1  0
  8 27  1  0
  9 28  1  0
  9 29  1  0
M  CHG  3   2   1   4   1   6   1
M  END
>  <filename_input>  (9) 
7XJN_NSD_docked.sdf

>  <pdb_id>  (9) 
7XJN_NSD

>  <pose_rank>  (9) 
8

>  <num_atoms_heavy>  (9) 
9

>  <num_torsions>  (9) 
6

>  <pose>  (9) 
[-5.596750208200285, -1.0863592058051936, 39.7477400697912, 3.676515386028295, 0.6668745219984732, -1.094600812144589, -4.545498464292587, -0.7936667193946237, 1.0295416075265382, 3.2608649827731453, 1.9508562920326376, -1.0973429938158854]

>  <energy>  (9) 
-104.25407518330644

>  <inter_energy>  (9) 
-91.2790983709274

>  <intra_energy>  (9) 
0.0

>  <rmsd>  (9) 
11.6872

>  <sdf_rank>  (9) 
0

$$$$

     RDKit          3D

 29 28  0  0  0  0  0  0  0  0999 V2000
   -8.3309    0.7991   41.1483 C   0  0  0  0  0  0  0  0  0  0  0  0
   -7.1808    1.6513   40.7467 N   0  0  0  0  0  0  0  0  0  0  0  0
   -8.0919   -0.6289   40.6905 C   0  0  0  0  0  0  0  0  0  0  0  0
   -6.0476   -1.9670   40.8684 N   0  0  0  0  0  0  0  0  0  0  0  0
   -6.7071   -0.8836   40.1315 C   0  0  0  0  0  0  0  0  0  0  0  0
   -2.2442   -1.8210   41.8944 N   0  0  0  0  0  0  0  0  0  0  0  0
   -5.8322   -1.6796   42.2878 C   0  0  0  0  0  0  0  0  0  0  0  0
   -4.5070   -2.2079   42.7871 C   0  0  0  0  0  0  0  0  0  0  0  0
   -3.4027   -1.1951   42.5298 C   0  0  0  0  0  0  0  0  0  0  0  0
   -8.4368    0.8196   42.2430 H   0  0  0  0  0  0  0  0  0  0  0  0
   -9.2501    1.1830   40.6819 H   0  0  0  0  0  0  0  0  0  0  0  0
   -6.7044    2.0043   41.5889 H   0  0  0  0  0  0  0  0  0  0  0  0
   -6.5199    1.0944   40.1864 H   0  0  0  0  0  0  0  0  0  0  0  0
   -7.5213    2.4457   40.1864 H   0  0  0  0  0  0  0  0  0  0  0  0
   -8.2433   -1.2962   41.5518 H   0  0  0  0  0  0  0  0  0  0  0  0
   -8.8009   -0.8187   39.8712 H   0  0  0  0  0  0  0  0  0  0  0  0
   -6.6326   -2.8115   40.7944 H   0  0  0  0  0  0  0  0  0  0  0  0
   -5.1164   -2.0900   40.4456 H   0  0  0  0  0  0  0  0  0  0  0  0
   -6.7907   -1.1652   39.0714 H   0  0  0  0  0  0  0  0  0  0  0  0
   -6.1077    0.0330   40.2340 H   0  0  0  0  0  0  0  0  0  0  0  0
   -1.6009   -2.1685   42.6198 H   0  0  0  0  0  0  0  0  0  0  0  0
   -2.5576   -2.6076   41.3079 H   0  0  0  0  0  0  0  0  0  0  0  0
   -1.7581   -1.1277   41.3079 H   0  0  0  0  0  0  0  0  0  0  0  0
   -5.8566   -0.5898   42.4354 H   0  0  0  0  0  0  0  0  0  0  0  0
   -6.6293   -2.1808   42.8565 H   0  0  0  0  0  0  0  0  0  0  0  0
   -4.5775   -2.4007   43.8678 H   0  0  0  0  0  0  0  0  0  0  0  0
   -4.2693   -3.1391   42.2520 H   0  0  0  0  0  0  0  0  0  0  0  0
   -3.0909   -0.7540   43.4880 H   0  0  0  0  0  0  0  0  0  0  0  0
   -3.7931   -0.4207   41.8531 H   0  0  0  0  0  0  0  0  0  0  0  0
  1  2  1  0
  1  3  1  0
  3  5  1  0
  4  5  1  0
  4  7  1  0
  6  9  1  0
  7  8  1  0
  8  9  1  0
  1 10  1  0
  1 11  1  0
  2 12  1  0
  2 13  1  0
  2 14  1  0
  3 15  1  0
  3 16  1  0
  4 17  1  0
  4 18  1  0
  5 19  1  0
  5 20  1  0
  6 21  1  0
  6 22  1  0
  6 23  1  0
  7 24  1  0
  7 25  1  0
  8 26  1  0
  8 27  1  0
  9 28  1  0
  9 29  1  0
M  CHG  3   2   1   4   1   6   1
M  END
>  <filename_input>  (10) 
7XJN_NSD_docked.sdf

>  <pdb_id>  (10) 
7XJN_NSD

>  <pose_rank>  (10) 
9

>  <num_atoms_heavy>  (10) 
9

>  <num_torsions>  (10) 
6

>  <pose>  (10) 
[-6.047559162584236, -1.967015746871293, 40.86839033492222, -1.3694400897188121, 0.9370275710163698, 1.0214484738513396, 1.9912117883734783, -1.1383397253916243, -3.1494186616234643, -3.8825767927970176, -1.4918385853887242, 0.8853738486170848]

>  <energy>  (10) 
-103.52311534913984

>  <inter_energy>  (10) 
-86.59636208751118

>  <intra_energy>  (10) 
0.303565178205877

>  <rmsd>  (10) 
12.6885

>  <sdf_rank>  (10) 
0

$$$$

     RDKit          3D

 29 28  0  0  0  0  0  0  0  0999 V2000
   -1.5799   17.3863   25.5951 C   0  0  0  0  0  0  0  0  0  0  0  0
   -0.6974   16.5273   24.7624 N   0  0  0  0  0  0  0  0  0  0  0  0
   -2.7526   16.5684   26.1067 C   0  0  0  0  0  0  0  0  0  0  0  0
   -4.6944   15.2055   25.4954 N   0  0  0  0  0  0  0  0  0  0  0  0
   -3.8398   16.3232   25.0805 C   0  0  0  0  0  0  0  0  0  0  0  0
   -7.9343   14.3746   24.7917 N   0  0  0  0  0  0  0  0  0  0  0  0
   -4.5176   13.9902   24.6984 C   0  0  0  0  0  0  0  0  0  0  0  0
   -5.7570   13.6340   23.9099 C   0  0  0  0  0  0  0  0  0  0  0  0
   -6.9129   13.3301   24.8495 C   0  0  0  0  0  0  0  0  0  0  0  0
   -1.0081   17.7797   26.4486 H   0  0  0  0  0  0  0  0  0  0  0  0
   -1.9556   18.2221   24.9866 H   0  0  0  0  0  0  0  0  0  0  0  0
   -0.1038   15.9494   25.3745 H   0  0  0  0  0  0  0  0  0  0  0  0
   -1.2751   15.9160   24.1678 H   0  0  0  0  0  0  0  0  0  0  0  0
   -0.1019   17.1212   24.1678 H   0  0  0  0  0  0  0  0  0  0  0  0
   -2.3711   15.5931   26.4433 H   0  0  0  0  0  0  0  0  0  0  0  0
   -3.2125   17.1522   26.9177 H   0  0  0  0  0  0  0  0  0  0  0  0
   -4.4805   14.9820   26.4779 H   0  0  0  0  0  0  0  0  0  0  0  0
   -5.6689   15.5105   25.3601 H   0  0  0  0  0  0  0  0  0  0  0  0
   -4.4537   17.2304   24.9796 H   0  0  0  0  0  0  0  0  0  0  0  0
   -3.3705   16.0741   24.1173 H   0  0  0  0  0  0  0  0  0  0  0  0
   -8.2010   14.6473   25.7485 H   0  0  0  0  0  0  0  0  0  0  0  0
   -7.5595   15.1941   24.2930 H   0  0  0  0  0  0  0  0  0  0  0  0
   -8.7620   14.0181   24.2930 H   0  0  0  0  0  0  0  0  0  0  0  0
   -3.6849   14.1458   23.9967 H   0  0  0  0  0  0  0  0  0  0  0  0
   -4.3107   13.1613   25.3913 H   0  0  0  0  0  0  0  0  0  0  0  0
   -6.0296   14.4796   23.2613 H   0  0  0  0  0  0  0  0  0  0  0  0
   -5.5485   12.7424   23.3003 H   0  0  0  0  0  0  0  0  0  0  0  0
   -6.5295   13.2607   25.8782 H   0  0  0  0  0  0  0  0  0  0  0  0
   -7.3711   12.3794   24.5395 H   0  0  0  0  0  0  0  0  0  0  0  0
  1  2  1  0
  1  3  1  0
  3  5  1  0
  4  5  1  0
  4  7  1  0
  6  9  1  0
  7  8  1  0
  8  9  1  0
  1 10  1  0
  1 11  1  0
  2 12  1  0
  2 13  1  0
  2 14  1  0
  3 15  1  0
  3 16  1  0
  4 17  1  0
  4 18  1  0
  5 19  1  0
  5 20  1  0
  6 21  1  0
  6 22  1  0
  6 23  1  0
  7 24  1  0
  7 25  1  0
  8 26  1  0
  8 27  1  0
  9 28  1  0
  9 29  1  0
M  CHG  3   2   1   4   1   6   1
M  END
>  <filename_input>  (11) 
7XJN_NSD_docked.sdf

>  <pdb_id>  (11) 
7XJN_NSD

>  <pose_rank>  (11) 
10

>  <num_atoms_heavy>  (11) 
9

>  <num_torsions>  (11) 
6

>  <pose>  (11) 
[-4.694416153052288, 15.205522533595861, 25.49543847312188, 1.5505098124762897, 2.4097637731320556, 0.8397810710606607, 1.1800470747039646, -0.46526962085682094, 1.6402511854742157, 2.870521941970368, 2.1908250236806714, -1.1899334127780947]

>  <energy>  (11) 
-103.2884948187639

>  <inter_energy>  (11) 
-94.79355513901433

>  <intra_energy>  (11) 
0.993887930243905

>  <rmsd>  (11) 
11.5248

>  <sdf_rank>  (11) 
0

$$$$

     RDKit          3D

 29 28  0  0  0  0  0  0  0  0999 V2000
   -5.9793   16.8078   25.7260 C   0  0  0  0  0  0  0  0  0  0  0  0
   -7.2815   17.5032   25.5497 N   0  0  0  0  0  0  0  0  0  0  0  0
   -5.7772   15.8100   24.5992 C   0  0  0  0  0  0  0  0  0  0  0  0
   -5.8545   13.3877   24.2416 N   0  0  0  0  0  0  0  0  0  0  0  0
   -5.2563   14.4592   25.0452 C   0  0  0  0  0  0  0  0  0  0  0  0
   -9.4821   10.6528   23.2434 N   0  0  0  0  0  0  0  0  0  0  0  0
   -7.0644   12.8066   24.8263 C   0  0  0  0  0  0  0  0  0  0  0  0
   -8.1799   12.6634   23.8164 C   0  0  0  0  0  0  0  0  0  0  0  0
   -9.1927   11.6327   24.2890 C   0  0  0  0  0  0  0  0  0  0  0  0
   -5.1647   17.5469   25.7108 H   0  0  0  0  0  0  0  0  0  0  0  0
   -5.9768   16.2762   26.6890 H   0  0  0  0  0  0  0  0  0  0  0  0
   -7.6838   17.7180   26.4732 H   0  0  0  0  0  0  0  0  0  0  0  0
   -7.1352   18.3785   25.0268 H   0  0  0  0  0  0  0  0  0  0  0  0
   -7.9275   16.8948   25.0268 H   0  0  0  0  0  0  0  0  0  0  0  0
   -6.7441   15.6573   24.0974 H   0  0  0  0  0  0  0  0  0  0  0  0
   -5.0120   16.2377   23.9347 H   0  0  0  0  0  0  0  0  0  0  0  0
   -6.0948   13.7725   23.3169 H   0  0  0  0  0  0  0  0  0  0  0  0
   -5.1573   12.6314   24.1887 H   0  0  0  0  0  0  0  0  0  0  0  0
   -4.1631   14.4349   24.9248 H   0  0  0  0  0  0  0  0  0  0  0  0
   -5.5248   14.3049   26.1007 H   0  0  0  0  0  0  0  0  0  0  0  0
   -9.7468    9.7565   23.6766 H   0  0  0  0  0  0  0  0  0  0  0  0
  -10.2583   10.9938   22.6585 H   0  0  0  0  0  0  0  0  0  0  0  0
   -8.6451   10.5175   22.6585 H   0  0  0  0  0  0  0  0  0  0  0  0
   -6.8206   11.8116   25.2271 H   0  0  0  0  0  0  0  0  0  0  0  0
   -7.4138   13.4851   25.6185 H   0  0  0  0  0  0  0  0  0  0  0  0
   -8.6820   13.6340   23.6907 H   0  0  0  0  0  0  0  0  0  0  0  0
   -7.7536   12.3318   22.8581 H   0  0  0  0  0  0  0  0  0  0  0  0
  -10.1248   12.1472   24.5656 H   0  0  0  0  0  0  0  0  0  0  0  0
   -8.7692   11.1018   25.1543 H   0  0  0  0  0  0  0  0  0  0  0  0
  1  2  1  0
  1  3  1  0
  3  5  1  0
  4  5  1  0
  4  7  1  0
  6  9  1  0
  7  8  1  0
  8  9  1  0
  1 10  1  0
  1 11  1  0
  2 12  1  0
  2 13  1  0
  2 14  1  0
  3 15  1  0
  3 16  1  0
  4 17  1  0
  4 18  1  0
  5 19  1  0
  5 20  1  0
  6 21  1  0
  6 22  1  0
  6 23  1  0
  7 24  1  0
  7 25  1  0
  8 26  1  0
  8 27  1  0
  9 28  1  0
  9 29  1  0
M  CHG  3   2   1   4   1   6   1
M  END
>  <filename_input>  (12) 
7XJN_NSD_docked.sdf

>  <pdb_id>  (12) 
7XJN_NSD

>  <pose_rank>  (12) 
11

>  <num_atoms_heavy>  (12) 
9

>  <num_torsions>  (12) 
6

>  <pose>  (12) 
[-5.854497612605348, 13.387695052129287, 24.24157798863172, 5.523685703757429, -2.231635847956308, -0.6705586978371535, -4.829533534778066, -0.7834560691490513, 0.6235045606349152, 0.9209748303044776, -0.21313242027693155, 0.9054618839321616]

>  <energy>  (12) 
-102.56961200622467

>  <inter_energy>  (12) 
-90.85596889174039

>  <intra_energy>  (12) 
0.0

>  <rmsd>  (12) 
12.098

>  <sdf_rank>  (12) 
0

$$$$

     RDKit          3D

 29 28  0  0  0  0  0  0  0  0999 V2000
    7.8413    1.9619   30.0182 C   0  0  0  0  0  0  0  0  0  0  0  0
    6.8852    1.6721   31.1192 N   0  0  0  0  0  0  0  0  0  0  0  0
    7.3028    1.4003   28.7140 C   0  0  0  0  0  0  0  0  0  0  0  0
    6.2224    1.8051   26.5529 N   0  0  0  0  0  0  0  0  0  0  0  0
    6.7234    2.4399   27.7768 C   0  0  0  0  0  0  0  0  0  0  0  0
    2.9689   -0.9065   27.5192 N   0  0  0  0  0  0  0  0  0  0  0  0
    4.8889    1.2161   26.6881 C   0  0  0  0  0  0  0  0  0  0  0  0
    4.7966   -0.1514   26.0508 C   0  0  0  0  0  0  0  0  0  0  0  0
    4.3330   -1.1800   27.0699 C   0  0  0  0  0  0  0  0  0  0  0  0
    7.9703    3.0501   29.9225 H   0  0  0  0  0  0  0  0  0  0  0  0
    8.8109    1.4943   30.2442 H   0  0  0  0  0  0  0  0  0  0  0  0
    7.3526    1.8138   32.0260 H   0  0  0  0  0  0  0  0  0  0  0  0
    6.0763    2.3057   31.0472 H   0  0  0  0  0  0  0  0  0  0  0  0
    6.5642    0.6960   31.0472 H   0  0  0  0  0  0  0  0  0  0  0  0
    8.1261    0.8888   28.1938 H   0  0  0  0  0  0  0  0  0  0  0  0
    6.4778    0.7235   28.9807 H   0  0  0  0  0  0  0  0  0  0  0  0
    6.1876    2.5175   25.8099 H   0  0  0  0  0  0  0  0  0  0  0  0
    6.8675    1.0327   26.3334 H   0  0  0  0  0  0  0  0  0  0  0  0
    5.8950    2.9598   28.2802 H   0  0  0  0  0  0  0  0  0  0  0  0
    7.5133    3.1569   27.5083 H   0  0  0  0  0  0  0  0  0  0  0  0
    2.9412   -0.9009   28.5488 H   0  0  0  0  0  0  0  0  0  0  0  0
    2.6676    0.0117   27.1627 H   0  0  0  0  0  0  0  0  0  0  0  0
    2.3369   -1.6375   27.1627 H   0  0  0  0  0  0  0  0  0  0  0  0
    4.6498    1.1244   27.7579 H   0  0  0  0  0  0  0  0  0  0  0  0
    4.1764    1.8761   26.1716 H   0  0  0  0  0  0  0  0  0  0  0  0
    4.0780   -0.1159   25.2188 H   0  0  0  0  0  0  0  0  0  0  0  0
    5.7908   -0.4399   25.6791 H   0  0  0  0  0  0  0  0  0  0  0  0
    5.0081   -1.1536   27.9379 H   0  0  0  0  0  0  0  0  0  0  0  0
    4.3491   -2.1715   26.5937 H   0  0  0  0  0  0  0  0  0  0  0  0
  1  2  1  0
  1  3  1  0
  3  5  1  0
  4  5  1  0
  4  7  1  0
  6  9  1  0
  7  8  1  0
  8  9  1  0
  1 10  1  0
  1 11  1  0
  2 12  1  0
  2 13  1  0
  2 14  1  0
  3 15  1  0
  3 16  1  0
  4 17  1  0
  4 18  1  0
  5 19  1  0
  5 20  1  0
  6 21  1  0
  6 22  1  0
  6 23  1  0
  7 24  1  0
  7 25  1  0
  8 26  1  0
  8 27  1  0
  9 28  1  0
  9 29  1  0
M  CHG  3   2   1   4   1   6   1
M  END
>  <filename_input>  (13) 
7XJN_NSD_docked.sdf

>  <pdb_id>  (13) 
7XJN_NSD

>  <pose_rank>  (13) 
12

>  <num_atoms_heavy>  (13) 
9

>  <num_torsions>  (13) 
6

>  <pose>  (13) 
[6.222440309973564, 1.8050772627395753, 26.552932100733855, -4.636706041411213, 2.7054478898956043, 2.980430851949392, 4.497636126499695, -0.14346004245684968, -1.4756657436416036, 2.4983060858139408, -0.8378945093439725, -1.9745403370666241]

>  <energy>  (13) 
-101.70252362664955

>  <inter_energy>  (13) 
-93.90957570057363

>  <intra_energy>  (13) 
0.0

>  <rmsd>  (13) 
11.3567

>  <sdf_rank>  (13) 
0

$$$$

     RDKit          3D

 29 28  0  0  0  0  0  0  0  0999 V2000
   -7.6393   17.5301   34.5470 C   0  0  0  0  0  0  0  0  0  0  0  0
   -8.7096   17.1449   33.5898 N   0  0  0  0  0  0  0  0  0  0  0  0
   -6.5816   16.4415   34.5947 C   0  0  0  0  0  0  0  0  0  0  0  0
   -4.6153   16.1513   33.1626 N   0  0  0  0  0  0  0  0  0  0  0  0
   -5.1785   16.9179   34.2793 C   0  0  0  0  0  0  0  0  0  0  0  0
   -3.6883   17.1975   29.2240 N   0  0  0  0  0  0  0  0  0  0  0  0
   -4.2233   16.9697   32.0135 C   0  0  0  0  0  0  0  0  0  0  0  0
   -5.3579   17.1678   31.0347 C   0  0  0  0  0  0  0  0  0  0  0  0
   -4.9693   16.6446   29.6611 C   0  0  0  0  0  0  0  0  0  0  0  0
   -7.1785   18.4740   34.2203 H   0  0  0  0  0  0  0  0  0  0  0  0
   -8.0748   17.6600   35.5487 H   0  0  0  0  0  0  0  0  0  0  0  0
   -9.5451   16.8442   34.1118 H   0  0  0  0  0  0  0  0  0  0  0  0
   -8.9475   17.9531   32.9972 H   0  0  0  0  0  0  0  0  0  0  0  0
   -8.3778   16.3705   32.9972 H   0  0  0  0  0  0  0  0  0  0  0  0
   -6.5787   16.0087   35.6059 H   0  0  0  0  0  0  0  0  0  0  0  0
   -6.8475   15.7112   33.8163 H   0  0  0  0  0  0  0  0  0  0  0  0
   -3.7819   15.6500   33.5020 H   0  0  0  0  0  0  0  0  0  0  0  0
   -5.3562   15.5151   32.8353 H   0  0  0  0  0  0  0  0  0  0  0  0
   -5.2103   17.9833   34.0075 H   0  0  0  0  0  0  0  0  0  0  0  0
   -4.5451   16.7719   35.1666 H   0  0  0  0  0  0  0  0  0  0  0  0
   -3.1210   17.4423   30.0480 H   0  0  0  0  0  0  0  0  0  0  0  0
   -3.1876   16.4976   28.6580 H   0  0  0  0  0  0  0  0  0  0  0  0
   -3.8541   18.0419   28.6580 H   0  0  0  0  0  0  0  0  0  0  0  0
   -3.8939   17.9543   32.3768 H   0  0  0  0  0  0  0  0  0  0  0  0
   -3.4136   16.4433   31.4870 H   0  0  0  0  0  0  0  0  0  0  0  0
   -6.2445   16.6238   31.3923 H   0  0  0  0  0  0  0  0  0  0  0  0
   -5.5797   18.2425   30.9578 H   0  0  0  0  0  0  0  0  0  0  0  0
   -5.7473   16.9275   28.9368 H   0  0  0  0  0  0  0  0  0  0  0  0
   -4.8723   15.5506   29.7214 H   0  0  0  0  0  0  0  0  0  0  0  0
  1  2  1  0
  1  3  1  0
  3  5  1  0
  4  5  1  0
  4  7  1  0
  6  9  1  0
  7  8  1  0
  8  9  1  0
  1 10  1  0
  1 11  1  0
  2 12  1  0
  2 13  1  0
  2 14  1  0
  3 15  1  0
  3 16  1  0
  4 17  1  0
  4 18  1  0
  5 19  1  0
  5 20  1  0
  6 21  1  0
  6 22  1  0
  6 23  1  0
  7 24  1  0
  7 25  1  0
  8 26  1  0
  8 27  1  0
  9 28  1  0
  9 29  1  0
M  CHG  3   2   1   4   1   6   1
M  END
>  <filename_input>  (14) 
7XJN_NSD_docked.sdf

>  <pdb_id>  (14) 
7XJN_NSD

>  <pose_rank>  (14) 
13

>  <num_atoms_heavy>  (14) 
9

>  <num_torsions>  (14) 
6

>  <pose>  (14) 
[-4.615261041653847, 16.15130405544033, 33.16257530336487, 0.04190458774510782, -1.6422270773952456, -1.6407757724257397, -1.08954530922101, 0.8321679945219299, -1.132143249562172, -2.9568494744975378, 1.1685459877335191, 2.2712241988147346]

>  <energy>  (14) 
-101.07876087652515

>  <inter_energy>  (14) 
-96.80189413990063

>  <intra_energy>  (14) 
0.0

>  <rmsd>  (14) 
10.8104

>  <sdf_rank>  (14) 
0

$$$$

     RDKit          3D

 29 28  0  0  0  0  0  0  0  0999 V2000
   -6.8910    3.0722   24.8491 C   0  0  0  0  0  0  0  0  0  0  0  0
   -6.0278    2.4110   23.8352 N   0  0  0  0  0  0  0  0  0  0  0  0
   -8.0532    3.7626   24.1574 C   0  0  0  0  0  0  0  0  0  0  0  0
   -9.6788    1.9834   24.5971 N   0  0  0  0  0  0  0  0  0  0  0  0
   -9.4141    3.4203   24.7282 C   0  0  0  0  0  0  0  0  0  0  0  0
   -7.8229   -1.6121   26.5731 N   0  0  0  0  0  0  0  0  0  0  0  0
  -10.0635    1.3300   25.8496 C   0  0  0  0  0  0  0  0  0  0  0  0
   -9.6635   -0.1271   25.8848 C   0  0  0  0  0  0  0  0  0  0  0  0
   -8.1704   -0.2602   26.1385 C   0  0  0  0  0  0  0  0  0  0  0  0
   -7.2780    2.3168   25.5489 H   0  0  0  0  0  0  0  0  0  0  0  0
   -6.2999    3.8176   25.4014 H   0  0  0  0  0  0  0  0  0  0  0  0
   -5.3027    1.8555   24.3113 H   0  0  0  0  0  0  0  0  0  0  0  0
   -6.6028    1.7920   23.2460 H   0  0  0  0  0  0  0  0  0  0  0  0
   -5.5799    3.1273   23.2460 H   0  0  0  0  0  0  0  0  0  0  0  0
   -7.9078    4.8496   24.2428 H   0  0  0  0  0  0  0  0  0  0  0  0
   -8.0523    3.4104   23.1153 H   0  0  0  0  0  0  0  0  0  0  0  0
  -10.4425    1.8558   23.9179 H   0  0  0  0  0  0  0  0  0  0  0  0
   -8.7979    1.5456   24.2920 H   0  0  0  0  0  0  0  0  0  0  0  0
   -9.4407    3.6978   25.7923 H   0  0  0  0  0  0  0  0  0  0  0  0
  -10.1834    3.9762   24.1723 H   0  0  0  0  0  0  0  0  0  0  0  0
   -7.8132   -1.6500   27.6024 H   0  0  0  0  0  0  0  0  0  0  0  0
   -8.5199   -2.2788   26.2116 H   0  0  0  0  0  0  0  0  0  0  0  0
   -6.8909   -1.8600   26.2116 H   0  0  0  0  0  0  0  0  0  0  0  0
   -9.5736    1.8513   26.6852 H   0  0  0  0  0  0  0  0  0  0  0  0
  -11.1594    1.3795   25.9314 H   0  0  0  0  0  0  0  0  0  0  0  0
  -10.2148   -0.6352   26.6898 H   0  0  0  0  0  0  0  0  0  0  0  0
   -9.9032   -0.5868   24.9146 H   0  0  0  0  0  0  0  0  0  0  0  0
   -7.8750    0.4546   26.9207 H   0  0  0  0  0  0  0  0  0  0  0  0
   -7.6389   -0.0507   25.1985 H   0  0  0  0  0  0  0  0  0  0  0  0
  1  2  1  0
  1  3  1  0
  3  5  1  0
  4  5  1  0
  4  7  1  0
  6  9  1  0
  7  8  1  0
  8  9  1  0
  1 10  1  0
  1 11  1  0
  2 12  1  0
  2 13  1  0
  2 14  1  0
  3 15  1  0
  3 16  1  0
  4 17  1  0
  4 18  1  0
  5 19  1  0
  5 20  1  0
  6 21  1  0
  6 22  1  0
  6 23  1  0
  7 24  1  0
  7 25  1  0
  8 26  1  0
  8 27  1  0
  9 28  1  0
  9 29  1  0
M  CHG  3   2   1   4   1   6   1
M  END
>  <filename_input>  (15) 
7XJN_NSD_docked.sdf

>  <pdb_id>  (15) 
7XJN_NSD

>  <pose_rank>  (15) 
14

>  <num_atoms_heavy>  (15) 
9

>  <num_torsions>  (15) 
6

>  <pose>  (15) 
[-9.678847541913457, 1.983439843869206, 24.597137885903894, 3.1261147909101377, -3.139885766931957, -2.871551008736265, 5.2956565121041965, 1.923445637792863, -1.0398077998539985, 2.2372431871612872, -1.6668922675727689, -0.26617638983246167]

>  <energy>  (15) 
-100.69273815176112

>  <inter_energy>  (15) 
-90.40605621852166

>  <intra_energy>  (15) 
0.0609601881504035

>  <rmsd>  (15) 
12.0519

>  <sdf_rank>  (15) 
0

$$$$

     RDKit          3D

 29 28  0  0  0  0  0  0  0  0999 V2000
  -10.7064   14.1902   34.8463 C   0  0  0  0  0  0  0  0  0  0  0  0
  -10.8608   14.9392   36.1212 N   0  0  0  0  0  0  0  0  0  0  0  0
  -11.0939   15.0825   33.6803 C   0  0  0  0  0  0  0  0  0  0  0  0
   -9.2684   16.1668   32.4582 N   0  0  0  0  0  0  0  0  0  0  0  0
  -10.1581   15.0010   32.4917 C   0  0  0  0  0  0  0  0  0  0  0  0
   -7.3985   16.5662   35.6845 N   0  0  0  0  0  0  0  0  0  0  0  0
   -7.8729   15.8630   32.7805 C   0  0  0  0  0  0  0  0  0  0  0  0
   -7.1235   17.0729   33.2898 C   0  0  0  0  0  0  0  0  0  0  0  0
   -7.6954   17.5270   34.6232 C   0  0  0  0  0  0  0  0  0  0  0  0
   -9.6592   13.8734   34.7325 H   0  0  0  0  0  0  0  0  0  0  0  0
  -11.3596   13.3052   34.8615 H   0  0  0  0  0  0  0  0  0  0  0  0
  -10.7283   14.2966   36.9152 H   0  0  0  0  0  0  0  0  0  0  0  0
  -10.1569   15.6898   36.1658 H   0  0  0  0  0  0  0  0  0  0  0  0
  -11.8042   15.3502   36.1658 H   0  0  0  0  0  0  0  0  0  0  0  0
  -12.1010   14.7933   33.3456 H   0  0  0  0  0  0  0  0  0  0  0  0
  -11.0449   16.1182   34.0478 H   0  0  0  0  0  0  0  0  0  0  0  0
   -9.3010   16.5715   31.5116 H   0  0  0  0  0  0  0  0  0  0  0  0
   -9.6052   16.8185   33.1812 H   0  0  0  0  0  0  0  0  0  0  0  0
   -9.5529   14.0857   32.5695 H   0  0  0  0  0  0  0  0  0  0  0  0
  -10.7559   14.9827   31.5685 H   0  0  0  0  0  0  0  0  0  0  0  0
   -7.5369   17.0141   36.6016 H   0  0  0  0  0  0  0  0  0  0  0  0
   -8.0281   15.7555   35.5997 H   0  0  0  0  0  0  0  0  0  0  0  0
   -6.4212   16.2523   35.5997 H   0  0  0  0  0  0  0  0  0  0  0  0
   -7.8510   15.0819   33.5548 H   0  0  0  0  0  0  0  0  0  0  0  0
   -7.3801   15.5274   31.8561 H   0  0  0  0  0  0  0  0  0  0  0  0
   -6.0624   16.8139   33.4197 H   0  0  0  0  0  0  0  0  0  0  0  0
   -7.2263   17.8897   32.5603 H   0  0  0  0  0  0  0  0  0  0  0  0
   -8.7865   17.6301   34.5285 H   0  0  0  0  0  0  0  0  0  0  0  0
   -7.2346   18.4900   34.8883 H   0  0  0  0  0  0  0  0  0  0  0  0
  1  2  1  0
  1  3  1  0
  3  5  1  0
  4  5  1  0
  4  7  1  0
  6  9  1  0
  7  8  1  0
  8  9  1  0
  1 10  1  0
  1 11  1  0
  2 12  1  0
  2 13  1  0
  2 14  1  0
  3 15  1  0
  3 16  1  0
  4 17  1  0
  4 18  1  0
  5 19  1  0
  5 20  1  0
  6 21  1  0
  6 22  1  0
  6 23  1  0
  7 24  1  0
  7 25  1  0
  8 26  1  0
  8 27  1  0
  9 28  1  0
  9 29  1  0
M  CHG  3   2   1   4   1   6   1
M  END
>  <filename_input>  (16) 
7XJN_NSD_docked.sdf

>  <pdb_id>  (16) 
7XJN_NSD

>  <pose_rank>  (16) 
15

>  <num_atoms_heavy>  (16) 
9

>  <num_torsions>  (16) 
6

>  <pose>  (16) 
[-9.268367513562763, 16.166799226547184, 32.45821225456954, 0.15383820335826068, -1.414388808941021, 2.368008933518298, -1.2967752712659826, 1.2018103661499748, -0.9028045358333516, 2.1443317809737796, -1.8518844800483367, -1.8985599330428349]

>  <energy>  (16) 
-99.64983706133344

>  <inter_energy>  (16) 
-91.01318723102753

>  <intra_energy>  (16) 
0.0

>  <rmsd>  (16) 
11.4262

>  <sdf_rank>  (16) 
0

$$$$

     RDKit          3D

 29 28  0  0  0  0  0  0  0  0999 V2000
    7.0058    0.6798   38.5892 C   0  0  0  0  0  0  0  0  0  0  0  0
    5.8651   -0.2708   38.6628 N   0  0  0  0  0  0  0  0  0  0  0  0
    7.5799    0.6798   37.1834 C   0  0  0  0  0  0  0  0  0  0  0  0
    7.3145   -0.2210   34.9207 N   0  0  0  0  0  0  0  0  0  0  0  0
    7.1962   -0.5262   36.3507 C   0  0  0  0  0  0  0  0  0  0  0  0
    4.2967    1.6080   31.9193 N   0  0  0  0  0  0  0  0  0  0  0  0
    6.2235   -0.7553   34.1035 C   0  0  0  0  0  0  0  0  0  0  0  0
    5.9752    0.0723   32.8633 C   0  0  0  0  0  0  0  0  0  0  0  0
    4.4996    0.4184   32.7447 C   0  0  0  0  0  0  0  0  0  0  0  0
    6.6558    1.6917   38.8416 H   0  0  0  0  0  0  0  0  0  0  0  0
    7.7849    0.3710   39.3017 H   0  0  0  0  0  0  0  0  0  0  0  0
    5.6386   -0.4595   39.6497 H   0  0  0  0  0  0  0  0  0  0  0  0
    5.0448    0.1404   38.1949 H   0  0  0  0  0  0  0  0  0  0  0  0
    6.1216   -1.1517   38.1949 H   0  0  0  0  0  0  0  0  0  0  0  0
    7.2231    1.5826   36.6661 H   0  0  0  0  0  0  0  0  0  0  0  0
    8.6742    0.6515   37.2913 H   0  0  0  0  0  0  0  0  0  0  0  0
    7.3311    0.8028   34.8087 H   0  0  0  0  0  0  0  0  0  0  0  0
    8.1804   -0.6712   34.5914 H   0  0  0  0  0  0  0  0  0  0  0  0
    7.8639   -1.3645   36.5984 H   0  0  0  0  0  0  0  0  0  0  0  0
    6.1528   -0.7945   36.5724 H   0  0  0  0  0  0  0  0  0  0  0  0
    4.1569    2.4278   32.5271 H   0  0  0  0  0  0  0  0  0  0  0  0
    5.1242    1.7585   31.3247 H   0  0  0  0  0  0  0  0  0  0  0  0
    3.4661    1.4758   31.3247 H   0  0  0  0  0  0  0  0  0  0  0  0
    6.4798   -1.7807   33.7987 H   0  0  0  0  0  0  0  0  0  0  0  0
    5.3068   -0.7331   34.7111 H   0  0  0  0  0  0  0  0  0  0  0  0
    6.5617    1.0009   32.9236 H   0  0  0  0  0  0  0  0  0  0  0  0
    6.2778   -0.5088   31.9797 H   0  0  0  0  0  0  0  0  0  0  0  0
    4.0939    0.6064   33.7497 H   0  0  0  0  0  0  0  0  0  0  0  0
    3.9823   -0.4270   32.2676 H   0  0  0  0  0  0  0  0  0  0  0  0
  1  2  1  0
  1  3  1  0
  3  5  1  0
  4  5  1  0
  4  7  1  0
  6  9  1  0
  7  8  1  0
  8  9  1  0
  1 10  1  0
  1 11  1  0
  2 12  1  0
  2 13  1  0
  2 14  1  0
  3 15  1  0
  3 16  1  0
  4 17  1  0
  4 18  1  0
  5 19  1  0
  5 20  1  0
  6 21  1  0
  6 22  1  0
  6 23  1  0
  7 24  1  0
  7 25  1  0
  8 26  1  0
  8 27  1  0
  9 28  1  0
  9 29  1  0
M  CHG  3   2   1   4   1   6   1
M  END
>  <filename_input>  (17) 
7XJN_NSD_docked.sdf

>  <pdb_id>  (17) 
7XJN_NSD

>  <pose_rank>  (17) 
16

>  <num_atoms_heavy>  (17) 
9

>  <num_torsions>  (17) 
6

>  <pose>  (17) 
[7.314464404651628, -0.22098357738653227, 34.920727883484716, 0.8162050401776276, -0.4512371283032125, 0.08755128771906505, -5.628775826778157, -0.5421486350052804, -3.607902589771906, -5.039518345253886, -5.254371696439371, -0.3662696827286049]

>  <energy>  (17) 
-99.53108799482789

>  <inter_energy>  (17) 
-78.01950212703542

>  <intra_energy>  (17) 
0.0

>  <rmsd>  (17) 
11.4667

>  <sdf_rank>  (17) 
0

$$$$

     RDKit          3D

 29 28  0  0  0  0  0  0  0  0999 V2000
    6.2199   16.2905   26.6618 C   0  0  0  0  0  0  0  0  0  0  0  0
    5.8643   16.7659   25.2987 N   0  0  0  0  0  0  0  0  0  0  0  0
    5.2759   15.1753   27.0754 C   0  0  0  0  0  0  0  0  0  0  0  0
    2.8728   14.9150   27.4738 N   0  0  0  0  0  0  0  0  0  0  0  0
    4.0823   15.6346   27.8874 C   0  0  0  0  0  0  0  0  0  0  0  0
    0.8253   14.9994   23.2759 N   0  0  0  0  0  0  0  0  0  0  0  0
    2.8905   14.4685   26.0795 C   0  0  0  0  0  0  0  0  0  0  0  0
    2.3586   15.5193   25.1321 C   0  0  0  0  0  0  0  0  0  0  0  0
    0.9326   15.1887   24.7216 C   0  0  0  0  0  0  0  0  0  0  0  0
    7.2533   15.9134   26.6598 H   0  0  0  0  0  0  0  0  0  0  0  0
    6.1334   17.1248   27.3734 H   0  0  0  0  0  0  0  0  0  0  0  0
    5.2489   17.5886   25.3717 H   0  0  0  0  0  0  0  0  0  0  0  0
    6.7223   17.0230   24.7901 H   0  0  0  0  0  0  0  0  0  0  0  0
    5.3754   16.0155   24.7901 H   0  0  0  0  0  0  0  0  0  0  0  0
    4.9037   14.6840   26.1643 H   0  0  0  0  0  0  0  0  0  0  0  0
    5.8538   14.4986   27.7221 H   0  0  0  0  0  0  0  0  0  0  0  0
    2.7665   14.0871   28.0772 H   0  0  0  0  0  0  0  0  0  0  0  0
    2.0882   15.5763   27.5640 H   0  0  0  0  0  0  0  0  0  0  0  0
    4.2728   15.4398   28.9532 H   0  0  0  0  0  0  0  0  0  0  0  0
    3.9309   16.7112   27.7201 H   0  0  0  0  0  0  0  0  0  0  0  0
    0.3269   14.1193   23.0809 H   0  0  0  0  0  0  0  0  0  0  0  0
    0.3050   15.7871   22.8641 H   0  0  0  0  0  0  0  0  0  0  0  0
    1.7686   14.9582   22.8641 H   0  0  0  0  0  0  0  0  0  0  0  0
    3.9269   14.2307   25.7977 H   0  0  0  0  0  0  0  0  0  0  0  0
    2.2393   13.5854   26.0014 H   0  0  0  0  0  0  0  0  0  0  0  0
    2.3741   16.4992   25.6317 H   0  0  0  0  0  0  0  0  0  0  0  0
    2.9924   15.5436   24.2334 H   0  0  0  0  0  0  0  0  0  0  0  0
    0.2720   16.0144   25.0247 H   0  0  0  0  0  0  0  0  0  0  0  0
    0.6375   14.2519   25.2169 H   0  0  0  0  0  0  0  0  0  0  0  0
  1  2  1  0
  1  3  1  0
  3  5  1  0
  4  5  1  0
  4  7  1  0
  6  9  1  0
  7  8  1  0
  8  9  1  0
  1 10  1  0
  1 11  1  0
  2 12  1  0
  2 13  1  0
  2 14  1  0
  3 15  1  0
  3 16  1  0
  4 17  1  0
  4 18  1  0
  5 19  1  0
  5 20  1  0
  6 21  1  0
  6 22  1  0
  6 23  1  0
  7 24  1  0
  7 25  1  0
  8 26  1  0
  8 27  1  0
  9 28  1  0
  9 29  1  0
M  CHG  3   2   1   4   1   6   1
M  END
>  <filename_input>  (18) 
7XJN_NSD_docked.sdf

>  <pdb_id>  (18) 
7XJN_NSD

>  <pose_rank>  (18) 
17

>  <num_atoms_heavy>  (18) 
9

>  <num_torsions>  (18) 
6

>  <pose>  (18) 
[2.872761659264373, 14.915042434791818, 27.473755049511055, 1.9699725149806209, 1.7232812974486489, 1.7349177519323054, 2.5880497417612447, -0.8519579021785119, 1.3434874726492292, 3.33860575867191, 1.5092024961886836, 1.0893882559714274]

>  <energy>  (18) 
-99.48957304128118

>  <inter_energy>  (18) 
-88.16436697632996

>  <intra_energy>  (18) 
2.3158218319001826

>  <rmsd>  (18) 
12.1248

>  <sdf_rank>  (18) 
0

$$$$

     RDKit          3D

 29 28  0  0  0  0  0  0  0  0999 V2000
  -10.1462   15.1471   34.6638 C   0  0  0  0  0  0  0  0  0  0  0  0
  -11.2282   14.8129   33.7005 N   0  0  0  0  0  0  0  0  0  0  0  0
  -10.5456   14.6934   36.0569 C   0  0  0  0  0  0  0  0  0  0  0  0
   -8.5858   14.9394   37.5061 N   0  0  0  0  0  0  0  0  0  0  0  0
   -9.4511   13.9747   36.8188 C   0  0  0  0  0  0  0  0  0  0  0  0
   -7.5074   13.9433   41.4898 N   0  0  0  0  0  0  0  0  0  0  0  0
   -8.1400   14.5043   38.8311 C   0  0  0  0  0  0  0  0  0  0  0  0
   -9.2439   14.5747   39.8612 C   0  0  0  0  0  0  0  0  0  0  0  0
   -8.8919   13.7268   41.0730 C   0  0  0  0  0  0  0  0  0  0  0  0
   -9.2191   14.6365   34.3643 H   0  0  0  0  0  0  0  0  0  0  0  0
   -9.9834   16.2350   34.6668 H   0  0  0  0  0  0  0  0  0  0  0  0
  -12.0792   14.5500   34.2177 H   0  0  0  0  0  0  0  0  0  0  0  0
  -11.4257   15.6321   33.1082 H   0  0  0  0  0  0  0  0  0  0  0  0
  -10.9293   14.0250   33.1082 H   0  0  0  0  0  0  0  0  0  0  0  0
  -10.8422   15.5805   36.6357 H   0  0  0  0  0  0  0  0  0  0  0  0
  -11.3652   13.9711   35.9288 H   0  0  0  0  0  0  0  0  0  0  0  0
   -7.7532   15.1009   36.9216 H   0  0  0  0  0  0  0  0  0  0  0  0
   -9.1450   15.7929   37.6462 H   0  0  0  0  0  0  0  0  0  0  0  0
   -9.9075   13.3041   37.5618 H   0  0  0  0  0  0  0  0  0  0  0  0
   -8.8439   13.3952   36.1078 H   0  0  0  0  0  0  0  0  0  0  0  0
   -7.4558   13.9513   42.5185 H   0  0  0  0  0  0  0  0  0  0  0  0
   -6.9155   13.1846   41.1223 H   0  0  0  0  0  0  0  0  0  0  0  0
   -7.1754   14.8464   41.1223 H   0  0  0  0  0  0  0  0  0  0  0  0
   -7.7873   13.4647   38.7616 H   0  0  0  0  0  0  0  0  0  0  0  0
   -7.3357   15.1816   39.1539 H   0  0  0  0  0  0  0  0  0  0  0  0
   -9.3791   15.6198   40.1768 H   0  0  0  0  0  0  0  0  0  0  0  0
  -10.1736   14.1917   39.4152 H   0  0  0  0  0  0  0  0  0  0  0  0
   -9.0276   12.6652   40.8189 H   0  0  0  0  0  0  0  0  0  0  0  0
   -9.5532   14.0165   41.9029 H   0  0  0  0  0  0  0  0  0  0  0  0
  1  2  1  0
  1  3  1  0
  3  5  1  0
  4  5  1  0
  4  7  1  0
  6  9  1  0
  7  8  1  0
  8  9  1  0
  1 10  1  0
  1 11  1  0
  2 12  1  0
  2 13  1  0
  2 14  1  0
  3 15  1  0
  3 16  1  0
  4 17  1  0
  4 18  1  0
  5 19  1  0
  5 20  1  0
  6 21  1  0
  6 22  1  0
  6 23  1  0
  7 24  1  0
  7 25  1  0
  8 26  1  0
  8 27  1  0
  9 28  1  0
  9 29  1  0
M  CHG  3   2   1   4   1   6   1
M  END
>  <filename_input>  (19) 
7XJN_NSD_docked.sdf

>  <pdb_id>  (19) 
7XJN_NSD

>  <pose_rank>  (19) 
18

>  <num_atoms_heavy>  (19) 
9

>  <num_torsions>  (19) 
6

>  <pose>  (19) 
[-8.585765527219841, 14.939396485210796, 37.50607138526792, 1.328812062038282, 1.5372248685568477, -2.529128004724389, 5.553787469391793, 4.484501275067184, 5.348477012611288, -2.6958818169134284, -0.1647897702489498, 3.9596022571845797]

>  <energy>  (19) 
-99.21163817555254

>  <inter_energy>  (19) 
-93.74212713238168

>  <intra_energy>  (19) 
0.0

>  <rmsd>  (19) 
11.8393

>  <sdf_rank>  (19) 
0

$$$$

     RDKit          3D

 29 28  0  0  0  0  0  0  0  0999 V2000
   -9.8032   15.2212   33.1122 C   0  0  0  0  0  0  0  0  0  0  0  0
   -9.3259   16.4129   32.3624 N   0  0  0  0  0  0  0  0  0  0  0  0
  -11.3205   15.2313   33.1738 C   0  0  0  0  0  0  0  0  0  0  0  0
  -10.8284   14.0936   35.2869 N   0  0  0  0  0  0  0  0  0  0  0  0
  -11.9005   14.5951   34.4204 C   0  0  0  0  0  0  0  0  0  0  0  0
   -7.9635   15.6868   37.6066 N   0  0  0  0  0  0  0  0  0  0  0  0
  -11.1980   13.9980   36.7004 C   0  0  0  0  0  0  0  0  0  0  0  0
  -10.0713   14.4125   37.6188 C   0  0  0  0  0  0  0  0  0  0  0  0
   -9.2955   15.5721   37.0149 C   0  0  0  0  0  0  0  0  0  0  0  0
   -9.4638   14.3077   32.6019 H   0  0  0  0  0  0  0  0  0  0  0  0
   -9.3962   15.2455   34.1338 H   0  0  0  0  0  0  0  0  0  0  0  0
   -9.0336   17.1428   33.0278 H   0  0  0  0  0  0  0  0  0  0  0  0
   -8.5260   16.1482   31.7700 H   0  0  0  0  0  0  0  0  0  0  0  0
  -10.0875   16.7735   31.7700 H   0  0  0  0  0  0  0  0  0  0  0  0
  -11.6595   16.2769   33.1316 H   0  0  0  0  0  0  0  0  0  0  0  0
  -11.6733   14.6313   32.3220 H   0  0  0  0  0  0  0  0  0  0  0  0
  -10.5595   13.1551   34.9587 H   0  0  0  0  0  0  0  0  0  0  0  0
  -10.0560   14.7723   35.2270 H   0  0  0  0  0  0  0  0  0  0  0  0
  -12.4889   15.3451   34.9694 H   0  0  0  0  0  0  0  0  0  0  0  0
  -12.5425   13.7524   34.1242 H   0  0  0  0  0  0  0  0  0  0  0  0
   -8.0423   15.6800   38.6336 H   0  0  0  0  0  0  0  0  0  0  0  0
   -7.3828   14.8926   37.3016 H   0  0  0  0  0  0  0  0  0  0  0  0
   -7.5270   16.5684   37.3016 H   0  0  0  0  0  0  0  0  0  0  0  0
  -12.0629   14.6522   36.8846 H   0  0  0  0  0  0  0  0  0  0  0  0
  -11.4362   12.9458   36.9148 H   0  0  0  0  0  0  0  0  0  0  0  0
  -10.4890   14.7215   38.5884 H   0  0  0  0  0  0  0  0  0  0  0  0
   -9.3900   13.5598   37.7556 H   0  0  0  0  0  0  0  0  0  0  0  0
   -9.8489   16.5056   37.1949 H   0  0  0  0  0  0  0  0  0  0  0  0
   -9.1813   15.3887   35.9364 H   0  0  0  0  0  0  0  0  0  0  0  0
  1  2  1  0
  1  3  1  0
  3  5  1  0
  4  5  1  0
  4  7  1  0
  6  9  1  0
  7  8  1  0
  8  9  1  0
  1 10  1  0
  1 11  1  0
  2 12  1  0
  2 13  1  0
  2 14  1  0
  3 15  1  0
  3 16  1  0
  4 17  1  0
  4 18  1  0
  5 19  1  0
  5 20  1  0
  6 21  1  0
  6 22  1  0
  6 23  1  0
  7 24  1  0
  7 25  1  0
  8 26  1  0
  8 27  1  0
  9 28  1  0
  9 29  1  0
M  CHG  3   2   1   4   1   6   1
M  END
>  <filename_input>  (20) 
7XJN_NSD_docked.sdf

>  <pdb_id>  (20) 
7XJN_NSD

>  <pose_rank>  (20) 
19

>  <num_atoms_heavy>  (20) 
9

>  <num_torsions>  (20) 
6

>  <pose>  (20) 
[-10.828414361977742, 14.093620528649678, 35.2869078123029, -1.7085732173799992, -0.011089400785746608, 1.3794420205706168, -0.49983854886099877, 2.9799264947048565, 0.39106156165719114, 2.416364210171443, -2.3530663450002463, 0.38340829113706987]

>  <energy>  (20) 
-98.90997802500085

>  <inter_energy>  (20) 
-93.6449938509109

>  <intra_energy>  (20) 
0.0

>  <rmsd>  (20) 
12.0221

>  <sdf_rank>  (20) 
0

$$$$

     RDKit          3D

 29 28  0  0  0  0  0  0  0  0999 V2000
    7.5696    1.5722   28.5860 C   0  0  0  0  0  0  0  0  0  0  0  0
    8.0670    2.9414   28.2891 N   0  0  0  0  0  0  0  0  0  0  0  0
    6.3217    1.6584   29.4470 C   0  0  0  0  0  0  0  0  0  0  0  0
    5.1483    0.9211   31.4672 N   0  0  0  0  0  0  0  0  0  0  0  0
    6.2409    0.6113   30.5388 C   0  0  0  0  0  0  0  0  0  0  0  0
    5.6630   -2.3297   35.0302 N   0  0  0  0  0  0  0  0  0  0  0  0
    5.3812    0.4634   32.8383 C   0  0  0  0  0  0  0  0  0  0  0  0
    5.2661   -1.0379   32.9709 C   0  0  0  0  0  0  0  0  0  0  0  0
    4.7515   -1.4092   34.3525 C   0  0  0  0  0  0  0  0  0  0  0  0
    7.3293    1.0578   27.6438 H   0  0  0  0  0  0  0  0  0  0  0  0
    8.3467    1.0103   29.1248 H   0  0  0  0  0  0  0  0  0  0  0  0
    8.2481    3.4398   29.1721 H   0  0  0  0  0  0  0  0  0  0  0  0
    8.9392    2.8793   27.7448 H   0  0  0  0  0  0  0  0  0  0  0  0
    7.3583    3.4536   27.7448 H   0  0  0  0  0  0  0  0  0  0  0  0
    6.2980    2.6512   29.9201 H   0  0  0  0  0  0  0  0  0  0  0  0
    5.4662    1.4814   28.7785 H   0  0  0  0  0  0  0  0  0  0  0  0
    5.0187    1.9428   31.4848 H   0  0  0  0  0  0  0  0  0  0  0  0
    4.3160    0.4205   31.1242 H   0  0  0  0  0  0  0  0  0  0  0  0
    6.0607   -0.3737   30.0833 H   0  0  0  0  0  0  0  0  0  0  0  0
    7.1897    0.6034   31.0954 H   0  0  0  0  0  0  0  0  0  0  0  0
    5.5603   -2.2260   36.0498 H   0  0  0  0  0  0  0  0  0  0  0  0
    5.4378   -3.2975   34.7591 H   0  0  0  0  0  0  0  0  0  0  0  0
    6.6330   -2.1140   34.7591 H   0  0  0  0  0  0  0  0  0  0  0  0
    6.3922    0.7689   33.1459 H   0  0  0  0  0  0  0  0  0  0  0  0
    4.6110    0.9172   33.4792 H   0  0  0  0  0  0  0  0  0  0  0  0
    4.5679   -1.4166   32.2100 H   0  0  0  0  0  0  0  0  0  0  0  0
    6.2603   -1.4863   32.8278 H   0  0  0  0  0  0  0  0  0  0  0  0
    3.7673   -1.8898   34.2508 H   0  0  0  0  0  0  0  0  0  0  0  0
    4.6764   -0.4906   34.9530 H   0  0  0  0  0  0  0  0  0  0  0  0
  1  2  1  0
  1  3  1  0
  3  5  1  0
  4  5  1  0
  4  7  1  0
  6  9  1  0
  7  8  1  0
  8  9  1  0
  1 10  1  0
  1 11  1  0
  2 12  1  0
  2 13  1  0
  2 14  1  0
  3 15  1  0
  3 16  1  0
  4 17  1  0
  4 18  1  0
  5 19  1  0
  5 20  1  0
  6 21  1  0
  6 22  1  0
  6 23  1  0
  7 24  1  0
  7 25  1  0
  8 26  1  0
  8 27  1  0
  9 28  1  0
  9 29  1  0
M  CHG  3   2   1   4   1   6   1
M  END
>  <filename_input>  (21) 
7XJN_NSD_docked.sdf

>  <pdb_id>  (21) 
7XJN_NSD

>  <pose_rank>  (21) 
20

>  <num_atoms_heavy>  (21) 
9

>  <num_torsions>  (21) 
6

>  <pose>  (21) 
[5.148296440799223, 0.9211313647188574, 31.46718352065554, 0.3765651621576854, 1.7524787851147476, -0.8450908548015913, 0.46073413311380856, -0.3360432927574523, 0.5447928881136419, -2.6752232409031085, 0.6928147563790769, 1.0044654873397418]

>  <energy>  (21) 
-98.54938358861162

>  <inter_energy>  (21) 
-82.85776765683192

>  <intra_energy>  (21) 
0.0

>  <rmsd>  (21) 
11.2325

>  <sdf_rank>  (21) 
0

$$$$

     RDKit          3D

 29 28  0  0  0  0  0  0  0  0999 V2000
   -9.8884    4.9235   24.1129 C   0  0  0  0  0  0  0  0  0  0  0  0
  -10.8053    4.4395   25.1784 N   0  0  0  0  0  0  0  0  0  0  0  0
   -8.4681    4.4854   24.4244 C   0  0  0  0  0  0  0  0  0  0  0  0
   -8.4014    2.0931   23.9011 N   0  0  0  0  0  0  0  0  0  0  0  0
   -7.9240    3.4195   23.4956 C   0  0  0  0  0  0  0  0  0  0  0  0
   -5.6290   -0.2406   23.6573 N   0  0  0  0  0  0  0  0  0  0  0  0
   -8.0806    1.7399   25.2852 C   0  0  0  0  0  0  0  0  0  0  0  0
   -7.2304    0.4936   25.3787 C   0  0  0  0  0  0  0  0  0  0  0  0
   -5.8772    0.7259   24.7258 C   0  0  0  0  0  0  0  0  0  0  0  0
  -10.1973    4.5022   23.1450 H   0  0  0  0  0  0  0  0  0  0  0  0
   -9.9298    6.0218   24.0669 H   0  0  0  0  0  0  0  0  0  0  0  0
  -10.4016    4.6526   26.1017 H   0  0  0  0  0  0  0  0  0  0  0  0
  -11.7174    4.9090   25.0858 H   0  0  0  0  0  0  0  0  0  0  0  0
  -10.9322    3.4215   25.0858 H   0  0  0  0  0  0  0  0  0  0  0  0
   -7.8136    5.3669   24.3573 H   0  0  0  0  0  0  0  0  0  0  0  0
   -8.4898    4.0430   25.4313 H   0  0  0  0  0  0  0  0  0  0  0  0
   -9.4252    2.0699   23.7903 H   0  0  0  0  0  0  0  0  0  0  0  0
   -7.9208    1.4079   23.3006 H   0  0  0  0  0  0  0  0  0  0  0  0
   -8.2607    3.6274   22.4692 H   0  0  0  0  0  0  0  0  0  0  0  0
   -6.8251    3.4325   23.5438 H   0  0  0  0  0  0  0  0  0  0  0  0
   -5.3942   -1.1550   24.0692 H   0  0  0  0  0  0  0  0  0  0  0  0
   -6.4735   -0.3331   23.0750 H   0  0  0  0  0  0  0  0  0  0  0  0
   -4.8444    0.0853   23.0750 H   0  0  0  0  0  0  0  0  0  0  0  0
   -7.5339    2.5760   25.7457 H   0  0  0  0  0  0  0  0  0  0  0  0
   -9.0271    1.5407   25.8090 H   0  0  0  0  0  0  0  0  0  0  0  0
   -7.0825    0.2342   26.4374 H   0  0  0  0  0  0  0  0  0  0  0  0
   -7.7425   -0.3280   24.8565 H   0  0  0  0  0  0  0  0  0  0  0  0
   -5.0902    0.6272   25.4880 H   0  0  0  0  0  0  0  0  0  0  0  0
   -5.8718    1.7352   24.2886 H   0  0  0  0  0  0  0  0  0  0  0  0
  1  2  1  0
  1  3  1  0
  3  5  1  0
  4  5  1  0
  4  7  1  0
  6  9  1  0
  7  8  1  0
  8  9  1  0
  1 10  1  0
  1 11  1  0
  2 12  1  0
  2 13  1  0
  2 14  1  0
  3 15  1  0
  3 16  1  0
  4 17  1  0
  4 18  1  0
  5 19  1  0
  5 20  1  0
  6 21  1  0
  6 22  1  0
  6 23  1  0
  7 24  1  0
  7 25  1  0
  8 26  1  0
  8 27  1  0
  9 28  1  0
  9 29  1  0
M  CHG  3   2   1   4   1   6   1
M  END
>  <filename_input>  (22) 
7XJN_NSD_docked.sdf

>  <pdb_id>  (22) 
7XJN_NSD

>  <pose_rank>  (22) 
21

>  <num_atoms_heavy>  (22) 
9

>  <num_torsions>  (22) 
6

>  <pose>  (22) 
[-8.401399045142487, 2.093062578265578, 23.901059293213248, 1.8376964754450555, -4.183179656393442, -1.5150801947562706, 2.0932202099320754, 1.5753017400549048, -1.370892342218499, 2.777240063831348, -1.8778368818506026, 1.0362505216045184]

>  <energy>  (22) 
-97.25650034537706

>  <inter_energy>  (22) 
-95.64845240872003

>  <intra_energy>  (22) 
1.203779536503456

>  <rmsd>  (22) 
11.9559

>  <sdf_rank>  (22) 
0

$$$$

     RDKit          3D

 29 28  0  0  0  0  0  0  0  0999 V2000
  -10.9440   16.2136   30.0722 C   0  0  0  0  0  0  0  0  0  0  0  0
  -10.0008   15.7006   29.0439 N   0  0  0  0  0  0  0  0  0  0  0  0
  -11.4631   15.0582   30.9098 C   0  0  0  0  0  0  0  0  0  0  0  0
  -10.3767   14.8522   33.0959 N   0  0  0  0  0  0  0  0  0  0  0  0
  -11.5618   15.3545   32.3922 C   0  0  0  0  0  0  0  0  0  0  0  0
   -9.7132   14.4682   37.0263 N   0  0  0  0  0  0  0  0  0  0  0  0
  -10.2780   15.2915   34.4890 C   0  0  0  0  0  0  0  0  0  0  0  0
  -11.4532   14.8326   35.3215 C   0  0  0  0  0  0  0  0  0  0  0  0
  -10.9766   13.9735   36.4818 C   0  0  0  0  0  0  0  0  0  0  0  0
  -10.4220   16.9312   30.7221 H   0  0  0  0  0  0  0  0  0  0  0  0
  -11.7890   16.7130   29.5757 H   0  0  0  0  0  0  0  0  0  0  0  0
   -9.1929   15.2612   29.5077 H   0  0  0  0  0  0  0  0  0  0  0  0
  -10.4798   15.0038   28.4557 H   0  0  0  0  0  0  0  0  0  0  0  0
   -9.6762   16.4814   28.4557 H   0  0  0  0  0  0  0  0  0  0  0  0
  -12.4660   14.7920   30.5448 H   0  0  0  0  0  0  0  0  0  0  0  0
  -10.7359   14.2400   30.8010 H   0  0  0  0  0  0  0  0  0  0  0  0
  -10.4048   13.8226   33.0826 H   0  0  0  0  0  0  0  0  0  0  0  0
   -9.5556   15.2340   32.6051 H   0  0  0  0  0  0  0  0  0  0  0  0
  -11.6367   16.4420   32.5399 H   0  0  0  0  0  0  0  0  0  0  0  0
  -12.4544   14.8548   32.7965 H   0  0  0  0  0  0  0  0  0  0  0  0
   -9.7533   14.4525   38.0554 H   0  0  0  0  0  0  0  0  0  0  0  0
   -8.9414   13.8673   36.7036 H   0  0  0  0  0  0  0  0  0  0  0  0
   -9.5547   15.4335   36.7036 H   0  0  0  0  0  0  0  0  0  0  0  0
   -9.3549   14.8814   34.9244 H   0  0  0  0  0  0  0  0  0  0  0  0
  -10.2717   16.3915   34.4946 H   0  0  0  0  0  0  0  0  0  0  0  0
  -11.9838   15.7120   35.7155 H   0  0  0  0  0  0  0  0  0  0  0  0
  -12.1277   14.2365   34.6893 H   0  0  0  0  0  0  0  0  0  0  0  0
  -10.8347   12.9415   36.1286 H   0  0  0  0  0  0  0  0  0  0  0  0
  -11.7358   14.0123   37.2768 H   0  0  0  0  0  0  0  0  0  0  0  0
  1  2  1  0
  1  3  1  0
  3  5  1  0
  4  5  1  0
  4  7  1  0
  6  9  1  0
  7  8  1  0
  8  9  1  0
  1 10  1  0
  1 11  1  0
  2 12  1  0
  2 13  1  0
  2 14  1  0
  3 15  1  0
  3 16  1  0
  4 17  1  0
  4 18  1  0
  5 19  1  0
  5 20  1  0
  6 21  1  0
  6 22  1  0
  6 23  1  0
  7 24  1  0
  7 25  1  0
  8 26  1  0
  8 27  1  0
  9 28  1  0
  9 29  1  0
M  CHG  3   2   1   4   1   6   1
M  END
>  <filename_input>  (23) 
7XJN_NSD_docked.sdf

>  <pdb_id>  (23) 
7XJN_NSD

>  <pose_rank>  (23) 
22

>  <num_atoms_heavy>  (23) 
9

>  <num_torsions>  (23) 
6

>  <pose>  (23) 
[-10.376720236378667, 14.85216969818238, 33.095878983542406, 2.8509618113198387, -1.0361308646012015, -2.5141697292208787, -0.2369625949278225, -4.985224249076315, -0.8653350727561966, -0.3520489567142046, -0.8843593961533412, -2.461513575119735]

>  <energy>  (23) 
-97.06533723179378

>  <inter_energy>  (23) 
-92.35988199549708

>  <intra_energy>  (23) 
0.0

>  <rmsd>  (23) 
12.4191

>  <sdf_rank>  (23) 
0

$$$$

     RDKit          3D

 29 28  0  0  0  0  0  0  0  0999 V2000
    5.6815   -2.5361   34.3596 C   0  0  0  0  0  0  0  0  0  0  0  0
    4.6734   -2.1408   35.3783 N   0  0  0  0  0  0  0  0  0  0  0  0
    6.0527   -1.3301   33.5147 C   0  0  0  0  0  0  0  0  0  0  0  0
    7.7191    0.3579   32.9024 N   0  0  0  0  0  0  0  0  0  0  0  0
    7.4688   -0.8331   33.7213 C   0  0  0  0  0  0  0  0  0  0  0  0
    4.1888    1.6652   31.8562 N   0  0  0  0  0  0  0  0  0  0  0  0
    6.5642    1.2486   32.7741 C   0  0  0  0  0  0  0  0  0  0  0  0
    6.5944    2.0489   31.4922 C   0  0  0  0  0  0  0  0  0  0  0  0
    5.1855    2.2386   30.9534 C   0  0  0  0  0  0  0  0  0  0  0  0
    6.5804   -2.9201   34.8641 H   0  0  0  0  0  0  0  0  0  0  0  0
    5.2591   -3.3190   33.7126 H   0  0  0  0  0  0  0  0  0  0  0  0
    5.0600   -2.2924   36.3208 H   0  0  0  0  0  0  0  0  0  0  0  0
    4.4378   -1.1451   35.2599 H   0  0  0  0  0  0  0  0  0  0  0  0
    3.8238   -2.7111   35.2599 H   0  0  0  0  0  0  0  0  0  0  0  0
    5.9349   -1.6028   32.4555 H   0  0  0  0  0  0  0  0  0  0  0  0
    5.3848   -0.5126   33.8239 H   0  0  0  0  0  0  0  0  0  0  0  0
    8.4909    0.8887   33.3308 H   0  0  0  0  0  0  0  0  0  0  0  0
    7.9440    0.0246   31.9541 H   0  0  0  0  0  0  0  0  0  0  0  0
    7.6125   -0.5799   34.7821 H   0  0  0  0  0  0  0  0  0  0  0  0
    8.1712   -1.6249   33.4222 H   0  0  0  0  0  0  0  0  0  0  0  0
    4.4745    1.8296   32.8321 H   0  0  0  0  0  0  0  0  0  0  0  0
    3.2754    2.1099   31.6864 H   0  0  0  0  0  0  0  0  0  0  0  0
    4.1142    0.6520   31.6864 H   0  0  0  0  0  0  0  0  0  0  0  0
    5.6466    0.6421   32.7905 H   0  0  0  0  0  0  0  0  0  0  0  0
    6.5926    1.9584   33.6139 H   0  0  0  0  0  0  0  0  0  0  0  0
    7.0425    3.0338   31.6902 H   0  0  0  0  0  0  0  0  0  0  0  0
    7.1921    1.5052   30.7458 H   0  0  0  0  0  0  0  0  0  0  0  0
    5.1073    1.7448   29.9735 H   0  0  0  0  0  0  0  0  0  0  0  0
    4.9913    3.3175   30.8626 H   0  0  0  0  0  0  0  0  0  0  0  0
  1  2  1  0
  1  3  1  0
  3  5  1  0
  4  5  1  0
  4  7  1  0
  6  9  1  0
  7  8  1  0
  8  9  1  0
  1 10  1  0
  1 11  1  0
  2 12  1  0
  2 13  1  0
  2 14  1  0
  3 15  1  0
  3 16  1  0
  4 17  1  0
  4 18  1  0
  5 19  1  0
  5 20  1  0
  6 21  1  0
  6 22  1  0
  6 23  1  0
  7 24  1  0
  7 25  1  0
  8 26  1  0
  8 27  1  0
  9 28  1  0
  9 29  1  0
M  CHG  3   2   1   4   1   6   1
M  END
>  <filename_input>  (24) 
7XJN_NSD_docked.sdf

>  <pdb_id>  (24) 
7XJN_NSD

>  <pose_rank>  (24) 
23

>  <num_atoms_heavy>  (24) 
9

>  <num_torsions>  (24) 
6

>  <pose>  (24) 
[7.7191292000769, 0.35794878586026363, 32.90235466887083, -3.5458942367291044, 0.9887705217394889, 2.655982134222636, 3.7037019166560983, -6.397969407343944, -1.344371738129158, 2.2062061383021168, 5.810147158078261, -3.052989300410477]

>  <energy>  (24) 
-97.05555821839614

>  <inter_energy>  (24) 
-92.59011201146053

>  <intra_energy>  (24) 
0.0

>  <rmsd>  (24) 
11.335

>  <sdf_rank>  (24) 
0

$$$$

     RDKit          3D

 29 28  0  0  0  0  0  0  0  0999 V2000
    7.2712   16.0966   27.2553 C   0  0  0  0  0  0  0  0  0  0  0  0
    7.8326   17.0111   28.2843 N   0  0  0  0  0  0  0  0  0  0  0  0
    7.3829   14.6599   27.7342 C   0  0  0  0  0  0  0  0  0  0  0  0
    7.0949   12.5367   26.5466 N   0  0  0  0  0  0  0  0  0  0  0  0
    7.9674   13.7039   26.7147 C   0  0  0  0  0  0  0  0  0  0  0  0
    3.6377   14.1237   24.6054 N   0  0  0  0  0  0  0  0  0  0  0  0
    5.6948   12.7817   26.8976 C   0  0  0  0  0  0  0  0  0  0  0  0
    4.7407   12.2942   25.8314 C   0  0  0  0  0  0  0  0  0  0  0  0
    4.7828   13.2150   24.6224 C   0  0  0  0  0  0  0  0  0  0  0  0
    6.2131   16.3440   27.0839 H   0  0  0  0  0  0  0  0  0  0  0  0
    7.8336   16.2135   26.3172 H   0  0  0  0  0  0  0  0  0  0  0  0
    7.6106   16.6495   29.2228 H   0  0  0  0  0  0  0  0  0  0  0  0
    8.8548   17.0687   28.1714 H   0  0  0  0  0  0  0  0  0  0  0  0
    7.4214   17.9487   28.1714 H   0  0  0  0  0  0  0  0  0  0  0  0
    8.0242   14.6441   28.6278 H   0  0  0  0  0  0  0  0  0  0  0  0
    6.3578   14.3156   27.9358 H   0  0  0  0  0  0  0  0  0  0  0  0
    7.1345   12.2426   25.5602 H   0  0  0  0  0  0  0  0  0  0  0  0
    7.4406   11.8121   27.1918 H   0  0  0  0  0  0  0  0  0  0  0  0
    8.0693   14.2218   25.7495 H   0  0  0  0  0  0  0  0  0  0  0  0
    8.9520   13.3645   27.0684 H   0  0  0  0  0  0  0  0  0  0  0  0
    3.3599   14.3441   25.5725 H   0  0  0  0  0  0  0  0  0  0  0  0
    3.8959   14.9924   24.1159 H   0  0  0  0  0  0  0  0  0  0  0  0
    2.8504   13.6748   24.1159 H   0  0  0  0  0  0  0  0  0  0  0  0
    5.4698   12.2591   27.8390 H   0  0  0  0  0  0  0  0  0  0  0  0
    5.5591   13.8686   26.9981 H   0  0  0  0  0  0  0  0  0  0  0  0
    5.0292   11.2783   25.5237 H   0  0  0  0  0  0  0  0  0  0  0  0
    3.7198   12.2891   26.2410 H   0  0  0  0  0  0  0  0  0  0  0  0
    4.7696   12.6050   23.7070 H   0  0  0  0  0  0  0  0  0  0  0  0
    5.7022   13.8166   24.6765 H   0  0  0  0  0  0  0  0  0  0  0  0
  1  2  1  0
  1  3  1  0
  3  5  1  0
  4  5  1  0
  4  7  1  0
  6  9  1  0
  7  8  1  0
  8  9  1  0
  1 10  1  0
  1 11  1  0
  2 12  1  0
  2 13  1  0
  2 14  1  0
  3 15  1  0
  3 16  1  0
  4 17  1  0
  4 18  1  0
  5 19  1  0
  5 20  1  0
  6 21  1  0
  6 22  1  0
  6 23  1  0
  7 24  1  0
  7 25  1  0
  8 26  1  0
  8 27  1  0
  9 28  1  0
  9 29  1  0
M  CHG  3   2   1   4   1   6   1
M  END
>  <filename_input>  (25) 
7XJN_NSD_docked.sdf

>  <pdb_id>  (25) 
7XJN_NSD

>  <pose_rank>  (25) 
24

>  <num_atoms_heavy>  (25) 
9

>  <num_torsions>  (25) 
6

>  <pose>  (25) 
[7.094942716786666, 12.536697530148011, 26.54657654096603, 4.839013183810986, 0.5158611627536815, 1.979209436127345, -2.780136272167554, 0.7527995714233433, 0.6958498970634381, 0.8835357618687374, 2.0083606510447054, 1.4005406752327192]

>  <energy>  (25) 
-95.6576132381538

>  <inter_energy>  (25) 
-83.01630034764138

>  <intra_energy>  (25) 
0.37577936780201543

>  <rmsd>  (25) 
12.5314

>  <sdf_rank>  (25) 
0

$$$$

     RDKit          3D

 29 28  0  0  0  0  0  0  0  0999 V2000
    1.0570    8.7000   34.1170 C   0  0  0  0  0  0  0  0  0  0  0  0
    2.1620    9.5320   33.5720 N   0  0  0  0  0  0  0  0  0  0  0  0
    0.3250    8.0140   32.9770 C   0  0  0  0  0  0  0  0  0  0  0  0
   -1.4710    6.5030   32.2750 N   0  0  0  0  0  0  0  0  0  0  0  0
   -0.9460    7.3000   33.3890 C   0  0  0  0  0  0  0  0  0  0  0  0
   -6.3840    6.9060   32.4040 N   0  0  0  0  0  0  0  0  0  0  0  0
   -2.7480    5.8460   32.5600 C   0  0  0  0  0  0  0  0  0  0  0  0
   -3.9240    6.7830   32.4060 C   0  0  0  0  0  0  0  0  0  0  0  0
   -5.2310    6.0130   32.5070 C   0  0  0  0  0  0  0  0  0  0  0  0
    1.4716    7.9400   34.7956 H   0  0  0  0  0  0  0  0  0  0  0  0
    0.3542    9.3421   34.6681 H   0  0  0  0  0  0  0  0  0  0  0  0
    2.7016    9.9383   34.3496 H   0  0  0  0  0  0  0  0  0  0  0  0
    2.7808    8.9452   32.9944 H   0  0  0  0  0  0  0  0  0  0  0  0
    1.7691   10.2889   32.9944 H   0  0  0  0  0  0  0  0  0  0  0  0
    0.0641    8.7760   32.2278 H   0  0  0  0  0  0  0  0  0  0  0  0
    1.0053    7.2432   32.5859 H   0  0  0  0  0  0  0  0  0  0  0  0
   -1.6012    7.1257   31.4649 H   0  0  0  0  0  0  0  0  0  0  0  0
   -0.7857    5.7553   32.0957 H   0  0  0  0  0  0  0  0  0  0  0  0
   -0.7291    6.6359   34.2387 H   0  0  0  0  0  0  0  0  0  0  0  0
   -1.6983    8.0494   33.6762 H   0  0  0  0  0  0  0  0  0  0  0  0
   -6.7089    7.1576   33.3485 H   0  0  0  0  0  0  0  0  0  0  0  0
   -6.1128    7.7597   31.8955 H   0  0  0  0  0  0  0  0  0  0  0  0
   -7.1427    6.4299   31.8955 H   0  0  0  0  0  0  0  0  0  0  0  0
   -2.8745    5.0028   31.8650 H   0  0  0  0  0  0  0  0  0  0  0  0
   -2.7245    5.5057   33.6058 H   0  0  0  0  0  0  0  0  0  0  0  0
   -3.8886    7.5429   33.2005 H   0  0  0  0  0  0  0  0  0  0  0  0
   -3.8692    7.2656   31.4191 H   0  0  0  0  0  0  0  0  0  0  0  0
   -5.2663    5.4928   33.4756 H   0  0  0  0  0  0  0  0  0  0  0  0
   -5.2745    5.2932   31.6763 H   0  0  0  0  0  0  0  0  0  0  0  0
  1  2  1  0
  1  3  1  0
  3  5  1  0
  4  5  1  0
  4  7  1  0
  6  9  1  0
  7  8  1  0
  8  9  1  0
  1 10  1  0
  1 11  1  0
  2 12  1  0
  2 13  1  0
  2 14  1  0
  3 15  1  0
  3 16  1  0
  4 17  1  0
  4 18  1  0
  5 19  1  0
  5 20  1  0
  6 21  1  0
  6 22  1  0
  6 23  1  0
  7 24  1  0
  7 25  1  0
  8 26  1  0
  8 27  1  0
  9 28  1  0
  9 29  1  0
M  CHG  3   2   1   4   1   6   1
M  END
>  <filename_input>  (26) 
7XJN_NSD_docked.sdf

>  <pdb_id>  (26) 
7XJN_NSD

>  <pose_rank>  (26) 
25

>  <num_atoms_heavy>  (26) 
9

>  <num_torsions>  (26) 
6

>  <pose>  (26) 
[-1.471, 6.503, 32.275, 1e-06, 1e-06, 1e-06, 0.0, 0.0, 0.0, 0.0, 0.0, 0.0]

>  <energy>  (26) 
-538.4039719711656

>  <inter_energy>  (26) 
-524.4204292387252

>  <intra_energy>  (26) 
0.0

>  <rmsd>  (26) 
0.0

>  <sdf_rank>  (26) 
0

$$$$
