
     RDKit          3D

 58 60  0  0  0  0  0  0  0  0999 V2000
  -17.2041  -25.4185  -28.8838 N   0  0  0  0  0  0  0  0  0  0  0  0
  -16.3875  -26.0342  -29.7806 C   0  0  0  0  0  0  0  0  0  0  0  0
  -15.5668  -25.2998  -30.5631 N   0  0  0  0  0  0  0  0  0  0  0  0
  -15.5440  -23.9704  -30.4778 C   0  0  0  0  0  0  0  0  0  0  0  0
  -16.3185  -23.2881  -29.5531 C   0  0  0  0  0  0  0  0  0  0  0  0
  -17.1693  -24.0579  -28.8019 C   0  0  0  0  0  0  0  0  0  0  0  0
  -16.3841  -27.2548  -29.8965 O   0  0  0  0  0  0  0  0  0  0  0  0
  -14.6687  -23.3522  -31.2505 O   0  0  0  0  0  0  0  0  0  0  0  0
  -18.1058  -26.1512  -28.1445 C   0  0  1  0  0  0  0  0  0  0  0  0
  -17.7122  -26.4556  -26.6505 C   0  0  2  0  0  0  0  0  0  0  0  0
  -17.0023  -27.7603  -26.7504 O   0  0  0  0  0  0  0  0  0  0  0  0
  -18.7977  -26.5414  -25.9307 C   0  0  1  0  0  0  0  0  0  0  0  0
  -19.7942  -25.4577  -26.6383 C   0  0  2  0  0  0  0  0  0  0  0  0
  -19.3076  -25.3228  -27.8643 O   0  0  0  0  0  0  0  0  0  0  0  0
  -19.5608  -27.8048  -25.9606 O   0  0  0  0  0  0  0  0  0  0  0  0
  -19.8285  -24.1381  -25.8512 C   0  0  0  0  0  0  0  0  0  0  0  0
  -20.4142  -23.1698  -26.6943 O   0  0  0  0  0  0  0  0  0  0  0  0
  -20.1154  -21.6335  -26.5183 P   0  0  2  0  0  0  0  0  0  0  0  0
  -21.1342  -20.8401  -27.3126 O   0  0  0  0  0  0  0  0  0  0  0  0
  -18.6739  -21.3992  -26.8784 O   0  0  0  0  0  0  0  0  0  0  0  0
  -20.5035  -21.3096  -24.9928 O   0  0  0  0  0  0  0  0  0  0  0  0
  -19.5795  -20.7806  -23.7581 P   0  0  2  0  0  0  0  0  0  0  0  0
  -19.3241  -19.3164  -23.9428 O   0  0  0  0  0  0  0  0  0  0  0  0
  -18.7573  -21.8889  -23.3339 O   0  0  0  0  0  0  0  0  0  0  0  0
  -20.8605  -20.6631  -22.6809 O   0  0  0  0  0  0  0  0  0  0  0  0
  -20.6385  -20.6144  -21.2927 C   0  0  2  0  0  0  0  0  0  0  0  0
  -21.8561  -20.8689  -20.4841 C   0  0  1  0  0  0  0  0  0  0  0  0
  -22.8745  -19.9907  -20.9753 C   0  0  2  0  0  0  0  0  0  0  0  0
  -22.5775  -18.6153  -20.5395 C   0  0  1  0  0  0  0  0  0  0  0  0
  -21.2158  -18.1369  -21.1328 C   0  0  1  0  0  0  0  0  0  0  0  0
  -20.7542  -16.9878  -20.4105 C   0  0  0  0  0  0  0  0  0  0  0  0
  -22.3712  -22.2479  -20.5543 O   0  0  0  0  0  0  0  0  0  0  0  0
  -24.2099  -20.4329  -20.5143 O   0  0  0  0  0  0  0  0  0  0  0  0
  -23.6447  -17.7752  -20.9754 O   0  0  0  0  0  0  0  0  0  0  0  0
  -20.1720  -19.2478  -20.9690 O   0  0  0  0  0  0  0  0  0  0  0  0
  -19.9302  -16.2321  -21.2695 O   0  0  0  0  0  0  0  0  0  0  0  0
  -14.9490  -25.7752  -31.2364 H   0  0  0  0  0  0  0  0  0  0  0  0
  -16.2549  -22.1969  -29.4294 H   0  0  0  0  0  0  0  0  0  0  0  0
  -17.8537  -23.5555  -28.1024 H   0  0  0  0  0  0  0  0  0  0  0  0
  -18.2035  -27.0614  -28.7544 H   0  0  0  0  0  0  0  0  0  0  0  0
  -17.0897  -25.6849  -26.1725 H   0  0  0  0  0  0  0  0  0  0  0  0
  -16.8150  -28.1046  -25.8413 H   0  0  0  0  0  0  0  0  0  0  0  0
  -18.4898  -26.4094  -24.8830 H   0  0  0  0  0  0  0  0  0  0  0  0
  -20.8443  -25.7843  -26.6611 H   0  0  0  0  0  0  0  0  0  0  0  0
  -19.7411  -28.1034  -25.0341 H   0  0  0  0  0  0  0  0  0  0  0  0
  -20.4307  -24.2582  -24.9385 H   0  0  0  0  0  0  0  0  0  0  0  0
  -18.8152  -23.8345  -25.5496 H   0  0  0  0  0  0  0  0  0  0  0  0
  -19.9105  -21.4018  -21.0478 H   0  0  0  0  0  0  0  0  0  0  0  0
  -21.5858  -20.6994  -19.4314 H   0  0  0  0  0  0  0  0  0  0  0  0
  -22.8870  -20.0157  -22.0749 H   0  0  0  0  0  0  0  0  0  0  0  0
  -22.4915  -18.5728  -19.4437 H   0  0  0  0  0  0  0  0  0  0  0  0
  -21.3556  -17.8905  -22.1957 H   0  0  0  0  0  0  0  0  0  0  0  0
  -21.6127  -16.3806  -20.0878 H   0  0  0  0  0  0  0  0  0  0  0  0
  -20.1905  -17.2995  -19.5188 H   0  0  0  0  0  0  0  0  0  0  0  0
  -22.5021  -22.5983  -19.6377 H   0  0  0  0  0  0  0  0  0  0  0  0
  -24.2316  -20.4401  -19.5246 H   0  0  0  0  0  0  0  0  0  0  0  0
  -24.1157  -17.4044  -20.1875 H   0  0  0  0  0  0  0  0  0  0  0  0
  -19.3183  -15.6708  -20.7304 H   0  0  0  0  0  0  0  0  0  0  0  0
  1  2  1  0
  1  6  1  0
  9  1  1  0
  2  3  1  0
  2  7  2  0
  3  4  1  0
  4  5  1  0
  4  8  2  0
  5  6  2  0
  9 10  1  0
  9 14  1  0
 10 11  1  0
 10 12  1  0
 12 13  1  0
 12 15  1  0
 13 14  1  0
 13 16  1  0
 16 17  1  0
 17 18  1  0
 18 19  2  0
 18 20  1  6
 18 21  1  0
 21 22  1  0
 22 23  2  0
 22 24  1  1
 22 25  1  0
 26 25  1  0
 26 27  1  0
 26 35  1  0
 27 28  1  0
 27 32  1  0
 28 29  1  0
 28 33  1  0
 29 30  1  0
 29 34  1  0
 30 31  1  0
 30 35  1  0
 31 36  1  0
  3 37  1  0
  5 38  1  0
  6 39  1  0
  9 40  1  6
 10 41  1  1
 11 42  1  0
 12 43  1  1
 13 44  1  6
 15 45  1  0
 16 46  1  0
 16 47  1  0
 26 48  1  1
 27 49  1  1
 28 50  1  6
 29 51  1  1
 30 52  1  6
 31 53  1  0
 31 54  1  0
 32 55  1  0
 33 56  1  0
 34 57  1  0
 36 58  1  0
M  CHG  2  20  -1  24  -1
M  END
>  <filename_input>  (1) 
7XPO_UPG_docked.sdf

>  <pdb_id>  (1) 
7XPO_UPG

>  <pose_rank>  (1) 
0

>  <num_atoms_heavy>  (1) 
36

>  <num_torsions>  (1) 
9

>  <pose>  (1) 
[-20.115354477631893, -21.63350348671933, -26.518261807759924, -1.301617193434094, -5.550289896947706, 1.347828682519149, -64.90558449119338, -87.2936377349164, -16.874350969207217, -0.4340246445203074, -17.867138317376643, -24.328760692825814, -42.115639816165256, -12.686616240514438, 3.2755881936728155]

>  <energy>  (1) 
-956.4171098064936

>  <inter_energy>  (1) 
-957.7112683517253

>  <intra_energy>  (1) 
4.231511406832263

>  <rmsd>  (1) 
2.38386

>  <sdf_rank>  (1) 
0

$$$$

     RDKit          3D

 58 60  0  0  0  0  0  0  0  0999 V2000
  -16.9818  -25.0508  -29.0605 N   0  0  0  0  0  0  0  0  0  0  0  0
  -16.5978  -25.3869  -30.3214 C   0  0  0  0  0  0  0  0  0  0  0  0
  -15.8813  -24.5158  -31.0649 N   0  0  0  0  0  0  0  0  0  0  0  0
  -15.5436  -23.3192  -30.5861 C   0  0  0  0  0  0  0  0  0  0  0  0
  -15.8660  -22.9362  -29.2938 C   0  0  0  0  0  0  0  0  0  0  0  0
  -16.6270  -23.8254  -28.5791 C   0  0  0  0  0  0  0  0  0  0  0  0
  -16.8952  -26.4748  -30.8026 O   0  0  0  0  0  0  0  0  0  0  0  0
  -14.7989  -22.5652  -31.3749 O   0  0  0  0  0  0  0  0  0  0  0  0
  -17.7856  -25.8956  -28.3280 C   0  0  1  0  0  0  0  0  0  0  0  0
  -17.1475  -26.5361  -27.0388 C   0  0  2  0  0  0  0  0  0  0  0  0
  -16.5723  -27.8113  -27.5479 O   0  0  0  0  0  0  0  0  0  0  0  0
  -18.0846  -26.7395  -26.1531 C   0  0  1  0  0  0  0  0  0  0  0  0
  -19.1071  -25.4913  -26.4071 C   0  0  2  0  0  0  0  0  0  0  0  0
  -18.8465  -25.1068  -27.6489 O   0  0  0  0  0  0  0  0  0  0  0  0
  -18.9362  -27.9370  -26.2957 O   0  0  0  0  0  0  0  0  0  0  0  0
  -18.8923  -24.3775  -25.3700 C   0  0  0  0  0  0  0  0  0  0  0  0
  -20.0556  -23.5787  -25.3754 O   0  0  0  0  0  0  0  0  0  0  0  0
  -19.9813  -22.0122  -25.2293 P   0  0  2  0  0  0  0  0  0  0  0  0
  -20.6533  -21.3739  -26.4291 O   0  0  0  0  0  0  0  0  0  0  0  0
  -18.5421  -21.6370  -25.0051 O   0  0  0  0  0  0  0  0  0  0  0  0
  -20.9786  -21.6629  -24.0186 O   0  0  0  0  0  0  0  0  0  0  0  0
  -20.7128  -21.6213  -22.4106 P   0  0  2  0  0  0  0  0  0  0  0  0
  -19.4498  -22.3694  -22.1133 O   0  0  0  0  0  0  0  0  0  0  0  0
  -22.0025  -21.5492  -21.7657 O   0  0  0  0  0  0  0  0  0  0  0  0
  -20.0711  -20.0711  -22.4270 O   0  0  0  0  0  0  0  0  0  0  0  0
  -20.6875  -19.0388  -23.1572 C   0  0  2  0  0  0  0  0  0  0  0  0
  -20.0094  -17.7260  -23.0238 C   0  0  1  0  0  0  0  0  0  0  0  0
  -19.8510  -17.4784  -21.6226 C   0  0  2  0  0  0  0  0  0  0  0  0
  -21.1603  -17.1347  -21.0418 C   0  0  1  0  0  0  0  0  0  0  0  0
  -22.1571  -18.3248  -21.2007 C   0  0  1  0  0  0  0  0  0  0  0  0
  -23.4979  -17.8586  -21.0001 C   0  0  0  0  0  0  0  0  0  0  0  0
  -18.6793  -17.6473  -23.6534 O   0  0  0  0  0  0  0  0  0  0  0  0
  -18.8541  -16.4086  -21.3925 O   0  0  0  0  0  0  0  0  0  0  0  0
  -20.9621  -16.8186  -19.6651 O   0  0  0  0  0  0  0  0  0  0  0  0
  -22.0598  -18.8822  -22.6257 O   0  0  0  0  0  0  0  0  0  0  0  0
  -24.3303  -18.9824  -20.8202 O   0  0  0  0  0  0  0  0  0  0  0  0
  -15.5915  -24.7809  -32.0171 H   0  0  0  0  0  0  0  0  0  0  0  0
  -15.5321  -21.9786  -28.8679 H   0  0  0  0  0  0  0  0  0  0  0  0
  -16.9661  -23.5374  -27.5731 H   0  0  0  0  0  0  0  0  0  0  0  0
  -18.0651  -26.6447  -29.0835 H   0  0  0  0  0  0  0  0  0  0  0  0
  -16.3892  -25.9127  -26.5424 H   0  0  0  0  0  0  0  0  0  0  0  0
  -16.3135  -28.3850  -26.7837 H   0  0  0  0  0  0  0  0  0  0  0  0
  -17.5789  -26.8531  -25.1829 H   0  0  0  0  0  0  0  0  0  0  0  0
  -20.1656  -25.7669  -26.2900 H   0  0  0  0  0  0  0  0  0  0  0  0
  -19.1788  -28.2781  -25.3986 H   0  0  0  0  0  0  0  0  0  0  0  0
  -18.7390  -24.8147  -24.3724 H   0  0  0  0  0  0  0  0  0  0  0  0
  -18.0034  -23.7781  -25.6162 H   0  0  0  0  0  0  0  0  0  0  0  0
  -20.6524  -19.3207  -24.2199 H   0  0  0  0  0  0  0  0  0  0  0  0
  -20.6351  -16.9851  -23.5431 H   0  0  0  0  0  0  0  0  0  0  0  0
  -19.4736  -18.3847  -21.1263 H   0  0  0  0  0  0  0  0  0  0  0  0
  -21.5946  -16.2703  -21.5655 H   0  0  0  0  0  0  0  0  0  0  0  0
  -21.9072  -19.1017  -20.4632 H   0  0  0  0  0  0  0  0  0  0  0  0
  -23.5399  -17.2169  -20.1077 H   0  0  0  0  0  0  0  0  0  0  0  0
  -23.8315  -17.2726  -21.8692 H   0  0  0  0  0  0  0  0  0  0  0  0
  -17.9834  -17.6061  -22.9504 H   0  0  0  0  0  0  0  0  0  0  0  0
  -18.7308  -16.2762  -20.4192 H   0  0  0  0  0  0  0  0  0  0  0  0
  -21.3948  -17.5088  -19.1025 H   0  0  0  0  0  0  0  0  0  0  0  0
  -24.4542  -19.1497  -19.8523 H   0  0  0  0  0  0  0  0  0  0  0  0
  1  2  1  0
  1  6  1  0
  9  1  1  0
  2  3  1  0
  2  7  2  0
  3  4  1  0
  4  5  1  0
  4  8  2  0
  5  6  2  0
  9 10  1  0
  9 14  1  0
 10 11  1  0
 10 12  1  0
 12 13  1  0
 12 15  1  0
 13 14  1  0
 13 16  1  0
 16 17  1  0
 17 18  1  0
 18 19  2  0
 18 20  1  1
 18 21  1  0
 21 22  1  0
 22 23  2  0
 22 24  1  1
 22 25  1  0
 26 25  1  0
 26 27  1  0
 26 35  1  0
 27 28  1  0
 27 32  1  0
 28 29  1  0
 28 33  1  0
 29 30  1  0
 29 34  1  0
 30 31  1  0
 30 35  1  0
 31 36  1  0
  3 37  1  0
  5 38  1  0
  6 39  1  0
  9 40  1  6
 10 41  1  1
 11 42  1  0
 12 43  1  1
 13 44  1  6
 15 45  1  0
 16 46  1  0
 16 47  1  0
 26 48  1  6
 27 49  1  6
 28 50  1  1
 29 51  1  6
 30 52  1  1
 31 53  1  0
 31 54  1  0
 32 55  1  0
 33 56  1  0
 34 57  1  0
 36 58  1  0
M  CHG  2  20  -1  24  -1
M  END
>  <filename_input>  (2) 
7XPO_UPG_docked.sdf

>  <pdb_id>  (2) 
7XPO_UPG

>  <pose_rank>  (2) 
1

>  <num_atoms_heavy>  (2) 
36

>  <num_torsions>  (2) 
9

>  <pose>  (2) 
[-19.981295929834502, -22.012240533146656, -25.229279963703387, -5.6361600229119, 2.1568691716804373, -1.6463410526059603, -9.602799410654345, 0.9052843516657814, 2.565749731381278, -6.503705137944876, 0.44227633469545574, 5.453190973899475, -0.16088437063260558, -0.41741168434321974, -3.2196852985263256]

>  <energy>  (2) 
-893.8443221616049

>  <inter_energy>  (2) 
-910.3594542837803

>  <intra_energy>  (2) 
20.981295086542957

>  <rmsd>  (2) 
1.26025

>  <sdf_rank>  (2) 
0

$$$$

     RDKit          3D

 58 60  0  0  0  0  0  0  0  0999 V2000
  -17.2825  -24.7561  -28.7179 N   0  0  0  0  0  0  0  0  0  0  0  0
  -16.4515  -25.6298  -29.3473 C   0  0  0  0  0  0  0  0  0  0  0  0
  -15.4290  -25.1680  -30.0998 N   0  0  0  0  0  0  0  0  0  0  0  0
  -15.2182  -23.8604  -30.2444 C   0  0  0  0  0  0  0  0  0  0  0  0
  -16.0018  -22.9215  -29.5926 C   0  0  0  0  0  0  0  0  0  0  0  0
  -17.0548  -23.4202  -28.8693 C   0  0  0  0  0  0  0  0  0  0  0  0
  -16.6159  -26.8407  -29.2469 O   0  0  0  0  0  0  0  0  0  0  0  0
  -14.1611  -23.5163  -30.9582 O   0  0  0  0  0  0  0  0  0  0  0  0
  -18.3781  -25.2148  -28.0209 C   0  0  1  0  0  0  0  0  0  0  0  0
  -18.1996  -25.4011  -26.4675 C   0  0  2  0  0  0  0  0  0  0  0  0
  -17.7526  -26.8161  -26.3491 O   0  0  0  0  0  0  0  0  0  0  0  0
  -19.3459  -25.1975  -25.8774 C   0  0  1  0  0  0  0  0  0  0  0  0
  -20.0369  -24.0443  -26.8051 C   0  0  2  0  0  0  0  0  0  0  0  0
  -19.4159  -24.1520  -27.9716 O   0  0  0  0  0  0  0  0  0  0  0  0
  -20.3350  -26.2935  -25.8697 O   0  0  0  0  0  0  0  0  0  0  0  0
  -19.8890  -22.6545  -26.1658 C   0  0  0  0  0  0  0  0  0  0  0  0
  -19.9126  -22.8391  -24.7669 O   0  0  0  0  0  0  0  0  0  0  0  0
  -19.8900  -21.6175  -23.7731 P   0  0  2  0  0  0  0  0  0  0  0  0
  -20.1841  -20.3479  -24.5477 O   0  0  0  0  0  0  0  0  0  0  0  0
  -18.5806  -21.6479  -23.0335 O   0  0  0  0  0  0  0  0  0  0  0  0
  -21.1991  -21.8042  -22.8598 O   0  0  0  0  0  0  0  0  0  0  0  0
  -21.3779  -21.7195  -21.2416 P   0  0  2  0  0  0  0  0  0  0  0  0
  -20.3012  -22.5364  -20.5962 O   0  0  0  0  0  0  0  0  0  0  0  0
  -22.7855  -21.5395  -20.9758 O   0  0  0  0  0  0  0  0  0  0  0  0
  -20.6448  -20.2160  -21.1103 O   0  0  0  0  0  0  0  0  0  0  0  0
  -20.9962  -19.3253  -20.0799 C   0  0  2  0  0  0  0  0  0  0  0  0
  -21.4880  -18.0130  -20.5668 C   0  0  1  0  0  0  0  0  0  0  0  0
  -20.5178  -17.5233  -21.4988 C   0  0  2  0  0  0  0  0  0  0  0  0
  -19.3232  -17.0760  -20.7622 C   0  0  1  0  0  0  0  0  0  0  0  0
  -18.6774  -18.2703  -19.9930 C   0  0  1  0  0  0  0  0  0  0  0  0
  -17.7803  -17.7692  -18.9934 C   0  0  0  0  0  0  0  0  0  0  0  0
  -22.7941  -18.0532  -21.2481 O   0  0  0  0  0  0  0  0  0  0  0  0
  -21.0904  -16.4348  -22.3225 O   0  0  0  0  0  0  0  0  0  0  0  0
  -18.4061  -16.5234  -21.7045 O   0  0  0  0  0  0  0  0  0  0  0  0
  -19.7756  -19.0705  -19.2828 O   0  0  0  0  0  0  0  0  0  0  0  0
  -17.0606  -18.8600  -18.4640 O   0  0  0  0  0  0  0  0  0  0  0  0
  -14.8025  -25.8373  -30.5692 H   0  0  0  0  0  0  0  0  0  0  0  0
  -15.7923  -21.8432  -29.6519 H   0  0  0  0  0  0  0  0  0  0  0  0
  -17.7461  -22.7114  -28.3901 H   0  0  0  0  0  0  0  0  0  0  0  0
  -18.5920  -26.1593  -28.5426 H   0  0  0  0  0  0  0  0  0  0  0  0
  -17.4880  -24.7050  -25.9993 H   0  0  0  0  0  0  0  0  0  0  0  0
  -17.6759  -27.0590  -25.3924 H   0  0  0  0  0  0  0  0  0  0  0  0
  -19.1220  -24.9970  -24.8193 H   0  0  0  0  0  0  0  0  0  0  0  0
  -21.1233  -24.1730  -26.9198 H   0  0  0  0  0  0  0  0  0  0  0  0
  -20.5528  -26.5348  -24.9346 H   0  0  0  0  0  0  0  0  0  0  0  0
  -18.9357  -22.1980  -26.4705 H   0  0  0  0  0  0  0  0  0  0  0  0
  -20.7013  -21.9861  -26.4872 H   0  0  0  0  0  0  0  0  0  0  0  0
  -21.8119  -19.7902  -19.5067 H   0  0  0  0  0  0  0  0  0  0  0  0
  -21.6263  -17.3720  -19.6836 H   0  0  0  0  0  0  0  0  0  0  0  0
  -20.2245  -18.3299  -22.1869 H   0  0  0  0  0  0  0  0  0  0  0  0
  -19.5977  -16.3151  -20.0168 H   0  0  0  0  0  0  0  0  0  0  0  0
  -18.1365  -18.9064  -20.7091 H   0  0  0  0  0  0  0  0  0  0  0  0
  -17.0841  -17.0474  -19.4454 H   0  0  0  0  0  0  0  0  0  0  0  0
  -18.3432  -17.2614  -18.1964 H   0  0  0  0  0  0  0  0  0  0  0  0
  -23.5179  -18.0755  -20.5731 H   0  0  0  0  0  0  0  0  0  0  0  0
  -21.4599  -15.7325  -21.7306 H   0  0  0  0  0  0  0  0  0  0  0  0
  -17.6657  -16.0773  -21.2218 H   0  0  0  0  0  0  0  0  0  0  0  0
  -17.0851  -18.8228  -17.4750 H   0  0  0  0  0  0  0  0  0  0  0  0
  1  2  1  0
  1  6  1  0
  9  1  1  0
  2  3  1  0
  2  7  2  0
  3  4  1  0
  4  5  1  0
  4  8  2  0
  5  6  2  0
  9 10  1  0
  9 14  1  0
 10 11  1  0
 10 12  1  0
 12 13  1  0
 12 15  1  0
 13 14  1  0
 13 16  1  0
 16 17  1  0
 17 18  1  0
 18 19  2  0
 18 20  1  1
 18 21  1  0
 21 22  1  0
 22 23  2  0
 22 24  1  6
 22 25  1  0
 26 25  1  0
 26 27  1  0
 26 35  1  0
 27 28  1  0
 27 32  1  0
 28 29  1  0
 28 33  1  0
 29 30  1  0
 29 34  1  0
 30 31  1  0
 30 35  1  0
 31 36  1  0
  3 37  1  0
  5 38  1  0
  6 39  1  0
  9 40  1  6
 10 41  1  1
 11 42  1  0
 12 43  1  1
 13 44  1  6
 15 45  1  0
 16 46  1  0
 16 47  1  0
 26 48  1  1
 27 49  1  1
 28 50  1  6
 29 51  1  1
 30 52  1  6
 31 53  1  0
 31 54  1  0
 32 55  1  0
 33 56  1  0
 34 57  1  0
 36 58  1  0
M  CHG  2  20  -1  24  -1
M  END
>  <filename_input>  (3) 
7XPO_UPG_docked.sdf

>  <pdb_id>  (3) 
7XPO_UPG

>  <pose_rank>  (3) 
2

>  <num_atoms_heavy>  (3) 
36

>  <num_torsions>  (3) 
9

>  <pose>  (3) 
[-19.88999847229223, -21.617511802128195, -23.773111560566317, -4.977013707508225, 2.5071733876700355, 0.6197308489212854, 1.0598079078555522, 0.31079442299005994, 23.66385780998589, -6.818097433092321, 1.2428018122059197, -20.21484486862431, 7.974288547194618, -5.654631841404032, -3.3104915357234437]

>  <energy>  (3) 
-825.3672310316688

>  <inter_energy>  (3) 
-839.464877471551

>  <intra_energy>  (3) 
7.952016648949346

>  <rmsd>  (3) 
2.7797

>  <sdf_rank>  (3) 
0

$$$$

     RDKit          3D

 58 60  0  0  0  0  0  0  0  0999 V2000
  -20.9449  -19.4789  -21.4281 N   0  0  0  0  0  0  0  0  0  0  0  0
  -21.3129  -18.1755  -21.5538 C   0  0  0  0  0  0  0  0  0  0  0  0
  -22.5833  -17.8026  -21.2851 N   0  0  0  0  0  0  0  0  0  0  0  0
  -23.4947  -18.6951  -20.9006 C   0  0  0  0  0  0  0  0  0  0  0  0
  -23.1706  -20.0290  -20.7107 C   0  0  0  0  0  0  0  0  0  0  0  0
  -21.8847  -20.3830  -21.0298 C   0  0  0  0  0  0  0  0  0  0  0  0
  -20.5069  -17.3242  -21.9131 O   0  0  0  0  0  0  0  0  0  0  0  0
  -24.6924  -18.2176  -20.6132 O   0  0  0  0  0  0  0  0  0  0  0  0
  -19.6772  -19.8828  -21.7832 C   0  0  1  0  0  0  0  0  0  0  0  0
  -19.2102  -21.2904  -21.2541 C   0  0  2  0  0  0  0  0  0  0  0  0
  -18.5518  -20.9603  -19.9603 O   0  0  0  0  0  0  0  0  0  0  0  0
  -18.3753  -21.8142  -22.1099 C   0  0  1  0  0  0  0  0  0  0  0  0
  -18.9366  -21.2764  -23.5466 C   0  0  2  0  0  0  0  0  0  0  0  0
  -19.6454  -20.2002  -23.2349 O   0  0  0  0  0  0  0  0  0  0  0  0
  -16.9692  -21.3655  -22.0823 O   0  0  0  0  0  0  0  0  0  0  0  0
  -19.7609  -22.3590  -24.2613 C   0  0  0  0  0  0  0  0  0  0  0  0
  -18.9422  -22.8979  -25.2765 O   0  0  0  0  0  0  0  0  0  0  0  0
  -19.3725  -22.8585  -26.7911 P   0  0  2  0  0  0  0  0  0  0  0  0
  -18.1993  -22.3796  -27.6234 O   0  0  0  0  0  0  0  0  0  0  0  0
  -20.6292  -22.0383  -26.8931 O   0  0  0  0  0  0  0  0  0  0  0  0
  -19.5225  -24.4006  -27.2178 O   0  0  0  0  0  0  0  0  0  0  0  0
  -18.5166  -25.6625  -26.9861 P   0  0  2  0  0  0  0  0  0  0  0  0
  -18.8460  -26.7287  -27.9850 O   0  0  0  0  0  0  0  0  0  0  0  0
  -18.1734  -25.6838  -25.5839 O   0  0  0  0  0  0  0  0  0  0  0  0
  -17.2348  -24.9569  -27.8072 O   0  0  0  0  0  0  0  0  0  0  0  0
  -16.7354  -25.5217  -28.9947 C   0  0  2  0  0  0  0  0  0  0  0  0
  -15.3910  -26.1314  -28.8467 C   0  0  1  0  0  0  0  0  0  0  0  0
  -14.5516  -25.1471  -28.2332 C   0  0  2  0  0  0  0  0  0  0  0  0
  -14.2352  -24.0997  -29.2195 C   0  0  1  0  0  0  0  0  0  0  0  0
  -15.5382  -23.3814  -29.6897 C   0  0  1  0  0  0  0  0  0  0  0  0
  -15.2790  -22.6603  -30.9013 C   0  0  0  0  0  0  0  0  0  0  0  0
  -15.3488  -27.3476  -28.0156 O   0  0  0  0  0  0  0  0  0  0  0  0
  -13.3253  -25.7740  -27.6905 O   0  0  0  0  0  0  0  0  0  0  0  0
  -13.3380  -23.1750  -28.6074 O   0  0  0  0  0  0  0  0  0  0  0  0
  -16.6173  -24.4293  -29.9862 O   0  0  0  0  0  0  0  0  0  0  0  0
  -14.1660  -23.2515  -31.5335 O   0  0  0  0  0  0  0  0  0  0  0  0
  -22.8515  -16.8126  -21.3790 H   0  0  0  0  0  0  0  0  0  0  0  0
  -23.8995  -20.7586  -20.3280 H   0  0  0  0  0  0  0  0  0  0  0  0
  -21.5988  -21.4430  -20.9613 H   0  0  0  0  0  0  0  0  0  0  0  0
  -19.0650  -19.0557  -21.3944 H   0  0  0  0  0  0  0  0  0  0  0  0
  -20.0184  -22.0258  -21.1277 H   0  0  0  0  0  0  0  0  0  0  0  0
  -19.1310  -21.2507  -19.2118 H   0  0  0  0  0  0  0  0  0  0  0  0
  -18.3434  -22.8927  -21.8961 H   0  0  0  0  0  0  0  0  0  0  0  0
  -18.1366  -21.0324  -24.2610 H   0  0  0  0  0  0  0  0  0  0  0  0
  -16.6715  -21.2705  -21.1429 H   0  0  0  0  0  0  0  0  0  0  0  0
  -20.0478  -23.1469  -23.5494 H   0  0  0  0  0  0  0  0  0  0  0  0
  -20.6831  -21.9345  -24.6848 H   0  0  0  0  0  0  0  0  0  0  0  0
  -17.4280  -26.3216  -29.2957 H   0  0  0  0  0  0  0  0  0  0  0  0
  -15.0634  -26.4386  -29.8508 H   0  0  0  0  0  0  0  0  0  0  0  0
  -15.0803  -24.6843  -27.3869 H   0  0  0  0  0  0  0  0  0  0  0  0
  -13.7653  -24.5436  -30.1095 H   0  0  0  0  0  0  0  0  0  0  0  0
  -15.8730  -22.6939  -28.8989 H   0  0  0  0  0  0  0  0  0  0  0  0
  -16.1561  -22.7151  -31.5628 H   0  0  0  0  0  0  0  0  0  0  0  0
  -15.0734  -21.6028  -30.6788 H   0  0  0  0  0  0  0  0  0  0  0  0
  -15.3576  -27.0940  -27.0587 H   0  0  0  0  0  0  0  0  0  0  0  0
  -13.3566  -25.7580  -26.7011 H   0  0  0  0  0  0  0  0  0  0  0  0
  -13.4094  -23.2486  -27.6227 H   0  0  0  0  0  0  0  0  0  0  0  0
  -13.5359  -23.5862  -30.8472 H   0  0  0  0  0  0  0  0  0  0  0  0
  1  2  1  0
  1  6  1  0
  9  1  1  0
  2  3  1  0
  2  7  2  0
  3  4  1  0
  4  5  1  0
  4  8  2  0
  5  6  2  0
  9 10  1  0
  9 14  1  0
 10 11  1  0
 10 12  1  0
 12 13  1  0
 12 15  1  0
 13 14  1  0
 13 16  1  0
 16 17  1  0
 17 18  1  0
 18 19  2  0
 18 20  1  1
 18 21  1  0
 21 22  1  0
 22 23  2  0
 22 24  1  1
 22 25  1  0
 26 25  1  0
 26 27  1  0
 26 35  1  0
 27 28  1  0
 27 32  1  0
 28 29  1  0
 28 33  1  0
 29 30  1  0
 29 34  1  0
 30 31  1  0
 30 35  1  0
 31 36  1  0
  3 37  1  0
  5 38  1  0
  6 39  1  0
  9 40  1  6
 10 41  1  1
 11 42  1  0
 12 43  1  6
 13 44  1  6
 15 45  1  0
 16 46  1  0
 16 47  1  0
 26 48  1  6
 27 49  1  6
 28 50  1  1
 29 51  1  6
 30 52  1  1
 31 53  1  0
 31 54  1  0
 32 55  1  0
 33 56  1  0
 34 57  1  0
 36 58  1  0
M  CHG  2  20  -1  24  -1
M  END
>  <filename_input>  (4) 
7XPO_UPG_docked.sdf

>  <pdb_id>  (4) 
7XPO_UPG

>  <pose_rank>  (4) 
3

>  <num_atoms_heavy>  (4) 
36

>  <num_torsions>  (4) 
9

>  <pose>  (4) 
[-19.37249637750484, -22.85852564241835, -26.79110116349254, -0.48085363971307815, -1.700808882328822, 1.758852719865091, -9.418877571309263, -11.309567503757098, -2.705152271924314, 0.6468066954115502, 4.369856638001919, 21.829741222354166, -15.532205786930238, -18.006174138214757, 0.08233668948868711]

>  <energy>  (4) 
-823.5506284617913

>  <inter_energy>  (4) 
-850.46705906701

>  <intra_energy>  (4) 
24.386216345656294

>  <rmsd>  (4) 
9.94431

>  <sdf_rank>  (4) 
0

$$$$

     RDKit          3D

 58 60  0  0  0  0  0  0  0  0999 V2000
  -16.9833  -25.0996  -29.0028 N   0  0  0  0  0  0  0  0  0  0  0  0
  -15.8894  -25.7711  -29.4528 C   0  0  0  0  0  0  0  0  0  0  0  0
  -14.9107  -25.1082  -30.1070 N   0  0  0  0  0  0  0  0  0  0  0  0
  -14.9978  -23.7972  -30.3277 C   0  0  0  0  0  0  0  0  0  0  0  0
  -16.0648  -23.0499  -29.8548 C   0  0  0  0  0  0  0  0  0  0  0  0
  -17.0599  -23.7574  -29.2304 C   0  0  0  0  0  0  0  0  0  0  0  0
  -15.7744  -26.9792  -29.2778 O   0  0  0  0  0  0  0  0  0  0  0  0
  -13.9634  -23.2380  -30.9299 O   0  0  0  0  0  0  0  0  0  0  0  0
  -18.0252  -25.7800  -28.4129 C   0  0  1  0  0  0  0  0  0  0  0  0
  -18.3036  -25.4672  -26.8949 C   0  0  2  0  0  0  0  0  0  0  0  0
  -17.4734  -26.4798  -26.1866 O   0  0  0  0  0  0  0  0  0  0  0  0
  -19.5770  -25.6203  -26.6528 C   0  0  1  0  0  0  0  0  0  0  0  0
  -20.2763  -25.1464  -28.0509 C   0  0  2  0  0  0  0  0  0  0  0  0
  -19.3154  -25.2792  -28.9547 O   0  0  0  0  0  0  0  0  0  0  0  0
  -20.0907  -26.9877  -26.4391 O   0  0  0  0  0  0  0  0  0  0  0  0
  -20.8139  -23.7105  -27.9442 C   0  0  0  0  0  0  0  0  0  0  0  0
  -20.3601  -23.1903  -26.7135 O   0  0  0  0  0  0  0  0  0  0  0  0
  -19.7276  -21.7516  -26.6090 P   0  0  2  0  0  0  0  0  0  0  0  0
  -20.3006  -20.8814  -27.7103 O   0  0  0  0  0  0  0  0  0  0  0  0
  -18.2312  -21.9042  -26.6031 O   0  0  0  0  0  0  0  0  0  0  0  0
  -20.3587  -21.1194  -25.2731 O   0  0  0  0  0  0  0  0  0  0  0  0
  -19.6309  -20.5271  -23.9399 P   0  0  2  0  0  0  0  0  0  0  0  0
  -19.6175  -19.0319  -24.0245 O   0  0  0  0  0  0  0  0  0  0  0  0
  -18.6638  -21.5087  -23.5090 O   0  0  0  0  0  0  0  0  0  0  0  0
  -20.9876  -20.6968  -22.9674 O   0  0  0  0  0  0  0  0  0  0  0  0
  -21.0807  -20.0337  -21.7304 C   0  0  2  0  0  0  0  0  0  0  0  0
  -20.7912  -20.9031  -20.5636 C   0  0  1  0  0  0  0  0  0  0  0  0
  -21.6098  -22.0699  -20.6992 C   0  0  2  0  0  0  0  0  0  0  0  0
  -23.0076  -21.7169  -20.3972 C   0  0  1  0  0  0  0  0  0  0  0  0
  -23.5327  -20.6522  -21.4101 C   0  0  1  0  0  0  0  0  0  0  0  0
  -24.7191  -20.0381  -20.8900 C   0  0  0  0  0  0  0  0  0  0  0  0
  -19.3890  -21.3415  -20.4485 O   0  0  0  0  0  0  0  0  0  0  0  0
  -21.1189  -23.1551  -19.8202 O   0  0  0  0  0  0  0  0  0  0  0  0
  -23.7873  -22.9095  -20.4642 O   0  0  0  0  0  0  0  0  0  0  0  0
  -22.4748  -19.5572  -21.5900 O   0  0  0  0  0  0  0  0  0  0  0  0
  -24.4460  -18.6721  -20.6720 O   0  0  0  0  0  0  0  0  0  0  0  0
  -14.0841  -25.6245  -30.4403 H   0  0  0  0  0  0  0  0  0  0  0  0
  -16.1106  -21.9572  -29.9730 H   0  0  0  0  0  0  0  0  0  0  0  0
  -17.9594  -23.2183  -28.8985 H   0  0  0  0  0  0  0  0  0  0  0  0
  -17.7323  -26.8260  -28.5868 H   0  0  0  0  0  0  0  0  0  0  0  0
  -18.0553  -24.4419  -26.5834 H   0  0  0  0  0  0  0  0  0  0  0  0
  -17.5710  -26.3609  -25.2086 H   0  0  0  0  0  0  0  0  0  0  0  0
  -19.7851  -25.0793  -25.7179 H   0  0  0  0  0  0  0  0  0  0  0  0
  -21.1596  -25.7448  -28.3188 H   0  0  0  0  0  0  0  0  0  0  0  0
  -20.1580  -27.1669  -25.4678 H   0  0  0  0  0  0  0  0  0  0  0  0
  -20.4311  -23.1011  -28.7761 H   0  0  0  0  0  0  0  0  0  0  0  0
  -21.9127  -23.6981  -27.9943 H   0  0  0  0  0  0  0  0  0  0  0  0
  -20.3335  -19.2264  -21.7325 H   0  0  0  0  0  0  0  0  0  0  0  0
  -20.9990  -20.3109  -19.6602 H   0  0  0  0  0  0  0  0  0  0  0  0
  -21.5570  -22.4418  -21.7330 H   0  0  0  0  0  0  0  0  0  0  0  0
  -23.0812  -21.2777  -19.3914 H   0  0  0  0  0  0  0  0  0  0  0  0
  -23.7460  -21.1460  -22.3696 H   0  0  0  0  0  0  0  0  0  0  0  0
  -25.5411  -20.1432  -21.6133 H   0  0  0  0  0  0  0  0  0  0  0  0
  -25.0170  -20.5221  -19.9482 H   0  0  0  0  0  0  0  0  0  0  0  0
  -19.1446  -21.4179  -19.4922 H   0  0  0  0  0  0  0  0  0  0  0  0
  -21.2379  -22.8920  -18.8732 H   0  0  0  0  0  0  0  0  0  0  0  0
  -23.9917  -23.2221  -19.5473 H   0  0  0  0  0  0  0  0  0  0  0  0
  -24.4104  -18.4939  -19.6988 H   0  0  0  0  0  0  0  0  0  0  0  0
  1  2  1  0
  1  6  1  0
  9  1  1  0
  2  3  1  0
  2  7  2  0
  3  4  1  0
  4  5  1  0
  4  8  2  0
  5  6  2  0
  9 10  1  0
  9 14  1  0
 10 11  1  0
 10 12  1  0
 12 13  1  0
 12 15  1  0
 13 14  1  0
 13 16  1  0
 16 17  1  0
 17 18  1  0
 18 19  2  0
 18 20  1  1
 18 21  1  0
 21 22  1  0
 22 23  2  0
 22 24  1  1
 22 25  1  0
 26 25  1  0
 26 27  1  0
 26 35  1  0
 27 28  1  0
 27 32  1  0
 28 29  1  0
 28 33  1  0
 29 30  1  0
 29 34  1  0
 30 31  1  0
 30 35  1  0
 31 36  1  0
  3 37  1  0
  5 38  1  0
  6 39  1  0
  9 40  1  1
 10 41  1  1
 11 42  1  0
 12 43  1  1
 13 44  1  6
 15 45  1  0
 16 46  1  0
 16 47  1  0
 26 48  1  6
 27 49  1  1
 28 50  1  6
 29 51  1  1
 30 52  1  6
 31 53  1  0
 31 54  1  0
 32 55  1  0
 33 56  1  0
 34 57  1  0
 36 58  1  0
M  CHG  2  20  -1  24  -1
M  END
>  <filename_input>  (5) 
7XPO_UPG_docked.sdf

>  <pdb_id>  (5) 
7XPO_UPG

>  <pose_rank>  (5) 
4

>  <num_atoms_heavy>  (5) 
36

>  <num_torsions>  (5) 
9

>  <pose>  (5) 
[-19.727615427891944, -21.751628159772086, -26.609015505866406, -0.48720227165966895, -2.10177965938663, 5.500159533735997, 1.3034811600779526, -6.8567671725223995, -13.331925875565679, -0.19883527151913497, 7.354594778992645, -5.0554333772504245, -22.65960344234139, -11.573118894564775, 1.6953359311286993]

>  <energy>  (5) 
-846.3834681031869

>  <inter_energy>  (5) 
-860.910715289736

>  <intra_energy>  (5) 
15.150951800559818

>  <rmsd>  (5) 
2.50403

>  <sdf_rank>  (5) 
0

$$$$

     RDKit          3D

 58 60  0  0  0  0  0  0  0  0999 V2000
  -20.4806  -20.0628  -20.4840 N   0  0  0  0  0  0  0  0  0  0  0  0
  -21.0537  -18.8294  -20.4991 C   0  0  0  0  0  0  0  0  0  0  0  0
  -22.3884  -18.7059  -20.6678 N   0  0  0  0  0  0  0  0  0  0  0  0
  -23.1630  -19.7782  -20.8266 C   0  0  0  0  0  0  0  0  0  0  0  0
  -22.6454  -21.0627  -20.7754 C   0  0  0  0  0  0  0  0  0  0  0  0
  -21.2834  -21.1534  -20.6431 C   0  0  0  0  0  0  0  0  0  0  0  0
  -20.3755  -17.8168  -20.3648 O   0  0  0  0  0  0  0  0  0  0  0  0
  -24.4599  -19.5494  -20.9317 O   0  0  0  0  0  0  0  0  0  0  0  0
  -19.1124  -20.1948  -20.4004 C   0  0  1  0  0  0  0  0  0  0  0  0
  -18.5490  -21.6621  -20.3035 C   0  0  2  0  0  0  0  0  0  0  0  0
  -18.4848  -21.8999  -18.8353 O   0  0  0  0  0  0  0  0  0  0  0  0
  -17.3689  -21.7052  -20.8597 C   0  0  1  0  0  0  0  0  0  0  0  0
  -17.4961  -20.6217  -22.0754 C   0  0  2  0  0  0  0  0  0  0  0  0
  -18.4983  -19.8363  -21.7055 O   0  0  0  0  0  0  0  0  0  0  0  0
  -16.2080  -21.2349  -20.0785 O   0  0  0  0  0  0  0  0  0  0  0  0
  -17.7403  -21.3228  -23.4211 C   0  0  0  0  0  0  0  0  0  0  0  0
  -19.0564  -21.8308  -23.3890 O   0  0  0  0  0  0  0  0  0  0  0  0
  -19.9307  -21.9400  -24.6944 P   0  0  2  0  0  0  0  0  0  0  0  0
  -19.8142  -20.6450  -25.4741 O   0  0  0  0  0  0  0  0  0  0  0  0
  -21.3224  -22.3387  -24.2863 O   0  0  0  0  0  0  0  0  0  0  0  0
  -19.1568  -22.9999  -25.6220 O   0  0  0  0  0  0  0  0  0  0  0  0
  -19.0715  -23.1169  -27.2459 P   0  0  2  0  0  0  0  0  0  0  0  0
  -17.7331  -22.6156  -27.6936 O   0  0  0  0  0  0  0  0  0  0  0  0
  -20.4133  -22.9649  -27.7565 O   0  0  0  0  0  0  0  0  0  0  0  0
  -18.7191  -24.7573  -27.2377 O   0  0  0  0  0  0  0  0  0  0  0  0
  -17.5235  -25.2394  -26.6749 C   0  0  2  0  0  0  0  0  0  0  0  0
  -16.4433  -25.4613  -27.6674 C   0  0  1  0  0  0  0  0  0  0  0  0
  -16.9976  -26.2644  -28.7150 C   0  0  2  0  0  0  0  0  0  0  0  0
  -17.1662  -27.6443  -28.2280 C   0  0  1  0  0  0  0  0  0  0  0  0
  -18.1627  -27.6815  -27.0278 C   0  0  1  0  0  0  0  0  0  0  0  0
  -18.0229  -28.9234  -26.3254 C   0  0  0  0  0  0  0  0  0  0  0  0
  -15.8963  -24.2350  -28.2746 O   0  0  0  0  0  0  0  0  0  0  0  0
  -16.1398  -26.2120  -29.9203 O   0  0  0  0  0  0  0  0  0  0  0  0
  -17.6462  -28.4381  -29.3115 O   0  0  0  0  0  0  0  0  0  0  0  0
  -17.8258  -26.5476  -26.0524 O   0  0  0  0  0  0  0  0  0  0  0  0
  -18.2706  -28.6840  -24.9582 O   0  0  0  0  0  0  0  0  0  0  0  0
  -22.8140  -17.7679  -20.6736 H   0  0  0  0  0  0  0  0  0  0  0  0
  -23.2870  -21.9540  -20.8369 H   0  0  0  0  0  0  0  0  0  0  0  0
  -20.8181  -22.1499  -20.6664 H   0  0  0  0  0  0  0  0  0  0  0  0
  -18.8863  -19.5908  -19.5094 H   0  0  0  0  0  0  0  0  0  0  0  0
  -19.1557  -22.4228  -20.8166 H   0  0  0  0  0  0  0  0  0  0  0  0
  -18.7106  -21.0639  -18.3555 H   0  0  0  0  0  0  0  0  0  0  0  0
  -17.1651  -22.7635  -21.0798 H   0  0  0  0  0  0  0  0  0  0  0  0
  -16.5755  -20.0418  -22.2377 H   0  0  0  0  0  0  0  0  0  0  0  0
  -16.4062  -21.3152  -19.1119 H   0  0  0  0  0  0  0  0  0  0  0  0
  -17.6330  -20.6037  -24.2466 H   0  0  0  0  0  0  0  0  0  0  0  0
  -17.0113  -22.1310  -23.5806 H   0  0  0  0  0  0  0  0  0  0  0  0
  -17.1654  -24.4811  -25.9630 H   0  0  0  0  0  0  0  0  0  0  0  0
  -15.6062  -25.9347  -27.1332 H   0  0  0  0  0  0  0  0  0  0  0  0
  -17.9836  -25.8704  -29.0021 H   0  0  0  0  0  0  0  0  0  0  0  0
  -16.2053  -28.0422  -27.8696 H   0  0  0  0  0  0  0  0  0  0  0  0
  -19.1880  -27.5712  -27.4106 H   0  0  0  0  0  0  0  0  0  0  0  0
  -18.7476  -29.6546  -26.7131 H   0  0  0  0  0  0  0  0  0  0  0  0
  -17.0092  -29.3274  -26.4639 H   0  0  0  0  0  0  0  0  0  0  0  0
  -15.6171  -23.6091  -27.5601 H   0  0  0  0  0  0  0  0  0  0  0  0
  -15.1900  -26.1540  -29.6471 H   0  0  0  0  0  0  0  0  0  0  0  0
  -18.1242  -29.2285  -28.9551 H   0  0  0  0  0  0  0  0  0  0  0  0
  -17.6778  -29.2570  -24.4102 H   0  0  0  0  0  0  0  0  0  0  0  0
  1  2  1  0
  1  6  1  0
  9  1  1  0
  2  3  1  0
  2  7  2  0
  3  4  1  0
  4  5  1  0
  4  8  2  0
  5  6  2  0
  9 10  1  0
  9 14  1  0
 10 11  1  0
 10 12  1  0
 12 13  1  0
 12 15  1  0
 13 14  1  0
 13 16  1  0
 16 17  1  0
 17 18  1  0
 18 19  2  0
 18 20  1  1
 18 21  1  0
 21 22  1  0
 22 23  2  0
 22 24  1  6
 22 25  1  0
 26 25  1  0
 26 27  1  0
 26 35  1  0
 27 28  1  0
 27 32  1  0
 28 29  1  0
 28 33  1  0
 29 30  1  0
 29 34  1  0
 30 31  1  0
 30 35  1  0
 31 36  1  0
  3 37  1  0
  5 38  1  0
  6 39  1  0
  9 40  1  1
 10 41  1  6
 11 42  1  0
 12 43  1  6
 13 44  1  6
 15 45  1  0
 16 46  1  0
 16 47  1  0
 26 48  1  1
 27 49  1  1
 28 50  1  6
 29 51  1  1
 30 52  1  6
 31 53  1  0
 31 54  1  0
 32 55  1  0
 33 56  1  0
 34 57  1  0
 36 58  1  0
M  CHG  2  20  -1  24  -1
M  END
>  <filename_input>  (6) 
7XPO_UPG_docked.sdf

>  <pdb_id>  (6) 
7XPO_UPG

>  <pose_rank>  (6) 
5

>  <num_atoms_heavy>  (6) 
36

>  <num_torsions>  (6) 
9

>  <pose>  (6) 
[-19.930652723668427, -21.93998851261782, -24.69444464292846, 0.6831635165736605, -2.0035652146147775, 1.9168450411990505, 0.018800626297286932, -0.322948341032217, 0.3349673171191426, 0.865189424795096, -3.6828228137516827, 1.2841629183520853, 4.2121952155768705, 1.0724951155635611, 2.235425431895945]

>  <energy>  (6) 
-676.266500871915

>  <inter_energy>  (6) 
-720.2852118976263

>  <intra_energy>  (6) 
44.87206157990862

>  <rmsd>  (6) 
9.75601

>  <sdf_rank>  (6) 
0

$$$$

     RDKit          3D

 58 60  0  0  0  0  0  0  0  0999 V2000
  -21.0476  -19.0267  -21.5312 N   0  0  0  0  0  0  0  0  0  0  0  0
  -21.6632  -17.8349  -21.7565 C   0  0  0  0  0  0  0  0  0  0  0  0
  -22.9483  -17.6558  -21.3802 N   0  0  0  0  0  0  0  0  0  0  0  0
  -23.6346  -18.6342  -20.7913 C   0  0  0  0  0  0  0  0  0  0  0  0
  -23.0499  -19.8549  -20.4939 C   0  0  0  0  0  0  0  0  0  0  0  0
  -21.7581  -20.0195  -20.9239 C   0  0  0  0  0  0  0  0  0  0  0  0
  -21.0699  -16.9116  -22.3033 O   0  0  0  0  0  0  0  0  0  0  0  0
  -24.8664  -18.3379  -20.4169 O   0  0  0  0  0  0  0  0  0  0  0  0
  -19.7678  -19.2479  -21.9891 C   0  0  1  0  0  0  0  0  0  0  0  0
  -19.2626  -20.7393  -21.9807 C   0  0  2  0  0  0  0  0  0  0  0  0
  -18.6178  -20.8669  -20.6450 O   0  0  0  0  0  0  0  0  0  0  0  0
  -18.4107  -20.9082  -22.9551 C   0  0  1  0  0  0  0  0  0  0  0  0
  -18.9827  -19.9154  -24.1193 C   0  0  2  0  0  0  0  0  0  0  0  0
  -19.7228  -19.0353  -23.4594 O   0  0  0  0  0  0  0  0  0  0  0  0
  -17.0179  -20.4618  -22.7541 O   0  0  0  0  0  0  0  0  0  0  0  0
  -19.7737  -20.6994  -25.1785 C   0  0  0  0  0  0  0  0  0  0  0  0
  -18.8626  -21.5700  -25.8134 O   0  0  0  0  0  0  0  0  0  0  0  0
  -19.3407  -22.6410  -26.8646 P   0  0  2  0  0  0  0  0  0  0  0  0
  -18.2439  -22.8468  -27.8907 O   0  0  0  0  0  0  0  0  0  0  0  0
  -20.6716  -22.1952  -27.4054 O   0  0  0  0  0  0  0  0  0  0  0  0
  -19.3578  -24.0313  -26.0588 O   0  0  0  0  0  0  0  0  0  0  0  0
  -18.9903  -25.5414  -26.5514 P   0  0  2  0  0  0  0  0  0  0  0  0
  -19.8988  -25.9115  -27.6831 O   0  0  0  0  0  0  0  0  0  0  0  0
  -18.4905  -26.2565  -25.4011 O   0  0  0  0  0  0  0  0  0  0  0  0
  -17.6644  -25.0605  -27.4600 O   0  0  0  0  0  0  0  0  0  0  0  0
  -16.4545  -25.7765  -27.4126 C   0  0  2  0  0  0  0  0  0  0  0  0
  -15.4767  -25.3660  -28.4501 C   0  0  1  0  0  0  0  0  0  0  0  0
  -16.1624  -25.3995  -29.7065 C   0  0  2  0  0  0  0  0  0  0  0  0
  -16.3669  -26.8020  -30.1078 C   0  0  1  0  0  0  0  0  0  0  0  0
  -17.2586  -27.5439  -29.0640 C   0  0  1  0  0  0  0  0  0  0  0  0
  -17.1302  -28.9605  -29.2428 C   0  0  0  0  0  0  0  0  0  0  0  0
  -14.9147  -24.0151  -28.2740 O   0  0  0  0  0  0  0  0  0  0  0  0
  -15.4084  -24.6430  -30.7314 O   0  0  0  0  0  0  0  0  0  0  0  0
  -16.9813  -26.8066  -31.3951 O   0  0  0  0  0  0  0  0  0  0  0  0
  -16.7766  -27.2014  -27.6494 O   0  0  0  0  0  0  0  0  0  0  0  0
  -17.7102  -29.5974  -28.1266 O   0  0  0  0  0  0  0  0  0  0  0  0
  -23.4048  -16.7484  -21.5512 H   0  0  0  0  0  0  0  0  0  0  0  0
  -23.5884  -20.6428  -19.9469 H   0  0  0  0  0  0  0  0  0  0  0  0
  -21.2738  -20.9954  -20.7723 H   0  0  0  0  0  0  0  0  0  0  0  0
  -19.1806  -18.5942  -21.3274 H   0  0  0  0  0  0  0  0  0  0  0  0
  -20.0500  -21.4927  -22.1304 H   0  0  0  0  0  0  0  0  0  0  0  0
  -19.2963  -20.7326  -19.9368 H   0  0  0  0  0  0  0  0  0  0  0  0
  -18.3487  -21.9920  -23.1323 H   0  0  0  0  0  0  0  0  0  0  0  0
  -18.1878  -19.4161  -24.6928 H   0  0  0  0  0  0  0  0  0  0  0  0
  -16.8277  -20.4009  -21.7845 H   0  0  0  0  0  0  0  0  0  0  0  0
  -20.5770  -21.2777  -24.6987 H   0  0  0  0  0  0  0  0  0  0  0  0
  -20.2373  -20.0175  -25.9066 H   0  0  0  0  0  0  0  0  0  0  0  0
  -15.9950  -25.5820  -26.4323 H   0  0  0  0  0  0  0  0  0  0  0  0
  -14.6255  -26.0596  -28.3841 H   0  0  0  0  0  0  0  0  0  0  0  0
  -17.1454  -24.9163  -29.6055 H   0  0  0  0  0  0  0  0  0  0  0  0
  -15.4031  -27.3305  -30.1513 H   0  0  0  0  0  0  0  0  0  0  0  0
  -18.3048  -27.2335  -29.2023 H   0  0  0  0  0  0  0  0  0  0  0  0
  -17.6516  -29.2691  -30.1609 H   0  0  0  0  0  0  0  0  0  0  0  0
  -16.0697  -29.2387  -29.3317 H   0  0  0  0  0  0  0  0  0  0  0  0
  -14.8317  -23.8156  -27.3079 H   0  0  0  0  0  0  0  0  0  0  0  0
  -14.7841  -24.0166  -30.2863 H   0  0  0  0  0  0  0  0  0  0  0  0
  -17.9657  -26.8139  -31.2909 H   0  0  0  0  0  0  0  0  0  0  0  0
  -17.3485  -29.2002  -27.2951 H   0  0  0  0  0  0  0  0  0  0  0  0
  1  2  1  0
  1  6  1  0
  9  1  1  0
  2  3  1  0
  2  7  2  0
  3  4  1  0
  4  5  1  0
  4  8  2  0
  5  6  2  0
  9 10  1  0
  9 14  1  0
 10 11  1  0
 10 12  1  0
 12 13  1  0
 12 15  1  0
 13 14  1  0
 13 16  1  0
 16 17  1  0
 17 18  1  0
 18 19  2  0
 18 20  1  6
 18 21  1  0
 21 22  1  0
 22 23  2  0
 22 24  1  1
 22 25  1  0
 26 25  1  0
 26 27  1  0
 26 35  1  0
 27 28  1  0
 27 32  1  0
 28 29  1  0
 28 33  1  0
 29 30  1  0
 29 34  1  0
 30 31  1  0
 30 35  1  0
 31 36  1  0
  3 37  1  0
  5 38  1  0
  6 39  1  0
  9 40  1  1
 10 41  1  1
 11 42  1  0
 12 43  1  6
 13 44  1  6
 15 45  1  0
 16 46  1  0
 16 47  1  0
 26 48  1  1
 27 49  1  6
 28 50  1  1
 29 51  1  6
 30 52  1  1
 31 53  1  0
 31 54  1  0
 32 55  1  0
 33 56  1  0
 34 57  1  0
 36 58  1  0
M  CHG  2  20  -1  24  -1
M  END
>  <filename_input>  (7) 
7XPO_UPG_docked.sdf

>  <pdb_id>  (7) 
7XPO_UPG

>  <pose_rank>  (7) 
6

>  <num_atoms_heavy>  (7) 
36

>  <num_torsions>  (7) 
9

>  <pose>  (7) 
[-19.34074082707653, -22.640993784037263, -26.864595518693744, -0.6787395166205493, -0.9261474846520025, 2.4444351840071006, 9.691211502200828, 0.12401470215407119, 4.2543870600981855, 1.1653492233438671, -3.5872626637844247, -1.5697272609675674, 1.4292071609649124, -0.5675402321165076, -3.6824973874191973]

>  <energy>  (7) 
-747.0607696727056

>  <inter_energy>  (7) 
-796.9813482720921

>  <intra_energy>  (7) 
60.541394240290295

>  <rmsd>  (7) 
10.1068

>  <sdf_rank>  (7) 
0

$$$$

     RDKit          3D

 58 60  0  0  0  0  0  0  0  0999 V2000
  -20.0709  -18.6345  -21.0515 N   0  0  0  0  0  0  0  0  0  0  0  0
  -20.4385  -17.8454  -20.0065 C   0  0  0  0  0  0  0  0  0  0  0  0
  -19.7236  -17.8645  -18.8603 N   0  0  0  0  0  0  0  0  0  0  0  0
  -18.6574  -18.6526  -18.7287 C   0  0  0  0  0  0  0  0  0  0  0  0
  -18.2062  -19.4451  -19.7721 C   0  0  0  0  0  0  0  0  0  0  0  0
  -18.9756  -19.4338  -20.9073 C   0  0  0  0  0  0  0  0  0  0  0  0
  -21.4182  -17.1120  -20.0836 O   0  0  0  0  0  0  0  0  0  0  0  0
  -17.9996  -18.5565  -17.5870 O   0  0  0  0  0  0  0  0  0  0  0  0
  -20.8428  -18.6871  -22.1907 C   0  0  1  0  0  0  0  0  0  0  0  0
  -20.1181  -18.3624  -23.5505 C   0  0  2  0  0  0  0  0  0  0  0  0
  -20.3187  -16.8943  -23.6947 O   0  0  0  0  0  0  0  0  0  0  0  0
  -20.6919  -19.0329  -24.5122 C   0  0  1  0  0  0  0  0  0  0  0  0
  -21.1430  -20.4190  -23.7751 C   0  0  2  0  0  0  0  0  0  0  0  0
  -21.1922  -20.1006  -22.4890 O   0  0  0  0  0  0  0  0  0  0  0  0
  -21.9463  -18.5046  -25.0838 O   0  0  0  0  0  0  0  0  0  0  0  0
  -20.1563  -21.5572  -24.0804 C   0  0  0  0  0  0  0  0  0  0  0  0
  -19.7283  -21.3856  -25.4141 O   0  0  0  0  0  0  0  0  0  0  0  0
  -20.0567  -22.4484  -26.5291 P   0  0  2  0  0  0  0  0  0  0  0  0
  -19.2792  -22.1015  -27.7835 O   0  0  0  0  0  0  0  0  0  0  0  0
  -21.5520  -22.5133  -26.6793 O   0  0  0  0  0  0  0  0  0  0  0  0
  -19.3578  -23.8049  -26.0250 O   0  0  0  0  0  0  0  0  0  0  0  0
  -19.2808  -25.2756  -26.7243 P   0  0  2  0  0  0  0  0  0  0  0  0
  -20.0754  -25.2458  -27.9935 O   0  0  0  0  0  0  0  0  0  0  0  0
  -19.1322  -26.2454  -25.6652 O   0  0  0  0  0  0  0  0  0  0  0  0
  -17.7619  -25.0213  -27.3903 O   0  0  0  0  0  0  0  0  0  0  0  0
  -17.3346  -25.7440  -28.5189 C   0  0  2  0  0  0  0  0  0  0  0  0
  -16.0771  -26.5009  -28.3023 C   0  0  1  0  0  0  0  0  0  0  0  0
  -15.1226  -25.5793  -27.7645 C   0  0  2  0  0  0  0  0  0  0  0  0
  -14.6760  -24.6683  -28.8324 C   0  0  1  0  0  0  0  0  0  0  0  0
  -15.8783  -23.8369  -29.3787 C   0  0  1  0  0  0  0  0  0  0  0  0
  -15.5286  -23.2608  -30.6441 C   0  0  0  0  0  0  0  0  0  0  0  0
  -16.1887  -27.6367  -27.3700 O   0  0  0  0  0  0  0  0  0  0  0  0
  -13.9852  -26.3045  -27.1548 O   0  0  0  0  0  0  0  0  0  0  0  0
  -13.6716  -23.8129  -28.2902 O   0  0  0  0  0  0  0  0  0  0  0  0
  -17.0792  -24.7643  -29.5984 O   0  0  0  0  0  0  0  0  0  0  0  0
  -14.7662  -24.2062  -31.3603 O   0  0  0  0  0  0  0  0  0  0  0  0
  -20.0072  -17.2603  -18.0759 H   0  0  0  0  0  0  0  0  0  0  0  0
  -17.2881  -20.0460  -19.6946 H   0  0  0  0  0  0  0  0  0  0  0  0
  -18.6968  -20.0987  -21.7380 H   0  0  0  0  0  0  0  0  0  0  0  0
  -21.6408  -17.9693  -21.9500 H   0  0  0  0  0  0  0  0  0  0  0  0
  -19.0532  -18.6364  -23.5813 H   0  0  0  0  0  0  0  0  0  0  0  0
  -20.3754  -16.4793  -22.7977 H   0  0  0  0  0  0  0  0  0  0  0  0
  -19.9762  -19.0569  -25.3473 H   0  0  0  0  0  0  0  0  0  0  0  0
  -22.1122  -20.8020  -24.1272 H   0  0  0  0  0  0  0  0  0  0  0  0
  -22.5597  -18.2463  -24.3510 H   0  0  0  0  0  0  0  0  0  0  0  0
  -19.2955  -21.5041  -23.3977 H   0  0  0  0  0  0  0  0  0  0  0  0
  -20.6348  -22.5383  -23.9449 H   0  0  0  0  0  0  0  0  0  0  0  0
  -18.1211  -26.4746  -28.7592 H   0  0  0  0  0  0  0  0  0  0  0  0
  -15.7885  -26.9319  -29.2723 H   0  0  0  0  0  0  0  0  0  0  0  0
  -15.5910  -24.9831  -26.9675 H   0  0  0  0  0  0  0  0  0  0  0  0
  -14.2635  -25.2422  -29.6753 H   0  0  0  0  0  0  0  0  0  0  0  0
  -16.1261  -23.0476  -28.6538 H   0  0  0  0  0  0  0  0  0  0  0  0
  -16.4413  -23.0147  -31.2066 H   0  0  0  0  0  0  0  0  0  0  0  0
  -14.9490  -22.3378  -30.4954 H   0  0  0  0  0  0  0  0  0  0  0  0
  -16.1560  -27.3034  -26.4384 H   0  0  0  0  0  0  0  0  0  0  0  0
  -14.0558  -26.2595  -26.1683 H   0  0  0  0  0  0  0  0  0  0  0  0
  -13.7094  -23.8451  -27.3014 H   0  0  0  0  0  0  0  0  0  0  0  0
  -14.2901  -24.7965  -30.7240 H   0  0  0  0  0  0  0  0  0  0  0  0
  1  2  1  0
  1  6  1  0
  9  1  1  0
  2  3  1  0
  2  7  2  0
  3  4  1  0
  4  5  1  0
  4  8  2  0
  5  6  2  0
  9 10  1  0
  9 14  1  0
 10 11  1  0
 10 12  1  0
 12 13  1  0
 12 15  1  0
 13 14  1  0
 13 16  1  0
 16 17  1  0
 17 18  1  0
 18 19  2  0
 18 20  1  6
 18 21  1  0
 21 22  1  0
 22 23  2  0
 22 24  1  1
 22 25  1  0
 26 25  1  0
 26 27  1  0
 26 35  1  0
 27 28  1  0
 27 32  1  0
 28 29  1  0
 28 33  1  0
 29 30  1  0
 29 34  1  0
 30 31  1  0
 30 35  1  0
 31 36  1  0
  3 37  1  0
  5 38  1  0
  6 39  1  0
  9 40  1  1
 10 41  1  1
 11 42  1  0
 12 43  1  6
 13 44  1  6
 15 45  1  0
 16 46  1  0
 16 47  1  0
 26 48  1  6
 27 49  1  6
 28 50  1  1
 29 51  1  6
 30 52  1  1
 31 53  1  0
 31 54  1  0
 32 55  1  0
 33 56  1  0
 34 57  1  0
 36 58  1  0
M  CHG  2  20  -1  24  -1
M  END
>  <filename_input>  (8) 
7XPO_UPG_docked.sdf

>  <pdb_id>  (8) 
7XPO_UPG

>  <pose_rank>  (8) 
7

>  <num_atoms_heavy>  (8) 
36

>  <num_torsions>  (8) 
9

>  <pose>  (8) 
[-20.056738169659496, -22.448435393803713, -26.529077771564438, 0.15823823627227407, 1.3851093887904413, -3.039482623538547, 4.121645799718728, 1.3541295649168184, -1.5384186779620397, -0.03493683011232778, 2.097974809856214, -0.5856715531858713, 2.6076366627314447, -5.669583003396465, 0.345348330385202]

>  <energy>  (8) 
-731.9740722852786

>  <inter_energy>  (8) 
-732.0490579235678

>  <intra_energy>  (8) 
1.508116981198722

>  <rmsd>  (8) 
10.0661

>  <sdf_rank>  (8) 
0

$$$$

     RDKit          3D

 58 60  0  0  0  0  0  0  0  0999 V2000
  -17.3358  -26.1324  -26.9529 N   0  0  0  0  0  0  0  0  0  0  0  0
  -16.7242  -27.2377  -26.4488 C   0  0  0  0  0  0  0  0  0  0  0  0
  -17.4044  -28.0759  -25.6364 N   0  0  0  0  0  0  0  0  0  0  0  0
  -18.6741  -27.8372  -25.3107 C   0  0  0  0  0  0  0  0  0  0  0  0
  -19.3655  -26.7532  -25.8277 C   0  0  0  0  0  0  0  0  0  0  0  0
  -18.6367  -25.9003  -26.6165 C   0  0  0  0  0  0  0  0  0  0  0  0
  -15.5544  -27.4892  -26.7172 O   0  0  0  0  0  0  0  0  0  0  0  0
  -19.2616  -28.7460  -24.5530 O   0  0  0  0  0  0  0  0  0  0  0  0
  -16.6262  -25.2270  -27.7100 C   0  0  1  0  0  0  0  0  0  0  0  0
  -17.2436  -24.8351  -29.1046 C   0  0  2  0  0  0  0  0  0  0  0  0
  -16.6301  -25.8246  -30.0324 O   0  0  0  0  0  0  0  0  0  0  0  0
  -16.8995  -23.6102  -29.3961 C   0  0  1  0  0  0  0  0  0  0  0  0
  -16.8579  -22.8827  -27.9342 C   0  0  2  0  0  0  0  0  0  0  0  0
  -16.7029  -23.8837  -27.0788 O   0  0  0  0  0  0  0  0  0  0  0  0
  -15.5534  -23.3739  -29.9540 O   0  0  0  0  0  0  0  0  0  0  0  0
  -18.1346  -22.0642  -27.6845 C   0  0  0  0  0  0  0  0  0  0  0  0
  -18.7717  -22.6266  -26.5580 O   0  0  0  0  0  0  0  0  0  0  0  0
  -20.2088  -22.1660  -26.1074 P   0  0  2  0  0  0  0  0  0  0  0  0
  -20.9051  -23.3260  -25.4234 O   0  0  0  0  0  0  0  0  0  0  0  0
  -20.9092  -21.5955  -27.3101 O   0  0  0  0  0  0  0  0  0  0  0  0
  -19.9523  -21.1295  -24.9064 O   0  0  0  0  0  0  0  0  0  0  0  0
  -18.9983  -21.2542  -23.5902 P   0  0  2  0  0  0  0  0  0  0  0  0
  -17.7081  -20.5445  -23.8635 O   0  0  0  0  0  0  0  0  0  0  0  0
  -19.3315  -22.4978  -22.9369 O   0  0  0  0  0  0  0  0  0  0  0  0
  -19.7728  -20.0232  -22.7536 O   0  0  0  0  0  0  0  0  0  0  0  0
  -21.0441  -19.5673  -23.1469 C   0  0  2  0  0  0  0  0  0  0  0  0
  -21.1464  -18.0901  -23.2395 C   0  0  1  0  0  0  0  0  0  0  0  0
  -20.6582  -17.5596  -22.0025 C   0  0  2  0  0  0  0  0  0  0  0  0
  -21.6538  -17.8055  -20.9452 C   0  0  1  0  0  0  0  0  0  0  0  0
  -21.8728  -19.3378  -20.7474 C   0  0  1  0  0  0  0  0  0  0  0  0
  -23.0899  -19.5598  -20.0231 C   0  0  0  0  0  0  0  0  0  0  0  0
  -20.3699  -17.4812  -24.3341 O   0  0  0  0  0  0  0  0  0  0  0  0
  -20.3521  -16.1177  -22.1393 O   0  0  0  0  0  0  0  0  0  0  0  0
  -21.1787  -17.2011  -19.7437 O   0  0  0  0  0  0  0  0  0  0  0  0
  -22.0095  -20.0124  -22.1174 O   0  0  0  0  0  0  0  0  0  0  0  0
  -24.1335  -19.7184  -20.9578 O   0  0  0  0  0  0  0  0  0  0  0  0
  -16.9340  -28.9126  -25.2629 H   0  0  0  0  0  0  0  0  0  0  0  0
  -20.4326  -26.5873  -25.6185 H   0  0  0  0  0  0  0  0  0  0  0  0
  -19.1230  -24.9889  -26.9943 H   0  0  0  0  0  0  0  0  0  0  0  0
  -15.6522  -25.7301  -27.8003 H   0  0  0  0  0  0  0  0  0  0  0  0
  -18.3425  -24.8608  -29.1449 H   0  0  0  0  0  0  0  0  0  0  0  0
  -16.1876  -26.5384  -29.5081 H   0  0  0  0  0  0  0  0  0  0  0  0
  -17.6021  -23.2630  -30.1680 H   0  0  0  0  0  0  0  0  0  0  0  0
  -16.0448  -22.1481  -27.8382 H   0  0  0  0  0  0  0  0  0  0  0  0
  -14.9050  -23.2601  -29.2146 H   0  0  0  0  0  0  0  0  0  0  0  0
  -17.8769  -21.0131  -27.4872 H   0  0  0  0  0  0  0  0  0  0  0  0
  -18.7958  -22.0904  -28.5632 H   0  0  0  0  0  0  0  0  0  0  0  0
  -21.2443  -19.9743  -24.1491 H   0  0  0  0  0  0  0  0  0  0  0  0
  -22.2002  -17.8517  -23.4460 H   0  0  0  0  0  0  0  0  0  0  0  0
  -19.7209  -18.0647  -21.7266 H   0  0  0  0  0  0  0  0  0  0  0  0
  -22.6236  -17.3686  -21.2256 H   0  0  0  0  0  0  0  0  0  0  0  0
  -21.0170  -19.7530  -20.1950 H   0  0  0  0  0  0  0  0  0  0  0  0
  -22.9980  -20.4679  -19.4092 H   0  0  0  0  0  0  0  0  0  0  0  0
  -23.2990  -18.7079  -19.3594 H   0  0  0  0  0  0  0  0  0  0  0  0
  -19.6505  -16.9170  -23.9542 H   0  0  0  0  0  0  0  0  0  0  0  0
  -20.2660  -15.7120  -21.2404 H   0  0  0  0  0  0  0  0  0  0  0  0
  -21.5547  -17.6793  -18.9627 H   0  0  0  0  0  0  0  0  0  0  0  0
  -24.9895  -19.8484  -20.4778 H   0  0  0  0  0  0  0  0  0  0  0  0
  1  2  1  0
  1  6  1  0
  9  1  1  0
  2  3  1  0
  2  7  2  0
  3  4  1  0
  4  5  1  0
  4  8  2  0
  5  6  2  0
  9 10  1  0
  9 14  1  0
 10 11  1  0
 10 12  1  0
 12 13  1  0
 12 15  1  0
 13 14  1  0
 13 16  1  0
 16 17  1  0
 17 18  1  0
 18 19  2  0
 18 20  1  6
 18 21  1  0
 21 22  1  0
 22 23  2  0
 22 24  1  1
 22 25  1  0
 26 25  1  0
 26 27  1  0
 26 35  1  0
 27 28  1  0
 27 32  1  0
 28 29  1  0
 28 33  1  0
 29 30  1  0
 29 34  1  0
 30 31  1  0
 30 35  1  0
 31 36  1  0
  3 37  1  0
  5 38  1  0
  6 39  1  0
  9 40  1  6
 10 41  1  1
 11 42  1  0
 12 43  1  6
 13 44  1  6
 15 45  1  0
 16 46  1  0
 16 47  1  0
 26 48  1  6
 27 49  1  6
 28 50  1  1
 29 51  1  6
 30 52  1  1
 31 53  1  0
 31 54  1  0
 32 55  1  0
 33 56  1  0
 34 57  1  0
 36 58  1  0
M  CHG  2  20  -1  24  -1
M  END
>  <filename_input>  (9) 
7XPO_UPG_docked.sdf

>  <pdb_id>  (9) 
7XPO_UPG

>  <pose_rank>  (9) 
8

>  <num_atoms_heavy>  (9) 
36

>  <num_torsions>  (9) 
9

>  <pose>  (9) 
[-20.208795935681103, -22.165969909390327, -26.107419952356697, -0.7287520165044071, 1.4109550495833973, 1.314833820401505, -65.66521801081801, -62.463280070415585, -42.827259052257816, -6.255752276058176, 4.371187531545319, -23.954919915640662, -32.07247939717899, -12.112038468967016, 1.2722257118062135]

>  <energy>  (9) 
-753.3024049735554

>  <inter_energy>  (9) 
-753.1611725601346

>  <intra_energy>  (9) 
6.802268264095322

>  <rmsd>  (9) 
3.46044

>  <sdf_rank>  (9) 
0

$$$$

     RDKit          3D

 58 60  0  0  0  0  0  0  0  0999 V2000
  -19.0357  -24.4878  -26.9204 N   0  0  0  0  0  0  0  0  0  0  0  0
  -18.1401  -25.0911  -27.7474 C   0  0  0  0  0  0  0  0  0  0  0  0
  -17.9078  -26.4177  -27.6404 N   0  0  0  0  0  0  0  0  0  0  0  0
  -18.5404  -27.1546  -26.7284 C   0  0  0  0  0  0  0  0  0  0  0  0
  -19.4966  -26.6074  -25.8878 C   0  0  0  0  0  0  0  0  0  0  0  0
  -19.6806  -25.2525  -25.9937 C   0  0  0  0  0  0  0  0  0  0  0  0
  -17.5305  -24.4474  -28.5945 O   0  0  0  0  0  0  0  0  0  0  0  0
  -18.2791  -28.4495  -26.7428 O   0  0  0  0  0  0  0  0  0  0  0  0
  -19.2147  -23.1231  -26.9631 C   0  0  1  0  0  0  0  0  0  0  0  0
  -20.7016  -22.6070  -27.0125 C   0  0  2  0  0  0  0  0  0  0  0  0
  -20.9745  -22.5112  -28.4728 O   0  0  0  0  0  0  0  0  0  0  0  0
  -20.7711  -21.4445  -26.4230 C   0  0  1  0  0  0  0  0  0  0  0  0
  -19.6567  -21.5679  -25.2351 C   0  0  2  0  0  0  0  0  0  0  0  0
  -18.8472  -22.5327  -25.6496 O   0  0  0  0  0  0  0  0  0  0  0  0
  -20.3571  -20.2477  -27.1817 O   0  0  0  0  0  0  0  0  0  0  0  0
  -20.3187  -21.8717  -23.8817 C   0  0  0  0  0  0  0  0  0  0  0  0
  -19.4060  -22.6535  -23.1421 O   0  0  0  0  0  0  0  0  0  0  0  0
  -19.3457  -22.5846  -21.5698 P   0  0  2  0  0  0  0  0  0  0  0  0
  -18.5919  -23.7943  -21.0531 O   0  0  0  0  0  0  0  0  0  0  0  0
  -20.7512  -22.4189  -21.0605 O   0  0  0  0  0  0  0  0  0  0  0  0
  -18.3504  -21.3645  -21.2480 O   0  0  0  0  0  0  0  0  0  0  0  0
  -18.2256  -20.4261  -19.9207 P   0  0  2  0  0  0  0  0  0  0  0  0
  -16.7784  -20.3002  -19.5562 O   0  0  0  0  0  0  0  0  0  0  0  0
  -19.4336  -20.6103  -19.1518 O   0  0  0  0  0  0  0  0  0  0  0  0
  -18.3826  -18.9859  -20.7670 O   0  0  0  0  0  0  0  0  0  0  0  0
  -19.0072  -18.9494  -22.0268 C   0  0  2  0  0  0  0  0  0  0  0  0
  -18.9257  -17.6276  -22.6956 C   0  0  1  0  0  0  0  0  0  0  0  0
  -19.3856  -16.6535  -21.7525 C   0  0  2  0  0  0  0  0  0  0  0  0
  -20.8480  -16.7661  -21.6163 C   0  0  1  0  0  0  0  0  0  0  0  0
  -21.2382  -18.1741  -21.0682 C   0  0  1  0  0  0  0  0  0  0  0  0
  -22.6317  -18.4130  -21.3059 C   0  0  0  0  0  0  0  0  0  0  0  0
  -17.5742  -17.2352  -23.1329 O   0  0  0  0  0  0  0  0  0  0  0  0
  -18.9796  -15.2926  -22.1700 O   0  0  0  0  0  0  0  0  0  0  0  0
  -21.2885  -15.7370  -20.7321 O   0  0  0  0  0  0  0  0  0  0  0  0
  -20.4411  -19.2492  -21.8162 O   0  0  0  0  0  0  0  0  0  0  0  0
  -22.8923  -19.7752  -21.0520 O   0  0  0  0  0  0  0  0  0  0  0  0
  -17.2308  -26.8664  -28.2739 H   0  0  0  0  0  0  0  0  0  0  0  0
  -20.0723  -27.2215  -25.1797 H   0  0  0  0  0  0  0  0  0  0  0  0
  -20.3792  -24.7611  -25.3006 H   0  0  0  0  0  0  0  0  0  0  0  0
  -18.6387  -22.8529  -27.8604 H   0  0  0  0  0  0  0  0  0  0  0  0
  -21.4300  -23.2525  -26.5000 H   0  0  0  0  0  0  0  0  0  0  0  0
  -21.8990  -22.1868  -28.6152 H   0  0  0  0  0  0  0  0  0  0  0  0
  -21.8303  -21.2824  -26.1744 H   0  0  0  0  0  0  0  0  0  0  0  0
  -19.1040  -20.6331  -25.0600 H   0  0  0  0  0  0  0  0  0  0  0  0
  -20.1078  -19.5268  -26.5506 H   0  0  0  0  0  0  0  0  0  0  0  0
  -20.5331  -20.9345  -23.3472 H   0  0  0  0  0  0  0  0  0  0  0  0
  -21.2701  -22.4060  -24.0213 H   0  0  0  0  0  0  0  0  0  0  0  0
  -18.4915  -19.6765  -22.6713 H   0  0  0  0  0  0  0  0  0  0  0  0
  -19.5341  -17.6902  -23.6099 H   0  0  0  0  0  0  0  0  0  0  0  0
  -18.9260  -16.8417  -20.7710 H   0  0  0  0  0  0  0  0  0  0  0  0
  -21.3324  -16.6495  -22.5970 H   0  0  0  0  0  0  0  0  0  0  0  0
  -21.0216  -18.2111  -19.9904 H   0  0  0  0  0  0  0  0  0  0  0  0
  -23.2372  -17.7862  -20.6347 H   0  0  0  0  0  0  0  0  0  0  0  0
  -22.8891  -18.1632  -22.3457 H   0  0  0  0  0  0  0  0  0  0  0  0
  -17.0055  -17.0701  -22.3395 H   0  0  0  0  0  0  0  0  0  0  0  0
  -18.8139  -14.7369  -21.3675 H   0  0  0  0  0  0  0  0  0  0  0  0
  -21.1627  -16.0308  -19.7951 H   0  0  0  0  0  0  0  0  0  0  0  0
  -22.9218  -19.9289  -20.0745 H   0  0  0  0  0  0  0  0  0  0  0  0
  1  2  1  0
  1  6  1  0
  9  1  1  0
  2  3  1  0
  2  7  2  0
  3  4  1  0
  4  5  1  0
  4  8  2  0
  5  6  2  0
  9 10  1  0
  9 14  1  0
 10 11  1  0
 10 12  1  0
 12 13  1  0
 12 15  1  0
 13 14  1  0
 13 16  1  0
 16 17  1  0
 17 18  1  0
 18 19  2  0
 18 20  1  1
 18 21  1  0
 21 22  1  0
 22 23  2  0
 22 24  1  1
 22 25  1  0
 26 25  1  0
 26 27  1  0
 26 35  1  0
 27 28  1  0
 27 32  1  0
 28 29  1  0
 28 33  1  0
 29 30  1  0
 29 34  1  0
 30 31  1  0
 30 35  1  0
 31 36  1  0
  3 37  1  0
  5 38  1  0
  6 39  1  0
  9 40  1  6
 10 41  1  1
 11 42  1  0
 12 43  1  1
 13 44  1  1
 15 45  1  0
 16 46  1  0
 16 47  1  0
 26 48  1  6
 27 49  1  6
 28 50  1  1
 29 51  1  6
 30 52  1  1
 31 53  1  0
 31 54  1  0
 32 55  1  0
 33 56  1  0
 34 57  1  0
 36 58  1  0
M  CHG  2  20  -1  24  -1
M  END
>  <filename_input>  (10) 
7XPO_UPG_docked.sdf

>  <pdb_id>  (10) 
7XPO_UPG

>  <pose_rank>  (10) 
9

>  <num_atoms_heavy>  (10) 
36

>  <num_torsions>  (10) 
9

>  <pose>  (10) 
[-19.3456649931397, -22.58456698431528, -21.569795713814596, -0.0835827020359273, -2.139000243012307, -2.189780192445035, -2.6109012444045177, 5.9799801345212265, 7.965589020898044, 0.09788553350254729, 1.6565069075162022, 1.81174030676744, -0.5483647775509712, -0.27370165510175365, 2.6104069906533827]

>  <energy>  (10) 
-674.4522822633488

>  <inter_energy>  (10) 
-690.8240658563458

>  <intra_energy>  (10) 
20.66404443664735

>  <rmsd>  (10) 
4.21743

>  <sdf_rank>  (10) 
0

$$$$

     RDKit          3D

 58 60  0  0  0  0  0  0  0  0999 V2000
  -18.5523  -23.9481  -26.6079 N   0  0  0  0  0  0  0  0  0  0  0  0
  -17.5812  -24.3437  -27.4742 C   0  0  0  0  0  0  0  0  0  0  0  0
  -17.2824  -25.6550  -27.6023 N   0  0  0  0  0  0  0  0  0  0  0  0
  -17.9222  -26.5786  -26.8862 C   0  0  0  0  0  0  0  0  0  0  0  0
  -18.9513  -26.2432  -26.0209 C   0  0  0  0  0  0  0  0  0  0  0  0
  -19.2035  -24.9023  -25.8834 C   0  0  0  0  0  0  0  0  0  0  0  0
  -16.9628  -23.5250  -28.1456 O   0  0  0  0  0  0  0  0  0  0  0  0
  -17.5896  -27.8346  -27.1255 O   0  0  0  0  0  0  0  0  0  0  0  0
  -18.8035  -22.6093  -26.4063 C   0  0  1  0  0  0  0  0  0  0  0  0
  -20.3161  -22.1747  -26.3527 C   0  0  2  0  0  0  0  0  0  0  0  0
  -20.6180  -21.8371  -27.7708 O   0  0  0  0  0  0  0  0  0  0  0  0
  -20.4367  -21.1404  -25.5656 C   0  0  1  0  0  0  0  0  0  0  0  0
  -19.2977  -21.4109  -24.4265 C   0  0  2  0  0  0  0  0  0  0  0  0
  -18.4457  -22.2414  -25.0114 O   0  0  0  0  0  0  0  0  0  0  0  0
  -20.0990  -19.8074  -26.1026 O   0  0  0  0  0  0  0  0  0  0  0  0
  -19.9202  -21.9852  -23.1439 C   0  0  0  0  0  0  0  0  0  0  0  0
  -21.0768  -21.2245  -22.8700 O   0  0  0  0  0  0  0  0  0  0  0  0
  -21.7833  -21.2748  -21.4633 P   0  0  2  0  0  0  0  0  0  0  0  0
  -22.8539  -22.3479  -21.4887 O   0  0  0  0  0  0  0  0  0  0  0  0
  -22.2534  -19.8848  -21.1326 O   0  0  0  0  0  0  0  0  0  0  0  0
  -20.6771  -21.8807  -20.4673 O   0  0  0  0  0  0  0  0  0  0  0  0
  -19.5648  -21.1290  -19.5423 P   0  0  2  0  0  0  0  0  0  0  0  0
  -18.2023  -21.5875  -19.9621 O   0  0  0  0  0  0  0  0  0  0  0  0
  -20.1778  -20.8720  -18.2606 O   0  0  0  0  0  0  0  0  0  0  0  0
  -19.6140  -19.6994  -20.4192 O   0  0  0  0  0  0  0  0  0  0  0  0
  -18.8046  -18.6043  -20.0668 C   0  0  2  0  0  0  0  0  0  0  0  0
  -19.5544  -17.3338  -19.9098 C   0  0  1  0  0  0  0  0  0  0  0  0
  -20.3387  -17.1627  -21.0952 C   0  0  2  0  0  0  0  0  0  0  0  0
  -19.4531  -16.7849  -22.2100 C   0  0  1  0  0  0  0  0  0  0  0  0
  -18.4155  -17.9163  -22.4902 C   0  0  1  0  0  0  0  0  0  0  0  0
  -17.3397  -17.3964  -23.2823 C   0  0  0  0  0  0  0  0  0  0  0  0
  -20.4643  -17.2888  -18.7514 O   0  0  0  0  0  0  0  0  0  0  0  0
  -21.4004  -16.1546  -20.8760 O   0  0  0  0  0  0  0  0  0  0  0  0
  -20.2664  -16.5462  -23.3572 O   0  0  0  0  0  0  0  0  0  0  0  0
  -17.8286  -18.4077  -21.1618 O   0  0  0  0  0  0  0  0  0  0  0  0
  -17.1918  -16.0280  -22.9763 O   0  0  0  0  0  0  0  0  0  0  0  0
  -16.5483  -25.9454  -28.2640 H   0  0  0  0  0  0  0  0  0  0  0  0
  -19.5299  -27.0052  -25.4781 H   0  0  0  0  0  0  0  0  0  0  0  0
  -19.9647  -24.5823  -25.1567 H   0  0  0  0  0  0  0  0  0  0  0  0
  -18.2576  -22.1534  -27.2454 H   0  0  0  0  0  0  0  0  0  0  0  0
  -21.0008  -22.9397  -25.9578 H   0  0  0  0  0  0  0  0  0  0  0  0
  -21.2776  -21.0995  -27.8012 H   0  0  0  0  0  0  0  0  0  0  0  0
  -21.4987  -21.0831  -25.2847 H   0  0  0  0  0  0  0  0  0  0  0  0
  -18.7922  -20.4930  -24.0920 H   0  0  0  0  0  0  0  0  0  0  0  0
  -19.9402  -19.1803  -25.3532 H   0  0  0  0  0  0  0  0  0  0  0  0
  -20.1895  -23.0410  -23.2947 H   0  0  0  0  0  0  0  0  0  0  0  0
  -19.2095  -21.9344  -22.3059 H   0  0  0  0  0  0  0  0  0  0  0  0
  -18.3422  -18.8355  -19.0959 H   0  0  0  0  0  0  0  0  0  0  0  0
  -18.8121  -16.5392  -19.7435 H   0  0  0  0  0  0  0  0  0  0  0  0
  -20.8385  -18.1092  -21.3491 H   0  0  0  0  0  0  0  0  0  0  0  0
  -18.8876  -15.8761  -21.9565 H   0  0  0  0  0  0  0  0  0  0  0  0
  -18.9180  -18.7394  -23.0195 H   0  0  0  0  0  0  0  0  0  0  0  0
  -16.4094  -17.9338  -23.0462 H   0  0  0  0  0  0  0  0  0  0  0  0
  -17.5574  -17.5261  -24.3527 H   0  0  0  0  0  0  0  0  0  0  0  0
  -19.9352  -17.3149  -17.9150 H   0  0  0  0  0  0  0  0  0  0  0  0
  -21.5368  -16.0251  -19.9040 H   0  0  0  0  0  0  0  0  0  0  0  0
  -21.1749  -16.2795  -23.0680 H   0  0  0  0  0  0  0  0  0  0  0  0
  -17.1790  -15.9091  -21.9936 H   0  0  0  0  0  0  0  0  0  0  0  0
  1  2  1  0
  1  6  1  0
  9  1  1  0
  2  3  1  0
  2  7  2  0
  3  4  1  0
  4  5  1  0
  4  8  2  0
  5  6  2  0
  9 10  1  0
  9 14  1  0
 10 11  1  0
 10 12  1  0
 12 13  1  0
 12 15  1  0
 13 14  1  0
 13 16  1  0
 16 17  1  0
 17 18  1  0
 18 19  2  0
 18 20  1  1
 18 21  1  0
 21 22  1  0
 22 23  2  0
 22 24  1  1
 22 25  1  0
 26 25  1  0
 26 27  1  0
 26 35  1  0
 27 28  1  0
 27 32  1  0
 28 29  1  0
 28 33  1  0
 29 30  1  0
 29 34  1  0
 30 31  1  0
 30 35  1  0
 31 36  1  0
  3 37  1  0
  5 38  1  0
  6 39  1  0
  9 40  1  6
 10 41  1  1
 11 42  1  0
 12 43  1  1
 13 44  1  1
 15 45  1  0
 16 46  1  0
 16 47  1  0
 26 48  1  1
 27 49  1  1
 28 50  1  6
 29 51  1  1
 30 52  1  6
 31 53  1  0
 31 54  1  0
 32 55  1  0
 33 56  1  0
 34 57  1  0
 36 58  1  0
M  CHG  2  20  -1  24  -1
M  END
>  <filename_input>  (11) 
7XPO_UPG_docked.sdf

>  <pdb_id>  (11) 
7XPO_UPG

>  <pose_rank>  (11) 
10

>  <num_atoms_heavy>  (11) 
36

>  <num_torsions>  (11) 
9

>  <pose>  (11) 
[-21.78325152385173, -21.274796152582866, -21.46329209870899, -1.3463241611839136, -2.0910861249935015, -3.4244757597313455, 43.20141041121466, 44.48116758176496, -58.23891455776409, -6.1129782847279435, 6.808900988404512, -21.473956549081525, 52.46426854704835, 63.35618850780951, 0.19232952842596387]

>  <energy>  (11) 
-661.6288551520279

>  <inter_energy>  (11) 
-683.7612867206902

>  <intra_energy>  (11) 
20.488720981836842

>  <rmsd>  (11) 
4.91673

>  <sdf_rank>  (11) 
0

$$$$

     RDKit          3D

 58 60  0  0  0  0  0  0  0  0999 V2000
  -20.3429  -23.0222  -27.0778 N   0  0  0  0  0  0  0  0  0  0  0  0
  -21.2378  -22.6310  -28.0244 C   0  0  0  0  0  0  0  0  0  0  0  0
  -21.4524  -21.3164  -28.2499 N   0  0  0  0  0  0  0  0  0  0  0  0
  -20.8027  -20.3848  -27.5535 C   0  0  0  0  0  0  0  0  0  0  0  0
  -19.8464  -20.7192  -26.6080 C   0  0  0  0  0  0  0  0  0  0  0  0
  -19.6805  -22.0603  -26.3741 C   0  0  0  0  0  0  0  0  0  0  0  0
  -21.8627  -23.4564  -28.6814 O   0  0  0  0  0  0  0  0  0  0  0  0
  -21.0478  -19.1306  -27.8885 O   0  0  0  0  0  0  0  0  0  0  0  0
  -20.1815  -24.3571  -26.7803 C   0  0  1  0  0  0  0  0  0  0  0  0
  -18.7100  -24.9164  -26.8185 C   0  0  2  0  0  0  0  0  0  0  0  0
  -18.5694  -25.3934  -28.2217 O   0  0  0  0  0  0  0  0  0  0  0  0
  -18.5994  -25.8897  -25.9559 C   0  0  1  0  0  0  0  0  0  0  0  0
  -19.6021  -25.4289  -24.7516 C   0  0  2  0  0  0  0  0  0  0  0  0
  -20.4360  -24.5774  -25.3326 O   0  0  0  0  0  0  0  0  0  0  0  0
  -19.0908  -27.2273  -26.3412 O   0  0  0  0  0  0  0  0  0  0  0  0
  -18.8190  -24.8086  -23.5835 C   0  0  0  0  0  0  0  0  0  0  0  0
  -19.2632  -23.4759  -23.4504 O   0  0  0  0  0  0  0  0  0  0  0  0
  -18.7062  -22.5296  -22.3213 P   0  0  2  0  0  0  0  0  0  0  0  0
  -17.1911  -22.5373  -22.3763 O   0  0  0  0  0  0  0  0  0  0  0  0
  -19.3188  -22.9576  -21.0160 O   0  0  0  0  0  0  0  0  0  0  0  0
  -19.0854  -21.0442  -22.8035 O   0  0  0  0  0  0  0  0  0  0  0  0
  -18.2328  -19.6571  -22.7189 P   0  0  2  0  0  0  0  0  0  0  0  0
  -18.1921  -19.0349  -24.0805 O   0  0  0  0  0  0  0  0  0  0  0  0
  -17.2554  -19.8195  -21.6688 O   0  0  0  0  0  0  0  0  0  0  0  0
  -19.5049  -18.7632  -22.0883 O   0  0  0  0  0  0  0  0  0  0  0  0
  -20.7445  -18.6992  -22.7501 C   0  0  2  0  0  0  0  0  0  0  0  0
  -21.4947  -17.4454  -22.4928 C   0  0  1  0  0  0  0  0  0  0  0  0
  -21.5462  -17.2737  -21.0724 C   0  0  2  0  0  0  0  0  0  0  0  0
  -22.4957  -18.2451  -20.5026 C   0  0  1  0  0  0  0  0  0  0  0  0
  -22.0188  -19.7040  -20.7844 C   0  0  1  0  0  0  0  0  0  0  0  0
  -23.1091  -20.6131  -20.5845 C   0  0  0  0  0  0  0  0  0  0  0  0
  -20.8953  -16.2322  -23.0766 O   0  0  0  0  0  0  0  0  0  0  0  0
  -21.9173  -15.8824  -20.7293 O   0  0  0  0  0  0  0  0  0  0  0  0
  -22.5858  -18.0023  -19.1000 O   0  0  0  0  0  0  0  0  0  0  0  0
  -21.5710  -19.8187  -22.2462 O   0  0  0  0  0  0  0  0  0  0  0  0
  -24.1413  -19.9200  -19.9195 O   0  0  0  0  0  0  0  0  0  0  0  0
  -22.1290  -21.0298  -28.9717 H   0  0  0  0  0  0  0  0  0  0  0  0
  -19.2570  -19.9565  -26.0780 H   0  0  0  0  0  0  0  0  0  0  0  0
  -18.9822  -22.3738  -25.5840 H   0  0  0  0  0  0  0  0  0  0  0  0
  -20.8378  -24.8303  -27.5255 H   0  0  0  0  0  0  0  0  0  0  0  0
  -17.9326  -24.1846  -26.5536 H   0  0  0  0  0  0  0  0  0  0  0  0
  -18.2895  -26.3430  -28.2209 H   0  0  0  0  0  0  0  0  0  0  0  0
  -17.5238  -26.0166  -25.7634 H   0  0  0  0  0  0  0  0  0  0  0  0
  -20.1459  -26.2687  -24.2945 H   0  0  0  0  0  0  0  0  0  0  0  0
  -19.2847  -27.7550  -25.5263 H   0  0  0  0  0  0  0  0  0  0  0  0
  -19.0174  -25.3673  -22.6569 H   0  0  0  0  0  0  0  0  0  0  0  0
  -17.7362  -24.8443  -23.7740 H   0  0  0  0  0  0  0  0  0  0  0  0
  -20.5438  -18.7466  -23.8305 H   0  0  0  0  0  0  0  0  0  0  0  0
  -22.4805  -17.5555  -22.9682 H   0  0  0  0  0  0  0  0  0  0  0  0
  -20.5519  -17.4595  -20.6401 H   0  0  0  0  0  0  0  0  0  0  0  0
  -23.4859  -18.1278  -20.9671 H   0  0  0  0  0  0  0  0  0  0  0  0
  -21.1884  -19.9464  -20.1049 H   0  0  0  0  0  0  0  0  0  0  0  0
  -23.4720  -20.9794  -21.5562 H   0  0  0  0  0  0  0  0  0  0  0  0
  -22.7814  -21.4752  -19.9851 H   0  0  0  0  0  0  0  0  0  0  0  0
  -20.5973  -15.6290  -22.3503 H   0  0  0  0  0  0  0  0  0  0  0  0
  -21.9442  -15.7812  -19.7449 H   0  0  0  0  0  0  0  0  0  0  0  0
  -22.2874  -18.8066  -18.6060 H   0  0  0  0  0  0  0  0  0  0  0  0
  -24.0173  -20.0032  -18.9408 H   0  0  0  0  0  0  0  0  0  0  0  0
  1  2  1  0
  1  6  1  0
  9  1  1  0
  2  3  1  0
  2  7  2  0
  3  4  1  0
  4  5  1  0
  4  8  2  0
  5  6  2  0
  9 10  1  0
  9 14  1  0
 10 11  1  0
 10 12  1  0
 12 13  1  0
 12 15  1  0
 13 14  1  0
 13 16  1  0
 16 17  1  0
 17 18  1  0
 18 19  2  0
 18 20  1  1
 18 21  1  0
 21 22  1  0
 22 23  2  0
 22 24  1  1
 22 25  1  0
 26 25  1  0
 26 27  1  0
 26 35  1  0
 27 28  1  0
 27 32  1  0
 28 29  1  0
 28 33  1  0
 29 30  1  0
 29 34  1  0
 30 31  1  0
 30 35  1  0
 31 36  1  0
  3 37  1  0
  5 38  1  0
  6 39  1  0
  9 40  1  6
 10 41  1  1
 11 42  1  0
 12 43  1  1
 13 44  1  1
 15 45  1  0
 16 46  1  0
 16 47  1  0
 26 48  1  6
 27 49  1  6
 28 50  1  1
 29 51  1  6
 30 52  1  1
 31 53  1  0
 31 54  1  0
 32 55  1  0
 33 56  1  0
 34 57  1  0
 36 58  1  0
M  CHG  2  20  -1  24  -1
M  END
>  <filename_input>  (12) 
7XPO_UPG_docked.sdf

>  <pdb_id>  (12) 
7XPO_UPG

>  <pose_rank>  (12) 
11

>  <num_atoms_heavy>  (12) 
36

>  <num_torsions>  (12) 
9

>  <pose>  (12) 
[-18.70618987131951, -22.529559613403144, -22.32131823996514, -0.17721215491769016, 3.6089940515123478, 2.2780334998147476, 1.7326966039007639, 0.20366402727369892, 1.1599353912943686, 0.01645966748705721, 2.761824270409421, 1.700348484593751, -1.9123615852810338, 0.10672987274563117, -0.5540998402452013]

>  <energy>  (12) 
-554.5754331507538

>  <inter_energy>  (12) 
-592.315576968539

>  <intra_energy>  (12) 
43.36421433682999

>  <rmsd>  (12) 
3.94705

>  <sdf_rank>  (12) 
0

$$$$

     RDKit          3D

 58 60  0  0  0  0  0  0  0  0999 V2000
  -17.7153  -26.6248  -26.9849 N   0  0  0  0  0  0  0  0  0  0  0  0
  -17.8134  -27.9800  -27.0485 C   0  0  0  0  0  0  0  0  0  0  0  0
  -18.4555  -28.6582  -26.0723 N   0  0  0  0  0  0  0  0  0  0  0  0
  -18.9960  -28.0212  -25.0345 C   0  0  0  0  0  0  0  0  0  0  0  0
  -18.9689  -26.6392  -24.9356 C   0  0  0  0  0  0  0  0  0  0  0  0
  -18.2760  -25.9829  -25.9205 C   0  0  0  0  0  0  0  0  0  0  0  0
  -17.3225  -28.6049  -27.9823 O   0  0  0  0  0  0  0  0  0  0  0  0
  -19.6453  -28.7730  -24.1636 O   0  0  0  0  0  0  0  0  0  0  0  0
  -16.9885  -25.9334  -27.9283 C   0  0  1  0  0  0  0  0  0  0  0  0
  -17.7770  -25.4217  -29.1917 C   0  0  2  0  0  0  0  0  0  0  0  0
  -17.6282  -26.5452  -30.1570 O   0  0  0  0  0  0  0  0  0  0  0  0
  -17.2216  -24.3237  -29.6272 C   0  0  1  0  0  0  0  0  0  0  0  0
  -16.6982  -23.6077  -28.2555 C   0  0  2  0  0  0  0  0  0  0  0  0
  -16.6075  -24.6035  -27.3848 O   0  0  0  0  0  0  0  0  0  0  0  0
  -16.0082  -24.4345  -30.4607 O   0  0  0  0  0  0  0  0  0  0  0  0
  -17.6605  -22.4963  -27.8070 C   0  0  0  0  0  0  0  0  0  0  0  0
  -18.9007  -23.1105  -27.5316 O   0  0  0  0  0  0  0  0  0  0  0  0
  -20.0518  -22.3437  -26.7783 P   0  0  2  0  0  0  0  0  0  0  0  0
  -21.2123  -23.2937  -26.5562 O   0  0  0  0  0  0  0  0  0  0  0  0
  -20.3635  -21.0962  -27.5587 O   0  0  0  0  0  0  0  0  0  0  0  0
  -19.4841  -22.1015  -25.2945 O   0  0  0  0  0  0  0  0  0  0  0  0
  -19.4126  -20.7397  -24.4009 P   0  0  2  0  0  0  0  0  0  0  0  0
  -20.4643  -19.7908  -24.8871 O   0  0  0  0  0  0  0  0  0  0  0  0
  -18.0411  -20.5758  -23.9806 O   0  0  0  0  0  0  0  0  0  0  0  0
  -20.2607  -21.3905  -23.1078 O   0  0  0  0  0  0  0  0  0  0  0  0
  -19.9537  -21.0289  -21.7835 C   0  0  2  0  0  0  0  0  0  0  0  0
  -20.8079  -21.6946  -20.7695 C   0  0  1  0  0  0  0  0  0  0  0  0
  -22.1675  -21.4833  -21.1653 C   0  0  2  0  0  0  0  0  0  0  0  0
  -22.5333  -20.0801  -20.9065 C   0  0  1  0  0  0  0  0  0  0  0  0
  -21.6411  -19.1187  -21.7519 C   0  0  1  0  0  0  0  0  0  0  0  0
  -21.7255  -17.7909  -21.2181 C   0  0  0  0  0  0  0  0  0  0  0  0
  -20.5937  -23.1463  -20.6335 O   0  0  0  0  0  0  0  0  0  0  0  0
  -23.0675  -22.4214  -20.4574 O   0  0  0  0  0  0  0  0  0  0  0  0
  -23.9112  -19.9161  -21.2367 O   0  0  0  0  0  0  0  0  0  0  0  0
  -20.1791  -19.5713  -21.6615 O   0  0  0  0  0  0  0  0  0  0  0  0
  -20.4700  -17.1711  -21.3841 O   0  0  0  0  0  0  0  0  0  0  0  0
  -18.5283  -29.6839  -26.1314 H   0  0  0  0  0  0  0  0  0  0  0  0
  -19.4718  -26.1020  -24.1180 H   0  0  0  0  0  0  0  0  0  0  0  0
  -18.1677  -24.8906  -25.8486 H   0  0  0  0  0  0  0  0  0  0  0  0
  -16.2042  -26.6622  -28.1805 H   0  0  0  0  0  0  0  0  0  0  0  0
  -18.8332  -25.1763  -29.0066 H   0  0  0  0  0  0  0  0  0  0  0  0
  -17.5157  -27.3942  -29.6604 H   0  0  0  0  0  0  0  0  0  0  0  0
  -17.9691  -23.8253  -30.2620 H   0  0  0  0  0  0  0  0  0  0  0  0
  -15.7325  -23.0948  -28.3750 H   0  0  0  0  0  0  0  0  0  0  0  0
  -15.2122  -24.5072  -29.8767 H   0  0  0  0  0  0  0  0  0  0  0  0
  -17.2737  -22.0040  -26.9025 H   0  0  0  0  0  0  0  0  0  0  0  0
  -17.7670  -21.7301  -28.5890 H   0  0  0  0  0  0  0  0  0  0  0  0
  -18.9150  -21.3354  -21.5909 H   0  0  0  0  0  0  0  0  0  0  0  0
  -20.5509  -21.2573  -19.7934 H   0  0  0  0  0  0  0  0  0  0  0  0
  -22.2754  -21.6815  -22.2419 H   0  0  0  0  0  0  0  0  0  0  0  0
  -22.3704  -19.8328  -19.8471 H   0  0  0  0  0  0  0  0  0  0  0  0
  -21.9875  -19.1346  -22.7958 H   0  0  0  0  0  0  0  0  0  0  0  0
  -22.4968  -17.2208  -21.7567 H   0  0  0  0  0  0  0  0  0  0  0  0
  -21.9954  -17.8252  -20.1522 H   0  0  0  0  0  0  0  0  0  0  0  0
  -20.5583  -23.3862  -19.6736 H   0  0  0  0  0  0  0  0  0  0  0  0
  -22.9591  -22.3084  -19.4798 H   0  0  0  0  0  0  0  0  0  0  0  0
  -24.4446  -19.8526  -20.4051 H   0  0  0  0  0  0  0  0  0  0  0  0
  -20.0776  -16.9774  -20.4961 H   0  0  0  0  0  0  0  0  0  0  0  0
  1  2  1  0
  1  6  1  0
  9  1  1  0
  2  3  1  0
  2  7  2  0
  3  4  1  0
  4  5  1  0
  4  8  2  0
  5  6  2  0
  9 10  1  0
  9 14  1  0
 10 11  1  0
 10 12  1  0
 12 13  1  0
 12 15  1  0
 13 14  1  0
 13 16  1  0
 16 17  1  0
 17 18  1  0
 18 19  2  0
 18 20  1  6
 18 21  1  0
 21 22  1  0
 22 23  2  0
 22 24  1  1
 22 25  1  0
 26 25  1  0
 26 27  1  0
 26 35  1  0
 27 28  1  0
 27 32  1  0
 28 29  1  0
 28 33  1  0
 29 30  1  0
 29 34  1  0
 30 31  1  0
 30 35  1  0
 31 36  1  0
  3 37  1  0
  5 38  1  0
  6 39  1  0
  9 40  1  6
 10 41  1  1
 11 42  1  0
 12 43  1  6
 13 44  1  6
 15 45  1  0
 16 46  1  0
 16 47  1  0
 26 48  1  1
 27 49  1  1
 28 50  1  6
 29 51  1  1
 30 52  1  6
 31 53  1  0
 31 54  1  0
 32 55  1  0
 33 56  1  0
 34 57  1  0
 36 58  1  0
M  CHG  2  20  -1  24  -1
M  END
>  <filename_input>  (13) 
7XPO_UPG_docked.sdf

>  <pdb_id>  (13) 
7XPO_UPG

>  <pose_rank>  (13) 
12

>  <num_atoms_heavy>  (13) 
36

>  <num_torsions>  (13) 
9

>  <pose>  (13) 
[-20.05181997976811, -22.343703789559353, -26.778264475005148, 0.2936531924238825, -3.1499043957220048, -3.3416322949889534, 10.308214471280872, -6.265287941334935, -6.10139011740667, -0.6144920652395515, -11.374651796455996, 12.453288948796319, 7.86958656439482, -0.3908016353336677, 2.2148501780963623]

>  <energy>  (13) 
-701.3497398503248

>  <inter_energy>  (13) 
-725.7026117909568

>  <intra_energy>  (13) 
26.417940976288552

>  <rmsd>  (13) 
4.23708

>  <sdf_rank>  (13) 
0

$$$$

     RDKit          3D

 58 60  0  0  0  0  0  0  0  0999 V2000
  -19.2884  -24.4057  -26.0334 N   0  0  0  0  0  0  0  0  0  0  0  0
  -19.3229  -23.3231  -25.2107 C   0  0  0  0  0  0  0  0  0  0  0  0
  -19.6361  -22.1063  -25.7070 N   0  0  0  0  0  0  0  0  0  0  0  0
  -19.9098  -21.9415  -27.0005 C   0  0  0  0  0  0  0  0  0  0  0  0
  -19.9354  -23.0121  -27.8800 C   0  0  0  0  0  0  0  0  0  0  0  0
  -19.5745  -24.2262  -27.3544 C   0  0  0  0  0  0  0  0  0  0  0  0
  -19.0693  -23.4303  -24.0158 O   0  0  0  0  0  0  0  0  0  0  0  0
  -20.2543  -20.7214  -27.3720 O   0  0  0  0  0  0  0  0  0  0  0  0
  -18.8857  -25.6325  -25.5547 C   0  0  1  0  0  0  0  0  0  0  0  0
  -19.5189  -26.9008  -26.2404 C   0  0  2  0  0  0  0  0  0  0  0  0
  -20.7222  -27.1673  -25.4054 O   0  0  0  0  0  0  0  0  0  0  0  0
  -18.6623  -27.8846  -26.1950 C   0  0  1  0  0  0  0  0  0  0  0  0
  -17.2229  -27.1251  -26.3341 C   0  0  2  0  0  0  0  0  0  0  0  0
  -17.4748  -25.8812  -25.9506 O   0  0  0  0  0  0  0  0  0  0  0  0
  -18.5436  -28.6535  -24.9404 O   0  0  0  0  0  0  0  0  0  0  0  0
  -16.6817  -27.2190  -27.7695 C   0  0  0  0  0  0  0  0  0  0  0  0
  -17.3393  -26.2244  -28.5243 O   0  0  0  0  0  0  0  0  0  0  0  0
  -17.0996  -26.0710  -30.0734 P   0  0  2  0  0  0  0  0  0  0  0  0
  -18.1445  -25.1312  -30.6421 O   0  0  0  0  0  0  0  0  0  0  0  0
  -17.0594  -27.4498  -30.6733 O   0  0  0  0  0  0  0  0  0  0  0  0
  -15.7374  -25.2277  -30.1988 O   0  0  0  0  0  0  0  0  0  0  0  0
  -15.1620  -24.0093  -29.2809 P   0  0  2  0  0  0  0  0  0  0  0  0
  -14.8934  -24.5317  -27.9032 O   0  0  0  0  0  0  0  0  0  0  0  0
  -15.7357  -22.7850  -29.7871 O   0  0  0  0  0  0  0  0  0  0  0  0
  -13.6006  -24.1205  -29.8847 O   0  0  0  0  0  0  0  0  0  0  0  0
  -12.7944  -22.9765  -30.0259 C   0  0  2  0  0  0  0  0  0  0  0  0
  -11.6310  -23.1732  -30.9252 C   0  0  1  0  0  0  0  0  0  0  0  0
  -10.9527  -24.3523  -30.4786 C   0  0  2  0  0  0  0  0  0  0  0  0
  -10.2411  -24.0540  -29.2238 C   0  0  1  0  0  0  0  0  0  0  0  0
  -11.2512  -23.6400  -28.1087 C   0  0  1  0  0  0  0  0  0  0  0  0
  -10.5490  -22.9882  -27.0422 C   0  0  0  0  0  0  0  0  0  0  0  0
  -11.9695  -23.3541  -32.3481 O   0  0  0  0  0  0  0  0  0  0  0  0
  -10.0304  -24.8498  -31.5241 O   0  0  0  0  0  0  0  0  0  0  0  0
   -9.5134  -25.2200  -28.8424 O   0  0  0  0  0  0  0  0  0  0  0  0
  -12.2638  -22.6435  -28.6851 O   0  0  0  0  0  0  0  0  0  0  0  0
  -11.0922  -21.6967  -26.8848 O   0  0  0  0  0  0  0  0  0  0  0  0
  -19.6638  -21.2930  -25.0755 H   0  0  0  0  0  0  0  0  0  0  0  0
  -20.2271  -22.8952  -28.9342 H   0  0  0  0  0  0  0  0  0  0  0  0
  -19.5131  -25.0935  -28.0283 H   0  0  0  0  0  0  0  0  0  0  0  0
  -19.1443  -25.5494  -24.4888 H   0  0  0  0  0  0  0  0  0  0  0  0
  -19.7763  -26.7697  -27.3018 H   0  0  0  0  0  0  0  0  0  0  0  0
  -20.4778  -27.1131  -24.4476 H   0  0  0  0  0  0  0  0  0  0  0  0
  -18.9807  -28.6123  -26.9560 H   0  0  0  0  0  0  0  0  0  0  0  0
  -16.4319  -27.5785  -25.7186 H   0  0  0  0  0  0  0  0  0  0  0  0
  -18.6381  -28.0415  -24.1680 H   0  0  0  0  0  0  0  0  0  0  0  0
  -15.5961  -27.0422  -27.7762 H   0  0  0  0  0  0  0  0  0  0  0  0
  -16.8638  -28.2177  -28.1931 H   0  0  0  0  0  0  0  0  0  0  0  0
  -13.4196  -22.1852  -30.4652 H   0  0  0  0  0  0  0  0  0  0  0  0
  -11.0233  -22.2578  -30.8720 H   0  0  0  0  0  0  0  0  0  0  0  0
  -11.6846  -25.1506  -30.2860 H   0  0  0  0  0  0  0  0  0  0  0  0
   -9.5488  -23.2117  -29.3691 H   0  0  0  0  0  0  0  0  0  0  0  0
  -11.7624  -24.5402  -27.7370 H   0  0  0  0  0  0  0  0  0  0  0  0
  -10.6716  -23.5603  -26.1108 H   0  0  0  0  0  0  0  0  0  0  0  0
   -9.4760  -22.9244  -27.2756 H   0  0  0  0  0  0  0  0  0  0  0  0
  -12.8402  -23.8193  -32.4236 H   0  0  0  0  0  0  0  0  0  0  0  0
   -9.2446  -25.2737  -31.0963 H   0  0  0  0  0  0  0  0  0  0  0  0
   -9.4772  -25.2780  -27.8548 H   0  0  0  0  0  0  0  0  0  0  0  0
  -11.1790  -21.4904  -25.9204 H   0  0  0  0  0  0  0  0  0  0  0  0
  1  2  1  0
  1  6  1  0
  9  1  1  0
  2  3  1  0
  2  7  2  0
  3  4  1  0
  4  5  1  0
  4  8  2  0
  5  6  2  0
  9 10  1  0
  9 14  1  0
 10 11  1  0
 10 12  1  0
 12 13  1  0
 12 15  1  0
 13 14  1  0
 13 16  1  0
 16 17  1  0
 17 18  1  0
 18 19  2  0
 18 20  1  6
 18 21  1  0
 21 22  1  0
 22 23  2  0
 22 24  1  1
 22 25  1  0
 26 25  1  0
 26 27  1  0
 26 35  1  0
 27 28  1  0
 27 32  1  0
 28 29  1  0
 28 33  1  0
 29 30  1  0
 29 34  1  0
 30 31  1  0
 30 35  1  0
 31 36  1  0
  3 37  1  0
  5 38  1  0
  6 39  1  0
  9 40  1  1
 10 41  1  6
 11 42  1  0
 12 43  1  6
 13 44  1  1
 15 45  1  0
 16 46  1  0
 16 47  1  0
 26 48  1  6
 27 49  1  6
 28 50  1  1
 29 51  1  6
 30 52  1  1
 31 53  1  0
 31 54  1  0
 32 55  1  0
 33 56  1  0
 34 57  1  0
 36 58  1  0
M  CHG  2  20  -1  24  -1
M  END
>  <filename_input>  (14) 
7XPO_UPG_docked.sdf

>  <pdb_id>  (14) 
7XPO_UPG

>  <pose_rank>  (14) 
13

>  <num_atoms_heavy>  (14) 
36

>  <num_torsions>  (14) 
9

>  <pose>  (14) 
[-17.099603107529617, -26.071044014308455, -30.073382740136598, 1.98560493726188, -2.75834490740776, 2.542549719820557, 3.755694815984322, 0.29361468053084727, -5.7793696064853295, 0.40198900539967497, 4.5774947174309775, 6.878855638354263, 1.6142008908412424, -6.368037490508769, 1.7930504694272866]

>  <energy>  (14) 
-672.1554058763976

>  <inter_energy>  (14) 
-684.9205169499087

>  <intra_energy>  (14) 
18.454041678991754

>  <rmsd>  (14) 
9.30877

>  <sdf_rank>  (14) 
0

$$$$

     RDKit          3D

 58 60  0  0  0  0  0  0  0  0999 V2000
  -19.0189  -24.4464  -26.9094 N   0  0  0  0  0  0  0  0  0  0  0  0
  -17.9207  -25.0081  -27.4827 C   0  0  0  0  0  0  0  0  0  0  0  0
  -17.6375  -26.3115  -27.2678 N   0  0  0  0  0  0  0  0  0  0  0  0
  -18.4167  -27.0653  -26.4934 C   0  0  0  0  0  0  0  0  0  0  0  0
  -19.5734  -26.5634  -25.9184 C   0  0  0  0  0  0  0  0  0  0  0  0
  -19.8117  -25.2284  -26.1224 C   0  0  0  0  0  0  0  0  0  0  0  0
  -17.1731  -24.3471  -28.1952 O   0  0  0  0  0  0  0  0  0  0  0  0
  -18.0793  -28.3385  -26.3912 O   0  0  0  0  0  0  0  0  0  0  0  0
  -19.2676  -23.0995  -27.0513 C   0  0  1  0  0  0  0  0  0  0  0  0
  -20.7769  -22.6521  -27.0138 C   0  0  2  0  0  0  0  0  0  0  0  0
  -21.1753  -22.6971  -28.4475 O   0  0  0  0  0  0  0  0  0  0  0  0
  -20.8539  -21.4460  -26.5207 C   0  0  1  0  0  0  0  0  0  0  0  0
  -19.6394  -21.4175  -25.4287 C   0  0  2  0  0  0  0  0  0  0  0  0
  -18.8211  -22.3806  -25.8295 O   0  0  0  0  0  0  0  0  0  0  0  0
  -20.5640  -20.3047  -27.4110 O   0  0  0  0  0  0  0  0  0  0  0  0
  -20.1704  -21.6281  -24.0018 C   0  0  0  0  0  0  0  0  0  0  0  0
  -19.8498  -20.4669  -23.2667 O   0  0  0  0  0  0  0  0  0  0  0  0
  -20.8384  -19.8692  -22.1962 P   0  0  2  0  0  0  0  0  0  0  0  0
  -22.1334  -19.4837  -22.8839 O   0  0  0  0  0  0  0  0  0  0  0  0
  -20.1223  -18.7609  -21.4742 O   0  0  0  0  0  0  0  0  0  0  0  0
  -21.2641  -21.1211  -21.2830 O   0  0  0  0  0  0  0  0  0  0  0  0
  -22.1803  -21.1818  -19.9358 P   0  0  2  0  0  0  0  0  0  0  0  0
  -22.7937  -22.5442  -19.8334 O   0  0  0  0  0  0  0  0  0  0  0  0
  -22.6742  -19.8468  -19.6942 O   0  0  0  0  0  0  0  0  0  0  0  0
  -20.8786  -21.4305  -18.9068 O   0  0  0  0  0  0  0  0  0  0  0  0
  -19.9517  -22.4611  -19.1459 C   0  0  2  0  0  0  0  0  0  0  0  0
  -19.2745  -22.9513  -17.9204 C   0  0  1  0  0  0  0  0  0  0  0  0
  -18.7552  -21.8022  -17.2424 C   0  0  2  0  0  0  0  0  0  0  0  0
  -17.5850  -21.2946  -17.9790 C   0  0  1  0  0  0  0  0  0  0  0  0
  -17.9967  -20.8481  -19.4165 C   0  0  1  0  0  0  0  0  0  0  0  0
  -16.8269  -20.7322  -20.2372 C   0  0  0  0  0  0  0  0  0  0  0  0
  -20.1437  -23.6807  -16.9800 O   0  0  0  0  0  0  0  0  0  0  0  0
  -18.4155  -22.1344  -15.8404 O   0  0  0  0  0  0  0  0  0  0  0  0
  -17.0422  -20.2000  -17.2431 O   0  0  0  0  0  0  0  0  0  0  0  0
  -18.9058  -21.9143  -20.0388 O   0  0  0  0  0  0  0  0  0  0  0  0
  -16.8778  -21.7438  -21.2180 O   0  0  0  0  0  0  0  0  0  0  0  0
  -16.8060  -26.7290  -27.7095 H   0  0  0  0  0  0  0  0  0  0  0  0
  -20.2578  -27.1965  -25.3345 H   0  0  0  0  0  0  0  0  0  0  0  0
  -20.6807  -24.7681  -25.6294 H   0  0  0  0  0  0  0  0  0  0  0  0
  -18.7826  -22.8857  -28.0152 H   0  0  0  0  0  0  0  0  0  0  0  0
  -21.4274  -23.2797  -26.3869 H   0  0  0  0  0  0  0  0  0  0  0  0
  -22.1568  -22.8078  -28.5140 H   0  0  0  0  0  0  0  0  0  0  0  0
  -21.8953  -21.3069  -26.1950 H   0  0  0  0  0  0  0  0  0  0  0  0
  -19.1206  -20.4487  -25.3820 H   0  0  0  0  0  0  0  0  0  0  0  0
  -20.3606  -19.5039  -26.8654 H   0  0  0  0  0  0  0  0  0  0  0  0
  -21.2605  -21.7734  -24.0220 H   0  0  0  0  0  0  0  0  0  0  0  0
  -19.7193  -22.5202  -23.5428 H   0  0  0  0  0  0  0  0  0  0  0  0
  -20.5052  -23.3083  -19.5771 H   0  0  0  0  0  0  0  0  0  0  0  0
  -18.5054  -23.6692  -18.2416 H   0  0  0  0  0  0  0  0  0  0  0  0
  -19.5204  -21.0126  -17.2116 H   0  0  0  0  0  0  0  0  0  0  0  0
  -16.8285  -22.0861  -18.0850 H   0  0  0  0  0  0  0  0  0  0  0  0
  -18.5188  -19.8819  -19.3551 H   0  0  0  0  0  0  0  0  0  0  0  0
  -16.8073  -19.7445  -20.7210 H   0  0  0  0  0  0  0  0  0  0  0  0
  -15.9196  -20.8406  -19.6248 H   0  0  0  0  0  0  0  0  0  0  0  0
  -19.8821  -23.4612  -16.0508 H   0  0  0  0  0  0  0  0  0  0  0  0
  -18.9718  -21.5905  -15.2283 H   0  0  0  0  0  0  0  0  0  0  0  0
  -17.1305  -20.3782  -16.2733 H   0  0  0  0  0  0  0  0  0  0  0  0
  -16.9223  -22.6291  -20.7771 H   0  0  0  0  0  0  0  0  0  0  0  0
  1  2  1  0
  1  6  1  0
  9  1  1  0
  2  3  1  0
  2  7  2  0
  3  4  1  0
  4  5  1  0
  4  8  2  0
  5  6  2  0
  9 10  1  0
  9 14  1  0
 10 11  1  0
 10 12  1  0
 12 13  1  0
 12 15  1  0
 13 14  1  0
 13 16  1  0
 16 17  1  0
 17 18  1  0
 18 19  2  0
 18 20  1  1
 18 21  1  0
 21 22  1  0
 22 23  2  0
 22 24  1  1
 22 25  1  0
 26 25  1  0
 26 27  1  0
 26 35  1  0
 27 28  1  0
 27 32  1  0
 28 29  1  0
 28 33  1  0
 29 30  1  0
 29 34  1  0
 30 31  1  0
 30 35  1  0
 31 36  1  0
  3 37  1  0
  5 38  1  0
  6 39  1  0
  9 40  1  6
 10 41  1  1
 11 42  1  0
 12 43  1  1
 13 44  1  1
 15 45  1  0
 16 46  1  0
 16 47  1  0
 26 48  1  6
 27 49  1  6
 28 50  1  1
 29 51  1  6
 30 52  1  1
 31 53  1  0
 31 54  1  0
 32 55  1  0
 33 56  1  0
 34 57  1  0
 36 58  1  0
M  CHG  2  20  -1  24  -1
M  END
>  <filename_input>  (15) 
7XPO_UPG_docked.sdf

>  <pdb_id>  (15) 
7XPO_UPG

>  <pose_rank>  (15) 
14

>  <num_atoms_heavy>  (15) 
36

>  <num_torsions>  (15) 
9

>  <pose>  (15) 
[-20.838409086210113, -19.869177404794353, -22.196216361850983, 0.7468183873166055, 0.08679060031456802, 0.9202510872470674, -0.24440606109037344, -6.713023162929936, -9.257675195512219, 0.42037138751351594, -23.147033080282753, -16.69370085585036, 10.707708205009915, -6.206851147262109, 1.6335435266246359]

>  <energy>  (15) 
-613.9589769274261

>  <inter_energy>  (15) 
-632.1309670934124

>  <intra_energy>  (15) 
14.360148134479312

>  <rmsd>  (15) 
5.6819

>  <sdf_rank>  (15) 
0

$$$$

     RDKit          3D

 58 60  0  0  0  0  0  0  0  0999 V2000
  -11.9689  -24.4219  -29.2295 N   0  0  0  0  0  0  0  0  0  0  0  0
  -10.6791  -23.9965  -29.1551 C   0  0  0  0  0  0  0  0  0  0  0  0
   -9.7415  -24.7783  -28.5765 N   0  0  0  0  0  0  0  0  0  0  0  0
  -10.0578  -25.9680  -28.0669 C   0  0  0  0  0  0  0  0  0  0  0  0
  -11.3442  -26.4762  -28.1521 C   0  0  0  0  0  0  0  0  0  0  0  0
  -12.2805  -25.6430  -28.7086 C   0  0  0  0  0  0  0  0  0  0  0  0
  -10.3480  -22.9047  -29.6043 O   0  0  0  0  0  0  0  0  0  0  0  0
   -9.0573  -26.6739  -27.5711 O   0  0  0  0  0  0  0  0  0  0  0  0
  -12.9470  -23.5967  -29.7380 C   0  0  1  0  0  0  0  0  0  0  0  0
  -13.9519  -24.2417  -30.7645 C   0  0  2  0  0  0  0  0  0  0  0  0
  -13.2998  -23.9849  -32.0779 O   0  0  0  0  0  0  0  0  0  0  0  0
  -15.1079  -23.6437  -30.6654 C   0  0  1  0  0  0  0  0  0  0  0  0
  -15.1964  -23.2765  -29.0762 C   0  0  2  0  0  0  0  0  0  0  0  0
  -13.9336  -23.2806  -28.6722 O   0  0  0  0  0  0  0  0  0  0  0  0
  -15.2864  -22.3454  -31.3451 O   0  0  0  0  0  0  0  0  0  0  0  0
  -16.0775  -24.2846  -28.3214 C   0  0  0  0  0  0  0  0  0  0  0  0
  -17.3016  -24.3660  -29.0186 O   0  0  0  0  0  0  0  0  0  0  0  0
  -18.4786  -25.2832  -28.5148 P   0  0  2  0  0  0  0  0  0  0  0  0
  -17.8937  -26.5316  -27.8838 O   0  0  0  0  0  0  0  0  0  0  0  0
  -19.4161  -25.5076  -29.6694 O   0  0  0  0  0  0  0  0  0  0  0  0
  -19.1076  -24.4968  -27.2623 O   0  0  0  0  0  0  0  0  0  0  0  0
  -19.6097  -25.0496  -25.8131 P   0  0  2  0  0  0  0  0  0  0  0  0
  -18.4081  -25.3423  -24.9684 O   0  0  0  0  0  0  0  0  0  0  0  0
  -20.8661  -25.7281  -26.0263 O   0  0  0  0  0  0  0  0  0  0  0  0
  -19.9582  -23.5239  -25.2080 O   0  0  0  0  0  0  0  0  0  0  0  0
  -18.9380  -22.6852  -24.7241 C   0  0  2  0  0  0  0  0  0  0  0  0
  -18.9029  -22.5801  -23.2446 C   0  0  1  0  0  0  0  0  0  0  0  0
  -20.2281  -22.2455  -22.8184 C   0  0  2  0  0  0  0  0  0  0  0  0
  -20.5026  -20.8379  -23.1547 C   0  0  1  0  0  0  0  0  0  0  0  0
  -20.4353  -20.6226  -24.6988 C   0  0  1  0  0  0  0  0  0  0  0  0
  -20.3125  -19.2230  -24.9840 C   0  0  0  0  0  0  0  0  0  0  0  0
  -18.4966  -23.8113  -22.5440 O   0  0  0  0  0  0  0  0  0  0  0  0
  -20.3892  -22.5018  -21.3694 O   0  0  0  0  0  0  0  0  0  0  0  0
  -21.7964  -20.5092  -22.6520 O   0  0  0  0  0  0  0  0  0  0  0  0
  -19.1937  -21.3283  -25.2565 O   0  0  0  0  0  0  0  0  0  0  0  0
  -19.5206  -18.6380  -23.9747 O   0  0  0  0  0  0  0  0  0  0  0  0
   -8.7666  -24.4494  -28.5286 H   0  0  0  0  0  0  0  0  0  0  0  0
  -11.5985  -27.4853  -27.7954 H   0  0  0  0  0  0  0  0  0  0  0  0
  -13.3291  -25.9742  -28.7360 H   0  0  0  0  0  0  0  0  0  0  0  0
  -12.3461  -22.7879  -30.1792 H   0  0  0  0  0  0  0  0  0  0  0  0
  -14.1480  -25.3123  -30.6057 H   0  0  0  0  0  0  0  0  0  0  0  0
  -12.3890  -23.6263  -31.9296 H   0  0  0  0  0  0  0  0  0  0  0  0
  -15.8489  -24.3174  -31.1205 H   0  0  0  0  0  0  0  0  0  0  0  0
  -15.6731  -22.3045  -28.8814 H   0  0  0  0  0  0  0  0  0  0  0  0
  -15.3848  -21.6295  -30.6684 H   0  0  0  0  0  0  0  0  0  0  0  0
  -15.5894  -25.2701  -28.2987 H   0  0  0  0  0  0  0  0  0  0  0  0
  -16.2386  -23.9637  -27.2817 H   0  0  0  0  0  0  0  0  0  0  0  0
  -17.9780  -23.1150  -25.0461 H   0  0  0  0  0  0  0  0  0  0  0  0
  -18.1453  -21.8235  -22.9925 H   0  0  0  0  0  0  0  0  0  0  0  0
  -20.9577  -22.8804  -23.3425 H   0  0  0  0  0  0  0  0  0  0  0  0
  -19.7462  -20.1824  -22.6984 H   0  0  0  0  0  0  0  0  0  0  0  0
  -21.3496  -21.0281  -25.1567 H   0  0  0  0  0  0  0  0  0  0  0  0
  -19.8317  -19.0829  -25.9633 H   0  0  0  0  0  0  0  0  0  0  0  0
  -21.3058  -18.7510  -25.0105 H   0  0  0  0  0  0  0  0  0  0  0  0
  -18.5447  -23.6656  -21.5660 H   0  0  0  0  0  0  0  0  0  0  0  0
  -19.9389  -21.7853  -20.8555 H   0  0  0  0  0  0  0  0  0  0  0  0
  -21.7769  -20.5142  -21.6622 H   0  0  0  0  0  0  0  0  0  0  0  0
  -19.8727  -18.8980  -23.0868 H   0  0  0  0  0  0  0  0  0  0  0  0
  1  2  1  0
  1  6  1  0
  9  1  1  0
  2  3  1  0
  2  7  2  0
  3  4  1  0
  4  5  1  0
  4  8  2  0
  5  6  2  0
  9 10  1  0
  9 14  1  0
 10 11  1  0
 10 12  1  0
 12 13  1  0
 12 15  1  0
 13 14  1  0
 13 16  1  0
 16 17  1  0
 17 18  1  0
 18 19  2  0
 18 20  1  6
 18 21  1  0
 21 22  1  0
 22 23  2  0
 22 24  1  6
 22 25  1  0
 26 25  1  0
 26 27  1  0
 26 35  1  0
 27 28  1  0
 27 32  1  0
 28 29  1  0
 28 33  1  0
 29 30  1  0
 29 34  1  0
 30 31  1  0
 30 35  1  0
 31 36  1  0
  3 37  1  0
  5 38  1  0
  6 39  1  0
  9 40  1  6
 10 41  1  1
 11 42  1  0
 12 43  1  6
 13 44  1  6
 15 45  1  0
 16 46  1  0
 16 47  1  0
 26 48  1  6
 27 49  1  6
 28 50  1  6
 29 51  1  1
 30 52  1  6
 31 53  1  0
 31 54  1  0
 32 55  1  0
 33 56  1  0
 34 57  1  0
 36 58  1  0
M  CHG  2  20  -1  24  -1
M  END
>  <filename_input>  (16) 
7XPO_UPG_docked.sdf

>  <pdb_id>  (16) 
7XPO_UPG

>  <pose_rank>  (16) 
15

>  <num_atoms_heavy>  (16) 
36

>  <num_torsions>  (16) 
9

>  <pose>  (16) 
[-18.47860541026043, -25.283221330821227, -28.514755963432968, -1.446017748576493, 1.0668248984448063, 2.0725554009051352, 37.91375663430791, 56.80723657438346, -1.808504412549041, -6.147999417476674, 27.93874137392728, 25.924088765936222, -2.3300462732822975, 44.89454752337279, 0.288070802461966]

>  <energy>  (16) 
-584.494931432485

>  <inter_energy>  (16) 
-596.629848676124

>  <intra_energy>  (16) 
14.017736799924219

>  <rmsd>  (16) 
5.51847

>  <sdf_rank>  (16) 
0

$$$$

     RDKit          3D

 58 60  0  0  0  0  0  0  0  0999 V2000
  -21.5353  -22.0987  -18.5059 N   0  0  0  0  0  0  0  0  0  0  0  0
  -22.7697  -22.5185  -18.1187 C   0  0  0  0  0  0  0  0  0  0  0  0
  -23.8196  -22.3992  -18.9606 N   0  0  0  0  0  0  0  0  0  0  0  0
  -23.6707  -21.8683  -20.1735 C   0  0  0  0  0  0  0  0  0  0  0  0
  -22.4311  -21.4640  -20.6427 C   0  0  0  0  0  0  0  0  0  0  0  0
  -21.3937  -21.5610  -19.7510 C   0  0  0  0  0  0  0  0  0  0  0  0
  -22.9510  -23.0049  -17.0078 O   0  0  0  0  0  0  0  0  0  0  0  0
  -24.7495  -21.8459  -20.9357 O   0  0  0  0  0  0  0  0  0  0  0  0
  -20.4780  -22.1355  -17.6244 C   0  0  1  0  0  0  0  0  0  0  0  0
  -19.8973  -23.5574  -17.2770 C   0  0  2  0  0  0  0  0  0  0  0  0
  -20.6830  -23.9559  -16.0769 O   0  0  0  0  0  0  0  0  0  0  0  0
  -18.6233  -23.4472  -17.0151 C   0  0  1  0  0  0  0  0  0  0  0  0
  -18.1461  -22.2445  -18.0120 C   0  0  2  0  0  0  0  0  0  0  0  0
  -19.2640  -21.5847  -18.2815 O   0  0  0  0  0  0  0  0  0  0  0  0
  -18.2210  -22.9828  -15.6728 O   0  0  0  0  0  0  0  0  0  0  0  0
  -17.4549  -22.8035  -19.2657 C   0  0  0  0  0  0  0  0  0  0  0  0
  -16.1832  -22.1967  -19.3412 O   0  0  0  0  0  0  0  0  0  0  0  0
  -15.7319  -21.3820  -20.6113 P   0  0  2  0  0  0  0  0  0  0  0  0
  -15.4081  -22.3535  -21.7293 O   0  0  0  0  0  0  0  0  0  0  0  0
  -14.6172  -20.4609  -20.1972 O   0  0  0  0  0  0  0  0  0  0  0  0
  -17.0672  -20.6538  -21.1304 O   0  0  0  0  0  0  0  0  0  0  0  0
  -17.8286  -20.7462  -22.5691 P   0  0  2  0  0  0  0  0  0  0  0  0
  -18.7218  -21.9483  -22.5631 O   0  0  0  0  0  0  0  0  0  0  0  0
  -16.9505  -20.1632  -23.5557 O   0  0  0  0  0  0  0  0  0  0  0  0
  -18.9821  -19.5924  -22.1778 O   0  0  0  0  0  0  0  0  0  0  0  0
  -19.4926  -18.7172  -23.1535 C   0  0  2  0  0  0  0  0  0  0  0  0
  -19.1189  -17.2979  -22.9367 C   0  0  1  0  0  0  0  0  0  0  0  0
  -19.4615  -16.9781  -21.5839 C   0  0  2  0  0  0  0  0  0  0  0  0
  -20.9256  -16.8630  -21.4708 C   0  0  1  0  0  0  0  0  0  0  0  0
  -21.6086  -18.2215  -21.8216 C   0  0  1  0  0  0  0  0  0  0  0  0
  -23.0002  -18.0048  -22.0892 C   0  0  0  0  0  0  0  0  0  0  0  0
  -17.6892  -16.9960  -23.1279 O   0  0  0  0  0  0  0  0  0  0  0  0
  -18.7816  -15.7351  -21.1547 O   0  0  0  0  0  0  0  0  0  0  0  0
  -21.2346  -16.4692  -20.1351 O   0  0  0  0  0  0  0  0  0  0  0  0
  -20.9689  -18.7992  -23.0895 O   0  0  0  0  0  0  0  0  0  0  0  0
  -23.7294  -18.3671  -20.9381 O   0  0  0  0  0  0  0  0  0  0  0  0
  -24.7497  -22.7237  -18.6600 H   0  0  0  0  0  0  0  0  0  0  0  0
  -22.2881  -21.0886  -21.6667 H   0  0  0  0  0  0  0  0  0  0  0  0
  -20.4039  -21.1886  -20.0535 H   0  0  0  0  0  0  0  0  0  0  0  0
  -20.9024  -21.6219  -16.7491 H   0  0  0  0  0  0  0  0  0  0  0  0
  -19.9791  -24.2981  -18.0861 H   0  0  0  0  0  0  0  0  0  0  0  0
  -20.1861  -23.7039  -15.2586 H   0  0  0  0  0  0  0  0  0  0  0  0
  -18.1944  -24.4550  -17.1176 H   0  0  0  0  0  0  0  0  0  0  0  0
  -17.3919  -21.5819  -17.5624 H   0  0  0  0  0  0  0  0  0  0  0  0
  -18.6868  -23.5205  -14.9842 H   0  0  0  0  0  0  0  0  0  0  0  0
  -17.3482  -23.8952  -19.1832 H   0  0  0  0  0  0  0  0  0  0  0  0
  -18.0461  -22.5894  -20.1683 H   0  0  0  0  0  0  0  0  0  0  0  0
  -19.0724  -19.0236  -24.1228 H   0  0  0  0  0  0  0  0  0  0  0  0
  -19.6577  -16.7036  -23.6893 H   0  0  0  0  0  0  0  0  0  0  0  0
  -19.1197  -17.7816  -20.9149 H   0  0  0  0  0  0  0  0  0  0  0  0
  -21.3049  -16.1120  -22.1794 H   0  0  0  0  0  0  0  0  0  0  0  0
  -21.4844  -18.9133  -20.9755 H   0  0  0  0  0  0  0  0  0  0  0  0
  -23.1743  -16.9439  -22.3222 H   0  0  0  0  0  0  0  0  0  0  0  0
  -23.3214  -18.6098  -22.9498 H   0  0  0  0  0  0  0  0  0  0  0  0
  -17.2506  -16.9033  -22.2452 H   0  0  0  0  0  0  0  0  0  0  0  0
  -18.7599  -15.6955  -20.1658 H   0  0  0  0  0  0  0  0  0  0  0  0
  -20.7665  -17.0658  -19.4986 H   0  0  0  0  0  0  0  0  0  0  0  0
  -23.2177  -18.1129  -20.1297 H   0  0  0  0  0  0  0  0  0  0  0  0
  1  2  1  0
  1  6  1  0
  9  1  1  0
  2  3  1  0
  2  7  2  0
  3  4  1  0
  4  5  1  0
  4  8  2  0
  5  6  2  0
  9 10  1  0
  9 14  1  0
 10 11  1  0
 10 12  1  0
 12 13  1  0
 12 15  1  0
 13 14  1  0
 13 16  1  0
 16 17  1  0
 17 18  1  0
 18 19  2  0
 18 20  1  1
 18 21  1  0
 21 22  1  0
 22 23  2  0
 22 24  1  6
 22 25  1  0
 26 25  1  0
 26 27  1  0
 26 35  1  0
 27 28  1  0
 27 32  1  0
 28 29  1  0
 28 33  1  0
 29 30  1  0
 29 34  1  0
 30 31  1  0
 30 35  1  0
 31 36  1  0
  3 37  1  0
  5 38  1  0
  6 39  1  0
  9 40  1  1
 10 41  1  6
 11 42  1  0
 12 43  1  6
 13 44  1  1
 15 45  1  0
 16 46  1  0
 16 47  1  0
 26 48  1  6
 27 49  1  6
 28 50  1  1
 29 51  1  6
 30 52  1  1
 31 53  1  0
 31 54  1  0
 32 55  1  0
 33 56  1  0
 34 57  1  0
 36 58  1  0
M  CHG  2  20  -1  24  -1
M  END
>  <filename_input>  (17) 
7XPO_UPG_docked.sdf

>  <pdb_id>  (17) 
7XPO_UPG

>  <pose_rank>  (17) 
16

>  <num_atoms_heavy>  (17) 
36

>  <num_torsions>  (17) 
9

>  <pose>  (17) 
[-15.73192438565208, -21.381956058066567, -20.611310873234768, 4.171801691028615, 2.6212790818922094, -0.33258901032435806, -31.898716984205155, 20.07382173446151, -3.081330941705596, -7.235843436989902, -9.471547257850203, 0.9332252410552143, 20.448558930491572, 13.343740272061693, -2.0808100956204667]

>  <energy>  (17) 
-485.5708561203015

>  <inter_energy>  (17) 
-515.4923038083534

>  <intra_energy>  (17) 
34.269241401734945

>  <rmsd>  (17) 
8.406

>  <sdf_rank>  (17) 
0

$$$$

     RDKit          3D

 58 60  0  0  0  0  0  0  0  0999 V2000
  -12.7108  -24.5136  -29.1823 N   0  0  0  0  0  0  0  0  0  0  0  0
  -11.6326  -24.1276  -29.9162 C   0  0  0  0  0  0  0  0  0  0  0  0
  -11.6248  -22.9208  -30.5234 N   0  0  0  0  0  0  0  0  0  0  0  0
  -12.6645  -22.0939  -30.4220 C   0  0  0  0  0  0  0  0  0  0  0  0
  -13.7725  -22.4105  -29.6522 C   0  0  0  0  0  0  0  0  0  0  0  0
  -13.7674  -23.6576  -29.0817 C   0  0  0  0  0  0  0  0  0  0  0  0
  -10.6589  -24.8623  -30.0416 O   0  0  0  0  0  0  0  0  0  0  0  0
  -12.5334  -20.9185  -31.0105 O   0  0  0  0  0  0  0  0  0  0  0  0
  -12.7645  -25.7751  -28.6327 C   0  0  1  0  0  0  0  0  0  0  0  0
  -12.5877  -25.8733  -27.0710 C   0  0  2  0  0  0  0  0  0  0  0  0
  -11.1192  -26.0580  -26.9112 O   0  0  0  0  0  0  0  0  0  0  0  0
  -13.2625  -26.8987  -26.6274 C   0  0  1  0  0  0  0  0  0  0  0  0
  -14.5564  -26.9457  -27.6232 C   0  0  2  0  0  0  0  0  0  0  0  0
  -14.1574  -26.2887  -28.7035 O   0  0  0  0  0  0  0  0  0  0  0  0
  -12.6619  -28.2413  -26.7543 O   0  0  0  0  0  0  0  0  0  0  0  0
  -15.7931  -26.3220  -26.9568 C   0  0  0  0  0  0  0  0  0  0  0  0
  -16.9103  -26.6851  -27.7386 O   0  0  0  0  0  0  0  0  0  0  0  0
  -17.8195  -25.6017  -28.4316 P   0  0  2  0  0  0  0  0  0  0  0  0
  -18.7825  -26.2972  -29.3735 O   0  0  0  0  0  0  0  0  0  0  0  0
  -16.9174  -24.5725  -29.0557 O   0  0  0  0  0  0  0  0  0  0  0  0
  -18.7767  -25.0566  -27.2615 O   0  0  0  0  0  0  0  0  0  0  0  0
  -19.9170  -25.8260  -26.3863 P   0  0  2  0  0  0  0  0  0  0  0  0
  -19.2644  -26.9295  -25.6121 O   0  0  0  0  0  0  0  0  0  0  0  0
  -21.1589  -25.7203  -27.1149 O   0  0  0  0  0  0  0  0  0  0  0  0
  -19.9470  -24.6699  -25.1707 O   0  0  0  0  0  0  0  0  0  0  0  0
  -18.7819  -23.9719  -24.8048 C   0  0  2  0  0  0  0  0  0  0  0  0
  -18.9302  -23.1710  -23.5648 C   0  0  1  0  0  0  0  0  0  0  0  0
  -20.1041  -22.3671  -23.7251 C   0  0  2  0  0  0  0  0  0  0  0  0
  -19.8202  -21.2830  -24.6810 C   0  0  1  0  0  0  0  0  0  0  0  0
  -19.4563  -21.8705  -26.0801 C   0  0  1  0  0  0  0  0  0  0  0  0
  -18.8148  -20.8626  -26.8725 C   0  0  0  0  0  0  0  0  0  0  0  0
  -19.0842  -23.9607  -22.3301 O   0  0  0  0  0  0  0  0  0  0  0  0
  -20.5551  -21.8381  -22.4181 O   0  0  0  0  0  0  0  0  0  0  0  0
  -20.9782  -20.4543  -24.7637 O   0  0  0  0  0  0  0  0  0  0  0  0
  -18.4694  -23.0303  -25.9030 O   0  0  0  0  0  0  0  0  0  0  0  0
  -18.2820  -21.4818  -28.0217 O   0  0  0  0  0  0  0  0  0  0  0  0
  -10.8021  -22.6355  -31.0736 H   0  0  0  0  0  0  0  0  0  0  0  0
  -14.6044  -21.7055  -29.5078 H   0  0  0  0  0  0  0  0  0  0  0  0
  -14.6547  -23.9816  -28.5180 H   0  0  0  0  0  0  0  0  0  0  0  0
  -11.9663  -26.2913  -29.1862 H   0  0  0  0  0  0  0  0  0  0  0  0
  -12.9553  -25.0010  -26.5106 H   0  0  0  0  0  0  0  0  0  0  0  0
  -10.8931  -26.0864  -25.9478 H   0  0  0  0  0  0  0  0  0  0  0  0
  -13.3997  -26.7397  -25.5476 H   0  0  0  0  0  0  0  0  0  0  0  0
  -14.8737  -27.9685  -27.8743 H   0  0  0  0  0  0  0  0  0  0  0  0
  -12.4949  -28.6147  -25.8528 H   0  0  0  0  0  0  0  0  0  0  0  0
  -15.9063  -26.7091  -25.9334 H   0  0  0  0  0  0  0  0  0  0  0  0
  -15.6960  -25.2281  -26.8952 H   0  0  0  0  0  0  0  0  0  0  0  0
  -17.9946  -24.7181  -24.6221 H   0  0  0  0  0  0  0  0  0  0  0  0
  -18.0028  -22.5925  -23.4411 H   0  0  0  0  0  0  0  0  0  0  0  0
  -20.9232  -22.9826  -24.1252 H   0  0  0  0  0  0  0  0  0  0  0  0
  -18.9591  -20.6896  -24.3398 H   0  0  0  0  0  0  0  0  0  0  0  0
  -20.3767  -22.2170  -26.5730 H   0  0  0  0  0  0  0  0  0  0  0  0
  -19.5480  -20.0974  -27.1673 H   0  0  0  0  0  0  0  0  0  0  0  0
  -18.0140  -20.3769  -26.2955 H   0  0  0  0  0  0  0  0  0  0  0  0
  -18.9690  -23.3700  -21.5440 H   0  0  0  0  0  0  0  0  0  0  0  0
  -20.1210  -22.3472  -21.6885 H   0  0  0  0  0  0  0  0  0  0  0  0
  -21.2902  -20.2311  -23.8510 H   0  0  0  0  0  0  0  0  0  0  0  0
  -17.6611  -22.2034  -27.7499 H   0  0  0  0  0  0  0  0  0  0  0  0
  1  2  1  0
  1  6  1  0
  9  1  1  0
  2  3  1  0
  2  7  2  0
  3  4  1  0
  4  5  1  0
  4  8  2  0
  5  6  2  0
  9 10  1  0
  9 14  1  0
 10 11  1  0
 10 12  1  0
 12 13  1  0
 12 15  1  0
 13 14  1  0
 13 16  1  0
 16 17  1  0
 17 18  1  0
 18 19  2  0
 18 20  1  6
 18 21  1  0
 21 22  1  0
 22 23  2  0
 22 24  1  6
 22 25  1  0
 26 25  1  0
 26 27  1  0
 26 35  1  0
 27 28  1  0
 27 32  1  0
 28 29  1  0
 28 33  1  0
 29 30  1  0
 29 34  1  0
 30 31  1  0
 30 35  1  0
 31 36  1  0
  3 37  1  0
  5 38  1  0
  6 39  1  0
  9 40  1  6
 10 41  1  1
 11 42  1  0
 12 43  1  1
 13 44  1  6
 15 45  1  0
 16 46  1  0
 16 47  1  0
 26 48  1  1
 27 49  1  1
 28 50  1  6
 29 51  1  1
 30 52  1  6
 31 53  1  0
 31 54  1  0
 32 55  1  0
 33 56  1  0
 34 57  1  0
 36 58  1  0
M  CHG  2  20  -1  24  -1
M  END
>  <filename_input>  (18) 
7XPO_UPG_docked.sdf

>  <pdb_id>  (18) 
7XPO_UPG

>  <pose_rank>  (18) 
17

>  <num_atoms_heavy>  (18) 
36

>  <num_torsions>  (18) 
9

>  <pose>  (18) 
[-17.81945649310051, -25.601654436300688, -28.4315507940099, -0.6405313976265568, 0.26867984347694923, 0.6353538927412121, -2.4835694631460723, 7.573097279501387, 8.756321201863852, -0.3322601118859665, -2.1882358984663854, -18.300902914062622, -32.945524707079, -19.05556490717926, 2.6280341864301344]

>  <energy>  (18) 
-495.71105434780844

>  <inter_energy>  (18) 
-523.9894184300014

>  <intra_energy>  (18) 
33.38056330180909

>  <rmsd>  (18) 
5.58688

>  <sdf_rank>  (18) 
0

$$$$

     RDKit          3D

 58 60  0  0  0  0  0  0  0  0999 V2000
  -21.2347  -19.2283  -22.2947 N   0  0  0  0  0  0  0  0  0  0  0  0
  -21.4365  -17.9328  -21.9326 C   0  0  0  0  0  0  0  0  0  0  0  0
  -22.5723  -17.5786  -21.2925 N   0  0  0  0  0  0  0  0  0  0  0  0
  -23.5116  -18.4803  -21.0101 C   0  0  0  0  0  0  0  0  0  0  0  0
  -23.3450  -19.8224  -21.3123 C   0  0  0  0  0  0  0  0  0  0  0  0
  -22.2008  -20.1434  -21.9966 C   0  0  0  0  0  0  0  0  0  0  0  0
  -20.6009  -17.0707  -22.1813 O   0  0  0  0  0  0  0  0  0  0  0  0
  -24.5589  -18.0388  -20.3365 O   0  0  0  0  0  0  0  0  0  0  0  0
  -20.1217  -19.5832  -23.0237 C   0  0  1  0  0  0  0  0  0  0  0  0
  -20.0686  -21.0643  -23.5558 C   0  0  2  0  0  0  0  0  0  0  0  0
  -19.3653  -21.7883  -22.4614 O   0  0  0  0  0  0  0  0  0  0  0  0
  -19.3967  -21.0935  -24.6745 C   0  0  1  0  0  0  0  0  0  0  0  0
  -19.7655  -19.6584  -25.3620 C   0  0  2  0  0  0  0  0  0  0  0  0
  -20.1556  -18.9029  -24.3447 O   0  0  0  0  0  0  0  0  0  0  0  0
  -17.9220  -21.0917  -24.6070 O   0  0  0  0  0  0  0  0  0  0  0  0
  -20.8445  -19.8219  -26.4442 C   0  0  0  0  0  0  0  0  0  0  0  0
  -21.0656  -18.5451  -27.0028 O   0  0  0  0  0  0  0  0  0  0  0  0
  -21.8310  -18.3628  -28.3672 P   0  0  2  0  0  0  0  0  0  0  0  0
  -23.2421  -17.8888  -28.0800 O   0  0  0  0  0  0  0  0  0  0  0  0
  -21.7136  -19.6490  -29.1381 O   0  0  0  0  0  0  0  0  0  0  0  0
  -21.1454  -17.0836  -29.0573 O   0  0  0  0  0  0  0  0  0  0  0  0
  -21.7793  -15.6382  -29.4658 P   0  0  2  0  0  0  0  0  0  0  0  0
  -22.1598  -14.9097  -28.2137 O   0  0  0  0  0  0  0  0  0  0  0  0
  -22.4081  -15.7963  -30.7558 O   0  0  0  0  0  0  0  0  0  0  0  0
  -20.2884  -14.9113  -29.7186 O   0  0  0  0  0  0  0  0  0  0  0  0
  -19.9826  -13.6645  -29.1436 C   0  0  2  0  0  0  0  0  0  0  0  0
  -20.1356  -12.5224  -30.0781 C   0  0  1  0  0  0  0  0  0  0  0  0
  -19.4006  -12.8505  -31.2621 C   0  0  2  0  0  0  0  0  0  0  0  0
  -17.9588  -12.7420  -30.9811 C   0  0  1  0  0  0  0  0  0  0  0  0
  -17.5413  -13.7559  -29.8708 C   0  0  1  0  0  0  0  0  0  0  0  0
  -16.2640  -13.3843  -29.3363 C   0  0  0  0  0  0  0  0  0  0  0  0
  -21.5240  -12.2240  -30.4721 O   0  0  0  0  0  0  0  0  0  0  0  0
  -19.8052  -11.9752  -32.3852 O   0  0  0  0  0  0  0  0  0  0  0  0
  -17.2532  -12.9982  -32.1941 O   0  0  0  0  0  0  0  0  0  0  0  0
  -18.5628  -13.7073  -28.7285 O   0  0  0  0  0  0  0  0  0  0  0  0
  -15.4089  -13.0807  -30.4155 O   0  0  0  0  0  0  0  0  0  0  0  0
  -22.7143  -16.5959  -21.0186 H   0  0  0  0  0  0  0  0  0  0  0  0
  -24.0846  -20.5829  -21.0214 H   0  0  0  0  0  0  0  0  0  0  0  0
  -22.0558  -21.1849  -22.3194 H   0  0  0  0  0  0  0  0  0  0  0  0
  -19.3117  -19.3545  -22.3154 H   0  0  0  0  0  0  0  0  0  0  0  0
  -21.0499  -21.5089  -23.7780 H   0  0  0  0  0  0  0  0  0  0  0  0
  -19.6875  -21.4566  -21.5861 H   0  0  0  0  0  0  0  0  0  0  0  0
  -19.6662  -22.0342  -25.1770 H   0  0  0  0  0  0  0  0  0  0  0  0
  -18.9181  -19.2019  -25.8943 H   0  0  0  0  0  0  0  0  0  0  0  0
  -17.6350  -21.0913  -23.6595 H   0  0  0  0  0  0  0  0  0  0  0  0
  -20.4977  -20.5192  -27.2211 H   0  0  0  0  0  0  0  0  0  0  0  0
  -21.7722  -20.2287  -26.0153 H   0  0  0  0  0  0  0  0  0  0  0  0
  -20.6840  -13.5048  -28.3114 H   0  0  0  0  0  0  0  0  0  0  0  0
  -19.7693  -11.6264  -29.5556 H   0  0  0  0  0  0  0  0  0  0  0  0
  -19.6231  -13.8853  -31.5618 H   0  0  0  0  0  0  0  0  0  0  0  0
  -17.7168  -11.7340  -30.6133 H   0  0  0  0  0  0  0  0  0  0  0  0
  -17.4954  -14.7648  -30.3066 H   0  0  0  0  0  0  0  0  0  0  0  0
  -16.3734  -12.5025  -28.6879 H   0  0  0  0  0  0  0  0  0  0  0  0
  -15.8463  -14.2085  -28.7395 H   0  0  0  0  0  0  0  0  0  0  0  0
  -22.0788  -12.1047  -29.6609 H   0  0  0  0  0  0  0  0  0  0  0  0
  -20.1924  -11.1372  -32.0276 H   0  0  0  0  0  0  0  0  0  0  0  0
  -16.3439  -13.3283  -31.9835 H   0  0  0  0  0  0  0  0  0  0  0  0
  -14.5356  -12.7706  -30.0674 H   0  0  0  0  0  0  0  0  0  0  0  0
  1  2  1  0
  1  6  1  0
  9  1  1  0
  2  3  1  0
  2  7  2  0
  3  4  1  0
  4  5  1  0
  4  8  2  0
  5  6  2  0
  9 10  1  0
  9 14  1  0
 10 11  1  0
 10 12  1  0
 12 13  1  0
 12 15  1  0
 13 14  1  0
 13 16  1  0
 16 17  1  0
 17 18  1  0
 18 19  2  0
 18 20  1  6
 18 21  1  0
 21 22  1  0
 22 23  2  0
 22 24  1  6
 22 25  1  0
 26 25  1  0
 26 27  1  0
 26 35  1  0
 27 28  1  0
 27 32  1  0
 28 29  1  0
 28 33  1  0
 29 30  1  0
 29 34  1  0
 30 31  1  0
 30 35  1  0
 31 36  1  0
  3 37  1  0
  5 38  1  0
  6 39  1  0
  9 40  1  1
 10 41  1  6
 11 42  1  0
 12 43  1  6
 13 44  1  6
 15 45  1  0
 16 46  1  0
 16 47  1  0
 26 48  1  1
 27 49  1  1
 28 50  1  6
 29 51  1  1
 30 52  1  6
 31 53  1  0
 31 54  1  0
 32 55  1  0
 33 56  1  0
 34 57  1  0
 36 58  1  0
M  CHG  2  20  -1  24  -1
M  END
>  <filename_input>  (19) 
7XPO_UPG_docked.sdf

>  <pdb_id>  (19) 
7XPO_UPG

>  <pose_rank>  (19) 
18

>  <num_atoms_heavy>  (19) 
36

>  <num_torsions>  (19) 
9

>  <pose>  (19) 
[-21.830953584189693, -18.362751996439, -28.36718325609385, -1.508017406841449, 1.5560582665772156, -0.5933120481794121, 2.6206858279795537, -6.318706509171035, 2.265144834413071, 1.0618087412529498, -3.126195933804743, 0.6300239402249067, -3.231415752124435, 1.0199153044149731, -1.1236768964421728]

>  <energy>  (19) 
-503.22122480498285

>  <inter_energy>  (19) 
-537.473189826284

>  <intra_energy>  (19) 
35.098741228922336

>  <rmsd>  (19) 
9.67718

>  <sdf_rank>  (19) 
0

$$$$

     RDKit          3D

 58 60  0  0  0  0  0  0  0  0999 V2000
  -17.1913  -25.3351  -28.8107 N   0  0  0  0  0  0  0  0  0  0  0  0
  -16.6433  -25.9126  -29.9136 C   0  0  0  0  0  0  0  0  0  0  0  0
  -15.7756  -25.2171  -30.6807 N   0  0  0  0  0  0  0  0  0  0  0  0
  -15.4457  -23.9618  -30.3794 C   0  0  0  0  0  0  0  0  0  0  0  0
  -15.9348  -23.3342  -29.2449 C   0  0  0  0  0  0  0  0  0  0  0  0
  -16.8432  -24.0516  -28.5095 C   0  0  0  0  0  0  0  0  0  0  0  0
  -16.9269  -27.0627  -30.2305 O   0  0  0  0  0  0  0  0  0  0  0  0
  -14.5500  -23.3906  -31.1648 O   0  0  0  0  0  0  0  0  0  0  0  0
  -18.1421  -26.0044  -28.0728 C   0  0  1  0  0  0  0  0  0  0  0  0
  -17.9024  -26.0845  -26.5186 C   0  0  2  0  0  0  0  0  0  0  0  0
  -17.1414  -27.3544  -26.3620 O   0  0  0  0  0  0  0  0  0  0  0  0
  -19.0559  -26.1253  -25.9090 C   0  0  1  0  0  0  0  0  0  0  0  0
  -20.0065  -25.1973  -26.8594 C   0  0  2  0  0  0  0  0  0  0  0  0
  -19.3949  -25.2056  -28.0357 O   0  0  0  0  0  0  0  0  0  0  0  0
  -19.7674  -27.4170  -25.8404 O   0  0  0  0  0  0  0  0  0  0  0  0
  -20.1713  -23.7867  -26.2719 C   0  0  0  0  0  0  0  0  0  0  0  0
  -18.9439  -23.1160  -26.4584 O   0  0  0  0  0  0  0  0  0  0  0  0
  -18.8365  -21.5481  -26.3549 P   0  0  2  0  0  0  0  0  0  0  0  0
  -19.5110  -20.9281  -27.5629 O   0  0  0  0  0  0  0  0  0  0  0  0
  -17.3873  -21.1963  -26.1585 O   0  0  0  0  0  0  0  0  0  0  0  0
  -19.8111  -21.1468  -25.1418 O   0  0  0  0  0  0  0  0  0  0  0  0
  -19.4639  -20.6014  -23.6451 P   0  0  2  0  0  0  0  0  0  0  0  0
  -18.9621  -19.1943  -23.7514 O   0  0  0  0  0  0  0  0  0  0  0  0
  -19.0671  -21.7430  -22.8554 O   0  0  0  0  0  0  0  0  0  0  0  0
  -21.0602  -20.2548  -23.2618 O   0  0  0  0  0  0  0  0  0  0  0  0
  -21.4314  -18.9865  -22.7799 C   0  0  2  0  0  0  0  0  0  0  0  0
  -20.7765  -18.6188  -21.5004 C   0  0  1  0  0  0  0  0  0  0  0  0
  -20.9890  -19.7071  -20.5949 C   0  0  2  0  0  0  0  0  0  0  0  0
  -22.3953  -19.7034  -20.1568 C   0  0  1  0  0  0  0  0  0  0  0  0
  -23.3471  -19.9115  -21.3758 C   0  0  1  0  0  0  0  0  0  0  0  0
  -24.6794  -19.5222  -21.0172 C   0  0  0  0  0  0  0  0  0  0  0  0
  -19.3253  -18.3793  -21.5919 O   0  0  0  0  0  0  0  0  0  0  0  0
  -20.0594  -19.6176  -19.4463 O   0  0  0  0  0  0  0  0  0  0  0  0
  -22.5611  -20.7474  -19.1991 O   0  0  0  0  0  0  0  0  0  0  0  0
  -22.8906  -19.0181  -22.5351 O   0  0  0  0  0  0  0  0  0  0  0  0
  -24.7105  -18.1169  -20.9065 O   0  0  0  0  0  0  0  0  0  0  0  0
  -15.3625  -25.6642  -31.5115 H   0  0  0  0  0  0  0  0  0  0  0  0
  -15.6144  -22.3233  -28.9524 H   0  0  0  0  0  0  0  0  0  0  0  0
  -17.3117  -23.5704  -27.6383 H   0  0  0  0  0  0  0  0  0  0  0  0
  -18.1418  -26.9924  -28.5565 H   0  0  0  0  0  0  0  0  0  0  0  0
  -17.3623  -25.2267  -26.0915 H   0  0  0  0  0  0  0  0  0  0  0  0
  -17.0232  -27.5517  -25.3991 H   0  0  0  0  0  0  0  0  0  0  0  0
  -18.8681  -25.8380  -24.8640 H   0  0  0  0  0  0  0  0  0  0  0  0
  -21.0362  -25.5751  -26.9440 H   0  0  0  0  0  0  0  0  0  0  0  0
  -19.9054  -27.6677  -24.8926 H   0  0  0  0  0  0  0  0  0  0  0  0
  -20.9775  -23.2515  -26.7950 H   0  0  0  0  0  0  0  0  0  0  0  0
  -20.4345  -23.8342  -25.2049 H   0  0  0  0  0  0  0  0  0  0  0  0
  -21.1232  -18.2453  -23.5320 H   0  0  0  0  0  0  0  0  0  0  0  0
  -21.2208  -17.6676  -21.1720 H   0  0  0  0  0  0  0  0  0  0  0  0
  -20.7825  -20.6596  -21.1049 H   0  0  0  0  0  0  0  0  0  0  0  0
  -22.6506  -18.7348  -19.7024 H   0  0  0  0  0  0  0  0  0  0  0  0
  -23.3239  -20.9709  -21.6710 H   0  0  0  0  0  0  0  0  0  0  0  0
  -25.3857  -19.8507  -21.7939 H   0  0  0  0  0  0  0  0  0  0  0  0
  -24.9679  -19.9860  -20.0624 H   0  0  0  0  0  0  0  0  0  0  0  0
  -18.9431  -18.3162  -20.6809 H   0  0  0  0  0  0  0  0  0  0  0  0
  -20.5731  -19.6671  -18.6014 H   0  0  0  0  0  0  0  0  0  0  0  0
  -22.5011  -20.3700  -18.2858 H   0  0  0  0  0  0  0  0  0  0  0  0
  -24.7162  -17.8613  -19.9501 H   0  0  0  0  0  0  0  0  0  0  0  0
  1  2  1  0
  1  6  1  0
  9  1  1  0
  2  3  1  0
  2  7  2  0
  3  4  1  0
  4  5  1  0
  4  8  2  0
  5  6  2  0
  9 10  1  0
  9 14  1  0
 10 11  1  0
 10 12  1  0
 12 13  1  0
 12 15  1  0
 13 14  1  0
 13 16  1  0
 16 17  1  0
 17 18  1  0
 18 19  2  0
 18 20  1  1
 18 21  1  0
 21 22  1  0
 22 23  2  0
 22 24  1  1
 22 25  1  0
 26 25  1  0
 26 27  1  0
 26 35  1  0
 27 28  1  0
 27 32  1  0
 28 29  1  0
 28 33  1  0
 29 30  1  0
 29 34  1  0
 30 31  1  0
 30 35  1  0
 31 36  1  0
  3 37  1  0
  5 38  1  0
  6 39  1  0
  9 40  1  6
 10 41  1  1
 11 42  1  0
 12 43  1  1
 13 44  1  6
 15 45  1  0
 16 46  1  0
 16 47  1  0
 26 48  1  6
 27 49  1  1
 28 50  1  6
 29 51  1  1
 30 52  1  6
 31 53  1  0
 31 54  1  0
 32 55  1  0
 33 56  1  0
 34 57  1  0
 36 58  1  0
M  CHG  2  20  -1  24  -1
M  END
>  <filename_input>  (20) 
7XPO_UPG_docked.sdf

>  <pdb_id>  (20) 
7XPO_UPG

>  <pose_rank>  (20) 
19

>  <num_atoms_heavy>  (20) 
36

>  <num_torsions>  (20) 
9

>  <pose>  (20) 
[-18.83649761079193, -21.548086154268038, -26.354948414784516, -0.6816017505635921, 1.3296620172144513, -6.116504091680647, -0.42613125332929075, -6.350902070505735, -12.203189766096909, 0.04513840318442124, 7.11624049439938, -5.567107188235489, -22.022146206277938, -10.876341693160258, 0.9192560300690454]

>  <energy>  (20) 
-788.9414558756089

>  <inter_energy>  (20) 
-873.463145833531

>  <intra_energy>  (20) 
87.35418491552777

>  <rmsd>  (20) 
1.51125

>  <sdf_rank>  (20) 
0

$$$$

     RDKit          3D

 58 60  0  0  0  0  0  0  0  0999 V2000
  -22.0723  -20.8148  -19.9184 N   0  0  0  0  0  0  0  0  0  0  0  0
  -22.9156  -21.6468  -19.2500 C   0  0  0  0  0  0  0  0  0  0  0  0
  -24.2262  -21.6857  -19.5757 N   0  0  0  0  0  0  0  0  0  0  0  0
  -24.7165  -20.9139  -20.5447 C   0  0  0  0  0  0  0  0  0  0  0  0
  -23.9008  -20.0792  -21.2920 C   0  0  0  0  0  0  0  0  0  0  0  0
  -22.5842  -20.0326  -20.9112 C   0  0  0  0  0  0  0  0  0  0  0  0
  -22.5062  -22.3671  -18.3462 O   0  0  0  0  0  0  0  0  0  0  0  0
  -25.9999  -21.0672  -20.8181 O   0  0  0  0  0  0  0  0  0  0  0  0
  -20.7540  -20.7040  -19.5360 C   0  0  1  0  0  0  0  0  0  0  0  0
  -19.6730  -21.1494  -20.5908 C   0  0  2  0  0  0  0  0  0  0  0  0
  -19.4624  -22.5873  -20.2679 O   0  0  0  0  0  0  0  0  0  0  0  0
  -18.5889  -20.4434  -20.4169 C   0  0  1  0  0  0  0  0  0  0  0  0
  -19.1678  -18.9939  -19.9353 C   0  0  2  0  0  0  0  0  0  0  0  0
  -20.3766  -19.2683  -19.4647 O   0  0  0  0  0  0  0  0  0  0  0  0
  -17.6615  -20.8369  -19.3379 O   0  0  0  0  0  0  0  0  0  0  0  0
  -19.1837  -17.9882  -21.0974 C   0  0  0  0  0  0  0  0  0  0  0  0
  -19.8805  -18.5987  -22.1620 O   0  0  0  0  0  0  0  0  0  0  0  0
  -19.3644  -18.5047  -23.6471 P   0  0  2  0  0  0  0  0  0  0  0  0
  -17.8520  -18.3999  -23.6365 O   0  0  0  0  0  0  0  0  0  0  0  0
  -20.0969  -17.3765  -24.3201 O   0  0  0  0  0  0  0  0  0  0  0  0
  -19.6289  -19.9628  -24.2689 O   0  0  0  0  0  0  0  0  0  0  0  0
  -18.6155  -21.2238  -24.4710 P   0  0  2  0  0  0  0  0  0  0  0  0
  -18.5964  -22.0312  -23.2098 O   0  0  0  0  0  0  0  0  0  0  0  0
  -17.5935  -20.8061  -25.4013 O   0  0  0  0  0  0  0  0  0  0  0  0
  -19.7270  -22.1457  -25.3252 O   0  0  0  0  0  0  0  0  0  0  0  0
  -20.0115  -21.8716  -26.6753 C   0  0  2  0  0  0  0  0  0  0  0  0
  -21.0712  -22.7366  -27.2497 C   0  0  1  0  0  0  0  0  0  0  0  0
  -20.7070  -24.0907  -26.9605 C   0  0  2  0  0  0  0  0  0  0  0  0
  -19.5799  -24.4827  -27.8240 C   0  0  1  0  0  0  0  0  0  0  0  0
  -18.3346  -23.5876  -27.5358 C   0  0  1  0  0  0  0  0  0  0  0  0
  -17.3995  -23.7028  -28.6164 C   0  0  0  0  0  0  0  0  0  0  0  0
  -22.4229  -22.5036  -26.7109 O   0  0  0  0  0  0  0  0  0  0  0  0
  -21.8686  -24.9911  -27.1370 O   0  0  0  0  0  0  0  0  0  0  0  0
  -19.2879  -25.8557  -27.5709 O   0  0  0  0  0  0  0  0  0  0  0  0
  -18.7729  -22.1212  -27.4458 O   0  0  0  0  0  0  0  0  0  0  0  0
  -16.6795  -22.4937  -28.7038 O   0  0  0  0  0  0  0  0  0  0  0  0
  -24.8563  -22.3220  -19.0668 H   0  0  0  0  0  0  0  0  0  0  0  0
  -24.2855  -19.4907  -22.1379 H   0  0  0  0  0  0  0  0  0  0  0  0
  -21.9114  -19.3335  -21.4294 H   0  0  0  0  0  0  0  0  0  0  0  0
  -20.7370  -21.3163  -18.6224 H   0  0  0  0  0  0  0  0  0  0  0  0
  -19.9668  -21.0029  -21.6407 H   0  0  0  0  0  0  0  0  0  0  0  0
  -19.4450  -22.7057  -19.2852 H   0  0  0  0  0  0  0  0  0  0  0  0
  -18.0084  -20.5268  -21.3476 H   0  0  0  0  0  0  0  0  0  0  0  0
  -18.5434  -18.5100  -19.1698 H   0  0  0  0  0  0  0  0  0  0  0  0
  -18.0822  -20.6584  -18.4597 H   0  0  0  0  0  0  0  0  0  0  0  0
  -19.6965  -17.0646  -20.7907 H   0  0  0  0  0  0  0  0  0  0  0  0
  -18.1603  -17.7216  -21.3999 H   0  0  0  0  0  0  0  0  0  0  0  0
  -20.3682  -20.8326  -26.7323 H   0  0  0  0  0  0  0  0  0  0  0  0
  -21.1289  -22.5064  -28.3238 H   0  0  0  0  0  0  0  0  0  0  0  0
  -20.3900  -24.1733  -25.9103 H   0  0  0  0  0  0  0  0  0  0  0  0
  -19.8451  -24.3455  -28.8827 H   0  0  0  0  0  0  0  0  0  0  0  0
  -17.8715  -23.9120  -26.5922 H   0  0  0  0  0  0  0  0  0  0  0  0
  -16.7074  -24.5357  -28.4232 H   0  0  0  0  0  0  0  0  0  0  0  0
  -17.9298  -23.8995  -29.5598 H   0  0  0  0  0  0  0  0  0  0  0  0
  -22.3893  -22.5094  -25.7215 H   0  0  0  0  0  0  0  0  0  0  0  0
  -22.2155  -25.2601  -26.2496 H   0  0  0  0  0  0  0  0  0  0  0  0
  -19.2548  -26.0114  -26.5938 H   0  0  0  0  0  0  0  0  0  0  0  0
  -16.4814  -22.1610  -27.7927 H   0  0  0  0  0  0  0  0  0  0  0  0
  1  2  1  0
  1  6  1  0
  9  1  1  0
  2  3  1  0
  2  7  2  0
  3  4  1  0
  4  5  1  0
  4  8  2  0
  5  6  2  0
  9 10  1  0
  9 14  1  0
 10 11  1  0
 10 12  1  0
 12 13  1  0
 12 15  1  0
 13 14  1  0
 13 16  1  0
 16 17  1  0
 17 18  1  0
 18 19  2  0
 18 20  1  6
 18 21  1  0
 21 22  1  0
 22 23  2  0
 22 24  1  6
 22 25  1  0
 26 25  1  0
 26 27  1  0
 26 35  1  0
 27 28  1  0
 27 32  1  0
 28 29  1  0
 28 33  1  0
 29 30  1  0
 29 34  1  0
 30 31  1  0
 30 35  1  0
 31 36  1  0
  3 37  1  0
  5 38  1  0
  6 39  1  0
  9 40  1  1
 10 41  1  6
 11 42  1  0
 12 43  1  6
 13 44  1  1
 15 45  1  0
 16 46  1  0
 16 47  1  0
 26 48  1  1
 27 49  1  6
 28 50  1  1
 29 51  1  6
 30 52  1  1
 31 53  1  0
 31 54  1  0
 32 55  1  0
 33 56  1  0
 34 57  1  0
 36 58  1  0
M  CHG  2  20  -1  24  -1
M  END
>  <filename_input>  (21) 
7XPO_UPG_docked.sdf

>  <pdb_id>  (21) 
7XPO_UPG

>  <pose_rank>  (21) 
20

>  <num_atoms_heavy>  (21) 
36

>  <num_torsions>  (21) 
9

>  <pose>  (21) 
[-19.364449613277923, -18.504725080608406, -23.6470809202891, 1.6426426190796908, 2.526136543810417, -1.899038502118218, 26.476685856846107, -11.583313859199752, -25.114148181382514, -0.16612248580755198, 3.493085878511286, -17.87383156232532, -12.174507609453128, -25.462153360448458, 2.3090628107142646]

>  <energy>  (21) 
-534.8868950859137

>  <inter_energy>  (21) 
-578.6487238132945

>  <intra_energy>  (21) 
53.685797868902014

>  <rmsd>  (21) 
9.2465

>  <sdf_rank>  (21) 
0

$$$$

     RDKit          3D

 58 60  0  0  0  0  0  0  0  0999 V2000
  -10.2640  -25.2414  -28.3366 N   0  0  0  0  0  0  0  0  0  0  0  0
  -11.3127  -26.0250  -28.7061 C   0  0  0  0  0  0  0  0  0  0  0  0
  -11.3775  -27.3085  -28.2897 N   0  0  0  0  0  0  0  0  0  0  0  0
  -10.4228  -27.8304  -27.5207 C   0  0  0  0  0  0  0  0  0  0  0  0
   -9.3533  -27.0709  -27.0739 C   0  0  0  0  0  0  0  0  0  0  0  0
   -9.2950  -25.7846  -27.5459 C   0  0  0  0  0  0  0  0  0  0  0  0
  -12.2077  -25.5858  -29.4199 O   0  0  0  0  0  0  0  0  0  0  0  0
  -10.6090  -29.0777  -27.1271 O   0  0  0  0  0  0  0  0  0  0  0  0
  -10.1445  -23.9601  -28.8268 C   0  0  1  0  0  0  0  0  0  0  0  0
  -10.5689  -23.7350  -30.3264 C   0  0  2  0  0  0  0  0  0  0  0  0
   -9.2972  -23.9494  -31.0701 O   0  0  0  0  0  0  0  0  0  0  0  0
  -11.0197  -22.5180  -30.4657 C   0  0  1  0  0  0  0  0  0  0  0  0
  -11.7441  -22.2282  -29.0307 C   0  0  2  0  0  0  0  0  0  0  0  0
  -11.1744  -23.0906  -28.2004 O   0  0  0  0  0  0  0  0  0  0  0  0
  -10.0428  -21.4199  -30.6039 O   0  0  0  0  0  0  0  0  0  0  0  0
  -13.2679  -22.4012  -29.1327 C   0  0  0  0  0  0  0  0  0  0  0  0
  -13.5454  -22.8529  -30.4404 O   0  0  0  0  0  0  0  0  0  0  0  0
  -14.9790  -23.3590  -30.8516 P   0  0  2  0  0  0  0  0  0  0  0  0
  -14.8658  -24.7708  -31.3925 O   0  0  0  0  0  0  0  0  0  0  0  0
  -15.5772  -22.3431  -31.7858 O   0  0  0  0  0  0  0  0  0  0  0  0
  -15.7608  -23.5580  -29.4617 O   0  0  0  0  0  0  0  0  0  0  0  0
  -16.5594  -24.8530  -28.8759 P   0  0  2  0  0  0  0  0  0  0  0  0
  -15.9700  -25.2206  -27.5491 O   0  0  0  0  0  0  0  0  0  0  0  0
  -17.0175  -25.6214  -30.0092 O   0  0  0  0  0  0  0  0  0  0  0  0
  -17.8627  -23.9570  -28.3157 O   0  0  0  0  0  0  0  0  0  0  0  0
  -19.1552  -24.5098  -28.2663 C   0  0  2  0  0  0  0  0  0  0  0  0
  -20.0917  -23.7614  -27.3924 C   0  0  1  0  0  0  0  0  0  0  0  0
  -19.4429  -23.6004  -26.1264 C   0  0  2  0  0  0  0  0  0  0  0  0
  -19.4337  -24.8932  -25.4204 C   0  0  1  0  0  0  0  0  0  0  0  0
  -18.6262  -25.9529  -26.2329 C   0  0  1  0  0  0  0  0  0  0  0  0
  -18.9442  -27.2674  -25.7573 C   0  0  0  0  0  0  0  0  0  0  0  0
  -20.4667  -22.4241  -27.8852 O   0  0  0  0  0  0  0  0  0  0  0  0
  -20.1117  -22.5478  -25.3288 O   0  0  0  0  0  0  0  0  0  0  0  0
  -18.8524  -24.6884  -24.1341 O   0  0  0  0  0  0  0  0  0  0  0  0
  -19.0291  -25.8754  -27.7101 O   0  0  0  0  0  0  0  0  0  0  0  0
  -17.7917  -28.0698  -25.8835 O   0  0  0  0  0  0  0  0  0  0  0  0
  -12.1776  -27.8929  -28.5712 H   0  0  0  0  0  0  0  0  0  0  0  0
   -8.5980  -27.4747  -26.3836 H   0  0  0  0  0  0  0  0  0  0  0  0
   -8.4285  -25.1638  -27.2746 H   0  0  0  0  0  0  0  0  0  0  0  0
   -9.0786  -23.7543  -28.6491 H   0  0  0  0  0  0  0  0  0  0  0  0
  -11.3700  -24.3994  -30.6825 H   0  0  0  0  0  0  0  0  0  0  0  0
   -8.5555  -24.0745  -30.4265 H   0  0  0  0  0  0  0  0  0  0  0  0
  -11.6075  -22.5065  -31.3955 H   0  0  0  0  0  0  0  0  0  0  0  0
  -11.6141  -21.1936  -28.6802 H   0  0  0  0  0  0  0  0  0  0  0  0
   -9.7664  -21.1092  -29.7055 H   0  0  0  0  0  0  0  0  0  0  0  0
  -13.6142  -23.1412  -28.3960 H   0  0  0  0  0  0  0  0  0  0  0  0
  -13.7853  -21.4525  -28.9271 H   0  0  0  0  0  0  0  0  0  0  0  0
  -19.5644  -24.4821  -29.2870 H   0  0  0  0  0  0  0  0  0  0  0  0
  -21.0255  -24.3412  -27.3483 H   0  0  0  0  0  0  0  0  0  0  0  0
  -18.4028  -23.2774  -26.2811 H   0  0  0  0  0  0  0  0  0  0  0  0
  -20.4595  -25.2750  -25.3110 H   0  0  0  0  0  0  0  0  0  0  0  0
  -17.5513  -25.7519  -26.1136 H   0  0  0  0  0  0  0  0  0  0  0  0
  -19.2504  -27.2181  -24.7019 H   0  0  0  0  0  0  0  0  0  0  0  0
  -19.7718  -27.6945  -26.3427 H   0  0  0  0  0  0  0  0  0  0  0  0
  -20.6349  -21.8241  -27.1159 H   0  0  0  0  0  0  0  0  0  0  0  0
  -19.9911  -22.7376  -24.3647 H   0  0  0  0  0  0  0  0  0  0  0  0
  -19.5119  -24.9207  -23.4332 H   0  0  0  0  0  0  0  0  0  0  0  0
  -17.4534  -28.3053  -24.9834 H   0  0  0  0  0  0  0  0  0  0  0  0
  1  2  1  0
  1  6  1  0
  9  1  1  0
  2  3  1  0
  2  7  2  0
  3  4  1  0
  4  5  1  0
  4  8  2  0
  5  6  2  0
  9 10  1  0
  9 14  1  0
 10 11  1  0
 10 12  1  0
 12 13  1  0
 12 15  1  0
 13 14  1  0
 13 16  1  0
 16 17  1  0
 17 18  1  0
 18 19  2  0
 18 20  1  6
 18 21  1  0
 21 22  1  0
 22 23  2  0
 22 24  1  6
 22 25  1  0
 26 25  1  0
 26 27  1  0
 26 35  1  0
 27 28  1  0
 27 32  1  0
 28 29  1  0
 28 33  1  0
 29 30  1  0
 29 34  1  0
 30 31  1  0
 30 35  1  0
 31 36  1  0
  3 37  1  0
  5 38  1  0
  6 39  1  0
  9 40  1  6
 10 41  1  6
 11 42  1  0
 12 43  1  6
 13 44  1  1
 15 45  1  0
 16 46  1  0
 16 47  1  0
 26 48  1  6
 27 49  1  1
 28 50  1  6
 29 51  1  1
 30 52  1  6
 31 53  1  0
 31 54  1  0
 32 55  1  0
 33 56  1  0
 34 57  1  0
 36 58  1  0
M  CHG  2  20  -1  24  -1
M  END
>  <filename_input>  (22) 
7XPO_UPG_docked.sdf

>  <pdb_id>  (22) 
7XPO_UPG

>  <pose_rank>  (22) 
21

>  <num_atoms_heavy>  (22) 
36

>  <num_torsions>  (22) 
9

>  <pose>  (22) 
[-14.97901616569414, -23.359039115867983, -30.851620749693183, -0.9114503771134056, 0.22705678051289802, 1.7689203891159369, -1.334791451411698, 0.06126082094909782, -0.8365264369715848, -2.8701682815665657, 2.998433870640857, 1.623230888129946, 1.6614371098755045, -0.6871588984390598, -2.895093789664653]

>  <energy>  (22) 
-531.1621365174396

>  <inter_energy>  (22) 
-613.553125527983

>  <intra_energy>  (22) 
81.44087088935099

>  <rmsd>  (22) 
8.03588

>  <sdf_rank>  (22) 
0

$$$$

     RDKit          3D

 58 60  0  0  0  0  0  0  0  0999 V2000
  -18.3030  -24.1462  -28.5935 N   0  0  0  0  0  0  0  0  0  0  0  0
  -17.9472  -25.2971  -29.2252 C   0  0  0  0  0  0  0  0  0  0  0  0
  -16.8696  -25.3160  -30.0399 N   0  0  0  0  0  0  0  0  0  0  0  0
  -16.1433  -24.2179  -30.2441 C   0  0  0  0  0  0  0  0  0  0  0  0
  -16.4278  -23.0272  -29.5947 C   0  0  0  0  0  0  0  0  0  0  0  0
  -17.5499  -23.0296  -28.8064 C   0  0  0  0  0  0  0  0  0  0  0  0
  -18.5938  -26.3274  -29.0710 O   0  0  0  0  0  0  0  0  0  0  0  0
  -15.0811  -24.3577  -31.0171 O   0  0  0  0  0  0  0  0  0  0  0  0
  -19.4487  -24.0949  -27.8312 C   0  0  1  0  0  0  0  0  0  0  0  0
  -19.2556  -24.0147  -26.2705 C   0  0  2  0  0  0  0  0  0  0  0  0
  -19.2570  -25.4453  -25.8589 O   0  0  0  0  0  0  0  0  0  0  0  0
  -20.2527  -23.3530  -25.7492 C   0  0  1  0  0  0  0  0  0  0  0  0
  -20.6053  -22.2511  -26.9023 C   0  0  2  0  0  0  0  0  0  0  0  0
  -20.1081  -22.7755  -28.0139 O   0  0  0  0  0  0  0  0  0  0  0  0
  -21.5276  -24.0642  -25.5294 O   0  0  0  0  0  0  0  0  0  0  0  0
  -20.0068  -20.8776  -26.5596 C   0  0  0  0  0  0  0  0  0  0  0  0
  -20.9787  -20.1787  -25.8125 O   0  0  0  0  0  0  0  0  0  0  0  0
  -21.3585  -18.6867  -26.1442 P   0  0  2  0  0  0  0  0  0  0  0  0
  -20.3436  -17.7652  -25.4968 O   0  0  0  0  0  0  0  0  0  0  0  0
  -22.7916  -18.4740  -25.7398 O   0  0  0  0  0  0  0  0  0  0  0  0
  -21.0566  -18.5232  -27.7142 O   0  0  0  0  0  0  0  0  0  0  0  0
  -22.0712  -18.5298  -28.9904 P   0  0  2  0  0  0  0  0  0  0  0  0
  -23.4750  -18.6664  -28.4869 O   0  0  0  0  0  0  0  0  0  0  0  0
  -21.3529  -19.1019  -30.1045 O   0  0  0  0  0  0  0  0  0  0  0  0
  -22.0490  -16.8629  -29.1801 O   0  0  0  0  0  0  0  0  0  0  0  0
  -21.2341  -16.2543  -30.1517 C   0  0  2  0  0  0  0  0  0  0  0  0
  -21.0230  -14.8027  -29.9298 C   0  0  1  0  0  0  0  0  0  0  0  0
  -22.3166  -14.2145  -29.7560 C   0  0  2  0  0  0  0  0  0  0  0  0
  -23.0027  -14.1630  -31.0584 C   0  0  1  0  0  0  0  0  0  0  0  0
  -23.2113  -15.6029  -31.6227 C   0  0  1  0  0  0  0  0  0  0  0  0
  -23.5094  -15.5317  -33.0231 C   0  0  0  0  0  0  0  0  0  0  0  0
  -20.2078  -14.4671  -28.7488 O   0  0  0  0  0  0  0  0  0  0  0  0
  -22.1997  -12.8702  -29.1473 O   0  0  0  0  0  0  0  0  0  0  0  0
  -24.2542  -13.5046  -30.8713 O   0  0  0  0  0  0  0  0  0  0  0  0
  -21.9161  -16.4062  -31.4564 O   0  0  0  0  0  0  0  0  0  0  0  0
  -22.5628  -14.6810  -33.6300 O   0  0  0  0  0  0  0  0  0  0  0  0
  -16.6055  -26.1933  -30.5106 H   0  0  0  0  0  0  0  0  0  0  0  0
  -15.7930  -22.1356  -29.7048 H   0  0  0  0  0  0  0  0  0  0  0  0
  -17.8560  -22.0893  -28.3245 H   0  0  0  0  0  0  0  0  0  0  0  0
  -19.9678  -25.0106  -28.1509 H   0  0  0  0  0  0  0  0  0  0  0  0
  -18.3421  -23.4948  -25.9461 H   0  0  0  0  0  0  0  0  0  0  0  0
  -19.2570  -25.5043  -24.8706 H   0  0  0  0  0  0  0  0  0  0  0  0
  -19.9238  -23.0256  -24.7519 H   0  0  0  0  0  0  0  0  0  0  0  0
  -21.6834  -22.0571  -27.0018 H   0  0  0  0  0  0  0  0  0  0  0  0
  -21.6912  -24.1555  -24.5573 H   0  0  0  0  0  0  0  0  0  0  0  0
  -19.0905  -21.0028  -25.9640 H   0  0  0  0  0  0  0  0  0  0  0  0
  -19.7425  -20.3255  -27.4736 H   0  0  0  0  0  0  0  0  0  0  0  0
  -20.2485  -16.7407  -30.1065 H   0  0  0  0  0  0  0  0  0  0  0  0
  -20.4686  -14.4203  -30.7995 H   0  0  0  0  0  0  0  0  0  0  0  0
  -22.9147  -14.8303  -29.0682 H   0  0  0  0  0  0  0  0  0  0  0  0
  -22.3940  -13.6091  -31.7883 H   0  0  0  0  0  0  0  0  0  0  0  0
  -24.0378  -16.0839  -31.0790 H   0  0  0  0  0  0  0  0  0  0  0  0
  -23.4482  -16.5355  -33.4688 H   0  0  0  0  0  0  0  0  0  0  0  0
  -24.5262  -15.1414  -33.1768 H   0  0  0  0  0  0  0  0  0  0  0  0
  -20.7170  -14.6767  -27.9260 H   0  0  0  0  0  0  0  0  0  0  0  0
  -22.2069  -12.9529  -28.1607 H   0  0  0  0  0  0  0  0  0  0  0  0
  -24.4353  -13.4094  -29.9026 H   0  0  0  0  0  0  0  0  0  0  0  0
  -22.0425  -14.2133  -32.9295 H   0  0  0  0  0  0  0  0  0  0  0  0
  1  2  1  0
  1  6  1  0
  9  1  1  0
  2  3  1  0
  2  7  2  0
  3  4  1  0
  4  5  1  0
  4  8  2  0
  5  6  2  0
  9 10  1  0
  9 14  1  0
 10 11  1  0
 10 12  1  0
 12 13  1  0
 12 15  1  0
 13 14  1  0
 13 16  1  0
 16 17  1  0
 17 18  1  0
 18 19  2  0
 18 20  1  6
 18 21  1  0
 21 22  1  0
 22 23  2  0
 22 24  1  6
 22 25  1  0
 26 25  1  0
 26 27  1  0
 26 35  1  0
 27 28  1  0
 27 32  1  0
 28 29  1  0
 28 33  1  0
 29 30  1  0
 29 34  1  0
 30 31  1  0
 30 35  1  0
 31 36  1  0
  3 37  1  0
  5 38  1  0
  6 39  1  0
  9 40  1  1
 10 41  1  6
 11 42  1  0
 12 43  1  1
 13 44  1  6
 15 45  1  0
 16 46  1  0
 16 47  1  0
 26 48  1  6
 27 49  1  6
 28 50  1  1
 29 51  1  6
 30 52  1  1
 31 53  1  0
 31 54  1  0
 32 55  1  0
 33 56  1  0
 34 57  1  0
 36 58  1  0
M  CHG  2  20  -1  24  -1
M  END
>  <filename_input>  (23) 
7XPO_UPG_docked.sdf

>  <pdb_id>  (23) 
7XPO_UPG

>  <pose_rank>  (23) 
22

>  <num_atoms_heavy>  (23) 
36

>  <num_torsions>  (23) 
9

>  <pose>  (23) 
[-21.358538845384203, -18.686671246085716, -26.14424740586226, -0.22261977921896753, 3.5670308823096084, -0.3896167472167425, -0.6217515378249491, 1.0572654939434423, -2.4803489775987932, -0.32187428010192637, 0.69683615049107, -0.48864444305194404, 0.787862034616426, -6.3693992419978605, -5.766872889873517]

>  <energy>  (23) 
-525.6999541640367

>  <inter_energy>  (23) 
-546.0056161064266

>  <intra_energy>  (23) 
13.26477475068086

>  <rmsd>  (23) 
6.26947

>  <sdf_rank>  (23) 
0

$$$$

     RDKit          3D

 58 60  0  0  0  0  0  0  0  0999 V2000
  -19.6635  -25.3441  -26.4308 N   0  0  0  0  0  0  0  0  0  0  0  0
  -18.5132  -25.4965  -25.7212 C   0  0  0  0  0  0  0  0  0  0  0  0
  -18.4000  -26.5002  -24.8240 N   0  0  0  0  0  0  0  0  0  0  0  0
  -19.4042  -27.3500  -24.6134 C   0  0  0  0  0  0  0  0  0  0  0  0
  -20.5838  -27.2747  -25.3367 C   0  0  0  0  0  0  0  0  0  0  0  0
  -20.6831  -26.2222  -26.2103 C   0  0  0  0  0  0  0  0  0  0  0  0
  -17.5684  -24.7309  -25.8789 O   0  0  0  0  0  0  0  0  0  0  0  0
  -19.1711  -28.3253  -23.7533 O   0  0  0  0  0  0  0  0  0  0  0  0
  -19.8205  -24.2736  -27.2827 C   0  0  1  0  0  0  0  0  0  0  0  0
  -19.4111  -22.8597  -26.7232 C   0  0  2  0  0  0  0  0  0  0  0  0
  -20.6808  -22.3518  -26.1349 O   0  0  0  0  0  0  0  0  0  0  0  0
  -18.9941  -22.1133  -27.7095 C   0  0  1  0  0  0  0  0  0  0  0  0
  -18.2695  -23.1886  -28.7029 C   0  0  2  0  0  0  0  0  0  0  0  0
  -18.8109  -24.3523  -28.3705 O   0  0  0  0  0  0  0  0  0  0  0  0
  -20.0011  -21.4551  -28.5651 O   0  0  0  0  0  0  0  0  0  0  0  0
  -16.7422  -23.1601  -28.5330 C   0  0  0  0  0  0  0  0  0  0  0  0
  -16.3009  -24.5004  -28.5419 O   0  0  0  0  0  0  0  0  0  0  0  0
  -15.6798  -25.1559  -29.8323 P   0  0  2  0  0  0  0  0  0  0  0  0
  -15.8165  -24.1872  -30.9905 O   0  0  0  0  0  0  0  0  0  0  0  0
  -16.3232  -26.5022  -30.0218 O   0  0  0  0  0  0  0  0  0  0  0  0
  -14.0963  -25.1839  -29.5596 O   0  0  0  0  0  0  0  0  0  0  0  0
  -13.2581  -25.6972  -28.2589 P   0  0  2  0  0  0  0  0  0  0  0  0
  -12.1343  -26.5701  -28.7259 O   0  0  0  0  0  0  0  0  0  0  0  0
  -14.1859  -25.7739  -27.1554 O   0  0  0  0  0  0  0  0  0  0  0  0
  -12.3941  -24.2687  -28.0914 O   0  0  0  0  0  0  0  0  0  0  0  0
  -11.1038  -24.1336  -28.6350 C   0  0  2  0  0  0  0  0  0  0  0  0
  -10.5246  -22.7780  -28.4681 C   0  0  1  0  0  0  0  0  0  0  0  0
  -11.4971  -21.8459  -28.9531 C   0  0  2  0  0  0  0  0  0  0  0  0
  -11.5381  -21.9122  -30.4240 C   0  0  1  0  0  0  0  0  0  0  0  0
  -11.9731  -23.3352  -30.8942 C   0  0  1  0  0  0  0  0  0  0  0  0
  -11.6379  -23.5076  -32.2774 C   0  0  0  0  0  0  0  0  0  0  0  0
  -10.1943  -22.4104  -27.0797 O   0  0  0  0  0  0  0  0  0  0  0  0
  -11.1901  -20.4783  -28.4768 O   0  0  0  0  0  0  0  0  0  0  0  0
  -12.4564  -20.9225  -30.8841 O   0  0  0  0  0  0  0  0  0  0  0  0
  -11.2090  -24.3922  -30.0884 O   0  0  0  0  0  0  0  0  0  0  0  0
  -10.2527  -23.7556  -32.3650 O   0  0  0  0  0  0  0  0  0  0  0  0
  -17.5234  -26.6101  -24.2944 H   0  0  0  0  0  0  0  0  0  0  0  0
  -21.3903  -28.0132  -25.2177 H   0  0  0  0  0  0  0  0  0  0  0  0
  -21.6269  -26.0801  -26.7571 H   0  0  0  0  0  0  0  0  0  0  0  0
  -20.8905  -24.3421  -27.5285 H   0  0  0  0  0  0  0  0  0  0  0  0
  -18.5944  -22.8753  -25.9865 H   0  0  0  0  0  0  0  0  0  0  0  0
  -20.6198  -22.3762  -25.1471 H   0  0  0  0  0  0  0  0  0  0  0  0
  -18.4123  -21.2957  -27.2590 H   0  0  0  0  0  0  0  0  0  0  0  0
  -18.4253  -22.9676  -29.7691 H   0  0  0  0  0  0  0  0  0  0  0  0
  -20.6790  -21.0120  -27.9956 H   0  0  0  0  0  0  0  0  0  0  0  0
  -16.2802  -22.6048  -29.3626 H   0  0  0  0  0  0  0  0  0  0  0  0
  -16.4609  -22.6604  -27.5943 H   0  0  0  0  0  0  0  0  0  0  0  0
  -10.4475  -24.8393  -28.1048 H   0  0  0  0  0  0  0  0  0  0  0  0
   -9.5733  -22.7631  -29.0203 H   0  0  0  0  0  0  0  0  0  0  0  0
  -12.4908  -22.1095  -28.5619 H   0  0  0  0  0  0  0  0  0  0  0  0
  -10.5392  -21.7191  -30.8424 H   0  0  0  0  0  0  0  0  0  0  0  0
  -13.0576  -23.4447  -30.7463 H   0  0  0  0  0  0  0  0  0  0  0  0
  -12.1962  -24.3594  -32.6929 H   0  0  0  0  0  0  0  0  0  0  0  0
  -11.9001  -22.6047  -32.8484 H   0  0  0  0  0  0  0  0  0  0  0  0
  -10.7081  -22.9822  -26.4559 H   0  0  0  0  0  0  0  0  0  0  0  0
  -11.1874  -20.4665  -27.4869 H   0  0  0  0  0  0  0  0  0  0  0  0
  -12.8736  -20.4728  -30.1070 H   0  0  0  0  0  0  0  0  0  0  0  0
   -9.8714  -23.8239  -31.4539 H   0  0  0  0  0  0  0  0  0  0  0  0
  1  2  1  0
  1  6  1  0
  9  1  1  0
  2  3  1  0
  2  7  2  0
  3  4  1  0
  4  5  1  0
  4  8  2  0
  5  6  2  0
  9 10  1  0
  9 14  1  0
 10 11  1  0
 10 12  1  0
 12 13  1  0
 12 15  1  0
 13 14  1  0
 13 16  1  0
 16 17  1  0
 17 18  1  0
 18 19  2  0
 18 20  1  6
 18 21  1  0
 21 22  1  0
 22 23  2  0
 22 24  1  1
 22 25  1  0
 26 25  1  0
 26 27  1  0
 26 35  1  0
 27 28  1  0
 27 32  1  0
 28 29  1  0
 28 33  1  0
 29 30  1  0
 29 34  1  0
 30 31  1  0
 30 35  1  0
 31 36  1  0
  3 37  1  0
  5 38  1  0
  6 39  1  0
  9 40  1  6
 10 41  1  1
 11 42  1  0
 12 43  1  1
 13 44  1  6
 15 45  1  0
 16 46  1  0
 16 47  1  0
 26 48  1  1
 27 49  1  6
 28 50  1  1
 29 51  1  6
 30 52  1  6
 31 53  1  0
 31 54  1  0
 32 55  1  0
 33 56  1  0
 34 57  1  0
 36 58  1  0
M  CHG  2  20  -1  24  -1
M  END
>  <filename_input>  (24) 
7XPO_UPG_docked.sdf

>  <pdb_id>  (24) 
7XPO_UPG

>  <pose_rank>  (24) 
23

>  <num_atoms_heavy>  (24) 
36

>  <num_torsions>  (24) 
9

>  <pose>  (24) 
[-15.679760338211068, -25.15589375689739, -29.83227998595144, 0.9068025156096682, -1.8537822300705136, 3.299989648982212, 0.7021910897731991, -1.1656440421449288, 1.5018415857238656, 3.258549296236215, -6.50516831653575, -4.498903206329725, 3.6560270253173663, -0.4503614913402556, -5.264135525285577]

>  <energy>  (24) 
-465.01619940764886

>  <inter_energy>  (24) 
-545.1059525517803

>  <intra_energy>  (24) 
83.59774932238109

>  <rmsd>  (24) 
9.56976

>  <sdf_rank>  (24) 
0

$$$$

     RDKit          3D

 58 60  0  0  0  0  0  0  0  0999 V2000
  -11.2823  -22.1658  -20.1996 N   0  0  0  0  0  0  0  0  0  0  0  0
  -10.3956  -22.1333  -19.1686 C   0  0  0  0  0  0  0  0  0  0  0  0
  -10.2000  -23.2339  -18.4100 N   0  0  0  0  0  0  0  0  0  0  0  0
  -10.8684  -24.3613  -18.6496 C   0  0  0  0  0  0  0  0  0  0  0  0
  -11.7510  -24.4710  -19.7123 C   0  0  0  0  0  0  0  0  0  0  0  0
  -11.9575  -23.3261  -20.4384 C   0  0  0  0  0  0  0  0  0  0  0  0
   -9.7665  -21.1133  -18.9094 O   0  0  0  0  0  0  0  0  0  0  0  0
  -10.5645  -25.3928  -17.8821 O   0  0  0  0  0  0  0  0  0  0  0  0
  -11.5527  -21.0255  -20.9228 C   0  0  1  0  0  0  0  0  0  0  0  0
  -11.6028  -21.1779  -22.4893 C   0  0  2  0  0  0  0  0  0  0  0  0
  -10.2002  -20.8926  -22.8985 O   0  0  0  0  0  0  0  0  0  0  0  0
  -12.4433  -20.3068  -22.9775 C   0  0  1  0  0  0  0  0  0  0  0  0
  -13.5862  -20.2075  -21.8148 C   0  0  2  0  0  0  0  0  0  0  0  0
  -12.9720  -20.6337  -20.7198 O   0  0  0  0  0  0  0  0  0  0  0  0
  -11.9867  -18.9139  -23.1529 O   0  0  0  0  0  0  0  0  0  0  0  0
  -14.8238  -21.0428  -22.1796 C   0  0  0  0  0  0  0  0  0  0  0  0
  -15.9542  -20.3128  -21.7549 O   0  0  0  0  0  0  0  0  0  0  0  0
  -17.0219  -19.7751  -22.7803 P   0  0  2  0  0  0  0  0  0  0  0  0
  -16.4256  -19.8077  -24.1738 O   0  0  0  0  0  0  0  0  0  0  0  0
  -17.4901  -18.4299  -22.2969 O   0  0  0  0  0  0  0  0  0  0  0  0
  -18.1521  -20.9162  -22.8359 O   0  0  0  0  0  0  0  0  0  0  0  0
  -19.6153  -20.9185  -23.5550 P   0  0  2  0  0  0  0  0  0  0  0  0
  -20.4907  -21.9147  -22.8590 O   0  0  0  0  0  0  0  0  0  0  0  0
  -19.4110  -20.5695  -24.9410 O   0  0  0  0  0  0  0  0  0  0  0  0
  -20.1496  -19.5396  -22.7624 O   0  0  0  0  0  0  0  0  0  0  0  0
  -21.2101  -18.7722  -23.2773 C   0  0  2  0  0  0  0  0  0  0  0  0
  -21.0124  -17.3088  -23.1344 C   0  0  1  0  0  0  0  0  0  0  0  0
  -20.6854  -17.0637  -21.7623 C   0  0  2  0  0  0  0  0  0  0  0  0
  -21.8972  -17.2257  -20.9406 C   0  0  1  0  0  0  0  0  0  0  0  0
  -22.4350  -18.6870  -21.0436 C   0  0  1  0  0  0  0  0  0  0  0  0
  -23.7901  -18.7342  -20.5780 C   0  0  0  0  0  0  0  0  0  0  0  0
  -19.9360  -16.7433  -23.9671 O   0  0  0  0  0  0  0  0  0  0  0  0
  -20.0927  -15.7169  -21.6010 O   0  0  0  0  0  0  0  0  0  0  0  0
  -21.5618  -16.9017  -19.5926 O   0  0  0  0  0  0  0  0  0  0  0  0
  -22.4248  -19.1298  -22.5113 O   0  0  0  0  0  0  0  0  0  0  0  0
  -24.3262  -19.9934  -20.9167 O   0  0  0  0  0  0  0  0  0  0  0  0
   -9.5234  -23.2009  -17.6340 H   0  0  0  0  0  0  0  0  0  0  0  0
  -12.2546  -25.4176  -19.9581 H   0  0  0  0  0  0  0  0  0  0  0  0
  -12.7006  -23.3447  -21.2493 H   0  0  0  0  0  0  0  0  0  0  0  0
  -10.7500  -20.3539  -20.5844 H   0  0  0  0  0  0  0  0  0  0  0  0
  -11.9425  -22.1617  -22.8452 H   0  0  0  0  0  0  0  0  0  0  0  0
   -9.6378  -20.7782  -22.0918 H   0  0  0  0  0  0  0  0  0  0  0  0
  -12.7077  -20.6580  -23.9859 H   0  0  0  0  0  0  0  0  0  0  0  0
  -13.9799  -19.1894  -21.6791 H   0  0  0  0  0  0  0  0  0  0  0  0
  -11.8501  -18.4972  -22.2654 H   0  0  0  0  0  0  0  0  0  0  0  0
  -14.8642  -21.2030  -23.2671 H   0  0  0  0  0  0  0  0  0  0  0  0
  -14.7885  -22.0293  -21.6942 H   0  0  0  0  0  0  0  0  0  0  0  0
  -21.2829  -18.9908  -24.3529 H   0  0  0  0  0  0  0  0  0  0  0  0
  -21.9412  -16.8233  -23.4687 H   0  0  0  0  0  0  0  0  0  0  0  0
  -19.9325  -17.7912  -21.4249 H   0  0  0  0  0  0  0  0  0  0  0  0
  -22.6933  -16.5566  -21.2993 H   0  0  0  0  0  0  0  0  0  0  0  0
  -21.7979  -19.3462  -20.4357 H   0  0  0  0  0  0  0  0  0  0  0  0
  -23.8141  -18.6001  -19.4865 H   0  0  0  0  0  0  0  0  0  0  0  0
  -24.3808  -17.9311  -21.0428 H   0  0  0  0  0  0  0  0  0  0  0  0
  -19.2281  -16.3715  -23.3834 H   0  0  0  0  0  0  0  0  0  0  0  0
  -20.0015  -15.5097  -20.6372 H   0  0  0  0  0  0  0  0  0  0  0  0
  -22.1186  -17.4396  -18.9756 H   0  0  0  0  0  0  0  0  0  0  0  0
  -24.5395  -20.4945  -20.0899 H   0  0  0  0  0  0  0  0  0  0  0  0
  1  2  1  0
  1  6  1  0
  9  1  1  0
  2  3  1  0
  2  7  2  0
  3  4  1  0
  4  5  1  0
  4  8  2  0
  5  6  2  0
  9 10  1  0
  9 14  1  0
 10 11  1  0
 10 12  1  0
 12 13  1  0
 12 15  1  0
 13 14  1  0
 13 16  1  0
 16 17  1  0
 17 18  1  0
 18 19  2  0
 18 20  1  1
 18 21  1  0
 21 22  1  0
 22 23  2  0
 22 24  1  6
 22 25  1  0
 26 25  1  0
 26 27  1  0
 26 35  1  0
 27 28  1  0
 27 32  1  0
 28 29  1  0
 28 33  1  0
 29 30  1  0
 29 34  1  0
 30 31  1  0
 30 35  1  0
 31 36  1  0
  3 37  1  0
  5 38  1  0
  6 39  1  0
  9 40  1  6
 10 41  1  1
 11 42  1  0
 12 43  1  6
 13 44  1  1
 15 45  1  0
 16 46  1  0
 16 47  1  0
 26 48  1  6
 27 49  1  6
 28 50  1  1
 29 51  1  6
 30 52  1  1
 31 53  1  0
 31 54  1  0
 32 55  1  0
 33 56  1  0
 34 57  1  0
 36 58  1  0
M  CHG  2  20  -1  24  -1
M  END
>  <filename_input>  (25) 
7XPO_UPG_docked.sdf

>  <pdb_id>  (25) 
7XPO_UPG

>  <pose_rank>  (25) 
24

>  <num_atoms_heavy>  (25) 
36

>  <num_torsions>  (25) 
9

>  <pose>  (25) 
[-17.021947791701717, -19.77508889054178, -22.780316328527142, -0.3344637780949862, -1.0253633037359486, 1.2759790618482996, 0.5325618178437626, -0.8789146081459916, -3.3804034837607957, 0.15021627791792372, 1.9243454340091564, 3.0287343428090128, 1.8297204952518706, 0.3021205546242389, -3.661092889368019]

>  <energy>  (25) 
-533.4322383406704

>  <inter_energy>  (25) 
-538.790874517829

>  <intra_energy>  (25) 
8.679684703682762

>  <rmsd>  (25) 
7.73587

>  <sdf_rank>  (25) 
0

$$$$

     RDKit          3D

 58 60  0  0  0  0  0  0  0  0999 V2000
  -17.0400  -25.2930  -28.8870 N   0  0  0  0  0  0  0  0  0  0  0  0
  -16.2770  -25.9750  -29.7830 C   0  0  0  0  0  0  0  0  0  0  0  0
  -15.3810  -25.3150  -30.5490 N   0  0  0  0  0  0  0  0  0  0  0  0
  -15.2310  -23.9950  -30.4480 C   0  0  0  0  0  0  0  0  0  0  0  0
  -15.9460  -23.2510  -29.5230 C   0  0  0  0  0  0  0  0  0  0  0  0
  -16.8750  -23.9430  -28.7890 C   0  0  0  0  0  0  0  0  0  0  0  0
  -16.3900  -27.1890  -29.9130 O   0  0  0  0  0  0  0  0  0  0  0  0
  -14.2920  -23.4560  -31.2050 O   0  0  0  0  0  0  0  0  0  0  0  0
  -18.0160  -25.9430  -28.1650 C   0  0  1  0  0  0  0  0  0  0  0  0
  -17.9660  -25.7760  -26.6000 C   0  0  2  0  0  0  0  0  0  0  0  0
  -17.1270  -26.9270  -26.1670 O   0  0  0  0  0  0  0  0  0  0  0  0
  -19.1790  -25.8460  -26.1230 C   0  0  1  0  0  0  0  0  0  0  0  0
  -20.0780  -25.1640  -27.3040 C   0  0  2  0  0  0  0  0  0  0  0  0
  -19.3260  -25.2780  -28.3900 O   0  0  0  0  0  0  0  0  0  0  0  0
  -19.7830  -27.1800  -25.9360 O   0  0  0  0  0  0  0  0  0  0  0  0
  -20.4320  -23.7080  -26.9620 C   0  0  0  0  0  0  0  0  0  0  0  0
  -19.2240  -23.0550  -26.6370 O   0  0  0  0  0  0  0  0  0  0  0  0
  -19.1370  -21.4860  -26.5310 P   0  0  2  0  0  0  0  0  0  0  0  0
  -19.8160  -20.8730  -27.7400 O   0  0  0  0  0  0  0  0  0  0  0  0
  -17.6930  -21.1160  -26.3300 O   0  0  0  0  0  0  0  0  0  0  0  0
  -20.1200  -21.0990  -25.3200 O   0  0  0  0  0  0  0  0  0  0  0  0
  -20.0670  -21.5130  -23.7440 P   0  0  2  0  0  0  0  0  0  0  0  0
  -18.6360  -21.7050  -23.3460 O   0  0  0  0  0  0  0  0  0  0  0  0
  -21.2870  -22.2260  -23.4480 O   0  0  0  0  0  0  0  0  0  0  0  0
  -20.2570  -19.9400  -23.1920 O   0  0  0  0  0  0  0  0  0  0  0  0
  -21.3390  -19.1480  -23.6170 C   0  0  2  0  0  0  0  0  0  0  0  0
  -21.1030  -17.6900  -23.4770 C   0  0  1  0  0  0  0  0  0  0  0  0
  -20.6670  -17.4650  -22.1320 C   0  0  2  0  0  0  0  0  0  0  0  0
  -21.8150  -17.6130  -21.2210 C   0  0  1  0  0  0  0  0  0  0  0  0
  -22.3870  -19.0630  -21.2950 C   0  0  1  0  0  0  0  0  0  0  0  0
  -23.7030  -19.0900  -20.7270 C   0  0  0  0  0  0  0  0  0  0  0  0
  -20.0830  -17.1360  -24.3850 O   0  0  0  0  0  0  0  0  0  0  0  0
  -20.0380  -16.1310  -22.0050 O   0  0  0  0  0  0  0  0  0  0  0  0
  -21.3710  -17.3090  -19.9000 O   0  0  0  0  0  0  0  0  0  0  0  0
  -22.4980  -19.4910  -22.7630 O   0  0  0  0  0  0  0  0  0  0  0  0
  -24.1950  -17.7690  -20.6980 O   0  0  0  0  0  0  0  0  0  0  0  0
  -14.8047  -25.8406  -31.2217 H   0  0  0  0  0  0  0  0  0  0  0  0
  -15.7788  -22.1724  -29.3860 H   0  0  0  0  0  0  0  0  0  0  0  0
  -17.5153  -23.3844  -28.0904 H   0  0  0  0  0  0  0  0  0  0  0  0
  -17.8729  -26.9847  -28.4882 H   0  0  0  0  0  0  0  0  0  0  0  0
  -17.5569  -24.8158  -26.2526 H   0  0  0  0  0  0  0  0  0  0  0  0
  -17.1009  -26.9628  -25.1780 H   0  0  0  0  0  0  0  0  0  0  0  0
  -19.1475  -25.3951  -25.1202 H   0  0  0  0  0  0  0  0  0  0  0  0
  -21.0539  -25.6522  -27.4431 H   0  0  0  0  0  0  0  0  0  0  0  0
  -19.8692  -27.3705  -24.9683 H   0  0  0  0  0  0  0  0  0  0  0  0
  -20.9038  -23.2206  -27.8279 H   0  0  0  0  0  0  0  0  0  0  0  0
  -21.1407  -23.6633  -26.1219 H   0  0  0  0  0  0  0  0  0  0  0  0
  -21.4983  -19.3543  -24.6857 H   0  0  0  0  0  0  0  0  0  0  0  0
  -22.0452  -17.1842  -23.7345 H   0  0  0  0  0  0  0  0  0  0  0  0
  -19.9045  -18.2096  -21.8599 H   0  0  0  0  0  0  0  0  0  0  0  0
  -22.6233  -16.9258  -21.5115 H   0  0  0  0  0  0  0  0  0  0  0  0
  -21.7179  -19.7401  -20.7438 H   0  0  0  0  0  0  0  0  0  0  0  0
  -24.3619  -19.7198  -21.3427 H   0  0  0  0  0  0  0  0  0  0  0  0
  -23.6703  -19.5068  -19.7095 H   0  0  0  0  0  0  0  0  0  0  0  0
  -19.3492  -16.7375  -23.8532 H   0  0  0  0  0  0  0  0  0  0  0  0
  -19.9319  -15.9061  -21.0467 H   0  0  0  0  0  0  0  0  0  0  0  0
  -21.9815  -17.7270  -19.2423 H   0  0  0  0  0  0  0  0  0  0  0  0
  -24.3034  -17.4778  -19.7580 H   0  0  0  0  0  0  0  0  0  0  0  0
  1  2  1  0
  1  6  1  0
  9  1  1  0
  2  3  1  0
  2  7  2  0
  3  4  1  0
  4  5  1  0
  4  8  2  0
  5  6  2  0
  9 10  1  0
  9 14  1  0
 10 11  1  0
 10 12  1  0
 12 13  1  0
 12 15  1  0
 13 14  1  0
 13 16  1  0
 16 17  1  0
 17 18  1  0
 18 19  2  0
 18 20  1  1
 18 21  1  0
 21 22  1  0
 22 23  2  0
 22 24  1  1
 22 25  1  0
 26 25  1  0
 26 27  1  0
 26 35  1  0
 27 28  1  0
 27 32  1  0
 28 29  1  0
 28 33  1  0
 29 30  1  0
 29 34  1  0
 30 31  1  0
 30 35  1  0
 31 36  1  0
  3 37  1  0
  5 38  1  0
  6 39  1  0
  9 40  1  1
 10 41  1  6
 11 42  1  0
 12 43  1  1
 13 44  1  6
 15 45  1  0
 16 46  1  0
 16 47  1  0
 26 48  1  6
 27 49  1  1
 28 50  1  1
 29 51  1  6
 30 52  1  1
 31 53  1  0
 31 54  1  0
 32 55  1  0
 33 56  1  0
 34 57  1  0
 36 58  1  0
M  CHG  2  20  -1  24  -1
M  END
>  <filename_input>  (26) 
7XPO_UPG_docked.sdf

>  <pdb_id>  (26) 
7XPO_UPG

>  <pose_rank>  (26) 
25

>  <num_atoms_heavy>  (26) 
36

>  <num_torsions>  (26) 
9

>  <pose>  (26) 
[-19.137, -21.486, -26.531, 1e-06, 1e-06, 1e-06, 0.0, 0.0, 0.0, 0.0, 0.0, 0.0, 0.0, 0.0, 0.0]

>  <energy>  (26) 
-917.5959754777107

>  <inter_energy>  (26) 
-933.6262655140243

>  <intra_energy>  (26) 
24.434096633842977

>  <rmsd>  (26) 
0.0

>  <sdf_rank>  (26) 
0

$$$$
