
     RDKit          3D

 49 48  0  0  0  0  0  0  0  0999 V2000
  -19.7220   -0.1884  -18.5239 C   0  0  0  0  0  0  0  0  0  0  0  0
  -19.8243    0.7210  -19.5980 O   0  0  0  0  0  0  0  0  0  0  0  0
  -18.5563   -1.0812  -18.8074 C   0  0  0  0  0  0  0  0  0  0  0  0
  -18.4553   -1.4204  -20.1172 F   0  0  0  0  0  0  0  0  0  0  0  0
  -17.6869   -1.5129  -17.9046 C   0  0  0  0  0  0  0  0  0  0  0  0
  -17.5757   -0.9247  -16.5356 C   0  0  0  0  0  0  0  0  0  0  0  0
  -16.7599   -2.6586  -18.1972 C   0  0  0  0  0  0  0  0  0  0  0  0
  -17.3137   -3.9941  -17.7609 C   0  0  0  0  0  0  0  0  0  0  0  0
  -18.5862   -4.3533  -18.4644 C   0  0  0  0  0  0  0  0  0  0  0  0
  -19.8259   -4.3437  -17.9864 C   0  0  0  0  0  0  0  0  0  0  0  0
  -20.1521   -4.3441  -16.5236 C   0  0  0  0  0  0  0  0  0  0  0  0
  -21.0106   -4.3146  -18.9102 C   0  0  0  0  0  0  0  0  0  0  0  0
  -21.8493   -5.5745  -18.9293 C   0  0  0  0  0  0  0  0  0  0  0  0
  -21.4559   -6.5094  -20.0239 C   0  0  0  0  0  0  0  0  0  0  0  0
  -20.3964   -7.2974  -20.0884 C   0  0  0  0  0  0  0  0  0  0  0  0
  -19.8593   -7.8229  -21.3824 C   0  0  0  0  0  0  0  0  0  0  0  0
  -19.6365   -7.7332  -18.8794 C   0  0  0  0  0  0  0  0  0  0  0  0
  -20.6921    2.0527  -19.4599 P   0  0  1  0  0  0  0  0  0  0  0  0
  -21.6762    1.9366  -18.3545 O   0  0  0  0  0  0  0  0  0  0  0  0
  -19.6546    3.1123  -19.4465 O   0  0  0  0  0  0  0  0  0  0  0  0
  -21.4632    2.0412  -20.8618 O   0  0  0  0  0  0  0  0  0  0  0  0
  -22.6798    2.8514  -21.5263 P   0  0  1  0  0  0  0  0  0  0  0  0
  -23.8827    2.4327  -20.7654 O   0  0  0  0  0  0  0  0  0  0  0  0
  -22.3498    4.2931  -21.3564 O   0  0  0  0  0  0  0  0  0  0  0  0
  -22.7289    2.4517  -22.9517 O   0  0  0  0  0  0  0  0  0  0  0  0
  -19.5583    0.3572  -17.5829 H   0  0  0  0  0  0  0  0  0  0  0  0
  -20.6465   -0.7755  -18.4209 H   0  0  0  0  0  0  0  0  0  0  0  0
  -17.7249   -1.7140  -15.7841 H   0  0  0  0  0  0  0  0  0  0  0  0
  -16.5777   -0.4802  -16.4074 H   0  0  0  0  0  0  0  0  0  0  0  0
  -18.3427   -0.1467  -16.4074 H   0  0  0  0  0  0  0  0  0  0  0  0
  -16.5767   -2.6927  -19.2813 H   0  0  0  0  0  0  0  0  0  0  0  0
  -15.8343   -2.4854  -17.6287 H   0  0  0  0  0  0  0  0  0  0  0  0
  -16.5642   -4.7711  -17.9719 H   0  0  0  0  0  0  0  0  0  0  0  0
  -17.5380   -3.9243  -16.6863 H   0  0  0  0  0  0  0  0  0  0  0  0
  -18.4807   -4.6657  -19.5138 H   0  0  0  0  0  0  0  0  0  0  0  0
  -19.2197   -4.3429  -15.9399 H   0  0  0  0  0  0  0  0  0  0  0  0
  -20.7392   -3.4466  -16.2786 H   0  0  0  0  0  0  0  0  0  0  0  0
  -20.7370   -5.2429  -16.2786 H   0  0  0  0  0  0  0  0  0  0  0  0
  -21.6587   -3.4799  -18.6049 H   0  0  0  0  0  0  0  0  0  0  0  0
  -20.6010   -4.2073  -19.9254 H   0  0  0  0  0  0  0  0  0  0  0  0
  -21.7311   -6.0910  -17.9653 H   0  0  0  0  0  0  0  0  0  0  0  0
  -22.8936   -5.2768  -19.1047 H   0  0  0  0  0  0  0  0  0  0  0  0
  -22.1350   -6.5479  -20.8884 H   0  0  0  0  0  0  0  0  0  0  0  0
  -19.0867   -8.5789  -21.1787 H   0  0  0  0  0  0  0  0  0  0  0  0
  -20.6764   -8.2800  -21.9598 H   0  0  0  0  0  0  0  0  0  0  0  0
  -19.4201   -6.9961  -21.9598 H   0  0  0  0  0  0  0  0  0  0  0  0
  -20.1784   -7.4224  -17.9740 H   0  0  0  0  0  0  0  0  0  0  0  0
  -19.5324   -8.8282  -18.8867 H   0  0  0  0  0  0  0  0  0  0  0  0
  -18.6388   -7.2700  -18.8867 H   0  0  0  0  0  0  0  0  0  0  0  0
  1  2  1  0
  1  3  1  0
  2 18  1  0
  3  4  1  0
  3  5  2  3
  5  6  1  0
  5  7  1  0
  7  8  1  0
  8  9  1  0
  9 10  2  3
 10 11  1  0
 10 12  1  0
 12 13  1  0
 13 14  1  0
 14 15  2  3
 15 16  1  0
 15 17  1  0
 18 19  2  0
 18 20  1  1
 18 21  1  0
 21 22  1  0
 22 23  1  1
 22 24  1  0
 22 25  2  0
  1 26  1  0
  1 27  1  0
  6 28  1  0
  6 29  1  0
  6 30  1  0
  7 31  1  0
  7 32  1  0
  8 33  1  0
  8 34  1  0
  9 35  1  0
 11 36  1  0
 11 37  1  0
 11 38  1  0
 12 39  1  0
 12 40  1  0
 13 41  1  0
 13 42  1  0
 14 43  1  0
 16 44  1  0
 16 45  1  0
 16 46  1  0
 17 47  1  0
 17 48  1  0
 17 49  1  0
M  CHG  3  20  -1  23  -1  24  -1
M  END
>  <filename_input>  (1) 
7XQZ_FPF_docked.sdf

>  <pdb_id>  (1) 
7XQZ_FPF

>  <pose_rank>  (1) 
0

>  <num_atoms_heavy>  (1) 
25

>  <num_torsions>  (1) 
11

>  <pose>  (1) 
[-18.55632742899281, -1.081219338630719, -18.807432933712604, -5.959724509390035, 1.4845946917776895, 0.48113962350435974, 6.697594549457833, 0.1418125330095384, -0.621967039184511, -0.41325469815247595, -3.619966543473847, 6.086657830158599, 0.045918973451877225, -5.96858008727212, -0.27485736692367396, -0.20577900413560737, 0.0619746581066996]

>  <energy>  (1) 
-910.786569281189

>  <inter_energy>  (1) 
-911.4559479205312

>  <intra_energy>  (1) 
16.337579197665086

>  <rmsd>  (1) 
0.358539

>  <sdf_rank>  (1) 
0

$$$$

     RDKit          3D

 49 48  0  0  0  0  0  0  0  0999 V2000
  -19.6788    0.0316  -18.4654 C   0  0  0  0  0  0  0  0  0  0  0  0
  -19.5483    1.1032  -19.3742 O   0  0  0  0  0  0  0  0  0  0  0  0
  -18.4954   -0.8619  -18.6595 C   0  0  0  0  0  0  0  0  0  0  0  0
  -18.4254   -1.3839  -19.9099 F   0  0  0  0  0  0  0  0  0  0  0  0
  -17.5848   -1.1357  -17.7358 C   0  0  0  0  0  0  0  0  0  0  0  0
  -17.4487   -0.3532  -16.4702 C   0  0  0  0  0  0  0  0  0  0  0  0
  -16.6324   -2.2869  -17.8941 C   0  0  0  0  0  0  0  0  0  0  0  0
  -17.2388   -3.6144  -17.5056 C   0  0  0  0  0  0  0  0  0  0  0  0
  -17.6957   -4.4125  -18.6878 C   0  0  0  0  0  0  0  0  0  0  0  0
  -18.4111   -5.5321  -18.7024 C   0  0  0  0  0  0  0  0  0  0  0  0
  -18.5706   -6.4316  -17.5142 C   0  0  0  0  0  0  0  0  0  0  0  0
  -19.1382   -5.9689  -19.9426 C   0  0  0  0  0  0  0  0  0  0  0  0
  -20.6365   -5.7540  -19.9258 C   0  0  0  0  0  0  0  0  0  0  0  0
  -21.1854   -5.6457  -18.5422 C   0  0  0  0  0  0  0  0  0  0  0  0
  -21.2343   -4.5809  -17.7601 C   0  0  0  0  0  0  0  0  0  0  0  0
  -21.3646   -4.6778  -16.2727 C   0  0  0  0  0  0  0  0  0  0  0  0
  -21.1611   -3.1857  -18.2863 C   0  0  0  0  0  0  0  0  0  0  0  0
  -20.6094    2.2945  -19.3890 P   0  0  1  0  0  0  0  0  0  0  0  0
  -21.5496    2.1863  -18.2452 O   0  0  0  0  0  0  0  0  0  0  0  0
  -19.7479    3.4901  -19.5551 O   0  0  0  0  0  0  0  0  0  0  0  0
  -21.3874    1.9709  -20.7493 O   0  0  0  0  0  0  0  0  0  0  0  0
  -22.5897    2.6287  -21.5858 P   0  0  1  0  0  0  0  0  0  0  0  0
  -22.5190    4.0800  -21.2856 O   0  0  0  0  0  0  0  0  0  0  0  0
  -22.3142    2.3103  -23.0137 O   0  0  0  0  0  0  0  0  0  0  0  0
  -23.8396    1.9982  -21.1018 O   0  0  0  0  0  0  0  0  0  0  0  0
  -19.6974    0.4130  -17.4338 H   0  0  0  0  0  0  0  0  0  0  0  0
  -20.6151   -0.5178  -18.6426 H   0  0  0  0  0  0  0  0  0  0  0  0
  -17.5658   -1.0266  -15.6084 H   0  0  0  0  0  0  0  0  0  0  0  0
  -16.4552    0.1177  -16.4353 H   0  0  0  0  0  0  0  0  0  0  0  0
  -18.2249    0.4254  -16.4353 H   0  0  0  0  0  0  0  0  0  0  0  0
  -16.3189   -2.3399  -18.9471 H   0  0  0  0  0  0  0  0  0  0  0  0
  -15.7822   -2.1046  -17.2203 H   0  0  0  0  0  0  0  0  0  0  0  0
  -16.4845   -4.1983  -16.9578 H   0  0  0  0  0  0  0  0  0  0  0  0
  -18.1230   -3.4055  -16.8855 H   0  0  0  0  0  0  0  0  0  0  0  0
  -17.4006   -4.0206  -19.6723 H   0  0  0  0  0  0  0  0  0  0  0  0
  -18.4661   -5.8421  -16.5914 H   0  0  0  0  0  0  0  0  0  0  0  0
  -19.5657   -6.8996  -17.5396 H   0  0  0  0  0  0  0  0  0  0  0  0
  -17.7970   -7.2132  -17.5396 H   0  0  0  0  0  0  0  0  0  0  0  0
  -18.7245   -5.4084  -20.7939 H   0  0  0  0  0  0  0  0  0  0  0  0
  -18.9885   -7.0562  -20.0150 H   0  0  0  0  0  0  0  0  0  0  0  0
  -20.8653   -4.8253  -20.4691 H   0  0  0  0  0  0  0  0  0  0  0  0
  -21.1038   -6.6285  -20.4020 H   0  0  0  0  0  0  0  0  0  0  0  0
  -21.6030   -6.5710  -18.1186 H   0  0  0  0  0  0  0  0  0  0  0  0
  -20.5692   -4.0864  -15.7956 H   0  0  0  0  0  0  0  0  0  0  0  0
  -22.3461   -4.2884  -15.9644 H   0  0  0  0  0  0  0  0  0  0  0  0
  -21.2743   -5.7299  -15.9644 H   0  0  0  0  0  0  0  0  0  0  0  0
  -21.1240   -2.4780  -17.4450 H   0  0  0  0  0  0  0  0  0  0  0  0
  -20.2558   -3.0725  -18.9008 H   0  0  0  0  0  0  0  0  0  0  0  0
  -22.0497   -2.9784  -18.9008 H   0  0  0  0  0  0  0  0  0  0  0  0
  1  2  1  0
  1  3  1  0
  2 18  1  0
  3  4  1  0
  3  5  2  3
  5  6  1  0
  5  7  1  0
  7  8  1  0
  8  9  1  0
  9 10  2  3
 10 11  1  0
 10 12  1  0
 12 13  1  0
 13 14  1  0
 14 15  2  3
 15 16  1  0
 15 17  1  0
 18 19  2  0
 18 20  1  6
 18 21  1  0
 21 22  1  0
 22 23  1  6
 22 24  1  0
 22 25  2  0
  1 26  1  0
  1 27  1  0
  6 28  1  0
  6 29  1  0
  6 30  1  0
  7 31  1  0
  7 32  1  0
  8 33  1  0
  8 34  1  0
  9 35  1  0
 11 36  1  0
 11 37  1  0
 11 38  1  0
 12 39  1  0
 12 40  1  0
 13 41  1  0
 13 42  1  0
 14 43  1  0
 16 44  1  0
 16 45  1  0
 16 46  1  0
 17 47  1  0
 17 48  1  0
 17 49  1  0
M  CHG  3  20  -1  23  -1  24  -1
M  END
>  <filename_input>  (2) 
7XQZ_FPF_docked.sdf

>  <pdb_id>  (2) 
7XQZ_FPF

>  <pose_rank>  (2) 
1

>  <num_atoms_heavy>  (2) 
25

>  <num_torsions>  (2) 
11

>  <pose>  (2) 
[-18.49542760184934, -0.8619120546535974, -18.659522992507906, -4.982438546286457, 1.0391247910152972, 3.7395986089041284, 0.023184446205930846, -6.3754340597172074, -0.1328739247457185, -0.21130409987026738, -1.9144189546868375, 18.856388697928335, 0.7126436104848249, -0.8197023084148465, -4.0457670668815355, 1.0601390125843098, 0.2095981846125196]

>  <energy>  (2) 
-768.2172937880011

>  <inter_energy>  (2) 
-826.3528893193372

>  <intra_energy>  (2) 
55.008287030414806

>  <rmsd>  (2) 
1.8481

>  <sdf_rank>  (2) 
0

$$$$

     RDKit          3D

 49 48  0  0  0  0  0  0  0  0999 V2000
  -18.8234    0.7124  -19.5618 C   0  0  0  0  0  0  0  0  0  0  0  0
  -20.1867    0.4048  -19.3664 O   0  0  0  0  0  0  0  0  0  0  0  0
  -18.0345   -0.4944  -19.1650 C   0  0  0  0  0  0  0  0  0  0  0  0
  -17.4411   -1.1093  -20.2188 F   0  0  0  0  0  0  0  0  0  0  0  0
  -17.8988   -0.9452  -17.9257 C   0  0  0  0  0  0  0  0  0  0  0  0
  -18.2649   -0.1393  -16.7220 C   0  0  0  0  0  0  0  0  0  0  0  0
  -17.3837   -2.3294  -17.6494 C   0  0  0  0  0  0  0  0  0  0  0  0
  -18.3294   -3.1563  -16.8113 C   0  0  0  0  0  0  0  0  0  0  0  0
  -19.7294   -3.1557  -17.3436 C   0  0  0  0  0  0  0  0  0  0  0  0
  -20.1642   -3.5786  -18.5259 C   0  0  0  0  0  0  0  0  0  0  0  0
  -19.2739   -3.7817  -19.7143 C   0  0  0  0  0  0  0  0  0  0  0  0
  -21.6147   -3.9039  -18.7450 C   0  0  0  0  0  0  0  0  0  0  0  0
  -21.8886   -5.2496  -19.3818 C   0  0  0  0  0  0  0  0  0  0  0  0
  -20.9061   -6.2926  -18.9648 C   0  0  0  0  0  0  0  0  0  0  0  0
  -20.2807   -7.1791  -19.7203 C   0  0  0  0  0  0  0  0  0  0  0  0
  -19.6997   -8.4428  -19.1683 C   0  0  0  0  0  0  0  0  0  0  0  0
  -20.0987   -7.0044  -21.1918 C   0  0  0  0  0  0  0  0  0  0  0  0
  -21.1728    1.4611  -18.6904 P   0  0  1  0  0  0  0  0  0  0  0  0
  -21.8581    0.8735  -17.5118 O   0  0  0  0  0  0  0  0  0  0  0  0
  -20.3119    2.6604  -18.5500 O   0  0  0  0  0  0  0  0  0  0  0  0
  -22.2308    1.6660  -19.8732 O   0  0  0  0  0  0  0  0  0  0  0  0
  -22.4829    2.7472  -21.0332 P   0  0  1  0  0  0  0  0  0  0  0  0
  -21.7972    3.9780  -20.5683 O   0  0  0  0  0  0  0  0  0  0  0  0
  -21.8808    2.1696  -22.2660 O   0  0  0  0  0  0  0  0  0  0  0  0
  -23.9503    2.9116  -21.1498 O   0  0  0  0  0  0  0  0  0  0  0  0
  -18.6393    0.9516  -20.6196 H   0  0  0  0  0  0  0  0  0  0  0  0
  -18.5306    1.5849  -18.9592 H   0  0  0  0  0  0  0  0  0  0  0  0
  -18.0092   -0.7022  -15.8122 H   0  0  0  0  0  0  0  0  0  0  0  0
  -17.7099    0.8103  -16.7338 H   0  0  0  0  0  0  0  0  0  0  0  0
  -19.3453    0.0673  -16.7338 H   0  0  0  0  0  0  0  0  0  0  0  0
  -17.2265   -2.8427  -18.6095 H   0  0  0  0  0  0  0  0  0  0  0  0
  -16.4479   -2.2240  -17.0810 H   0  0  0  0  0  0  0  0  0  0  0  0
  -17.9630   -4.1932  -16.7878 H   0  0  0  0  0  0  0  0  0  0  0  0
  -18.3573   -2.7102  -15.8062 H   0  0  0  0  0  0  0  0  0  0  0  0
  -20.4979   -2.7525  -16.6677 H   0  0  0  0  0  0  0  0  0  0  0  0
  -18.2543   -4.0142  -19.3731 H   0  0  0  0  0  0  0  0  0  0  0  0
  -19.6567   -4.6156  -20.3210 H   0  0  0  0  0  0  0  0  0  0  0  0
  -19.2572   -2.8642  -20.3210 H   0  0  0  0  0  0  0  0  0  0  0  0
  -22.1189   -3.8819  -17.7676 H   0  0  0  0  0  0  0  0  0  0  0  0
  -21.9908   -3.1510  -19.4532 H   0  0  0  0  0  0  0  0  0  0  0  0
  -22.8968   -5.5786  -19.0900 H   0  0  0  0  0  0  0  0  0  0  0  0
  -21.8013   -5.1264  -20.4713 H   0  0  0  0  0  0  0  0  0  0  0  0
  -20.6722   -6.3285  -17.8905 H   0  0  0  0  0  0  0  0  0  0  0  0
  -19.7171   -8.4048  -18.0691 H   0  0  0  0  0  0  0  0  0  0  0  0
  -20.2934   -9.3014  -19.5150 H   0  0  0  0  0  0  0  0  0  0  0  0
  -18.6614   -8.5510  -19.5150 H   0  0  0  0  0  0  0  0  0  0  0  0
  -19.3167   -6.2534  -21.3779 H   0  0  0  0  0  0  0  0  0  0  0  0
  -19.8005   -7.9633  -21.6408 H   0  0  0  0  0  0  0  0  0  0  0  0
  -21.0447   -6.6677  -21.6408 H   0  0  0  0  0  0  0  0  0  0  0  0
  1  2  1  0
  1  3  1  0
  2 18  1  0
  3  4  1  0
  3  5  2  3
  5  6  1  0
  5  7  1  0
  7  8  1  0
  8  9  1  0
  9 10  2  3
 10 11  1  0
 10 12  1  0
 12 13  1  0
 13 14  1  0
 14 15  2  3
 15 16  1  0
 15 17  1  0
 18 19  2  0
 18 20  1  1
 18 21  1  0
 21 22  1  0
 22 23  1  1
 22 24  1  0
 22 25  2  0
  1 26  1  0
  1 27  1  0
  6 28  1  0
  6 29  1  0
  6 30  1  0
  7 31  1  0
  7 32  1  0
  8 33  1  0
  8 34  1  0
  9 35  1  0
 11 36  1  0
 11 37  1  0
 11 38  1  0
 12 39  1  0
 12 40  1  0
 13 41  1  0
 13 42  1  0
 14 43  1  0
 16 44  1  0
 16 45  1  0
 16 46  1  0
 17 47  1  0
 17 48  1  0
 17 49  1  0
M  CHG  3  20  -1  23  -1  24  -1
M  END
>  <filename_input>  (3) 
7XQZ_FPF_docked.sdf

>  <pdb_id>  (3) 
7XQZ_FPF

>  <pose_rank>  (3) 
2

>  <num_atoms_heavy>  (3) 
25

>  <num_torsions>  (3) 
11

>  <pose>  (3) 
[-18.034477522418978, -0.4943871471451093, -19.16495662575694, 0.16899034282385367, 5.021733714104956, 2.5490143607027282, 3.030895818808666, -0.9035330375033952, 3.8323231928769883, 1.1840798643043253, -2.803269758900921, -7.018110141448205, -25.280702941200918, -15.630307537581471, -17.055486795139554, -4.241763740924533, 2.6773726598508643]

>  <energy>  (3) 
-765.5665938389801

>  <inter_energy>  (3) 
-816.5377427402092

>  <intra_energy>  (3) 
54.16665258764837

>  <rmsd>  (3) 
1.21959

>  <sdf_rank>  (3) 
0

$$$$

     RDKit          3D

 49 48  0  0  0  0  0  0  0  0999 V2000
  -19.7568   -0.1615  -18.3561 C   0  0  0  0  0  0  0  0  0  0  0  0
  -19.8747    0.7964  -19.3856 O   0  0  0  0  0  0  0  0  0  0  0  0
  -18.5417   -0.9822  -18.6502 C   0  0  0  0  0  0  0  0  0  0  0  0
  -18.4486   -1.3418  -19.9551 F   0  0  0  0  0  0  0  0  0  0  0  0
  -17.6253   -1.3368  -17.7604 C   0  0  0  0  0  0  0  0  0  0  0  0
  -17.5217   -0.7136  -16.4064 C   0  0  0  0  0  0  0  0  0  0  0  0
  -16.6319   -2.4255  -18.0527 C   0  0  0  0  0  0  0  0  0  0  0  0
  -17.0698   -3.7784  -17.5439 C   0  0  0  0  0  0  0  0  0  0  0  0
  -18.5576   -3.8997  -17.4226 C   0  0  0  0  0  0  0  0  0  0  0  0
  -19.3732   -4.7349  -18.0574 C   0  0  0  0  0  0  0  0  0  0  0  0
  -19.0040   -5.4606  -19.3157 C   0  0  0  0  0  0  0  0  0  0  0  0
  -20.7495   -5.0234  -17.5281 C   0  0  0  0  0  0  0  0  0  0  0  0
  -21.2943   -4.0057  -16.5489 C   0  0  0  0  0  0  0  0  0  0  0  0
  -20.9193   -4.3097  -15.1368 C   0  0  0  0  0  0  0  0  0  0  0  0
  -21.5862   -4.0246  -14.0314 C   0  0  0  0  0  0  0  0  0  0  0  0
  -20.9289   -3.9498  -12.6893 C   0  0  0  0  0  0  0  0  0  0  0  0
  -23.0533   -3.7482  -14.0193 C   0  0  0  0  0  0  0  0  0  0  0  0
  -20.6495    2.1690  -19.1382 P   0  0  1  0  0  0  0  0  0  0  0  0
  -21.1385    2.2615  -17.7396 O   0  0  0  0  0  0  0  0  0  0  0  0
  -19.7041    3.1740  -19.6816 O   0  0  0  0  0  0  0  0  0  0  0  0
  -21.8944    1.9794  -20.1254 O   0  0  0  0  0  0  0  0  0  0  0  0
  -22.5799    2.8226  -21.3075 P   0  0  1  0  0  0  0  0  0  0  0  0
  -22.1630    4.2267  -21.0709 O   0  0  0  0  0  0  0  0  0  0  0  0
  -22.0435    2.2564  -22.5755 O   0  0  0  0  0  0  0  0  0  0  0  0
  -24.0421    2.6240  -21.1790 O   0  0  0  0  0  0  0  0  0  0  0  0
  -19.6451    0.3418  -17.3844 H   0  0  0  0  0  0  0  0  0  0  0  0
  -20.6539   -0.7963  -18.3099 H   0  0  0  0  0  0  0  0  0  0  0  0
  -17.6504   -1.4877  -15.6356 H   0  0  0  0  0  0  0  0  0  0  0  0
  -16.5333   -0.2443  -16.2934 H   0  0  0  0  0  0  0  0  0  0  0  0
  -18.3053    0.0501  -16.2934 H   0  0  0  0  0  0  0  0  0  0  0  0
  -16.4928   -2.4894  -19.1420 H   0  0  0  0  0  0  0  0  0  0  0  0
  -15.6978   -2.1659  -17.5331 H   0  0  0  0  0  0  0  0  0  0  0  0
  -16.7100   -4.5493  -18.2412 H   0  0  0  0  0  0  0  0  0  0  0  0
  -16.6441   -3.9071  -16.5378 H   0  0  0  0  0  0  0  0  0  0  0  0
  -19.0379   -3.2071  -16.7158 H   0  0  0  0  0  0  0  0  0  0  0  0
  -18.5188   -6.4142  -19.0601 H   0  0  0  0  0  0  0  0  0  0  0  0
  -19.9115   -5.6574  -19.9052 H   0  0  0  0  0  0  0  0  0  0  0  0
  -18.3105   -4.8429  -19.9052 H   0  0  0  0  0  0  0  0  0  0  0  0
  -21.4387   -5.0739  -18.3839 H   0  0  0  0  0  0  0  0  0  0  0  0
  -20.6681   -5.9679  -16.9701 H   0  0  0  0  0  0  0  0  0  0  0  0
  -20.8971   -3.0146  -16.8133 H   0  0  0  0  0  0  0  0  0  0  0  0
  -22.3919   -4.0339  -16.6155 H   0  0  0  0  0  0  0  0  0  0  0  0
  -19.9652   -4.8392  -14.9977 H   0  0  0  0  0  0  0  0  0  0  0  0
  -21.6920   -4.0366  -11.9019 H   0  0  0  0  0  0  0  0  0  0  0  0
  -20.2041   -4.7712  -12.5897 H   0  0  0  0  0  0  0  0  0  0  0  0
  -20.4072   -2.9865  -12.5897 H   0  0  0  0  0  0  0  0  0  0  0  0
  -23.4053   -3.6819  -12.9792 H   0  0  0  0  0  0  0  0  0  0  0  0
  -23.2515   -2.7969  -14.5348 H   0  0  0  0  0  0  0  0  0  0  0  0
  -23.5840   -4.5622  -14.5348 H   0  0  0  0  0  0  0  0  0  0  0  0
  1  2  1  0
  1  3  1  0
  2 18  1  0
  3  4  1  0
  3  5  2  3
  5  6  1  0
  5  7  1  0
  7  8  1  0
  8  9  1  0
  9 10  2  3
 10 11  1  0
 10 12  1  0
 12 13  1  0
 13 14  1  0
 14 15  2  3
 15 16  1  0
 15 17  1  0
 18 19  2  0
 18 20  1  6
 18 21  1  0
 21 22  1  0
 22 23  1  1
 22 24  1  0
 22 25  2  0
  1 26  1  0
  1 27  1  0
  6 28  1  0
  6 29  1  0
  6 30  1  0
  7 31  1  0
  7 32  1  0
  8 33  1  0
  8 34  1  0
  9 35  1  0
 11 36  1  0
 11 37  1  0
 11 38  1  0
 12 39  1  0
 12 40  1  0
 13 41  1  0
 13 42  1  0
 14 43  1  0
 16 44  1  0
 16 45  1  0
 16 46  1  0
 17 47  1  0
 17 48  1  0
 17 49  1  0
M  CHG  3  20  -1  23  -1  24  -1
M  END
>  <filename_input>  (4) 
7XQZ_FPF_docked.sdf

>  <pdb_id>  (4) 
7XQZ_FPF

>  <pose_rank>  (4) 
3

>  <num_atoms_heavy>  (4) 
25

>  <num_torsions>  (4) 
11

>  <pose>  (4) 
[-18.541715883135694, -0.9821534388335015, -18.650214578924533, -5.394091482107271, 0.11696826588999228, -2.993553554068742, 0.3244239536252008, 0.28566772025266307, -0.24134855333687608, -5.599097045771586, 3.472531392673629, -0.22352450236188692, -0.5872960851971767, 4.22328122790553, -1.886733300890878, -0.09930448044104907, 2.4112417304927227]

>  <energy>  (4) 
-723.328284003102

>  <inter_energy>  (4) 
-754.8874721991392

>  <intra_energy>  (4) 
26.373851751984315

>  <rmsd>  (4) 
2.99511

>  <sdf_rank>  (4) 
0

$$$$

     RDKit          3D

 49 48  0  0  0  0  0  0  0  0999 V2000
  -20.1071   -0.6702  -18.7063 C   0  0  0  0  0  0  0  0  0  0  0  0
  -20.0266    0.3338  -19.6946 O   0  0  0  0  0  0  0  0  0  0  0  0
  -18.9588   -1.6027  -18.9258 C   0  0  0  0  0  0  0  0  0  0  0  0
  -18.8921   -2.0704  -20.1977 F   0  0  0  0  0  0  0  0  0  0  0  0
  -18.0738   -1.9556  -18.0041 C   0  0  0  0  0  0  0  0  0  0  0  0
  -17.9241   -1.2371  -16.7025 C   0  0  0  0  0  0  0  0  0  0  0  0
  -17.1673   -3.1372  -18.2025 C   0  0  0  0  0  0  0  0  0  0  0  0
  -17.6874   -4.3977  -17.5533 C   0  0  0  0  0  0  0  0  0  0  0  0
  -18.9558   -4.8919  -18.1779 C   0  0  0  0  0  0  0  0  0  0  0  0
  -19.1037   -5.6556  -19.2552 C   0  0  0  0  0  0  0  0  0  0  0  0
  -18.0351   -5.8512  -20.2877 C   0  0  0  0  0  0  0  0  0  0  0  0
  -20.3828   -6.4041  -19.5027 C   0  0  0  0  0  0  0  0  0  0  0  0
  -20.7221   -6.6452  -20.9580 C   0  0  0  0  0  0  0  0  0  0  0  0
  -20.4634   -8.0524  -21.3823 C   0  0  0  0  0  0  0  0  0  0  0  0
  -21.0744   -8.7506  -22.3242 C   0  0  0  0  0  0  0  0  0  0  0  0
  -21.0672  -10.2466  -22.3522 C   0  0  0  0  0  0  0  0  0  0  0  0
  -21.8295   -8.1133  -23.4435 C   0  0  0  0  0  0  0  0  0  0  0  0
  -20.3119    1.8609  -19.3317 P   0  0  1  0  0  0  0  0  0  0  0  0
  -21.3700    1.9751  -18.2967 O   0  0  0  0  0  0  0  0  0  0  0  0
  -18.9493    2.3933  -19.0885 O   0  0  0  0  0  0  0  0  0  0  0  0
  -20.8783    2.3892  -20.7318 O   0  0  0  0  0  0  0  0  0  0  0  0
  -22.3250    2.5984  -21.3964 P   0  0  1  0  0  0  0  0  0  0  0  0
  -22.5317    4.0675  -21.4146 O   0  0  0  0  0  0  0  0  0  0  0  0
  -22.2383    2.0007  -22.7570 O   0  0  0  0  0  0  0  0  0  0  0  0
  -23.2965    1.8883  -20.5329 O   0  0  0  0  0  0  0  0  0  0  0  0
  -20.0399   -0.2193  -17.7052 H   0  0  0  0  0  0  0  0  0  0  0  0
  -21.0643   -1.2080  -18.7742 H   0  0  0  0  0  0  0  0  0  0  0  0
  -18.0716   -1.9453  -15.8738 H   0  0  0  0  0  0  0  0  0  0  0  0
  -16.9160   -0.8018  -16.6378 H   0  0  0  0  0  0  0  0  0  0  0  0
  -18.6745   -0.4355  -16.6378 H   0  0  0  0  0  0  0  0  0  0  0  0
  -17.0592   -3.3183  -19.2821 H   0  0  0  0  0  0  0  0  0  0  0  0
  -16.2050   -2.8962  -17.7273 H   0  0  0  0  0  0  0  0  0  0  0  0
  -16.9216   -5.1820  -17.6453 H   0  0  0  0  0  0  0  0  0  0  0  0
  -17.9064   -4.1621  -16.5014 H   0  0  0  0  0  0  0  0  0  0  0  0
  -19.8864   -4.5824  -17.6797 H   0  0  0  0  0  0  0  0  0  0  0  0
  -17.0709   -6.0278  -19.7886 H   0  0  0  0  0  0  0  0  0  0  0  0
  -18.2868   -6.7182  -20.9162 H   0  0  0  0  0  0  0  0  0  0  0  0
  -17.9633   -4.9513  -20.9162 H   0  0  0  0  0  0  0  0  0  0  0  0
  -20.3053   -7.3823  -19.0056 H   0  0  0  0  0  0  0  0  0  0  0  0
  -21.1878   -5.7689  -19.1047 H   0  0  0  0  0  0  0  0  0  0  0  0
  -21.7877   -6.4206  -21.1132 H   0  0  0  0  0  0  0  0  0  0  0  0
  -20.0772   -5.9910  -21.5632 H   0  0  0  0  0  0  0  0  0  0  0  0
  -19.6612   -8.5761  -20.8418 H   0  0  0  0  0  0  0  0  0  0  0  0
  -21.0653  -10.6326  -21.3222 H   0  0  0  0  0  0  0  0  0  0  0  0
  -21.9636  -10.6078  -22.8776 H   0  0  0  0  0  0  0  0  0  0  0  0
  -20.1673  -10.5991  -22.8776 H   0  0  0  0  0  0  0  0  0  0  0  0
  -22.6091   -7.4554  -23.0320 H   0  0  0  0  0  0  0  0  0  0  0  0
  -21.1385   -7.5212  -24.0615 H   0  0  0  0  0  0  0  0  0  0  0  0
  -22.2971   -8.8940  -24.0615 H   0  0  0  0  0  0  0  0  0  0  0  0
  1  2  1  0
  1  3  1  0
  2 18  1  0
  3  4  1  0
  3  5  2  3
  5  6  1  0
  5  7  1  0
  7  8  1  0
  8  9  1  0
  9 10  2  3
 10 11  1  0
 10 12  1  0
 12 13  1  0
 13 14  1  0
 14 15  2  3
 15 16  1  0
 15 17  1  0
 18 19  2  0
 18 20  1  1
 18 21  1  0
 21 22  1  0
 22 23  1  6
 22 24  1  0
 22 25  2  0
  1 26  1  0
  1 27  1  0
  6 28  1  0
  6 29  1  0
  6 30  1  0
  7 31  1  0
  7 32  1  0
  8 33  1  0
  8 34  1  0
  9 35  1  0
 11 36  1  0
 11 37  1  0
 11 38  1  0
 12 39  1  0
 12 40  1  0
 13 41  1  0
 13 42  1  0
 14 43  1  0
 16 44  1  0
 16 45  1  0
 16 46  1  0
 17 47  1  0
 17 48  1  0
 17 49  1  0
M  CHG  3  20  -1  23  -1  24  -1
M  END
>  <filename_input>  (5) 
7XQZ_FPF_docked.sdf

>  <pdb_id>  (5) 
7XQZ_FPF

>  <pose_rank>  (5) 
4

>  <num_atoms_heavy>  (5) 
25

>  <num_torsions>  (5) 
11

>  <pose>  (5) 
[-18.958818028968103, -1.602691984323894, -18.92582935654335, 4.0244857432308025, -1.6839351154072701, -4.564344864204916, -6.1135763772293155, 0.5762924812120345, -7.162603487140588, 4.573327614881448, -6.83434111510106, 18.593185030427694, 18.965836907365134, 16.201463966146026, 12.972578497648655, 3.2626156129695207, 1.3889227141069562]

>  <energy>  (5) 
-752.3907813231623

>  <inter_energy>  (5) 
-757.571936480974

>  <intra_energy>  (5) 
17.195544797563997

>  <rmsd>  (5) 
1.96725

>  <sdf_rank>  (5) 
0

$$$$

     RDKit          3D

 49 48  0  0  0  0  0  0  0  0999 V2000
  -18.4343    1.5057  -17.9498 C   0  0  0  0  0  0  0  0  0  0  0  0
  -19.7274    2.0386  -18.1372 O   0  0  0  0  0  0  0  0  0  0  0  0
  -18.5569    0.0160  -17.9958 C   0  0  0  0  0  0  0  0  0  0  0  0
  -19.0534   -0.4384  -19.1738 F   0  0  0  0  0  0  0  0  0  0  0  0
  -18.2213   -0.8091  -17.0140 C   0  0  0  0  0  0  0  0  0  0  0  0
  -17.3940   -0.3872  -15.8435 C   0  0  0  0  0  0  0  0  0  0  0  0
  -18.6818   -2.2393  -17.0030 C   0  0  0  0  0  0  0  0  0  0  0  0
  -18.0564   -3.0708  -18.0976 C   0  0  0  0  0  0  0  0  0  0  0  0
  -18.6650   -4.4346  -18.2108 C   0  0  0  0  0  0  0  0  0  0  0  0
  -19.8297   -4.7776  -18.7507 C   0  0  0  0  0  0  0  0  0  0  0  0
  -20.9444   -3.8089  -19.0060 C   0  0  0  0  0  0  0  0  0  0  0  0
  -20.1019   -6.1960  -19.1651 C   0  0  0  0  0  0  0  0  0  0  0  0
  -19.2303   -6.7232  -20.2848 C   0  0  0  0  0  0  0  0  0  0  0  0
  -19.5378   -8.1416  -20.6324 C   0  0  0  0  0  0  0  0  0  0  0  0
  -20.0652   -8.6170  -21.7477 C   0  0  0  0  0  0  0  0  0  0  0  0
  -20.7484   -9.9466  -21.8142 C   0  0  0  0  0  0  0  0  0  0  0  0
  -20.0311   -7.8723  -23.0412 C   0  0  0  0  0  0  0  0  0  0  0  0
  -20.7344    1.3863  -19.1887 P   0  0  1  0  0  0  0  0  0  0  0  0
  -20.0064    0.8665  -20.3735 O   0  0  0  0  0  0  0  0  0  0  0  0
  -21.5464    0.4828  -18.3381 O   0  0  0  0  0  0  0  0  0  0  0  0
  -21.5854    2.6741  -19.6103 O   0  0  0  0  0  0  0  0  0  0  0  0
  -22.4196    3.1457  -20.8986 P   0  0  1  0  0  0  0  0  0  0  0  0
  -21.9064    2.3146  -22.0154 O   0  0  0  0  0  0  0  0  0  0  0  0
  -23.8488    2.8803  -20.5777 O   0  0  0  0  0  0  0  0  0  0  0  0
  -22.1442    4.5899  -21.0785 O   0  0  0  0  0  0  0  0  0  0  0  0
  -17.7642    1.8533  -18.7499 H   0  0  0  0  0  0  0  0  0  0  0  0
  -18.0139    1.8326  -16.9873 H   0  0  0  0  0  0  0  0  0  0  0  0
  -17.9147   -0.6528  -14.9117 H   0  0  0  0  0  0  0  0  0  0  0  0
  -16.4210   -0.8992  -15.8785 H   0  0  0  0  0  0  0  0  0  0  0  0
  -17.2371    0.7010  -15.8785 H   0  0  0  0  0  0  0  0  0  0  0  0
  -18.4194   -2.6842  -16.0318 H   0  0  0  0  0  0  0  0  0  0  0  0
  -19.7685   -2.2355  -17.1738 H   0  0  0  0  0  0  0  0  0  0  0  0
  -18.1880   -2.5467  -19.0557 H   0  0  0  0  0  0  0  0  0  0  0  0
  -16.9935   -3.2025  -17.8468 H   0  0  0  0  0  0  0  0  0  0  0  0
  -18.0703   -5.2599  -17.7923 H   0  0  0  0  0  0  0  0  0  0  0  0
  -21.3504   -3.4560  -18.0466 H   0  0  0  0  0  0  0  0  0  0  0  0
  -20.5613   -2.9519  -19.5795 H   0  0  0  0  0  0  0  0  0  0  0  0
  -21.7396   -4.3078  -19.5795 H   0  0  0  0  0  0  0  0  0  0  0  0
  -19.9529   -6.8410  -18.2866 H   0  0  0  0  0  0  0  0  0  0  0  0
  -21.1317   -6.2069  -19.5515 H   0  0  0  0  0  0  0  0  0  0  0  0
  -19.3879   -6.0997  -21.1772 H   0  0  0  0  0  0  0  0  0  0  0  0
  -18.1862   -6.6834  -19.9411 H   0  0  0  0  0  0  0  0  0  0  0  0
  -19.2944   -8.8875  -19.8615 H   0  0  0  0  0  0  0  0  0  0  0  0
  -20.9369  -10.3134  -20.7944 H   0  0  0  0  0  0  0  0  0  0  0  0
  -21.7041   -9.8414  -22.3485 H   0  0  0  0  0  0  0  0  0  0  0  0
  -20.1064  -10.6624  -22.3485 H   0  0  0  0  0  0  0  0  0  0  0  0
  -19.9818   -6.7918  -22.8410 H   0  0  0  0  0  0  0  0  0  0  0  0
  -19.1461   -8.1792  -23.6178 H   0  0  0  0  0  0  0  0  0  0  0  0
  -20.9405   -8.0972  -23.6178 H   0  0  0  0  0  0  0  0  0  0  0  0
  1  2  1  0
  1  3  1  0
  2 18  1  0
  3  4  1  0
  3  5  2  3
  5  6  1  0
  5  7  1  0
  7  8  1  0
  8  9  1  0
  9 10  2  3
 10 11  1  0
 10 12  1  0
 12 13  1  0
 13 14  1  0
 14 15  2  3
 15 16  1  0
 15 17  1  0
 18 19  2  0
 18 20  1  1
 18 21  1  0
 21 22  1  0
 22 23  1  6
 22 24  1  0
 22 25  2  0
  1 26  1  0
  1 27  1  0
  6 28  1  0
  6 29  1  0
  6 30  1  0
  7 31  1  0
  7 32  1  0
  8 33  1  0
  8 34  1  0
  9 35  1  0
 11 36  1  0
 11 37  1  0
 11 38  1  0
 12 39  1  0
 12 40  1  0
 13 41  1  0
 13 42  1  0
 14 43  1  0
 16 44  1  0
 16 45  1  0
 16 46  1  0
 17 47  1  0
 17 48  1  0
 17 49  1  0
M  CHG  3  20  -1  23  -1  24  -1
M  END
>  <filename_input>  (6) 
7XQZ_FPF_docked.sdf

>  <pdb_id>  (6) 
7XQZ_FPF

>  <pose_rank>  (6) 
5

>  <num_atoms_heavy>  (6) 
25

>  <num_torsions>  (6) 
11

>  <pose>  (6) 
[-18.556917521271725, 0.016043631623278428, -17.995775005275043, -0.14494573144718778, 0.04355672428894818, -0.9801571007161521, 8.422929482974295, 2.3027241924468793, -7.159606890495302, -0.6950442422282163, -2.7800734612056455, -3.668947332042751, 2.258276085490472, -2.7827361592130453, -9.630979397101402, -1.712617830646135, 0.720405736509524]

>  <energy>  (6) 
-609.9096696098338

>  <inter_energy>  (6) 
-730.2681537023894

>  <intra_energy>  (6) 
125.16762210626436

>  <rmsd>  (6) 
1.91091

>  <sdf_rank>  (6) 
0

$$$$

     RDKit          3D

 49 48  0  0  0  0  0  0  0  0999 V2000
  -18.6052    0.8235  -18.8935 C   0  0  0  0  0  0  0  0  0  0  0  0
  -19.9283    0.6546  -19.3542 O   0  0  0  0  0  0  0  0  0  0  0  0
  -18.0195   -0.5408  -18.7150 C   0  0  0  0  0  0  0  0  0  0  0  0
  -17.9645   -1.2489  -19.8710 F   0  0  0  0  0  0  0  0  0  0  0  0
  -17.5828   -1.0409  -17.5676 C   0  0  0  0  0  0  0  0  0  0  0  0
  -17.3371   -0.2024  -16.3555 C   0  0  0  0  0  0  0  0  0  0  0  0
  -17.3278   -2.5124  -17.4028 C   0  0  0  0  0  0  0  0  0  0  0  0
  -18.5293   -3.3627  -17.7405 C   0  0  0  0  0  0  0  0  0  0  0  0
  -19.5076   -3.4608  -16.6107 C   0  0  0  0  0  0  0  0  0  0  0  0
  -20.6621   -4.1175  -16.5718 C   0  0  0  0  0  0  0  0  0  0  0  0
  -21.4005   -4.5725  -17.7941 C   0  0  0  0  0  0  0  0  0  0  0  0
  -21.3081   -4.4685  -15.2614 C   0  0  0  0  0  0  0  0  0  0  0  0
  -21.1532   -3.4366  -14.1649 C   0  0  0  0  0  0  0  0  0  0  0  0
  -22.4585   -3.0456  -13.5560 C   0  0  0  0  0  0  0  0  0  0  0  0
  -22.7141   -2.7259  -12.2989 C   0  0  0  0  0  0  0  0  0  0  0  0
  -24.0868   -2.8073  -11.7090 C   0  0  0  0  0  0  0  0  0  0  0  0
  -21.6592   -2.2578  -11.3518 C   0  0  0  0  0  0  0  0  0  0  0  0
  -21.0719    1.6906  -18.9490 P   0  0  1  0  0  0  0  0  0  0  0  0
  -21.8838    1.1745  -17.8184 O   0  0  0  0  0  0  0  0  0  0  0  0
  -20.3231    2.9649  -18.8284 O   0  0  0  0  0  0  0  0  0  0  0  0
  -21.9540    1.6831  -20.2840 O   0  0  0  0  0  0  0  0  0  0  0  0
  -22.6964    2.7787  -21.1932 P   0  0  1  0  0  0  0  0  0  0  0  0
  -22.2601    4.0890  -20.6509 O   0  0  0  0  0  0  0  0  0  0  0  0
  -22.2307    2.5352  -22.5860 O   0  0  0  0  0  0  0  0  0  0  0  0
  -24.1508    2.5444  -21.0392 O   0  0  0  0  0  0  0  0  0  0  0  0
  -18.0192    1.3912  -19.6313 H   0  0  0  0  0  0  0  0  0  0  0  0
  -18.5909    1.3808  -17.9453 H   0  0  0  0  0  0  0  0  0  0  0  0
  -17.5134   -0.8040  -15.4516 H   0  0  0  0  0  0  0  0  0  0  0  0
  -16.2967    0.1546  -16.3613 H   0  0  0  0  0  0  0  0  0  0  0  0
  -18.0205    0.6595  -16.3613 H   0  0  0  0  0  0  0  0  0  0  0  0
  -16.4978   -2.8003  -18.0648 H   0  0  0  0  0  0  0  0  0  0  0  0
  -17.0889   -2.6876  -16.3434 H   0  0  0  0  0  0  0  0  0  0  0  0
  -19.0392   -2.9211  -18.6095 H   0  0  0  0  0  0  0  0  0  0  0  0
  -18.1663   -4.3791  -17.9531 H   0  0  0  0  0  0  0  0  0  0  0  0
  -19.2348   -2.9184  -15.6934 H   0  0  0  0  0  0  0  0  0  0  0  0
  -22.3013   -5.1274  -17.4929 H   0  0  0  0  0  0  0  0  0  0  0  0
  -21.6922   -3.6973  -18.3932 H   0  0  0  0  0  0  0  0  0  0  0  0
  -20.7501   -5.2266  -18.3932 H   0  0  0  0  0  0  0  0  0  0  0  0
  -22.3836   -4.6139  -15.4413 H   0  0  0  0  0  0  0  0  0  0  0  0
  -20.7942   -5.3723  -14.9023 H   0  0  0  0  0  0  0  0  0  0  0  0
  -20.5080   -3.8534  -13.3775 H   0  0  0  0  0  0  0  0  0  0  0  0
  -20.7126   -2.5351  -14.6157 H   0  0  0  0  0  0  0  0  0  0  0  0
  -23.3185   -3.0201  -14.2413 H   0  0  0  0  0  0  0  0  0  0  0  0
  -24.0150   -2.8030  -10.6113 H   0  0  0  0  0  0  0  0  0  0  0  0
  -24.6804   -1.9427  -12.0410 H   0  0  0  0  0  0  0  0  0  0  0  0
  -24.5741   -3.7359  -12.0410 H   0  0  0  0  0  0  0  0  0  0  0  0
  -22.0015   -2.4097  -10.3175 H   0  0  0  0  0  0  0  0  0  0  0  0
  -20.7352   -2.8304  -11.5200 H   0  0  0  0  0  0  0  0  0  0  0  0
  -21.4637   -1.1885  -11.5200 H   0  0  0  0  0  0  0  0  0  0  0  0
  1  2  1  0
  1  3  1  0
  2 18  1  0
  3  4  1  0
  3  5  2  3
  5  6  1  0
  5  7  1  0
  7  8  1  0
  8  9  1  0
  9 10  2  3
 10 11  1  0
 10 12  1  0
 12 13  1  0
 13 14  1  0
 14 15  2  3
 15 16  1  0
 15 17  1  0
 18 19  2  0
 18 20  1  1
 18 21  1  0
 21 22  1  0
 22 23  1  1
 22 24  1  0
 22 25  2  0
  1 26  1  0
  1 27  1  0
  6 28  1  0
  6 29  1  0
  6 30  1  0
  7 31  1  0
  7 32  1  0
  8 33  1  0
  8 34  1  0
  9 35  1  0
 11 36  1  0
 11 37  1  0
 11 38  1  0
 12 39  1  0
 12 40  1  0
 13 41  1  0
 13 42  1  0
 14 43  1  0
 16 44  1  0
 16 45  1  0
 16 46  1  0
 17 47  1  0
 17 48  1  0
 17 49  1  0
M  CHG  3  20  -1  23  -1  24  -1
M  END
>  <filename_input>  (7) 
7XQZ_FPF_docked.sdf

>  <pdb_id>  (7) 
7XQZ_FPF

>  <pose_rank>  (7) 
6

>  <num_atoms_heavy>  (7) 
25

>  <num_torsions>  (7) 
11

>  <pose>  (7) 
[-18.019545118537916, -0.5408468973848126, -18.715019178250312, -0.1492953328540991, -0.2384085131970917, -0.5002791060045392, 2.167922965121371, -0.7155612798887724, -1.994960356359768, 0.5122288883560472, 4.001015488343118, 0.4603567670133062, -2.4648390594296403, -0.9827418603464321, -1.5917679508400693, -2.6162812091537306, -4.995996666259456]

>  <energy>  (7) 
-706.6648744507422

>  <inter_energy>  (7) 
-717.3921378022562

>  <intra_energy>  (7) 
11.47700221318709

>  <rmsd>  (7) 
4.07049

>  <sdf_rank>  (7) 
0

$$$$

     RDKit          3D

 49 48  0  0  0  0  0  0  0  0999 V2000
  -20.8115   -2.8594  -18.4194 C   0  0  0  0  0  0  0  0  0  0  0  0
  -20.3123   -3.9924  -19.0964 O   0  0  0  0  0  0  0  0  0  0  0  0
  -19.8452   -2.5340  -17.3255 C   0  0  0  0  0  0  0  0  0  0  0  0
  -20.4258   -2.4960  -16.0999 F   0  0  0  0  0  0  0  0  0  0  0  0
  -18.5499   -2.3064  -17.4927 C   0  0  0  0  0  0  0  0  0  0  0  0
  -17.8212   -2.6401  -18.7537 C   0  0  0  0  0  0  0  0  0  0  0  0
  -17.7238   -1.6631  -16.4151 C   0  0  0  0  0  0  0  0  0  0  0  0
  -17.5050   -0.1858  -16.6396 C   0  0  0  0  0  0  0  0  0  0  0  0
  -18.7635    0.5387  -17.0063 C   0  0  0  0  0  0  0  0  0  0  0  0
  -19.3214    0.6714  -18.2049 C   0  0  0  0  0  0  0  0  0  0  0  0
  -18.5872    0.4479  -19.4923 C   0  0  0  0  0  0  0  0  0  0  0  0
  -20.7689    1.0487  -18.3465 C   0  0  0  0  0  0  0  0  0  0  0  0
  -21.0338    2.5144  -18.6160 C   0  0  0  0  0  0  0  0  0  0  0  0
  -22.4045    2.7610  -19.1524 C   0  0  0  0  0  0  0  0  0  0  0  0
  -22.7987    2.7898  -20.4140 C   0  0  0  0  0  0  0  0  0  0  0  0
  -24.0473    3.4877  -20.8532 C   0  0  0  0  0  0  0  0  0  0  0  0
  -22.0353    2.1330  -21.5162 C   0  0  0  0  0  0  0  0  0  0  0  0
  -20.4392   -5.4477  -18.4552 P   0  0  1  0  0  0  0  0  0  0  0  0
  -19.4117   -5.6601  -17.4050 O   0  0  0  0  0  0  0  0  0  0  0  0
  -21.8844   -5.5322  -18.1335 O   0  0  0  0  0  0  0  0  0  0  0  0
  -20.0944   -6.3546  -19.7277 O   0  0  0  0  0  0  0  0  0  0  0  0
  -20.1852   -7.9129  -20.1038 P   0  0  1  0  0  0  0  0  0  0  0  0
  -18.8233   -8.2777  -20.5658 O   0  0  0  0  0  0  0  0  0  0  0  0
  -20.5872   -8.6111  -18.8520 O   0  0  0  0  0  0  0  0  0  0  0  0
  -21.2088   -8.0349  -21.1673 O   0  0  0  0  0  0  0  0  0  0  0  0
  -20.8929   -2.0108  -19.1147 H   0  0  0  0  0  0  0  0  0  0  0  0
  -21.8119   -3.0603  -18.0086 H   0  0  0  0  0  0  0  0  0  0  0  0
  -16.8465   -3.0863  -18.5069 H   0  0  0  0  0  0  0  0  0  0  0  0
  -18.4142   -3.3564  -19.3413 H   0  0  0  0  0  0  0  0  0  0  0  0
  -17.6664   -1.7231  -19.3413 H   0  0  0  0  0  0  0  0  0  0  0  0
  -18.2376   -1.7986  -15.4520 H   0  0  0  0  0  0  0  0  0  0  0  0
  -16.7358   -2.1467  -16.4260 H   0  0  0  0  0  0  0  0  0  0  0  0
  -17.1028    0.2543  -15.7152 H   0  0  0  0  0  0  0  0  0  0  0  0
  -16.8045   -0.0791  -17.4811 H   0  0  0  0  0  0  0  0  0  0  0  0
  -19.2953    1.0243  -16.1748 H   0  0  0  0  0  0  0  0  0  0  0  0
  -17.5554    0.1339  -19.2761 H   0  0  0  0  0  0  0  0  0  0  0  0
  -19.0952   -0.3363  -20.0727 H   0  0  0  0  0  0  0  0  0  0  0  0
  -18.5722    1.3822  -20.0727 H   0  0  0  0  0  0  0  0  0  0  0  0
  -21.1910    0.4685  -19.1802 H   0  0  0  0  0  0  0  0  0  0  0  0
  -21.2359    0.8297  -17.3749 H   0  0  0  0  0  0  0  0  0  0  0  0
  -20.9182    3.0722  -17.6750 H   0  0  0  0  0  0  0  0  0  0  0  0
  -20.3132    2.8487  -19.3770 H   0  0  0  0  0  0  0  0  0  0  0  0
  -23.1876    2.9420  -18.4014 H   0  0  0  0  0  0  0  0  0  0  0  0
  -24.6190    3.8073  -19.9694 H   0  0  0  0  0  0  0  0  0  0  0  0
  -23.7821    4.3684  -21.4565 H   0  0  0  0  0  0  0  0  0  0  0  0
  -24.6586    2.8005  -21.4565 H   0  0  0  0  0  0  0  0  0  0  0  0
  -21.2674    1.4724  -21.0873 H   0  0  0  0  0  0  0  0  0  0  0  0
  -22.7238    1.5406  -22.1366 H   0  0  0  0  0  0  0  0  0  0  0  0
  -21.5523    2.9023  -22.1366 H   0  0  0  0  0  0  0  0  0  0  0  0
  1  2  1  0
  1  3  1  0
  2 18  1  0
  3  4  1  0
  3  5  2  3
  5  6  1  0
  5  7  1  0
  7  8  1  0
  8  9  1  0
  9 10  2  3
 10 11  1  0
 10 12  1  0
 12 13  1  0
 13 14  1  0
 14 15  2  3
 15 16  1  0
 15 17  1  0
 18 19  2  0
 18 20  1  1
 18 21  1  0
 21 22  1  0
 22 23  1  6
 22 24  1  0
 22 25  2  0
  1 26  1  0
  1 27  1  0
  6 28  1  0
  6 29  1  0
  6 30  1  0
  7 31  1  0
  7 32  1  0
  8 33  1  0
  8 34  1  0
  9 35  1  0
 11 36  1  0
 11 37  1  0
 11 38  1  0
 12 39  1  0
 12 40  1  0
 13 41  1  0
 13 42  1  0
 14 43  1  0
 16 44  1  0
 16 45  1  0
 16 46  1  0
 17 47  1  0
 17 48  1  0
 17 49  1  0
M  CHG  3  20  -1  23  -1  24  -1
M  END
>  <filename_input>  (8) 
7XQZ_FPF_docked.sdf

>  <pdb_id>  (8) 
7XQZ_FPF

>  <pose_rank>  (8) 
7

>  <num_atoms_heavy>  (8) 
25

>  <num_torsions>  (8) 
11

>  <pose>  (8) 
[-19.84515244367673, -2.533972195313274, -17.325542246256543, 3.3659457992482538, -0.4876502517863713, 0.9795898091639377, 5.2125546484431124, -1.9578753195789103, -1.6369803543879433, -0.03183248245766424, 1.64894606255057, -6.587211410403962, -25.35030919881467, -18.15892768767844, -0.5099784570279757, 10.56334362724022, 3.45712677958607]

>  <energy>  (8) 
-587.476198171554

>  <inter_energy>  (8) 
-636.4743673322822

>  <intra_energy>  (8) 
66.70795970542726

>  <rmsd>  (8) 
7.86901

>  <sdf_rank>  (8) 
0

$$$$

     RDKit          3D

 49 48  0  0  0  0  0  0  0  0999 V2000
  -19.3383   -5.3722  -19.3192 C   0  0  0  0  0  0  0  0  0  0  0  0
  -19.5159   -6.4946  -18.4826 O   0  0  0  0  0  0  0  0  0  0  0  0
  -18.9271   -4.2290  -18.4473 C   0  0  0  0  0  0  0  0  0  0  0  0
  -17.5811   -4.1189  -18.3180 F   0  0  0  0  0  0  0  0  0  0  0  0
  -19.7579   -3.3855  -17.8507 C   0  0  0  0  0  0  0  0  0  0  0  0
  -21.2042   -3.2771  -18.2098 C   0  0  0  0  0  0  0  0  0  0  0  0
  -19.2951   -2.4881  -16.7381 C   0  0  0  0  0  0  0  0  0  0  0  0
  -18.0722   -1.6792  -17.1000 C   0  0  0  0  0  0  0  0  0  0  0  0
  -18.4047   -0.2818  -17.5242 C   0  0  0  0  0  0  0  0  0  0  0  0
  -18.8060    0.1466  -18.7163 C   0  0  0  0  0  0  0  0  0  0  0  0
  -18.6290   -0.6351  -19.9828 C   0  0  0  0  0  0  0  0  0  0  0  0
  -19.4965    1.4723  -18.8692 C   0  0  0  0  0  0  0  0  0  0  0  0
  -21.0047    1.4090  -18.9817 C   0  0  0  0  0  0  0  0  0  0  0  0
  -21.6191    2.7475  -19.2231 C   0  0  0  0  0  0  0  0  0  0  0  0
  -22.2179    3.1902  -20.3155 C   0  0  0  0  0  0  0  0  0  0  0  0
  -22.3735    4.6477  -20.6158 C   0  0  0  0  0  0  0  0  0  0  0  0
  -22.7906    2.2795  -21.3507 C   0  0  0  0  0  0  0  0  0  0  0  0
  -20.4819   -7.6889  -18.9135 P   0  0  1  0  0  0  0  0  0  0  0  0
  -20.4115   -8.8095  -17.9424 O   0  0  0  0  0  0  0  0  0  0  0  0
  -21.7625   -6.9880  -19.1747 O   0  0  0  0  0  0  0  0  0  0  0  0
  -19.7955   -8.1332  -20.2889 O   0  0  0  0  0  0  0  0  0  0  0  0
  -20.2917   -8.4924  -21.7732 P   0  0  1  0  0  0  0  0  0  0  0  0
  -21.5018   -9.3295  -21.5828 O   0  0  0  0  0  0  0  0  0  0  0  0
  -20.5771   -7.1891  -22.4336 O   0  0  0  0  0  0  0  0  0  0  0  0
  -19.1812   -9.2215  -22.4281 O   0  0  0  0  0  0  0  0  0  0  0  0
  -18.5555   -5.5780  -20.0642 H   0  0  0  0  0  0  0  0  0  0  0  0
  -20.2680   -5.1367  -19.8579 H   0  0  0  0  0  0  0  0  0  0  0  0
  -21.8077   -3.2319  -17.2912 H   0  0  0  0  0  0  0  0  0  0  0  0
  -21.3677   -2.3642  -18.8012 H   0  0  0  0  0  0  0  0  0  0  0  0
  -21.5020   -4.1555  -18.8012 H   0  0  0  0  0  0  0  0  0  0  0  0
  -20.1110   -1.7951  -16.4848 H   0  0  0  0  0  0  0  0  0  0  0  0
  -19.0233   -3.1318  -15.8885 H   0  0  0  0  0  0  0  0  0  0  0  0
  -17.4100   -1.6320  -16.2230 H   0  0  0  0  0  0  0  0  0  0  0  0
  -17.5864   -2.1770  -17.9521 H   0  0  0  0  0  0  0  0  0  0  0  0
  -18.3034    0.4907  -16.7477 H   0  0  0  0  0  0  0  0  0  0  0  0
  -18.3921   -1.6810  -19.7380 H   0  0  0  0  0  0  0  0  0  0  0  0
  -19.5584   -0.5973  -20.5699 H   0  0  0  0  0  0  0  0  0  0  0  0
  -17.8065   -0.2006  -20.5699 H   0  0  0  0  0  0  0  0  0  0  0  0
  -19.2470    2.0881  -17.9926 H   0  0  0  0  0  0  0  0  0  0  0  0
  -19.1387    1.8927  -19.8207 H   0  0  0  0  0  0  0  0  0  0  0  0
  -21.2680    0.7446  -19.8179 H   0  0  0  0  0  0  0  0  0  0  0  0
  -21.3945    1.0312  -18.0250 H   0  0  0  0  0  0  0  0  0  0  0  0
  -21.5670    3.4570  -18.3842 H   0  0  0  0  0  0  0  0  0  0  0  0
  -22.4337    5.2119  -19.6734 H   0  0  0  0  0  0  0  0  0  0  0  0
  -21.5075    4.9968  -21.1973 H   0  0  0  0  0  0  0  0  0  0  0  0
  -23.2937    4.8061  -21.1973 H   0  0  0  0  0  0  0  0  0  0  0  0
  -23.3142    1.4472  -20.8576 H   0  0  0  0  0  0  0  0  0  0  0  0
  -23.5001    2.8384  -21.9786 H   0  0  0  0  0  0  0  0  0  0  0  0
  -21.9796    1.8820  -21.9786 H   0  0  0  0  0  0  0  0  0  0  0  0
  1  2  1  0
  1  3  1  0
  2 18  1  0
  3  4  1  0
  3  5  2  3
  5  6  1  0
  5  7  1  0
  7  8  1  0
  8  9  1  0
  9 10  2  3
 10 11  1  0
 10 12  1  0
 12 13  1  0
 13 14  1  0
 14 15  2  3
 15 16  1  0
 15 17  1  0
 18 19  2  0
 18 20  1  6
 18 21  1  0
 21 22  1  0
 22 23  1  1
 22 24  1  0
 22 25  2  0
  1 26  1  0
  1 27  1  0
  6 28  1  0
  6 29  1  0
  6 30  1  0
  7 31  1  0
  7 32  1  0
  8 33  1  0
  8 34  1  0
  9 35  1  0
 11 36  1  0
 11 37  1  0
 11 38  1  0
 12 39  1  0
 12 40  1  0
 13 41  1  0
 13 42  1  0
 14 43  1  0
 16 44  1  0
 16 45  1  0
 16 46  1  0
 17 47  1  0
 17 48  1  0
 17 49  1  0
M  CHG  3  20  -1  23  -1  24  -1
M  END
>  <filename_input>  (9) 
7XQZ_FPF_docked.sdf

>  <pdb_id>  (9) 
7XQZ_FPF

>  <pose_rank>  (9) 
8

>  <num_atoms_heavy>  (9) 
25

>  <num_torsions>  (9) 
11

>  <pose>  (9) 
[-18.927125666467663, -4.228963789142346, -18.447279820500057, -0.9523648357619611, -1.050815562114689, 1.3285830174859674, 2.683336651689063, -0.5802183429339629, -3.5063320462999514, 0.5683450036463332, -3.165899874379678, 2.341848304021844, 0.6901435853789503, 0.7295165012119644, -3.9678157285738695, 4.653526379904547, 0.689259245433121]

>  <energy>  (9) 
-574.811273709325

>  <inter_energy>  (9) 
-577.4403951581157

>  <intra_energy>  (9) 
12.560129716187692

>  <rmsd>  (9) 
8.4671

>  <sdf_rank>  (9) 
0

$$$$

     RDKit          3D

 49 48  0  0  0  0  0  0  0  0999 V2000
  -19.0396   -4.6769  -20.4476 C   0  0  0  0  0  0  0  0  0  0  0  0
  -19.1983   -6.0642  -20.2437 O   0  0  0  0  0  0  0  0  0  0  0  0
  -18.2418   -4.1476  -19.2989 C   0  0  0  0  0  0  0  0  0  0  0  0
  -17.7476   -5.1274  -18.5012 F   0  0  0  0  0  0  0  0  0  0  0  0
  -18.0127   -2.8650  -19.0541 C   0  0  0  0  0  0  0  0  0  0  0  0
  -18.2649   -1.7873  -20.0579 C   0  0  0  0  0  0  0  0  0  0  0  0
  -17.5007   -2.4032  -17.7192 C   0  0  0  0  0  0  0  0  0  0  0  0
  -18.5633   -1.7413  -16.8746 C   0  0  0  0  0  0  0  0  0  0  0  0
  -19.5190   -0.9188  -17.6829 C   0  0  0  0  0  0  0  0  0  0  0  0
  -19.4356    0.3680  -18.0035 C   0  0  0  0  0  0  0  0  0  0  0  0
  -18.5572    1.3476  -17.2859 C   0  0  0  0  0  0  0  0  0  0  0  0
  -20.2278    0.9323  -19.1488 C   0  0  0  0  0  0  0  0  0  0  0  0
  -20.1290    2.4320  -19.3292 C   0  0  0  0  0  0  0  0  0  0  0  0
  -21.4149    3.1311  -19.0381 C   0  0  0  0  0  0  0  0  0  0  0  0
  -22.4407    3.3322  -19.8475 C   0  0  0  0  0  0  0  0  0  0  0  0
  -23.4484    4.4145  -19.6191 C   0  0  0  0  0  0  0  0  0  0  0  0
  -22.6873    2.5025  -21.0639 C   0  0  0  0  0  0  0  0  0  0  0  0
  -20.4817   -6.6365  -19.4883 P   0  0  1  0  0  0  0  0  0  0  0  0
  -21.7062   -6.4628  -20.3093 O   0  0  0  0  0  0  0  0  0  0  0  0
  -20.0323   -7.9860  -19.0687 O   0  0  0  0  0  0  0  0  0  0  0  0
  -20.5402   -5.6491  -18.2305 O   0  0  0  0  0  0  0  0  0  0  0  0
  -21.4715   -4.4328  -17.7496 P   0  0  1  0  0  0  0  0  0  0  0  0
  -22.8504   -4.9806  -17.7480 O   0  0  0  0  0  0  0  0  0  0  0  0
  -20.9861   -4.0603  -16.3925 O   0  0  0  0  0  0  0  0  0  0  0  0
  -21.2846   -3.3398  -18.7316 O   0  0  0  0  0  0  0  0  0  0  0  0
  -18.5068   -4.4937  -21.3923 H   0  0  0  0  0  0  0  0  0  0  0  0
  -20.0179   -4.1773  -20.5057 H   0  0  0  0  0  0  0  0  0  0  0  0
  -18.4855   -0.8445  -19.5360 H   0  0  0  0  0  0  0  0  0  0  0  0
  -17.3729   -1.6574  -20.6883 H   0  0  0  0  0  0  0  0  0  0  0  0
  -19.1219   -2.0667  -20.6883 H   0  0  0  0  0  0  0  0  0  0  0  0
  -17.1117   -3.2750  -17.1727 H   0  0  0  0  0  0  0  0  0  0  0  0
  -16.7182   -1.6538  -17.9090 H   0  0  0  0  0  0  0  0  0  0  0  0
  -19.1307   -2.5227  -16.3477 H   0  0  0  0  0  0  0  0  0  0  0  0
  -18.0543   -1.0635  -16.1735 H   0  0  0  0  0  0  0  0  0  0  0  0
  -20.4057   -1.4492  -18.0604 H   0  0  0  0  0  0  0  0  0  0  0  0
  -18.6738    1.2176  -16.1999 H   0  0  0  0  0  0  0  0  0  0  0  0
  -17.5079    1.1725  -17.5656 H   0  0  0  0  0  0  0  0  0  0  0  0
  -18.8452    2.3717  -17.5656 H   0  0  0  0  0  0  0  0  0  0  0  0
  -19.8735    0.4550  -20.0744 H   0  0  0  0  0  0  0  0  0  0  0  0
  -21.2831    0.7232  -18.9199 H   0  0  0  0  0  0  0  0  0  0  0  0
  -19.3560    2.8185  -18.6486 H   0  0  0  0  0  0  0  0  0  0  0  0
  -19.8759    2.6249  -20.3821 H   0  0  0  0  0  0  0  0  0  0  0  0
  -21.5232    3.5305  -18.0189 H   0  0  0  0  0  0  0  0  0  0  0  0
  -23.5875    4.5638  -18.5382 H   0  0  0  0  0  0  0  0  0  0  0  0
  -23.0920    5.3497  -20.0756 H   0  0  0  0  0  0  0  0  0  0  0  0
  -24.4066    4.1256  -20.0756 H   0  0  0  0  0  0  0  0  0  0  0  0
  -22.9886    1.4887  -20.7613 H   0  0  0  0  0  0  0  0  0  0  0  0
  -23.4884    2.9595  -21.6633 H   0  0  0  0  0  0  0  0  0  0  0  0
  -21.7666    2.4478  -21.6633 H   0  0  0  0  0  0  0  0  0  0  0  0
  1  2  1  0
  1  3  1  0
  2 18  1  0
  3  4  1  0
  3  5  2  3
  5  6  1  0
  5  7  1  0
  7  8  1  0
  8  9  1  0
  9 10  2  3
 10 11  1  0
 10 12  1  0
 12 13  1  0
 13 14  1  0
 14 15  2  3
 15 16  1  0
 15 17  1  0
 18 19  2  0
 18 20  1  1
 18 21  1  0
 21 22  1  0
 22 23  1  1
 22 24  1  0
 22 25  2  0
  1 26  1  0
  1 27  1  0
  6 28  1  0
  6 29  1  0
  6 30  1  0
  7 31  1  0
  7 32  1  0
  8 33  1  0
  8 34  1  0
  9 35  1  0
 11 36  1  0
 11 37  1  0
 11 38  1  0
 12 39  1  0
 12 40  1  0
 13 41  1  0
 13 42  1  0
 14 43  1  0
 16 44  1  0
 16 45  1  0
 16 46  1  0
 17 47  1  0
 17 48  1  0
 17 49  1  0
M  CHG  3  20  -1  23  -1  24  -1
M  END
>  <filename_input>  (10) 
7XQZ_FPF_docked.sdf

>  <pdb_id>  (10) 
7XQZ_FPF

>  <pose_rank>  (10) 
9

>  <num_atoms_heavy>  (10) 
25

>  <num_torsions>  (10) 
11

>  <pose>  (10) 
[-18.24177077162327, -4.147587021226029, -19.29889810136299, 4.139277991788764, 1.528528832999381, -0.4954902228294303, -5.045322354125041, -7.95042940779227, 0.9340417287046455, -1.4914031111043509, -1.4635339416745665, -0.40492758598711376, -1.6712603349976562, 0.5874231424019877, 0.830629860342832, -0.5158658073204274, 3.5542360342079804]

>  <energy>  (10) 
-526.2046992506571

>  <inter_energy>  (10) 
-617.8195754680954

>  <intra_energy>  (10) 
96.5453879203135

>  <rmsd>  (10) 
7.53002

>  <sdf_rank>  (10) 
0

$$$$

     RDKit          3D

 49 48  0  0  0  0  0  0  0  0999 V2000
  -18.9678   -0.6975  -18.5833 C   0  0  0  0  0  0  0  0  0  0  0  0
  -19.6649    0.0151  -19.5820 O   0  0  0  0  0  0  0  0  0  0  0  0
  -19.8349   -1.8429  -18.1678 C   0  0  0  0  0  0  0  0  0  0  0  0
  -20.8540   -1.4678  -17.3544 F   0  0  0  0  0  0  0  0  0  0  0  0
  -19.6641   -3.1044  -18.5378 C   0  0  0  0  0  0  0  0  0  0  0  0
  -18.7643   -3.5084  -19.6603 C   0  0  0  0  0  0  0  0  0  0  0  0
  -20.3564   -4.2296  -17.8223 C   0  0  0  0  0  0  0  0  0  0  0  0
  -20.1215   -4.2156  -16.3305 C   0  0  0  0  0  0  0  0  0  0  0  0
  -21.3404   -3.8225  -15.5541 C   0  0  0  0  0  0  0  0  0  0  0  0
  -21.5126   -3.8097  -14.2366 C   0  0  0  0  0  0  0  0  0  0  0  0
  -20.6411   -4.5627  -13.2776 C   0  0  0  0  0  0  0  0  0  0  0  0
  -22.6137   -3.0029  -13.6086 C   0  0  0  0  0  0  0  0  0  0  0  0
  -22.7184   -3.1104  -12.1023 C   0  0  0  0  0  0  0  0  0  0  0  0
  -23.7892   -2.2376  -11.5376 C   0  0  0  0  0  0  0  0  0  0  0  0
  -23.8361   -1.6620  -10.3484 C   0  0  0  0  0  0  0  0  0  0  0  0
  -25.1174   -1.2132   -9.7193 C   0  0  0  0  0  0  0  0  0  0  0  0
  -22.6184   -1.4095   -9.5224 C   0  0  0  0  0  0  0  0  0  0  0  0
  -20.5014    1.3237  -19.2174 P   0  0  1  0  0  0  0  0  0  0  0  0
  -21.6578    0.9931  -18.3472 O   0  0  0  0  0  0  0  0  0  0  0  0
  -19.4477    2.2611  -18.7587 O   0  0  0  0  0  0  0  0  0  0  0  0
  -21.0302    1.7417  -20.6686 O   0  0  0  0  0  0  0  0  0  0  0  0
  -22.3540    2.4205  -21.2726 P   0  0  1  0  0  0  0  0  0  0  0  0
  -23.4671    1.5333  -20.8543 O   0  0  0  0  0  0  0  0  0  0  0  0
  -22.4269    3.7790  -20.6683 O   0  0  0  0  0  0  0  0  0  0  0  0
  -22.1743    2.4694  -22.7421 O   0  0  0  0  0  0  0  0  0  0  0  0
  -18.0148   -1.0729  -18.9843 H   0  0  0  0  0  0  0  0  0  0  0  0
  -18.7437   -0.0471  -17.7250 H   0  0  0  0  0  0  0  0  0  0  0  0
  -17.8328   -3.9266  -19.2511 H   0  0  0  0  0  0  0  0  0  0  0  0
  -19.2668   -4.2673  -20.2780 H   0  0  0  0  0  0  0  0  0  0  0  0
  -18.5310   -2.6286  -20.2780 H   0  0  0  0  0  0  0  0  0  0  0  0
  -21.4378   -4.1495  -18.0073 H   0  0  0  0  0  0  0  0  0  0  0  0
  -19.9410   -5.1709  -18.2113 H   0  0  0  0  0  0  0  0  0  0  0  0
  -19.8131   -5.2230  -16.0140 H   0  0  0  0  0  0  0  0  0  0  0  0
  -19.3425   -3.4667  -16.1251 H   0  0  0  0  0  0  0  0  0  0  0  0
  -22.2061   -3.5026  -16.1527 H   0  0  0  0  0  0  0  0  0  0  0  0
  -20.9300   -4.3131  -12.2460 H   0  0  0  0  0  0  0  0  0  0  0  0
  -20.7640   -5.6434  -13.4415 H   0  0  0  0  0  0  0  0  0  0  0  0
  -19.5896   -4.2842  -13.4415 H   0  0  0  0  0  0  0  0  0  0  0  0
  -22.4474   -1.9457  -13.8628 H   0  0  0  0  0  0  0  0  0  0  0  0
  -23.5541   -3.4106  -14.0079 H   0  0  0  0  0  0  0  0  0  0  0  0
  -22.9396   -4.1550  -11.8382 H   0  0  0  0  0  0  0  0  0  0  0  0
  -21.7596   -2.7786  -11.6773 H   0  0  0  0  0  0  0  0  0  0  0  0
  -24.6504   -2.0490  -12.1956 H   0  0  0  0  0  0  0  0  0  0  0  0
  -25.0199   -1.2473   -8.6242 H   0  0  0  0  0  0  0  0  0  0  0  0
  -25.3402   -0.1834  -10.0357 H   0  0  0  0  0  0  0  0  0  0  0  0
  -25.9341   -1.8787  -10.0357 H   0  0  0  0  0  0  0  0  0  0  0  0
  -22.8811   -1.4640   -8.4556 H   0  0  0  0  0  0  0  0  0  0  0  0
  -21.8560   -2.1686   -9.7515 H   0  0  0  0  0  0  0  0  0  0  0  0
  -22.2208   -0.4097   -9.7515 H   0  0  0  0  0  0  0  0  0  0  0  0
  1  2  1  0
  1  3  1  0
  2 18  1  0
  3  4  1  0
  3  5  2  3
  5  6  1  0
  5  7  1  0
  7  8  1  0
  8  9  1  0
  9 10  2  3
 10 11  1  0
 10 12  1  0
 12 13  1  0
 13 14  1  0
 14 15  2  3
 15 16  1  0
 15 17  1  0
 18 19  2  0
 18 20  1  1
 18 21  1  0
 21 22  1  0
 22 23  1  6
 22 24  1  0
 22 25  2  0
  1 26  1  0
  1 27  1  0
  6 28  1  0
  6 29  1  0
  6 30  1  0
  7 31  1  0
  7 32  1  0
  8 33  1  0
  8 34  1  0
  9 35  1  0
 11 36  1  0
 11 37  1  0
 11 38  1  0
 12 39  1  0
 12 40  1  0
 13 41  1  0
 13 42  1  0
 14 43  1  0
 16 44  1  0
 16 45  1  0
 16 46  1  0
 17 47  1  0
 17 48  1  0
 17 49  1  0
M  CHG  3  20  -1  23  -1  24  -1
M  END
>  <filename_input>  (11) 
7XQZ_FPF_docked.sdf

>  <pdb_id>  (11) 
7XQZ_FPF

>  <pose_rank>  (11) 
10

>  <num_atoms_heavy>  (11) 
25

>  <num_torsions>  (11) 
11

>  <pose>  (11) 
[-19.834903787728635, -1.8428878751367692, -18.167781439313593, -0.5826786541305069, 2.0060096594776367, -1.1415260708181112, -12.81175318617993, -1.5837045327120947, -7.70623827147752, -0.8223839255324125, -3.4392019554698345, -18.356048139345027, -17.981794887026542, 5.205049140701322, -5.393753170791381, -8.026650843939398, -3.8699090797351667]

>  <energy>  (11) 
-587.7182269822381

>  <inter_energy>  (11) 
-607.1638272990982

>  <intra_energy>  (11) 
20.651854071423546

>  <rmsd>  (11) 
5.5401

>  <sdf_rank>  (11) 
0

$$$$

     RDKit          3D

 49 48  0  0  0  0  0  0  0  0999 V2000
  -17.7329   -3.0594  -18.7509 C   0  0  0  0  0  0  0  0  0  0  0  0
  -18.6569   -3.9464  -19.3431 O   0  0  0  0  0  0  0  0  0  0  0  0
  -18.4942   -1.8457  -18.3226 C   0  0  0  0  0  0  0  0  0  0  0  0
  -19.1449   -1.2396  -19.3473 F   0  0  0  0  0  0  0  0  0  0  0  0
  -18.5576   -1.3815  -17.0824 C   0  0  0  0  0  0  0  0  0  0  0  0
  -18.1258   -2.1761  -15.8931 C   0  0  0  0  0  0  0  0  0  0  0  0
  -19.0518    0.0074  -16.7919 C   0  0  0  0  0  0  0  0  0  0  0  0
  -18.4028    1.0599  -17.6589 C   0  0  0  0  0  0  0  0  0  0  0  0
  -19.3375    2.1735  -18.0186 C   0  0  0  0  0  0  0  0  0  0  0  0
  -20.1494    2.2650  -19.0665 C   0  0  0  0  0  0  0  0  0  0  0  0
  -20.0006    1.4378  -20.3073 C   0  0  0  0  0  0  0  0  0  0  0  0
  -21.3097    3.2197  -19.0645 C   0  0  0  0  0  0  0  0  0  0  0  0
  -21.9564    3.4575  -20.4122 C   0  0  0  0  0  0  0  0  0  0  0  0
  -23.1457    2.5852  -20.6402 C   0  0  0  0  0  0  0  0  0  0  0  0
  -24.3676    2.7210  -20.1541 C   0  0  0  0  0  0  0  0  0  0  0  0
  -25.3298    1.5789  -20.0600 C   0  0  0  0  0  0  0  0  0  0  0  0
  -24.8995    4.0225  -19.6520 C   0  0  0  0  0  0  0  0  0  0  0  0
  -19.6895   -4.7677  -18.4462 P   0  0  1  0  0  0  0  0  0  0  0  0
  -19.0380   -5.2783  -17.2139 O   0  0  0  0  0  0  0  0  0  0  0  0
  -20.8498   -3.8474  -18.3678 O   0  0  0  0  0  0  0  0  0  0  0  0
  -20.0108   -5.9924  -19.4245 O   0  0  0  0  0  0  0  0  0  0  0  0
  -19.6090   -6.4239  -20.9180 P   0  0  1  0  0  0  0  0  0  0  0  0
  -20.6549   -7.3902  -21.3344 O   0  0  0  0  0  0  0  0  0  0  0  0
  -19.6156   -5.1696  -21.7198 O   0  0  0  0  0  0  0  0  0  0  0  0
  -18.2602   -7.0306  -20.8372 O   0  0  0  0  0  0  0  0  0  0  0  0
  -17.2605   -3.5348  -17.8787 H   0  0  0  0  0  0  0  0  0  0  0  0
  -16.9394   -2.7903  -19.4637 H   0  0  0  0  0  0  0  0  0  0  0  0
  -18.4140   -1.6458  -14.9735 H   0  0  0  0  0  0  0  0  0  0  0  0
  -18.6120   -3.1626  -15.9151 H   0  0  0  0  0  0  0  0  0  0  0  0
  -17.0336   -2.3050  -15.9151 H   0  0  0  0  0  0  0  0  0  0  0  0
  -20.1383    0.0351  -16.9616 H   0  0  0  0  0  0  0  0  0  0  0  0
  -18.7924    0.2364  -15.7478 H   0  0  0  0  0  0  0  0  0  0  0  0
  -17.5451    1.4828  -17.1153 H   0  0  0  0  0  0  0  0  0  0  0  0
  -18.0928    0.5725  -18.5950 H   0  0  0  0  0  0  0  0  0  0  0  0
  -19.3540    3.0270  -17.3248 H   0  0  0  0  0  0  0  0  0  0  0  0
  -19.8123    0.3903  -20.0293 H   0  0  0  0  0  0  0  0  0  0  0  0
  -20.9242    1.4990  -20.9017 H   0  0  0  0  0  0  0  0  0  0  0  0
  -19.1563    1.8170  -20.9017 H   0  0  0  0  0  0  0  0  0  0  0  0
  -22.0772    2.8199  -18.3854 H   0  0  0  0  0  0  0  0  0  0  0  0
  -20.9025    4.1913  -18.7478 H   0  0  0  0  0  0  0  0  0  0  0  0
  -22.2744    4.5089  -20.4698 H   0  0  0  0  0  0  0  0  0  0  0  0
  -21.2127    3.2155  -21.1858 H   0  0  0  0  0  0  0  0  0  0  0  0
  -22.9849    1.7177  -21.2971 H   0  0  0  0  0  0  0  0  0  0  0  0
  -25.5236    1.3490  -19.0019 H   0  0  0  0  0  0  0  0  0  0  0  0
  -26.2735    1.8528  -20.5545 H   0  0  0  0  0  0  0  0  0  0  0  0
  -24.8998    0.6954  -20.5545 H   0  0  0  0  0  0  0  0  0  0  0  0
  -24.8982    4.0192  -18.5520 H   0  0  0  0  0  0  0  0  0  0  0  0
  -24.2647    4.8433  -20.0170 H   0  0  0  0  0  0  0  0  0  0  0  0
  -25.9275    4.1638  -20.0170 H   0  0  0  0  0  0  0  0  0  0  0  0
  1  2  1  0
  1  3  1  0
  2 18  1  0
  3  4  1  0
  3  5  2  3
  5  6  1  0
  5  7  1  0
  7  8  1  0
  8  9  1  0
  9 10  2  3
 10 11  1  0
 10 12  1  0
 12 13  1  0
 13 14  1  0
 14 15  2  3
 15 16  1  0
 15 17  1  0
 18 19  2  0
 18 20  1  1
 18 21  1  0
 21 22  1  0
 22 23  1  6
 22 24  1  0
 22 25  2  0
  1 26  1  0
  1 27  1  0
  6 28  1  0
  6 29  1  0
  6 30  1  0
  7 31  1  0
  7 32  1  0
  8 33  1  0
  8 34  1  0
  9 35  1  0
 11 36  1  0
 11 37  1  0
 11 38  1  0
 12 39  1  0
 12 40  1  0
 13 41  1  0
 13 42  1  0
 14 43  1  0
 16 44  1  0
 16 45  1  0
 16 46  1  0
 17 47  1  0
 17 48  1  0
 17 49  1  0
M  CHG  3  20  -1  23  -1  24  -1
M  END
>  <filename_input>  (12) 
7XQZ_FPF_docked.sdf

>  <pdb_id>  (12) 
7XQZ_FPF

>  <pose_rank>  (12) 
11

>  <num_atoms_heavy>  (12) 
25

>  <num_torsions>  (12) 
11

>  <pose>  (12) 
[-18.494198373698485, -1.8456652271858482, -18.322585383671754, 0.8928135470274638, -0.002696778171757775, 2.7017182372839823, -6.201874751654224, 1.702241656822336, 11.575999006654728, 2.8509113131749118, 1.0748683212034131, 13.14012557444079, 7.781625438169387, 6.8806667279107625, 0.6834591583958264, 3.1100579500302845, 0.1060771283601866]

>  <energy>  (12) 
-594.3444036423309

>  <inter_energy>  (12) 
-618.7963912525155

>  <intra_energy>  (12) 
36.0537730242106

>  <rmsd>  (12) 
7.7202

>  <sdf_rank>  (12) 
0

$$$$

     RDKit          3D

 49 48  0  0  0  0  0  0  0  0999 V2000
  -19.1744   -1.5718  -19.7943 C   0  0  0  0  0  0  0  0  0  0  0  0
  -18.6516   -0.4347  -19.1424 O   0  0  0  0  0  0  0  0  0  0  0  0
  -18.6128   -2.7752  -19.1067 C   0  0  0  0  0  0  0  0  0  0  0  0
  -17.2583   -2.7582  -19.0314 F   0  0  0  0  0  0  0  0  0  0  0  0
  -19.3283   -3.7718  -18.6044 C   0  0  0  0  0  0  0  0  0  0  0  0
  -20.8041   -3.6855  -18.3879 C   0  0  0  0  0  0  0  0  0  0  0  0
  -18.6931   -5.0835  -18.2391 C   0  0  0  0  0  0  0  0  0  0  0  0
  -19.7014   -6.1784  -17.9833 C   0  0  0  0  0  0  0  0  0  0  0  0
  -20.6483   -6.3748  -19.1270 C   0  0  0  0  0  0  0  0  0  0  0  0
  -20.4106   -6.9296  -20.3108 C   0  0  0  0  0  0  0  0  0  0  0  0
  -19.0367   -7.1174  -20.8793 C   0  0  0  0  0  0  0  0  0  0  0  0
  -21.5368   -7.4318  -21.1694 C   0  0  0  0  0  0  0  0  0  0  0  0
  -21.1825   -7.6900  -22.6182 C   0  0  0  0  0  0  0  0  0  0  0  0
  -21.1302   -9.1451  -22.9459 C   0  0  0  0  0  0  0  0  0  0  0  0
  -21.3517   -9.7323  -24.1095 C   0  0  0  0  0  0  0  0  0  0  0  0
  -21.7275  -11.1759  -24.2260 C   0  0  0  0  0  0  0  0  0  0  0  0
  -21.2507   -9.0110  -25.4128 C   0  0  0  0  0  0  0  0  0  0  0  0
  -19.4422    0.2511  -17.9382 P   0  0  1  0  0  0  0  0  0  0  0  0
  -20.7180   -0.4570  -17.6651 O   0  0  0  0  0  0  0  0  0  0  0  0
  -18.3972    0.3666  -16.8923 O   0  0  0  0  0  0  0  0  0  0  0  0
  -19.7556    1.6840  -18.5779 O   0  0  0  0  0  0  0  0  0  0  0  0
  -20.7972    2.2778  -19.6458 P   0  0  1  0  0  0  0  0  0  0  0  0
  -20.6206    3.7494  -19.5789 O   0  0  0  0  0  0  0  0  0  0  0  0
  -20.4069    1.6987  -20.9606 O   0  0  0  0  0  0  0  0  0  0  0  0
  -22.1444    1.8368  -19.2166 O   0  0  0  0  0  0  0  0  0  0  0  0
  -20.2720   -1.5753  -19.7229 H   0  0  0  0  0  0  0  0  0  0  0  0
  -18.9022   -1.5695  -20.8601 H   0  0  0  0  0  0  0  0  0  0  0  0
  -21.0163   -3.6731  -17.3086 H   0  0  0  0  0  0  0  0  0  0  0  0
  -21.1889   -2.7633  -18.8478 H   0  0  0  0  0  0  0  0  0  0  0  0
  -21.2938   -4.5565  -18.8478 H   0  0  0  0  0  0  0  0  0  0  0  0
  -18.0375   -5.3972  -19.0649 H   0  0  0  0  0  0  0  0  0  0  0  0
  -18.1330   -4.9283  -17.3052 H   0  0  0  0  0  0  0  0  0  0  0  0
  -19.1607   -7.1203  -17.8091 H   0  0  0  0  0  0  0  0  0  0  0  0
  -20.2972   -5.8815  -17.1076 H   0  0  0  0  0  0  0  0  0  0  0  0
  -21.6744   -6.0125  -18.9660 H   0  0  0  0  0  0  0  0  0  0  0  0
  -18.3108   -7.2166  -20.0588 H   0  0  0  0  0  0  0  0  0  0  0  0
  -19.0171   -8.0266  -21.4982 H   0  0  0  0  0  0  0  0  0  0  0  0
  -18.7738   -6.2468  -21.4982 H   0  0  0  0  0  0  0  0  0  0  0  0
  -21.8999   -8.3751  -20.7354 H   0  0  0  0  0  0  0  0  0  0  0  0
  -22.2909   -6.6311  -21.1795 H   0  0  0  0  0  0  0  0  0  0  0  0
  -21.9402   -7.2122  -23.2566 H   0  0  0  0  0  0  0  0  0  0  0  0
  -20.1805   -7.2724  -22.7956 H   0  0  0  0  0  0  0  0  0  0  0  0
  -20.8745   -9.8152  -22.1119 H   0  0  0  0  0  0  0  0  0  0  0  0
  -21.8400  -11.6078  -23.2206 H   0  0  0  0  0  0  0  0  0  0  0  0
  -22.6786  -11.2643  -24.7715 H   0  0  0  0  0  0  0  0  0  0  0  0
  -20.9403  -11.7169  -24.7715 H   0  0  0  0  0  0  0  0  0  0  0  0
  -21.1005   -7.9373  -25.2269 H   0  0  0  0  0  0  0  0  0  0  0  0
  -20.3992   -9.4066  -25.9858 H   0  0  0  0  0  0  0  0  0  0  0  0
  -22.1782   -9.1577  -25.9858 H   0  0  0  0  0  0  0  0  0  0  0  0
  1  2  1  0
  1  3  1  0
  2 18  1  0
  3  4  1  0
  3  5  2  3
  5  6  1  0
  5  7  1  0
  7  8  1  0
  8  9  1  0
  9 10  2  3
 10 11  1  0
 10 12  1  0
 12 13  1  0
 13 14  1  0
 14 15  2  3
 15 16  1  0
 15 17  1  0
 18 19  2  0
 18 20  1  1
 18 21  1  0
 21 22  1  0
 22 23  1  6
 22 24  1  0
 22 25  2  0
  1 26  1  0
  1 27  1  0
  6 28  1  0
  6 29  1  0
  6 30  1  0
  7 31  1  0
  7 32  1  0
  8 33  1  0
  8 34  1  0
  9 35  1  0
 11 36  1  0
 11 37  1  0
 11 38  1  0
 12 39  1  0
 12 40  1  0
 13 41  1  0
 13 42  1  0
 14 43  1  0
 16 44  1  0
 16 45  1  0
 16 46  1  0
 17 47  1  0
 17 48  1  0
 17 49  1  0
M  CHG  3  20  -1  23  -1  24  -1
M  END
>  <filename_input>  (13) 
7XQZ_FPF_docked.sdf

>  <pdb_id>  (13) 
7XQZ_FPF

>  <pose_rank>  (13) 
12

>  <num_atoms_heavy>  (13) 
25

>  <num_torsions>  (13) 
11

>  <pose>  (13) 
[-18.612795520866744, -2.7752026969934707, -19.10674220809233, -1.793184022237877, 4.160480916675389, 0.14582951827023857, -6.125671864638151, 1.3846007225282677, -6.563322487165878, 4.2567796250420145, -5.713949599828389, 17.3601656502329, 18.772535979775117, 16.007483237091698, 13.207720412426728, 3.332583185237604, 1.407354434152636]

>  <energy>  (13) 
-570.187287257823

>  <inter_energy>  (13) 
-615.0825763341055

>  <intra_energy>  (13) 
44.015525034104805

>  <rmsd>  (13) 
3.69692

>  <sdf_rank>  (13) 
0

$$$$

     RDKit          3D

 49 48  0  0  0  0  0  0  0  0999 V2000
  -19.7895   -3.1746  -17.1850 C   0  0  0  0  0  0  0  0  0  0  0  0
  -19.6221   -2.2546  -18.2417 O   0  0  0  0  0  0  0  0  0  0  0  0
  -19.6703   -4.5468  -17.7676 C   0  0  0  0  0  0  0  0  0  0  0  0
  -18.5189   -5.1728  -17.4168 F   0  0  0  0  0  0  0  0  0  0  0  0
  -20.5738   -5.1287  -18.5437 C   0  0  0  0  0  0  0  0  0  0  0  0
  -21.9681   -4.6138  -18.6964 C   0  0  0  0  0  0  0  0  0  0  0  0
  -20.2391   -6.3493  -19.3535 C   0  0  0  0  0  0  0  0  0  0  0  0
  -20.5961   -6.2067  -20.8139 C   0  0  0  0  0  0  0  0  0  0  0  0
  -20.1569   -7.3789  -21.6364 C   0  0  0  0  0  0  0  0  0  0  0  0
  -20.8880   -8.1469  -22.4372 C   0  0  0  0  0  0  0  0  0  0  0  0
  -22.3830   -8.2295  -22.3715 C   0  0  0  0  0  0  0  0  0  0  0  0
  -20.2426   -8.9917  -23.4990 C   0  0  0  0  0  0  0  0  0  0  0  0
  -20.7001   -8.7150  -24.9151 C   0  0  0  0  0  0  0  0  0  0  0  0
  -21.3832   -9.8871  -25.5371 C   0  0  0  0  0  0  0  0  0  0  0  0
  -22.6020   -9.9515  -26.0452 C   0  0  0  0  0  0  0  0  0  0  0  0
  -23.3410  -11.2424  -26.2080 C   0  0  0  0  0  0  0  0  0  0  0  0
  -23.3546   -8.7450  -26.5001 C   0  0  0  0  0  0  0  0  0  0  0  0
  -18.1987   -1.5948  -18.5314 P   0  0  1  0  0  0  0  0  0  0  0  0
  -17.1393   -2.2263  -17.7052 O   0  0  0  0  0  0  0  0  0  0  0  0
  -18.1267   -1.6233  -20.0123 O   0  0  0  0  0  0  0  0  0  0  0  0
  -18.4606   -0.1042  -18.0117 O   0  0  0  0  0  0  0  0  0  0  0  0
  -19.3621    1.1441  -18.4667 P   0  0  1  0  0  0  0  0  0  0  0  0
  -20.7486    0.7765  -18.0877 O   0  0  0  0  0  0  0  0  0  0  0  0
  -18.8399    2.3186  -17.7156 O   0  0  0  0  0  0  0  0  0  0  0  0
  -19.1813    1.2886  -19.9296 O   0  0  0  0  0  0  0  0  0  0  0  0
  -19.0106   -3.0197  -16.4239 H   0  0  0  0  0  0  0  0  0  0  0  0
  -20.7689   -3.0399  -16.7026 H   0  0  0  0  0  0  0  0  0  0  0  0
  -22.4097   -4.4507  -17.7023 H   0  0  0  0  0  0  0  0  0  0  0  0
  -21.9494   -3.6633  -19.2498 H   0  0  0  0  0  0  0  0  0  0  0  0
  -22.5717   -5.3484  -19.2498 H   0  0  0  0  0  0  0  0  0  0  0  0
  -19.1581   -6.5367  -19.2739 H   0  0  0  0  0  0  0  0  0  0  0  0
  -20.8321   -7.1834  -18.9504 H   0  0  0  0  0  0  0  0  0  0  0  0
  -21.6881   -6.1062  -20.9005 H   0  0  0  0  0  0  0  0  0  0  0  0
  -20.0726   -5.3186  -21.1975 H   0  0  0  0  0  0  0  0  0  0  0  0
  -19.0899   -7.6377  -21.5687 H   0  0  0  0  0  0  0  0  0  0  0  0
  -22.7034   -8.2472  -21.3193 H   0  0  0  0  0  0  0  0  0  0  0  0
  -22.8210   -7.3542  -22.8735 H   0  0  0  0  0  0  0  0  0  0  0  0
  -22.7219   -9.1477  -22.8735 H   0  0  0  0  0  0  0  0  0  0  0  0
  -19.1566   -8.8226  -23.4539 H   0  0  0  0  0  0  0  0  0  0  0  0
  -20.5375  -10.0291  -23.2821 H   0  0  0  0  0  0  0  0  0  0  0  0
  -21.4001   -7.8667  -24.8997 H   0  0  0  0  0  0  0  0  0  0  0  0
  -19.8063   -8.4928  -25.5164 H   0  0  0  0  0  0  0  0  0  0  0  0
  -20.7972  -10.8171  -25.5780 H   0  0  0  0  0  0  0  0  0  0  0  0
  -23.5781  -11.6567  -25.2169 H   0  0  0  0  0  0  0  0  0  0  0  0
  -24.2735  -11.0636  -26.7633 H   0  0  0  0  0  0  0  0  0  0  0  0
  -22.7145  -11.9560  -26.7633 H   0  0  0  0  0  0  0  0  0  0  0  0
  -23.7066   -8.1806  -25.6240 H   0  0  0  0  0  0  0  0  0  0  0  0
  -22.6937   -8.1074  -27.1057 H   0  0  0  0  0  0  0  0  0  0  0  0
  -24.2178   -9.0580  -27.1057 H   0  0  0  0  0  0  0  0  0  0  0  0
  1  2  1  0
  1  3  1  0
  2 18  1  0
  3  4  1  0
  3  5  2  3
  5  6  1  0
  5  7  1  0
  7  8  1  0
  8  9  1  0
  9 10  2  3
 10 11  1  0
 10 12  1  0
 12 13  1  0
 13 14  1  0
 14 15  2  3
 15 16  1  0
 15 17  1  0
 18 19  2  0
 18 20  1  6
 18 21  1  0
 21 22  1  0
 22 23  1  6
 22 24  1  0
 22 25  2  0
  1 26  1  0
  1 27  1  0
  6 28  1  0
  6 29  1  0
  6 30  1  0
  7 31  1  0
  7 32  1  0
  8 33  1  0
  8 34  1  0
  9 35  1  0
 11 36  1  0
 11 37  1  0
 11 38  1  0
 12 39  1  0
 12 40  1  0
 13 41  1  0
 13 42  1  0
 14 43  1  0
 16 44  1  0
 16 45  1  0
 16 46  1  0
 17 47  1  0
 17 48  1  0
 17 49  1  0
M  CHG  3  20  -1  23  -1  24  -1
M  END
>  <filename_input>  (14) 
7XQZ_FPF_docked.sdf

>  <pdb_id>  (14) 
7XQZ_FPF

>  <pose_rank>  (14) 
13

>  <num_atoms_heavy>  (14) 
25

>  <num_torsions>  (14) 
11

>  <pose>  (14) 
[-19.67028205986909, -4.546753689767701, -17.767581230843046, -1.7615919756821001, 2.8561149583437957, 1.4227641209715243, -3.2976340152222177, 1.3202662606747215, -0.12750515865343812, 1.732188445895704, -1.1326135514250084, -0.8055631269593474, -4.256504316879397, -1.9323301058952473, -4.342896336874777, -0.5922270608540426, 0.8918151120751765]

>  <energy>  (14) 
-549.3241482207902

>  <inter_energy>  (14) 
-556.330366636921

>  <intra_energy>  (14) 
6.346382541455221

>  <rmsd>  (14) 
5.70306

>  <sdf_rank>  (14) 
0

$$$$

     RDKit          3D

 49 48  0  0  0  0  0  0  0  0999 V2000
  -21.0733   -6.1001  -20.4189 C   0  0  0  0  0  0  0  0  0  0  0  0
  -20.9599   -7.4997  -20.5590 O   0  0  0  0  0  0  0  0  0  0  0  0
  -20.1848   -5.6936  -19.2869 C   0  0  0  0  0  0  0  0  0  0  0  0
  -18.9830   -6.3230  -19.3045 F   0  0  0  0  0  0  0  0  0  0  0  0
  -20.4977   -4.8109  -18.3486 C   0  0  0  0  0  0  0  0  0  0  0  0
  -21.6600   -3.8790  -18.4633 C   0  0  0  0  0  0  0  0  0  0  0  0
  -19.7050   -4.7080  -17.0764 C   0  0  0  0  0  0  0  0  0  0  0  0
  -18.3153   -4.1561  -17.2882 C   0  0  0  0  0  0  0  0  0  0  0  0
  -18.2891   -2.6603  -17.3612 C   0  0  0  0  0  0  0  0  0  0  0  0
  -18.5303   -1.8797  -18.4092 C   0  0  0  0  0  0  0  0  0  0  0  0
  -18.4948   -2.3600  -19.8284 C   0  0  0  0  0  0  0  0  0  0  0  0
  -18.8792   -0.4294  -18.2289 C   0  0  0  0  0  0  0  0  0  0  0  0
  -19.6066    0.2120  -19.3911 C   0  0  0  0  0  0  0  0  0  0  0  0
  -20.3730    1.4276  -18.9882 C   0  0  0  0  0  0  0  0  0  0  0  0
  -20.9755    2.3120  -19.7645 C   0  0  0  0  0  0  0  0  0  0  0  0
  -21.2996    3.6991  -19.3065 C   0  0  0  0  0  0  0  0  0  0  0  0
  -21.3852    2.0113  -21.1683 C   0  0  0  0  0  0  0  0  0  0  0  0
  -20.1647   -8.1350  -21.7876 P   0  0  1  0  0  0  0  0  0  0  0  0
  -19.9926   -7.1459  -22.8811 O   0  0  0  0  0  0  0  0  0  0  0  0
  -18.9885   -8.7496  -21.1257 O   0  0  0  0  0  0  0  0  0  0  0  0
  -21.2010   -9.2634  -22.2493 O   0  0  0  0  0  0  0  0  0  0  0  0
  -21.2826  -10.3575  -23.4216 P   0  0  1  0  0  0  0  0  0  0  0  0
  -20.4876  -11.5095  -22.9294 O   0  0  0  0  0  0  0  0  0  0  0  0
  -22.7287  -10.6699  -23.5871 O   0  0  0  0  0  0  0  0  0  0  0  0
  -20.7027   -9.7291  -24.6311 O   0  0  0  0  0  0  0  0  0  0  0  0
  -20.7538   -5.6018  -21.3460 H   0  0  0  0  0  0  0  0  0  0  0  0
  -22.1159   -5.8118  -20.2189 H   0  0  0  0  0  0  0  0  0  0  0  0
  -22.0074   -3.6005  -17.4575 H   0  0  0  0  0  0  0  0  0  0  0  0
  -21.3524   -2.9745  -19.0085 H   0  0  0  0  0  0  0  0  0  0  0  0
  -22.4760   -4.3759  -19.0085 H   0  0  0  0  0  0  0  0  0  0  0  0
  -20.2425   -4.0462  -16.3814 H   0  0  0  0  0  0  0  0  0  0  0  0
  -19.5961   -5.7260  -16.6742 H   0  0  0  0  0  0  0  0  0  0  0  0
  -17.6780   -4.4782  -16.4515 H   0  0  0  0  0  0  0  0  0  0  0  0
  -17.9496   -4.5409  -18.2516 H   0  0  0  0  0  0  0  0  0  0  0  0
  -18.0375   -2.1401  -16.4252 H   0  0  0  0  0  0  0  0  0  0  0  0
  -18.4138   -3.4570  -19.8423 H   0  0  0  0  0  0  0  0  0  0  0  0
  -19.4180   -2.0540  -20.3423 H   0  0  0  0  0  0  0  0  0  0  0  0
  -17.6266   -1.9217  -20.3423 H   0  0  0  0  0  0  0  0  0  0  0  0
  -19.5190   -0.3424  -17.3383 H   0  0  0  0  0  0  0  0  0  0  0  0
  -17.9215    0.1041  -18.1387 H   0  0  0  0  0  0  0  0  0  0  0  0
  -18.8679    0.4982  -20.1543 H   0  0  0  0  0  0  0  0  0  0  0  0
  -20.3274   -0.5227  -19.7793 H   0  0  0  0  0  0  0  0  0  0  0  0
  -20.4459    1.6114  -17.9062 H   0  0  0  0  0  0  0  0  0  0  0  0
  -21.3068    3.7299  -18.2069 H   0  0  0  0  0  0  0  0  0  0  0  0
  -20.5405    4.3979  -19.6879 H   0  0  0  0  0  0  0  0  0  0  0  0
  -22.2897    3.9893  -19.6879 H   0  0  0  0  0  0  0  0  0  0  0  0
  -22.2719    1.3604  -21.1601 H   0  0  0  0  0  0  0  0  0  0  0  0
  -21.6242    2.9500  -21.6896 H   0  0  0  0  0  0  0  0  0  0  0  0
  -20.5613    1.5019  -21.6896 H   0  0  0  0  0  0  0  0  0  0  0  0
  1  2  1  0
  1  3  1  0
  2 18  1  0
  3  4  1  0
  3  5  2  3
  5  6  1  0
  5  7  1  0
  7  8  1  0
  8  9  1  0
  9 10  2  3
 10 11  1  0
 10 12  1  0
 12 13  1  0
 13 14  1  0
 14 15  2  3
 15 16  1  0
 15 17  1  0
 18 19  2  0
 18 20  1  1
 18 21  1  0
 21 22  1  0
 22 23  1  1
 22 24  1  0
 22 25  2  0
  1 26  1  0
  1 27  1  0
  6 28  1  0
  6 29  1  0
  6 30  1  0
  7 31  1  0
  7 32  1  0
  8 33  1  0
  8 34  1  0
  9 35  1  0
 11 36  1  0
 11 37  1  0
 11 38  1  0
 12 39  1  0
 12 40  1  0
 13 41  1  0
 13 42  1  0
 14 43  1  0
 16 44  1  0
 16 45  1  0
 16 46  1  0
 17 47  1  0
 17 48  1  0
 17 49  1  0
M  CHG  3  20  -1  23  -1  24  -1
M  END
>  <filename_input>  (15) 
7XQZ_FPF_docked.sdf

>  <pdb_id>  (15) 
7XQZ_FPF

>  <pose_rank>  (15) 
14

>  <num_atoms_heavy>  (15) 
25

>  <num_torsions>  (15) 
11

>  <pose>  (15) 
[-20.184789226810423, -5.693602987074901, -19.28685129872944, 2.9795237972961366, 3.0515998130565944, -2.375874156483133, 1.834311628485778, 1.1240427686653025, -0.5865617646122854, -0.2718484638872322, -0.9798176177037706, 15.20257279125508, 6.685934993224506, -5.574902846815048, -4.991191590551714, 4.2012100346761905, 1.732563430448107]

>  <energy>  (15) 
-539.7897662679834

>  <inter_energy>  (15) 
-550.695582554879

>  <intra_energy>  (15) 
14.190600049964015

>  <rmsd>  (15) 
8.95306

>  <sdf_rank>  (15) 
0

$$$$

     RDKit          3D

 49 48  0  0  0  0  0  0  0  0999 V2000
  -19.7313   -6.7448  -20.8216 C   0  0  0  0  0  0  0  0  0  0  0  0
  -20.7956   -7.5760  -21.2308 O   0  0  0  0  0  0  0  0  0  0  0  0
  -19.8273   -6.5990  -19.3364 C   0  0  0  0  0  0  0  0  0  0  0  0
  -19.3683   -7.6860  -18.6668 F   0  0  0  0  0  0  0  0  0  0  0  0
  -20.2985   -5.5347  -18.7017 C   0  0  0  0  0  0  0  0  0  0  0  0
  -20.5172   -4.2178  -19.3729 C   0  0  0  0  0  0  0  0  0  0  0  0
  -20.6737   -5.5939  -17.2481 C   0  0  0  0  0  0  0  0  0  0  0  0
  -19.6725   -4.9072  -16.3500 C   0  0  0  0  0  0  0  0  0  0  0  0
  -19.3945   -3.4946  -16.7632 C   0  0  0  0  0  0  0  0  0  0  0  0
  -18.3011   -3.0005  -17.3341 C   0  0  0  0  0  0  0  0  0  0  0  0
  -16.9719   -3.6929  -17.3210 C   0  0  0  0  0  0  0  0  0  0  0  0
  -18.3356   -1.6869  -18.0628 C   0  0  0  0  0  0  0  0  0  0  0  0
  -18.6562   -0.4794  -17.2082 C   0  0  0  0  0  0  0  0  0  0  0  0
  -18.9085    0.7475  -18.0197 C   0  0  0  0  0  0  0  0  0  0  0  0
  -20.0110    1.0938  -18.6618 C   0  0  0  0  0  0  0  0  0  0  0  0
  -20.0116    2.0721  -19.7940 C   0  0  0  0  0  0  0  0  0  0  0  0
  -21.3549    0.5403  -18.3203 C   0  0  0  0  0  0  0  0  0  0  0  0
  -20.5179   -8.9025  -22.0725 P   0  0  1  0  0  0  0  0  0  0  0  0
  -19.1306   -8.9191  -22.6007 O   0  0  0  0  0  0  0  0  0  0  0  0
  -20.9970   -9.9685  -21.1596 O   0  0  0  0  0  0  0  0  0  0  0  0
  -21.5451   -8.6970  -23.2821 O   0  0  0  0  0  0  0  0  0  0  0  0
  -21.9770   -9.5175  -24.5928 P   0  0  1  0  0  0  0  0  0  0  0  0
  -22.9067   -8.6192  -25.3208 O   0  0  0  0  0  0  0  0  0  0  0  0
  -20.7168   -9.7870  -25.3381 O   0  0  0  0  0  0  0  0  0  0  0  0
  -22.6263  -10.7623  -24.1208 O   0  0  0  0  0  0  0  0  0  0  0  0
  -18.7692   -7.2036  -21.0935 H   0  0  0  0  0  0  0  0  0  0  0  0
  -19.7919   -5.7631  -21.3142 H   0  0  0  0  0  0  0  0  0  0  0  0
  -20.6472   -3.4351  -18.6110 H   0  0  0  0  0  0  0  0  0  0  0  0
  -19.6467   -3.9773  -20.0009 H   0  0  0  0  0  0  0  0  0  0  0  0
  -21.4187   -4.2715  -20.0009 H   0  0  0  0  0  0  0  0  0  0  0  0
  -21.6517   -5.1073  -17.1188 H   0  0  0  0  0  0  0  0  0  0  0  0
  -20.7006   -6.6549  -16.9589 H   0  0  0  0  0  0  0  0  0  0  0  0
  -20.0672   -4.9017  -15.3233 H   0  0  0  0  0  0  0  0  0  0  0  0
  -18.7270   -5.4649  -16.4210 H   0  0  0  0  0  0  0  0  0  0  0  0
  -20.2007   -2.7720  -16.5687 H   0  0  0  0  0  0  0  0  0  0  0  0
  -16.6548   -3.8580  -16.2808 H   0  0  0  0  0  0  0  0  0  0  0  0
  -17.0576   -4.6609  -17.8363 H   0  0  0  0  0  0  0  0  0  0  0  0
  -16.2278   -3.0678  -17.8363 H   0  0  0  0  0  0  0  0  0  0  0  0
  -17.3483   -1.5265  -18.5204 H   0  0  0  0  0  0  0  0  0  0  0  0
  -19.1536   -1.7670  -18.7939 H   0  0  0  0  0  0  0  0  0  0  0  0
  -19.5543   -0.6982  -16.6120 H   0  0  0  0  0  0  0  0  0  0  0  0
  -17.7829   -0.2823  -16.5691 H   0  0  0  0  0  0  0  0  0  0  0  0
  -18.0691    1.4546  -18.0929 H   0  0  0  0  0  0  0  0  0  0  0  0
  -20.0122    3.0965  -19.3935 H   0  0  0  0  0  0  0  0  0  0  0  0
  -19.1133    1.9199  -20.4105 H   0  0  0  0  0  0  0  0  0  0  0  0
  -20.9096    1.9189  -20.4105 H   0  0  0  0  0  0  0  0  0  0  0  0
  -21.4656    0.4947  -17.2269 H   0  0  0  0  0  0  0  0  0  0  0  0
  -22.1366    1.1897  -18.7412 H   0  0  0  0  0  0  0  0  0  0  0  0
  -21.4526   -0.4712  -18.7412 H   0  0  0  0  0  0  0  0  0  0  0  0
  1  2  1  0
  1  3  1  0
  2 18  1  0
  3  4  1  0
  3  5  2  3
  5  6  1  0
  5  7  1  0
  7  8  1  0
  8  9  1  0
  9 10  2  3
 10 11  1  0
 10 12  1  0
 12 13  1  0
 13 14  1  0
 14 15  2  3
 15 16  1  0
 15 17  1  0
 18 19  2  0
 18 20  1  1
 18 21  1  0
 21 22  1  0
 22 23  1  6
 22 24  1  0
 22 25  2  0
  1 26  1  0
  1 27  1  0
  6 28  1  0
  6 29  1  0
  6 30  1  0
  7 31  1  0
  7 32  1  0
  8 33  1  0
  8 34  1  0
  9 35  1  0
 11 36  1  0
 11 37  1  0
 11 38  1  0
 12 39  1  0
 12 40  1  0
 13 41  1  0
 13 42  1  0
 14 43  1  0
 16 44  1  0
 16 45  1  0
 16 46  1  0
 17 47  1  0
 17 48  1  0
 17 49  1  0
M  CHG  3  20  -1  23  -1  24  -1
M  END
>  <filename_input>  (16) 
7XQZ_FPF_docked.sdf

>  <pdb_id>  (16) 
7XQZ_FPF

>  <pose_rank>  (16) 
15

>  <num_atoms_heavy>  (16) 
25

>  <num_torsions>  (16) 
11

>  <pose>  (16) 
[-19.827269048125935, -6.598988952842752, -19.33636864710075, 3.1080003238428433, 3.1614006299934934, 0.3446323069765742, 8.729793011175303, 7.1065882813213825, 24.622409435162492, 6.068767834313208, 0.8130610416888848, -3.0158238533983095, 6.188614002921027, -5.996799499352258, -1.1081559351900343, -1.523068454746505, 0.14514774908619027]

>  <energy>  (16) 
-487.4375873670991

>  <inter_energy>  (16) 
-524.7336025798023

>  <intra_energy>  (16) 
36.19921560318016

>  <rmsd>  (16) 
8.86321

>  <sdf_rank>  (16) 
0

$$$$

     RDKit          3D

 49 48  0  0  0  0  0  0  0  0999 V2000
  -18.5281   -4.9282  -19.6733 C   0  0  0  0  0  0  0  0  0  0  0  0
  -19.9384   -4.8792  -19.6697 O   0  0  0  0  0  0  0  0  0  0  0  0
  -18.0358   -3.5796  -19.2547 C   0  0  0  0  0  0  0  0  0  0  0  0
  -18.5766   -2.5694  -19.9811 F   0  0  0  0  0  0  0  0  0  0  0  0
  -17.1684   -3.3519  -18.2783 C   0  0  0  0  0  0  0  0  0  0  0  0
  -16.7943   -4.3843  -17.2650 C   0  0  0  0  0  0  0  0  0  0  0  0
  -16.4748   -2.0261  -18.1424 C   0  0  0  0  0  0  0  0  0  0  0  0
  -17.0014   -1.1975  -16.9948 C   0  0  0  0  0  0  0  0  0  0  0  0
  -18.4978   -1.1670  -16.9392 C   0  0  0  0  0  0  0  0  0  0  0  0
  -19.3476   -0.6588  -17.8254 C   0  0  0  0  0  0  0  0  0  0  0  0
  -18.9561    0.3358  -18.8760 C   0  0  0  0  0  0  0  0  0  0  0  0
  -20.7913   -1.0748  -17.8388 C   0  0  0  0  0  0  0  0  0  0  0  0
  -21.0604   -2.4982  -17.3998 C   0  0  0  0  0  0  0  0  0  0  0  0
  -20.8431   -2.6986  -15.9370 C   0  0  0  0  0  0  0  0  0  0  0  0
  -20.7341   -3.8361  -15.2722 C   0  0  0  0  0  0  0  0  0  0  0  0
  -20.9840   -3.9375  -13.8004 C   0  0  0  0  0  0  0  0  0  0  0  0
  -20.3554   -5.1235  -15.9267 C   0  0  0  0  0  0  0  0  0  0  0  0
  -20.8016   -6.2206  -19.6994 P   0  0  1  0  0  0  0  0  0  0  0  0
  -20.3665   -7.1593  -18.6348 O   0  0  0  0  0  0  0  0  0  0  0  0
  -22.1922   -5.7069  -19.7388 O   0  0  0  0  0  0  0  0  0  0  0  0
  -20.3789   -6.8040  -21.1281 O   0  0  0  0  0  0  0  0  0  0  0  0
  -20.7954   -8.0569  -22.0419 P   0  0  1  0  0  0  0  0  0  0  0  0
  -22.2492   -7.8894  -22.2859 O   0  0  0  0  0  0  0  0  0  0  0  0
  -19.9758   -7.9483  -23.2799 O   0  0  0  0  0  0  0  0  0  0  0  0
  -20.4763   -9.2759  -21.2634 O   0  0  0  0  0  0  0  0  0  0  0  0
  -18.1761   -5.6938  -18.9662 H   0  0  0  0  0  0  0  0  0  0  0  0
  -18.1499   -5.1881  -20.6730 H   0  0  0  0  0  0  0  0  0  0  0  0
  -16.9421   -3.9764  -16.2542 H   0  0  0  0  0  0  0  0  0  0  0  0
  -17.4271   -5.2742  -17.3974 H   0  0  0  0  0  0  0  0  0  0  0  0
  -15.7383   -4.6622  -17.3974 H   0  0  0  0  0  0  0  0  0  0  0  0
  -15.4020   -2.2071  -17.9802 H   0  0  0  0  0  0  0  0  0  0  0  0
  -16.6615   -1.4614  -19.0678 H   0  0  0  0  0  0  0  0  0  0  0  0
  -16.6234   -1.6215  -16.0529 H   0  0  0  0  0  0  0  0  0  0  0  0
  -16.6547   -0.1646  -17.1459 H   0  0  0  0  0  0  0  0  0  0  0  0
  -18.9528   -1.6250  -16.0485 H   0  0  0  0  0  0  0  0  0  0  0  0
  -18.5940    1.2556  -18.3934 H   0  0  0  0  0  0  0  0  0  0  0  0
  -18.1577   -0.0881  -19.5028 H   0  0  0  0  0  0  0  0  0  0  0  0
  -19.8292    0.5698  -19.5028 H   0  0  0  0  0  0  0  0  0  0  0  0
  -21.3447   -0.4020  -17.1671 H   0  0  0  0  0  0  0  0  0  0  0  0
  -21.1146   -1.0148  -18.8885 H   0  0  0  0  0  0  0  0  0  0  0  0
  -22.1044   -2.7491  -17.6385 H   0  0  0  0  0  0  0  0  0  0  0  0
  -20.3539   -3.1506  -17.9339 H   0  0  0  0  0  0  0  0  0  0  0  0
  -20.7635   -1.7818  -15.3343 H   0  0  0  0  0  0  0  0  0  0  0  0
  -20.0999   -3.5789  -13.2528 H   0  0  0  0  0  0  0  0  0  0  0  0
  -21.8555   -3.3218  -13.5332 H   0  0  0  0  0  0  0  0  0  0  0  0
  -21.1802   -4.9864  -13.5332 H   0  0  0  0  0  0  0  0  0  0  0  0
  -20.1340   -5.8758  -15.1552 H   0  0  0  0  0  0  0  0  0  0  0  0
  -21.1881   -5.4751  -16.5535 H   0  0  0  0  0  0  0  0  0  0  0  0
  -19.4649   -4.9681  -16.5535 H   0  0  0  0  0  0  0  0  0  0  0  0
  1  2  1  0
  1  3  1  0
  2 18  1  0
  3  4  1  0
  3  5  2  3
  5  6  1  0
  5  7  1  0
  7  8  1  0
  8  9  1  0
  9 10  2  3
 10 11  1  0
 10 12  1  0
 12 13  1  0
 13 14  1  0
 14 15  2  3
 15 16  1  0
 15 17  1  0
 18 19  2  0
 18 20  1  6
 18 21  1  0
 21 22  1  0
 22 23  1  6
 22 24  1  0
 22 25  2  0
  1 26  1  0
  1 27  1  0
  6 28  1  0
  6 29  1  0
  6 30  1  0
  7 31  1  0
  7 32  1  0
  8 33  1  0
  8 34  1  0
  9 35  1  0
 11 36  1  0
 11 37  1  0
 11 38  1  0
 12 39  1  0
 12 40  1  0
 13 41  1  0
 13 42  1  0
 14 43  1  0
 16 44  1  0
 16 45  1  0
 16 46  1  0
 17 47  1  0
 17 48  1  0
 17 49  1  0
M  CHG  3  20  -1  23  -1  24  -1
M  END
>  <filename_input>  (17) 
7XQZ_FPF_docked.sdf

>  <pdb_id>  (17) 
7XQZ_FPF

>  <pose_rank>  (17) 
16

>  <num_atoms_heavy>  (17) 
25

>  <num_torsions>  (17) 
11

>  <pose>  (17) 
[-18.035819791468324, -3.5796294514606553, -19.254659397910377, -2.4523535376271073, 0.19010872179733573, -3.3098176647166473, 37.88119170580988, 25.26205199773533, 6.9136517218154605, -0.15445048776185488, -1.39223502520437, 28.415438997738292, 23.30323000604268, -5.238158518364234, 9.791258450053402, -3.6055900743803724, 2.1413984785776883]

>  <energy>  (17) 
-523.7153460105229

>  <inter_energy>  (17) 
-563.6222708797078

>  <intra_energy>  (17) 
44.171322959602676

>  <rmsd>  (17) 
6.93985

>  <sdf_rank>  (17) 
0

$$$$

     RDKit          3D

 49 48  0  0  0  0  0  0  0  0999 V2000
  -18.2415   -1.0697  -18.9934 C   0  0  0  0  0  0  0  0  0  0  0  0
  -19.6453   -0.9522  -18.9113 O   0  0  0  0  0  0  0  0  0  0  0  0
  -17.9432   -2.3748  -19.6598 C   0  0  0  0  0  0  0  0  0  0  0  0
  -18.1791   -2.3534  -20.9957 F   0  0  0  0  0  0  0  0  0  0  0  0
  -17.4890   -3.4594  -19.0476 C   0  0  0  0  0  0  0  0  0  0  0  0
  -16.9269   -3.4372  -17.6633 C   0  0  0  0  0  0  0  0  0  0  0  0
  -17.5358   -4.8077  -19.7088 C   0  0  0  0  0  0  0  0  0  0  0  0
  -18.9238   -5.4019  -19.7436 C   0  0  0  0  0  0  0  0  0  0  0  0
  -19.0588   -6.5042  -20.7485 C   0  0  0  0  0  0  0  0  0  0  0  0
  -20.0933   -7.3121  -20.9550 C   0  0  0  0  0  0  0  0  0  0  0  0
  -21.1873   -7.5332  -19.9547 C   0  0  0  0  0  0  0  0  0  0  0  0
  -20.2421   -8.0627  -22.2482 C   0  0  0  0  0  0  0  0  0  0  0  0
  -20.4599   -9.5543  -22.1110 C   0  0  0  0  0  0  0  0  0  0  0  0
  -21.6466  -10.0342  -22.8783 C   0  0  0  0  0  0  0  0  0  0  0  0
  -21.7658  -10.2022  -24.1842 C   0  0  0  0  0  0  0  0  0  0  0  0
  -23.0922  -10.2316  -24.8760 C   0  0  0  0  0  0  0  0  0  0  0  0
  -20.5909  -10.3746  -25.0891 C   0  0  0  0  0  0  0  0  0  0  0  0
  -20.4337   -1.4698  -17.6245 P   0  0  1  0  0  0  0  0  0  0  0  0
  -19.5181   -1.6338  -16.4675 O   0  0  0  0  0  0  0  0  0  0  0  0
  -21.5854   -0.5379  -17.5570 O   0  0  0  0  0  0  0  0  0  0  0  0
  -20.9073   -2.9100  -18.1363 O   0  0  0  0  0  0  0  0  0  0  0  0
  -21.5103   -4.2404  -17.4697 P   0  0  1  0  0  0  0  0  0  0  0  0
  -20.4366   -5.2562  -17.5979 O   0  0  0  0  0  0  0  0  0  0  0  0
  -21.8166   -3.8849  -16.0569 O   0  0  0  0  0  0  0  0  0  0  0  0
  -22.7287   -4.5864  -18.2376 O   0  0  0  0  0  0  0  0  0  0  0  0
  -17.8283   -0.2408  -19.5868 H   0  0  0  0  0  0  0  0  0  0  0  0
  -17.7880   -1.0309  -17.9919 H   0  0  0  0  0  0  0  0  0  0  0  0
  -17.7491   -3.4696  -16.9332 H   0  0  0  0  0  0  0  0  0  0  0  0
  -16.2736   -4.3102  -17.5188 H   0  0  0  0  0  0  0  0  0  0  0  0
  -16.3444   -2.5153  -17.5188 H   0  0  0  0  0  0  0  0  0  0  0  0
  -17.1734   -4.7038  -20.7422 H   0  0  0  0  0  0  0  0  0  0  0  0
  -16.9032   -5.4857  -19.1170 H   0  0  0  0  0  0  0  0  0  0  0  0
  -19.1589   -5.8042  -18.7471 H   0  0  0  0  0  0  0  0  0  0  0  0
  -19.6194   -4.6012  -20.0352 H   0  0  0  0  0  0  0  0  0  0  0  0
  -18.1880   -6.6660  -21.4008 H   0  0  0  0  0  0  0  0  0  0  0  0
  -20.7765   -7.4502  -18.9377 H   0  0  0  0  0  0  0  0  0  0  0  0
  -21.9721   -6.7755  -20.0962 H   0  0  0  0  0  0  0  0  0  0  0  0
  -21.6163   -8.5362  -20.0962 H   0  0  0  0  0  0  0  0  0  0  0  0
  -21.1034   -7.6420  -22.7877 H   0  0  0  0  0  0  0  0  0  0  0  0
  -19.2866   -7.9433  -22.7799 H   0  0  0  0  0  0  0  0  0  0  0  0
  -19.5657  -10.0765  -22.4822 H   0  0  0  0  0  0  0  0  0  0  0  0
  -20.6423   -9.7679  -21.0475 H   0  0  0  0  0  0  0  0  0  0  0  0
  -22.5366  -10.2797  -22.2804 H   0  0  0  0  0  0  0  0  0  0  0  0
  -23.8966  -10.2495  -24.1259 H   0  0  0  0  0  0  0  0  0  0  0  0
  -23.1975   -9.3356  -25.5053 H   0  0  0  0  0  0  0  0  0  0  0  0
  -23.1576  -11.1315  -25.5053 H   0  0  0  0  0  0  0  0  0  0  0  0
  -19.6804  -10.5082  -24.4865 H   0  0  0  0  0  0  0  0  0  0  0  0
  -20.7437  -11.2599  -25.7238 H   0  0  0  0  0  0  0  0  0  0  0  0
  -20.4829   -9.4827  -25.7238 H   0  0  0  0  0  0  0  0  0  0  0  0
  1  2  1  0
  1  3  1  0
  2 18  1  0
  3  4  1  0
  3  5  2  3
  5  6  1  0
  5  7  1  0
  7  8  1  0
  8  9  1  0
  9 10  2  3
 10 11  1  0
 10 12  1  0
 12 13  1  0
 13 14  1  0
 14 15  2  3
 15 16  1  0
 15 17  1  0
 18 19  2  0
 18 20  1  1
 18 21  1  0
 21 22  1  0
 22 23  1  1
 22 24  1  0
 22 25  2  0
  1 26  1  0
  1 27  1  0
  6 28  1  0
  6 29  1  0
  6 30  1  0
  7 31  1  0
  7 32  1  0
  8 33  1  0
  8 34  1  0
  9 35  1  0
 11 36  1  0
 11 37  1  0
 11 38  1  0
 12 39  1  0
 12 40  1  0
 13 41  1  0
 13 42  1  0
 14 43  1  0
 16 44  1  0
 16 45  1  0
 16 46  1  0
 17 47  1  0
 17 48  1  0
 17 49  1  0
M  CHG  3  20  -1  23  -1  24  -1
M  END
>  <filename_input>  (18) 
7XQZ_FPF_docked.sdf

>  <pdb_id>  (18) 
7XQZ_FPF

>  <pose_rank>  (18) 
17

>  <num_atoms_heavy>  (18) 
25

>  <num_torsions>  (18) 
11

>  <pose>  (18) 
[-17.94318140295982, -2.3747767866961516, -19.659806062195912, 0.3279673431515752, 0.0934209257199603, -0.7064044691209748, -3.887431928077275, 4.5945382340462935, 0.04682826598962908, -0.47053081248253364, 1.915769590002001, 12.688534131783381, 8.079708912667353, -1.0912023490391218, 0.009798717956808051, 3.683829491791939, 0.0563042818023132]

>  <energy>  (18) 
-432.86286659633856

>  <inter_energy>  (18) 
-476.50700999190195

>  <intra_energy>  (18) 
39.10820489435589

>  <rmsd>  (18) 
5.29147

>  <sdf_rank>  (18) 
0

$$$$

     RDKit          3D

 49 48  0  0  0  0  0  0  0  0999 V2000
  -21.6652   -8.2970  -22.0099 C   0  0  0  0  0  0  0  0  0  0  0  0
  -21.6243   -8.4240  -23.4147 O   0  0  0  0  0  0  0  0  0  0  0  0
  -20.4827   -7.4766  -21.6036 C   0  0  0  0  0  0  0  0  0  0  0  0
  -19.4231   -7.6254  -22.4376 F   0  0  0  0  0  0  0  0  0  0  0  0
  -20.4362   -6.6719  -20.5511 C   0  0  0  0  0  0  0  0  0  0  0  0
  -21.6547   -6.2430  -19.8003 C   0  0  0  0  0  0  0  0  0  0  0  0
  -19.1297   -6.1521  -20.0216 C   0  0  0  0  0  0  0  0  0  0  0  0
  -19.2606   -5.4871  -18.6721 C   0  0  0  0  0  0  0  0  0  0  0  0
  -18.6895   -4.1027  -18.6488 C   0  0  0  0  0  0  0  0  0  0  0  0
  -18.8386   -3.1626  -17.7216 C   0  0  0  0  0  0  0  0  0  0  0  0
  -19.9336   -3.1715  -16.6983 C   0  0  0  0  0  0  0  0  0  0  0  0
  -17.8811   -2.0084  -17.6299 C   0  0  0  0  0  0  0  0  0  0  0  0
  -17.7364   -1.1838  -18.8909 C   0  0  0  0  0  0  0  0  0  0  0  0
  -18.9543   -0.3752  -19.1910 C   0  0  0  0  0  0  0  0  0  0  0  0
  -19.4823    0.6070  -18.4807 C   0  0  0  0  0  0  0  0  0  0  0  0
  -20.9137    1.0213  -18.6162 C   0  0  0  0  0  0  0  0  0  0  0  0
  -18.7026    1.3905  -17.4772 C   0  0  0  0  0  0  0  0  0  0  0  0
  -22.3506   -9.6422  -24.1454 P   0  0  1  0  0  0  0  0  0  0  0  0
  -22.0718  -10.9243  -23.4510 O   0  0  0  0  0  0  0  0  0  0  0  0
  -23.7396   -9.1447  -24.2955 O   0  0  0  0  0  0  0  0  0  0  0  0
  -21.5939   -9.6254  -25.5552 O   0  0  0  0  0  0  0  0  0  0  0  0
  -21.9901   -9.8784  -27.0905 P   0  0  1  0  0  0  0  0  0  0  0  0
  -20.6975   -9.9480  -27.8155 O   0  0  0  0  0  0  0  0  0  0  0  0
  -22.7443  -11.1617  -27.1102 O   0  0  0  0  0  0  0  0  0  0  0  0
  -22.8266   -8.7298  -27.5088 O   0  0  0  0  0  0  0  0  0  0  0  0
  -22.5949   -7.7949  -21.7041 H   0  0  0  0  0  0  0  0  0  0  0  0
  -21.6376   -9.2856  -21.5283 H   0  0  0  0  0  0  0  0  0  0  0  0
  -21.4621   -6.3107  -18.7194 H   0  0  0  0  0  0  0  0  0  0  0  0
  -21.9014   -5.2040  -20.0643 H   0  0  0  0  0  0  0  0  0  0  0  0
  -22.4977   -6.8984  -20.0643 H   0  0  0  0  0  0  0  0  0  0  0  0
  -18.4288   -6.9950  -19.9302 H   0  0  0  0  0  0  0  0  0  0  0  0
  -18.7682   -5.3912  -20.7289 H   0  0  0  0  0  0  0  0  0  0  0  0
  -20.3275   -5.4314  -18.4098 H   0  0  0  0  0  0  0  0  0  0  0  0
  -18.6934   -6.0914  -17.9489 H   0  0  0  0  0  0  0  0  0  0  0  0
  -18.0650   -3.8285  -19.5118 H   0  0  0  0  0  0  0  0  0  0  0  0
  -19.4934   -3.1679  -15.6903 H   0  0  0  0  0  0  0  0  0  0  0  0
  -20.5628   -2.2784  -16.8269 H   0  0  0  0  0  0  0  0  0  0  0  0
  -20.5483   -4.0746  -16.8269 H   0  0  0  0  0  0  0  0  0  0  0  0
  -18.2285   -1.3421  -16.8265 H   0  0  0  0  0  0  0  0  0  0  0  0
  -16.8913   -2.4496  -17.4407 H   0  0  0  0  0  0  0  0  0  0  0  0
  -16.8818   -0.5018  -18.7698 H   0  0  0  0  0  0  0  0  0  0  0  0
  -17.5843   -1.8802  -19.7287 H   0  0  0  0  0  0  0  0  0  0  0  0
  -19.4804   -0.6290  -20.1231 H   0  0  0  0  0  0  0  0  0  0  0  0
  -21.3547    1.1490  -17.6165 H   0  0  0  0  0  0  0  0  0  0  0  0
  -20.9696    1.9725  -19.1658 H   0  0  0  0  0  0  0  0  0  0  0  0
  -21.4691    0.2471  -19.1658 H   0  0  0  0  0  0  0  0  0  0  0  0
  -19.0028    1.0888  -16.4628 H   0  0  0  0  0  0  0  0  0  0  0  0
  -17.6286    1.1965  -17.6146 H   0  0  0  0  0  0  0  0  0  0  0  0
  -18.9019    2.4635  -17.6146 H   0  0  0  0  0  0  0  0  0  0  0  0
  1  2  1  0
  1  3  1  0
  2 18  1  0
  3  4  1  0
  3  5  2  3
  5  6  1  0
  5  7  1  0
  7  8  1  0
  8  9  1  0
  9 10  2  3
 10 11  1  0
 10 12  1  0
 12 13  1  0
 13 14  1  0
 14 15  2  3
 15 16  1  0
 15 17  1  0
 18 19  2  0
 18 20  1  6
 18 21  1  0
 21 22  1  0
 22 23  1  6
 22 24  1  0
 22 25  2  0
  1 26  1  0
  1 27  1  0
  6 28  1  0
  6 29  1  0
  6 30  1  0
  7 31  1  0
  7 32  1  0
  8 33  1  0
  8 34  1  0
  9 35  1  0
 11 36  1  0
 11 37  1  0
 11 38  1  0
 12 39  1  0
 12 40  1  0
 13 41  1  0
 13 42  1  0
 14 43  1  0
 16 44  1  0
 16 45  1  0
 16 46  1  0
 17 47  1  0
 17 48  1  0
 17 49  1  0
M  CHG  3  20  -1  23  -1  24  -1
M  END
>  <filename_input>  (19) 
7XQZ_FPF_docked.sdf

>  <pdb_id>  (19) 
7XQZ_FPF

>  <pose_rank>  (19) 
18

>  <num_atoms_heavy>  (19) 
25

>  <num_torsions>  (19) 
11

>  <pose>  (19) 
[-20.48274740027669, -7.476613356028358, -21.603579173565286, -0.3766547152787668, -0.42964600651776286, 1.214415918010113, 0.5674922768762494, -0.559323580466289, -1.057910944326088, 0.42061970132486537, 0.9066129378067846, -1.5146706087945623, -3.2396977212931186, -1.202498919290157, -1.2367655265484387, 2.67160732320178, -0.1355889119430249]

>  <energy>  (19) 
-491.19568555548153

>  <inter_energy>  (19) 
-494.69162565851195

>  <intra_energy>  (19) 
2.7493431724835786

>  <rmsd>  (19) 
9.65659

>  <sdf_rank>  (19) 
0

$$$$

     RDKit          3D

 49 48  0  0  0  0  0  0  0  0999 V2000
  -21.7280   -7.6075  -22.9084 C   0  0  0  0  0  0  0  0  0  0  0  0
  -21.7271   -8.9746  -23.2578 O   0  0  0  0  0  0  0  0  0  0  0  0
  -20.7844   -7.4419  -21.7602 C   0  0  0  0  0  0  0  0  0  0  0  0
  -19.4844   -7.3942  -22.1456 F   0  0  0  0  0  0  0  0  0  0  0  0
  -21.1400   -7.3421  -20.4870 C   0  0  0  0  0  0  0  0  0  0  0  0
  -22.5452   -7.0781  -20.0529 C   0  0  0  0  0  0  0  0  0  0  0  0
  -20.1396   -7.5172  -19.3798 C   0  0  0  0  0  0  0  0  0  0  0  0
  -19.1303   -6.3958  -19.3113 C   0  0  0  0  0  0  0  0  0  0  0  0
  -19.7654   -5.0398  -19.3463 C   0  0  0  0  0  0  0  0  0  0  0  0
  -19.6920   -4.0693  -18.4417 C   0  0  0  0  0  0  0  0  0  0  0  0
  -19.2732   -4.2892  -17.0195 C   0  0  0  0  0  0  0  0  0  0  0  0
  -20.0183   -2.6481  -18.8043 C   0  0  0  0  0  0  0  0  0  0  0  0
  -19.0514   -1.6072  -18.2821 C   0  0  0  0  0  0  0  0  0  0  0  0
  -19.1552   -0.3097  -19.0123 C   0  0  0  0  0  0  0  0  0  0  0  0
  -19.1426    0.9149  -18.5144 C   0  0  0  0  0  0  0  0  0  0  0  0
  -19.7080    2.0899  -19.2484 C   0  0  0  0  0  0  0  0  0  0  0  0
  -18.5673    1.2389  -17.1754 C   0  0  0  0  0  0  0  0  0  0  0  0
  -22.1231   -9.4406  -24.7314 P   0  0  1  0  0  0  0  0  0  0  0  0
  -21.0650   -9.0796  -25.7080 O   0  0  0  0  0  0  0  0  0  0  0  0
  -22.5180  -10.8552  -24.5259 O   0  0  0  0  0  0  0  0  0  0  0  0
  -23.4139   -8.5296  -24.9849 O   0  0  0  0  0  0  0  0  0  0  0  0
  -24.6044   -8.4735  -26.0608 P   0  0  1  0  0  0  0  0  0  0  0  0
  -24.8347   -7.0285  -26.3057 O   0  0  0  0  0  0  0  0  0  0  0  0
  -24.1038   -9.1998  -27.2600 O   0  0  0  0  0  0  0  0  0  0  0  0
  -25.7690   -9.1482  -25.4423 O   0  0  0  0  0  0  0  0  0  0  0  0
  -21.3923   -7.0005  -23.7622 H   0  0  0  0  0  0  0  0  0  0  0  0
  -22.7400   -7.2766  -22.6320 H   0  0  0  0  0  0  0  0  0  0  0  0
  -22.5940   -7.0690  -18.9541 H   0  0  0  0  0  0  0  0  0  0  0  0
  -22.8723   -6.1028  -20.4426 H   0  0  0  0  0  0  0  0  0  0  0  0
  -23.2039   -7.8682  -20.4426 H   0  0  0  0  0  0  0  0  0  0  0  0
  -20.6803   -7.5607  -18.4228 H   0  0  0  0  0  0  0  0  0  0  0  0
  -19.5854   -8.4457  -19.5819 H   0  0  0  0  0  0  0  0  0  0  0  0
  -18.5603   -6.4928  -18.3756 H   0  0  0  0  0  0  0  0  0  0  0  0
  -18.4813   -6.4802  -20.1954 H   0  0  0  0  0  0  0  0  0  0  0  0
  -20.3717   -4.8185  -20.2370 H   0  0  0  0  0  0  0  0  0  0  0  0
  -20.0420   -3.8855  -16.3443 H   0  0  0  0  0  0  0  0  0  0  0  0
  -19.1527   -5.3670  -16.8353 H   0  0  0  0  0  0  0  0  0  0  0  0
  -18.3176   -3.7766  -16.8353 H   0  0  0  0  0  0  0  0  0  0  0  0
  -20.0374   -2.5736  -19.9016 H   0  0  0  0  0  0  0  0  0  0  0  0
  -20.9860   -2.4285  -18.3296 H   0  0  0  0  0  0  0  0  0  0  0  0
  -19.2651   -1.4304  -17.2176 H   0  0  0  0  0  0  0  0  0  0  0  0
  -18.0326   -1.9936  -18.4327 H   0  0  0  0  0  0  0  0  0  0  0  0
  -19.2550   -0.3817  -20.1054 H   0  0  0  0  0  0  0  0  0  0  0  0
  -20.0671    2.8362  -18.5244 H   0  0  0  0  0  0  0  0  0  0  0  0
  -18.9269    2.5381  -19.8801 H   0  0  0  0  0  0  0  0  0  0  0  0
  -20.5456    1.7592  -19.8801 H   0  0  0  0  0  0  0  0  0  0  0  0
  -19.2365    0.8621  -16.3879 H   0  0  0  0  0  0  0  0  0  0  0  0
  -17.5800    0.7641  -17.0759 H   0  0  0  0  0  0  0  0  0  0  0  0
  -18.4614    2.3293  -17.0759 H   0  0  0  0  0  0  0  0  0  0  0  0
  1  2  1  0
  1  3  1  0
  2 18  1  0
  3  4  1  0
  3  5  2  3
  5  6  1  0
  5  7  1  0
  7  8  1  0
  8  9  1  0
  9 10  2  3
 10 11  1  0
 10 12  1  0
 12 13  1  0
 13 14  1  0
 14 15  2  3
 15 16  1  0
 15 17  1  0
 18 19  2  0
 18 20  1  1
 18 21  1  0
 21 22  1  0
 22 23  1  6
 22 24  1  0
 22 25  2  0
  1 26  1  0
  1 27  1  0
  6 28  1  0
  6 29  1  0
  6 30  1  0
  7 31  1  0
  7 32  1  0
  8 33  1  0
  8 34  1  0
  9 35  1  0
 11 36  1  0
 11 37  1  0
 11 38  1  0
 12 39  1  0
 12 40  1  0
 13 41  1  0
 13 42  1  0
 14 43  1  0
 16 44  1  0
 16 45  1  0
 16 46  1  0
 17 47  1  0
 17 48  1  0
 17 49  1  0
M  CHG  3  20  -1  23  -1  24  -1
M  END
>  <filename_input>  (20) 
7XQZ_FPF_docked.sdf

>  <pdb_id>  (20) 
7XQZ_FPF

>  <pose_rank>  (20) 
19

>  <num_atoms_heavy>  (20) 
25

>  <num_torsions>  (20) 
11

>  <pose>  (20) 
[-20.784402592939582, -7.441949804447958, -21.760155812700447, 0.4427186183322633, 3.9008085839238964, -3.016631393621196, -3.793823671364703, 19.132372859309978, 26.106503029669334, 12.555390219758031, 1.3963379089375918, -3.656061091665627, -19.026689994736223, -2.0119666792382813, 7.9789594882439845, 4.261997430745254, 1.1522719050817527]

>  <energy>  (20) 
-476.31093818026477

>  <inter_energy>  (20) 
-480.34347745839176

>  <intra_energy>  (20) 
8.38235583418986

>  <rmsd>  (20) 
9.34304

>  <sdf_rank>  (20) 
0

$$$$

     RDKit          3D

 49 48  0  0  0  0  0  0  0  0999 V2000
  -22.5613   -8.0042  -22.1064 C   0  0  0  0  0  0  0  0  0  0  0  0
  -21.7691   -8.6231  -23.0968 O   0  0  0  0  0  0  0  0  0  0  0  0
  -21.6535   -7.1473  -21.2830 C   0  0  0  0  0  0  0  0  0  0  0  0
  -20.5288   -6.7778  -21.9457 F   0  0  0  0  0  0  0  0  0  0  0  0
  -21.8890   -6.7617  -20.0367 C   0  0  0  0  0  0  0  0  0  0  0  0
  -23.2300   -6.8789  -19.3882 C   0  0  0  0  0  0  0  0  0  0  0  0
  -20.7965   -6.1968  -19.1736 C   0  0  0  0  0  0  0  0  0  0  0  0
  -20.4948   -4.7478  -19.4737 C   0  0  0  0  0  0  0  0  0  0  0  0
  -20.4704   -3.8928  -18.2442 C   0  0  0  0  0  0  0  0  0  0  0  0
  -19.4375   -3.6007  -17.4611 C   0  0  0  0  0  0  0  0  0  0  0  0
  -18.1645   -4.3914  -17.4358 C   0  0  0  0  0  0  0  0  0  0  0  0
  -19.4778   -2.4158  -16.5380 C   0  0  0  0  0  0  0  0  0  0  0  0
  -18.3064   -1.4640  -16.6527 C   0  0  0  0  0  0  0  0  0  0  0  0
  -18.0338   -1.0564  -18.0622 C   0  0  0  0  0  0  0  0  0  0  0  0
  -18.8240   -0.3984  -18.8932 C   0  0  0  0  0  0  0  0  0  0  0  0
  -18.6547   -0.4507  -20.3790 C   0  0  0  0  0  0  0  0  0  0  0  0
  -19.9583    0.4538  -18.4283 C   0  0  0  0  0  0  0  0  0  0  0  0
  -22.3920   -9.0166  -24.5118 P   0  0  1  0  0  0  0  0  0  0  0  0
  -23.4549  -10.0419  -24.3608 O   0  0  0  0  0  0  0  0  0  0  0  0
  -22.6912   -7.6932  -25.1104 O   0  0  0  0  0  0  0  0  0  0  0  0
  -21.1148   -9.6745  -25.2163 O   0  0  0  0  0  0  0  0  0  0  0  0
  -19.8524  -10.5506  -24.7503 P   0  0  1  0  0  0  0  0  0  0  0  0
  -19.3805  -11.2313  -25.9812 O   0  0  0  0  0  0  0  0  0  0  0  0
  -18.8653   -9.5816  -24.1998 O   0  0  0  0  0  0  0  0  0  0  0  0
  -20.3461  -11.4940  -23.7207 O   0  0  0  0  0  0  0  0  0  0  0  0
  -23.3382   -7.3848  -22.5784 H   0  0  0  0  0  0  0  0  0  0  0  0
  -23.0605   -8.7577  -21.4796 H   0  0  0  0  0  0  0  0  0  0  0  0
  -23.1107   -6.8685  -18.2948 H   0  0  0  0  0  0  0  0  0  0  0  0
  -23.8615   -6.0326  -19.6963 H   0  0  0  0  0  0  0  0  0  0  0  0
  -23.7050   -7.8220  -19.6963 H   0  0  0  0  0  0  0  0  0  0  0  0
  -21.1039   -6.2798  -18.1207 H   0  0  0  0  0  0  0  0  0  0  0  0
  -19.8826   -6.7725  -19.3821 H   0  0  0  0  0  0  0  0  0  0  0  0
  -19.5114   -4.6878  -19.9630 H   0  0  0  0  0  0  0  0  0  0  0  0
  -21.2980   -4.3702  -20.1236 H   0  0  0  0  0  0  0  0  0  0  0  0
  -21.4332   -3.4488  -17.9514 H   0  0  0  0  0  0  0  0  0  0  0  0
  -17.8679   -4.5755  -16.3926 H   0  0  0  0  0  0  0  0  0  0  0  0
  -18.3195   -5.3524  -17.9481 H   0  0  0  0  0  0  0  0  0  0  0  0
  -17.3717   -3.8264  -17.9481 H   0  0  0  0  0  0  0  0  0  0  0  0
  -20.3968   -1.8503  -16.7516 H   0  0  0  0  0  0  0  0  0  0  0  0
  -19.4377   -2.8246  -15.5176 H   0  0  0  0  0  0  0  0  0  0  0  0
  -18.5256   -0.5627  -16.0615 H   0  0  0  0  0  0  0  0  0  0  0  0
  -17.4141   -1.9875  -16.2789 H   0  0  0  0  0  0  0  0  0  0  0  0
  -17.0486   -1.3398  -18.4611 H   0  0  0  0  0  0  0  0  0  0  0  0
  -17.6294   -0.7676  -20.6203 H   0  0  0  0  0  0  0  0  0  0  0  0
  -19.3704   -1.1696  -20.8045 H   0  0  0  0  0  0  0  0  0  0  0  0
  -18.8400    0.5466  -20.8045 H   0  0  0  0  0  0  0  0  0  0  0  0
  -19.9786    0.4691  -17.3286 H   0  0  0  0  0  0  0  0  0  0  0  0
  -19.8265    1.4781  -18.8068 H   0  0  0  0  0  0  0  0  0  0  0  0
  -20.9054    0.0420  -18.8068 H   0  0  0  0  0  0  0  0  0  0  0  0
  1  2  1  0
  1  3  1  0
  2 18  1  0
  3  4  1  0
  3  5  2  3
  5  6  1  0
  5  7  1  0
  7  8  1  0
  8  9  1  0
  9 10  2  3
 10 11  1  0
 10 12  1  0
 12 13  1  0
 13 14  1  0
 14 15  2  3
 15 16  1  0
 15 17  1  0
 18 19  2  0
 18 20  1  6
 18 21  1  0
 21 22  1  0
 22 23  1  6
 22 24  1  0
 22 25  2  0
  1 26  1  0
  1 27  1  0
  6 28  1  0
  6 29  1  0
  6 30  1  0
  7 31  1  0
  7 32  1  0
  8 33  1  0
  8 34  1  0
  9 35  1  0
 11 36  1  0
 11 37  1  0
 11 38  1  0
 12 39  1  0
 12 40  1  0
 13 41  1  0
 13 42  1  0
 14 43  1  0
 16 44  1  0
 16 45  1  0
 16 46  1  0
 17 47  1  0
 17 48  1  0
 17 49  1  0
M  CHG  3  20  -1  23  -1  24  -1
M  END
>  <filename_input>  (21) 
7XQZ_FPF_docked.sdf

>  <pdb_id>  (21) 
7XQZ_FPF

>  <pose_rank>  (21) 
20

>  <num_atoms_heavy>  (21) 
25

>  <num_torsions>  (21) 
11

>  <pose>  (21) 
[-21.653541214673513, -7.147254364895812, -21.283042019013532, 0.332354073568546, 2.4247095265264718, -4.060879733761798, 1.5078021419193903, 0.3673160665181605, -1.3846814893122228, 3.5111845688965886, 0.34147417102807665, -3.4750909164381096, 1.2391338184550549, -2.537526243585999, 1.8292803817113612, 2.319577669795066, -0.16810216048842183]

>  <energy>  (21) 
-465.7125179027923

>  <inter_energy>  (21) 
-483.6340801778952

>  <intra_energy>  (21) 
13.238511770110726

>  <rmsd>  (21) 
9.536

>  <sdf_rank>  (21) 
0

$$$$

     RDKit          3D

 49 48  0  0  0  0  0  0  0  0999 V2000
  -19.7301   -0.1598  -18.7436 C   0  0  0  0  0  0  0  0  0  0  0  0
  -20.5713    0.9124  -18.3777 O   0  0  0  0  0  0  0  0  0  0  0  0
  -18.6591   -0.2587  -17.7046 C   0  0  0  0  0  0  0  0  0  0  0  0
  -18.4831    0.8957  -17.0139 F   0  0  0  0  0  0  0  0  0  0  0  0
  -17.9394   -1.3424  -17.4496 C   0  0  0  0  0  0  0  0  0  0  0  0
  -18.3045   -2.6996  -17.9568 C   0  0  0  0  0  0  0  0  0  0  0  0
  -16.6745   -1.2686  -16.6420 C   0  0  0  0  0  0  0  0  0  0  0  0
  -16.5233    0.0363  -15.8970 C   0  0  0  0  0  0  0  0  0  0  0  0
  -15.8236   -0.1231  -14.5824 C   0  0  0  0  0  0  0  0  0  0  0  0
  -16.3325   -0.0295  -13.3585 C   0  0  0  0  0  0  0  0  0  0  0  0
  -17.6360    0.6429  -13.0502 C   0  0  0  0  0  0  0  0  0  0  0  0
  -15.6193   -0.6236  -12.1770 C   0  0  0  0  0  0  0  0  0  0  0  0
  -14.4079   -1.4685  -12.5084 C   0  0  0  0  0  0  0  0  0  0  0  0
  -13.9138   -2.2484  -11.3358 C   0  0  0  0  0  0  0  0  0  0  0  0
  -12.7064   -2.7470  -11.1322 C   0  0  0  0  0  0  0  0  0  0  0  0
  -12.4490   -3.8757  -10.1841 C   0  0  0  0  0  0  0  0  0  0  0  0
  -11.4902   -2.2341  -11.8298 C   0  0  0  0  0  0  0  0  0  0  0  0
  -20.5081    2.3024  -19.1583 P   0  0  1  0  0  0  0  0  0  0  0  0
  -21.1191    3.3928  -18.3575 O   0  0  0  0  0  0  0  0  0  0  0  0
  -19.0873    2.3710  -19.5778 O   0  0  0  0  0  0  0  0  0  0  0  0
  -21.4471    1.9724  -20.4112 O   0  0  0  0  0  0  0  0  0  0  0  0
  -22.4837    2.7818  -21.3324 P   0  0  1  0  0  0  0  0  0  0  0  0
  -22.1875    2.3467  -22.7195 O   0  0  0  0  0  0  0  0  0  0  0  0
  -23.8401    2.3806  -20.8681 O   0  0  0  0  0  0  0  0  0  0  0  0
  -22.2175    4.2215  -21.1085 O   0  0  0  0  0  0  0  0  0  0  0  0
  -20.3071   -1.0956  -18.7799 H   0  0  0  0  0  0  0  0  0  0  0  0
  -19.2931    0.0098  -19.7387 H   0  0  0  0  0  0  0  0  0  0  0  0
  -18.4856   -3.3726  -17.1058 H   0  0  0  0  0  0  0  0  0  0  0  0
  -19.2157   -2.6293  -18.5690 H   0  0  0  0  0  0  0  0  0  0  0  0
  -17.4811   -3.0960  -18.5690 H   0  0  0  0  0  0  0  0  0  0  0  0
  -16.6771   -2.0909  -15.9113 H   0  0  0  0  0  0  0  0  0  0  0  0
  -15.8316   -1.3451  -17.3446 H   0  0  0  0  0  0  0  0  0  0  0  0
  -15.9439    0.7323  -16.5214 H   0  0  0  0  0  0  0  0  0  0  0  0
  -17.5339    0.4181  -15.6898 H   0  0  0  0  0  0  0  0  0  0  0  0
  -14.7480   -0.3468  -14.6372 H   0  0  0  0  0  0  0  0  0  0  0  0
  -17.7652    0.7096  -11.9598 H   0  0  0  0  0  0  0  0  0  0  0  0
  -17.6380    1.6545  -13.4822 H   0  0  0  0  0  0  0  0  0  0  0  0
  -18.4615    0.0581  -13.4822 H   0  0  0  0  0  0  0  0  0  0  0  0
  -15.2904    0.2019  -11.5287 H   0  0  0  0  0  0  0  0  0  0  0  0
  -16.3402   -1.3019  -11.6971 H   0  0  0  0  0  0  0  0  0  0  0  0
  -14.6772   -2.1713  -13.3106 H   0  0  0  0  0  0  0  0  0  0  0  0
  -13.6018   -0.7876  -12.8191 H   0  0  0  0  0  0  0  0  0  0  0  0
  -14.6488   -2.4320  -10.5382 H   0  0  0  0  0  0  0  0  0  0  0  0
  -12.5321   -3.5115   -9.1495 H   0  0  0  0  0  0  0  0  0  0  0  0
  -13.1886   -4.6722  -10.3530 H   0  0  0  0  0  0  0  0  0  0  0  0
  -11.4373   -4.2729  -10.3530 H   0  0  0  0  0  0  0  0  0  0  0  0
  -10.7450   -1.9197  -11.0842 H   0  0  0  0  0  0  0  0  0  0  0  0
  -11.0657   -3.0298  -12.4596 H   0  0  0  0  0  0  0  0  0  0  0  0
  -11.7638   -1.3747  -12.4596 H   0  0  0  0  0  0  0  0  0  0  0  0
  1  2  1  0
  1  3  1  0
  2 18  1  0
  3  4  1  0
  3  5  2  3
  5  6  1  0
  5  7  1  0
  7  8  1  0
  8  9  1  0
  9 10  2  3
 10 11  1  0
 10 12  1  0
 12 13  1  0
 13 14  1  0
 14 15  2  3
 15 16  1  0
 15 17  1  0
 18 19  2  0
 18 20  1  6
 18 21  1  0
 21 22  1  0
 22 23  1  6
 22 24  1  0
 22 25  2  0
  1 26  1  0
  1 27  1  0
  6 28  1  0
  6 29  1  0
  6 30  1  0
  7 31  1  0
  7 32  1  0
  8 33  1  0
  8 34  1  0
  9 35  1  0
 11 36  1  0
 11 37  1  0
 11 38  1  0
 12 39  1  0
 12 40  1  0
 13 41  1  0
 13 42  1  0
 14 43  1  0
 16 44  1  0
 16 45  1  0
 16 46  1  0
 17 47  1  0
 17 48  1  0
 17 49  1  0
M  CHG  3  20  -1  23  -1  24  -1
M  END
>  <filename_input>  (22) 
7XQZ_FPF_docked.sdf

>  <pdb_id>  (22) 
7XQZ_FPF

>  <pose_rank>  (22) 
21

>  <num_atoms_heavy>  (22) 
25

>  <num_torsions>  (22) 
11

>  <pose>  (22) 
[-18.65908627861164, -0.2586779177594968, -17.704604926364382, -2.8457102072004568, 1.9599722098808574, -1.491942901860359, 0.7155986458250552, -1.4486401595445195, -3.086884716624608, -0.8192025331016113, -0.03351631950717194, 1.6772619273851381, 1.5272227336778064, 0.2604622048375213, -2.355948720230089, -1.4934401226145806, 2.2844575754303444]

>  <energy>  (22) 
-451.1737381404761

>  <inter_energy>  (22) 
-495.59197832683844

>  <intra_energy>  (22) 
40.14851315266923

>  <rmsd>  (22) 
6.38548

>  <sdf_rank>  (22) 
0

$$$$

     RDKit          3D

 49 48  0  0  0  0  0  0  0  0999 V2000
  -23.3702    3.6816  -21.0427 C   0  0  0  0  0  0  0  0  0  0  0  0
  -24.5190    2.9004  -21.2899 O   0  0  0  0  0  0  0  0  0  0  0  0
  -22.2218    2.7398  -20.8679 C   0  0  0  0  0  0  0  0  0  0  0  0
  -21.9745    1.9951  -21.9747 F   0  0  0  0  0  0  0  0  0  0  0  0
  -21.4929    2.6192  -19.7672 C   0  0  0  0  0  0  0  0  0  0  0  0
  -21.5255    3.6179  -18.6562 C   0  0  0  0  0  0  0  0  0  0  0  0
  -20.5919    1.4363  -19.5519 C   0  0  0  0  0  0  0  0  0  0  0  0
  -20.4365    1.0681  -18.0955 C   0  0  0  0  0  0  0  0  0  0  0  0
  -20.0474   -0.3645  -17.8969 C   0  0  0  0  0  0  0  0  0  0  0  0
  -19.0884   -0.8607  -17.1225 C   0  0  0  0  0  0  0  0  0  0  0  0
  -17.9468   -0.0484  -16.5904 C   0  0  0  0  0  0  0  0  0  0  0  0
  -19.0994   -2.3048  -16.7076 C   0  0  0  0  0  0  0  0  0  0  0  0
  -20.2557   -3.1238  -17.2398 C   0  0  0  0  0  0  0  0  0  0  0  0
  -19.9019   -4.5612  -17.4293 C   0  0  0  0  0  0  0  0  0  0  0  0
  -20.1695   -5.3426  -18.4617 C   0  0  0  0  0  0  0  0  0  0  0  0
  -20.1899   -6.8353  -18.3597 C   0  0  0  0  0  0  0  0  0  0  0  0
  -20.4786   -4.8100  -19.8217 C   0  0  0  0  0  0  0  0  0  0  0  0
  -25.4206    2.3708  -20.0849 P   0  0  1  0  0  0  0  0  0  0  0  0
  -24.8186    1.1683  -19.4559 O   0  0  0  0  0  0  0  0  0  0  0  0
  -25.6584    3.6036  -19.2957 O   0  0  0  0  0  0  0  0  0  0  0  0
  -26.7444    1.9493  -20.8787 O   0  0  0  0  0  0  0  0  0  0  0  0
  -28.1184    1.1950  -20.5305 P   0  0  1  0  0  0  0  0  0  0  0  0
  -29.1885    2.1558  -20.8952 O   0  0  0  0  0  0  0  0  0  0  0  0
  -28.1280   -0.0387  -21.3636 O   0  0  0  0  0  0  0  0  0  0  0  0
  -28.0821    0.8925  -19.0810 O   0  0  0  0  0  0  0  0  0  0  0  0
  -23.1809    4.3525  -21.8935 H   0  0  0  0  0  0  0  0  0  0  0  0
  -23.5063    4.3012  -20.1440 H   0  0  0  0  0  0  0  0  0  0  0  0
  -21.5084    3.0923  -17.6901 H   0  0  0  0  0  0  0  0  0  0  0  0
  -20.6484    4.2776  -18.7304 H   0  0  0  0  0  0  0  0  0  0  0  0
  -22.4437    4.2190  -18.7304 H   0  0  0  0  0  0  0  0  0  0  0  0
  -21.0129    0.5732  -20.0884 H   0  0  0  0  0  0  0  0  0  0  0  0
  -19.5955    1.7096  -19.9295 H   0  0  0  0  0  0  0  0  0  0  0  0
  -19.6593    1.7079  -17.6523 H   0  0  0  0  0  0  0  0  0  0  0  0
  -21.4128    1.2161  -17.6108 H   0  0  0  0  0  0  0  0  0  0  0  0
  -20.6318   -1.1022  -18.4665 H   0  0  0  0  0  0  0  0  0  0  0  0
  -17.9675   -0.0631  -15.4907 H   0  0  0  0  0  0  0  0  0  0  0  0
  -16.9968   -0.4747  -16.9450 H   0  0  0  0  0  0  0  0  0  0  0  0
  -18.0383    0.9889  -16.9450 H   0  0  0  0  0  0  0  0  0  0  0  0
  -18.1655   -2.7665  -17.0606 H   0  0  0  0  0  0  0  0  0  0  0  0
  -19.2059   -2.3051  -15.6128 H   0  0  0  0  0  0  0  0  0  0  0  0
  -21.0914   -3.0577  -16.5276 H   0  0  0  0  0  0  0  0  0  0  0  0
  -20.5281   -2.7153  -18.2241 H   0  0  0  0  0  0  0  0  0  0  0  0
  -19.3471   -5.0311  -16.6039 H   0  0  0  0  0  0  0  0  0  0  0  0
  -20.1939   -7.1304  -17.3000 H   0  0  0  0  0  0  0  0  0  0  0  0
  -21.0934   -7.2241  -18.8520 H   0  0  0  0  0  0  0  0  0  0  0  0
  -19.2973   -7.2487  -18.8520 H   0  0  0  0  0  0  0  0  0  0  0  0
  -21.0289   -3.8622  -19.7280 H   0  0  0  0  0  0  0  0  0  0  0  0
  -19.5407   -4.6368  -20.3696 H   0  0  0  0  0  0  0  0  0  0  0  0
  -21.0942   -5.5387  -20.3696 H   0  0  0  0  0  0  0  0  0  0  0  0
  1  2  1  0
  1  3  1  0
  2 18  1  0
  3  4  1  0
  3  5  2  3
  5  6  1  0
  5  7  1  0
  7  8  1  0
  8  9  1  0
  9 10  2  3
 10 11  1  0
 10 12  1  0
 12 13  1  0
 13 14  1  0
 14 15  2  3
 15 16  1  0
 15 17  1  0
 18 19  2  0
 18 20  1  1
 18 21  1  0
 21 22  1  0
 22 23  1  1
 22 24  1  0
 22 25  2  0
  1 26  1  0
  1 27  1  0
  6 28  1  0
  6 29  1  0
  6 30  1  0
  7 31  1  0
  7 32  1  0
  8 33  1  0
  8 34  1  0
  9 35  1  0
 11 36  1  0
 11 37  1  0
 11 38  1  0
 12 39  1  0
 12 40  1  0
 13 41  1  0
 13 42  1  0
 14 43  1  0
 16 44  1  0
 16 45  1  0
 16 46  1  0
 17 47  1  0
 17 48  1  0
 17 49  1  0
M  CHG  3  20  -1  23  -1  24  -1
M  END
>  <filename_input>  (23) 
7XQZ_FPF_docked.sdf

>  <pdb_id>  (23) 
7XQZ_FPF

>  <pose_rank>  (23) 
22

>  <num_atoms_heavy>  (23) 
25

>  <num_torsions>  (23) 
11

>  <pose>  (23) 
[-22.221791929675614, 2.739834972906408, -20.867930052931566, -0.20981764970275435, -0.16330167058484626, -0.023138144011983327, -4.1100053172333135, -1.7352663156226076, -1.6671407362816861, -0.35779414052572606, -0.28318502102855947, -1.180092922392135, -4.588244508764421, -1.8094936427077943, -2.2161934691964187, -2.2164744483699623, -3.6020002237801925]

>  <energy>  (23) 
-492.41831818929984

>  <inter_energy>  (23) 
-490.0746259492233

>  <intra_energy>  (23) 
2.3122072721998914

>  <rmsd>  (23) 
4.91014

>  <sdf_rank>  (23) 
0

$$$$

     RDKit          3D

 49 48  0  0  0  0  0  0  0  0999 V2000
  -19.0348   -3.8128  -17.1058 C   0  0  0  0  0  0  0  0  0  0  0  0
  -19.6609   -4.5425  -18.1386 O   0  0  0  0  0  0  0  0  0  0  0  0
  -19.7013   -2.4757  -17.0396 C   0  0  0  0  0  0  0  0  0  0  0  0
  -21.0541   -2.5606  -16.9815 F   0  0  0  0  0  0  0  0  0  0  0  0
  -19.0732   -1.3083  -17.0299 C   0  0  0  0  0  0  0  0  0  0  0  0
  -17.6062   -1.1757  -16.7792 C   0  0  0  0  0  0  0  0  0  0  0  0
  -19.8052   -0.0245  -17.3011 C   0  0  0  0  0  0  0  0  0  0  0  0
  -21.1813   -0.2399  -17.8847 C   0  0  0  0  0  0  0  0  0  0  0  0
  -21.4693    0.6653  -19.0427 C   0  0  0  0  0  0  0  0  0  0  0  0
  -22.6480    1.0826  -19.4922 C   0  0  0  0  0  0  0  0  0  0  0  0
  -23.9474    0.4121  -19.1631 C   0  0  0  0  0  0  0  0  0  0  0  0
  -22.7547    2.2972  -20.3704 C   0  0  0  0  0  0  0  0  0  0  0  0
  -21.5478    2.5768  -21.2401 C   0  0  0  0  0  0  0  0  0  0  0  0
  -20.9357    3.9090  -20.9615 C   0  0  0  0  0  0  0  0  0  0  0  0
  -20.2889    4.3041  -19.8783 C   0  0  0  0  0  0  0  0  0  0  0  0
  -20.1332    5.7468  -19.5129 C   0  0  0  0  0  0  0  0  0  0  0  0
  -19.6576    3.3502  -18.9189 C   0  0  0  0  0  0  0  0  0  0  0  0
  -19.1517   -4.4241  -19.6459 P   0  0  1  0  0  0  0  0  0  0  0  0
  -19.5105   -3.1069  -20.2289 O   0  0  0  0  0  0  0  0  0  0  0  0
  -17.7347   -4.8488  -19.5405 O   0  0  0  0  0  0  0  0  0  0  0  0
  -20.0298   -5.5689  -20.3377 O   0  0  0  0  0  0  0  0  0  0  0  0
  -21.0146   -6.7371  -19.8440 P   0  0  1  0  0  0  0  0  0  0  0  0
  -21.9070   -6.0936  -18.8486 O   0  0  0  0  0  0  0  0  0  0  0  0
  -21.7331   -7.2053  -21.0608 O   0  0  0  0  0  0  0  0  0  0  0  0
  -20.1596   -7.7941  -19.2562 O   0  0  0  0  0  0  0  0  0  0  0  0
  -19.1524   -4.3400  -16.1475 H   0  0  0  0  0  0  0  0  0  0  0  0
  -17.9585   -3.7023  -17.3040 H   0  0  0  0  0  0  0  0  0  0  0  0
  -17.4194   -1.1588  -15.6953 H   0  0  0  0  0  0  0  0  0  0  0  0
  -17.0787   -2.0298  -17.2289 H   0  0  0  0  0  0  0  0  0  0  0  0
  -17.2404   -0.2408  -17.2289 H   0  0  0  0  0  0  0  0  0  0  0  0
  -19.9085    0.5264  -16.3546 H   0  0  0  0  0  0  0  0  0  0  0  0
  -19.2184    0.5376  -18.0425 H   0  0  0  0  0  0  0  0  0  0  0  0
  -21.2589   -1.2827  -18.2261 H   0  0  0  0  0  0  0  0  0  0  0  0
  -21.9143   -0.0126  -17.0967 H   0  0  0  0  0  0  0  0  0  0  0  0
  -20.5904    1.0326  -19.5928 H   0  0  0  0  0  0  0  0  0  0  0  0
  -24.0628    0.3525  -18.0708 H   0  0  0  0  0  0  0  0  0  0  0  0
  -24.7783    0.9939  -19.5884 H   0  0  0  0  0  0  0  0  0  0  0  0
  -23.9546   -0.6023  -19.5884 H   0  0  0  0  0  0  0  0  0  0  0  0
  -23.6249    2.1639  -21.0299 H   0  0  0  0  0  0  0  0  0  0  0  0
  -22.8438    3.1567  -19.6898 H   0  0  0  0  0  0  0  0  0  0  0  0
  -20.7936    1.7973  -21.0571 H   0  0  0  0  0  0  0  0  0  0  0  0
  -21.8849    2.5775  -22.2872 H   0  0  0  0  0  0  0  0  0  0  0  0
  -21.0354    4.6587  -21.7603 H   0  0  0  0  0  0  0  0  0  0  0  0
  -20.1222    5.8485  -18.4177 H   0  0  0  0  0  0  0  0  0  0  0  0
  -19.1885    6.1298  -19.9262 H   0  0  0  0  0  0  0  0  0  0  0  0
  -20.9744    6.3225  -19.9262 H   0  0  0  0  0  0  0  0  0  0  0  0
  -19.8703    3.6716  -17.8887 H   0  0  0  0  0  0  0  0  0  0  0  0
  -20.0676    2.3423  -19.0806 H   0  0  0  0  0  0  0  0  0  0  0  0
  -18.5696    3.3337  -19.0806 H   0  0  0  0  0  0  0  0  0  0  0  0
  1  2  1  0
  1  3  1  0
  2 18  1  0
  3  4  1  0
  3  5  2  3
  5  6  1  0
  5  7  1  0
  7  8  1  0
  8  9  1  0
  9 10  2  3
 10 11  1  0
 10 12  1  0
 12 13  1  0
 13 14  1  0
 14 15  2  3
 15 16  1  0
 15 17  1  0
 18 19  2  0
 18 20  1  1
 18 21  1  0
 21 22  1  0
 22 23  1  1
 22 24  1  0
 22 25  2  0
  1 26  1  0
  1 27  1  0
  6 28  1  0
  6 29  1  0
  6 30  1  0
  7 31  1  0
  7 32  1  0
  8 33  1  0
  8 34  1  0
  9 35  1  0
 11 36  1  0
 11 37  1  0
 11 38  1  0
 12 39  1  0
 12 40  1  0
 13 41  1  0
 13 42  1  0
 14 43  1  0
 16 44  1  0
 16 45  1  0
 16 46  1  0
 17 47  1  0
 17 48  1  0
 17 49  1  0
M  CHG  3  20  -1  23  -1  24  -1
M  END
>  <filename_input>  (24) 
7XQZ_FPF_docked.sdf

>  <pdb_id>  (24) 
7XQZ_FPF

>  <pose_rank>  (24) 
23

>  <num_atoms_heavy>  (24) 
25

>  <num_torsions>  (24) 
11

>  <pose>  (24) 
[-19.70128284054196, -2.4757160198741266, -17.039561631139133, 1.874302692703907, 1.3306821673599287, 1.6054203473752389, 1.9742590127860382, -1.758300456966042, -1.527900490603743, 2.762558639207973, -1.6133486026453074, 1.190125317662523, 2.8990312021432953, -0.5378196456963, -1.711630057378808, 5.631131684909159, -0.051717780084602115]

>  <energy>  (24) 
-463.0064967870555

>  <inter_energy>  (24) 
-514.1311400672023

>  <intra_energy>  (24) 
49.1815121035008

>  <rmsd>  (24) 
7.86173

>  <sdf_rank>  (24) 
0

$$$$

     RDKit          3D

 49 48  0  0  0  0  0  0  0  0999 V2000
  -21.1746   -6.4452  -18.5476 C   0  0  0  0  0  0  0  0  0  0  0  0
  -20.0714   -6.9721  -19.2523 O   0  0  0  0  0  0  0  0  0  0  0  0
  -20.6343   -5.5224  -17.5023 C   0  0  0  0  0  0  0  0  0  0  0  0
  -19.7027   -6.1084  -16.7089 F   0  0  0  0  0  0  0  0  0  0  0  0
  -20.9958   -4.2575  -17.3387 C   0  0  0  0  0  0  0  0  0  0  0  0
  -21.7690   -3.4931  -18.3636 C   0  0  0  0  0  0  0  0  0  0  0  0
  -20.6679   -3.5074  -16.0788 C   0  0  0  0  0  0  0  0  0  0  0  0
  -20.1436   -2.1152  -16.3384 C   0  0  0  0  0  0  0  0  0  0  0  0
  -19.7054   -1.9145  -17.7565 C   0  0  0  0  0  0  0  0  0  0  0  0
  -18.9880   -0.9193  -18.2669 C   0  0  0  0  0  0  0  0  0  0  0  0
  -18.8062    0.4057  -17.5904 C   0  0  0  0  0  0  0  0  0  0  0  0
  -18.2814   -1.0719  -19.5841 C   0  0  0  0  0  0  0  0  0  0  0  0
  -18.1234   -2.4952  -20.0744 C   0  0  0  0  0  0  0  0  0  0  0  0
  -18.0703   -3.4843  -18.9581 C   0  0  0  0  0  0  0  0  0  0  0  0
  -17.0094   -3.9317  -18.3083 C   0  0  0  0  0  0  0  0  0  0  0  0
  -17.0103   -5.2252  -17.5561 C   0  0  0  0  0  0  0  0  0  0  0  0
  -15.7135   -3.1916  -18.2669 C   0  0  0  0  0  0  0  0  0  0  0  0
  -19.8408   -6.6173  -20.7906 P   0  0  1  0  0  0  0  0  0  0  0  0
  -20.4369   -5.3008  -21.1301 O   0  0  0  0  0  0  0  0  0  0  0  0
  -18.3882   -6.8616  -20.9623 O   0  0  0  0  0  0  0  0  0  0  0  0
  -20.6909   -7.7812  -21.4856 O   0  0  0  0  0  0  0  0  0  0  0  0
  -20.5045   -8.7672  -22.7390 P   0  0  1  0  0  0  0  0  0  0  0  0
  -19.1654   -9.3782  -22.5528 O   0  0  0  0  0  0  0  0  0  0  0  0
  -21.6170   -9.7526  -22.6508 O   0  0  0  0  0  0  0  0  0  0  0  0
  -20.5935   -7.9288  -23.9568 O   0  0  0  0  0  0  0  0  0  0  0  0
  -21.8313   -5.8920  -19.2352 H   0  0  0  0  0  0  0  0  0  0  0  0
  -21.7647   -7.2518  -18.0880 H   0  0  0  0  0  0  0  0  0  0  0  0
  -22.4646   -2.8054  -17.8606 H   0  0  0  0  0  0  0  0  0  0  0  0
  -21.0743   -2.9170  -18.9925 H   0  0  0  0  0  0  0  0  0  0  0  0
  -22.3372   -4.1943  -18.9925 H   0  0  0  0  0  0  0  0  0  0  0  0
  -21.5806   -3.4300  -15.4697 H   0  0  0  0  0  0  0  0  0  0  0  0
  -19.8740   -4.0660  -15.5614 H   0  0  0  0  0  0  0  0  0  0  0  0
  -20.9404   -1.3916  -16.1112 H   0  0  0  0  0  0  0  0  0  0  0  0
  -19.2630   -1.9680  -15.6959 H   0  0  0  0  0  0  0  0  0  0  0  0
  -20.0182   -2.6926  -18.4684 H   0  0  0  0  0  0  0  0  0  0  0  0
  -18.8254    0.2660  -16.4994 H   0  0  0  0  0  0  0  0  0  0  0  0
  -17.8401    0.8397  -17.8876 H   0  0  0  0  0  0  0  0  0  0  0  0
  -19.6198    1.0838  -17.8876 H   0  0  0  0  0  0  0  0  0  0  0  0
  -18.8508   -0.5132  -20.3415 H   0  0  0  0  0  0  0  0  0  0  0  0
  -17.2618   -0.6900  -19.4274 H   0  0  0  0  0  0  0  0  0  0  0  0
  -18.9772   -2.7413  -20.7228 H   0  0  0  0  0  0  0  0  0  0  0  0
  -17.1695   -2.5560  -20.6189 H   0  0  0  0  0  0  0  0  0  0  0  0
  -19.0385   -3.8939  -18.6343 H   0  0  0  0  0  0  0  0  0  0  0  0
  -17.0102   -5.0208  -16.4753 H   0  0  0  0  0  0  0  0  0  0  0  0
  -17.9088   -5.8022  -17.8200 H   0  0  0  0  0  0  0  0  0  0  0  0
  -16.1126   -5.8034  -17.8200 H   0  0  0  0  0  0  0  0  0  0  0  0
  -15.4202   -3.0240  -17.2201 H   0  0  0  0  0  0  0  0  0  0  0  0
  -14.9373   -3.7826  -18.7751 H   0  0  0  0  0  0  0  0  0  0  0  0
  -15.8281   -2.2227  -18.7751 H   0  0  0  0  0  0  0  0  0  0  0  0
  1  2  1  0
  1  3  1  0
  2 18  1  0
  3  4  1  0
  3  5  2  3
  5  6  1  0
  5  7  1  0
  7  8  1  0
  8  9  1  0
  9 10  2  3
 10 11  1  0
 10 12  1  0
 12 13  1  0
 13 14  1  0
 14 15  2  3
 15 16  1  0
 15 17  1  0
 18 19  2  0
 18 20  1  6
 18 21  1  0
 21 22  1  0
 22 23  1  1
 22 24  1  0
 22 25  2  0
  1 26  1  0
  1 27  1  0
  6 28  1  0
  6 29  1  0
  6 30  1  0
  7 31  1  0
  7 32  1  0
  8 33  1  0
  8 34  1  0
  9 35  1  0
 11 36  1  0
 11 37  1  0
 11 38  1  0
 12 39  1  0
 12 40  1  0
 13 41  1  0
 13 42  1  0
 14 43  1  0
 16 44  1  0
 16 45  1  0
 16 46  1  0
 17 47  1  0
 17 48  1  0
 17 49  1  0
M  CHG  3  20  -1  23  -1  24  -1
M  END
>  <filename_input>  (25) 
7XQZ_FPF_docked.sdf

>  <pdb_id>  (25) 
7XQZ_FPF

>  <pose_rank>  (25) 
24

>  <num_atoms_heavy>  (25) 
25

>  <num_torsions>  (25) 
11

>  <pose>  (25) 
[-20.63428617704166, -5.522403885416101, -17.50228212306096, 3.4913668061561722, 2.131319564030714, -1.3695308143153904, 0.15816651907845963, 1.0075312849088163, 0.19838937220382816, 0.507574289763564, 4.741437642255447, 3.7896318465597996, -1.3104210282208948, -0.7476635847830158, -2.506193632229102, 0.9561519720821899, 3.4577675926588785]

>  <energy>  (25) 
-412.0670040150351

>  <inter_energy>  (25) 
-521.2613441876308

>  <intra_energy>  (25) 
107.86847427464694

>  <rmsd>  (25) 
7.5776

>  <sdf_rank>  (25) 
0

$$$$

     RDKit          3D

 49 48  0  0  0  0  0  0  0  0999 V2000
  -19.8200    0.0590  -18.5650 C   0  0  0  0  0  0  0  0  0  0  0  0
  -19.6480    1.1660  -19.4230 O   0  0  0  0  0  0  0  0  0  0  0  0
  -18.6530   -0.8520  -18.7760 C   0  0  0  0  0  0  0  0  0  0  0  0
  -18.5860   -1.3430  -20.0390 F   0  0  0  0  0  0  0  0  0  0  0  0
  -17.7530   -1.1670  -17.8550 C   0  0  0  0  0  0  0  0  0  0  0  0
  -17.6090   -0.4200  -16.5690 C   0  0  0  0  0  0  0  0  0  0  0  0
  -16.8220   -2.3320  -18.0380 C   0  0  0  0  0  0  0  0  0  0  0  0
  -17.4530   -3.6560  -17.6780 C   0  0  0  0  0  0  0  0  0  0  0  0
  -18.6750   -3.9570  -18.4900 C   0  0  0  0  0  0  0  0  0  0  0  0
  -19.9030   -4.2330  -18.0640 C   0  0  0  0  0  0  0  0  0  0  0  0
  -20.2170   -4.6820  -16.6690 C   0  0  0  0  0  0  0  0  0  0  0  0
  -21.0880   -4.0920  -18.9770 C   0  0  0  0  0  0  0  0  0  0  0  0
  -21.9800   -5.3110  -19.0750 C   0  0  0  0  0  0  0  0  0  0  0  0
  -21.4660   -6.3220  -20.0450 C   0  0  0  0  0  0  0  0  0  0  0  0
  -20.4160   -7.1160  -19.9230 C   0  0  0  0  0  0  0  0  0  0  0  0
  -19.7300   -7.7330  -21.1010 C   0  0  0  0  0  0  0  0  0  0  0  0
  -19.8160   -7.4680  -18.6020 C   0  0  0  0  0  0  0  0  0  0  0  0
  -20.6080    2.4360  -19.3190 P   0  0  1  0  0  0  0  0  0  0  0  0
  -21.3650    2.4300  -18.0420 O   0  0  0  0  0  0  0  0  0  0  0  0
  -19.6970    3.5560  -19.6580 O   0  0  0  0  0  0  0  0  0  0  0  0
  -21.6090    2.1410  -20.5320 O   0  0  0  0  0  0  0  0  0  0  0  0
  -22.7210    2.9630  -21.3480 P   0  0  1  0  0  0  0  0  0  0  0  0
  -22.5250    2.5730  -22.7660 O   0  0  0  0  0  0  0  0  0  0  0  0
  -24.0340    2.5300  -20.7960 O   0  0  0  0  0  0  0  0  0  0  0  0
  -22.4550    4.3990  -21.1010 O   0  0  0  0  0  0  0  0  0  0  0  0
  -19.8507    0.3952  -17.5181 H   0  0  0  0  0  0  0  0  0  0  0  0
  -20.7645   -0.4606  -18.7839 H   0  0  0  0  0  0  0  0  0  0  0  0
  -17.7426   -1.1132  -15.7254 H   0  0  0  0  0  0  0  0  0  0  0  0
  -16.6073    0.0315  -16.5174 H   0  0  0  0  0  0  0  0  0  0  0  0
  -18.3711    0.3716  -16.5174 H   0  0  0  0  0  0  0  0  0  0  0  0
  -16.5093   -2.3682  -19.0920 H   0  0  0  0  0  0  0  0  0  0  0  0
  -15.9688   -2.1800  -17.3606 H   0  0  0  0  0  0  0  0  0  0  0  0
  -16.7147   -4.4541  -17.8452 H   0  0  0  0  0  0  0  0  0  0  0  0
  -17.7618   -3.5997  -16.6237 H   0  0  0  0  0  0  0  0  0  0  0  0
  -18.5380   -3.9485  -19.5814 H   0  0  0  0  0  0  0  0  0  0  0  0
  -19.7406   -4.0008  -15.9486 H   0  0  0  0  0  0  0  0  0  0  0  0
  -21.3064   -4.6727  -16.5173 H   0  0  0  0  0  0  0  0  0  0  0  0
  -19.8344   -5.7021  -16.5173 H   0  0  0  0  0  0  0  0  0  0  0  0
  -21.6989   -3.2527  -18.6132 H   0  0  0  0  0  0  0  0  0  0  0  0
  -20.6772   -3.9349  -19.9852 H   0  0  0  0  0  0  0  0  0  0  0  0
  -22.0479   -5.7786  -18.0817 H   0  0  0  0  0  0  0  0  0  0  0  0
  -22.9643   -4.9755  -19.4337 H   0  0  0  0  0  0  0  0  0  0  0  0
  -22.0339   -6.4190  -20.9821 H   0  0  0  0  0  0  0  0  0  0  0  0
  -18.9548   -8.4302  -20.7502 H   0  0  0  0  0  0  0  0  0  0  0  0
  -20.4660   -8.2790  -21.7094 H   0  0  0  0  0  0  0  0  0  0  0  0
  -19.2648   -6.9434  -21.7094 H   0  0  0  0  0  0  0  0  0  0  0  0
  -20.4601   -7.0901  -17.7944 H   0  0  0  0  0  0  0  0  0  0  0  0
  -19.7274   -8.5613  -18.5192 H   0  0  0  0  0  0  0  0  0  0  0  0
  -18.8184   -7.0119  -18.5192 H   0  0  0  0  0  0  0  0  0  0  0  0
  1  2  1  0
  1  3  1  0
  2 18  1  0
  3  4  1  0
  3  5  2  3
  5  6  1  0
  5  7  1  0
  7  8  1  0
  8  9  1  0
  9 10  2  3
 10 11  1  0
 10 12  1  0
 12 13  1  0
 13 14  1  0
 14 15  2  3
 15 16  1  0
 15 17  1  0
 18 19  2  0
 18 20  1  6
 18 21  1  0
 21 22  1  0
 22 23  1  6
 22 24  1  0
 22 25  2  0
  1 26  1  0
  1 27  1  0
  6 28  1  0
  6 29  1  0
  6 30  1  0
  7 31  1  0
  7 32  1  0
  8 33  1  0
  8 34  1  0
  9 35  1  0
 11 36  1  0
 11 37  1  0
 11 38  1  0
 12 39  1  0
 12 40  1  0
 13 41  1  0
 13 42  1  0
 14 43  1  0
 16 44  1  0
 16 45  1  0
 16 46  1  0
 17 47  1  0
 17 48  1  0
 17 49  1  0
M  CHG  3  20  -1  23  -1  24  -1
M  END
>  <filename_input>  (26) 
7XQZ_FPF_docked.sdf

>  <pdb_id>  (26) 
7XQZ_FPF

>  <pose_rank>  (26) 
25

>  <num_atoms_heavy>  (26) 
25

>  <num_torsions>  (26) 
11

>  <pose>  (26) 
[-18.653, -0.852, -18.776, 1e-06, 1e-06, 1e-06, 0.0, 0.0, 0.0, 0.0, 0.0, 0.0, 0.0, 0.0, 0.0, 0.0, 0.0]

>  <energy>  (26) 
-852.2330905986895

>  <inter_energy>  (26) 
-895.9074209304314

>  <intra_energy>  (26) 
36.38958957645916

>  <rmsd>  (26) 
0.0

>  <sdf_rank>  (26) 
0

$$$$
