
     RDKit          3D

 34 36  0  0  0  0  0  0  0  0999 V2000
    8.7555    1.1426   41.7583 C   0  0  0  0  0  0  0  0  0  0  0  0
    9.6478    0.2351   42.5814 C   0  0  1  0  0  0  0  0  0  0  0  0
    9.6520   -1.0694   41.9885 O   0  0  0  0  0  0  0  0  0  0  0  0
   11.0949    0.6666   42.6104 C   0  0  1  0  0  0  0  0  0  0  0  0
   11.3309    1.6012   43.6771 O   0  0  0  0  0  0  0  0  0  0  0  0
   11.8105   -0.6530   42.8284 C   0  0  1  0  0  0  0  0  0  0  0  0
   11.8885   -0.9181   44.2257 O   0  0  0  0  0  0  0  0  0  0  0  0
   10.9044   -1.7230   42.2342 C   0  0  2  0  0  0  0  0  0  0  0  0
   11.3117   -2.2156   40.8975 N   0  0  0  0  0  0  0  0  0  0  0  0
   12.1600   -3.2523   40.7267 C   0  0  0  0  0  0  0  0  0  0  0  0
   12.3191   -3.5459   39.4148 N   0  0  0  0  0  0  0  0  0  0  0  0
   11.5466   -2.6991   38.7215 C   0  0  0  0  0  0  0  0  0  0  0  0
   10.8683   -1.8229   39.7011 C   0  0  0  0  0  0  0  0  0  0  0  0
   10.0280   -0.8622   39.2375 N   0  0  0  0  0  0  0  0  0  0  0  0
    9.8089   -0.7151   37.9196 C   0  0  0  0  0  0  0  0  0  0  0  0
   10.4044   -1.4731   36.9879 N   0  0  0  0  0  0  0  0  0  0  0  0
   11.2658   -2.4670   37.2953 C   0  0  0  0  0  0  0  0  0  0  0  0
   11.8508   -3.2325   36.3311 N   0  0  0  0  0  0  0  0  0  0  0  0
    7.4053    0.4579   41.6745 C   0  0  0  0  0  0  0  0  0  0  0  0
    8.6550    2.1225   42.2480 H   0  0  0  0  0  0  0  0  0  0  0  0
    9.1776    1.3139   40.7571 H   0  0  0  0  0  0  0  0  0  0  0  0
    9.2419    0.2633   43.6034 H   0  0  0  0  0  0  0  0  0  0  0  0
   11.4312    1.1944   41.7058 H   0  0  0  0  0  0  0  0  0  0  0  0
   11.2155    1.1443   44.5477 H   0  0  0  0  0  0  0  0  0  0  0  0
   12.8165   -0.6341   42.3839 H   0  0  0  0  0  0  0  0  0  0  0  0
   11.6480   -0.1012   44.7305 H   0  0  0  0  0  0  0  0  0  0  0  0
   10.9081   -2.5706   42.9354 H   0  0  0  0  0  0  0  0  0  0  0  0
   12.6577   -3.7890   41.5478 H   0  0  0  0  0  0  0  0  0  0  0  0
    9.1071    0.0651   37.5896 H   0  0  0  0  0  0  0  0  0  0  0  0
   11.6433   -3.0567   35.3377 H   0  0  0  0  0  0  0  0  0  0  0  0
   12.5004   -3.9867   36.5959 H   0  0  0  0  0  0  0  0  0  0  0  0
    7.0276    0.2664   42.6897 H   0  0  0  0  0  0  0  0  0  0  0  0
    6.6981    1.1064   41.1364 H   0  0  0  0  0  0  0  0  0  0  0  0
    7.5106   -0.4957   41.1364 H   0  0  0  0  0  0  0  0  0  0  0  0
  2  1  1  0
  1 19  1  0
  2  3  1  0
  2  4  1  0
  3  8  1  0
  4  5  1  0
  4  6  1  0
  6  7  1  0
  6  8  1  0
  8  9  1  0
  9 10  1  0
  9 13  1  0
 10 11  2  0
 11 12  1  0
 12 13  2  0
 12 17  1  0
 13 14  1  0
 14 15  2  0
 15 16  1  0
 16 17  2  0
 17 18  1  0
  1 20  1  0
  1 21  1  0
  2 22  1  1
  4 23  1  6
  5 24  1  0
  6 25  1  6
  7 26  1  0
  8 27  1  1
 10 28  1  0
 15 29  1  0
 18 30  1  0
 18 31  1  0
 19 32  1  0
 19 33  1  0
 19 34  1  0
M  END
>  <filename_input>  (1) 
7XRL_FWK_docked.sdf

>  <pdb_id>  (1) 
7XRL_FWK

>  <pose_rank>  (1) 
0

>  <num_atoms_heavy>  (1) 
19

>  <num_torsions>  (1) 
2

>  <pose>  (1) 
[11.311701501830402, -2.2155959594304098, 40.897508537800235, -0.9300946236569729, 1.2228501993448455, 2.864618522957873, -1.2719946216123317, -6.578461418370451]

>  <energy>  (1) 
-884.5119106322056

>  <inter_energy>  (1) 
-885.3093868932178

>  <intra_energy>  (1) 
17.914968459093043

>  <rmsd>  (1) 
2.9514

>  <sdf_rank>  (1) 
0

$$$$

     RDKit          3D

 34 36  0  0  0  0  0  0  0  0999 V2000
    9.3505    2.2493   42.4354 C   0  0  0  0  0  0  0  0  0  0  0  0
    9.7443    0.8755   42.9403 C   0  0  1  0  0  0  0  0  0  0  0  0
    9.1967   -0.1141   42.0603 O   0  0  0  0  0  0  0  0  0  0  0  0
   11.2346    0.6306   42.9406 C   0  0  1  0  0  0  0  0  0  0  0  0
   11.8283    1.0781   44.1711 O   0  0  0  0  0  0  0  0  0  0  0  0
   11.3041   -0.8760   42.7789 C   0  0  1  0  0  0  0  0  0  0  0  0
   11.2293   -1.4887   44.0626 O   0  0  0  0  0  0  0  0  0  0  0  0
   10.0375   -1.2753   42.0337 C   0  0  2  0  0  0  0  0  0  0  0  0
   10.2207   -1.5432   40.5881 N   0  0  0  0  0  0  0  0  0  0  0  0
    9.5685   -0.8535   39.6276 C   0  0  0  0  0  0  0  0  0  0  0  0
    9.9582   -1.2446   38.3915 N   0  0  0  0  0  0  0  0  0  0  0  0
   10.8934   -2.1905   38.5503 C   0  0  0  0  0  0  0  0  0  0  0  0
   11.0786   -2.3834   40.0049 C   0  0  0  0  0  0  0  0  0  0  0  0
   11.9787   -3.3089   40.4258 N   0  0  0  0  0  0  0  0  0  0  0  0
   12.6928   -4.0278   39.5428 C   0  0  0  0  0  0  0  0  0  0  0  0
   12.5580   -3.9020   38.2149 N   0  0  0  0  0  0  0  0  0  0  0  0
   11.7022   -3.0249   37.6469 C   0  0  0  0  0  0  0  0  0  0  0  0
   11.5902   -2.9065   36.2936 N   0  0  0  0  0  0  0  0  0  0  0  0
    7.9655    2.1066   41.8351 C   0  0  0  0  0  0  0  0  0  0  0  0
    9.3319    2.9689   43.2671 H   0  0  0  0  0  0  0  0  0  0  0  0
   10.0703    2.6210   41.6912 H   0  0  0  0  0  0  0  0  0  0  0  0
    9.3684    0.8171   43.9724 H   0  0  0  0  0  0  0  0  0  0  0  0
   11.7858    1.1733   42.1585 H   0  0  0  0  0  0  0  0  0  0  0  0
   11.3266    0.7000   44.9363 H   0  0  0  0  0  0  0  0  0  0  0  0
   12.2287   -1.1751   42.2635 H   0  0  0  0  0  0  0  0  0  0  0  0
   11.3139   -0.7956   44.7645 H   0  0  0  0  0  0  0  0  0  0  0  0
    9.6590   -2.1898   42.5137 H   0  0  0  0  0  0  0  0  0  0  0  0
    8.8173   -0.0744   39.8242 H   0  0  0  0  0  0  0  0  0  0  0  0
   13.4231   -4.7545   39.9282 H   0  0  0  0  0  0  0  0  0  0  0  0
   12.1637   -3.4982   35.6756 H   0  0  0  0  0  0  0  0  0  0  0  0
   10.9321   -2.2253   35.8889 H   0  0  0  0  0  0  0  0  0  0  0  0
    7.2221    2.0300   42.6422 H   0  0  0  0  0  0  0  0  0  0  0  0
    7.7427    2.9866   41.2137 H   0  0  0  0  0  0  0  0  0  0  0  0
    7.9269    1.1997   41.2137 H   0  0  0  0  0  0  0  0  0  0  0  0
  2  1  1  0
  1 19  1  0
  2  3  1  0
  2  4  1  0
  3  8  1  0
  4  5  1  0
  4  6  1  0
  6  7  1  0
  6  8  1  0
  8  9  1  0
  9 10  1  0
  9 13  1  0
 10 11  2  0
 11 12  1  0
 12 13  2  0
 12 17  1  0
 13 14  1  0
 14 15  2  0
 15 16  1  0
 16 17  2  0
 17 18  1  0
  1 20  1  0
  1 21  1  0
  2 22  1  1
  4 23  1  6
  5 24  1  0
  6 25  1  6
  7 26  1  0
  8 27  1  1
 10 28  1  0
 15 29  1  0
 18 30  1  0
 18 31  1  0
 19 32  1  0
 19 33  1  0
 19 34  1  0
M  END
>  <filename_input>  (2) 
7XRL_FWK_docked.sdf

>  <pdb_id>  (2) 
7XRL_FWK

>  <pose_rank>  (2) 
1

>  <num_atoms_heavy>  (2) 
19

>  <num_torsions>  (2) 
2

>  <pose>  (2) 
[10.220650877512451, -1.5431786786167834, 40.58805127671764, 0.22359432712108138, 0.23165554707306452, 0.154178253501678, -4.928473782285948, -6.934335163082855]

>  <energy>  (2) 
-839.9429385288191

>  <inter_energy>  (2) 
-813.5392087067887

>  <intra_energy>  (2) 
1.959601156978976

>  <rmsd>  (2) 
1.86483

>  <sdf_rank>  (2) 
0

$$$$

     RDKit          3D

 34 36  0  0  0  0  0  0  0  0999 V2000
   12.4395    0.1850   43.3129 C   0  0  0  0  0  0  0  0  0  0  0  0
   10.9441    0.1850   43.0659 C   0  0  1  0  0  0  0  0  0  0  0  0
   10.7025    0.5301   41.6963 O   0  0  0  0  0  0  0  0  0  0  0  0
   10.2946   -1.1647   43.2595 C   0  0  1  0  0  0  0  0  0  0  0  0
    9.9074   -1.3564   44.6308 O   0  0  0  0  0  0  0  0  0  0  0  0
    9.1006   -1.0737   42.3284 C   0  0  1  0  0  0  0  0  0  0  0  0
    8.0093   -0.4778   43.0232 O   0  0  0  0  0  0  0  0  0  0  0  0
    9.5002   -0.0973   41.2303 C   0  0  2  0  0  0  0  0  0  0  0  0
    9.9052   -0.7261   39.9513 N   0  0  0  0  0  0  0  0  0  0  0  0
    9.5193   -0.2510   38.7477 C   0  0  0  0  0  0  0  0  0  0  0  0
   10.0745   -0.9616   37.7380 N   0  0  0  0  0  0  0  0  0  0  0  0
   10.8498   -1.9023   38.2935 C   0  0  0  0  0  0  0  0  0  0  0  0
   10.7494   -1.7425   39.7604 C   0  0  0  0  0  0  0  0  0  0  0  0
   11.4461   -2.5963   40.5539 N   0  0  0  0  0  0  0  0  0  0  0  0
   12.2173   -3.5594   40.0206 C   0  0  0  0  0  0  0  0  0  0  0  0
   12.3365   -3.7563   38.6999 N   0  0  0  0  0  0  0  0  0  0  0  0
   11.7036   -2.9887   37.7863 C   0  0  0  0  0  0  0  0  0  0  0  0
   11.8489   -3.2007   36.4477 N   0  0  0  0  0  0  0  0  0  0  0  0
   13.0804   -0.4092   42.0738 C   0  0  0  0  0  0  0  0  0  0  0  0
   12.7986    1.2126   43.4709 H   0  0  0  0  0  0  0  0  0  0  0  0
   12.6944   -0.3972   44.2107 H   0  0  0  0  0  0  0  0  0  0  0  0
   10.5213    0.8966   43.7904 H   0  0  0  0  0  0  0  0  0  0  0  0
   10.9486   -2.0210   43.0384 H   0  0  0  0  0  0  0  0  0  0  0  0
   10.6163   -1.0054   45.2260 H   0  0  0  0  0  0  0  0  0  0  0  0
    8.8188   -2.0674   41.9502 H   0  0  0  0  0  0  0  0  0  0  0  0
    8.1560   -0.5579   43.9990 H   0  0  0  0  0  0  0  0  0  0  0  0
    8.6287    0.5472   41.0427 H   0  0  0  0  0  0  0  0  0  0  0  0
    8.8411    0.6034   38.6058 H   0  0  0  0  0  0  0  0  0  0  0  0
   12.7776   -4.2178   40.7007 H   0  0  0  0  0  0  0  0  0  0  0  0
   12.4503   -3.9655   36.1097 H   0  0  0  0  0  0  0  0  0  0  0  0
   11.3572   -2.5961   35.7742 H   0  0  0  0  0  0  0  0  0  0  0  0
   13.8569   -1.1290   42.3719 H   0  0  0  0  0  0  0  0  0  0  0  0
   12.3140   -0.9234   41.4753 H   0  0  0  0  0  0  0  0  0  0  0  0
   13.5352    0.3939   41.4753 H   0  0  0  0  0  0  0  0  0  0  0  0
  2  1  1  0
  1 19  1  0
  2  3  1  0
  2  4  1  0
  3  8  1  0
  4  5  1  0
  4  6  1  0
  6  7  1  0
  6  8  1  0
  8  9  1  0
  9 10  1  0
  9 13  1  0
 10 11  2  0
 11 12  1  0
 12 13  2  0
 12 17  1  0
 13 14  1  0
 14 15  2  0
 15 16  1  0
 16 17  2  0
 17 18  1  0
  1 20  1  0
  1 21  1  0
  2 22  1  1
  4 23  1  6
  5 24  1  0
  6 25  1  6
  7 26  1  0
  8 27  1  6
 10 28  1  0
 15 29  1  0
 18 30  1  0
 18 31  1  0
 19 32  1  0
 19 33  1  0
 19 34  1  0
M  END
>  <filename_input>  (3) 
7XRL_FWK_docked.sdf

>  <pdb_id>  (3) 
7XRL_FWK

>  <pose_rank>  (3) 
2

>  <num_atoms_heavy>  (3) 
19

>  <num_torsions>  (3) 
2

>  <pose>  (3) 
[9.905213072165292, -0.7261127070288544, 39.95133268496242, -0.021558367046320588, 0.04654102596191663, 0.05179105757205269, -6.7024377021199815, 4.352721214872869]

>  <energy>  (3) 
-794.2770740532842

>  <inter_energy>  (3) 
-808.4903449145783

>  <intra_energy>  (3) 
24.0408969415434

>  <rmsd>  (3) 
0.933856

>  <sdf_rank>  (3) 
0

$$$$

     RDKit          3D

 34 36  0  0  0  0  0  0  0  0999 V2000
    8.3627    0.7783   44.0851 C   0  0  0  0  0  0  0  0  0  0  0  0
    8.9229    1.4386   42.8411 C   0  0  1  0  0  0  0  0  0  0  0  0
   10.2669    0.9832   42.6422 O   0  0  0  0  0  0  0  0  0  0  0  0
    8.1854    1.0756   41.5741 C   0  0  1  0  0  0  0  0  0  0  0  0
    7.0765    1.9636   41.3529 O   0  0  0  0  0  0  0  0  0  0  0  0
    9.2699    1.2318   40.5252 C   0  0  1  0  0  0  0  0  0  0  0  0
    9.3049    2.5863   40.0859 O   0  0  0  0  0  0  0  0  0  0  0  0
   10.5873    0.9753   41.2446 C   0  0  2  0  0  0  0  0  0  0  0  0
   11.1681   -0.3699   41.0251 N   0  0  0  0  0  0  0  0  0  0  0  0
   11.4947   -1.2004   42.0386 C   0  0  0  0  0  0  0  0  0  0  0  0
   11.9438   -2.3899   41.5737 N   0  0  0  0  0  0  0  0  0  0  0  0
   11.8904   -2.3397   40.2361 C   0  0  0  0  0  0  0  0  0  0  0  0
   11.3660   -1.0065   39.8685 C   0  0  0  0  0  0  0  0  0  0  0  0
   11.2269   -0.7062   38.5515 N   0  0  0  0  0  0  0  0  0  0  0  0
   11.5490   -1.6015   37.6022 C   0  0  0  0  0  0  0  0  0  0  0  0
   12.0382   -2.8189   37.8779 N   0  0  0  0  0  0  0  0  0  0  0  0
   12.2333   -3.2598   39.1396 C   0  0  0  0  0  0  0  0  0  0  0  0
   12.7215   -4.5064   39.3960 N   0  0  0  0  0  0  0  0  0  0  0  0
    7.7337    1.8825   44.9124 C   0  0  0  0  0  0  0  0  0  0  0  0
    7.6043    0.0307   43.8098 H   0  0  0  0  0  0  0  0  0  0  0  0
    9.1513    0.2587   44.6491 H   0  0  0  0  0  0  0  0  0  0  0  0
    8.8356    2.5217   43.0122 H   0  0  0  0  0  0  0  0  0  0  0  0
    7.7343    0.0724   41.5808 H   0  0  0  0  0  0  0  0  0  0  0  0
    6.7099    2.2572   42.2244 H   0  0  0  0  0  0  0  0  0  0  0  0
    9.0961    0.5563   39.6746 H   0  0  0  0  0  0  0  0  0  0  0  0
    9.3205    3.1879   40.8720 H   0  0  0  0  0  0  0  0  0  0  0  0
   11.3020    1.7285   40.8812 H   0  0  0  0  0  0  0  0  0  0  0  0
   11.4070   -0.9434   43.1045 H   0  0  0  0  0  0  0  0  0  0  0  0
   11.4043   -1.3220   36.5483 H   0  0  0  0  0  0  0  0  0  0  0  0
   12.9564   -5.1378   38.6169 H   0  0  0  0  0  0  0  0  0  0  0  0
   12.8555   -4.8169   40.3689 H   0  0  0  0  0  0  0  0  0  0  0  0
    7.8617    1.6578   45.9815 H   0  0  0  0  0  0  0  0  0  0  0  0
    8.2220    2.8399   44.6778 H   0  0  0  0  0  0  0  0  0  0  0  0
    6.6612    1.9507   44.6778 H   0  0  0  0  0  0  0  0  0  0  0  0
  2  1  1  0
  1 19  1  0
  2  3  1  0
  2  4  1  0
  3  8  1  0
  4  5  1  0
  4  6  1  0
  6  7  1  0
  6  8  1  0
  8  9  1  0
  9 10  1  0
  9 13  1  0
 10 11  2  0
 11 12  1  0
 12 13  2  0
 12 17  1  0
 13 14  1  0
 14 15  2  0
 15 16  1  0
 16 17  2  0
 17 18  1  0
  1 20  1  0
  1 21  1  0
  2 22  1  1
  4 23  1  1
  5 24  1  0
  6 25  1  6
  7 26  1  0
  8 27  1  1
 10 28  1  0
 15 29  1  0
 18 30  1  0
 18 31  1  0
 19 32  1  0
 19 33  1  0
 19 34  1  0
M  END
>  <filename_input>  (4) 
7XRL_FWK_docked.sdf

>  <pdb_id>  (4) 
7XRL_FWK

>  <pose_rank>  (4) 
3

>  <num_atoms_heavy>  (4) 
19

>  <num_torsions>  (4) 
2

>  <pose>  (4) 
[11.168115681077193, -0.36992550546362807, 41.025059990504204, 1.2983305907957046, -2.358782586044751, -1.800568898699761, 1.2741644554017526, 1.0476451062671546]

>  <energy>  (4) 
-578.2676189409323

>  <inter_energy>  (4) 
-589.9200128152683

>  <intra_energy>  (4) 
2.9367260391834087

>  <rmsd>  (4) 
3.33742

>  <sdf_rank>  (4) 
0

$$$$

     RDKit          3D

 34 36  0  0  0  0  0  0  0  0999 V2000
    6.5413    1.6979   41.1519 C   0  0  0  0  0  0  0  0  0  0  0  0
    7.9108    1.4841   41.7653 C   0  0  1  0  0  0  0  0  0  0  0  0
    8.3689    0.1696   41.4250 O   0  0  0  0  0  0  0  0  0  0  0  0
    8.9679    2.4254   41.2386 C   0  0  1  0  0  0  0  0  0  0  0  0
    8.9936    3.6457   41.9985 O   0  0  0  0  0  0  0  0  0  0  0  0
   10.2324    1.6066   41.4160 C   0  0  1  0  0  0  0  0  0  0  0  0
   10.7421    1.8110   42.7303 O   0  0  0  0  0  0  0  0  0  0  0  0
    9.8002    0.1484   41.3407 C   0  0  2  0  0  0  0  0  0  0  0  0
   10.0657   -0.5164   40.0435 N   0  0  0  0  0  0  0  0  0  0  0  0
    9.6727    0.0033   38.8608 C   0  0  0  0  0  0  0  0  0  0  0  0
   10.0923   -0.7605   37.8248 N   0  0  0  0  0  0  0  0  0  0  0  0
   10.7863   -1.7835   38.3408 C   0  0  0  0  0  0  0  0  0  0  0  0
   10.7808   -1.6193   39.8106 C   0  0  0  0  0  0  0  0  0  0  0  0
   11.4189   -2.5483   40.5682 N   0  0  0  0  0  0  0  0  0  0  0  0
   12.0496   -3.5888   39.9972 C   0  0  0  0  0  0  0  0  0  0  0  0
   12.0773   -3.7925   38.6724 N   0  0  0  0  0  0  0  0  0  0  0  0
   11.4868   -2.9559   37.7917 C   0  0  0  0  0  0  0  0  0  0  0  0
   11.5376   -3.1774   36.4477 N   0  0  0  0  0  0  0  0  0  0  0  0
    5.6556    2.2422   42.2557 C   0  0  0  0  0  0  0  0  0  0  0  0
    6.6041    2.4197   40.3243 H   0  0  0  0  0  0  0  0  0  0  0  0
    6.1373    0.7597   40.7439 H   0  0  0  0  0  0  0  0  0  0  0  0
    7.7843    1.6508   42.8452 H   0  0  0  0  0  0  0  0  0  0  0  0
    8.8097    2.7536   40.2007 H   0  0  0  0  0  0  0  0  0  0  0  0
    8.9891    3.4326   42.9653 H   0  0  0  0  0  0  0  0  0  0  0  0
   10.9875    1.8794   40.6641 H   0  0  0  0  0  0  0  0  0  0  0  0
   10.0608    1.5379   43.3946 H   0  0  0  0  0  0  0  0  0  0  0  0
   10.3492   -0.3889   42.1280 H   0  0  0  0  0  0  0  0  0  0  0  0
    9.0870    0.9282   38.7530 H   0  0  0  0  0  0  0  0  0  0  0  0
   12.5681   -4.3079   40.6483 H   0  0  0  0  0  0  0  0  0  0  0  0
   12.0320   -4.0028   36.0802 H   0  0  0  0  0  0  0  0  0  0  0  0
   11.0816   -2.5193   35.7997 H   0  0  0  0  0  0  0  0  0  0  0  0
    6.0846    1.9786   43.2336 H   0  0  0  0  0  0  0  0  0  0  0  0
    5.5901    3.3367   42.1670 H   0  0  0  0  0  0  0  0  0  0  0  0
    4.6496    1.8063   42.1670 H   0  0  0  0  0  0  0  0  0  0  0  0
  2  1  1  0
  1 19  1  0
  2  3  1  0
  2  4  1  0
  3  8  1  0
  4  5  1  0
  4  6  1  0
  6  7  1  0
  6  8  1  0
  8  9  1  0
  9 10  1  0
  9 13  1  0
 10 11  2  0
 11 12  1  0
 12 13  2  0
 12 17  1  0
 13 14  1  0
 14 15  2  0
 15 16  1  0
 16 17  2  0
 17 18  1  0
  1 20  1  0
  1 21  1  0
  2 22  1  1
  4 23  1  6
  5 24  1  0
  6 25  1  6
  7 26  1  0
  8 27  1  1
 10 28  1  0
 15 29  1  0
 18 30  1  0
 18 31  1  0
 19 32  1  0
 19 33  1  0
 19 34  1  0
M  END
>  <filename_input>  (5) 
7XRL_FWK_docked.sdf

>  <pdb_id>  (5) 
7XRL_FWK

>  <pose_rank>  (5) 
4

>  <num_atoms_heavy>  (5) 
19

>  <num_torsions>  (5) 
2

>  <pose>  (5) 
[10.065712668518968, -0.5163990706717289, 40.043500984938795, 0.8704658612155278, -5.260591224966279, 3.096624746933909, -3.72839047443925, -5.246336114044914]

>  <energy>  (5) 
-772.901733551542

>  <inter_energy>  (5) 
-758.4943823768704

>  <intra_energy>  (5) 
3.6003218473890914

>  <rmsd>  (5) 
2.98004

>  <sdf_rank>  (5) 
0

$$$$

     RDKit          3D

 34 36  0  0  0  0  0  0  0  0999 V2000
    7.6692   -0.0521   40.5095 C   0  0  0  0  0  0  0  0  0  0  0  0
    8.9646    0.5534   41.0122 C   0  0  1  0  0  0  0  0  0  0  0  0
    9.8348   -0.5037   41.4348 O   0  0  0  0  0  0  0  0  0  0  0  0
    9.7351    1.3079   39.9548 C   0  0  1  0  0  0  0  0  0  0  0  0
    9.3063    2.6785   39.8868 O   0  0  0  0  0  0  0  0  0  0  0  0
   11.1620    1.1720   40.4509 C   0  0  1  0  0  0  0  0  0  0  0  0
   11.4411    2.2249   41.3686 O   0  0  0  0  0  0  0  0  0  0  0  0
   11.2050   -0.1230   41.2509 C   0  0  2  0  0  0  0  0  0  0  0  0
   11.7980   -1.2789   40.5386 N   0  0  0  0  0  0  0  0  0  0  0  0
   12.7124   -2.0962   41.1037 C   0  0  0  0  0  0  0  0  0  0  0  0
   13.0463   -3.1100   40.2711 N   0  0  0  0  0  0  0  0  0  0  0  0
   12.3231   -2.9610   39.1534 C   0  0  0  0  0  0  0  0  0  0  0  0
   11.4859   -1.7548   39.3310 C   0  0  0  0  0  0  0  0  0  0  0  0
   10.6614   -1.3840   38.3178 N   0  0  0  0  0  0  0  0  0  0  0  0
   10.5989   -2.1004   37.1822 C   0  0  0  0  0  0  0  0  0  0  0  0
   11.3422   -3.1945   36.9634 N   0  0  0  0  0  0  0  0  0  0  0  0
   12.2084   -3.6843   37.8766 C   0  0  0  0  0  0  0  0  0  0  0  0
   12.9457   -4.8053   37.6362 N   0  0  0  0  0  0  0  0  0  0  0  0
    6.5465    0.7211   41.1732 C   0  0  0  0  0  0  0  0  0  0  0  0
    7.6032    0.0457   39.4158 H   0  0  0  0  0  0  0  0  0  0  0  0
    7.6110   -1.1238   40.7507 H   0  0  0  0  0  0  0  0  0  0  0  0
    8.6781    1.2483   41.8153 H   0  0  0  0  0  0  0  0  0  0  0  0
    9.5969    0.9277   38.9319 H   0  0  0  0  0  0  0  0  0  0  0  0
    9.1947    3.0352   40.8035 H   0  0  0  0  0  0  0  0  0  0  0  0
   11.8745    1.1935   39.6130 H   0  0  0  0  0  0  0  0  0  0  0  0
   11.3517    1.8875   42.2950 H   0  0  0  0  0  0  0  0  0  0  0  0
   11.8036    0.0774   42.1518 H   0  0  0  0  0  0  0  0  0  0  0  0
   13.1318   -1.9562   42.1109 H   0  0  0  0  0  0  0  0  0  0  0  0
    9.9045   -1.7731   36.3944 H   0  0  0  0  0  0  0  0  0  0  0  0
   12.8533   -5.2995   36.7373 H   0  0  0  0  0  0  0  0  0  0  0  0
   13.5952   -5.1582   38.3536 H   0  0  0  0  0  0  0  0  0  0  0  0
    6.6489    0.6506   42.2662 H   0  0  0  0  0  0  0  0  0  0  0  0
    6.5975    1.7766   40.8675 H   0  0  0  0  0  0  0  0  0  0  0  0
    5.5786    0.2972   40.8675 H   0  0  0  0  0  0  0  0  0  0  0  0
  2  1  1  0
  1 19  1  0
  2  3  1  0
  2  4  1  0
  3  8  1  0
  4  5  1  0
  4  6  1  0
  6  7  1  0
  6  8  1  0
  8  9  1  0
  9 10  1  0
  9 13  1  0
 10 11  2  0
 11 12  1  0
 12 13  2  0
 12 17  1  0
 13 14  1  0
 14 15  2  0
 15 16  1  0
 16 17  2  0
 17 18  1  0
  1 20  1  0
  1 21  1  0
  2 22  1  1
  4 23  1  6
  5 24  1  0
  6 25  1  6
  7 26  1  0
  8 27  1  1
 10 28  1  0
 15 29  1  0
 18 30  1  0
 18 31  1  0
 19 32  1  0
 19 33  1  0
 19 34  1  0
M  END
>  <filename_input>  (6) 
7XRL_FWK_docked.sdf

>  <pdb_id>  (6) 
7XRL_FWK

>  <pose_rank>  (6) 
5

>  <num_atoms_heavy>  (6) 
19

>  <num_torsions>  (6) 
2

>  <pose>  (6) 
[11.798036850858905, -1.2788501566729416, 40.538556839086645, -1.0988424327380237, 2.2243714045484673, 2.430023361686921, -0.4938102340370365, 1.0484568835150958]

>  <energy>  (6) 
-616.8272343475284

>  <inter_energy>  (6) 
-624.7487091488254

>  <intra_energy>  (6) 
10.687441581906597

>  <rmsd>  (6) 
3.5349

>  <sdf_rank>  (6) 
0

$$$$

     RDKit          3D

 34 36  0  0  0  0  0  0  0  0999 V2000
   10.8038    0.0589   43.0625 C   0  0  0  0  0  0  0  0  0  0  0  0
    9.9955    0.5177   41.8653 C   0  0  1  0  0  0  0  0  0  0  0  0
   10.7780    0.3283   40.6799 O   0  0  0  0  0  0  0  0  0  0  0  0
    8.7315   -0.2783   41.6423 C   0  0  1  0  0  0  0  0  0  0  0  0
    7.6370    0.2749   42.3925 O   0  0  0  0  0  0  0  0  0  0  0  0
    8.5348   -0.1400   40.1446 C   0  0  1  0  0  0  0  0  0  0  0  0
    7.8010    1.0510   39.8767 O   0  0  0  0  0  0  0  0  0  0  0  0
    9.9248    0.0661   39.5577 C   0  0  2  0  0  0  0  0  0  0  0  0
   10.5247   -1.1365   38.9338 N   0  0  0  0  0  0  0  0  0  0  0  0
   10.4817   -1.3700   37.6045 C   0  0  0  0  0  0  0  0  0  0  0  0
   11.1561   -2.4987   37.2819 N   0  0  0  0  0  0  0  0  0  0  0  0
   11.6627   -2.9972   38.4174 C   0  0  0  0  0  0  0  0  0  0  0  0
   11.2561   -2.0911   39.5133 C   0  0  0  0  0  0  0  0  0  0  0  0
   11.6442   -2.3916   40.7794 N   0  0  0  0  0  0  0  0  0  0  0  0
   12.3886   -3.4818   41.0322 C   0  0  0  0  0  0  0  0  0  0  0  0
   12.7759   -4.3424   40.0800 N   0  0  0  0  0  0  0  0  0  0  0  0
   12.4657   -4.1776   38.7758 C   0  0  0  0  0  0  0  0  0  0  0  0
   12.8802   -5.0601   37.8232 N   0  0  0  0  0  0  0  0  0  0  0  0
   11.0418    1.2881   43.9178 C   0  0  0  0  0  0  0  0  0  0  0  0
   10.2438   -0.6976   43.6318 H   0  0  0  0  0  0  0  0  0  0  0  0
   11.7542   -0.3980   42.7493 H   0  0  0  0  0  0  0  0  0  0  0  0
    9.7311    1.5663   42.0669 H   0  0  0  0  0  0  0  0  0  0  0  0
    8.7880   -1.3256   41.9741 H   0  0  0  0  0  0  0  0  0  0  0  0
    7.8205    0.1822   43.3610 H   0  0  0  0  0  0  0  0  0  0  0  0
    8.0106   -1.0152   39.7332 H   0  0  0  0  0  0  0  0  0  0  0  0
    7.5389    1.4765   40.7313 H   0  0  0  0  0  0  0  0  0  0  0  0
    9.8353    0.8500   38.7913 H   0  0  0  0  0  0  0  0  0  0  0  0
    9.9652   -0.7262   36.8774 H   0  0  0  0  0  0  0  0  0  0  0  0
   12.6948   -3.6773   42.0704 H   0  0  0  0  0  0  0  0  0  0  0  0
   13.4416   -5.8811   38.0912 H   0  0  0  0  0  0  0  0  0  0  0  0
   12.6321   -4.9060   36.8355 H   0  0  0  0  0  0  0  0  0  0  0  0
   10.9882    1.0110   44.9809 H   0  0  0  0  0  0  0  0  0  0  0  0
   12.0367    1.7017   43.6964 H   0  0  0  0  0  0  0  0  0  0  0  0
   10.2732    2.0432   43.6964 H   0  0  0  0  0  0  0  0  0  0  0  0
  2  1  1  0
  1 19  1  0
  2  3  1  0
  2  4  1  0
  3  8  1  0
  4  5  1  0
  4  6  1  0
  6  7  1  0
  6  8  1  0
  8  9  1  0
  9 10  1  0
  9 13  1  0
 10 11  2  0
 11 12  1  0
 12 13  2  0
 12 17  1  0
 13 14  1  0
 14 15  2  0
 15 16  1  0
 16 17  2  0
 17 18  1  0
  1 20  1  0
  1 21  1  0
  2 22  1  1
  4 23  1  6
  5 24  1  0
  6 25  1  6
  7 26  1  0
  8 27  1  6
 10 28  1  0
 15 29  1  0
 18 30  1  0
 18 31  1  0
 19 32  1  0
 19 33  1  0
 19 34  1  0
M  END
>  <filename_input>  (7) 
7XRL_FWK_docked.sdf

>  <pdb_id>  (7) 
7XRL_FWK

>  <pose_rank>  (7) 
6

>  <num_atoms_heavy>  (7) 
19

>  <num_torsions>  (7) 
2

>  <pose>  (7) 
[10.524738774946233, -1.1364620813677144, 38.933783430986836, -0.5779213387922977, -0.1963123887383304, -0.025705055366019094, 5.158445162373459, 0.7706791002911696]

>  <energy>  (7) 
-616.5663082114997

>  <inter_energy>  (7) 
-629.9231960518738

>  <intra_energy>  (7) 
15.453021753312155

>  <rmsd>  (7) 
2.05414

>  <sdf_rank>  (7) 
0

$$$$

     RDKit          3D

 34 36  0  0  0  0  0  0  0  0999 V2000
   10.6676    2.2359   41.7807 C   0  0  0  0  0  0  0  0  0  0  0  0
   10.2055    0.8168   42.0449 C   0  0  1  0  0  0  0  0  0  0  0  0
    9.6020    0.2984   40.8531 O   0  0  0  0  0  0  0  0  0  0  0  0
   11.3283   -0.1384   42.3734 C   0  0  1  0  0  0  0  0  0  0  0  0
   11.6083   -0.1363   43.7836 O   0  0  0  0  0  0  0  0  0  0  0  0
   10.7617   -1.4626   41.8979 C   0  0  1  0  0  0  0  0  0  0  0  0
    9.9934   -2.0465   42.9456 O   0  0  0  0  0  0  0  0  0  0  0  0
    9.7838   -1.1221   40.7813 C   0  0  2  0  0  0  0  0  0  0  0  0
   10.2997   -1.3412   39.4098 N   0  0  0  0  0  0  0  0  0  0  0  0
   10.0394   -0.4992   38.3867 C   0  0  0  0  0  0  0  0  0  0  0  0
   10.6775   -0.8864   37.2573 N   0  0  0  0  0  0  0  0  0  0  0  0
   11.3799   -1.9874   37.5552 C   0  0  0  0  0  0  0  0  0  0  0  0
   11.1413   -2.2859   38.9840 C   0  0  0  0  0  0  0  0  0  0  0  0
   11.7442   -3.3746   39.5274 N   0  0  0  0  0  0  0  0  0  0  0  0
   12.5471   -4.1591   38.7882 C   0  0  0  0  0  0  0  0  0  0  0  0
   12.7897   -3.9421   37.4876 N   0  0  0  0  0  0  0  0  0  0  0  0
   12.2606   -2.9009   36.8092 C   0  0  0  0  0  0  0  0  0  0  0  0
   12.5305   -2.6938   35.4893 N   0  0  0  0  0  0  0  0  0  0  0  0
   12.0593    2.1321   41.1880 C   0  0  0  0  0  0  0  0  0  0  0  0
    9.9882    2.7309   41.0711 H   0  0  0  0  0  0  0  0  0  0  0  0
   10.6724    2.8314   42.7056 H   0  0  0  0  0  0  0  0  0  0  0  0
    9.5219    0.8799   42.9044 H   0  0  0  0  0  0  0  0  0  0  0  0
   12.2911    0.1114   41.9037 H   0  0  0  0  0  0  0  0  0  0  0  0
   10.7571   -0.1424   44.2890 H   0  0  0  0  0  0  0  0  0  0  0  0
   11.5650   -2.1453   41.5840 H   0  0  0  0  0  0  0  0  0  0  0  0
   10.3620   -1.7663   43.8206 H   0  0  0  0  0  0  0  0  0  0  0  0
    8.8978   -1.7574   40.9275 H   0  0  0  0  0  0  0  0  0  0  0  0
    9.3923    0.3872   38.4615 H   0  0  0  0  0  0  0  0  0  0  0  0
   13.0283   -5.0209   39.2737 H   0  0  0  0  0  0  0  0  0  0  0  0
   13.1490   -3.3428   34.9821 H   0  0  0  0  0  0  0  0  0  0  0  0
   12.1161   -1.8883   34.9991 H   0  0  0  0  0  0  0  0  0  0  0  0
   12.8001    2.0768   41.9992 H   0  0  0  0  0  0  0  0  0  0  0  0
   12.1269    1.2264   40.5674 H   0  0  0  0  0  0  0  0  0  0  0  0
   12.2605    3.0177   40.5674 H   0  0  0  0  0  0  0  0  0  0  0  0
  2  1  1  0
  1 19  1  0
  2  3  1  0
  2  4  1  0
  3  8  1  0
  4  5  1  0
  4  6  1  0
  6  7  1  0
  6  8  1  0
  8  9  1  0
  9 10  1  0
  9 13  1  0
 10 11  2  0
 11 12  1  0
 12 13  2  0
 12 17  1  0
 13 14  1  0
 14 15  2  0
 15 16  1  0
 16 17  2  0
 17 18  1  0
  1 20  1  0
  1 21  1  0
  2 22  1  1
  4 23  1  6
  5 24  1  0
  6 25  1  6
  7 26  1  0
  8 27  1  1
 10 28  1  0
 15 29  1  0
 18 30  1  0
 18 31  1  0
 19 32  1  0
 19 33  1  0
 19 34  1  0
M  END
>  <filename_input>  (8) 
7XRL_FWK_docked.sdf

>  <pdb_id>  (8) 
7XRL_FWK

>  <pose_rank>  (8) 
7

>  <num_atoms_heavy>  (8) 
19

>  <num_torsions>  (8) 
2

>  <pose>  (8) 
[10.299662752879891, -1.3412452821423537, 39.40979774576644, -5.860127830213799, 1.0908428391293512, -0.5167957129766196, 1.0019575895623367, 3.5204465858654133]

>  <energy>  (8) 
-667.4192753332757

>  <inter_energy>  (8) 
-664.2862923319003

>  <intra_energy>  (8) 
7.954594708553695

>  <rmsd>  (8) 
1.16703

>  <sdf_rank>  (8) 
0

$$$$

     RDKit          3D

 34 36  0  0  0  0  0  0  0  0999 V2000
    7.4114    2.8049   41.0354 C   0  0  0  0  0  0  0  0  0  0  0  0
    8.0238    1.6671   41.8275 C   0  0  1  0  0  0  0  0  0  0  0  0
    7.8914    0.4559   41.0733 O   0  0  0  0  0  0  0  0  0  0  0  0
    9.5053    1.8250   42.0748 C   0  0  1  0  0  0  0  0  0  0  0  0
    9.7482    2.5796   43.2743 O   0  0  0  0  0  0  0  0  0  0  0  0
    9.9576    0.3824   42.1973 C   0  0  1  0  0  0  0  0  0  0  0  0
    9.8040   -0.0436   43.5477 O   0  0  0  0  0  0  0  0  0  0  0  0
    8.9746   -0.4355   41.3704 C   0  0  2  0  0  0  0  0  0  0  0  0
    9.4693   -0.8443   40.0350 N   0  0  0  0  0  0  0  0  0  0  0  0
    9.2171   -0.1366   38.9129 C   0  0  0  0  0  0  0  0  0  0  0  0
    9.8328   -0.6835   37.8384 N   0  0  0  0  0  0  0  0  0  0  0  0
   10.5126   -1.7534   38.2717 C   0  0  0  0  0  0  0  0  0  0  0  0
   10.2836   -1.8570   39.7292 C   0  0  0  0  0  0  0  0  0  0  0  0
   10.8670   -2.8802   40.4050 N   0  0  0  0  0  0  0  0  0  0  0  0
   11.6426   -3.7741   39.7679 C   0  0  0  0  0  0  0  0  0  0  0  0
   11.8752   -3.7345   38.4482 N   0  0  0  0  0  0  0  0  0  0  0  0
   11.3629   -2.7779   37.6440 C   0  0  0  0  0  0  0  0  0  0  0  0
   11.6223   -2.7514   36.3061 N   0  0  0  0  0  0  0  0  0  0  0  0
    8.4640    3.2513   40.0394 C   0  0  0  0  0  0  0  0  0  0  0  0
    6.5109    2.4587   40.5070 H   0  0  0  0  0  0  0  0  0  0  0  0
    7.1114    3.6326   41.6949 H   0  0  0  0  0  0  0  0  0  0  0  0
    7.4957    1.6561   42.7924 H   0  0  0  0  0  0  0  0  0  0  0  0
   10.0417    2.3792   41.2905 H   0  0  0  0  0  0  0  0  0  0  0  0
    9.5653    2.0116   44.0642 H   0  0  0  0  0  0  0  0  0  0  0  0
   11.0030    0.2682   41.8748 H   0  0  0  0  0  0  0  0  0  0  0  0
   10.0686    0.6902   44.1573 H   0  0  0  0  0  0  0  0  0  0  0  0
    8.7448   -1.3413   41.9507 H   0  0  0  0  0  0  0  0  0  0  0  0
    8.5919    0.7677   38.8766 H   0  0  0  0  0  0  0  0  0  0  0  0
   12.1090   -4.5768   40.3578 H   0  0  0  0  0  0  0  0  0  0  0  0
   12.2195   -3.4761   35.8829 H   0  0  0  0  0  0  0  0  0  0  0  0
   11.2213   -2.0067   35.7184 H   0  0  0  0  0  0  0  0  0  0  0  0
    9.3456    3.6253   40.5805 H   0  0  0  0  0  0  0  0  0  0  0  0
    8.7556    2.3994   39.4076 H   0  0  0  0  0  0  0  0  0  0  0  0
    8.0542    4.0532   39.4076 H   0  0  0  0  0  0  0  0  0  0  0  0
  2  1  1  0
  1 19  1  0
  2  3  1  0
  2  4  1  0
  3  8  1  0
  4  5  1  0
  4  6  1  0
  6  7  1  0
  6  8  1  0
  8  9  1  0
  9 10  1  0
  9 13  1  0
 10 11  2  0
 11 12  1  0
 12 13  2  0
 12 17  1  0
 13 14  1  0
 14 15  2  0
 15 16  1  0
 16 17  2  0
 17 18  1  0
  1 20  1  0
  1 21  1  0
  2 22  1  1
  4 23  1  6
  5 24  1  0
  6 25  1  6
  7 26  1  0
  8 27  1  1
 10 28  1  0
 15 29  1  0
 18 30  1  0
 18 31  1  0
 19 32  1  0
 19 33  1  0
 19 34  1  0
M  END
>  <filename_input>  (9) 
7XRL_FWK_docked.sdf

>  <pdb_id>  (9) 
7XRL_FWK

>  <pose_rank>  (9) 
8

>  <num_atoms_heavy>  (9) 
19

>  <num_torsions>  (9) 
2

>  <pose>  (9) 
[9.469321104753229, -0.844314955160981, 40.0349721781217, -5.8774696269172155, 1.6788564906699326, -0.14248159654613066, 1.8068062180442417, 3.5973221489386984]

>  <energy>  (9) 
-754.3162880422175

>  <inter_energy>  (9) 
-752.4252670643508

>  <intra_energy>  (9) 
1.7875443226843377

>  <rmsd>  (9) 
2.3352

>  <sdf_rank>  (9) 
0

$$$$

     RDKit          3D

 34 36  0  0  0  0  0  0  0  0999 V2000
   11.3977    1.1174   43.0309 C   0  0  0  0  0  0  0  0  0  0  0  0
   10.0076    1.0197   42.4347 C   0  0  1  0  0  0  0  0  0  0  0  0
   10.1208    0.9567   41.0077 O   0  0  0  0  0  0  0  0  0  0  0  0
    9.2604   -0.2309   42.8329 C   0  0  1  0  0  0  0  0  0  0  0  0
    8.5454   -0.0320   44.0642 O   0  0  0  0  0  0  0  0  0  0  0  0
    8.3317   -0.4303   41.6503 C   0  0  1  0  0  0  0  0  0  0  0  0
    7.1383    0.3183   41.8605 O   0  0  0  0  0  0  0  0  0  0  0  0
    9.0344    0.2008   40.4558 C   0  0  2  0  0  0  0  0  0  0  0  0
    9.7012   -0.7580   39.5441 N   0  0  0  0  0  0  0  0  0  0  0  0
    9.5520   -0.7173   38.2027 C   0  0  0  0  0  0  0  0  0  0  0  0
   10.3142   -1.6566   37.5948 N   0  0  0  0  0  0  0  0  0  0  0  0
   10.9851   -2.3064   38.5551 C   0  0  0  0  0  0  0  0  0  0  0  0
   10.5904   -1.7063   39.8479 C   0  0  0  0  0  0  0  0  0  0  0  0
   11.1350   -2.2064   40.9869 N   0  0  0  0  0  0  0  0  0  0  0  0
   12.0196   -3.2173   40.9423 C   0  0  0  0  0  0  0  0  0  0  0  0
   12.4045   -3.8052   39.8006 N   0  0  0  0  0  0  0  0  0  0  0  0
   11.9486   -3.4187   38.5894 C   0  0  0  0  0  0  0  0  0  0  0  0
   12.3629   -4.0242   37.4407 N   0  0  0  0  0  0  0  0  0  0  0  0
   11.4577    2.4407   43.7686 C   0  0  0  0  0  0  0  0  0  0  0  0
   11.5712    0.2850   43.7288 H   0  0  0  0  0  0  0  0  0  0  0  0
   12.1703    1.0619   42.2499 H   0  0  0  0  0  0  0  0  0  0  0  0
    9.4611    1.9000   42.8042 H   0  0  0  0  0  0  0  0  0  0  0  0
    9.9023   -1.1027   43.0278 H   0  0  0  0  0  0  0  0  0  0  0  0
    9.1515   -0.2006   44.8287 H   0  0  0  0  0  0  0  0  0  0  0  0
    8.0971   -1.4956   41.5082 H   0  0  0  0  0  0  0  0  0  0  0  0
    6.9786    0.4185   42.8324 H   0  0  0  0  0  0  0  0  0  0  0  0
    8.2687    0.7493   39.8874 H   0  0  0  0  0  0  0  0  0  0  0  0
    8.8956   -0.0118   37.6721 H   0  0  0  0  0  0  0  0  0  0  0  0
   12.4485   -3.5796   41.8882 H   0  0  0  0  0  0  0  0  0  0  0  0
   13.0377   -4.8013   37.4826 H   0  0  0  0  0  0  0  0  0  0  0  0
   12.0012   -3.7047   36.5308 H   0  0  0  0  0  0  0  0  0  0  0  0
   11.4493    2.2567   44.8530 H   0  0  0  0  0  0  0  0  0  0  0  0
   12.3809    2.9721   43.4939 H   0  0  0  0  0  0  0  0  0  0  0  0
   10.5864    3.0534   43.4939 H   0  0  0  0  0  0  0  0  0  0  0  0
  2  1  1  0
  1 19  1  0
  2  3  1  0
  2  4  1  0
  3  8  1  0
  4  5  1  0
  4  6  1  0
  6  7  1  0
  6  8  1  0
  8  9  1  0
  9 10  1  0
  9 13  1  0
 10 11  2  0
 11 12  1  0
 12 13  2  0
 12 17  1  0
 13 14  1  0
 14 15  2  0
 15 16  1  0
 16 17  2  0
 17 18  1  0
  1 20  1  0
  1 21  1  0
  2 22  1  6
  4 23  1  1
  5 24  1  0
  6 25  1  6
  7 26  1  0
  8 27  1  6
 10 28  1  0
 15 29  1  0
 18 30  1  0
 18 31  1  0
 19 32  1  0
 19 33  1  0
 19 34  1  0
M  END
>  <filename_input>  (10) 
7XRL_FWK_docked.sdf

>  <pdb_id>  (10) 
7XRL_FWK

>  <pose_rank>  (10) 
9

>  <num_atoms_heavy>  (10) 
19

>  <num_torsions>  (10) 
2

>  <pose>  (10) 
[9.701199118921798, -0.7580481567205414, 39.54412874085633, -0.3528097072067803, -0.1412862106123446, 0.09795059711622857, 5.7661188557734215, 0.8098512624826981]

>  <energy>  (10) 
-701.8183437811902

>  <inter_energy>  (10) 
-704.9048493741849

>  <intra_energy>  (10) 
10.369941605682655

>  <rmsd>  (10) 
1.28475

>  <sdf_rank>  (10) 
0

$$$$

     RDKit          3D

 34 36  0  0  0  0  0  0  0  0999 V2000
    7.9405    3.6895   44.6233 C   0  0  0  0  0  0  0  0  0  0  0  0
    8.2809    2.2271   44.8300 C   0  0  1  0  0  0  0  0  0  0  0  0
    8.0283    1.5175   43.6110 O   0  0  0  0  0  0  0  0  0  0  0  0
    9.7374    1.9790   45.1434 C   0  0  1  0  0  0  0  0  0  0  0  0
    9.9815    2.0714   46.5572 O   0  0  0  0  0  0  0  0  0  0  0  0
    9.9364    0.5721   44.6126 C   0  0  1  0  0  0  0  0  0  0  0  0
    9.5855   -0.3649   45.6264 O   0  0  0  0  0  0  0  0  0  0  0  0
    8.9191    0.4000   43.4926 C   0  0  2  0  0  0  0  0  0  0  0  0
    9.4684    0.5324   42.1230 N   0  0  0  0  0  0  0  0  0  0  0  0
    9.7479    1.7270   41.5589 C   0  0  0  0  0  0  0  0  0  0  0  0
   10.2987    1.5740   40.3317 N   0  0  0  0  0  0  0  0  0  0  0  0
   10.3970    0.2580   40.1015 C   0  0  0  0  0  0  0  0  0  0  0  0
    9.8583   -0.4362   41.2912 C   0  0  0  0  0  0  0  0  0  0  0  0
    9.8400   -1.7940   41.2955 N   0  0  0  0  0  0  0  0  0  0  0  0
   10.3088   -2.4933   40.2478 C   0  0  0  0  0  0  0  0  0  0  0  0
   10.7977   -1.9166   39.1406 N   0  0  0  0  0  0  0  0  0  0  0  0
   10.8790   -0.5769   38.9892 C   0  0  0  0  0  0  0  0  0  0  0  0
   11.3905   -0.0130   37.8586 N   0  0  0  0  0  0  0  0  0  0  0  0
    8.2961    4.0151   43.1857 C   0  0  0  0  0  0  0  0  0  0  0  0
    6.8674    3.8580   44.7968 H   0  0  0  0  0  0  0  0  0  0  0  0
    8.4946    4.3300   45.3251 H   0  0  0  0  0  0  0  0  0  0  0  0
    7.6669    1.8942   45.6798 H   0  0  0  0  0  0  0  0  0  0  0  0
   10.4299    2.7088   44.6987 H   0  0  0  0  0  0  0  0  0  0  0  0
    9.1791    1.7677   47.0512 H   0  0  0  0  0  0  0  0  0  0  0  0
   10.9759    0.4163   44.2883 H   0  0  0  0  0  0  0  0  0  0  0  0
    9.7372    0.0402   46.5169 H   0  0  0  0  0  0  0  0  0  0  0  0
    8.4906   -0.6072   43.6018 H   0  0  0  0  0  0  0  0  0  0  0  0
    9.5532    2.6993   42.0351 H   0  0  0  0  0  0  0  0  0  0  0  0
   10.2904   -3.5918   40.3013 H   0  0  0  0  0  0  0  0  0  0  0  0
   11.7234   -0.6118   37.0896 H   0  0  0  0  0  0  0  0  0  0  0  0
   11.4441    1.0121   37.7733 H   0  0  0  0  0  0  0  0  0  0  0  0
    9.1073    4.7578   43.1679 H   0  0  0  0  0  0  0  0  0  0  0  0
    8.6261    3.0994   42.6732 H   0  0  0  0  0  0  0  0  0  0  0  0
    7.4130    4.4243   42.6732 H   0  0  0  0  0  0  0  0  0  0  0  0
  2  1  1  0
  1 19  1  0
  2  3  1  0
  2  4  1  0
  3  8  1  0
  4  5  1  0
  4  6  1  0
  6  7  1  0
  6  8  1  0
  8  9  1  0
  9 10  1  0
  9 13  1  0
 10 11  2  0
 11 12  1  0
 12 13  2  0
 12 17  1  0
 13 14  1  0
 14 15  2  0
 15 16  1  0
 16 17  2  0
 17 18  1  0
  1 20  1  0
  1 21  1  0
  2 22  1  1
  4 23  1  6
  5 24  1  0
  6 25  1  6
  7 26  1  0
  8 27  1  6
 10 28  1  0
 15 29  1  0
 18 30  1  0
 18 31  1  0
 19 32  1  0
 19 33  1  0
 19 34  1  0
M  END
>  <filename_input>  (11) 
7XRL_FWK_docked.sdf

>  <pdb_id>  (11) 
7XRL_FWK

>  <pose_rank>  (11) 
10

>  <num_atoms_heavy>  (11) 
19

>  <num_torsions>  (11) 
2

>  <pose>  (11) 
[9.468411781747529, 0.5324276705893282, 42.12297718170086, -4.44759536106108, 1.0632836909389254, 2.9104286538727995, 2.0989051161109913, 4.4329534830823905]

>  <energy>  (11) 
-450.2547162889883

>  <inter_energy>  (11) 
-464.67706814211186

>  <intra_energy>  (11) 
14.942311839061881

>  <rmsd>  (11) 
3.40464

>  <sdf_rank>  (11) 
0

$$$$

     RDKit          3D

 34 36  0  0  0  0  0  0  0  0999 V2000
   10.4147   -1.3689   38.4365 C   0  0  0  0  0  0  0  0  0  0  0  0
   11.3682   -1.0629   39.5743 C   0  0  1  0  0  0  0  0  0  0  0  0
   11.2246    0.3154   39.9389 O   0  0  0  0  0  0  0  0  0  0  0  0
   11.0818   -1.8428   40.8356 C   0  0  1  0  0  0  0  0  0  0  0  0
   11.7590   -3.1109   40.8203 O   0  0  0  0  0  0  0  0  0  0  0  0
   11.6187   -0.9130   41.9071 C   0  0  1  0  0  0  0  0  0  0  0  0
   13.0073   -1.1681   42.0956 O   0  0  0  0  0  0  0  0  0  0  0  0
   11.5106    0.4932   41.3328 C   0  0  2  0  0  0  0  0  0  0  0  0
   10.3605    1.2847   41.8290 N   0  0  0  0  0  0  0  0  0  0  0  0
   10.4032    1.9987   42.9743 C   0  0  0  0  0  0  0  0  0  0  0  0
    9.2511    2.6822   43.1703 N   0  0  0  0  0  0  0  0  0  0  0  0
    8.4532    2.4241   42.1257 C   0  0  0  0  0  0  0  0  0  0  0  0
    9.1892    1.5071   41.2285 C   0  0  0  0  0  0  0  0  0  0  0  0
    8.5790    1.0866   40.0906 N   0  0  0  0  0  0  0  0  0  0  0  0
    7.3385    1.5002   39.7799 C   0  0  0  0  0  0  0  0  0  0  0  0
    6.6220    2.3214   40.5608 N   0  0  0  0  0  0  0  0  0  0  0  0
    7.0941    2.8211   41.7235 C   0  0  0  0  0  0  0  0  0  0  0  0
    6.3515    3.6637   42.4957 N   0  0  0  0  0  0  0  0  0  0  0  0
   11.2694   -1.8216   37.2688 C   0  0  0  0  0  0  0  0  0  0  0  0
    9.7175   -2.1677   38.7294 H   0  0  0  0  0  0  0  0  0  0  0  0
    9.8149   -0.4856   38.1717 H   0  0  0  0  0  0  0  0  0  0  0  0
   12.3697   -1.3285   39.2050 H   0  0  0  0  0  0  0  0  0  0  0  0
   10.0225   -2.1009   40.9811 H   0  0  0  0  0  0  0  0  0  0  0  0
   11.9191   -3.4107   41.7502 H   0  0  0  0  0  0  0  0  0  0  0  0
   11.0721   -1.0436   42.8526 H   0  0  0  0  0  0  0  0  0  0  0  0
   13.2075   -1.2049   43.0645 H   0  0  0  0  0  0  0  0  0  0  0  0
   12.4387    1.0199   41.5996 H   0  0  0  0  0  0  0  0  0  0  0  0
   11.2632    2.0220   43.6598 H   0  0  0  0  0  0  0  0  0  0  0  0
    6.8894    1.1480   38.8396 H   0  0  0  0  0  0  0  0  0  0  0  0
    5.4020    3.9314   42.1995 H   0  0  0  0  0  0  0  0  0  0  0  0
    6.7398    4.0327   43.3755 H   0  0  0  0  0  0  0  0  0  0  0  0
   12.1819   -2.3049   37.6478 H   0  0  0  0  0  0  0  0  0  0  0  0
   10.7027   -2.5378   36.6556 H   0  0  0  0  0  0  0  0  0  0  0  0
   11.5435   -0.9504   36.6556 H   0  0  0  0  0  0  0  0  0  0  0  0
  2  1  1  0
  1 19  1  0
  2  3  1  0
  2  4  1  0
  3  8  1  0
  4  5  1  0
  4  6  1  0
  6  7  1  0
  6  8  1  0
  8  9  1  0
  9 10  1  0
  9 13  1  0
 10 11  2  0
 11 12  1  0
 12 13  2  0
 12 17  1  0
 13 14  1  0
 14 15  2  0
 15 16  1  0
 16 17  2  0
 17 18  1  0
  1 20  1  0
  1 21  1  0
  2 22  1  6
  4 23  1  1
  5 24  1  0
  6 25  1  1
  7 26  1  0
  8 27  1  6
 10 28  1  0
 15 29  1  0
 18 30  1  0
 18 31  1  0
 19 32  1  0
 19 33  1  0
 19 34  1  0
M  END
>  <filename_input>  (12) 
7XRL_FWK_docked.sdf

>  <pdb_id>  (12) 
7XRL_FWK

>  <pose_rank>  (12) 
11

>  <num_atoms_heavy>  (12) 
19

>  <num_torsions>  (12) 
2

>  <pose>  (12) 
[10.360502893706755, 1.2846557691675997, 41.82898454155147, -5.693031275120749, -8.27356790420856, 1.5236146458041868, 4.946978294535674, 0.8348348979219742]

>  <energy>  (12) 
-493.3879381232297

>  <inter_energy>  (12) 
-505.915690890756

>  <intra_energy>  (12) 
18.4981801332731

>  <rmsd>  (12) 
5.75126

>  <sdf_rank>  (12) 
0

$$$$

     RDKit          3D

 34 36  0  0  0  0  0  0  0  0999 V2000
   20.4618    1.8375   33.0921 C   0  0  0  0  0  0  0  0  0  0  0  0
   18.9939    2.1793   32.9319 C   0  0  1  0  0  0  0  0  0  0  0  0
   18.4851    2.6321   34.1926 O   0  0  0  0  0  0  0  0  0  0  0  0
   18.7337    3.3104   31.9655 C   0  0  1  0  0  0  0  0  0  0  0  0
   18.6018    2.8174   30.6214 O   0  0  0  0  0  0  0  0  0  0  0  0
   17.4364    3.8866   32.5002 C   0  0  1  0  0  0  0  0  0  0  0  0
   16.3395    3.1803   31.9286 O   0  0  0  0  0  0  0  0  0  0  0  0
   17.4234    3.5745   33.9906 C   0  0  2  0  0  0  0  0  0  0  0  0
   17.7890    4.7093   34.8704 N   0  0  0  0  0  0  0  0  0  0  0  0
   18.8486    4.6750   35.7069 C   0  0  0  0  0  0  0  0  0  0  0  0
   19.0050    5.8559   36.3502 N   0  0  0  0  0  0  0  0  0  0  0  0
   18.0432    6.6783   35.9108 C   0  0  0  0  0  0  0  0  0  0  0  0
   17.2419    5.9259   34.9212 C   0  0  0  0  0  0  0  0  0  0  0  0
   16.1885    6.5489   34.3329 N   0  0  0  0  0  0  0  0  0  0  0  0
   15.8847    7.8230   34.6344 C   0  0  0  0  0  0  0  0  0  0  0  0
   16.5693    8.5480   35.5305 N   0  0  0  0  0  0  0  0  0  0  0  0
   17.6398    8.0645   36.1974 C   0  0  0  0  0  0  0  0  0  0  0  0
   18.3275    8.8242   37.0962 N   0  0  0  0  0  0  0  0  0  0  0  0
   20.5171    0.4342   33.6635 C   0  0  0  0  0  0  0  0  0  0  0  0
   20.9685    1.8708   32.1163 H   0  0  0  0  0  0  0  0  0  0  0  0
   20.9678    2.5565   33.7533 H   0  0  0  0  0  0  0  0  0  0  0  0
   18.5131    1.2645   32.5552 H   0  0  0  0  0  0  0  0  0  0  0  0
   19.5424    4.0536   31.9054 H   0  0  0  0  0  0  0  0  0  0  0  0
   18.3462    1.8612   30.6442 H   0  0  0  0  0  0  0  0  0  0  0  0
   17.3604    4.9609   32.2766 H   0  0  0  0  0  0  0  0  0  0  0  0
   15.7704    2.8139   32.6512 H   0  0  0  0  0  0  0  0  0  0  0  0
   16.4018    3.2528   34.2411 H   0  0  0  0  0  0  0  0  0  0  0  0
   19.5006    3.8003   35.8474 H   0  0  0  0  0  0  0  0  0  0  0  0
   15.0332    8.2937   34.1211 H   0  0  0  0  0  0  0  0  0  0  0  0
   18.0318    9.7926   37.2851 H   0  0  0  0  0  0  0  0  0  0  0  0
   19.1430    8.4299   37.5865 H   0  0  0  0  0  0  0  0  0  0  0  0
   20.5151    0.4853   34.7623 H   0  0  0  0  0  0  0  0  0  0  0  0
   19.6408   -0.1358   33.3214 H   0  0  0  0  0  0  0  0  0  0  0  0
   21.4357   -0.0651   33.3214 H   0  0  0  0  0  0  0  0  0  0  0  0
  2  1  1  0
  1 19  1  0
  2  3  1  0
  2  4  1  0
  3  8  1  0
  4  5  1  0
  4  6  1  0
  6  7  1  0
  6  8  1  0
  8  9  1  0
  9 10  1  0
  9 13  1  0
 10 11  2  0
 11 12  1  0
 12 13  2  0
 12 17  1  0
 13 14  1  0
 14 15  2  0
 15 16  1  0
 16 17  2  0
 17 18  1  0
  1 20  1  0
  1 21  1  0
  2 22  1  6
  4 23  1  6
  5 24  1  0
  6 25  1  1
  7 26  1  0
  8 27  1  1
 10 28  1  0
 15 29  1  0
 18 30  1  0
 18 31  1  0
 19 32  1  0
 19 33  1  0
 19 34  1  0
M  END
>  <filename_input>  (13) 
7XRL_FWK_docked.sdf

>  <pdb_id>  (13) 
7XRL_FWK

>  <pose_rank>  (13) 
12

>  <num_atoms_heavy>  (13) 
19

>  <num_torsions>  (13) 
2

>  <pose>  (13) 
[17.789047923922436, 4.709275334784655, 34.87039252730975, 2.442208212682442, 1.566958241336881, -1.2041470723607324, 1.3714745461264406, -6.094604890437356]

>  <energy>  (13) 
-194.60675557124753

>  <inter_energy>  (13) 
-175.04281286482143

>  <intra_energy>  (13) 
1.7873713555576805

>  <rmsd>  (13) 
12.5133

>  <sdf_rank>  (13) 
0

$$$$

     RDKit          3D

 34 36  0  0  0  0  0  0  0  0999 V2000
    1.6916   -9.8768   37.0063 C   0  0  0  0  0  0  0  0  0  0  0  0
    1.7930   -9.3923   38.4388 C   0  0  1  0  0  0  0  0  0  0  0  0
    2.7545  -10.1980   39.1316 O   0  0  0  0  0  0  0  0  0  0  0  0
    2.2925   -7.9729   38.5680 C   0  0  1  0  0  0  0  0  0  0  0  0
    1.2037   -7.0367   38.4962 O   0  0  0  0  0  0  0  0  0  0  0  0
    2.9474   -7.9949   39.9360 C   0  0  1  0  0  0  0  0  0  0  0  0
    1.9665   -7.7126   40.9294 O   0  0  0  0  0  0  0  0  0  0  0  0
    3.3928   -9.4333   40.1631 C   0  0  2  0  0  0  0  0  0  0  0  0
    4.8365   -9.6832   39.9431 N   0  0  0  0  0  0  0  0  0  0  0  0
    5.4690   -9.3576   38.7952 C   0  0  0  0  0  0  0  0  0  0  0  0
    6.7934   -9.6281   38.8703 N   0  0  0  0  0  0  0  0  0  0  0  0
    7.0299  -10.1197   40.0938 C   0  0  0  0  0  0  0  0  0  0  0  0
    5.7373  -10.1472   40.8121 C   0  0  0  0  0  0  0  0  0  0  0  0
    5.7139  -10.6200   42.0849 N   0  0  0  0  0  0  0  0  0  0  0  0
    6.8398  -11.0451   42.6835 C   0  0  0  0  0  0  0  0  0  0  0  0
    8.0352  -11.0527   42.0766 N   0  0  0  0  0  0  0  0  0  0  0  0
    8.2157  -10.6145   40.8118 C   0  0  0  0  0  0  0  0  0  0  0  0
    9.4431  -10.6212   40.2191 N   0  0  0  0  0  0  0  0  0  0  0  0
    2.8275   -9.2185   36.2478 C   0  0  0  0  0  0  0  0  0  0  0  0
    1.7927  -10.9715   36.9673 H   0  0  0  0  0  0  0  0  0  0  0  0
    0.7170   -9.6179   36.5668 H   0  0  0  0  0  0  0  0  0  0  0  0
    0.7743   -9.4555   38.8489 H   0  0  0  0  0  0  0  0  0  0  0  0
    2.9777   -7.6563   37.7678 H   0  0  0  0  0  0  0  0  0  0  0  0
    0.9185   -6.7915   39.4120 H   0  0  0  0  0  0  0  0  0  0  0  0
    3.7706   -7.2673   39.9909 H   0  0  0  0  0  0  0  0  0  0  0  0
    2.3649   -7.8273   41.8284 H   0  0  0  0  0  0  0  0  0  0  0  0
    3.1498   -9.6823   41.2066 H   0  0  0  0  0  0  0  0  0  0  0  0
    4.9721   -8.9280   37.9129 H   0  0  0  0  0  0  0  0  0  0  0  0
    6.7773  -11.4041   43.7213 H   0  0  0  0  0  0  0  0  0  0  0  0
   10.2626  -10.9710   40.7357 H   0  0  0  0  0  0  0  0  0  0  0  0
    9.5511  -10.2766   39.2545 H   0  0  0  0  0  0  0  0  0  0  0  0
    3.5511   -8.7992   36.9624 H   0  0  0  0  0  0  0  0  0  0  0  0
    3.3281   -9.9664   35.6153 H   0  0  0  0  0  0  0  0  0  0  0  0
    2.4274   -8.4123   35.6153 H   0  0  0  0  0  0  0  0  0  0  0  0
  2  1  1  0
  1 19  1  0
  2  3  1  0
  2  4  1  0
  3  8  1  0
  4  5  1  0
  4  6  1  0
  6  7  1  0
  6  8  1  0
  8  9  1  0
  9 10  1  0
  9 13  1  0
 10 11  2  0
 11 12  1  0
 12 13  2  0
 12 17  1  0
 13 14  1  0
 14 15  2  0
 15 16  1  0
 16 17  2  0
 17 18  1  0
  1 20  1  0
  1 21  1  0
  2 22  1  1
  4 23  1  6
  5 24  1  0
  6 25  1  6
  7 26  1  0
  8 27  1  1
 10 28  1  0
 15 29  1  0
 18 30  1  0
 18 31  1  0
 19 32  1  0
 19 33  1  0
 19 34  1  0
M  END
>  <filename_input>  (14) 
7XRL_FWK_docked.sdf

>  <pdb_id>  (14) 
7XRL_FWK

>  <pose_rank>  (14) 
13

>  <num_atoms_heavy>  (14) 
19

>  <num_torsions>  (14) 
2

>  <pose>  (14) 
[4.836520210930589, -9.683170431918123, 39.943050640291354, 1.0752994249870143, 4.386718619648287, -2.5878414537264685, 2.5135272429072724, -2.7037295465968834]

>  <energy>  (14) 
-191.50212130770169

>  <inter_energy>  (14) 
-182.60508612048645

>  <intra_energy>  (14) 
4.196973892905444

>  <rmsd>  (14) 
11.4478

>  <sdf_rank>  (14) 
0

$$$$

     RDKit          3D

 34 36  0  0  0  0  0  0  0  0999 V2000
    2.6266  -10.0068   46.4433 C   0  0  0  0  0  0  0  0  0  0  0  0
    3.5939  -10.4327   45.3569 C   0  0  1  0  0  0  0  0  0  0  0  0
    2.8892  -10.4977   44.1109 O   0  0  0  0  0  0  0  0  0  0  0  0
    4.7223   -9.4552   45.1283 C   0  0  1  0  0  0  0  0  0  0  0  0
    5.8291   -9.7349   46.0022 O   0  0  0  0  0  0  0  0  0  0  0  0
    5.0595   -9.7022   43.6702 C   0  0  1  0  0  0  0  0  0  0  0  0
    5.9998  -10.7684   43.5811 O   0  0  0  0  0  0  0  0  0  0  0  0
    3.7750  -10.2020   43.0228 C   0  0  2  0  0  0  0  0  0  0  0  0
    3.0364   -9.1880   42.2344 N   0  0  0  0  0  0  0  0  0  0  0  0
    2.1227   -8.3582   42.7822 C   0  0  0  0  0  0  0  0  0  0  0  0
    1.6404   -7.4854   41.8666 N   0  0  0  0  0  0  0  0  0  0  0  0
    2.2646   -7.7386   40.7087 C   0  0  0  0  0  0  0  0  0  0  0  0
    3.1992   -8.8590   40.9509 C   0  0  0  0  0  0  0  0  0  0  0  0
    3.9498   -9.3117   39.9138 N   0  0  0  0  0  0  0  0  0  0  0  0
    3.8541   -8.7501   38.6965 C   0  0  0  0  0  0  0  0  0  0  0  0
    3.0170   -7.7405   38.4182 N   0  0  0  0  0  0  0  0  0  0  0  0
    2.2071   -7.1857   39.3458 C   0  0  0  0  0  0  0  0  0  0  0  0
    1.3720   -6.1521   39.0423 N   0  0  0  0  0  0  0  0  0  0  0  0
    2.6678   -8.4917   46.4864 C   0  0  0  0  0  0  0  0  0  0  0  0
    1.6102  -10.3526   46.2041 H   0  0  0  0  0  0  0  0  0  0  0  0
    2.9043  -10.4401   47.4155 H   0  0  0  0  0  0  0  0  0  0  0  0
    4.0112  -11.3950   45.6884 H   0  0  0  0  0  0  0  0  0  0  0  0
    4.4664   -8.4064   45.3392 H   0  0  0  0  0  0  0  0  0  0  0  0
    5.5331   -9.6601   46.9440 H   0  0  0  0  0  0  0  0  0  0  0  0
    5.4630   -8.7936   43.1994 H   0  0  0  0  0  0  0  0  0  0  0  0
    6.2562  -11.0592   44.4920 H   0  0  0  0  0  0  0  0  0  0  0  0
    4.0548  -11.0293   42.3540 H   0  0  0  0  0  0  0  0  0  0  0  0
    1.8105   -8.3877   43.8365 H   0  0  0  0  0  0  0  0  0  0  0  0
    4.4935   -9.1375   37.8895 H   0  0  0  0  0  0  0  0  0  0  0  0
    1.3441   -5.7770   38.0834 H   0  0  0  0  0  0  0  0  0  0  0  0
    0.7689   -5.7460   39.7718 H   0  0  0  0  0  0  0  0  0  0  0  0
    2.6770   -8.1548   47.5335 H   0  0  0  0  0  0  0  0  0  0  0  0
    3.5760   -8.1350   45.9785 H   0  0  0  0  0  0  0  0  0  0  0  0
    1.7804   -8.0861   45.9785 H   0  0  0  0  0  0  0  0  0  0  0  0
  2  1  1  0
  1 19  1  0
  2  3  1  0
  2  4  1  0
  3  8  1  0
  4  5  1  0
  4  6  1  0
  6  7  1  0
  6  8  1  0
  8  9  1  0
  9 10  1  0
  9 13  1  0
 10 11  2  0
 11 12  1  0
 12 13  2  0
 12 17  1  0
 13 14  1  0
 14 15  2  0
 15 16  1  0
 16 17  2  0
 17 18  1  0
  1 20  1  0
  1 21  1  0
  2 22  1  1
  4 23  1  6
  5 24  1  0
  6 25  1  6
  7 26  1  0
  8 27  1  6
 10 28  1  0
 15 29  1  0
 18 30  1  0
 18 31  1  0
 19 32  1  0
 19 33  1  0
 19 34  1  0
M  END
>  <filename_input>  (15) 
7XRL_FWK_docked.sdf

>  <pdb_id>  (15) 
7XRL_FWK

>  <pose_rank>  (15) 
14

>  <num_atoms_heavy>  (15) 
19

>  <num_torsions>  (15) 
2

>  <pose>  (15) 
[3.036427367543963, -9.187962279657368, 42.23443455721775, 1.293117010123327, 0.8355510922463523, 0.3010232570802577, -4.353438283048422, -2.8142926230975327]

>  <energy>  (15) 
-182.2543022692992

>  <inter_energy>  (15) 
-170.72869244729054

>  <intra_energy>  (15) 
2.4331611218503206

>  <rmsd>  (15) 
11.7368

>  <sdf_rank>  (15) 
0

$$$$

     RDKit          3D

 34 36  0  0  0  0  0  0  0  0999 V2000
   18.1837    1.9448   31.0347 C   0  0  0  0  0  0  0  0  0  0  0  0
   19.2659    2.2574   32.0489 C   0  0  1  0  0  0  0  0  0  0  0  0
   19.3401    3.6780   32.2217 O   0  0  0  0  0  0  0  0  0  0  0  0
   18.9901    1.7004   33.4253 C   0  0  1  0  0  0  0  0  0  0  0  0
   19.4881    0.3570   33.5450 O   0  0  0  0  0  0  0  0  0  0  0  0
   19.7385    2.6761   34.3134 C   0  0  1  0  0  0  0  0  0  0  0  0
   21.0917    2.2505   34.4406 O   0  0  0  0  0  0  0  0  0  0  0  0
   19.7687    3.9950   33.5528 C   0  0  2  0  0  0  0  0  0  0  0  0
   18.7827    5.0026   34.0086 N   0  0  0  0  0  0  0  0  0  0  0  0
   17.9157    4.7737   35.0183 C   0  0  0  0  0  0  0  0  0  0  0  0
   17.1684    5.8711   35.2825 N   0  0  0  0  0  0  0  0  0  0  0  0
   17.5690    6.8360   34.4441 C   0  0  0  0  0  0  0  0  0  0  0  0
   18.6468    6.2680   33.6055 C   0  0  0  0  0  0  0  0  0  0  0  0
   19.2160    7.0587   32.6595 N   0  0  0  0  0  0  0  0  0  0  0  0
   18.8171    8.3314   32.4934 C   0  0  0  0  0  0  0  0  0  0  0  0
   17.8387    8.8938   33.2171 N   0  0  0  0  0  0  0  0  0  0  0  0
   17.1788    8.2329   34.1928 C   0  0  0  0  0  0  0  0  0  0  0  0
   16.1947    8.8291   34.9235 N   0  0  0  0  0  0  0  0  0  0  0  0
   16.8622    2.0409   31.7719 C   0  0  0  0  0  0  0  0  0  0  0  0
   18.2131    2.6731   30.2109 H   0  0  0  0  0  0  0  0  0  0  0  0
   18.3242    0.9448   30.5985 H   0  0  0  0  0  0  0  0  0  0  0  0
   20.1866    1.8037   31.6534 H   0  0  0  0  0  0  0  0  0  0  0  0
   17.9227    1.6193   33.6787 H   0  0  0  0  0  0  0  0  0  0  0  0
   19.5754    0.1215   34.5026 H   0  0  0  0  0  0  0  0  0  0  0  0
   19.2646    2.7517   35.3032 H   0  0  0  0  0  0  0  0  0  0  0  0
   21.3257    2.1769   35.3998 H   0  0  0  0  0  0  0  0  0  0  0  0
   20.7787    4.4128   33.6771 H   0  0  0  0  0  0  0  0  0  0  0  0
   17.8280    3.8185   35.5567 H   0  0  0  0  0  0  0  0  0  0  0  0
   19.3176    8.9409   31.7266 H   0  0  0  0  0  0  0  0  0  0  0  0
   15.9339    9.8075   34.7347 H   0  0  0  0  0  0  0  0  0  0  0  0
   15.7119    8.3013   35.6646 H   0  0  0  0  0  0  0  0  0  0  0  0
   17.0456    2.0275   32.8564 H   0  0  0  0  0  0  0  0  0  0  0  0
   16.3563    2.9782   31.4970 H   0  0  0  0  0  0  0  0  0  0  0  0
   16.2261    1.1866   31.4970 H   0  0  0  0  0  0  0  0  0  0  0  0
  2  1  1  0
  1 19  1  0
  2  3  1  0
  2  4  1  0
  3  8  1  0
  4  5  1  0
  4  6  1  0
  6  7  1  0
  6  8  1  0
  8  9  1  0
  9 10  1  0
  9 13  1  0
 10 11  2  0
 11 12  1  0
 12 13  2  0
 12 17  1  0
 13 14  1  0
 14 15  2  0
 15 16  1  0
 16 17  2  0
 17 18  1  0
  1 20  1  0
  1 21  1  0
  2 22  1  6
  4 23  1  1
  5 24  1  0
  6 25  1  1
  7 26  1  0
  8 27  1  6
 10 28  1  0
 15 29  1  0
 18 30  1  0
 18 31  1  0
 19 32  1  0
 19 33  1  0
 19 34  1  0
M  END
>  <filename_input>  (16) 
7XRL_FWK_docked.sdf

>  <pdb_id>  (16) 
7XRL_FWK

>  <pose_rank>  (16) 
15

>  <num_atoms_heavy>  (16) 
19

>  <num_torsions>  (16) 
2

>  <pose>  (16) 
[18.78268163088493, 5.002605918501451, 34.00858995387943, -3.2156587531430865, -1.422911017307266, -1.2956022512358387, -2.8291665962230694, -2.6372715541786405]

>  <energy>  (16) 
-180.00711124155572

>  <inter_energy>  (16) 
-168.74017417055245

>  <intra_energy>  (16) 
1.1653160050086642

>  <rmsd>  (16) 
13.0523

>  <sdf_rank>  (16) 
0

$$$$

     RDKit          3D

 34 36  0  0  0  0  0  0  0  0999 V2000
   20.6518   -6.3436   46.0696 C   0  0  0  0  0  0  0  0  0  0  0  0
   19.4224   -5.4713   45.9117 C   0  0  1  0  0  0  0  0  0  0  0  0
   18.2585   -6.3070   45.9268 O   0  0  0  0  0  0  0  0  0  0  0  0
   19.2240   -4.4879   47.0406 C   0  0  1  0  0  0  0  0  0  0  0  0
   19.9309   -3.2624   46.7844 O   0  0  0  0  0  0  0  0  0  0  0  0
   17.7189   -4.3004   47.0313 C   0  0  1  0  0  0  0  0  0  0  0  0
   17.3810   -3.2694   46.1084 O   0  0  0  0  0  0  0  0  0  0  0  0
   17.1402   -5.5919   46.4691 C   0  0  2  0  0  0  0  0  0  0  0  0
   16.5863   -6.5216   47.4812 N   0  0  0  0  0  0  0  0  0  0  0  0
   16.6914   -6.3044   48.8098 C   0  0  0  0  0  0  0  0  0  0  0  0
   16.0487   -7.2635   49.5167 N   0  0  0  0  0  0  0  0  0  0  0  0
   15.5001   -8.1080   48.6334 C   0  0  0  0  0  0  0  0  0  0  0  0
   15.8443   -7.6135   47.2827 C   0  0  0  0  0  0  0  0  0  0  0  0
   15.4052   -8.3140   46.2054 N   0  0  0  0  0  0  0  0  0  0  0  0
   14.6667   -9.4262   46.3604 C   0  0  0  0  0  0  0  0  0  0  0  0
   14.3347   -9.9251   47.5597 N   0  0  0  0  0  0  0  0  0  0  0  0
   14.6997   -9.3402   48.7211 C   0  0  0  0  0  0  0  0  0  0  0  0
   14.3408   -9.8595   49.9292 N   0  0  0  0  0  0  0  0  0  0  0  0
   20.6615   -6.8171   47.5100 C   0  0  0  0  0  0  0  0  0  0  0  0
   20.5973   -7.2045   45.3870 H   0  0  0  0  0  0  0  0  0  0  0  0
   21.5688   -5.7862   45.8279 H   0  0  0  0  0  0  0  0  0  0  0  0
   19.5668   -4.9182   44.9719 H   0  0  0  0  0  0  0  0  0  0  0  0
   19.6096   -4.8270   48.0134 H   0  0  0  0  0  0  0  0  0  0  0  0
   20.1763   -2.8371   47.6440 H   0  0  0  0  0  0  0  0  0  0  0  0
   17.3459   -4.0539   48.0364 H   0  0  0  0  0  0  0  0  0  0  0  0
   17.1144   -2.4559   46.6056 H   0  0  0  0  0  0  0  0  0  0  0  0
   16.3336   -5.3066   45.7777 H   0  0  0  0  0  0  0  0  0  0  0  0
   17.2298   -5.4572   49.2597 H   0  0  0  0  0  0  0  0  0  0  0  0
   14.3179   -9.9527   45.4597 H   0  0  0  0  0  0  0  0  0  0  0  0
   13.7804  -10.7226   49.9727 H   0  0  0  0  0  0  0  0  0  0  0  0
   14.6299   -9.3888   50.7985 H   0  0  0  0  0  0  0  0  0  0  0  0
   20.6437   -5.9466   48.1822 H   0  0  0  0  0  0  0  0  0  0  0  0
   19.7759   -7.4424   47.6964 H   0  0  0  0  0  0  0  0  0  0  0  0
   21.5718   -7.4058   47.6964 H   0  0  0  0  0  0  0  0  0  0  0  0
  2  1  1  0
  1 19  1  0
  2  3  1  0
  2  4  1  0
  3  8  1  0
  4  5  1  0
  4  6  1  0
  6  7  1  0
  6  8  1  0
  8  9  1  0
  9 10  1  0
  9 13  1  0
 10 11  2  0
 11 12  1  0
 12 13  2  0
 12 17  1  0
 13 14  1  0
 14 15  2  0
 15 16  1  0
 16 17  2  0
 17 18  1  0
  1 20  1  0
  1 21  1  0
  2 22  1  6
  4 23  1  1
  5 24  1  0
  6 25  1  1
  7 26  1  0
  8 27  1  6
 10 28  1  0
 15 29  1  0
 18 30  1  0
 18 31  1  0
 19 32  1  0
 19 33  1  0
 19 34  1  0
M  END
>  <filename_input>  (17) 
7XRL_FWK_docked.sdf

>  <pdb_id>  (17) 
7XRL_FWK

>  <pose_rank>  (17) 
16

>  <num_atoms_heavy>  (17) 
19

>  <num_torsions>  (17) 
2

>  <pose>  (17) 
[16.58626324157556, -6.521594660434999, 47.48115273940682, 0.08406329876281952, -3.2563799657542276, -0.400797916830706, -2.9253480709452857, 3.771753478657821]

>  <energy>  (17) 
-174.32053845587814

>  <inter_energy>  (17) 
-159.92053627704703

>  <intra_energy>  (17) 
1.4017693922601953

>  <rmsd>  (17) 
11.7085

>  <sdf_rank>  (17) 
0

$$$$

     RDKit          3D

 34 36  0  0  0  0  0  0  0  0999 V2000
   17.2593   -8.3560   49.5800 C   0  0  0  0  0  0  0  0  0  0  0  0
   17.2090   -8.2862   48.0668 C   0  0  1  0  0  0  0  0  0  0  0  0
   17.0007   -6.9240   47.6742 O   0  0  0  0  0  0  0  0  0  0  0  0
   18.4950   -8.7046   47.3945 C   0  0  1  0  0  0  0  0  0  0  0  0
   18.5186  -10.1245   47.1694 O   0  0  0  0  0  0  0  0  0  0  0  0
   18.4431   -7.9146   46.1007 C   0  0  1  0  0  0  0  0  0  0  0  0
   17.7210   -8.6601   45.1253 O   0  0  0  0  0  0  0  0  0  0  0  0
   17.6118   -6.6746   46.4012 C   0  0  2  0  0  0  0  0  0  0  0  0
   18.3939   -5.4361   46.6237 N   0  0  0  0  0  0  0  0  0  0  0  0
   18.6286   -4.9297   47.8534 C   0  0  0  0  0  0  0  0  0  0  0  0
   19.4197   -3.8329   47.7902 N   0  0  0  0  0  0  0  0  0  0  0  0
   19.7205   -3.6336   46.5002 C   0  0  0  0  0  0  0  0  0  0  0  0
   19.0519   -4.7008   45.7246 C   0  0  0  0  0  0  0  0  0  0  0  0
   19.1993   -4.7093   44.3747 N   0  0  0  0  0  0  0  0  0  0  0  0
   19.9427   -3.7758   43.7562 C   0  0  0  0  0  0  0  0  0  0  0  0
   20.5612   -2.7807   44.4077 N   0  0  0  0  0  0  0  0  0  0  0  0
   20.5058   -2.6401   45.7499 C   0  0  0  0  0  0  0  0  0  0  0  0
   21.1524   -1.6264   46.3919 N   0  0  0  0  0  0  0  0  0  0  0  0
   16.4215   -9.5535   49.9839 C   0  0  0  0  0  0  0  0  0  0  0  0
   18.2973   -8.4863   49.9201 H   0  0  0  0  0  0  0  0  0  0  0  0
   16.8753   -7.4305   50.0339 H   0  0  0  0  0  0  0  0  0  0  0  0
   16.4031   -8.9703   47.7625 H   0  0  0  0  0  0  0  0  0  0  0  0
   19.4026   -8.5067   47.9836 H   0  0  0  0  0  0  0  0  0  0  0  0
   18.5264  -10.5964   48.0397 H   0  0  0  0  0  0  0  0  0  0  0  0
   19.4559   -7.6858   45.7374 H   0  0  0  0  0  0  0  0  0  0  0  0
   17.1090   -9.2920   45.5795 H   0  0  0  0  0  0  0  0  0  0  0  0
   16.9472   -6.5184   45.5386 H   0  0  0  0  0  0  0  0  0  0  0  0
   18.2286   -5.3538   48.7862 H   0  0  0  0  0  0  0  0  0  0  0  0
   20.0487   -3.8310   42.6627 H   0  0  0  0  0  0  0  0  0  0  0  0
   21.6977   -0.9396   45.8516 H   0  0  0  0  0  0  0  0  0  0  0  0
   21.0957   -1.5471   47.4172 H   0  0  0  0  0  0  0  0  0  0  0  0
   16.3773   -9.6167   51.0811 H   0  0  0  0  0  0  0  0  0  0  0  0
   15.4038   -9.4414   49.5817 H   0  0  0  0  0  0  0  0  0  0  0  0
   16.8757  -10.4711   49.5817 H   0  0  0  0  0  0  0  0  0  0  0  0
  2  1  1  0
  1 19  1  0
  2  3  1  0
  2  4  1  0
  3  8  1  0
  4  5  1  0
  4  6  1  0
  6  7  1  0
  6  8  1  0
  8  9  1  0
  9 10  1  0
  9 13  1  0
 10 11  2  0
 11 12  1  0
 12 13  2  0
 12 17  1  0
 13 14  1  0
 14 15  2  0
 15 16  1  0
 16 17  2  0
 17 18  1  0
  1 20  1  0
  1 21  1  0
  2 22  1  6
  4 23  1  1
  5 24  1  0
  6 25  1  6
  7 26  1  0
  8 27  1  6
 10 28  1  0
 15 29  1  0
 18 30  1  0
 18 31  1  0
 19 32  1  0
 19 33  1  0
 19 34  1  0
M  END
>  <filename_input>  (18) 
7XRL_FWK_docked.sdf

>  <pdb_id>  (18) 
7XRL_FWK

>  <pose_rank>  (18) 
17

>  <num_atoms_heavy>  (18) 
19

>  <num_torsions>  (18) 
2

>  <pose>  (18) 
[18.39394660144453, -5.436076019842197, 46.62373636736469, -3.8276802648225403, 0.04054995007423983, 0.8457528872203468, 1.6742293817888003, 1.1198232578543195]

>  <energy>  (18) 
-148.11554625494495

>  <inter_energy>  (18) 
-153.16299875061407

>  <intra_energy>  (18) 
0.7273285168146794

>  <rmsd>  (18) 
12.1021

>  <sdf_rank>  (18) 
0

$$$$

     RDKit          3D

 34 36  0  0  0  0  0  0  0  0999 V2000
   14.9969    7.2025   34.6405 C   0  0  0  0  0  0  0  0  0  0  0  0
   16.3923    7.0587   35.2146 C   0  0  1  0  0  0  0  0  0  0  0  0
   16.7657    5.6757   35.1793 O   0  0  0  0  0  0  0  0  0  0  0  0
   17.4550    7.7809   34.4209 C   0  0  1  0  0  0  0  0  0  0  0  0
   17.5870    9.1435   34.8601 O   0  0  0  0  0  0  0  0  0  0  0  0
   18.6891    6.9530   34.7247 C   0  0  1  0  0  0  0  0  0  0  0  0
   19.2929    7.4341   35.9216 O   0  0  0  0  0  0  0  0  0  0  0  0
   18.1858    5.5480   35.0277 C   0  0  2  0  0  0  0  0  0  0  0  0
   18.3347    4.5775   33.9181 N   0  0  0  0  0  0  0  0  0  0  0  0
   17.9041    4.8290   32.6631 C   0  0  0  0  0  0  0  0  0  0  0  0
   18.2160    3.8135   31.8240 N   0  0  0  0  0  0  0  0  0  0  0  0
   18.8773    2.8948   32.5404 C   0  0  0  0  0  0  0  0  0  0  0  0
   18.9682    3.4025   33.9265 C   0  0  0  0  0  0  0  0  0  0  0  0
   19.5937    2.6363   34.8569 N   0  0  0  0  0  0  0  0  0  0  0  0
   20.1269    1.4477   34.5262 C   0  0  0  0  0  0  0  0  0  0  0  0
   20.0643    0.9345   33.2892 N   0  0  0  0  0  0  0  0  0  0  0  0
   19.4735    1.5787   32.2595 C   0  0  0  0  0  0  0  0  0  0  0  0
   19.4319    1.0420   31.0072 N   0  0  0  0  0  0  0  0  0  0  0  0
   15.1498    7.2008   33.1320 C   0  0  0  0  0  0  0  0  0  0  0  0
   14.3661    6.3597   34.9595 H   0  0  0  0  0  0  0  0  0  0  0  0
   14.5161    8.1278   34.9906 H   0  0  0  0  0  0  0  0  0  0  0  0
   16.3447    7.4861   36.2271 H   0  0  0  0  0  0  0  0  0  0  0  0
   17.2444    7.8604   33.3442 H   0  0  0  0  0  0  0  0  0  0  0  0
   17.5898    9.1724   35.8496 H   0  0  0  0  0  0  0  0  0  0  0  0
   19.4052    6.9917   33.8906 H   0  0  0  0  0  0  0  0  0  0  0  0
   18.8194    7.0568   36.7049 H   0  0  0  0  0  0  0  0  0  0  0  0
   18.7599    5.1821   35.8918 H   0  0  0  0  0  0  0  0  0  0  0  0
   17.3690    5.7415   32.3615 H   0  0  0  0  0  0  0  0  0  0  0  0
   20.6393    0.8680   35.3081 H   0  0  0  0  0  0  0  0  0  0  0  0
   19.8541    0.1198   30.8279 H   0  0  0  0  0  0  0  0  0  0  0  0
   18.9784    1.5588   30.2403 H   0  0  0  0  0  0  0  0  0  0  0  0
   16.2186    7.1892   32.8718 H   0  0  0  0  0  0  0  0  0  0  0  0
   14.6612    6.3079   32.7149 H   0  0  0  0  0  0  0  0  0  0  0  0
   14.6807    8.1041   32.7149 H   0  0  0  0  0  0  0  0  0  0  0  0
  2  1  1  0
  1 19  1  0
  2  3  1  0
  2  4  1  0
  3  8  1  0
  4  5  1  0
  4  6  1  0
  6  7  1  0
  6  8  1  0
  8  9  1  0
  9 10  1  0
  9 13  1  0
 10 11  2  0
 11 12  1  0
 12 13  2  0
 12 17  1  0
 13 14  1  0
 14 15  2  0
 15 16  1  0
 16 17  2  0
 17 18  1  0
  1 20  1  0
  1 21  1  0
  2 22  1  1
  4 23  1  6
  5 24  1  0
  6 25  1  6
  7 26  1  0
  8 27  1  1
 10 28  1  0
 15 29  1  0
 18 30  1  0
 18 31  1  0
 19 32  1  0
 19 33  1  0
 19 34  1  0
M  END
>  <filename_input>  (19) 
7XRL_FWK_docked.sdf

>  <pdb_id>  (19) 
7XRL_FWK

>  <pose_rank>  (19) 
18

>  <num_atoms_heavy>  (19) 
19

>  <num_torsions>  (19) 
2

>  <pose>  (19) 
[18.334670338457542, 4.577545360938209, 33.918063731066304, 4.70753908877866, -2.65716130190806, 2.5082478282833294, -3.7137232892244185, -2.6646205428270395]

>  <energy>  (19) 
-171.83452657691151

>  <inter_energy>  (19) 
-155.84483698780213

>  <intra_energy>  (19) 
4.199149632099661

>  <rmsd>  (19) 
11.7106

>  <sdf_rank>  (19) 
0

$$$$

     RDKit          3D

 34 36  0  0  0  0  0  0  0  0999 V2000
   18.6017   -6.4415   49.2933 C   0  0  0  0  0  0  0  0  0  0  0  0
   17.7433   -6.5114   48.0461 C   0  0  1  0  0  0  0  0  0  0  0  0
   17.6269   -5.1952   47.4915 O   0  0  0  0  0  0  0  0  0  0  0  0
   18.3360   -7.3588   46.9453 C   0  0  1  0  0  0  0  0  0  0  0  0
   17.9519   -8.7362   47.0941 O   0  0  0  0  0  0  0  0  0  0  0  0
   17.7389   -6.7224   45.7046 C   0  0  1  0  0  0  0  0  0  0  0  0
   16.4699   -7.3125   45.4401 O   0  0  0  0  0  0  0  0  0  0  0  0
   17.4731   -5.2676   46.0677 C   0  0  2  0  0  0  0  0  0  0  0  0
   18.4745   -4.3025   45.5568 N   0  0  0  0  0  0  0  0  0  0  0  0
   19.6406   -4.0534   46.1906 C   0  0  0  0  0  0  0  0  0  0  0  0
   20.4055   -3.1846   45.4885 N   0  0  0  0  0  0  0  0  0  0  0  0
   19.7346   -2.8783   44.3703 C   0  0  0  0  0  0  0  0  0  0  0  0
   18.4591   -3.6261   44.4061 C   0  0  0  0  0  0  0  0  0  0  0  0
   17.5897   -3.4730   43.3741 N   0  0  0  0  0  0  0  0  0  0  0  0
   17.8835   -2.6683   42.3385 C   0  0  0  0  0  0  0  0  0  0  0  0
   19.0187   -1.9594   42.2594 N   0  0  0  0  0  0  0  0  0  0  0  0
   19.9779   -2.0070   43.2091 C   0  0  0  0  0  0  0  0  0  0  0  0
   21.1295   -1.2858   43.1018 N   0  0  0  0  0  0  0  0  0  0  0  0
   18.2621   -7.6673   50.1187 C   0  0  0  0  0  0  0  0  0  0  0  0
   19.6676   -6.4494   49.0220 H   0  0  0  0  0  0  0  0  0  0  0  0
   18.4097   -5.5166   49.8570 H   0  0  0  0  0  0  0  0  0  0  0  0
   16.7870   -6.9512   48.3653 H   0  0  0  0  0  0  0  0  0  0  0  0
   19.4357   -7.3823   46.9302 H   0  0  0  0  0  0  0  0  0  0  0  0
   17.8896   -8.9593   48.0567 H   0  0  0  0  0  0  0  0  0  0  0  0
   18.4069   -6.8431   44.8391 H   0  0  0  0  0  0  0  0  0  0  0  0
   16.0187   -7.5223   46.2960 H   0  0  0  0  0  0  0  0  0  0  0  0
   16.4904   -5.0075   45.6473 H   0  0  0  0  0  0  0  0  0  0  0  0
   19.9315   -4.4990   47.1533 H   0  0  0  0  0  0  0  0  0  0  0  0
   17.1575   -2.5874   41.5161 H   0  0  0  0  0  0  0  0  0  0  0  0
   21.2838   -0.6808   42.2826 H   0  0  0  0  0  0  0  0  0  0  0  0
   21.8454   -1.3457   43.8399 H   0  0  0  0  0  0  0  0  0  0  0  0
   18.3307   -7.4196   51.1883 H   0  0  0  0  0  0  0  0  0  0  0  0
   17.2391   -7.9960   49.8833 H   0  0  0  0  0  0  0  0  0  0  0  0
   18.9703   -8.4755   49.8833 H   0  0  0  0  0  0  0  0  0  0  0  0
  2  1  1  0
  1 19  1  0
  2  3  1  0
  2  4  1  0
  3  8  1  0
  4  5  1  0
  4  6  1  0
  6  7  1  0
  6  8  1  0
  8  9  1  0
  9 10  1  0
  9 13  1  0
 10 11  2  0
 11 12  1  0
 12 13  2  0
 12 17  1  0
 13 14  1  0
 14 15  2  0
 15 16  1  0
 16 17  2  0
 17 18  1  0
  1 20  1  0
  1 21  1  0
  2 22  1  1
  4 23  1  6
  5 24  1  0
  6 25  1  6
  7 26  1  0
  8 27  1  1
 10 28  1  0
 15 29  1  0
 18 30  1  0
 18 31  1  0
 19 32  1  0
 19 33  1  0
 19 34  1  0
M  END
>  <filename_input>  (20) 
7XRL_FWK_docked.sdf

>  <pdb_id>  (20) 
7XRL_FWK

>  <pose_rank>  (20) 
19

>  <num_atoms_heavy>  (20) 
19

>  <num_torsions>  (20) 
2

>  <pose>  (20) 
[18.474528374556865, -4.302484102842008, 45.55684020690204, 1.9773824272739322, 0.04486217038146191, -1.5709077797906388, 2.007890262475773, 1.5109137433128064]

>  <energy>  (20) 
-160.4786780248723

>  <inter_energy>  (20) 
-151.0161691943527

>  <intra_energy>  (20) 
6.109246049885746

>  <rmsd>  (20) 
10.7886

>  <sdf_rank>  (20) 
0

$$$$

     RDKit          3D

 34 36  0  0  0  0  0  0  0  0999 V2000
   16.5263    1.8031   31.4465 C   0  0  0  0  0  0  0  0  0  0  0  0
   18.0224    1.9885   31.2899 C   0  0  1  0  0  0  0  0  0  0  0  0
   18.2975    3.3819   31.1002 O   0  0  0  0  0  0  0  0  0  0  0  0
   18.8172    1.5857   32.5094 C   0  0  1  0  0  0  0  0  0  0  0  0
   19.1469    0.1869   32.4686 O   0  0  0  0  0  0  0  0  0  0  0  0
   20.0421    2.4726   32.3914 C   0  0  1  0  0  0  0  0  0  0  0  0
   21.0133    1.8237   31.5762 O   0  0  0  0  0  0  0  0  0  0  0  0
   19.5906    3.7094   31.6263 C   0  0  2  0  0  0  0  0  0  0  0  0
   19.3365    4.9048   32.4639 N   0  0  0  0  0  0  0  0  0  0  0  0
   19.8917    6.1089   32.2085 C   0  0  0  0  0  0  0  0  0  0  0  0
   19.4508    7.0477   33.0786 N   0  0  0  0  0  0  0  0  0  0  0  0
   18.5797    6.4490   33.9015 C   0  0  0  0  0  0  0  0  0  0  0  0
   18.4924    5.0310   33.4904 C   0  0  0  0  0  0  0  0  0  0  0  0
   17.6707    4.2043   34.1872 N   0  0  0  0  0  0  0  0  0  0  0  0
   16.9454    4.6639   35.2212 C   0  0  0  0  0  0  0  0  0  0  0  0
   16.9938    5.9355   35.6433 N   0  0  0  0  0  0  0  0  0  0  0  0
   17.7651    6.8733   35.0518 C   0  0  0  0  0  0  0  0  0  0  0  0
   17.7895    8.1632   35.4916 N   0  0  0  0  0  0  0  0  0  0  0  0
   16.1111    0.7676   30.4197 C   0  0  0  0  0  0  0  0  0  0  0  0
   16.2915    1.4479   32.4608 H   0  0  0  0  0  0  0  0  0  0  0  0
   15.9899    2.7513   31.2946 H   0  0  0  0  0  0  0  0  0  0  0  0
   18.3155    1.3525   30.4415 H   0  0  0  0  0  0  0  0  0  0  0  0
   18.2841    1.7127   33.4632 H   0  0  0  0  0  0  0  0  0  0  0  0
   19.2287   -0.1599   33.3923 H   0  0  0  0  0  0  0  0  0  0  0  0
   20.4618    2.6992   33.3826 H   0  0  0  0  0  0  0  0  0  0  0  0
   21.6825    1.3766   32.1527 H   0  0  0  0  0  0  0  0  0  0  0  0
   20.3877    3.9492   30.9071 H   0  0  0  0  0  0  0  0  0  0  0  0
   20.6097    6.3022   31.3978 H   0  0  0  0  0  0  0  0  0  0  0  0
   16.2800    3.9630   35.7464 H   0  0  0  0  0  0  0  0  0  0  0  0
   17.2133    8.4433   36.2980 H   0  0  0  0  0  0  0  0  0  0  0  0
   18.3843    8.8577   35.0175 H   0  0  0  0  0  0  0  0  0  0  0  0
   15.7492   -0.1347   30.9345 H   0  0  0  0  0  0  0  0  0  0  0  0
   15.3077    1.1774   29.7898 H   0  0  0  0  0  0  0  0  0  0  0  0
   16.9750    0.5088   29.7898 H   0  0  0  0  0  0  0  0  0  0  0  0
  2  1  1  0
  1 19  1  0
  2  3  1  0
  2  4  1  0
  3  8  1  0
  4  5  1  0
  4  6  1  0
  6  7  1  0
  6  8  1  0
  8  9  1  0
  9 10  1  0
  9 13  1  0
 10 11  2  0
 11 12  1  0
 12 13  2  0
 12 17  1  0
 13 14  1  0
 14 15  2  0
 15 16  1  0
 16 17  2  0
 17 18  1  0
  1 20  1  0
  1 21  1  0
  2 22  1  6
  4 23  1  1
  5 24  1  0
  6 25  1  1
  7 26  1  0
  8 27  1  6
 10 28  1  0
 15 29  1  0
 18 30  1  0
 18 31  1  0
 19 32  1  0
 19 33  1  0
 19 34  1  0
M  END
>  <filename_input>  (21) 
7XRL_FWK_docked.sdf

>  <pdb_id>  (21) 
7XRL_FWK

>  <pose_rank>  (21) 
20

>  <num_atoms_heavy>  (21) 
19

>  <num_torsions>  (21) 
2

>  <pose>  (21) 
[19.336470346123654, 4.904781681027544, 32.46392705805257, -0.27448521773455886, -2.353038264984862, 1.9380137542777498, -0.5914167547685282, 0.9495172366191289]

>  <energy>  (21) 
-150.45521341172235

>  <inter_energy>  (21) 
-161.58226048544452

>  <intra_energy>  (21) 
9.528009312428836

>  <rmsd>  (21) 
13.0119

>  <sdf_rank>  (21) 
0

$$$$

     RDKit          3D

 34 36  0  0  0  0  0  0  0  0999 V2000
   11.0307    6.8033   31.4001 C   0  0  0  0  0  0  0  0  0  0  0  0
   11.2056    7.0707   32.8817 C   0  0  1  0  0  0  0  0  0  0  0  0
   12.4227    6.4552   33.3213 O   0  0  0  0  0  0  0  0  0  0  0  0
   11.3509    8.5346   33.2236 C   0  0  1  0  0  0  0  0  0  0  0  0
   10.0650    9.1444   33.4276 O   0  0  0  0  0  0  0  0  0  0  0  0
   12.1732    8.4783   34.4970 C   0  0  1  0  0  0  0  0  0  0  0  0
   11.2997    8.3312   35.6124 O   0  0  0  0  0  0  0  0  0  0  0  0
   12.9878    7.1945   34.4123 C   0  0  2  0  0  0  0  0  0  0  0  0
   14.4038    7.3774   34.0164 N   0  0  0  0  0  0  0  0  0  0  0  0
   15.4342    7.1565   34.8609 C   0  0  0  0  0  0  0  0  0  0  0  0
   16.6244    7.3310   34.2398 N   0  0  0  0  0  0  0  0  0  0  0  0
   16.3645    7.6516   32.9654 C   0  0  0  0  0  0  0  0  0  0  0  0
   14.8938    7.6723   32.8102 C   0  0  0  0  0  0  0  0  0  0  0  0
   14.3754    7.9848   31.5946 N   0  0  0  0  0  0  0  0  0  0  0  0
   15.1784    8.2602   30.5526 C   0  0  0  0  0  0  0  0  0  0  0  0
   16.5163    8.2667   30.6392 N   0  0  0  0  0  0  0  0  0  0  0  0
   17.1762    7.9776   31.7816 C   0  0  0  0  0  0  0  0  0  0  0  0
   18.5379    7.9794   31.8430 N   0  0  0  0  0  0  0  0  0  0  0  0
    9.6684    6.1577   31.2372 C   0  0  0  0  0  0  0  0  0  0  0  0
   11.0741    7.7466   30.8360 H   0  0  0  0  0  0  0  0  0  0  0  0
   11.8287    6.1505   31.0167 H   0  0  0  0  0  0  0  0  0  0  0  0
   10.3009    6.6747   33.3661 H   0  0  0  0  0  0  0  0  0  0  0  0
   11.8192    9.1424   32.4354 H   0  0  0  0  0  0  0  0  0  0  0  0
    9.8896    9.2276   34.3984 H   0  0  0  0  0  0  0  0  0  0  0  0
   12.7900    9.3823   34.6084 H   0  0  0  0  0  0  0  0  0  0  0  0
   11.8181    8.4185   36.4513 H   0  0  0  0  0  0  0  0  0  0  0  0
   12.9604    6.7319   35.4099 H   0  0  0  0  0  0  0  0  0  0  0  0
   15.3210    6.8716   35.9173 H   0  0  0  0  0  0  0  0  0  0  0  0
   14.7156    8.4915   29.5819 H   0  0  0  0  0  0  0  0  0  0  0  0
   19.0909    8.2099   31.0052 H   0  0  0  0  0  0  0  0  0  0  0  0
   19.0138    7.7504   32.7273 H   0  0  0  0  0  0  0  0  0  0  0  0
    9.2383    5.9539   32.2289 H   0  0  0  0  0  0  0  0  0  0  0  0
    9.0047    6.8371   30.6822 H   0  0  0  0  0  0  0  0  0  0  0  0
    9.7740    5.2138   30.6822 H   0  0  0  0  0  0  0  0  0  0  0  0
  2  1  1  0
  1 19  1  0
  2  3  1  0
  2  4  1  0
  3  8  1  0
  4  5  1  0
  4  6  1  0
  6  7  1  0
  6  8  1  0
  8  9  1  0
  9 10  1  0
  9 13  1  0
 10 11  2  0
 11 12  1  0
 12 13  2  0
 12 17  1  0
 13 14  1  0
 14 15  2  0
 15 16  1  0
 16 17  2  0
 17 18  1  0
  1 20  1  0
  1 21  1  0
  2 22  1  1
  4 23  1  6
  5 24  1  0
  6 25  1  1
  7 26  1  0
  8 27  1  1
 10 28  1  0
 15 29  1  0
 18 30  1  0
 18 31  1  0
 19 32  1  0
 19 33  1  0
 19 34  1  0
M  END
>  <filename_input>  (22) 
7XRL_FWK_docked.sdf

>  <pdb_id>  (22) 
7XRL_FWK

>  <pose_rank>  (22) 
21

>  <num_atoms_heavy>  (22) 
19

>  <num_torsions>  (22) 
2

>  <pose>  (22) 
[14.403829221200299, 7.377356630148119, 34.01642144777051, -2.6864147768048605, 0.9914522867649332, 2.102887452591619, -0.874137541734071, 0.9307718919482214]

>  <energy>  (22) 
-102.59360452424218

>  <inter_energy>  (22) 
-114.4042665112879

>  <intra_energy>  (22) 
10.361963971859957

>  <rmsd>  (22) 
12.5832

>  <sdf_rank>  (22) 
0

$$$$

     RDKit          3D

 34 36  0  0  0  0  0  0  0  0999 V2000
   18.9177   -6.1560   49.7454 C   0  0  0  0  0  0  0  0  0  0  0  0
   17.9082   -5.6232   48.7483 C   0  0  1  0  0  0  0  0  0  0  0  0
   18.5926   -5.2796   47.5372 O   0  0  0  0  0  0  0  0  0  0  0  0
   16.8603   -6.6327   48.3436 C   0  0  1  0  0  0  0  0  0  0  0  0
   15.7434   -6.6046   49.2485 O   0  0  0  0  0  0  0  0  0  0  0  0
   16.4893   -6.1577   46.9517 C   0  0  1  0  0  0  0  0  0  0  0  0
   15.4651   -5.1729   47.0504 O   0  0  0  0  0  0  0  0  0  0  0  0
   17.7226   -5.4475   46.4098 C   0  0  2  0  0  0  0  0  0  0  0  0
   18.5327   -6.2409   45.4562 N   0  0  0  0  0  0  0  0  0  0  0  0
   19.0219   -5.7271   44.3072 C   0  0  0  0  0  0  0  0  0  0  0  0
   19.7803   -6.6338   43.6473 N   0  0  0  0  0  0  0  0  0  0  0  0
   19.8009   -7.7495   44.3885 C   0  0  0  0  0  0  0  0  0  0  0  0
   18.9845   -7.4895   45.5940 C   0  0  0  0  0  0  0  0  0  0  0  0
   18.8427   -8.4848   46.5068 N   0  0  0  0  0  0  0  0  0  0  0  0
   19.4371   -9.6766   46.3257 C   0  0  0  0  0  0  0  0  0  0  0  0
   20.1785   -9.9702   45.2479 N   0  0  0  0  0  0  0  0  0  0  0  0
   20.4084   -9.0836   44.2553 C   0  0  0  0  0  0  0  0  0  0  0  0
   21.1751   -9.4010   43.1739 N   0  0  0  0  0  0  0  0  0  0  0  0
   19.2928   -4.9922   50.6419 C   0  0  0  0  0  0  0  0  0  0  0  0
   18.4722   -6.9664   50.3411 H   0  0  0  0  0  0  0  0  0  0  0  0
   19.8018   -6.5665   49.2356 H   0  0  0  0  0  0  0  0  0  0  0  0
   17.4178   -4.7727   49.2446 H   0  0  0  0  0  0  0  0  0  0  0  0
   17.2023   -7.6780   48.3648 H   0  0  0  0  0  0  0  0  0  0  0  0
   16.0743   -6.6129   50.1815 H   0  0  0  0  0  0  0  0  0  0  0  0
   16.1560   -6.9974   46.3242 H   0  0  0  0  0  0  0  0  0  0  0  0
   15.2744   -4.9895   48.0044 H   0  0  0  0  0  0  0  0  0  0  0  0
   17.3700   -4.5397   45.8984 H   0  0  0  0  0  0  0  0  0  0  0  0
   18.8290   -4.7037   43.9530 H   0  0  0  0  0  0  0  0  0  0  0  0
   19.3092  -10.4483   47.0991 H   0  0  0  0  0  0  0  0  0  0  0  0
   21.5928  -10.3393   43.0963 H   0  0  0  0  0  0  0  0  0  0  0  0
   21.3368   -8.7025   42.4344 H   0  0  0  0  0  0  0  0  0  0  0  0
   19.1954   -5.2944   51.6951 H   0  0  0  0  0  0  0  0  0  0  0  0
   20.3324   -4.6944   50.4406 H   0  0  0  0  0  0  0  0  0  0  0  0
   18.6227   -4.1434   50.4406 H   0  0  0  0  0  0  0  0  0  0  0  0
  2  1  1  0
  1 19  1  0
  2  3  1  0
  2  4  1  0
  3  8  1  0
  4  5  1  0
  4  6  1  0
  6  7  1  0
  6  8  1  0
  8  9  1  0
  9 10  1  0
  9 13  1  0
 10 11  2  0
 11 12  1  0
 12 13  2  0
 12 17  1  0
 13 14  1  0
 14 15  2  0
 15 16  1  0
 16 17  2  0
 17 18  1  0
  1 20  1  0
  1 21  1  0
  2 22  1  1
  4 23  1  6
  5 24  1  0
  6 25  1  6
  7 26  1  0
  8 27  1  6
 10 28  1  0
 15 29  1  0
 18 30  1  0
 18 31  1  0
 19 32  1  0
 19 33  1  0
 19 34  1  0
M  END
>  <filename_input>  (23) 
7XRL_FWK_docked.sdf

>  <pdb_id>  (23) 
7XRL_FWK

>  <pose_rank>  (23) 
22

>  <num_atoms_heavy>  (23) 
19

>  <num_torsions>  (23) 
2

>  <pose>  (23) 
[18.532726866385012, -6.240922637990384, 45.456171389918445, -0.18247476320097325, 4.917360475068407, 2.840278955601146, -0.45714646678401294, 0.4356373554654247]

>  <energy>  (23) 
-103.62750377180213

>  <inter_energy>  (23) 
-117.25083053358364

>  <intra_energy>  (23) 
11.219501053806969

>  <rmsd>  (23) 
11.5328

>  <sdf_rank>  (23) 
0

$$$$

     RDKit          3D

 34 36  0  0  0  0  0  0  0  0999 V2000
    2.0575   -7.6038   47.6798 C   0  0  0  0  0  0  0  0  0  0  0  0
    2.6944   -8.8408   47.0788 C   0  0  1  0  0  0  0  0  0  0  0  0
    1.9261   -9.2488   45.9401 O   0  0  0  0  0  0  0  0  0  0  0  0
    4.0935   -8.6136   46.5573 C   0  0  1  0  0  0  0  0  0  0  0  0
    5.0674   -8.8112   47.5963 O   0  0  0  0  0  0  0  0  0  0  0  0
    4.1936   -9.6600   45.4638 C   0  0  1  0  0  0  0  0  0  0  0  0
    4.6330  -10.8901   46.0315 O   0  0  0  0  0  0  0  0  0  0  0  0
    2.7700   -9.8921   44.9756 C   0  0  2  0  0  0  0  0  0  0  0  0
    2.4273   -9.2158   43.7026 N   0  0  0  0  0  0  0  0  0  0  0  0
    1.5576   -8.1851   43.6325 C   0  0  0  0  0  0  0  0  0  0  0  0
    1.4675   -7.7034   42.3705 N   0  0  0  0  0  0  0  0  0  0  0  0
    2.3067   -8.4197   41.6108 C   0  0  0  0  0  0  0  0  0  0  0  0
    2.9534   -9.4159   42.4922 C   0  0  0  0  0  0  0  0  0  0  0  0
    3.8504  -10.2773   41.9468 N   0  0  0  0  0  0  0  0  0  0  0  0
    4.1521  -10.2218   40.6382 C   0  0  0  0  0  0  0  0  0  0  0  0
    3.5889   -9.3476   39.7921 N   0  0  0  0  0  0  0  0  0  0  0  0
    2.6792   -8.4306   40.1868 C   0  0  0  0  0  0  0  0  0  0  0  0
    2.1281   -7.5440   39.3103 N   0  0  0  0  0  0  0  0  0  0  0  0
    2.4335   -6.4445   46.7777 C   0  0  0  0  0  0  0  0  0  0  0  0
    0.9641   -7.7185   47.7154 H   0  0  0  0  0  0  0  0  0  0  0  0
    2.4072   -7.4364   48.7092 H   0  0  0  0  0  0  0  0  0  0  0  0
    2.7273   -9.5841   47.8890 H   0  0  0  0  0  0  0  0  0  0  0  0
    4.2846   -7.5927   46.1949 H   0  0  0  0  0  0  0  0  0  0  0  0
    4.6298   -8.7224   48.4799 H   0  0  0  0  0  0  0  0  0  0  0  0
    4.8820   -9.3357   44.6694 H   0  0  0  0  0  0  0  0  0  0  0  0
    4.6097  -10.8248   47.0191 H   0  0  0  0  0  0  0  0  0  0  0  0
    2.6519  -10.9770   44.8381 H   0  0  0  0  0  0  0  0  0  0  0  0
    0.9949   -7.7881   44.4902 H   0  0  0  0  0  0  0  0  0  0  0  0
    4.8970  -10.9277   40.2424 H   0  0  0  0  0  0  0  0  0  0  0  0
    2.3999   -7.5652   38.3171 H   0  0  0  0  0  0  0  0  0  0  0  0
    1.4400   -6.8528   39.6413 H   0  0  0  0  0  0  0  0  0  0  0  0
    2.7148   -5.5773   47.3931 H   0  0  0  0  0  0  0  0  0  0  0  0
    3.2836   -6.7348   46.1427 H   0  0  0  0  0  0  0  0  0  0  0  0
    1.5749   -6.1806   46.1427 H   0  0  0  0  0  0  0  0  0  0  0  0
  2  1  1  0
  1 19  1  0
  2  3  1  0
  2  4  1  0
  3  8  1  0
  4  5  1  0
  4  6  1  0
  6  7  1  0
  6  8  1  0
  8  9  1  0
  9 10  1  0
  9 13  1  0
 10 11  2  0
 11 12  1  0
 12 13  2  0
 12 17  1  0
 13 14  1  0
 14 15  2  0
 15 16  1  0
 16 17  2  0
 17 18  1  0
  1 20  1  0
  1 21  1  0
  2 22  1  1
  4 23  1  6
  5 24  1  0
  6 25  1  6
  7 26  1  0
  8 27  1  6
 10 28  1  0
 15 29  1  0
 18 30  1  0
 18 31  1  0
 19 32  1  0
 19 33  1  0
 19 34  1  0
M  END
>  <filename_input>  (24) 
7XRL_FWK_docked.sdf

>  <pdb_id>  (24) 
7XRL_FWK

>  <pose_rank>  (24) 
23

>  <num_atoms_heavy>  (24) 
19

>  <num_torsions>  (24) 
2

>  <pose>  (24) 
[2.427250868492442, -9.215769693636043, 43.702646606451005, 0.9117982486522097, 0.5436653097857971, 0.20862037136085168, -4.762955070092625, -2.5856119549003758]

>  <energy>  (24) 
-134.53473250234

>  <inter_energy>  (24) 
-123.84865922550287

>  <intra_energy>  (24) 
1.0611297055266768

>  <rmsd>  (24) 
11.9764

>  <sdf_rank>  (24) 
0

$$$$

     RDKit          3D

 34 36  0  0  0  0  0  0  0  0999 V2000
    1.9800   -4.3967   47.6074 C   0  0  0  0  0  0  0  0  0  0  0  0
    1.5865   -5.8091   47.9913 C   0  0  1  0  0  0  0  0  0  0  0  0
    1.5467   -6.6152   46.8073 O   0  0  0  0  0  0  0  0  0  0  0  0
    2.5765   -6.4900   48.9064 C   0  0  1  0  0  0  0  0  0  0  0  0
    2.2831   -6.2039   50.2844 O   0  0  0  0  0  0  0  0  0  0  0  0
    2.3667   -7.9522   48.5617 C   0  0  1  0  0  0  0  0  0  0  0  0
    1.3090   -8.4745   49.3600 O   0  0  0  0  0  0  0  0  0  0  0  0
    1.8742   -7.9756   47.1209 C   0  0  2  0  0  0  0  0  0  0  0  0
    2.9020   -8.3303   46.1144 N   0  0  0  0  0  0  0  0  0  0  0  0
    2.9816   -7.7309   44.9070 C   0  0  0  0  0  0  0  0  0  0  0  0
    4.0431   -8.1867   44.2012 N   0  0  0  0  0  0  0  0  0  0  0  0
    4.6758   -9.0833   44.9695 C   0  0  0  0  0  0  0  0  0  0  0  0
    3.9293   -9.1731   46.2431 C   0  0  0  0  0  0  0  0  0  0  0  0
    4.3740  -10.0335   47.1949 N   0  0  0  0  0  0  0  0  0  0  0  0
    5.4724  -10.7806   46.9903 C   0  0  0  0  0  0  0  0  0  0  0  0
    6.1805  -10.7474   45.8524 N   0  0  0  0  0  0  0  0  0  0  0  0
    5.8605   -9.9432   44.8155 C   0  0  0  0  0  0  0  0  0  0  0  0
    6.6022   -9.9181   43.6722 N   0  0  0  0  0  0  0  0  0  0  0  0
    1.1075   -3.4683   48.4295 C   0  0  0  0  0  0  0  0  0  0  0  0
    3.0417   -4.2224   47.8365 H   0  0  0  0  0  0  0  0  0  0  0  0
    1.8404   -4.2237   46.5301 H   0  0  0  0  0  0  0  0  0  0  0  0
    0.6192   -5.7203   48.5077 H   0  0  0  0  0  0  0  0  0  0  0  0
    3.6183   -6.1621   48.7754 H   0  0  0  0  0  0  0  0  0  0  0  0
    2.8562   -6.7628   50.8668 H   0  0  0  0  0  0  0  0  0  0  0  0
    3.2889   -8.5307   48.7192 H   0  0  0  0  0  0  0  0  0  0  0  0
    1.5331   -8.3638   50.3180 H   0  0  0  0  0  0  0  0  0  0  0  0
    1.0650   -8.7191   47.0715 H   0  0  0  0  0  0  0  0  0  0  0  0
    2.2749   -6.9702   44.5437 H   0  0  0  0  0  0  0  0  0  0  0  0
    5.8065  -11.4516   47.7954 H   0  0  0  0  0  0  0  0  0  0  0  0
    7.4283  -10.5264   43.5808 H   0  0  0  0  0  0  0  0  0  0  0  0
    6.3364   -9.2909   42.8996 H   0  0  0  0  0  0  0  0  0  0  0  0
    1.2815   -3.6535   49.4997 H   0  0  0  0  0  0  0  0  0  0  0  0
    1.3584   -2.4238   48.1925 H   0  0  0  0  0  0  0  0  0  0  0  0
    0.0495   -3.6540   48.1925 H   0  0  0  0  0  0  0  0  0  0  0  0
  2  1  1  0
  1 19  1  0
  2  3  1  0
  2  4  1  0
  3  8  1  0
  4  5  1  0
  4  6  1  0
  6  7  1  0
  6  8  1  0
  8  9  1  0
  9 10  1  0
  9 13  1  0
 10 11  2  0
 11 12  1  0
 12 13  2  0
 12 17  1  0
 13 14  1  0
 14 15  2  0
 15 16  1  0
 16 17  2  0
 17 18  1  0
  1 20  1  0
  1 21  1  0
  2 22  1  1
  4 23  1  6
  5 24  1  0
  6 25  1  6
  7 26  1  0
  8 27  1  1
 10 28  1  0
 15 29  1  0
 18 30  1  0
 18 31  1  0
 19 32  1  0
 19 33  1  0
 19 34  1  0
M  END
>  <filename_input>  (25) 
7XRL_FWK_docked.sdf

>  <pdb_id>  (25) 
7XRL_FWK

>  <pose_rank>  (25) 
24

>  <num_atoms_heavy>  (25) 
19

>  <num_torsions>  (25) 
2

>  <pose>  (25) 
[2.9020294970536753, -8.330326458743082, 46.11439464916748, -1.0406687014458087, 5.016694388938349, -2.7232376603862525, 0.99904937194139, 1.1736096063881336]

>  <energy>  (25) 
-127.60989690169376

>  <inter_energy>  (25) 
-124.53051310406501

>  <intra_energy>  (25) 
7.803645656860539

>  <rmsd>  (25) 
12.2586

>  <sdf_rank>  (25) 
0

$$$$

     RDKit          3D

 34 36  0  0  0  0  0  0  0  0999 V2000
   12.5470    1.2510   42.5890 C   0  0  0  0  0  0  0  0  0  0  0  0
   11.1070    0.7790   42.5590 C   0  0  1  0  0  0  0  0  0  0  0  0
   10.6170    0.8770   41.2160 O   0  0  0  0  0  0  0  0  0  0  0  0
   10.9330   -0.6710   42.9440 C   0  0  1  0  0  0  0  0  0  0  0  0
   10.7820   -0.8100   44.3670 O   0  0  0  0  0  0  0  0  0  0  0  0
    9.6720   -1.0460   42.1890 C   0  0  1  0  0  0  0  0  0  0  0  0
    8.5360   -0.7250   42.9860 O   0  0  0  0  0  0  0  0  0  0  0  0
    9.6230   -0.1280   40.9750 C   0  0  2  0  0  0  0  0  0  0  0  0
   10.0550   -0.7510   39.7020 N   0  0  0  0  0  0  0  0  0  0  0  0
    9.7510   -0.2320   38.4930 C   0  0  0  0  0  0  0  0  0  0  0  0
   10.3160   -0.9500   37.4940 N   0  0  0  0  0  0  0  0  0  0  0  0
   11.0150   -1.9410   38.0630 C   0  0  0  0  0  0  0  0  0  0  0  0
   10.8540   -1.8060   39.5270 C   0  0  0  0  0  0  0  0  0  0  0  0
   11.4680   -2.7110   40.3320 N   0  0  0  0  0  0  0  0  0  0  0  0
   12.2130   -3.7020   39.8130 C   0  0  0  0  0  0  0  0  0  0  0  0
   12.3840   -3.8780   38.4950 N   0  0  0  0  0  0  0  0  0  0  0  0
   11.8350   -3.0600   37.5710 C   0  0  0  0  0  0  0  0  0  0  0  0
   12.0320   -3.2520   36.2360 N   0  0  0  0  0  0  0  0  0  0  0  0
   12.5110    2.7550   42.4000 C   0  0  0  0  0  0  0  0  0  0  0  0
   13.0090    1.0004   43.5553 H   0  0  0  0  0  0  0  0  0  0  0  0
   13.1414    0.7652   41.8012 H   0  0  0  0  0  0  0  0  0  0  0  0
   10.5698    1.4114   43.2811 H   0  0  0  0  0  0  0  0  0  0  0  0
   11.7903   -1.3143   42.6965 H   0  0  0  0  0  0  0  0  0  0  0  0
   11.4270   -0.2162   44.8269 H   0  0  0  0  0  0  0  0  0  0  0  0
    9.6704   -2.1152   41.9304 H   0  0  0  0  0  0  0  0  0  0  0  0
    8.7754   -0.7927   43.9442 H   0  0  0  0  0  0  0  0  0  0  0  0
    8.5796    0.2028   40.8661 H   0  0  0  0  0  0  0  0  0  0  0  0
    9.1249    0.6594   38.3396 H   0  0  0  0  0  0  0  0  0  0  0  0
   12.7062   -4.4025   40.5030 H   0  0  0  0  0  0  0  0  0  0  0  0
   12.6087   -4.0401   35.9086 H   0  0  0  0  0  0  0  0  0  0  0  0
   11.6042   -2.6089   35.5546 H   0  0  0  0  0  0  0  0  0  0  0  0
   12.4992    3.2479   43.3833 H   0  0  0  0  0  0  0  0  0  0  0  0
   13.4017    3.0756   41.8398 H   0  0  0  0  0  0  0  0  0  0  0  0
   11.6060    3.0326   41.8398 H   0  0  0  0  0  0  0  0  0  0  0  0
  2  1  1  0
  1 19  1  0
  2  3  1  0
  2  4  1  0
  3  8  1  0
  4  5  1  0
  4  6  1  0
  6  7  1  0
  6  8  1  0
  8  9  1  0
  9 10  1  0
  9 13  1  0
 10 11  2  0
 11 12  1  0
 12 13  2  0
 12 17  1  0
 13 14  1  0
 14 15  2  0
 15 16  1  0
 16 17  2  0
 17 18  1  0
  1 20  1  0
  1 21  1  0
  2 22  1  1
  4 23  1  6
  5 24  1  0
  6 25  1  6
  7 26  1  0
  8 27  1  6
 10 28  1  0
 15 29  1  0
 18 30  1  0
 18 31  1  0
 19 32  1  0
 19 33  1  0
 19 34  1  0
M  END
>  <filename_input>  (26) 
7XRL_FWK_docked.sdf

>  <pdb_id>  (26) 
7XRL_FWK

>  <pose_rank>  (26) 
25

>  <num_atoms_heavy>  (26) 
19

>  <num_torsions>  (26) 
2

>  <pose>  (26) 
[10.055, -0.751, 39.702, 1e-06, 1e-06, 1e-06, 0.0, 0.0]

>  <energy>  (26) 
-764.5169785757131

>  <inter_energy>  (26) 
-768.8919670890477

>  <intra_energy>  (26) 
16.485211903334513

>  <rmsd>  (26) 
0.0

>  <sdf_rank>  (26) 
0

$$$$
