
     RDKit          3D

 29 29  0  0  0  0  0  0  0  0999 V2000
   12.0896  -20.7947  -19.0338 C   0  0  0  0  0  0  0  0  0  0  0  0
    9.7896  -21.6326  -19.7659 C   0  0  1  0  0  0  0  0  0  0  0  0
    8.9891  -22.9260  -19.8022 C   0  0  1  0  0  0  0  0  0  0  0  0
    8.7837  -23.4325  -18.3762 C   0  0  2  0  0  0  0  0  0  0  0  0
   11.9445  -25.1609  -17.6090 C   0  0  0  0  0  0  0  0  0  0  0  0
   10.1315  -23.5956  -17.6755 C   0  0  1  0  0  0  0  0  0  0  0  0
   11.1364  -21.9662  -19.1450 C   0  0  2  0  0  0  0  0  0  0  0  0
   10.7679  -24.6982  -18.2682 O   0  0  0  0  0  0  0  0  0  0  0  0
   10.9131  -22.4195  -17.8000 O   0  0  0  0  0  0  0  0  0  0  0  0
   13.8295  -21.1682  -18.9746 S   0  0  2  0  0  0  0  0  0  0  0  0
   14.1284  -21.2594  -17.5762 O   0  0  0  0  0  0  0  0  0  0  0  0
   14.4629  -20.0352  -19.6841 O   0  0  0  0  0  0  0  0  0  0  0  0
   14.0103  -22.5373  -19.6195 O   0  0  0  0  0  0  0  0  0  0  0  0
    9.9486  -21.1063  -21.0668 O   0  0  0  0  0  0  0  0  0  0  0  0
    7.7316  -22.7463  -20.4534 O   0  0  0  0  0  0  0  0  0  0  0  0
    8.1064  -24.6915  -18.3551 O   0  0  0  0  0  0  0  0  0  0  0  0
   11.9195  -20.1451  -19.9052 H   0  0  0  0  0  0  0  0  0  0  0  0
   11.8637  -20.3350  -18.0603 H   0  0  0  0  0  0  0  0  0  0  0  0
    9.2690  -20.8647  -19.1748 H   0  0  0  0  0  0  0  0  0  0  0  0
    9.5546  -23.6706  -20.3817 H   0  0  0  0  0  0  0  0  0  0  0  0
    8.1666  -22.6873  -17.8529 H   0  0  0  0  0  0  0  0  0  0  0  0
   11.8008  -25.1044  -16.5199 H   0  0  0  0  0  0  0  0  0  0  0  0
   12.1414  -26.2035  -17.8993 H   0  0  0  0  0  0  0  0  0  0  0  0
   12.7989  -24.5318  -17.8993 H   0  0  0  0  0  0  0  0  0  0  0  0
    9.9953  -23.7640  -16.5970 H   0  0  0  0  0  0  0  0  0  0  0  0
   11.5920  -22.7152  -19.8094 H   0  0  0  0  0  0  0  0  0  0  0  0
   10.2345  -20.1603  -21.0074 H   0  0  0  0  0  0  0  0  0  0  0  0
    7.0194  -22.6445  -19.7733 H   0  0  0  0  0  0  0  0  0  0  0  0
    7.9566  -24.9700  -17.4170 H   0  0  0  0  0  0  0  0  0  0  0  0
  7  1  1  0
  1 10  1  0
  2  3  1  0
  2  7  1  0
  2 14  1  0
  3  4  1  0
  3 15  1  0
  4  6  1  0
  4 16  1  0
  5  8  1  0
  6  8  1  0
  6  9  1  0
  7  9  1  0
 10 11  2  0
 10 12  2  0
 10 13  1  6
  1 17  1  0
  1 18  1  0
  2 19  1  1
  3 20  1  6
  4 21  1  1
  5 22  1  0
  5 23  1  0
  5 24  1  0
  6 25  1  1
  7 26  1  6
 14 27  1  0
 15 28  1  0
 16 29  1  0
M  CHG  1  13  -1
M  END
>  <filename_input>  (1) 
7YZU_DO7_docked.sdf

>  <pdb_id>  (1) 
7YZU_DO7

>  <pose_rank>  (1) 
0

>  <num_atoms_heavy>  (1) 
16

>  <num_torsions>  (1) 
3

>  <pose>  (1) 
[9.789618440664432, -21.632579587153092, -19.765924059963215, 0.012814755755540894, 0.0761373031888424, -0.06454379958543444, 0.10961114412670588, 6.197264859225163, -0.32327720381018393]

>  <energy>  (1) 
-735.1133548494853

>  <inter_energy>  (1) 
-730.3997602434602

>  <intra_energy>  (1) 
0.8091718802374811

>  <rmsd>  (1) 
0.395676

>  <sdf_rank>  (1) 
0

$$$$

     RDKit          3D

 29 29  0  0  0  0  0  0  0  0999 V2000
   13.4337  -22.4119  -19.0059 C   0  0  0  0  0  0  0  0  0  0  0  0
   11.4010  -23.8757  -18.5028 C   0  0  1  0  0  0  0  0  0  0  0  0
    9.8916  -23.7471  -18.3604 C   0  0  1  0  0  0  0  0  0  0  0  0
    9.2978  -23.2780  -19.6870 C   0  0  2  0  0  0  0  0  0  0  0  0
   10.3388  -19.8189  -19.1511 C   0  0  0  0  0  0  0  0  0  0  0  0
    9.9592  -21.9734  -20.1285 C   0  0  1  0  0  0  0  0  0  0  0  0
   11.9309  -22.4906  -18.8365 C   0  0  2  0  0  0  0  0  0  0  0  0
    9.5053  -20.9710  -19.2561 O   0  0  0  0  0  0  0  0  0  0  0  0
   11.3720  -22.0854  -20.0966 O   0  0  0  0  0  0  0  0  0  0  0  0
   14.1999  -20.8304  -18.7194 S   0  0  2  0  0  0  0  0  0  0  0  0
   14.7822  -20.4811  -19.9812 O   0  0  0  0  0  0  0  0  0  0  0  0
   15.1642  -21.0925  -17.6288 O   0  0  0  0  0  0  0  0  0  0  0  0
   13.0805  -19.8494  -18.3915 O   0  0  0  0  0  0  0  0  0  0  0  0
   11.9760  -24.3634  -17.3086 O   0  0  0  0  0  0  0  0  0  0  0  0
    9.2961  -24.9798  -17.9559 O   0  0  0  0  0  0  0  0  0  0  0  0
    7.8882  -23.0606  -19.5873 O   0  0  0  0  0  0  0  0  0  0  0  0
   13.8843  -23.1303  -18.3053 H   0  0  0  0  0  0  0  0  0  0  0  0
   13.6119  -22.6261  -20.0700 H   0  0  0  0  0  0  0  0  0  0  0  0
   11.6612  -24.5924  -19.2956 H   0  0  0  0  0  0  0  0  0  0  0  0
    9.6766  -23.0065  -17.5760 H   0  0  0  0  0  0  0  0  0  0  0  0
    9.4843  -24.0721  -20.4249 H   0  0  0  0  0  0  0  0  0  0  0  0
   10.5083  -19.5846  -18.0898 H   0  0  0  0  0  0  0  0  0  0  0  0
   11.3032  -20.0181  -19.6412 H   0  0  0  0  0  0  0  0  0  0  0  0
    9.8478  -18.9653  -19.6412 H   0  0  0  0  0  0  0  0  0  0  0  0
    9.6914  -21.7297  -21.1672 H   0  0  0  0  0  0  0  0  0  0  0  0
   11.6492  -21.8525  -17.9859 H   0  0  0  0  0  0  0  0  0  0  0  0
   11.5084  -23.9669  -16.5313 H   0  0  0  0  0  0  0  0  0  0  0  0
    9.2735  -25.0266  -16.9673 H   0  0  0  0  0  0  0  0  0  0  0  0
    7.6271  -23.0203  -18.6332 H   0  0  0  0  0  0  0  0  0  0  0  0
  7  1  1  0
  1 10  1  0
  2  3  1  0
  2  7  1  0
  2 14  1  0
  3  4  1  0
  3 15  1  0
  4  6  1  0
  4 16  1  0
  5  8  1  0
  6  8  1  0
  6  9  1  0
  7  9  1  0
 10 11  2  0
 10 12  2  0
 10 13  1  1
  1 17  1  0
  1 18  1  0
  2 19  1  6
  3 20  1  1
  4 21  1  6
  5 22  1  0
  5 23  1  0
  5 24  1  0
  6 25  1  6
  7 26  1  1
 14 27  1  0
 15 28  1  0
 16 29  1  0
M  CHG  1  13  -1
M  END
>  <filename_input>  (2) 
7YZU_DO7_docked.sdf

>  <pdb_id>  (2) 
7YZU_DO7

>  <pose_rank>  (2) 
1

>  <num_atoms_heavy>  (2) 
16

>  <num_torsions>  (2) 
3

>  <pose>  (2) 
[11.400953320127218, -23.875749462481252, -18.502789725024154, -2.5261153189311414, -1.3423732915039084, -0.18833180563799906, -0.4624774894159263, 12.484493951769826, 5.522819665604508]

>  <energy>  (2) 
-567.7303682255807

>  <inter_energy>  (2) 
-591.6814179280929

>  <intra_energy>  (2) 
31.085112339896426

>  <rmsd>  (2) 
2.91989

>  <sdf_rank>  (2) 
0

$$$$

     RDKit          3D

 29 29  0  0  0  0  0  0  0  0999 V2000
   10.5831  -25.6376  -17.6770 C   0  0  0  0  0  0  0  0  0  0  0  0
    9.9137  -23.4793  -18.8692 C   0  0  1  0  0  0  0  0  0  0  0  0
   10.4389  -22.0674  -19.0837 C   0  0  1  0  0  0  0  0  0  0  0  0
   11.7719  -22.1323  -19.8262 C   0  0  2  0  0  0  0  0  0  0  0  0
   13.1179  -20.8902  -18.0179 C   0  0  0  0  0  0  0  0  0  0  0  0
   12.7576  -23.0158  -19.0634 C   0  0  1  0  0  0  0  0  0  0  0  0
   10.9390  -24.2045  -18.0126 C   0  0  2  0  0  0  0  0  0  0  0  0
   13.1239  -22.3115  -17.9051 O   0  0  0  0  0  0  0  0  0  0  0  0
   12.1741  -24.2676  -18.7440 O   0  0  0  0  0  0  0  0  0  0  0  0
   10.9571  -26.2012  -16.0299 S   0  0  2  0  0  0  0  0  0  0  0  0
    9.8211  -26.9900  -15.6551 O   0  0  0  0  0  0  0  0  0  0  0  0
   11.1426  -24.9529  -15.2583 O   0  0  0  0  0  0  0  0  0  0  0  0
   12.1826  -27.1009  -16.1378 O   0  0  0  0  0  0  0  0  0  0  0  0
    8.6523  -23.4524  -18.2346 O   0  0  0  0  0  0  0  0  0  0  0  0
    9.5049  -21.2646  -19.8054 O   0  0  0  0  0  0  0  0  0  0  0  0
   12.3529  -20.8354  -19.9830 O   0  0  0  0  0  0  0  0  0  0  0  0
    9.5000  -25.7546  -17.8294 H   0  0  0  0  0  0  0  0  0  0  0  0
   11.2142  -26.2500  -18.3377 H   0  0  0  0  0  0  0  0  0  0  0  0
    9.7744  -23.9969  -19.8297 H   0  0  0  0  0  0  0  0  0  0  0  0
   10.5852  -21.5960  -18.1007 H   0  0  0  0  0  0  0  0  0  0  0  0
   11.5687  -22.5542  -20.8215 H   0  0  0  0  0  0  0  0  0  0  0  0
   13.1160  -20.4426  -17.0131 H   0  0  0  0  0  0  0  0  0  0  0  0
   14.0146  -20.5619  -18.5638 H   0  0  0  0  0  0  0  0  0  0  0  0
   12.2184  -20.5695  -18.5638 H   0  0  0  0  0  0  0  0  0  0  0  0
   13.6441  -23.2350  -19.6767 H   0  0  0  0  0  0  0  0  0  0  0  0
   10.9941  -23.6370  -17.0719 H   0  0  0  0  0  0  0  0  0  0  0  0
    8.7769  -23.4551  -17.2525 H   0  0  0  0  0  0  0  0  0  0  0  0
    8.9311  -20.7714  -19.1669 H   0  0  0  0  0  0  0  0  0  0  0  0
   12.5289  -20.4426  -19.0914 H   0  0  0  0  0  0  0  0  0  0  0  0
  7  1  1  0
  1 10  1  0
  2  3  1  0
  2  7  1  0
  2 14  1  0
  3  4  1  0
  3 15  1  0
  4  6  1  0
  4 16  1  0
  5  8  1  0
  6  8  1  0
  6  9  1  0
  7  9  1  0
 10 11  2  0
 10 12  2  0
 10 13  1  6
  1 17  1  0
  1 18  1  0
  2 19  1  6
  3 20  1  1
  4 21  1  6
  5 22  1  0
  5 23  1  0
  5 24  1  0
  6 25  1  6
  7 26  1  1
 14 27  1  0
 15 28  1  0
 16 29  1  0
M  CHG  1  13  -1
M  END
>  <filename_input>  (3) 
7YZU_DO7_docked.sdf

>  <pdb_id>  (3) 
7YZU_DO7

>  <pose_rank>  (3) 
2

>  <num_atoms_heavy>  (3) 
16

>  <num_torsions>  (3) 
3

>  <pose>  (3) 
[9.913696838549635, -23.479250230733463, -18.86919029075961, 2.3977074881290545, -0.9964646129885164, 1.5916602517765057, 2.5452304662754703, 0.1741776601481213, -2.561587636643973]

>  <energy>  (3) 
-379.7466652983988

>  <inter_energy>  (3) 
-468.895154012335

>  <intra_energy>  (3) 
80.75870786990491

>  <rmsd>  (3) 
4.68315

>  <sdf_rank>  (3) 
0

$$$$

     RDKit          3D

 29 29  0  0  0  0  0  0  0  0999 V2000
   12.0988  -20.8349  -18.7271 C   0  0  0  0  0  0  0  0  0  0  0  0
    9.8918  -21.7802  -19.6007 C   0  0  1  0  0  0  0  0  0  0  0  0
    9.1464  -23.1053  -19.6624 C   0  0  1  0  0  0  0  0  0  0  0  0
    8.8582  -23.5887  -18.2427 C   0  0  2  0  0  0  0  0  0  0  0  0
   11.5356  -25.5913  -17.0003 C   0  0  0  0  0  0  0  0  0  0  0  0
   10.1572  -23.6823  -17.4438 C   0  0  1  0  0  0  0  0  0  0  0  0
   11.2021  -22.0459  -18.8773 C   0  0  2  0  0  0  0  0  0  0  0  0
   10.8767  -24.7709  -17.9625 O   0  0  0  0  0  0  0  0  0  0  0  0
   10.8998  -22.4787  -17.5410 O   0  0  0  0  0  0  0  0  0  0  0  0
   13.8379  -21.0719  -19.0271 S   0  0  2  0  0  0  0  0  0  0  0  0
   14.1949  -20.0097  -19.9201 O   0  0  0  0  0  0  0  0  0  0  0  0
   13.9198  -22.4336  -19.5991 O   0  0  0  0  0  0  0  0  0  0  0  0
   14.5482  -20.8703  -17.6937 O   0  0  0  0  0  0  0  0  0  0  0  0
   10.1240  -21.2762  -20.8994 O   0  0  0  0  0  0  0  0  0  0  0  0
    7.9333  -22.9903  -20.4058 O   0  0  0  0  0  0  0  0  0  0  0  0
    8.2302  -24.8731  -18.2392 O   0  0  0  0  0  0  0  0  0  0  0  0
   11.7423  -20.0690  -19.4316 H   0  0  0  0  0  0  0  0  0  0  0  0
   12.0282  -20.5581  -17.6648 H   0  0  0  0  0  0  0  0  0  0  0  0
    9.3006  -21.0213  -19.0672 H   0  0  0  0  0  0  0  0  0  0  0  0
    9.7806  -23.8389  -20.1817 H   0  0  0  0  0  0  0  0  0  0  0  0
    8.1766  -22.8577  -17.7832 H   0  0  0  0  0  0  0  0  0  0  0  0
   11.2668  -25.2567  -15.9875 H   0  0  0  0  0  0  0  0  0  0  0  0
   11.2239  -26.6375  -17.1356 H   0  0  0  0  0  0  0  0  0  0  0  0
   12.6244  -25.5127  -17.1356 H   0  0  0  0  0  0  0  0  0  0  0  0
    9.9500  -23.8326  -16.3740 H   0  0  0  0  0  0  0  0  0  0  0  0
   11.7329  -22.7902  -19.4890 H   0  0  0  0  0  0  0  0  0  0  0  0
   10.5374  -20.3789  -20.8361 H   0  0  0  0  0  0  0  0  0  0  0  0
    7.1689  -22.9179  -19.7808 H   0  0  0  0  0  0  0  0  0  0  0  0
    8.0863  -25.1675  -17.3050 H   0  0  0  0  0  0  0  0  0  0  0  0
  7  1  1  0
  1 10  1  0
  2  3  1  0
  2  7  1  0
  2 14  1  0
  3  4  1  0
  3 15  1  0
  4  6  1  0
  4 16  1  0
  5  8  1  0
  6  8  1  0
  6  9  1  0
  7  9  1  0
 10 11  2  0
 10 12  2  0
 10 13  1  1
  1 17  1  0
  1 18  1  0
  2 19  1  1
  3 20  1  6
  4 21  1  1
  5 22  1  0
  5 23  1  0
  5 24  1  0
  6 25  1  1
  7 26  1  6
 14 27  1  0
 15 28  1  0
 16 29  1  0
M  CHG  1  13  -1
M  END
>  <filename_input>  (4) 
7YZU_DO7_docked.sdf

>  <pdb_id>  (4) 
7YZU_DO7

>  <pose_rank>  (4) 
3

>  <num_atoms_heavy>  (4) 
16

>  <num_torsions>  (4) 
3

>  <pose>  (4) 
[9.891759352480724, -21.78020491793592, -19.60071255504513, -0.009411898554174104, 0.0037784087279965073, -0.02552095218913483, 0.640407914979706, 0.22860518833142868, 3.579134527357809]

>  <energy>  (4) 
-710.9229462869023

>  <inter_energy>  (4) 
-718.4436151675023

>  <intra_energy>  (4) 
0.0

>  <rmsd>  (4) 
0.532662

>  <sdf_rank>  (4) 
0

$$$$

     RDKit          3D

 29 29  0  0  0  0  0  0  0  0999 V2000
   10.1362  -23.6694  -18.4099 C   0  0  0  0  0  0  0  0  0  0  0  0
   12.6796  -23.4380  -18.3350 C   0  0  1  0  0  0  0  0  0  0  0  0
   13.7571  -22.4174  -18.6705 C   0  0  1  0  0  0  0  0  0  0  0  0
   13.5607  -21.1736  -17.8064 C   0  0  2  0  0  0  0  0  0  0  0  0
   10.8600  -20.2341  -19.9756 C   0  0  0  0  0  0  0  0  0  0  0  0
   12.1490  -20.6199  -17.9929 C   0  0  1  0  0  0  0  0  0  0  0  0
   11.3440  -22.7928  -18.6673 C   0  0  2  0  0  0  0  0  0  0  0  0
   12.0952  -20.0678  -19.2829 O   0  0  0  0  0  0  0  0  0  0  0  0
   11.1785  -21.6396  -17.8263 O   0  0  0  0  0  0  0  0  0  0  0  0
    8.7554  -23.4931  -19.5200 S   0  0  2  0  0  0  0  0  0  0  0  0
    9.0899  -24.3201  -20.6413 O   0  0  0  0  0  0  0  0  0  0  0  0
    8.7032  -22.0412  -19.7983 O   0  0  0  0  0  0  0  0  0  0  0  0
    7.5391  -24.0748  -18.8091 O   0  0  0  0  0  0  0  0  0  0  0  0
   12.8667  -24.6249  -19.0770 O   0  0  0  0  0  0  0  0  0  0  0  0
   15.0658  -22.9549  -18.4803 O   0  0  0  0  0  0  0  0  0  0  0  0
   14.4982  -20.1464  -18.1382 O   0  0  0  0  0  0  0  0  0  0  0  0
   10.4700  -24.7163  -18.4596 H   0  0  0  0  0  0  0  0  0  0  0  0
    9.7557  -23.3489  -17.4288 H   0  0  0  0  0  0  0  0  0  0  0  0
   12.7215  -23.7187  -17.2722 H   0  0  0  0  0  0  0  0  0  0  0  0
   13.6647  -22.1484  -19.7331 H   0  0  0  0  0  0  0  0  0  0  0  0
   13.7194  -21.4765  -16.7609 H   0  0  0  0  0  0  0  0  0  0  0  0
   10.0431  -20.3442  -19.2472 H   0  0  0  0  0  0  0  0  0  0  0  0
   10.6722  -19.3532  -20.6069 H   0  0  0  0  0  0  0  0  0  0  0  0
   10.9119  -21.1334  -20.6069 H   0  0  0  0  0  0  0  0  0  0  0  0
   11.9252  -19.8530  -17.2366 H   0  0  0  0  0  0  0  0  0  0  0  0
   11.3816  -22.5708  -19.7440 H   0  0  0  0  0  0  0  0  0  0  0  0
   12.9868  -25.3867  -18.4563 H   0  0  0  0  0  0  0  0  0  0  0  0
   15.2533  -23.0319  -17.5113 H   0  0  0  0  0  0  0  0  0  0  0  0
   14.8606  -19.7493  -17.3069 H   0  0  0  0  0  0  0  0  0  0  0  0
  7  1  1  0
  1 10  1  0
  2  3  1  0
  2  7  1  0
  2 14  1  0
  3  4  1  0
  3 15  1  0
  4  6  1  0
  4 16  1  0
  5  8  1  0
  6  8  1  0
  6  9  1  0
  7  9  1  0
 10 11  2  0
 10 12  2  0
 10 13  1  1
  1 17  1  0
  1 18  1  0
  2 19  1  1
  3 20  1  6
  4 21  1  1
  5 22  1  0
  5 23  1  0
  5 24  1  0
  6 25  1  1
  7 26  1  6
 14 27  1  0
 15 28  1  0
 16 29  1  0
M  CHG  1  13  -1
M  END
>  <filename_input>  (5) 
7YZU_DO7_docked.sdf

>  <pdb_id>  (5) 
7YZU_DO7

>  <pose_rank>  (5) 
4

>  <num_atoms_heavy>  (5) 
16

>  <num_torsions>  (5) 
3

>  <pose>  (5) 
[12.679637062930576, -23.43798775543407, -18.334965983312888, 0.8844092541929021, -1.0031055805406526, -3.0523157691722336, -0.7074791449068212, 0.07959257870391179, 2.7499314044985255]

>  <energy>  (5) 
-484.90795702618306

>  <inter_energy>  (5) 
-522.9393690899229

>  <intra_energy>  (5) 
43.14695529194758

>  <rmsd>  (5) 
5.24064

>  <sdf_rank>  (5) 
0

$$$$

     RDKit          3D

 29 29  0  0  0  0  0  0  0  0999 V2000
   13.7541  -22.2900  -18.5139 C   0  0  0  0  0  0  0  0  0  0  0  0
   11.3572  -22.2939  -19.3984 C   0  0  1  0  0  0  0  0  0  0  0  0
   10.1264  -23.1884  -19.3960 C   0  0  1  0  0  0  0  0  0  0  0  0
    9.6573  -23.3974  -17.9577 C   0  0  2  0  0  0  0  0  0  0  0  0
   11.0685  -26.2595  -16.4856 C   0  0  0  0  0  0  0  0  0  0  0  0
   10.7953  -23.9621  -17.1089 C   0  0  1  0  0  0  0  0  0  0  0  0
   12.4338  -23.0249  -18.6128 C   0  0  2  0  0  0  0  0  0  0  0  0
   10.9957  -25.2877  -17.5264 O   0  0  0  0  0  0  0  0  0  0  0  0
   11.9734  -23.1886  -17.2616 O   0  0  0  0  0  0  0  0  0  0  0  0
   13.7133  -20.5204  -18.7071 S   0  0  2  0  0  0  0  0  0  0  0  0
   14.9655  -20.0732  -18.1730 O   0  0  0  0  0  0  0  0  0  0  0  0
   12.5159  -20.1050  -17.9443 O   0  0  0  0  0  0  0  0  0  0  0  0
   13.6743  -20.2397  -20.2046 O   0  0  0  0  0  0  0  0  0  0  0  0
   11.7835  -22.0336  -20.7194 O   0  0  0  0  0  0  0  0  0  0  0  0
    9.0750  -22.6359  -20.1878 O   0  0  0  0  0  0  0  0  0  0  0  0
    8.5498  -24.2990  -17.8888 O   0  0  0  0  0  0  0  0  0  0  0  0
   14.1800  -22.5055  -17.5229 H   0  0  0  0  0  0  0  0  0  0  0  0
   14.3480  -22.6557  -19.3645 H   0  0  0  0  0  0  0  0  0  0  0  0
   11.1355  -21.3193  -18.9391 H   0  0  0  0  0  0  0  0  0  0  0  0
   10.3976  -24.1570  -19.8413 H   0  0  0  0  0  0  0  0  0  0  0  0
    9.3421  -22.4161  -17.5734 H   0  0  0  0  0  0  0  0  0  0  0  0
   11.0307  -25.7544  -15.5091 H   0  0  0  0  0  0  0  0  0  0  0  0
   10.2200  -26.9540  -16.5723 H   0  0  0  0  0  0  0  0  0  0  0  0
   12.0112  -26.8197  -16.5723 H   0  0  0  0  0  0  0  0  0  0  0  0
   10.5404  -23.9299  -16.0393 H   0  0  0  0  0  0  0  0  0  0  0  0
   12.6070  -23.9672  -19.1532 H   0  0  0  0  0  0  0  0  0  0  0  0
   12.6283  -21.5179  -20.6980 H   0  0  0  0  0  0  0  0  0  0  0  0
    8.3736  -22.2673  -19.5943 H   0  0  0  0  0  0  0  0  0  0  0  0
    8.3291  -24.4787  -16.9407 H   0  0  0  0  0  0  0  0  0  0  0  0
  7  1  1  0
  1 10  1  0
  2  3  1  0
  2  7  1  0
  2 14  1  0
  3  4  1  0
  3 15  1  0
  4  6  1  0
  4 16  1  0
  5  8  1  0
  6  8  1  0
  6  9  1  0
  7  9  1  0
 10 11  2  0
 10 12  2  0
 10 13  1  6
  1 17  1  0
  1 18  1  0
  2 19  1  1
  3 20  1  6
  4 21  1  1
  5 22  1  0
  5 23  1  0
  5 24  1  0
  6 25  1  1
  7 26  1  6
 14 27  1  0
 15 28  1  0
 16 29  1  0
M  CHG  1  13  -1
M  END
>  <filename_input>  (6) 
7YZU_DO7_docked.sdf

>  <pdb_id>  (6) 
7YZU_DO7

>  <pose_rank>  (6) 
5

>  <num_atoms_heavy>  (6) 
16

>  <num_torsions>  (6) 
3

>  <pose>  (6) 
[11.357150410200552, -22.293862524825812, -19.398428374546654, 1.0402998579820153, 0.19182307920468364, 5.721743756575307, 0.7817167062425614, -9.526704861983948, -2.14604786271104]

>  <energy>  (6) 
-587.1747794673826

>  <inter_energy>  (6) 
-631.1171702438395

>  <intra_energy>  (6) 
47.15829803168976

>  <rmsd>  (6) 
1.55433

>  <sdf_rank>  (6) 
0

$$$$

     RDKit          3D

 29 29  0  0  0  0  0  0  0  0999 V2000
   11.4330  -24.9641  -16.6938 C   0  0  0  0  0  0  0  0  0  0  0  0
   12.7345  -23.3898  -18.2286 C   0  0  1  0  0  0  0  0  0  0  0  0
   12.4836  -22.4416  -19.3918 C   0  0  1  0  0  0  0  0  0  0  0  0
   11.5510  -21.3209  -18.9371 C   0  0  2  0  0  0  0  0  0  0  0  0
    8.1845  -22.7832  -19.1856 C   0  0  0  0  0  0  0  0  0  0  0  0
   10.2599  -21.9075  -18.3688 C   0  0  1  0  0  0  0  0  0  0  0  0
   11.3866  -23.9752  -17.8397 C   0  0  2  0  0  0  0  0  0  0  0  0
    9.5418  -22.4378  -19.4528 O   0  0  0  0  0  0  0  0  0  0  0  0
   10.5393  -22.9021  -17.3980 O   0  0  0  0  0  0  0  0  0  0  0  0
   10.1829  -26.2318  -16.6661 S   0  0  2  0  0  0  0  0  0  0  0  0
   10.9132  -27.4574  -16.7994 O   0  0  0  0  0  0  0  0  0  0  0  0
    9.3038  -25.8921  -17.8062 O   0  0  0  0  0  0  0  0  0  0  0  0
    9.5310  -26.1801  -15.2893 O   0  0  0  0  0  0  0  0  0  0  0  0
   13.6401  -24.4079  -18.5998 O   0  0  0  0  0  0  0  0  0  0  0  0
   13.7030  -21.9003  -19.8994 O   0  0  0  0  0  0  0  0  0  0  0  0
   11.2146  -20.4437  -20.0149 O   0  0  0  0  0  0  0  0  0  0  0  0
   12.4119  -25.4647  -16.7274 H   0  0  0  0  0  0  0  0  0  0  0  0
   11.2491  -24.3630  -15.7912 H   0  0  0  0  0  0  0  0  0  0  0  0
   13.1866  -22.8579  -17.3785 H   0  0  0  0  0  0  0  0  0  0  0  0
   12.0115  -23.0077  -20.2083 H   0  0  0  0  0  0  0  0  0  0  0  0
   12.0850  -20.7477  -18.1648 H   0  0  0  0  0  0  0  0  0  0  0  0
    8.0238  -22.8241  -18.0981 H   0  0  0  0  0  0  0  0  0  0  0  0
    7.5197  -22.0256  -19.6262 H   0  0  0  0  0  0  0  0  0  0  0  0
    7.9628  -23.7664  -19.6262 H   0  0  0  0  0  0  0  0  0  0  0  0
    9.6688  -21.1334  -17.8576 H   0  0  0  0  0  0  0  0  0  0  0  0
   11.0243  -24.5046  -18.7333 H   0  0  0  0  0  0  0  0  0  0  0  0
   14.0148  -24.8291  -17.7860 H   0  0  0  0  0  0  0  0  0  0  0  0
   14.2883  -21.6405  -19.1444 H   0  0  0  0  0  0  0  0  0  0  0  0
   10.8850  -19.5843  -19.6503 H   0  0  0  0  0  0  0  0  0  0  0  0
  7  1  1  0
  1 10  1  0
  2  3  1  0
  2  7  1  0
  2 14  1  0
  3  4  1  0
  3 15  1  0
  4  6  1  0
  4 16  1  0
  5  8  1  0
  6  8  1  0
  6  9  1  0
  7  9  1  0
 10 11  2  0
 10 12  2  0
 10 13  1  1
  1 17  1  0
  1 18  1  0
  2 19  1  1
  3 20  1  6
  4 21  1  1
  5 22  1  0
  5 23  1  0
  5 24  1  0
  6 25  1  1
  7 26  1  6
 14 27  1  0
 15 28  1  0
 16 29  1  0
M  CHG  1  13  -1
M  END
>  <filename_input>  (7) 
7YZU_DO7_docked.sdf

>  <pdb_id>  (7) 
7YZU_DO7

>  <pose_rank>  (7) 
6

>  <num_atoms_heavy>  (7) 
16

>  <num_torsions>  (7) 
3

>  <pose>  (7) 
[12.734500599904122, -23.38979921981634, -18.22858144043623, -0.678937490800675, 1.800790923369853, 3.5108938624686634, 0.1532970933290568, -0.017653749828007187, 3.334291926206679]

>  <energy>  (7) 
-499.34385917718413

>  <inter_energy>  (7) 
-495.51042911902596

>  <intra_energy>  (7) 
1.0813914824492636

>  <rmsd>  (7) 
5.06804

>  <sdf_rank>  (7) 
0

$$$$

     RDKit          3D

 29 29  0  0  0  0  0  0  0  0999 V2000
   12.3332  -20.5399  -18.8292 C   0  0  0  0  0  0  0  0  0  0  0  0
   10.1310  -21.5964  -19.5789 C   0  0  1  0  0  0  0  0  0  0  0  0
    9.4484  -22.9561  -19.5945 C   0  0  1  0  0  0  0  0  0  0  0  0
    9.2599  -23.4426  -18.1591 C   0  0  2  0  0  0  0  0  0  0  0  0
   12.7622  -24.3712  -17.9417 C   0  0  0  0  0  0  0  0  0  0  0  0
   10.6026  -23.4679  -17.4305 C   0  0  1  0  0  0  0  0  0  0  0  0
   11.4893  -21.7936  -18.9255 C   0  0  2  0  0  0  0  0  0  0  0  0
   11.3453  -24.5245  -17.9819 O   0  0  0  0  0  0  0  0  0  0  0  0
   11.2799  -22.2308  -17.5729 O   0  0  0  0  0  0  0  0  0  0  0  0
   14.0973  -20.7376  -18.9683 S   0  0  2  0  0  0  0  0  0  0  0  0
   14.6103  -20.2626  -17.7176 O   0  0  0  0  0  0  0  0  0  0  0  0
   14.4564  -19.9229  -20.1496 O   0  0  0  0  0  0  0  0  0  0  0  0
   14.3667  -22.2329  -19.0890 O   0  0  0  0  0  0  0  0  0  0  0  0
   10.2691  -21.0912  -20.8905 O   0  0  0  0  0  0  0  0  0  0  0  0
    8.1932  -22.9049  -20.2723 O   0  0  0  0  0  0  0  0  0  0  0  0
    8.6958  -24.7556  -18.1160 O   0  0  0  0  0  0  0  0  0  0  0  0
   12.0114  -19.8611  -19.6328 H   0  0  0  0  0  0  0  0  0  0  0  0
   12.1685  -20.1634  -17.8089 H   0  0  0  0  0  0  0  0  0  0  0  0
    9.5332  -20.8629  -19.0180 H   0  0  0  0  0  0  0  0  0  0  0  0
   10.0887  -23.6622  -20.1435 H   0  0  0  0  0  0  0  0  0  0  0  0
    8.5692  -22.7419  -17.6671 H   0  0  0  0  0  0  0  0  0  0  0  0
   13.0976  -24.3349  -16.8947 H   0  0  0  0  0  0  0  0  0  0  0  0
   13.2378  -25.2231  -18.4497 H   0  0  0  0  0  0  0  0  0  0  0  0
   13.0446  -23.4372  -18.4497 H   0  0  0  0  0  0  0  0  0  0  0  0
   10.4602  -23.6203  -16.3505 H   0  0  0  0  0  0  0  0  0  0  0  0
   12.0222  -22.5159  -19.5613 H   0  0  0  0  0  0  0  0  0  0  0  0
   10.5298  -20.1370  -20.8509 H   0  0  0  0  0  0  0  0  0  0  0  0
    7.4602  -22.8751  -19.6076 H   0  0  0  0  0  0  0  0  0  0  0  0
    8.5767  -25.0328  -17.1731 H   0  0  0  0  0  0  0  0  0  0  0  0
  7  1  1  0
  1 10  1  0
  2  3  1  0
  2  7  1  0
  2 14  1  0
  3  4  1  0
  3 15  1  0
  4  6  1  0
  4 16  1  0
  5  8  1  0
  6  8  1  0
  6  9  1  0
  7  9  1  0
 10 11  2  0
 10 12  2  0
 10 13  1  6
  1 17  1  0
  1 18  1  0
  2 19  1  1
  3 20  1  6
  4 21  1  1
  5 22  1  0
  5 23  1  0
  5 24  1  0
  6 25  1  1
  7 26  1  6
 14 27  1  0
 15 28  1  0
 16 29  1  0
M  CHG  1  13  -1
M  END
>  <filename_input>  (8) 
7YZU_DO7_docked.sdf

>  <pdb_id>  (8) 
7YZU_DO7

>  <pose_rank>  (8) 
7

>  <num_atoms_heavy>  (8) 
16

>  <num_torsions>  (8) 
3

>  <pose>  (8) 
[10.131029229483453, -21.596399931850694, -19.57892385136734, 1.5796304386410387, -5.579707014724495, -2.2486904080733785, -0.5613578916771338, 6.348753367420501, 5.5030542847993615]

>  <energy>  (8) 
-675.1491637237547

>  <inter_energy>  (8) 
-700.0456871976613

>  <intra_energy>  (8) 
31.722978580609734

>  <rmsd>  (8) 
0.700373

>  <sdf_rank>  (8) 
0

$$$$

     RDKit          3D

 29 29  0  0  0  0  0  0  0  0999 V2000
   13.2145  -21.8753  -18.0688 C   0  0  0  0  0  0  0  0  0  0  0  0
   11.0821  -22.1308  -19.4529 C   0  0  1  0  0  0  0  0  0  0  0  0
    9.9881  -23.1564  -19.7106 C   0  0  1  0  0  0  0  0  0  0  0  0
    9.2449  -23.4398  -18.4069 C   0  0  2  0  0  0  0  0  0  0  0  0
   10.3597  -26.2088  -16.7435 C   0  0  0  0  0  0  0  0  0  0  0  0
   10.2277  -23.8885  -17.3267 C   0  0  1  0  0  0  0  0  0  0  0  0
   12.0377  -22.7506  -18.4462 C   0  0  2  0  0  0  0  0  0  0  0  0
   10.6610  -25.1767  -17.6799 O   0  0  0  0  0  0  0  0  0  0  0  0
   11.3168  -22.9866  -17.2260 O   0  0  0  0  0  0  0  0  0  0  0  0
   13.5757  -20.4977  -19.1376 S   0  0  2  0  0  0  0  0  0  0  0  0
   13.9351  -21.0993  -20.3875 O   0  0  0  0  0  0  0  0  0  0  0  0
   14.6682  -19.7826  -18.4426 O   0  0  0  0  0  0  0  0  0  0  0  0
   12.2774  -19.7177  -19.3080 O   0  0  0  0  0  0  0  0  0  0  0  0
   11.7527  -21.8031  -20.6518 O   0  0  0  0  0  0  0  0  0  0  0  0
    9.0783  -22.7111  -20.7164 O   0  0  0  0  0  0  0  0  0  0  0  0
    8.2569  -24.4599  -18.5730 O   0  0  0  0  0  0  0  0  0  0  0  0
   13.0194  -21.4728  -17.0639 H   0  0  0  0  0  0  0  0  0  0  0  0
   14.0936  -22.5321  -18.1439 H   0  0  0  0  0  0  0  0  0  0  0  0
   10.6584  -21.1945  -19.0606 H   0  0  0  0  0  0  0  0  0  0  0  0
   10.4562  -24.0814  -20.0785 H   0  0  0  0  0  0  0  0  0  0  0  0
    8.7460  -22.5061  -18.1082 H   0  0  0  0  0  0  0  0  0  0  0  0
   10.4731  -25.8204  -15.7206 H   0  0  0  0  0  0  0  0  0  0  0  0
    9.3247  -26.5495  -16.8937 H   0  0  0  0  0  0  0  0  0  0  0  0
   11.0490  -27.0528  -16.8937 H   0  0  0  0  0  0  0  0  0  0  0  0
    9.7451  -23.9025  -16.3383 H   0  0  0  0  0  0  0  0  0  0  0  0
   12.4284  -23.6587  -18.9285 H   0  0  0  0  0  0  0  0  0  0  0  0
   12.6214  -21.3787  -20.4387 H   0  0  0  0  0  0  0  0  0  0  0  0
    8.2773  -22.3190  -20.2866 H   0  0  0  0  0  0  0  0  0  0  0  0
    7.9535  -24.7732  -17.6843 H   0  0  0  0  0  0  0  0  0  0  0  0
  7  1  1  0
  1 10  1  0
  2  3  1  0
  2  7  1  0
  2 14  1  0
  3  4  1  0
  3 15  1  0
  4  6  1  0
  4 16  1  0
  5  8  1  0
  6  8  1  0
  6  9  1  0
  7  9  1  0
 10 11  2  0
 10 12  2  0
 10 13  1  6
  1 17  1  0
  1 18  1  0
  2 19  1  1
  3 20  1  6
  4 21  1  1
  5 22  1  0
  5 23  1  0
  5 24  1  0
  6 25  1  1
  7 26  1  6
 14 27  1  0
 15 28  1  0
 16 29  1  0
M  CHG  1  13  -1
M  END
>  <filename_input>  (9) 
7YZU_DO7_docked.sdf

>  <pdb_id>  (9) 
7YZU_DO7

>  <pose_rank>  (9) 
8

>  <num_atoms_heavy>  (9) 
16

>  <num_torsions>  (9) 
3

>  <pose>  (9) 
[11.082092671543673, -22.13076537157449, -19.452896984312765, 0.3804745584926252, 3.2336384656836645, 4.872746780685792, 1.0009982185376964, 2.3375697327880514, 6.461130816559236]

>  <energy>  (9) 
-559.4078468054955

>  <inter_energy>  (9) 
-678.4474234481885

>  <intra_energy>  (9) 
120.6150694505159

>  <rmsd>  (9) 
1.40343

>  <sdf_rank>  (9) 
0

$$$$

     RDKit          3D

 29 29  0  0  0  0  0  0  0  0999 V2000
   13.7634  -22.1802  -18.3829 C   0  0  0  0  0  0  0  0  0  0  0  0
   11.3670  -22.2126  -19.2685 C   0  0  1  0  0  0  0  0  0  0  0  0
   10.1726  -23.1529  -19.3349 C   0  0  1  0  0  0  0  0  0  0  0  0
    9.7146  -23.4878  -17.9171 C   0  0  2  0  0  0  0  0  0  0  0  0
   11.3592  -26.3720  -16.6598 C   0  0  0  0  0  0  0  0  0  0  0  0
   10.8755  -24.0692  -17.1116 C   0  0  1  0  0  0  0  0  0  0  0  0
   12.4730  -22.9573  -18.5386 C   0  0  2  0  0  0  0  0  0  0  0  0
   11.1276  -25.3507  -17.6274 O   0  0  0  0  0  0  0  0  0  0  0  0
   12.0218  -23.2403  -17.2041 O   0  0  0  0  0  0  0  0  0  0  0  0
   13.7050  -20.4346  -18.7291 S   0  0  2  0  0  0  0  0  0  0  0  0
   14.9706  -19.9376  -18.2769 O   0  0  0  0  0  0  0  0  0  0  0  0
   12.5298  -19.9581  -17.9676 O   0  0  0  0  0  0  0  0  0  0  0  0
   13.6167  -20.2866  -20.2435 O   0  0  0  0  0  0  0  0  0  0  0  0
   11.7805  -21.8370  -20.5656 O   0  0  0  0  0  0  0  0  0  0  0  0
    9.0989  -22.5845  -20.0844 O   0  0  0  0  0  0  0  0  0  0  0  0
    8.6439  -24.4353  -17.9177 O   0  0  0  0  0  0  0  0  0  0  0  0
   14.0995  -22.3007  -17.3425 H   0  0  0  0  0  0  0  0  0  0  0  0
   14.4411  -22.5985  -19.1417 H   0  0  0  0  0  0  0  0  0  0  0  0
   11.1076  -21.2848  -18.7374 H   0  0  0  0  0  0  0  0  0  0  0  0
   10.4813  -24.0737  -19.8515 H   0  0  0  0  0  0  0  0  0  0  0  0
    9.3613  -22.5515  -17.4605 H   0  0  0  0  0  0  0  0  0  0  0  0
   11.2631  -25.9483  -15.6492 H   0  0  0  0  0  0  0  0  0  0  0  0
   10.6207  -27.1765  -16.7918 H   0  0  0  0  0  0  0  0  0  0  0  0
   12.3725  -26.7791  -16.7918 H   0  0  0  0  0  0  0  0  0  0  0  0
   10.6212  -24.1277  -16.0430 H   0  0  0  0  0  0  0  0  0  0  0  0
   12.6826  -23.8487  -19.1481 H   0  0  0  0  0  0  0  0  0  0  0  0
   12.5117  -21.1729  -20.4995 H   0  0  0  0  0  0  0  0  0  0  0  0
    8.4176  -22.2238  -19.4633 H   0  0  0  0  0  0  0  0  0  0  0  0
    8.3964  -24.6543  -16.9845 H   0  0  0  0  0  0  0  0  0  0  0  0
  7  1  1  0
  1 10  1  0
  2  3  1  0
  2  7  1  0
  2 14  1  0
  3  4  1  0
  3 15  1  0
  4  6  1  0
  4 16  1  0
  5  8  1  0
  6  8  1  0
  6  9  1  0
  7  9  1  0
 10 11  2  0
 10 12  2  0
 10 13  1  6
  1 17  1  0
  1 18  1  0
  2 19  1  1
  3 20  1  6
  4 21  1  1
  5 22  1  0
  5 23  1  0
  5 24  1  0
  6 25  1  1
  7 26  1  6
 14 27  1  0
 15 28  1  0
 16 29  1  0
M  CHG  1  13  -1
M  END
>  <filename_input>  (10) 
7YZU_DO7_docked.sdf

>  <pdb_id>  (10) 
7YZU_DO7

>  <pose_rank>  (10) 
9

>  <num_atoms_heavy>  (10) 
16

>  <num_torsions>  (10) 
3

>  <pose>  (10) 
[11.366991303324992, -22.212565658014977, -19.268477364735716, 0.12340819518254505, -0.005419836697365702, 5.864597202529801, 0.6877242744500778, -9.711779425379877, -2.020294851462429]

>  <energy>  (10) 
-564.5148672239911

>  <inter_energy>  (10) 
-619.1872925919545

>  <intra_energy>  (10) 
67.12586359115787

>  <rmsd>  (10) 
1.55612

>  <sdf_rank>  (10) 
0

$$$$

     RDKit          3D

 29 29  0  0  0  0  0  0  0  0999 V2000
    9.2721  -23.7660  -18.7514 C   0  0  0  0  0  0  0  0  0  0  0  0
   11.1098  -23.3460  -17.0266 C   0  0  1  0  0  0  0  0  0  0  0  0
   12.6051  -23.0695  -16.9760 C   0  0  1  0  0  0  0  0  0  0  0  0
   12.8999  -21.7550  -17.6954 C   0  0  2  0  0  0  0  0  0  0  0  0
   13.8488  -23.6793  -19.0559 C   0  0  0  0  0  0  0  0  0  0  0  0
   12.3598  -21.8033  -19.1238 C   0  0  1  0  0  0  0  0  0  0  0  0
   10.7357  -23.4738  -18.4945 C   0  0  2  0  0  0  0  0  0  0  0  0
   13.1763  -22.6950  -19.8380 O   0  0  0  0  0  0  0  0  0  0  0  0
   11.0044  -22.2183  -19.1394 O   0  0  0  0  0  0  0  0  0  0  0  0
    8.3981  -22.6455  -19.8242 S   0  0  2  0  0  0  0  0  0  0  0  0
    7.3828  -22.0717  -18.9916 O   0  0  0  0  0  0  0  0  0  0  0  0
    7.9047  -23.5099  -20.9185 O   0  0  0  0  0  0  0  0  0  0  0  0
    9.3882  -21.5611  -20.2325 O   0  0  0  0  0  0  0  0  0  0  0  0
   10.7955  -24.5275  -16.3197 O   0  0  0  0  0  0  0  0  0  0  0  0
   13.0840  -23.0204  -15.6321 O   0  0  0  0  0  0  0  0  0  0  0  0
   14.3030  -21.4858  -17.7501 O   0  0  0  0  0  0  0  0  0  0  0  0
    9.2078  -24.7696  -19.1970 H   0  0  0  0  0  0  0  0  0  0  0  0
    8.7843  -23.6605  -17.7711 H   0  0  0  0  0  0  0  0  0  0  0  0
   10.5433  -22.5318  -16.5510 H   0  0  0  0  0  0  0  0  0  0  0  0
   13.1301  -23.8937  -17.4809 H   0  0  0  0  0  0  0  0  0  0  0  0
   12.4057  -20.9549  -17.1249 H   0  0  0  0  0  0  0  0  0  0  0  0
   13.7009  -23.4628  -17.9877 H   0  0  0  0  0  0  0  0  0  0  0  0
   13.4406  -24.6740  -19.2884 H   0  0  0  0  0  0  0  0  0  0  0  0
   14.9238  -23.6607  -19.2884 H   0  0  0  0  0  0  0  0  0  0  0  0
   12.3834  -20.8055  -19.5862 H   0  0  0  0  0  0  0  0  0  0  0  0
   11.3252  -24.3195  -18.8782 H   0  0  0  0  0  0  0  0  0  0  0  0
   10.8422  -24.3520  -15.3465 H   0  0  0  0  0  0  0  0  0  0  0  0
   12.3206  -23.0986  -15.0067 H   0  0  0  0  0  0  0  0  0  0  0  0
   14.6619  -21.4169  -16.8300 H   0  0  0  0  0  0  0  0  0  0  0  0
  7  1  1  0
  1 10  1  0
  2  3  1  0
  2  7  1  0
  2 14  1  0
  3  4  1  0
  3 15  1  0
  4  6  1  0
  4 16  1  0
  5  8  1  0
  6  8  1  0
  6  9  1  0
  7  9  1  0
 10 11  2  0
 10 12  2  0
 10 13  1  6
  1 17  1  0
  1 18  1  0
  2 19  1  1
  3 20  1  6
  4 21  1  1
  5 22  1  0
  5 23  1  0
  5 24  1  0
  6 25  1  6
  7 26  1  6
 14 27  1  0
 15 28  1  0
 16 29  1  0
M  CHG  1  13  -1
M  END
>  <filename_input>  (11) 
7YZU_DO7_docked.sdf

>  <pdb_id>  (11) 
7YZU_DO7

>  <pose_rank>  (11) 
10

>  <num_atoms_heavy>  (11) 
16

>  <num_torsions>  (11) 
3

>  <pose>  (11) 
[11.109779625191692, -23.345979866883347, -17.0266458352216, 5.354031827209754, -6.941593530853159, -4.471706974376997, 3.50518663643627, 4.800297985100188, 5.530110576853579]

>  <energy>  (11) 
-304.4974685402229

>  <inter_energy>  (11) 
-452.3042886212391

>  <intra_energy>  (11) 
156.5778332661215

>  <rmsd>  (11) 
4.93855

>  <sdf_rank>  (11) 
0

$$$$

     RDKit          3D

 29 29  0  0  0  0  0  0  0  0999 V2000
   12.3398  -12.5485  -25.5861 C   0  0  0  0  0  0  0  0  0  0  0  0
   14.8691  -12.8682  -25.4175 C   0  0  1  0  0  0  0  0  0  0  0  0
   15.9181  -13.9390  -25.6783 C   0  0  1  0  0  0  0  0  0  0  0  0
   15.9133  -14.2992  -27.1624 C   0  0  2  0  0  0  0  0  0  0  0  0
   13.5311  -16.9066  -27.8033 C   0  0  0  0  0  0  0  0  0  0  0  0
   14.5133  -14.7309  -27.5955 C   0  0  1  0  0  0  0  0  0  0  0  0
   13.5241  -13.4698  -25.7912 C   0  0  2  0  0  0  0  0  0  0  0  0
   14.2739  -15.9843  -27.0093 O   0  0  0  0  0  0  0  0  0  0  0  0
   13.5425  -13.7790  -27.1942 O   0  0  0  0  0  0  0  0  0  0  0  0
   10.7695  -13.3123  -25.2380 S   0  0  2  0  0  0  0  0  0  0  0  0
    9.9166  -12.2230  -24.8651 O   0  0  0  0  0  0  0  0  0  0  0  0
   11.0724  -14.2767  -24.1580 O   0  0  0  0  0  0  0  0  0  0  0  0
   10.2725  -13.9176  -26.5455 O   0  0  0  0  0  0  0  0  0  0  0  0
   14.8866  -12.4706  -24.0624 O   0  0  0  0  0  0  0  0  0  0  0  0
   17.2178  -13.5093  -25.2738 O   0  0  0  0  0  0  0  0  0  0  0  0
   16.8251  -15.3620  -27.4510 O   0  0  0  0  0  0  0  0  0  0  0  0
   12.5792  -11.8837  -24.7430 H   0  0  0  0  0  0  0  0  0  0  0  0
   12.2021  -12.0421  -26.5528 H   0  0  0  0  0  0  0  0  0  0  0  0
   15.0708  -11.9668  -26.0149 H   0  0  0  0  0  0  0  0  0  0  0  0
   15.6662  -14.8276  -25.0808 H   0  0  0  0  0  0  0  0  0  0  0  0
   16.2265  -13.4013  -27.7152 H   0  0  0  0  0  0  0  0  0  0  0  0
   12.9777  -17.5935  -27.1461 H   0  0  0  0  0  0  0  0  0  0  0  0
   12.8217  -16.3554  -28.4382 H   0  0  0  0  0  0  0  0  0  0  0  0
   14.2206  -17.4822  -28.4382 H   0  0  0  0  0  0  0  0  0  0  0  0
   14.4451  -14.7994  -28.6913 H   0  0  0  0  0  0  0  0  0  0  0  0
   13.3962  -14.3420  -25.1332 H   0  0  0  0  0  0  0  0  0  0  0  0
   14.8513  -13.2725  -23.4828 H   0  0  0  0  0  0  0  0  0  0  0  0
   17.2672  -13.4930  -24.2851 H   0  0  0  0  0  0  0  0  0  0  0  0
   17.1583  -15.7503  -26.6035 H   0  0  0  0  0  0  0  0  0  0  0  0
  7  1  1  0
  1 10  1  0
  2  3  1  0
  2  7  1  0
  2 14  1  0
  3  4  1  0
  3 15  1  0
  4  6  1  0
  4 16  1  0
  5  8  1  0
  6  8  1  0
  6  9  1  0
  7  9  1  0
 10 11  2  0
 10 12  2  0
 10 13  1  6
  1 17  1  0
  1 18  1  0
  2 19  1  6
  3 20  1  1
  4 21  1  6
  5 22  1  0
  5 23  1  0
  5 24  1  0
  6 25  1  6
  7 26  1  1
 14 27  1  0
 15 28  1  0
 16 29  1  0
M  CHG  1  13  -1
M  END
>  <filename_input>  (12) 
7YZU_DO7_docked.sdf

>  <pdb_id>  (12) 
7YZU_DO7

>  <pose_rank>  (12) 
11

>  <num_atoms_heavy>  (12) 
16

>  <num_torsions>  (12) 
3

>  <pose>  (12) 
[14.869111793317915, -12.868160749882689, -25.417456620364696, 0.42656683792296424, -2.825901322320061, -0.09956703180365856, 0.5713575073878213, -0.021198928444997833, -2.0189119775038624]

>  <energy>  (12) 
-195.75986580088565

>  <inter_energy>  (12) 
-173.14660776560584

>  <intra_energy>  (12) 
0.12045888315029255

>  <rmsd>  (12) 
12.3202

>  <sdf_rank>  (12) 
0

$$$$

     RDKit          3D

 29 29  0  0  0  0  0  0  0  0999 V2000
   12.0947  -20.5778  -18.4700 C   0  0  0  0  0  0  0  0  0  0  0  0
    9.9697  -21.6129  -19.4400 C   0  0  1  0  0  0  0  0  0  0  0  0
    9.3333  -22.9822  -19.6273 C   0  0  1  0  0  0  0  0  0  0  0  0
    9.0866  -23.6154  -18.2596 C   0  0  2  0  0  0  0  0  0  0  0  0
   11.6323  -25.7126  -17.2293 C   0  0  0  0  0  0  0  0  0  0  0  0
   10.3898  -23.6774  -17.4646 C   0  0  1  0  0  0  0  0  0  0  0  0
   11.2980  -21.8379  -18.7359 C   0  0  2  0  0  0  0  0  0  0  0  0
   11.1940  -24.6527  -18.0763 O   0  0  0  0  0  0  0  0  0  0  0  0
   11.0332  -22.4143  -17.4467 O   0  0  0  0  0  0  0  0  0  0  0  0
   13.8691  -20.7255  -18.4707 S   0  0  2  0  0  0  0  0  0  0  0  0
   14.3406  -19.3737  -18.4100 O   0  0  0  0  0  0  0  0  0  0  0  0
   14.1678  -21.4436  -19.7289 O   0  0  0  0  0  0  0  0  0  0  0  0
   14.2531  -21.4518  -17.1869 O   0  0  0  0  0  0  0  0  0  0  0  0
   10.1591  -20.9750  -20.6856 O   0  0  0  0  0  0  0  0  0  0  0  0
    8.1139  -22.8972  -20.3645 O   0  0  0  0  0  0  0  0  0  0  0  0
    8.5639  -24.9409  -18.3775 O   0  0  0  0  0  0  0  0  0  0  0  0
   11.8228  -19.8444  -19.2434 H   0  0  0  0  0  0  0  0  0  0  0  0
   11.8335  -20.2874  -17.4416 H   0  0  0  0  0  0  0  0  0  0  0  0
    9.3201  -20.9560  -18.8429 H   0  0  0  0  0  0  0  0  0  0  0  0
   10.0238  -23.6119  -20.2076 H   0  0  0  0  0  0  0  0  0  0  0  0
    8.3490  -22.9867  -17.7393 H   0  0  0  0  0  0  0  0  0  0  0  0
   11.5096  -25.4160  -16.1772 H   0  0  0  0  0  0  0  0  0  0  0  0
   11.0327  -26.6131  -17.4287 H   0  0  0  0  0  0  0  0  0  0  0  0
   12.6927  -25.9266  -17.4287 H   0  0  0  0  0  0  0  0  0  0  0  0
   10.1967  -23.9414  -16.4144 H   0  0  0  0  0  0  0  0  0  0  0  0
   11.8863  -22.4780  -19.4099 H   0  0  0  0  0  0  0  0  0  0  0  0
   10.4376  -20.0367  -20.5369 H   0  0  0  0  0  0  0  0  0  0  0  0
    7.3511  -22.8441  -19.7356 H   0  0  0  0  0  0  0  0  0  0  0  0
    8.4150  -25.3185  -17.4745 H   0  0  0  0  0  0  0  0  0  0  0  0
  7  1  1  0
  1 10  1  0
  2  3  1  0
  2  7  1  0
  2 14  1  0
  3  4  1  0
  3 15  1  0
  4  6  1  0
  4 16  1  0
  5  8  1  0
  6  8  1  0
  6  9  1  0
  7  9  1  0
 10 11  2  0
 10 12  2  0
 10 13  1  1
  1 17  1  0
  1 18  1  0
  2 19  1  1
  3 20  1  6
  4 21  1  1
  5 22  1  0
  5 23  1  0
  5 24  1  0
  6 25  1  1
  7 26  1  6
 14 27  1  0
 15 28  1  0
 16 29  1  0
M  CHG  1  13  -1
M  END
>  <filename_input>  (13) 
7YZU_DO7_docked.sdf

>  <pdb_id>  (13) 
7YZU_DO7

>  <pose_rank>  (13) 
12

>  <num_atoms_heavy>  (13) 
16

>  <num_torsions>  (13) 
3

>  <pose>  (13) 
[9.969736807449982, -21.61294629416221, -19.43998552614834, -20.792220389089465, -0.5266917839943354, -13.9316200141242, 0.9190954366612488, 0.026578437585653918, 10.563810296997524]

>  <energy>  (13) 
-729.9800375854519

>  <inter_energy>  (13) 
-729.854482208385

>  <intra_energy>  (13) 
1.6705878720658238

>  <rmsd>  (13) 
0.455271

>  <sdf_rank>  (13) 
0

$$$$

     RDKit          3D

 29 29  0  0  0  0  0  0  0  0999 V2000
   15.3836  -31.9911  -24.2651 C   0  0  0  0  0  0  0  0  0  0  0  0
   13.0649  -31.7305  -23.2241 C   0  0  1  0  0  0  0  0  0  0  0  0
   11.7783  -30.9503  -23.4500 C   0  0  1  0  0  0  0  0  0  0  0  0
   11.1897  -31.3297  -24.8072 C   0  0  2  0  0  0  0  0  0  0  0  0
   12.7283  -29.2508  -27.3521 C   0  0  0  0  0  0  0  0  0  0  0  0
   12.2192  -31.0968  -25.9118 C   0  0  1  0  0  0  0  0  0  0  0  0
   14.0265  -31.3221  -24.3283 C   0  0  2  0  0  0  0  0  0  0  0  0
   12.3578  -29.7065  -26.0529 O   0  0  0  0  0  0  0  0  0  0  0  0
   13.4563  -31.7092  -25.5890 O   0  0  0  0  0  0  0  0  0  0  0  0
   16.7351  -31.1606  -25.0738 S   0  0  2  0  0  0  0  0  0  0  0  0
   17.8841  -31.9569  -24.7593 O   0  0  0  0  0  0  0  0  0  0  0  0
   16.7253  -29.8039  -24.4843 O   0  0  0  0  0  0  0  0  0  0  0  0
   16.4659  -31.2330  -26.5722 O   0  0  0  0  0  0  0  0  0  0  0  0
   13.6057  -31.4452  -21.9511 O   0  0  0  0  0  0  0  0  0  0  0  0
   10.8299  -31.1910  -22.4106 O   0  0  0  0  0  0  0  0  0  0  0  0
   10.0204  -30.5643  -25.1086 O   0  0  0  0  0  0  0  0  0  0  0  0
   15.6498  -32.1011  -23.2035 H   0  0  0  0  0  0  0  0  0  0  0  0
   15.2609  -32.9364  -24.8140 H   0  0  0  0  0  0  0  0  0  0  0  0
   12.8777  -32.8141  -23.2534 H   0  0  0  0  0  0  0  0  0  0  0  0
   12.0142  -29.8760  -23.4360 H   0  0  0  0  0  0  0  0  0  0  0  0
   10.9155  -32.3937  -24.7560 H   0  0  0  0  0  0  0  0  0  0  0  0
   13.4197  -28.4003  -27.2590 H   0  0  0  0  0  0  0  0  0  0  0  0
   13.2224  -30.0668  -27.8998 H   0  0  0  0  0  0  0  0  0  0  0  0
   11.8286  -28.9337  -27.8998 H   0  0  0  0  0  0  0  0  0  0  0  0
   11.8880  -31.5484  -26.8586 H   0  0  0  0  0  0  0  0  0  0  0  0
   14.1739  -30.2387  -24.2075 H   0  0  0  0  0  0  0  0  0  0  0  0
   12.9879  -31.7712  -21.2495 H   0  0  0  0  0  0  0  0  0  0  0  0
   11.2694  -31.0795  -21.5306 H   0  0  0  0  0  0  0  0  0  0  0  0
    9.5858  -30.2799  -24.2657 H   0  0  0  0  0  0  0  0  0  0  0  0
  7  1  1  0
  1 10  1  0
  2  3  1  0
  2  7  1  0
  2 14  1  0
  3  4  1  0
  3 15  1  0
  4  6  1  0
  4 16  1  0
  5  8  1  0
  6  8  1  0
  6  9  1  0
  7  9  1  0
 10 11  2  0
 10 12  2  0
 10 13  1  6
  1 17  1  0
  1 18  1  0
  2 19  1  1
  3 20  1  6
  4 21  1  1
  5 22  1  0
  5 23  1  0
  5 24  1  0
  6 25  1  6
  7 26  1  6
 14 27  1  0
 15 28  1  0
 16 29  1  0
M  CHG  1  13  -1
M  END
>  <filename_input>  (14) 
7YZU_DO7_docked.sdf

>  <pdb_id>  (14) 
7YZU_DO7

>  <pose_rank>  (14) 
13

>  <num_atoms_heavy>  (14) 
16

>  <num_torsions>  (14) 
3

>  <pose>  (14) 
[13.064882135269585, -31.73053285626239, -23.224134003703234, 2.5938838730359173, 0.685217206267095, -0.2570132531940745, 0.43247939882718317, -0.11657371610871367, -1.9252574722532312]

>  <energy>  (14) 
-170.98582712548705

>  <inter_energy>  (14) 
-156.9466246015356

>  <intra_energy>  (14) 
1.1794893152903911

>  <rmsd>  (14) 
11.3157

>  <sdf_rank>  (14) 
0

$$$$

     RDKit          3D

 29 29  0  0  0  0  0  0  0  0999 V2000
   14.9550  -32.2018  -24.4955 C   0  0  0  0  0  0  0  0  0  0  0  0
   12.4169  -31.9840  -24.6924 C   0  0  1  0  0  0  0  0  0  0  0  0
   11.3825  -31.2297  -25.5147 C   0  0  1  0  0  0  0  0  0  0  0  0
   11.5206  -31.6238  -26.9837 C   0  0  2  0  0  0  0  0  0  0  0  0
   13.8591  -29.5059  -28.6584 C   0  0  0  0  0  0  0  0  0  0  0  0
   12.9491  -31.3735  -27.4645 C   0  0  1  0  0  0  0  0  0  0  0  0
   13.7827  -31.5596  -25.2074 C   0  0  2  0  0  0  0  0  0  0  0  0
   13.1159  -29.9812  -27.5382 O   0  0  0  0  0  0  0  0  0  0  0  0
   13.8909  -31.9609  -26.5827 O   0  0  0  0  0  0  0  0  0  0  0  0
   16.0677  -31.1177  -23.6255 S   0  0  2  0  0  0  0  0  0  0  0  0
   15.6773  -29.8011  -24.0346 O   0  0  0  0  0  0  0  0  0  0  0  0
   17.4099  -31.5475  -24.0747 O   0  0  0  0  0  0  0  0  0  0  0  0
   15.7807  -31.2899  -22.1386 O   0  0  0  0  0  0  0  0  0  0  0  0
   12.2786  -31.6851  -23.3191 O   0  0  0  0  0  0  0  0  0  0  0  0
   10.0566  -31.4862  -25.0523 O   0  0  0  0  0  0  0  0  0  0  0  0
   10.6255  -30.8821  -27.8161 O   0  0  0  0  0  0  0  0  0  0  0  0
   14.5480  -32.9155  -23.7641 H   0  0  0  0  0  0  0  0  0  0  0  0
   15.5622  -32.6512  -25.2951 H   0  0  0  0  0  0  0  0  0  0  0  0
   12.2838  -33.0711  -24.7952 H   0  0  0  0  0  0  0  0  0  0  0  0
   11.5658  -30.1509  -25.4020 H   0  0  0  0  0  0  0  0  0  0  0  0
   11.2723  -32.6928  -27.0576 H   0  0  0  0  0  0  0  0  0  0  0  0
   14.7367  -28.9448  -28.3048 H   0  0  0  0  0  0  0  0  0  0  0  0
   14.1909  -30.3599  -29.2672 H   0  0  0  0  0  0  0  0  0  0  0  0
   13.2231  -28.8465  -29.2672 H   0  0  0  0  0  0  0  0  0  0  0  0
   13.1180  -31.8338  -28.4492 H   0  0  0  0  0  0  0  0  0  0  0  0
   13.8370  -30.4733  -25.0432 H   0  0  0  0  0  0  0  0  0  0  0  0
   12.6274  -32.4391  -22.7805 H   0  0  0  0  0  0  0  0  0  0  0  0
   10.0469  -31.4881  -24.0623 H   0  0  0  0  0  0  0  0  0  0  0  0
   10.0005  -30.3642  -27.2493 H   0  0  0  0  0  0  0  0  0  0  0  0
  7  1  1  0
  1 10  1  0
  2  3  1  0
  2  7  1  0
  2 14  1  0
  3  4  1  0
  3 15  1  0
  4  6  1  0
  4 16  1  0
  5  8  1  0
  6  8  1  0
  6  9  1  0
  7  9  1  0
 10 11  2  0
 10 12  2  0
 10 13  1  1
  1 17  1  0
  1 18  1  0
  2 19  1  1
  3 20  1  6
  4 21  1  1
  5 22  1  0
  5 23  1  0
  5 24  1  0
  6 25  1  6
  7 26  1  6
 14 27  1  0
 15 28  1  0
 16 29  1  0
M  CHG  1  13  -1
M  END
>  <filename_input>  (15) 
7YZU_DO7_docked.sdf

>  <pdb_id>  (15) 
7YZU_DO7

>  <pose_rank>  (15) 
14

>  <num_atoms_heavy>  (15) 
16

>  <num_torsions>  (15) 
3

>  <pose>  (15) 
[12.41688898734686, -31.984040768486036, -24.69242225154635, 2.492022661838102, 0.5199928247888744, 0.382088470072144, 0.6257118061262635, 0.5714959055951179, 1.1150561289453447]

>  <energy>  (15) 
-170.5596926206558

>  <inter_energy>  (15) 
-163.88985357524186

>  <intra_energy>  (15) 
0.0

>  <rmsd>  (15) 
11.8174

>  <sdf_rank>  (15) 
0

$$$$

     RDKit          3D

 29 29  0  0  0  0  0  0  0  0999 V2000
    3.1606  -16.1204  -24.4839 C   0  0  0  0  0  0  0  0  0  0  0  0
    2.2342  -18.3997  -23.7951 C   0  0  1  0  0  0  0  0  0  0  0  0
    1.5965  -19.6270  -24.4291 C   0  0  1  0  0  0  0  0  0  0  0  0
    2.5833  -20.2595  -25.4082 C   0  0  2  0  0  0  0  0  0  0  0  0
    2.2233  -18.3318  -28.5131 C   0  0  0  0  0  0  0  0  0  0  0  0
    3.0317  -19.2295  -26.4438 C   0  0  1  0  0  0  0  0  0  0  0  0
    2.5281  -17.4242  -24.9233 C   0  0  2  0  0  0  0  0  0  0  0  0
    1.9310  -18.9891  -27.2821 O   0  0  0  0  0  0  0  0  0  0  0  0
    3.4726  -18.0378  -25.8154 O   0  0  0  0  0  0  0  0  0  0  0  0
    2.1989  -14.6382  -24.7042 S   0  0  2  0  0  0  0  0  0  0  0  0
    3.1055  -13.5736  -24.3914 O   0  0  0  0  0  0  0  0  0  0  0  0
    1.0682  -14.8026  -23.7647 O   0  0  0  0  0  0  0  0  0  0  0  0
    1.8275  -14.5672  -26.1808 O   0  0  0  0  0  0  0  0  0  0  0  0
    1.3679  -17.8229  -22.8404 O   0  0  0  0  0  0  0  0  0  0  0  0
    1.1943  -20.5775  -23.4430 O   0  0  0  0  0  0  0  0  0  0  0  0
    2.0057  -21.3720  -26.0958 O   0  0  0  0  0  0  0  0  0  0  0  0
    3.3923  -16.2089  -23.4123 H   0  0  0  0  0  0  0  0  0  0  0  0
    4.0347  -15.9927  -25.1395 H   0  0  0  0  0  0  0  0  0  0  0  0
    3.1588  -18.6678  -23.2629 H   0  0  0  0  0  0  0  0  0  0  0  0
    0.6911  -19.3112  -24.9682 H   0  0  0  0  0  0  0  0  0  0  0  0
    3.4433  -20.6119  -24.8199 H   0  0  0  0  0  0  0  0  0  0  0  0
    2.6624  -17.3446  -28.3065 H   0  0  0  0  0  0  0  0  0  0  0  0
    2.9372  -18.9369  -29.0913 H   0  0  0  0  0  0  0  0  0  0  0  0
    1.2959  -18.2069  -29.0913 H   0  0  0  0  0  0  0  0  0  0  0  0
    3.8848  -19.6056  -27.0275 H   0  0  0  0  0  0  0  0  0  0  0  0
    1.5533  -17.1946  -25.3783 H   0  0  0  0  0  0  0  0  0  0  0  0
    1.6907  -18.0378  -21.9295 H   0  0  0  0  0  0  0  0  0  0  0  0
    1.3526  -20.2034  -22.5402 H   0  0  0  0  0  0  0  0  0  0  0  0
    1.6655  -22.0271  -25.4362 H   0  0  0  0  0  0  0  0  0  0  0  0
  7  1  1  0
  1 10  1  0
  2  3  1  0
  2  7  1  0
  2 14  1  0
  3  4  1  0
  3 15  1  0
  4  6  1  0
  4 16  1  0
  5  8  1  0
  6  8  1  0
  6  9  1  0
  7  9  1  0
 10 11  2  0
 10 12  2  0
 10 13  1  6
  1 17  1  0
  1 18  1  0
  2 19  1  1
  3 20  1  6
  4 21  1  1
  5 22  1  0
  5 23  1  0
  5 24  1  0
  6 25  1  6
  7 26  1  6
 14 27  1  0
 15 28  1  0
 16 29  1  0
M  CHG  1  13  -1
M  END
>  <filename_input>  (16) 
7YZU_DO7_docked.sdf

>  <pdb_id>  (16) 
7YZU_DO7

>  <pose_rank>  (16) 
15

>  <num_atoms_heavy>  (16) 
16

>  <num_torsions>  (16) 
3

>  <pose>  (16) 
[2.2342183297085327, -18.399654357320777, -23.79507201968994, -2.1612758296104717, -3.2937855385262216, -0.9681765883969788, 0.20580427899751474, 0.6326189866811794, -1.7070579748575876]

>  <energy>  (16) 
-123.25988992123065

>  <inter_energy>  (16) 
-125.77499490759224

>  <intra_energy>  (16) 
1.7647289061846962

>  <rmsd>  (16) 
12.2602

>  <sdf_rank>  (16) 
0

$$$$

     RDKit          3D

 29 29  0  0  0  0  0  0  0  0999 V2000
   17.9789  -29.2882  -24.8718 C   0  0  0  0  0  0  0  0  0  0  0  0
   15.8878  -30.4036  -25.8264 C   0  0  1  0  0  0  0  0  0  0  0  0
   14.8840  -31.4853  -25.4556 C   0  0  1  0  0  0  0  0  0  0  0  0
   14.1542  -31.0794  -24.1769 C   0  0  2  0  0  0  0  0  0  0  0  0
   16.2438  -32.1090  -21.3679 C   0  0  0  0  0  0  0  0  0  0  0  0
   15.1602  -30.8043  -23.0605 C   0  0  1  0  0  0  0  0  0  0  0  0
   16.8815  -30.3138  -24.6795 C   0  0  2  0  0  0  0  0  0  0  0  0
   15.7008  -32.0446  -22.6847 O   0  0  0  0  0  0  0  0  0  0  0  0
   16.1707  -29.9113  -23.4974 O   0  0  0  0  0  0  0  0  0  0  0  0
   19.4612  -29.4968  -23.9076 S   0  0  2  0  0  0  0  0  0  0  0  0
   19.3232  -28.5601  -22.8321 O   0  0  0  0  0  0  0  0  0  0  0  0
   20.5529  -29.2068  -24.8627 O   0  0  0  0  0  0  0  0  0  0  0  0
   19.4297  -30.9146  -23.3490 O   0  0  0  0  0  0  0  0  0  0  0  0
   16.5407  -30.7214  -27.0377 O   0  0  0  0  0  0  0  0  0  0  0  0
   13.9504  -31.7178  -26.5100 O   0  0  0  0  0  0  0  0  0  0  0  0
   13.2547  -32.0994  -23.7356 O   0  0  0  0  0  0  0  0  0  0  0  0
   18.2683  -29.3074  -25.9329 H   0  0  0  0  0  0  0  0  0  0  0  0
   17.5451  -28.3386  -24.5254 H   0  0  0  0  0  0  0  0  0  0  0  0
   15.3852  -29.4375  -25.9812 H   0  0  0  0  0  0  0  0  0  0  0  0
   15.4297  -32.4255  -25.2879 H   0  0  0  0  0  0  0  0  0  0  0  0
   13.5777  -30.1712  -24.4067 H   0  0  0  0  0  0  0  0  0  0  0  0
   15.4323  -32.0128  -20.6315 H   0  0  0  0  0  0  0  0  0  0  0  0
   16.7533  -33.0738  -21.2281 H   0  0  0  0  0  0  0  0  0  0  0  0
   16.9647  -31.2900  -21.2281 H   0  0  0  0  0  0  0  0  0  0  0  0
   14.6710  -30.3218  -22.2015 H   0  0  0  0  0  0  0  0  0  0  0  0
   17.3498  -31.3070  -24.6144 H   0  0  0  0  0  0  0  0  0  0  0  0
   17.4131  -31.1461  -26.8409 H   0  0  0  0  0  0  0  0  0  0  0  0
   13.0655  -31.9383  -26.1247 H   0  0  0  0  0  0  0  0  0  0  0  0
   13.2377  -32.1187  -22.7459 H   0  0  0  0  0  0  0  0  0  0  0  0
  7  1  1  0
  1 10  1  0
  2  3  1  0
  2  7  1  0
  2 14  1  0
  3  4  1  0
  3 15  1  0
  4  6  1  0
  4 16  1  0
  5  8  1  0
  6  8  1  0
  6  9  1  0
  7  9  1  0
 10 11  2  0
 10 12  2  0
 10 13  1  1
  1 17  1  0
  1 18  1  0
  2 19  1  6
  3 20  1  1
  4 21  1  6
  5 22  1  0
  5 23  1  0
  5 24  1  0
  6 25  1  1
  7 26  1  1
 14 27  1  0
 15 28  1  0
 16 29  1  0
M  CHG  1  13  -1
M  END
>  <filename_input>  (17) 
7YZU_DO7_docked.sdf

>  <pdb_id>  (17) 
7YZU_DO7

>  <pose_rank>  (17) 
16

>  <num_atoms_heavy>  (17) 
16

>  <num_torsions>  (17) 
3

>  <pose>  (17) 
[15.88784656108519, -30.40359487092523, -25.826402649767186, 4.717507969034848, 2.563582984855722, 1.5883895501274956, 0.3401007018483956, 6.132152940973325, -0.4681917503409102]

>  <energy>  (17) 
-153.75799319462675

>  <inter_energy>  (17) 
-134.47458873340653

>  <intra_energy>  (17) 
0.0

>  <rmsd>  (17) 
11.4765

>  <sdf_rank>  (17) 
0

$$$$

     RDKit          3D

 29 29  0  0  0  0  0  0  0  0999 V2000
   15.0839  -14.6074  -24.9795 C   0  0  0  0  0  0  0  0  0  0  0  0
   13.0272  -13.4400  -24.0123 C   0  0  1  0  0  0  0  0  0  0  0  0
   11.7473  -12.7704  -24.4905 C   0  0  1  0  0  0  0  0  0  0  0  0
   10.8895  -13.7933  -25.2323 C   0  0  2  0  0  0  0  0  0  0  0  0
   12.2493  -13.8885  -28.6427 C   0  0  0  0  0  0  0  0  0  0  0  0
   11.6866  -14.4201  -26.3751 C   0  0  1  0  0  0  0  0  0  0  0  0
   13.7636  -13.9181  -25.2533 C   0  0  2  0  0  0  0  0  0  0  0  0
   11.8394  -13.4280  -27.3571 O   0  0  0  0  0  0  0  0  0  0  0  0
   12.9425  -14.8922  -25.9177 O   0  0  0  0  0  0  0  0  0  0  0  0
   16.5275  -13.9415  -25.7813 S   0  0  2  0  0  0  0  0  0  0  0  0
   16.2452  -14.0584  -27.1812 O   0  0  0  0  0  0  0  0  0  0  0  0
   17.6343  -14.7889  -25.2863 O   0  0  0  0  0  0  0  0  0  0  0  0
   16.6029  -12.4669  -25.4032 O   0  0  0  0  0  0  0  0  0  0  0  0
   13.8186  -12.5346  -23.2718 O   0  0  0  0  0  0  0  0  0  0  0  0
   11.0165  -12.2006  -23.4048 O   0  0  0  0  0  0  0  0  0  0  0  0
    9.7090  -13.1976  -25.7762 O   0  0  0  0  0  0  0  0  0  0  0  0
   15.2596  -14.5680  -23.8943 H   0  0  0  0  0  0  0  0  0  0  0  0
   14.9685  -15.6193  -25.3952 H   0  0  0  0  0  0  0  0  0  0  0  0
   12.8029  -14.2847  -23.3444 H   0  0  0  0  0  0  0  0  0  0  0  0
   12.0160  -11.9493  -25.1714 H   0  0  0  0  0  0  0  0  0  0  0  0
   10.5965  -14.5617  -24.5018 H   0  0  0  0  0  0  0  0  0  0  0  0
   12.9765  -14.7054  -28.5248 H   0  0  0  0  0  0  0  0  0  0  0  0
   11.3730  -14.2549  -29.1975 H   0  0  0  0  0  0  0  0  0  0  0  0
   12.7147  -13.0606  -29.1975 H   0  0  0  0  0  0  0  0  0  0  0  0
   11.1597  -15.2927  -26.7886 H   0  0  0  0  0  0  0  0  0  0  0  0
   13.9670  -13.0131  -25.8445 H   0  0  0  0  0  0  0  0  0  0  0  0
   13.6814  -12.6915  -22.3040 H   0  0  0  0  0  0  0  0  0  0  0  0
   11.4074  -12.5054  -22.5478 H   0  0  0  0  0  0  0  0  0  0  0  0
    9.1195  -12.9002  -25.0385 H   0  0  0  0  0  0  0  0  0  0  0  0
  7  1  1  0
  1 10  1  0
  2  3  1  0
  2  7  1  0
  2 14  1  0
  3  4  1  0
  3 15  1  0
  4  6  1  0
  4 16  1  0
  5  8  1  0
  6  8  1  0
  6  9  1  0
  7  9  1  0
 10 11  2  0
 10 12  2  0
 10 13  1  1
  1 17  1  0
  1 18  1  0
  2 19  1  1
  3 20  1  6
  4 21  1  1
  5 22  1  0
  5 23  1  0
  5 24  1  0
  6 25  1  6
  7 26  1  6
 14 27  1  0
 15 28  1  0
 16 29  1  0
M  CHG  1  13  -1
M  END
>  <filename_input>  (18) 
7YZU_DO7_docked.sdf

>  <pdb_id>  (18) 
7YZU_DO7

>  <pose_rank>  (18) 
17

>  <num_atoms_heavy>  (18) 
16

>  <num_torsions>  (18) 
3

>  <pose>  (18) 
[13.027215479505491, -13.439995442825417, -24.012343504936474, -3.8702591388979766, -0.846898135891554, 1.2395166865967744, 0.20226678484653582, 0.46092936051260525, 0.23852180221693495]

>  <energy>  (18) 
-153.73230313626289

>  <inter_energy>  (18) 
-142.22526119957945

>  <intra_energy>  (18) 
0.23029016496036955

>  <rmsd>  (18) 
11.6079

>  <sdf_rank>  (18) 
0

$$$$

     RDKit          3D

 29 29  0  0  0  0  0  0  0  0999 V2000
   14.6679  -14.4421  -27.7220 C   0  0  0  0  0  0  0  0  0  0  0  0
   13.6917  -13.6132  -25.5112 C   0  0  1  0  0  0  0  0  0  0  0  0
   12.4799  -12.8498  -24.9975 C   0  0  1  0  0  0  0  0  0  0  0  0
   11.2118  -13.6331  -25.3303 C   0  0  2  0  0  0  0  0  0  0  0  0
   10.0470  -12.7409  -28.6168 C   0  0  0  0  0  0  0  0  0  0  0  0
   11.1401  -13.9069  -26.8316 C   0  0  1  0  0  0  0  0  0  0  0  0
   13.5387  -13.7174  -27.0200 C   0  0  2  0  0  0  0  0  0  0  0  0
   10.8746  -12.6782  -27.4575 O   0  0  0  0  0  0  0  0  0  0  0  0
   12.3508  -14.4751  -27.3016 O   0  0  0  0  0  0  0  0  0  0  0  0
   14.7517  -16.2083  -27.5123 S   0  0  2  0  0  0  0  0  0  0  0  0
   16.1309  -16.5295  -27.7309 O   0  0  0  0  0  0  0  0  0  0  0  0
   13.8115  -16.7338  -28.5262 O   0  0  0  0  0  0  0  0  0  0  0  0
   14.3899  -16.4991  -26.0605 O   0  0  0  0  0  0  0  0  0  0  0  0
   14.8868  -12.9430  -25.1689 O   0  0  0  0  0  0  0  0  0  0  0  0
   12.5658  -12.6140  -23.5923 O   0  0  0  0  0  0  0  0  0  0  0  0
   10.0341  -12.9213  -24.9424 O   0  0  0  0  0  0  0  0  0  0  0  0
   14.5723  -14.2404  -28.7991 H   0  0  0  0  0  0  0  0  0  0  0  0
   15.5868  -14.0562  -27.2566 H   0  0  0  0  0  0  0  0  0  0  0  0
   13.7478  -14.6133  -25.0566 H   0  0  0  0  0  0  0  0  0  0  0  0
   12.4495  -11.8682  -25.4931 H   0  0  0  0  0  0  0  0  0  0  0  0
   11.2576  -14.5782  -24.7693 H   0  0  0  0  0  0  0  0  0  0  0  0
    8.9933  -12.8208  -28.3113 H   0  0  0  0  0  0  0  0  0  0  0  0
   10.1867  -11.8296  -29.2168 H   0  0  0  0  0  0  0  0  0  0  0  0
   10.3225  -13.6208  -29.2168 H   0  0  0  0  0  0  0  0  0  0  0  0
   10.3474  -14.6344  -27.0605 H   0  0  0  0  0  0  0  0  0  0  0  0
   13.5170  -12.6811  -27.3881 H   0  0  0  0  0  0  0  0  0  0  0  0
   14.9687  -12.8970  -24.1834 H   0  0  0  0  0  0  0  0  0  0  0  0
   12.2711  -13.4228  -23.1033 H   0  0  0  0  0  0  0  0  0  0  0  0
    9.9789  -12.8879  -23.9545 H   0  0  0  0  0  0  0  0  0  0  0  0
  7  1  1  0
  1 10  1  0
  2  3  1  0
  2  7  1  0
  2 14  1  0
  3  4  1  0
  3 15  1  0
  4  6  1  0
  4 16  1  0
  5  8  1  0
  6  8  1  0
  6  9  1  0
  7  9  1  0
 10 11  2  0
 10 12  2  0
 10 13  1  1
  1 17  1  0
  1 18  1  0
  2 19  1  1
  3 20  1  6
  4 21  1  1
  5 22  1  0
  5 23  1  0
  5 24  1  0
  6 25  1  1
  7 26  1  6
 14 27  1  0
 15 28  1  0
 16 29  1  0
M  CHG  1  13  -1
M  END
>  <filename_input>  (19) 
7YZU_DO7_docked.sdf

>  <pdb_id>  (19) 
7YZU_DO7

>  <pose_rank>  (19) 
18

>  <num_atoms_heavy>  (19) 
16

>  <num_torsions>  (19) 
3

>  <pose>  (19) 
[13.691688686867009, -13.613177521719072, -25.511168011761804, -2.963657434221025, -1.2293899981524214, 1.8713322691795689, 0.5394672270119133, -2.393194561438437, -1.413285163327749]

>  <energy>  (19) 
-153.12373426344618

>  <inter_energy>  (19) 
-152.94864695602314

>  <intra_energy>  (19) 
18.226995165031145

>  <rmsd>  (19) 
12.0269

>  <sdf_rank>  (19) 
0

$$$$

     RDKit          3D

 29 29  0  0  0  0  0  0  0  0999 V2000
   17.7750  -14.4756  -26.3200 C   0  0  0  0  0  0  0  0  0  0  0  0
   15.9778  -13.1497  -27.5609 C   0  0  1  0  0  0  0  0  0  0  0  0
   14.5537  -13.3272  -28.0666 C   0  0  1  0  0  0  0  0  0  0  0  0
   13.6260  -13.5864  -26.8815 C   0  0  2  0  0  0  0  0  0  0  0  0
   13.5764  -17.1229  -26.1505 C   0  0  0  0  0  0  0  0  0  0  0  0
   14.1187  -14.7901  -26.0798 C   0  0  1  0  0  0  0  0  0  0  0  0
   16.3694  -14.4527  -26.8831 C   0  0  2  0  0  0  0  0  0  0  0  0
   13.8813  -15.9285  -26.8669 O   0  0  0  0  0  0  0  0  0  0  0  0
   15.4941  -14.6590  -25.7625 O   0  0  0  0  0  0  0  0  0  0  0  0
   18.9561  -15.5324  -27.1314 S   0  0  2  0  0  0  0  0  0  0  0  0
   19.6363  -14.6691  -28.0508 O   0  0  0  0  0  0  0  0  0  0  0  0
   18.1252  -16.5877  -27.7512 O   0  0  0  0  0  0  0  0  0  0  0  0
   19.9356  -16.0035  -26.0628 O   0  0  0  0  0  0  0  0  0  0  0  0
   16.8536  -12.8512  -28.6278 O   0  0  0  0  0  0  0  0  0  0  0  0
   14.1134  -12.1872  -28.8043 O   0  0  0  0  0  0  0  0  0  0  0  0
   12.2851  -13.8427  -27.3063 O   0  0  0  0  0  0  0  0  0  0  0  0
   18.1657  -13.4482  -26.3620 H   0  0  0  0  0  0  0  0  0  0  0  0
   17.6693  -14.8915  -25.3071 H   0  0  0  0  0  0  0  0  0  0  0  0
   16.0418  -12.3096  -26.8537 H   0  0  0  0  0  0  0  0  0  0  0  0
   14.5306  -14.1887  -28.7502 H   0  0  0  0  0  0  0  0  0  0  0  0
   13.6350  -12.6801  -26.2581 H   0  0  0  0  0  0  0  0  0  0  0  0
   13.6268  -16.9252  -25.0696 H   0  0  0  0  0  0  0  0  0  0  0  0
   12.5633  -17.4604  -26.4146 H   0  0  0  0  0  0  0  0  0  0  0  0
   14.3037  -17.9047  -26.4146 H   0  0  0  0  0  0  0  0  0  0  0  0
   13.5858  -14.8676  -25.1207 H   0  0  0  0  0  0  0  0  0  0  0  0
   16.3015  -15.2250  -27.6634 H   0  0  0  0  0  0  0  0  0  0  0  0
   17.7257  -12.5539  -28.2655 H   0  0  0  0  0  0  0  0  0  0  0  0
   13.8378  -11.4737  -28.1757 H   0  0  0  0  0  0  0  0  0  0  0  0
   11.7032  -13.9540  -26.5132 H   0  0  0  0  0  0  0  0  0  0  0  0
  7  1  1  0
  1 10  1  0
  2  3  1  0
  2  7  1  0
  2 14  1  0
  3  4  1  0
  3 15  1  0
  4  6  1  0
  4 16  1  0
  5  8  1  0
  6  8  1  0
  6  9  1  0
  7  9  1  0
 10 11  2  0
 10 12  2  0
 10 13  1  1
  1 17  1  0
  1 18  1  0
  2 19  1  1
  3 20  1  6
  4 21  1  1
  5 22  1  0
  5 23  1  0
  5 24  1  0
  6 25  1  1
  7 26  1  6
 14 27  1  0
 15 28  1  0
 16 29  1  0
M  CHG  1  13  -1
M  END
>  <filename_input>  (20) 
7YZU_DO7_docked.sdf

>  <pdb_id>  (20) 
7YZU_DO7

>  <pose_rank>  (20) 
19

>  <num_atoms_heavy>  (20) 
16

>  <num_torsions>  (20) 
3

>  <pose>  (20) 
[15.97775443387835, -13.149684577223262, -27.56089578727539, -1.4008430078658622, 0.9873347030651024, 5.014285985143796, 0.496413671441827, 0.6929020554521858, 2.956740245583311]

>  <energy>  (20) 
-118.14507197041338

>  <inter_energy>  (20) 
-135.01170905422663

>  <intra_energy>  (20) 
0.020946247927522473

>  <rmsd>  (20) 
12.6169

>  <sdf_rank>  (20) 
0

$$$$

     RDKit          3D

 29 29  0  0  0  0  0  0  0  0999 V2000
    9.7292  -21.0042  -19.1561 C   0  0  0  0  0  0  0  0  0  0  0  0
    8.9364  -23.2118  -18.1432 C   0  0  1  0  0  0  0  0  0  0  0  0
    9.5052  -24.5564  -17.7147 C   0  0  1  0  0  0  0  0  0  0  0  0
   10.5211  -24.3409  -16.5950 C   0  0  2  0  0  0  0  0  0  0  0  0
   13.6490  -23.4386  -18.2933 C   0  0  0  0  0  0  0  0  0  0  0  0
   11.6040  -23.3624  -17.0470 C   0  0  1  0  0  0  0  0  0  0  0  0
   10.1021  -22.3873  -18.6649 C   0  0  2  0  0  0  0  0  0  0  0  0
   12.3865  -24.0331  -18.0007 O   0  0  0  0  0  0  0  0  0  0  0  0
   11.0293  -22.1841  -17.5863 O   0  0  0  0  0  0  0  0  0  0  0  0
   10.8575  -19.6791  -18.7801 S   0  0  2  0  0  0  0  0  0  0  0  0
   10.5781  -19.3479  -17.4143 O   0  0  0  0  0  0  0  0  0  0  0  0
   10.5192  -18.6305  -19.7671 O   0  0  0  0  0  0  0  0  0  0  0  0
   12.2652  -20.2544  -18.8820 O   0  0  0  0  0  0  0  0  0  0  0  0
    7.9501  -23.3808  -19.1397 O   0  0  0  0  0  0  0  0  0  0  0  0
    8.4761  -25.4494  -17.2889 O   0  0  0  0  0  0  0  0  0  0  0  0
   11.1494  -25.5657  -16.2087 O   0  0  0  0  0  0  0  0  0  0  0  0
    9.6318  -21.0562  -20.2505 H   0  0  0  0  0  0  0  0  0  0  0  0
    8.8034  -20.7511  -18.6186 H   0  0  0  0  0  0  0  0  0  0  0  0
    8.4492  -22.7039  -17.2978 H   0  0  0  0  0  0  0  0  0  0  0  0
   10.0015  -25.0178  -18.5812 H   0  0  0  0  0  0  0  0  0  0  0  0
    9.9722  -23.9347  -15.7326 H   0  0  0  0  0  0  0  0  0  0  0  0
   14.1662  -23.1950  -17.3535 H   0  0  0  0  0  0  0  0  0  0  0  0
   14.2601  -24.1435  -18.8761 H   0  0  0  0  0  0  0  0  0  0  0  0
   13.4947  -22.5184  -18.8761 H   0  0  0  0  0  0  0  0  0  0  0  0
   12.2241  -23.0430  -16.1964 H   0  0  0  0  0  0  0  0  0  0  0  0
   10.5086  -22.9537  -19.5157 H   0  0  0  0  0  0  0  0  0  0  0  0
    7.0704  -23.5315  -18.7112 H   0  0  0  0  0  0  0  0  0  0  0  0
    8.4484  -25.4733  -16.2996 H   0  0  0  0  0  0  0  0  0  0  0  0
   11.1793  -25.6240  -15.2208 H   0  0  0  0  0  0  0  0  0  0  0  0
  7  1  1  0
  1 10  1  0
  2  3  1  0
  2  7  1  0
  2 14  1  0
  3  4  1  0
  3 15  1  0
  4  6  1  0
  4 16  1  0
  5  8  1  0
  6  8  1  0
  6  9  1  0
  7  9  1  0
 10 11  2  0
 10 12  2  0
 10 13  1  1
  1 17  1  0
  1 18  1  0
  2 19  1  1
  3 20  1  6
  4 21  1  1
  5 22  1  0
  5 23  1  0
  5 24  1  0
  6 25  1  1
  7 26  1  6
 14 27  1  0
 15 28  1  0
 16 29  1  0
M  CHG  1  13  -1
M  END
>  <filename_input>  (21) 
7YZU_DO7_docked.sdf

>  <pdb_id>  (21) 
7YZU_DO7

>  <pose_rank>  (21) 
20

>  <num_atoms_heavy>  (21) 
16

>  <num_torsions>  (21) 
3

>  <pose>  (21) 
[8.93639645783872, -23.21179588065811, -18.143166132693768, -5.073254411092302, 14.417015439116547, 12.891214803333613, 0.2092927163959084, 5.082885047544215, -0.08584541177406041]

>  <energy>  (21) 
-484.5641114715824

>  <inter_energy>  (21) 
-514.681972520198

>  <intra_energy>  (21) 
26.261929281602576

>  <rmsd>  (21) 
2.83985

>  <sdf_rank>  (21) 
0

$$$$

     RDKit          3D

 29 29  0  0  0  0  0  0  0  0999 V2000
    5.1534  -30.0771  -26.4792 C   0  0  0  0  0  0  0  0  0  0  0  0
    4.3197  -28.4163  -24.7258 C   0  0  1  0  0  0  0  0  0  0  0  0
    3.1557  -28.2414  -23.7616 C   0  0  1  0  0  0  0  0  0  0  0  0
    3.1561  -29.3911  -22.7563 C   0  0  2  0  0  0  0  0  0  0  0  0
    1.2148  -32.1313  -23.8979 C   0  0  0  0  0  0  0  0  0  0  0  0
    3.1159  -30.7315  -23.4884 C   0  0  1  0  0  0  0  0  0  0  0  0
    4.0930  -29.7306  -25.4551 C   0  0  2  0  0  0  0  0  0  0  0  0
    1.8318  -30.8541  -24.0433 O   0  0  0  0  0  0  0  0  0  0  0  0
    4.1189  -30.7932  -24.4883 O   0  0  0  0  0  0  0  0  0  0  0  0
    4.6831  -29.9899  -28.1943 S   0  0  2  0  0  0  0  0  0  0  0  0
    5.3376  -31.1103  -28.8022 O   0  0  0  0  0  0  0  0  0  0  0  0
    5.1667  -28.6618  -28.6306 O   0  0  0  0  0  0  0  0  0  0  0  0
    3.1740  -30.1960  -28.2502 O   0  0  0  0  0  0  0  0  0  0  0  0
    4.3821  -27.3374  -25.6350 O   0  0  0  0  0  0  0  0  0  0  0  0
    3.2201  -26.9867  -23.0840 O   0  0  0  0  0  0  0  0  0  0  0  0
    2.0329  -29.3222  -21.8745 O   0  0  0  0  0  0  0  0  0  0  0  0
    5.9959  -29.3856  -26.3310 H   0  0  0  0  0  0  0  0  0  0  0  0
    5.3856  -31.1375  -26.3011 H   0  0  0  0  0  0  0  0  0  0  0  0
    5.2780  -28.4319  -24.1861 H   0  0  0  0  0  0  0  0  0  0  0  0
    2.2192  -28.2545  -24.3386 H   0  0  0  0  0  0  0  0  0  0  0  0
    4.0793  -29.3043  -22.1646 H   0  0  0  0  0  0  0  0  0  0  0  0
    1.1021  -32.3645  -22.8288 H   0  0  0  0  0  0  0  0  0  0  0  0
    0.2244  -32.1166  -24.3764 H   0  0  0  0  0  0  0  0  0  0  0  0
    1.8418  -32.8980  -24.3764 H   0  0  0  0  0  0  0  0  0  0  0  0
    3.3170  -31.5627  -22.7966 H   0  0  0  0  0  0  0  0  0  0  0  0
    3.1342  -29.6160  -25.9818 H   0  0  0  0  0  0  0  0  0  0  0  0
    4.4315  -26.4854  -25.1332 H   0  0  0  0  0  0  0  0  0  0  0  0
    3.2122  -27.1391  -22.1059 H   0  0  0  0  0  0  0  0  0  0  0  0
    2.3482  -29.3415  -20.9362 H   0  0  0  0  0  0  0  0  0  0  0  0
  7  1  1  0
  1 10  1  0
  2  3  1  0
  2  7  1  0
  2 14  1  0
  3  4  1  0
  3 15  1  0
  4  6  1  0
  4 16  1  0
  5  8  1  0
  6  8  1  0
  6  9  1  0
  7  9  1  0
 10 11  2  0
 10 12  2  0
 10 13  1  1
  1 17  1  0
  1 18  1  0
  2 19  1  1
  3 20  1  6
  4 21  1  1
  5 22  1  0
  5 23  1  0
  5 24  1  0
  6 25  1  1
  7 26  1  6
 14 27  1  0
 15 28  1  0
 16 29  1  0
M  CHG  1  13  -1
M  END
>  <filename_input>  (22) 
7YZU_DO7_docked.sdf

>  <pdb_id>  (22) 
7YZU_DO7

>  <pose_rank>  (22) 
21

>  <num_atoms_heavy>  (22) 
16

>  <num_torsions>  (22) 
3

>  <pose>  (22) 
[4.319655920137172, -28.416272491166044, -24.725839961491648, -1.2777069926256888, -2.654974192710852, 3.3144973728031046, 0.6967358846436968, 0.7157104026774322, -1.1706073865076028]

>  <energy>  (22) 
-126.61847083035767

>  <inter_energy>  (22) 
-124.18274955186098

>  <intra_energy>  (22) 
0.08557352446992013

>  <rmsd>  (22) 
12.6856

>  <sdf_rank>  (22) 
0

$$$$

     RDKit          3D

 29 29  0  0  0  0  0  0  0  0999 V2000
   16.0221  -28.6974  -26.2256 C   0  0  0  0  0  0  0  0  0  0  0  0
   17.5633  -29.1940  -24.2492 C   0  0  1  0  0  0  0  0  0  0  0  0
   18.8730  -29.9115  -23.9574 C   0  0  1  0  0  0  0  0  0  0  0  0
   19.9999  -29.2442  -24.7430 C   0  0  2  0  0  0  0  0  0  0  0  0
   20.5202  -30.7351  -27.8803 C   0  0  0  0  0  0  0  0  0  0  0  0
   19.6622  -29.2215  -26.2328 C   0  0  1  0  0  0  0  0  0  0  0  0
   17.3029  -29.3429  -25.7395 C   0  0  2  0  0  0  0  0  0  0  0  0
   19.7556  -30.5453  -26.6919 O   0  0  0  0  0  0  0  0  0  0  0  0
   18.3665  -28.6893  -26.4508 O   0  0  0  0  0  0  0  0  0  0  0  0
   14.7560  -29.7806  -26.8531 S   0  0  2  0  0  0  0  0  0  0  0  0
   14.0131  -30.1728  -25.6923 O   0  0  0  0  0  0  0  0  0  0  0  0
   15.5106  -30.8656  -27.5175 O   0  0  0  0  0  0  0  0  0  0  0  0
   13.8659  -28.9410  -27.7619 O   0  0  0  0  0  0  0  0  0  0  0  0
   16.5087  -29.7511  -23.4931 O   0  0  0  0  0  0  0  0  0  0  0  0
   19.1708  -29.9119  -22.5614 O   0  0  0  0  0  0  0  0  0  0  0  0
   21.2424  -29.9301  -24.5702 O   0  0  0  0  0  0  0  0  0  0  0  0
   15.5917  -28.1383  -25.3817 H   0  0  0  0  0  0  0  0  0  0  0  0
   16.3224  -28.0816  -27.0862 H   0  0  0  0  0  0  0  0  0  0  0  0
   17.6266  -28.1318  -23.9703 H   0  0  0  0  0  0  0  0  0  0  0  0
   18.7737  -30.9610  -24.2715 H   0  0  0  0  0  0  0  0  0  0  0  0
   20.1020  -28.2194  -24.3567 H   0  0  0  0  0  0  0  0  0  0  0  0
   21.5558  -30.9922  -27.6128 H   0  0  0  0  0  0  0  0  0  0  0  0
   20.0810  -31.5515  -28.4724 H   0  0  0  0  0  0  0  0  0  0  0  0
   20.5138  -29.8081  -28.4724 H   0  0  0  0  0  0  0  0  0  0  0  0
   20.3597  -28.5732  -26.7835 H   0  0  0  0  0  0  0  0  0  0  0  0
   17.2300  -30.4253  -25.9211 H   0  0  0  0  0  0  0  0  0  0  0  0
   16.7041  -29.6479  -22.5281 H   0  0  0  0  0  0  0  0  0  0  0  0
   18.3268  -29.9108  -22.0439 H   0  0  0  0  0  0  0  0  0  0  0  0
   21.4304  -30.0338  -23.6037 H   0  0  0  0  0  0  0  0  0  0  0  0
  7  1  1  0
  1 10  1  0
  2  3  1  0
  2  7  1  0
  2 14  1  0
  3  4  1  0
  3 15  1  0
  4  6  1  0
  4 16  1  0
  5  8  1  0
  6  8  1  0
  6  9  1  0
  7  9  1  0
 10 11  2  0
 10 12  2  0
 10 13  1  6
  1 17  1  0
  1 18  1  0
  2 19  1  6
  3 20  1  6
  4 21  1  1
  5 22  1  0
  5 23  1  0
  5 24  1  0
  6 25  1  6
  7 26  1  6
 14 27  1  0
 15 28  1  0
 16 29  1  0
M  CHG  1  13  -1
M  END
>  <filename_input>  (23) 
7YZU_DO7_docked.sdf

>  <pdb_id>  (23) 
7YZU_DO7

>  <pose_rank>  (23) 
22

>  <num_atoms_heavy>  (23) 
16

>  <num_torsions>  (23) 
3

>  <pose>  (23) 
[17.56334681148596, -29.19397459580184, -24.249231141156486, -0.8000663011179746, 2.1968480548187497, 0.6577199262807288, 0.7867370653311138, 0.625283670835899, -3.4787245825115747]

>  <energy>  (23) 
-135.82282186815132

>  <inter_energy>  (23) 
-123.94070360674701

>  <intra_energy>  (23) 
0.48175063058641604

>  <rmsd>  (23) 
13.054

>  <sdf_rank>  (23) 
0

$$$$

     RDKit          3D

 29 29  0  0  0  0  0  0  0  0999 V2000
   13.8007  -29.3486  -26.3912 C   0  0  0  0  0  0  0  0  0  0  0  0
   13.4420  -26.8464  -26.7630 C   0  0  1  0  0  0  0  0  0  0  0  0
   14.2497  -25.6003  -27.0948 C   0  0  1  0  0  0  0  0  0  0  0  0
   14.8984  -25.7700  -28.4670 C   0  0  2  0  0  0  0  0  0  0  0  0
   18.1193  -27.2125  -28.2380 C   0  0  0  0  0  0  0  0  0  0  0  0
   15.7433  -27.0426  -28.4968 C   0  0  1  0  0  0  0  0  0  0  0  0
   14.4218  -28.0079  -26.7230 C   0  0  2  0  0  0  0  0  0  0  0  0
   16.8679  -26.8039  -27.6904 O   0  0  0  0  0  0  0  0  0  0  0  0
   14.9998  -28.1557  -28.0301 O   0  0  0  0  0  0  0  0  0  0  0  0
   13.2782  -30.3607  -27.7597 S   0  0  2  0  0  0  0  0  0  0  0  0
   14.4938  -30.7002  -28.4382 O   0  0  0  0  0  0  0  0  0  0  0  0
   12.3536  -29.4889  -28.5167 O   0  0  0  0  0  0  0  0  0  0  0  0
   12.6620  -31.6224  -27.1668 O   0  0  0  0  0  0  0  0  0  0  0  0
   12.7815  -26.6987  -25.5235 O   0  0  0  0  0  0  0  0  0  0  0  0
   13.4375  -24.4268  -27.0691 O   0  0  0  0  0  0  0  0  0  0  0  0
   15.7382  -24.6604  -28.7952 O   0  0  0  0  0  0  0  0  0  0  0  0
   14.5418  -29.9242  -25.8171 H   0  0  0  0  0  0  0  0  0  0  0  0
   12.8762  -29.1071  -25.8463 H   0  0  0  0  0  0  0  0  0  0  0  0
   12.6623  -27.0220  -27.5188 H   0  0  0  0  0  0  0  0  0  0  0  0
   15.0298  -25.4756  -26.3294 H   0  0  0  0  0  0  0  0  0  0  0  0
   14.0851  -25.8317  -29.2050 H   0  0  0  0  0  0  0  0  0  0  0  0
   18.8198  -27.4412  -27.4213 H   0  0  0  0  0  0  0  0  0  0  0  0
   17.9730  -28.1096  -28.8576 H   0  0  0  0  0  0  0  0  0  0  0  0
   18.5306  -26.4020  -28.8576 H   0  0  0  0  0  0  0  0  0  0  0  0
   16.0514  -27.2851  -29.5246 H   0  0  0  0  0  0  0  0  0  0  0  0
   15.1432  -27.7602  -25.9303 H   0  0  0  0  0  0  0  0  0  0  0  0
   13.4266  -26.8429  -24.7865 H   0  0  0  0  0  0  0  0  0  0  0  0
   13.2593  -24.1693  -26.1300 H   0  0  0  0  0  0  0  0  0  0  0  0
   16.0613  -24.2335  -27.9625 H   0  0  0  0  0  0  0  0  0  0  0  0
  7  1  1  0
  1 10  1  0
  2  3  1  0
  2  7  1  0
  2 14  1  0
  3  4  1  0
  3 15  1  0
  4  6  1  0
  4 16  1  0
  5  8  1  0
  6  8  1  0
  6  9  1  0
  7  9  1  0
 10 11  2  0
 10 12  2  0
 10 13  1  1
  1 17  1  0
  1 18  1  0
  2 19  1  6
  3 20  1  1
  4 21  1  6
  5 22  1  0
  5 23  1  0
  5 24  1  0
  6 25  1  6
  7 26  1  1
 14 27  1  0
 15 28  1  0
 16 29  1  0
M  CHG  1  13  -1
M  END
>  <filename_input>  (24) 
7YZU_DO7_docked.sdf

>  <pdb_id>  (24) 
7YZU_DO7

>  <pose_rank>  (24) 
23

>  <num_atoms_heavy>  (24) 
16

>  <num_torsions>  (24) 
3

>  <pose>  (24) 
[13.442014497167063, -26.846362377113984, -26.763019530468554, -2.9102211975347996, 1.6308014931803914, -0.7754146010160867, 0.7244845975716487, -2.0440160900951416, 2.4395913620074268]

>  <energy>  (24) 
-131.11763057627013

>  <inter_energy>  (24) 
-145.30276990713395

>  <intra_energy>  (24) 
24.64973430437716

>  <rmsd>  (24) 
11.8007

>  <sdf_rank>  (24) 
0

$$$$

     RDKit          3D

 29 29  0  0  0  0  0  0  0  0999 V2000
    1.4273  -15.7613  -22.3097 C   0  0  0  0  0  0  0  0  0  0  0  0
    1.7946  -14.9891  -19.9020 C   0  0  1  0  0  0  0  0  0  0  0  0
    2.8756  -14.3430  -19.0483 C   0  0  1  0  0  0  0  0  0  0  0  0
    3.1949  -12.9563  -19.6028 C   0  0  2  0  0  0  0  0  0  0  0  0
    5.8096  -13.0494  -21.9792 C   0  0  0  0  0  0  0  0  0  0  0  0
    3.5906  -13.0556  -21.0752 C   0  0  1  0  0  0  0  0  0  0  0  0
    2.3627  -15.1204  -21.3059 C   0  0  2  0  0  0  0  0  0  0  0  0
    4.8553  -13.6645  -21.1167 O   0  0  0  0  0  0  0  0  0  0  0  0
    2.6336  -13.8018  -21.8080 O   0  0  0  0  0  0  0  0  0  0  0  0
    2.1597  -16.8236  -23.5367 S   0  0  2  0  0  0  0  0  0  0  0  0
    1.0484  -17.3054  -24.3022 O   0  0  0  0  0  0  0  0  0  0  0  0
    2.8726  -17.8483  -22.7430 O   0  0  0  0  0  0  0  0  0  0  0  0
    3.0358  -15.9421  -24.4190 O   0  0  0  0  0  0  0  0  0  0  0  0
    1.4346  -16.2518  -19.3817 O   0  0  0  0  0  0  0  0  0  0  0  0
    2.4794  -14.2535  -17.6799 O   0  0  0  0  0  0  0  0  0  0  0  0
    4.2648  -12.3344  -18.8867 O   0  0  0  0  0  0  0  0  0  0  0  0
    0.6965  -16.3602  -21.7465 H   0  0  0  0  0  0  0  0  0  0  0  0
    1.0008  -14.9216  -22.8780 H   0  0  0  0  0  0  0  0  0  0  0  0
    0.8808  -14.3768  -19.9087 H   0  0  0  0  0  0  0  0  0  0  0  0
    3.7758  -14.9739  -19.0881 H   0  0  0  0  0  0  0  0  0  0  0  0
    2.2876  -12.3447  -19.4895 H   0  0  0  0  0  0  0  0  0  0  0  0
    6.5823  -12.5513  -21.3752 H   0  0  0  0  0  0  0  0  0  0  0  0
    6.2780  -13.8160  -22.6139 H   0  0  0  0  0  0  0  0  0  0  0  0
    5.3048  -12.3062  -22.6139 H   0  0  0  0  0  0  0  0  0  0  0  0
    3.6279  -12.0592  -21.5396 H   0  0  0  0  0  0  0  0  0  0  0  0
    3.2503  -15.7627  -21.2077 H   0  0  0  0  0  0  0  0  0  0  0  0
    1.4448  -16.2161  -18.3924 H   0  0  0  0  0  0  0  0  0  0  0  0
    3.2606  -14.4299  -17.0979 H   0  0  0  0  0  0  0  0  0  0  0  0
    4.1075  -12.4258  -17.9136 H   0  0  0  0  0  0  0  0  0  0  0  0
  7  1  1  0
  1 10  1  0
  2  3  1  0
  2  7  1  0
  2 14  1  0
  3  4  1  0
  3 15  1  0
  4  6  1  0
  4 16  1  0
  5  8  1  0
  6  8  1  0
  6  9  1  0
  7  9  1  0
 10 11  2  0
 10 12  2  0
 10 13  1  6
  1 17  1  0
  1 18  1  0
  2 19  1  6
  3 20  1  1
  4 21  1  6
  5 22  1  0
  5 23  1  0
  5 24  1  0
  6 25  1  6
  7 26  1  1
 14 27  1  0
 15 28  1  0
 16 29  1  0
M  CHG  1  13  -1
M  END
>  <filename_input>  (25) 
7YZU_DO7_docked.sdf

>  <pdb_id>  (25) 
7YZU_DO7

>  <pose_rank>  (25) 
24

>  <num_atoms_heavy>  (25) 
16

>  <num_torsions>  (25) 
3

>  <pose>  (25) 
[1.7945614180994358, -14.989129173340778, -19.902049797280963, 2.9650455687591664, -2.1348614414920957, -1.1462997583556591, 0.7299474328118707, 0.11842819209648228, -1.8772122439193328]

>  <energy>  (25) 
-119.0054314646338

>  <inter_energy>  (25) 
-106.94274207942372

>  <intra_energy>  (25) 
0.14671672876899566

>  <rmsd>  (25) 
12.2323

>  <sdf_rank>  (25) 
0

$$$$

     RDKit          3D

 29 29  0  0  0  0  0  0  0  0999 V2000
   11.9380  -20.5310  -18.7890 C   0  0  0  0  0  0  0  0  0  0  0  0
    9.7590  -21.5240  -19.6800 C   0  0  1  0  0  0  0  0  0  0  0  0
    9.0480  -22.8670  -19.7570 C   0  0  1  0  0  0  0  0  0  0  0  0
    8.7670  -23.3710  -18.3430 C   0  0  2  0  0  0  0  0  0  0  0  0
   12.0370  -24.7920  -17.3920 C   0  0  0  0  0  0  0  0  0  0  0  0
   10.0650  -23.4390  -17.5400 C   0  0  1  0  0  0  0  0  0  0  0  0
   11.0730  -21.7630  -18.9540 C   0  0  2  0  0  0  0  0  0  0  0  0
   10.8140  -24.5040  -18.0660 O   0  0  0  0  0  0  0  0  0  0  0  0
   10.7770  -22.2160  -17.6230 O   0  0  0  0  0  0  0  0  0  0  0  0
   13.7000  -20.7800  -18.7280 S   0  0  2  0  0  0  0  0  0  0  0  0
   13.9380  -21.3360  -17.4290 O   0  0  0  0  0  0  0  0  0  0  0  0
   14.2600  -19.4290  -18.9500 O   0  0  0  0  0  0  0  0  0  0  0  0
   14.0370  -21.8190  -19.7910 O   0  0  0  0  0  0  0  0  0  0  0  0
    9.9830  -21.0020  -20.9730 O   0  0  0  0  0  0  0  0  0  0  0  0
    7.8350  -22.7760  -20.5040 O   0  0  0  0  0  0  0  0  0  0  0  0
    8.1720  -24.6710  -18.3540 O   0  0  0  0  0  0  0  0  0  0  0  0
   11.7269  -19.8619  -19.6362 H   0  0  0  0  0  0  0  0  0  0  0  0
   11.6730  -20.1273  -17.8007 H   0  0  0  0  0  0  0  0  0  0  0  0
    9.1467  -20.7855  -19.1417 H   0  0  0  0  0  0  0  0  0  0  0  0
    9.7026  -23.5793  -20.2807 H   0  0  0  0  0  0  0  0  0  0  0  0
    8.0653  -22.6621  -17.8793 H   0  0  0  0  0  0  0  0  0  0  0  0
   11.8743  -24.7537  -16.3048 H   0  0  0  0  0  0  0  0  0  0  0  0
   12.3842  -25.7965  -17.6756 H   0  0  0  0  0  0  0  0  0  0  0  0
   12.7960  -24.0480  -17.6756 H   0  0  0  0  0  0  0  0  0  0  0  0
    9.8578  -23.6047  -16.4725 H   0  0  0  0  0  0  0  0  0  0  0  0
   11.6249  -22.4877  -19.5706 H   0  0  0  0  0  0  0  0  0  0  0  0
   10.3723  -20.0947  -20.8997 H   0  0  0  0  0  0  0  0  0  0  0  0
    7.0675  -22.7184  -19.8813 H   0  0  0  0  0  0  0  0  0  0  0  0
    8.0317  -24.9776  -17.4232 H   0  0  0  0  0  0  0  0  0  0  0  0
  7  1  1  0
  1 10  1  0
  2  3  1  0
  2  7  1  0
  2 14  1  0
  3  4  1  0
  3 15  1  0
  4  6  1  0
  4 16  1  0
  5  8  1  0
  6  8  1  0
  6  9  1  0
  7  9  1  0
 10 11  2  0
 10 12  2  0
 10 13  1  6
  1 17  1  0
  1 18  1  0
  2 19  1  1
  3 20  1  6
  4 21  1  1
  5 22  1  0
  5 23  1  0
  5 24  1  0
  6 25  1  1
  7 26  1  6
 14 27  1  0
 15 28  1  0
 16 29  1  0
M  CHG  1  13  -1
M  END
>  <filename_input>  (26) 
7YZU_DO7_docked.sdf

>  <pdb_id>  (26) 
7YZU_DO7

>  <pose_rank>  (26) 
25

>  <num_atoms_heavy>  (26) 
16

>  <num_torsions>  (26) 
3

>  <pose>  (26) 
[9.759, -21.524, -19.68, 1e-06, 1e-06, 1e-06, 0.0, 0.0, 0.0]

>  <energy>  (26) 
-759.9961479938852

>  <inter_energy>  (26) 
-764.1636076423853

>  <intra_energy>  (26) 
2.3843134442895564

>  <rmsd>  (26) 
0.0

>  <sdf_rank>  (26) 
0

$$$$
