
     RDKit          3D

 13 13  0  0  0  0  0  0  0  0999 V2000
    0.3138   20.2197   -2.0267 N   0  0  0  0  0  0  0  0  0  0  0  0
    0.8753   20.8587   -3.0690 C   0  0  0  0  0  0  0  0  0  0  0  0
    1.7636   21.9161   -2.9354 C   0  0  0  0  0  0  0  0  0  0  0  0
    2.0832   22.3193   -1.6451 C   0  0  0  0  0  0  0  0  0  0  0  0
    1.5038   21.6848   -0.5627 C   0  0  0  0  0  0  0  0  0  0  0  0
    0.6296   20.6460   -0.8005 C   0  0  0  0  0  0  0  0  0  0  0  0
    2.3585   22.5807   -4.1281 C   0  0  0  0  0  0  0  0  0  0  0  0
    2.6514   23.7713   -4.1160 O   0  0  0  0  0  0  0  0  0  0  0  0
    2.5615   21.8035   -5.1642 O   0  0  0  0  0  0  0  0  0  0  0  0
    0.6155   20.5241   -4.0842 H   0  0  0  0  0  0  0  0  0  0  0  0
    2.7959   23.1419   -1.4852 H   0  0  0  0  0  0  0  0  0  0  0  0
    1.7350   22.0015    0.4651 H   0  0  0  0  0  0  0  0  0  0  0  0
    0.1690   20.1427    0.0624 H   0  0  0  0  0  0  0  0  0  0  0  0
  1  2  2  0
  1  6  1  0
  2  3  1  0
  3  4  2  0
  3  7  1  0
  4  5  1  0
  5  6  2  0
  7  8  2  0
  7  9  1  0
  2 10  1  0
  4 11  1  0
  5 12  1  0
  6 13  1  0
M  CHG  1   9  -1
M  END
>  <filename_input>  (1) 
7Z1Q_NIO_docked.sdf

>  <pdb_id>  (1) 
7Z1Q_NIO

>  <pose_rank>  (1) 
0

>  <num_atoms_heavy>  (1) 
9

>  <num_torsions>  (1) 
1

>  <pose>  (1) 
[0.31379583574887765, 20.219698004874683, -2.0267087541220334, 0.25489596519434615, 0.11837966021791174, -0.7177178515717209, -3.552185925526259]

>  <energy>  (1) 
-352.7635075713098

>  <inter_energy>  (1) 
-348.75612566875617

>  <intra_energy>  (1) 
0.0

>  <rmsd>  (1) 
0.812797

>  <sdf_rank>  (1) 
0

$$$$

     RDKit          3D

 13 13  0  0  0  0  0  0  0  0999 V2000
    0.7326   22.9917   -1.8607 N   0  0  0  0  0  0  0  0  0  0  0  0
    1.3975   22.9014   -3.0268 C   0  0  0  0  0  0  0  0  0  0  0  0
    2.2160   21.8334   -3.3652 C   0  0  0  0  0  0  0  0  0  0  0  0
    2.3384   20.8068   -2.4373 C   0  0  0  0  0  0  0  0  0  0  0  0
    1.6753   20.8901   -1.2277 C   0  0  0  0  0  0  0  0  0  0  0  0
    0.8881   21.9952   -0.9845 C   0  0  0  0  0  0  0  0  0  0  0  0
    2.9221   21.7862   -4.6756 C   0  0  0  0  0  0  0  0  0  0  0  0
    3.2927   20.7240   -5.1634 O   0  0  0  0  0  0  0  0  0  0  0  0
    3.0933   22.9441   -5.2661 O   0  0  0  0  0  0  0  0  0  0  0  0
    1.2861   23.7203   -3.7527 H   0  0  0  0  0  0  0  0  0  0  0  0
    2.9619   19.9296   -2.6649 H   0  0  0  0  0  0  0  0  0  0  0  0
    1.7733   20.0928   -0.4763 H   0  0  0  0  0  0  0  0  0  0  0  0
    0.3618   22.0599   -0.0208 H   0  0  0  0  0  0  0  0  0  0  0  0
  1  2  2  0
  1  6  1  0
  2  3  1  0
  3  4  2  0
  3  7  1  0
  4  5  1  0
  5  6  2  0
  7  8  2  0
  7  9  1  0
  2 10  1  0
  4 11  1  0
  5 12  1  0
  6 13  1  0
M  CHG  1   9  -1
M  END
>  <filename_input>  (2) 
7Z1Q_NIO_docked.sdf

>  <pdb_id>  (2) 
7Z1Q_NIO

>  <pose_rank>  (2) 
1

>  <num_atoms_heavy>  (2) 
9

>  <num_torsions>  (2) 
1

>  <pose>  (2) 
[0.7326136213334008, 22.99173296321847, -1.860696786537294, -1.014893441277831, -0.6302256506295723, 3.426804500226221, -15.171725099977886]

>  <energy>  (2) 
-344.72057492148616

>  <inter_energy>  (2) 
-348.62443137082664

>  <intra_energy>  (2) 
0.0

>  <rmsd>  (2) 
1.8357

>  <sdf_rank>  (2) 
0

$$$$

     RDKit          3D

 13 13  0  0  0  0  0  0  0  0999 V2000
    1.9745   24.5518   -2.6737 N   0  0  0  0  0  0  0  0  0  0  0  0
    1.2218   23.4398   -2.5900 C   0  0  0  0  0  0  0  0  0  0  0  0
    1.4119   22.3203   -3.3872 C   0  0  0  0  0  0  0  0  0  0  0  0
    2.4458   22.3671   -4.3138 C   0  0  0  0  0  0  0  0  0  0  0  0
    3.2191   23.5071   -4.4245 C   0  0  0  0  0  0  0  0  0  0  0  0
    2.9482   24.5689   -3.5884 C   0  0  0  0  0  0  0  0  0  0  0  0
    0.5495   21.1145   -3.2438 C   0  0  0  0  0  0  0  0  0  0  0  0
    0.2791   20.6503   -2.1416 O   0  0  0  0  0  0  0  0  0  0  0  0
    0.0924   20.6114   -4.3648 O   0  0  0  0  0  0  0  0  0  0  0  0
    0.4102   23.4170   -1.8479 H   0  0  0  0  0  0  0  0  0  0  0  0
    2.6485   21.4987   -4.9579 H   0  0  0  0  0  0  0  0  0  0  0  0
    4.0322   23.5658   -5.1631 H   0  0  0  0  0  0  0  0  0  0  0  0
    3.5644   25.4756   -3.6787 H   0  0  0  0  0  0  0  0  0  0  0  0
  1  2  2  0
  1  6  1  0
  2  3  1  0
  3  4  2  0
  3  7  1  0
  4  5  1  0
  5  6  2  0
  7  8  2  0
  7  9  1  0
  2 10  1  0
  4 11  1  0
  5 12  1  0
  6 13  1  0
M  CHG  1   9  -1
M  END
>  <filename_input>  (3) 
7Z1Q_NIO_docked.sdf

>  <pdb_id>  (3) 
7Z1Q_NIO

>  <pose_rank>  (3) 
2

>  <num_atoms_heavy>  (3) 
9

>  <num_torsions>  (3) 
1

>  <pose>  (3) 
[1.974529662161539, 24.55183558995792, -2.67366076036715, -2.060720375102897, 0.17375859310996156, -1.356939827133771, -0.6594090316730177]

>  <energy>  (3) 
-371.6090963840991

>  <inter_energy>  (3) 
-345.5593475070826

>  <intra_energy>  (3) 
0.0

>  <rmsd>  (3) 
3.55429

>  <sdf_rank>  (3) 
0

$$$$

     RDKit          3D

 13 13  0  0  0  0  0  0  0  0999 V2000
    0.6967   21.2579   -5.6168 N   0  0  0  0  0  0  0  0  0  0  0  0
    0.9824   22.3357   -4.8640 C   0  0  0  0  0  0  0  0  0  0  0  0
    1.3893   22.2633   -3.5396 C   0  0  0  0  0  0  0  0  0  0  0  0
    1.5080   20.9979   -2.9788 C   0  0  0  0  0  0  0  0  0  0  0  0
    1.2034   19.8802   -3.7323 C   0  0  0  0  0  0  0  0  0  0  0  0
    0.8039   20.0578   -5.0396 C   0  0  0  0  0  0  0  0  0  0  0  0
    1.6982   23.4929   -2.7580 C   0  0  0  0  0  0  0  0  0  0  0  0
    1.6516   24.6050   -3.2725 O   0  0  0  0  0  0  0  0  0  0  0  0
    1.9961   23.2992   -1.4961 O   0  0  0  0  0  0  0  0  0  0  0  0
    0.8881   23.3303   -5.3244 H   0  0  0  0  0  0  0  0  0  0  0  0
    1.8436   20.8859   -1.9372 H   0  0  0  0  0  0  0  0  0  0  0  0
    1.2781   18.8720   -3.2989 H   0  0  0  0  0  0  0  0  0  0  0  0
    0.5612   19.1668   -5.6374 H   0  0  0  0  0  0  0  0  0  0  0  0
  1  2  2  0
  1  6  1  0
  2  3  1  0
  3  4  2  0
  3  7  1  0
  4  5  1  0
  5  6  2  0
  7  8  2  0
  7  9  1  0
  2 10  1  0
  4 11  1  0
  5 12  1  0
  6 13  1  0
M  CHG  1   9  -1
M  END
>  <filename_input>  (4) 
7Z1Q_NIO_docked.sdf

>  <pdb_id>  (4) 
7Z1Q_NIO

>  <pose_rank>  (4) 
3

>  <num_atoms_heavy>  (4) 
9

>  <num_torsions>  (4) 
1

>  <pose>  (4) 
[0.6966827618809864, 21.257890751505702, -5.616811968396291, 1.7269712400860908, 0.37301459593404923, -0.14763463021944037, 0.08723213852805012]

>  <energy>  (4) 
-358.0661481410578

>  <inter_energy>  (4) 
-342.61652762014313

>  <intra_energy>  (4) 
0.0

>  <rmsd>  (4) 
3.03408

>  <sdf_rank>  (4) 
0

$$$$

     RDKit          3D

 13 13  0  0  0  0  0  0  0  0999 V2000
    2.3164   22.8467   -4.3618 N   0  0  0  0  0  0  0  0  0  0  0  0
    1.7149   21.6851   -4.0468 C   0  0  0  0  0  0  0  0  0  0  0  0
    1.1274   21.4320   -2.8156 C   0  0  0  0  0  0  0  0  0  0  0  0
    1.1676   22.4490   -1.8703 C   0  0  0  0  0  0  0  0  0  0  0  0
    1.7951   23.6431   -2.1709 C   0  0  0  0  0  0  0  0  0  0  0  0
    2.3525   23.7959   -3.4222 C   0  0  0  0  0  0  0  0  0  0  0  0
    0.4699   20.1271   -2.5272 C   0  0  0  0  0  0  0  0  0  0  0  0
   -0.7506   20.0096   -2.5437 O   0  0  0  0  0  0  0  0  0  0  0  0
    1.2825   19.1282   -2.2813 O   0  0  0  0  0  0  0  0  0  0  0  0
    1.6874   20.8916   -4.8081 H   0  0  0  0  0  0  0  0  0  0  0  0
    0.7010   22.3043   -0.8847 H   0  0  0  0  0  0  0  0  0  0  0  0
    1.8484   24.4531   -1.4285 H   0  0  0  0  0  0  0  0  0  0  0  0
    2.8521   24.7468   -3.6592 H   0  0  0  0  0  0  0  0  0  0  0  0
  1  2  2  0
  1  6  1  0
  2  3  1  0
  3  4  2  0
  3  7  1  0
  4  5  1  0
  5  6  2  0
  7  8  2  0
  7  9  1  0
  2 10  1  0
  4 11  1  0
  5 12  1  0
  6 13  1  0
M  CHG  1   9  -1
M  END
>  <filename_input>  (5) 
7Z1Q_NIO_docked.sdf

>  <pdb_id>  (5) 
7Z1Q_NIO

>  <pose_rank>  (5) 
4

>  <num_atoms_heavy>  (5) 
9

>  <num_torsions>  (5) 
1

>  <pose>  (5) 
[2.3163514765372897, 22.846665018503682, -4.361763651810874, 0.3833965387763223, -2.3482254910400617, -2.6416167508429336, -1.6520825047039398]

>  <energy>  (5) 
-297.22392788485615

>  <inter_energy>  (5) 
-298.22152338436234

>  <intra_energy>  (5) 
0.0

>  <rmsd>  (5) 
3.31301

>  <sdf_rank>  (5) 
0

$$$$

     RDKit          3D

 13 13  0  0  0  0  0  0  0  0999 V2000
    1.4983   21.5350   -5.4543 N   0  0  0  0  0  0  0  0  0  0  0  0
    1.1245   21.4513   -4.1646 C   0  0  0  0  0  0  0  0  0  0  0  0
    1.9500   20.9819   -3.1531 C   0  0  0  0  0  0  0  0  0  0  0  0
    3.2327   20.5864   -3.5108 C   0  0  0  0  0  0  0  0  0  0  0  0
    3.6286   20.6506   -4.8333 C   0  0  0  0  0  0  0  0  0  0  0  0
    2.7326   21.1287   -5.7652 C   0  0  0  0  0  0  0  0  0  0  0  0
    1.4817   20.9186   -1.7408 C   0  0  0  0  0  0  0  0  0  0  0  0
    1.2952   19.8455   -1.1774 O   0  0  0  0  0  0  0  0  0  0  0  0
    1.3093   22.0767   -1.1512 O   0  0  0  0  0  0  0  0  0  0  0  0
    0.1072   21.7730   -3.8971 H   0  0  0  0  0  0  0  0  0  0  0  0
    3.9316   20.2228   -2.7432 H   0  0  0  0  0  0  0  0  0  0  0  0
    4.6358   20.3275   -5.1354 H   0  0  0  0  0  0  0  0  0  0  0  0
    3.0495   21.1783   -6.8174 H   0  0  0  0  0  0  0  0  0  0  0  0
  1  2  2  0
  1  6  1  0
  2  3  1  0
  3  4  2  0
  3  7  1  0
  4  5  1  0
  5  6  2  0
  7  8  2  0
  7  9  1  0
  2 10  1  0
  4 11  1  0
  5 12  1  0
  6 13  1  0
M  CHG  1   9  -1
M  END
>  <filename_input>  (6) 
7Z1Q_NIO_docked.sdf

>  <pdb_id>  (6) 
7Z1Q_NIO

>  <pose_rank>  (6) 
5

>  <num_atoms_heavy>  (6) 
9

>  <num_torsions>  (6) 
1

>  <pose>  (6) 
[1.4983341229940794, 21.53501770347245, -5.454314634726056, 2.0535074936572872, 1.541887704424719, 0.9470215765315623, 2.0857069756739413]

>  <energy>  (6) 
-298.6960204450226

>  <inter_energy>  (6) 
-295.2686403968395

>  <intra_energy>  (6) 
0.0

>  <rmsd>  (6) 
3.77381

>  <sdf_rank>  (6) 
0

$$$$

     RDKit          3D

 13 13  0  0  0  0  0  0  0  0999 V2000
    2.3500   23.9844   -3.4320 N   0  0  0  0  0  0  0  0  0  0  0  0
    3.2173   22.9706   -3.6055 C   0  0  0  0  0  0  0  0  0  0  0  0
    2.9251   21.8233   -4.3290 C   0  0  0  0  0  0  0  0  0  0  0  0
    1.6633   21.7377   -4.9036 C   0  0  0  0  0  0  0  0  0  0  0  0
    0.7540   22.7625   -4.7225 C   0  0  0  0  0  0  0  0  0  0  0  0
    1.1393   23.8601   -3.9831 C   0  0  0  0  0  0  0  0  0  0  0  0
    3.9299   20.7362   -4.4922 C   0  0  0  0  0  0  0  0  0  0  0  0
    4.7021   20.4393   -3.5871 O   0  0  0  0  0  0  0  0  0  0  0  0
    3.9096   20.1182   -5.6482 O   0  0  0  0  0  0  0  0  0  0  0  0
    4.2141   23.0561   -3.1482 H   0  0  0  0  0  0  0  0  0  0  0  0
    1.3885   20.8561   -5.5013 H   0  0  0  0  0  0  0  0  0  0  0  0
   -0.2542   22.7036   -5.1585 H   0  0  0  0  0  0  0  0  0  0  0  0
    0.4137   24.6743   -3.8395 H   0  0  0  0  0  0  0  0  0  0  0  0
  1  2  2  0
  1  6  1  0
  2  3  1  0
  3  4  2  0
  3  7  1  0
  4  5  1  0
  5  6  2  0
  7  8  2  0
  7  9  1  0
  2 10  1  0
  4 11  1  0
  5 12  1  0
  6 13  1  0
M  CHG  1   9  -1
M  END
>  <filename_input>  (7) 
7Z1Q_NIO_docked.sdf

>  <pdb_id>  (7) 
7Z1Q_NIO

>  <pose_rank>  (7) 
6

>  <num_atoms_heavy>  (7) 
9

>  <num_torsions>  (7) 
1

>  <pose>  (7) 
[2.3500288870478423, 23.984392883175655, -3.43197196064023, 3.286873368962528, 0.11508256798423491, -1.9642750210092883, 0.7708613101667607]

>  <energy>  (7) 
-281.557025147502

>  <inter_energy>  (7) 
-285.27055548606006

>  <intra_energy>  (7) 
0.0

>  <rmsd>  (7) 
3.43532

>  <sdf_rank>  (7) 
0

$$$$

     RDKit          3D

 13 13  0  0  0  0  0  0  0  0999 V2000
    1.3188   19.4661   -1.8347 N   0  0  0  0  0  0  0  0  0  0  0  0
    1.5668   20.2370   -2.9091 C   0  0  0  0  0  0  0  0  0  0  0  0
    1.5304   21.6238   -2.8860 C   0  0  0  0  0  0  0  0  0  0  0  0
    1.2245   22.2321   -1.6752 C   0  0  0  0  0  0  0  0  0  0  0  0
    0.9514   21.4558   -0.5650 C   0  0  0  0  0  0  0  0  0  0  0  0
    1.0099   20.0845   -0.6913 C   0  0  0  0  0  0  0  0  0  0  0  0
    1.8209   22.4246   -4.1077 C   0  0  0  0  0  0  0  0  0  0  0  0
    1.1065   22.3546   -5.1019 O   0  0  0  0  0  0  0  0  0  0  0  0
    2.8664   23.2117   -4.0308 O   0  0  0  0  0  0  0  0  0  0  0  0
    1.8122   19.7399   -3.8592 H   0  0  0  0  0  0  0  0  0  0  0  0
    1.1997   23.3293   -1.6003 H   0  0  0  0  0  0  0  0  0  0  0  0
    0.6932   21.9216    0.3975 H   0  0  0  0  0  0  0  0  0  0  0  0
    0.7915   19.4684    0.1934 H   0  0  0  0  0  0  0  0  0  0  0  0
  1  2  2  0
  1  6  1  0
  2  3  1  0
  3  4  2  0
  3  7  1  0
  4  5  1  0
  5  6  2  0
  7  8  2  0
  7  9  1  0
  2 10  1  0
  4 11  1  0
  5 12  1  0
  6 13  1  0
M  CHG  1   9  -1
M  END
>  <filename_input>  (8) 
7Z1Q_NIO_docked.sdf

>  <pdb_id>  (8) 
7Z1Q_NIO

>  <pose_rank>  (8) 
7

>  <num_atoms_heavy>  (8) 
9

>  <num_torsions>  (8) 
1

>  <pose>  (8) 
[1.3187946389282992, 19.466142556839266, -1.8347202046591817, 6.199536665237119, -1.5946371873231064, 0.2343549011556116, 1.2441845876162598]

>  <energy>  (8) 
-341.7114522911633

>  <inter_energy>  (8) 
-338.00425025633075

>  <intra_energy>  (8) 
0.0

>  <rmsd>  (8) 
0.898085

>  <sdf_rank>  (8) 
0

$$$$

     RDKit          3D

 13 13  0  0  0  0  0  0  0  0999 V2000
    1.1765   21.6882   -1.0233 N   0  0  0  0  0  0  0  0  0  0  0  0
    1.5622   22.5851   -1.9489 C   0  0  0  0  0  0  0  0  0  0  0  0
    1.6806   22.2938   -3.3002 C   0  0  0  0  0  0  0  0  0  0  0  0
    1.3739   20.9997   -3.7013 C   0  0  0  0  0  0  0  0  0  0  0  0
    0.9913   20.0609   -2.7621 C   0  0  0  0  0  0  0  0  0  0  0  0
    0.9072   20.4483   -1.4420 C   0  0  0  0  0  0  0  0  0  0  0  0
    2.1065   23.3318   -4.2797 C   0  0  0  0  0  0  0  0  0  0  0  0
    1.3534   24.2390   -4.6167 O   0  0  0  0  0  0  0  0  0  0  0  0
    3.3330   23.2152   -4.7277 O   0  0  0  0  0  0  0  0  0  0  0  0
    1.7968   23.6069   -1.6156 H   0  0  0  0  0  0  0  0  0  0  0  0
    1.4355   20.7229   -4.7641 H   0  0  0  0  0  0  0  0  0  0  0  0
    0.7592   19.0281   -3.0612 H   0  0  0  0  0  0  0  0  0  0  0  0
    0.6032   19.6993   -0.6960 H   0  0  0  0  0  0  0  0  0  0  0  0
  1  2  2  0
  1  6  1  0
  2  3  1  0
  3  4  2  0
  3  7  1  0
  4  5  1  0
  5  6  2  0
  7  8  2  0
  7  9  1  0
  2 10  1  0
  4 11  1  0
  5 12  1  0
  6 13  1  0
M  CHG  1   9  -1
M  END
>  <filename_input>  (9) 
7Z1Q_NIO_docked.sdf

>  <pdb_id>  (9) 
7Z1Q_NIO

>  <pose_rank>  (9) 
8

>  <num_atoms_heavy>  (9) 
9

>  <num_torsions>  (9) 
1

>  <pose>  (9) 
[1.1765226120988848, 21.688170755636495, -1.0232620681839677, 0.7123108049236362, 2.0103976941105266, -2.6853195520208595, -1.1433793006396444]

>  <energy>  (9) 
-367.77975640112203

>  <inter_energy>  (9) 
-365.8357308292218

>  <intra_energy>  (9) 
0.0

>  <rmsd>  (9) 
1.73986

>  <sdf_rank>  (9) 
0

$$$$

     RDKit          3D

 13 13  0  0  0  0  0  0  0  0999 V2000
    1.7254   22.9349   -1.7870 N   0  0  0  0  0  0  0  0  0  0  0  0
    1.5350   22.5641   -3.0662 C   0  0  0  0  0  0  0  0  0  0  0  0
    1.2602   21.2615   -3.4570 C   0  0  0  0  0  0  0  0  0  0  0  0
    1.1752   20.3016   -2.4565 C   0  0  0  0  0  0  0  0  0  0  0  0
    1.3836   20.6614   -1.1385 C   0  0  0  0  0  0  0  0  0  0  0  0
    1.6546   21.9824   -0.8528 C   0  0  0  0  0  0  0  0  0  0  0  0
    1.0523   20.9126   -4.8898 C   0  0  0  0  0  0  0  0  0  0  0  0
   -0.0730   20.8280   -5.3696 O   0  0  0  0  0  0  0  0  0  0  0  0
    2.1453   20.7287   -5.5899 O   0  0  0  0  0  0  0  0  0  0  0  0
    1.6008   23.3372   -3.8460 H   0  0  0  0  0  0  0  0  0  0  0  0
    0.9426   19.2575   -2.7127 H   0  0  0  0  0  0  0  0  0  0  0  0
    1.3343   19.9108   -0.3359 H   0  0  0  0  0  0  0  0  0  0  0  0
    1.8209   22.2665    0.1968 H   0  0  0  0  0  0  0  0  0  0  0  0
  1  2  2  0
  1  6  1  0
  2  3  1  0
  3  4  2  0
  3  7  1  0
  4  5  1  0
  5  6  2  0
  7  8  2  0
  7  9  1  0
  2 10  1  0
  4 11  1  0
  5 12  1  0
  6 13  1  0
M  CHG  1   9  -1
M  END
>  <filename_input>  (10) 
7Z1Q_NIO_docked.sdf

>  <pdb_id>  (10) 
7Z1Q_NIO

>  <pose_rank>  (10) 
9

>  <num_atoms_heavy>  (10) 
9

>  <num_torsions>  (10) 
1

>  <pose>  (10) 
[1.7254102728616412, 22.934906756172403, -1.7869612878320023, 0.21308859900349272, 0.29607388373551985, -3.3728470807868107, -1.554449089753544]

>  <energy>  (10) 
-326.4901816358185

>  <inter_energy>  (10) 
-315.2075371108101

>  <intra_energy>  (10) 
0.0

>  <rmsd>  (10) 
2.19778

>  <sdf_rank>  (10) 
0

$$$$

     RDKit          3D

 13 13  0  0  0  0  0  0  0  0999 V2000
    1.1665   22.7878   -2.1929 N   0  0  0  0  0  0  0  0  0  0  0  0
    1.6935   21.5535   -2.0994 C   0  0  0  0  0  0  0  0  0  0  0  0
    2.2137   20.8550   -3.1795 C   0  0  0  0  0  0  0  0  0  0  0  0
    2.1849   21.4844   -4.4175 C   0  0  0  0  0  0  0  0  0  0  0  0
    1.6330   22.7459   -4.5353 C   0  0  0  0  0  0  0  0  0  0  0  0
    1.1385   23.3553   -3.4021 C   0  0  0  0  0  0  0  0  0  0  0  0
    2.7905   19.4921   -3.0126 C   0  0  0  0  0  0  0  0  0  0  0  0
    3.8189   19.1588   -3.5913 O   0  0  0  0  0  0  0  0  0  0  0  0
    2.1382   18.6995   -2.1973 O   0  0  0  0  0  0  0  0  0  0  0  0
    1.7131   21.0709   -1.1111 H   0  0  0  0  0  0  0  0  0  0  0  0
    2.6005   20.9798   -5.3022 H   0  0  0  0  0  0  0  0  0  0  0  0
    1.5892   23.2520   -5.5109 H   0  0  0  0  0  0  0  0  0  0  0  0
    0.6989   24.3591   -3.4982 H   0  0  0  0  0  0  0  0  0  0  0  0
  1  2  2  0
  1  6  1  0
  2  3  1  0
  3  4  2  0
  3  7  1  0
  4  5  1  0
  5  6  2  0
  7  8  2  0
  7  9  1  0
  2 10  1  0
  4 11  1  0
  5 12  1  0
  6 13  1  0
M  CHG  1   9  -1
M  END
>  <filename_input>  (11) 
7Z1Q_NIO_docked.sdf

>  <pdb_id>  (11) 
7Z1Q_NIO

>  <pose_rank>  (11) 
10

>  <num_atoms_heavy>  (11) 
9

>  <num_torsions>  (11) 
1

>  <pose>  (11) 
[1.1664828552403075, 22.78780815455772, -2.192918755859016, 4.090463295732181, 0.922201543515935, 0.3635576573988617, 3.997397776809523]

>  <energy>  (11) 
-278.11138020732443

>  <inter_energy>  (11) 
-275.5038544608706

>  <intra_energy>  (11) 
0.0

>  <rmsd>  (11) 
3.42332

>  <sdf_rank>  (11) 
0

$$$$

     RDKit          3D

 13 13  0  0  0  0  0  0  0  0999 V2000
   -0.3399   20.3660   -2.3341 N   0  0  0  0  0  0  0  0  0  0  0  0
    0.0389   20.4204   -3.6240 C   0  0  0  0  0  0  0  0  0  0  0  0
    1.3026   20.8153   -4.0388 C   0  0  0  0  0  0  0  0  0  0  0  0
    2.2158   21.1648   -3.0522 C   0  0  0  0  0  0  0  0  0  0  0  0
    1.8392   21.1301   -1.7229 C   0  0  0  0  0  0  0  0  0  0  0  0
    0.5581   20.7267   -1.4130 C   0  0  0  0  0  0  0  0  0  0  0  0
    1.6660   20.8492   -5.4827 C   0  0  0  0  0  0  0  0  0  0  0  0
    0.8089   20.9399   -6.3550 O   0  0  0  0  0  0  0  0  0  0  0  0
    2.9499   20.7984   -5.7426 O   0  0  0  0  0  0  0  0  0  0  0  0
   -0.6945   20.1358   -4.3928 H   0  0  0  0  0  0  0  0  0  0  0  0
    3.2363   21.4686   -3.3283 H   0  0  0  0  0  0  0  0  0  0  0  0
    2.5457   21.4178   -0.9303 H   0  0  0  0  0  0  0  0  0  0  0  0
    0.2602   20.7005   -0.3545 H   0  0  0  0  0  0  0  0  0  0  0  0
  1  2  2  0
  1  6  1  0
  2  3  1  0
  3  4  2  0
  3  7  1  0
  4  5  1  0
  5  6  2  0
  7  8  2  0
  7  9  1  0
  2 10  1  0
  4 11  1  0
  5 12  1  0
  6 13  1  0
M  CHG  1   9  -1
M  END
>  <filename_input>  (12) 
7Z1Q_NIO_docked.sdf

>  <pdb_id>  (12) 
7Z1Q_NIO

>  <pose_rank>  (12) 
11

>  <num_atoms_heavy>  (12) 
9

>  <num_torsions>  (12) 
1

>  <pose>  (12) 
[-0.339879849344629, 20.36599638734689, -2.3341455750604894, -0.08205679798267534, 0.2589303343960276, -1.3147770423887355, 0.5330071746470545]

>  <energy>  (12) 
-279.4232973904045

>  <inter_energy>  (12) 
-254.42915283333875

>  <intra_energy>  (12) 
0.0

>  <rmsd>  (12) 
1.99501

>  <sdf_rank>  (12) 
0

$$$$

     RDKit          3D

 13 13  0  0  0  0  0  0  0  0999 V2000
    0.9751   20.1466   -2.1491 N   0  0  0  0  0  0  0  0  0  0  0  0
    1.7550   20.6813   -3.1061 C   0  0  0  0  0  0  0  0  0  0  0  0
    1.9133   22.0466   -3.2961 C   0  0  0  0  0  0  0  0  0  0  0  0
    1.2242   22.8926   -2.4363 C   0  0  0  0  0  0  0  0  0  0  0  0
    0.4061   22.3611   -1.4575 C   0  0  0  0  0  0  0  0  0  0  0  0
    0.3128   20.9899   -1.3521 C   0  0  0  0  0  0  0  0  0  0  0  0
    2.7968   22.5797   -4.3699 C   0  0  0  0  0  0  0  0  0  0  0  0
    2.7287   22.1598   -5.5200 O   0  0  0  0  0  0  0  0  0  0  0  0
    3.6211   23.5303   -4.0020 O   0  0  0  0  0  0  0  0  0  0  0  0
    2.2977   19.9977   -3.7756 H   0  0  0  0  0  0  0  0  0  0  0  0
    1.3296   23.9831   -2.5344 H   0  0  0  0  0  0  0  0  0  0  0  0
   -0.1577   23.0173   -0.7781 H   0  0  0  0  0  0  0  0  0  0  0  0
   -0.3396   20.5689   -0.5729 H   0  0  0  0  0  0  0  0  0  0  0  0
  1  2  2  0
  1  6  1  0
  2  3  1  0
  3  4  2  0
  3  7  1  0
  4  5  1  0
  5  6  2  0
  7  8  2  0
  7  9  1  0
  2 10  1  0
  4 11  1  0
  5 12  1  0
  6 13  1  0
M  CHG  1   9  -1
M  END
>  <filename_input>  (13) 
7Z1Q_NIO_docked.sdf

>  <pdb_id>  (13) 
7Z1Q_NIO

>  <pose_rank>  (13) 
12

>  <num_atoms_heavy>  (13) 
9

>  <num_torsions>  (13) 
1

>  <pose>  (13) 
[0.9750652135149748, 20.14659782007362, -2.1491249265261945, -0.05756963221157543, -0.4766617318145372, -0.0785898396488758, 0.9793408920455873]

>  <energy>  (13) 
-327.4668255303586

>  <inter_energy>  (13) 
-330.85507475647483

>  <intra_energy>  (13) 
0.0

>  <rmsd>  (13) 
0.927902

>  <sdf_rank>  (13) 
0

$$$$

     RDKit          3D

 13 13  0  0  0  0  0  0  0  0999 V2000
   -0.0891   21.0431   -4.3584 N   0  0  0  0  0  0  0  0  0  0  0  0
    0.8465   20.7626   -5.2837 C   0  0  0  0  0  0  0  0  0  0  0  0
    2.1702   20.4802   -4.9785 C   0  0  0  0  0  0  0  0  0  0  0  0
    2.5290   20.4866   -3.6366 C   0  0  0  0  0  0  0  0  0  0  0  0
    1.5848   20.7881   -2.6735 C   0  0  0  0  0  0  0  0  0  0  0  0
    0.2955   21.0585   -3.0790 C   0  0  0  0  0  0  0  0  0  0  0  0
    3.1601   20.1703   -6.0473 C   0  0  0  0  0  0  0  0  0  0  0  0
    3.0784   19.1455   -6.7156 O   0  0  0  0  0  0  0  0  0  0  0  0
    4.0942   21.0719   -6.2294 O   0  0  0  0  0  0  0  0  0  0  0  0
    0.5450   20.7569   -6.3416 H   0  0  0  0  0  0  0  0  0  0  0  0
    3.5623   20.2522   -3.3412 H   0  0  0  0  0  0  0  0  0  0  0  0
    1.8560   20.8117   -1.6077 H   0  0  0  0  0  0  0  0  0  0  0  0
   -0.4543   21.2989   -2.3109 H   0  0  0  0  0  0  0  0  0  0  0  0
  1  2  2  0
  1  6  1  0
  2  3  1  0
  3  4  2  0
  3  7  1  0
  4  5  1  0
  5  6  2  0
  7  8  2  0
  7  9  1  0
  2 10  1  0
  4 11  1  0
  5 12  1  0
  6 13  1  0
M  CHG  1   9  -1
M  END
>  <filename_input>  (14) 
7Z1Q_NIO_docked.sdf

>  <pdb_id>  (14) 
7Z1Q_NIO

>  <pose_rank>  (14) 
13

>  <num_atoms_heavy>  (14) 
9

>  <num_torsions>  (14) 
1

>  <pose>  (14) 
[-0.08908553352585419, 21.043100289889136, -4.35842396917723, -0.8773395986396791, 0.45014827215192343, 4.35281443263919, 5.246473647983703]

>  <energy>  (14) 
-303.1915049443713

>  <inter_energy>  (14) 
-297.701349062735

>  <intra_energy>  (14) 
0.0

>  <rmsd>  (14) 
2.89578

>  <sdf_rank>  (14) 
0

$$$$

     RDKit          3D

 13 13  0  0  0  0  0  0  0  0999 V2000
    0.9005   21.6158   -0.4310 N   0  0  0  0  0  0  0  0  0  0  0  0
    0.8238   20.3196   -0.7831 C   0  0  0  0  0  0  0  0  0  0  0  0
    1.1946   19.8378   -2.0303 C   0  0  0  0  0  0  0  0  0  0  0  0
    1.6751   20.7600   -2.9514 C   0  0  0  0  0  0  0  0  0  0  0  0
    1.7460   22.0979   -2.6124 C   0  0  0  0  0  0  0  0  0  0  0  0
    1.3498   22.4774   -1.3479 C   0  0  0  0  0  0  0  0  0  0  0  0
    1.0931   18.3891   -2.3602 C   0  0  0  0  0  0  0  0  0  0  0  0
    0.1186   17.9353   -2.9501 O   0  0  0  0  0  0  0  0  0  0  0  0
    2.1170   17.6550   -1.9978 O   0  0  0  0  0  0  0  0  0  0  0  0
    0.4457   19.6014   -0.0406 H   0  0  0  0  0  0  0  0  0  0  0  0
    1.9983   20.4261   -3.9484 H   0  0  0  0  0  0  0  0  0  0  0  0
    2.1103   22.8428   -3.3351 H   0  0  0  0  0  0  0  0  0  0  0  0
    1.4063   23.5429   -1.0804 H   0  0  0  0  0  0  0  0  0  0  0  0
  1  2  2  0
  1  6  1  0
  2  3  1  0
  3  4  2  0
  3  7  1  0
  4  5  1  0
  5  6  2  0
  7  8  2  0
  7  9  1  0
  2 10  1  0
  4 11  1  0
  5 12  1  0
  6 13  1  0
M  CHG  1   9  -1
M  END
>  <filename_input>  (15) 
7Z1Q_NIO_docked.sdf

>  <pdb_id>  (15) 
7Z1Q_NIO

>  <pose_rank>  (15) 
14

>  <num_atoms_heavy>  (15) 
9

>  <num_torsions>  (15) 
1

>  <pose>  (15) 
[0.9005027374462251, 21.61580203742442, -0.43095144464986834, 4.1779210530934785, 0.0025726637989856305, 1.5160263327396284, 1.8137832590563678]

>  <energy>  (15) 
-246.16884336503148

>  <inter_energy>  (15) 
-245.14121471187536

>  <intra_energy>  (15) 
0.0

>  <rmsd>  (15) 
3.75308

>  <sdf_rank>  (15) 
0

$$$$

     RDKit          3D

 13 13  0  0  0  0  0  0  0  0999 V2000
    1.9715   24.0088   -1.6578 N   0  0  0  0  0  0  0  0  0  0  0  0
    1.7205   22.8882   -2.3587 C   0  0  0  0  0  0  0  0  0  0  0  0
    1.1643   22.8841   -3.6298 C   0  0  0  0  0  0  0  0  0  0  0  0
    0.8619   24.1160   -4.1959 C   0  0  0  0  0  0  0  0  0  0  0  0
    1.0983   25.2768   -3.4841 C   0  0  0  0  0  0  0  0  0  0  0  0
    1.6511   25.1750   -2.2256 C   0  0  0  0  0  0  0  0  0  0  0  0
    0.9154   21.6101   -4.3599 C   0  0  0  0  0  0  0  0  0  0  0  0
    0.1975   20.7343   -3.8895 O   0  0  0  0  0  0  0  0  0  0  0  0
    1.4940   21.5093   -5.5319 O   0  0  0  0  0  0  0  0  0  0  0  0
    1.9702   21.9210   -1.8982 H   0  0  0  0  0  0  0  0  0  0  0  0
    0.4352   24.1676   -5.2085 H   0  0  0  0  0  0  0  0  0  0  0  0
    0.8510   26.2595   -3.9122 H   0  0  0  0  0  0  0  0  0  0  0  0
    1.8377   26.1001   -1.6604 H   0  0  0  0  0  0  0  0  0  0  0  0
  1  2  2  0
  1  6  1  0
  2  3  1  0
  3  4  2  0
  3  7  1  0
  4  5  1  0
  5  6  2  0
  7  8  2  0
  7  9  1  0
  2 10  1  0
  4 11  1  0
  5 12  1  0
  6 13  1  0
M  CHG  1   9  -1
M  END
>  <filename_input>  (16) 
7Z1Q_NIO_docked.sdf

>  <pdb_id>  (16) 
7Z1Q_NIO

>  <pose_rank>  (16) 
15

>  <num_atoms_heavy>  (16) 
9

>  <num_torsions>  (16) 
1

>  <pose>  (16) 
[1.9714945296657709, 24.00880503481347, -1.657764737158605, 4.5137488946841104, -1.3258330665519331, -0.4693071320812791, 1.150944713684432]

>  <energy>  (16) 
-290.6496803059132

>  <inter_energy>  (16) 
-281.62255131706297

>  <intra_energy>  (16) 
0.0

>  <rmsd>  (16) 
3.09451

>  <sdf_rank>  (16) 
0

$$$$

     RDKit          3D

 13 13  0  0  0  0  0  0  0  0999 V2000
    1.9996   20.9604   -3.7267 N   0  0  0  0  0  0  0  0  0  0  0  0
    2.8587   20.1076   -3.1397 C   0  0  0  0  0  0  0  0  0  0  0  0
    3.8289   19.3956   -3.8304 C   0  0  0  0  0  0  0  0  0  0  0  0
    3.9055   19.5922   -5.2034 C   0  0  0  0  0  0  0  0  0  0  0  0
    3.0208   20.4525   -5.8256 C   0  0  0  0  0  0  0  0  0  0  0  0
    2.0899   21.1110   -5.0512 C   0  0  0  0  0  0  0  0  0  0  0  0
    4.7570   18.4696   -3.1239 C   0  0  0  0  0  0  0  0  0  0  0  0
    4.7920   17.2735   -3.3916 O   0  0  0  0  0  0  0  0  0  0  0  0
    5.5344   19.0261   -2.2269 O   0  0  0  0  0  0  0  0  0  0  0  0
    2.7881   19.9668   -2.0511 H   0  0  0  0  0  0  0  0  0  0  0  0
    4.6686   19.0642   -5.7941 H   0  0  0  0  0  0  0  0  0  0  0  0
    3.0586   20.6081   -6.9139 H   0  0  0  0  0  0  0  0  0  0  0  0
    1.3862   21.7947   -5.5485 H   0  0  0  0  0  0  0  0  0  0  0  0
  1  2  2  0
  1  6  1  0
  2  3  1  0
  3  4  2  0
  3  7  1  0
  4  5  1  0
  5  6  2  0
  7  8  2  0
  7  9  1  0
  2 10  1  0
  4 11  1  0
  5 12  1  0
  6 13  1  0
M  CHG  1   9  -1
M  END
>  <filename_input>  (17) 
7Z1Q_NIO_docked.sdf

>  <pdb_id>  (17) 
7Z1Q_NIO

>  <pose_rank>  (17) 
16

>  <num_atoms_heavy>  (17) 
9

>  <num_torsions>  (17) 
1

>  <pose>  (17) 
[1.9996032990784693, 20.960441678682177, -3.726741351780799, 3.4870413961075717, 1.6397727843361471, 0.11634582677143573, 2.220544260662612]

>  <energy>  (17) 
-231.59844435253095

>  <inter_energy>  (17) 
-224.21670765150554

>  <intra_energy>  (17) 
0.0

>  <rmsd>  (17) 
4.60551

>  <sdf_rank>  (17) 
0

$$$$

     RDKit          3D

 13 13  0  0  0  0  0  0  0  0999 V2000
    1.5082   22.4059   -3.4892 N   0  0  0  0  0  0  0  0  0  0  0  0
    0.8765   22.4577   -2.3024 C   0  0  0  0  0  0  0  0  0  0  0  0
    0.6832   21.3534   -1.4849 C   0  0  0  0  0  0  0  0  0  0  0  0
    1.1819   20.1362   -1.9312 C   0  0  0  0  0  0  0  0  0  0  0  0
    1.8197   20.0613   -3.1550 C   0  0  0  0  0  0  0  0  0  0  0  0
    1.9587   21.2156   -3.8955 C   0  0  0  0  0  0  0  0  0  0  0  0
   -0.0189   21.4741   -0.1770 C   0  0  0  0  0  0  0  0  0  0  0  0
   -0.4181   20.4846    0.4272 O   0  0  0  0  0  0  0  0  0  0  0  0
   -0.1544   22.6954    0.2799 O   0  0  0  0  0  0  0  0  0  0  0  0
    0.4917   23.4300   -1.9611 H   0  0  0  0  0  0  0  0  0  0  0  0
    1.0695   19.2340   -1.3120 H   0  0  0  0  0  0  0  0  0  0  0  0
    2.2074   19.1025   -3.5296 H   0  0  0  0  0  0  0  0  0  0  0  0
    2.4659   21.1536   -4.8696 H   0  0  0  0  0  0  0  0  0  0  0  0
  1  2  2  0
  1  6  1  0
  2  3  1  0
  3  4  2  0
  3  7  1  0
  4  5  1  0
  5  6  2  0
  7  8  2  0
  7  9  1  0
  2 10  1  0
  4 11  1  0
  5 12  1  0
  6 13  1  0
M  CHG  1   9  -1
M  END
>  <filename_input>  (18) 
7Z1Q_NIO_docked.sdf

>  <pdb_id>  (18) 
7Z1Q_NIO

>  <pose_rank>  (18) 
17

>  <num_atoms_heavy>  (18) 
9

>  <num_torsions>  (18) 
1

>  <pose>  (18) 
[1.5081582179719673, 22.405932692464237, -3.4891578716820635, 8.261017030940431, 0.6776473975205195, 3.1498025586916425, 3.0305807962761695]

>  <energy>  (18) 
-247.39415683133453

>  <inter_energy>  (18) 
-265.70535081029584

>  <intra_energy>  (18) 
0.0

>  <rmsd>  (18) 
4.01745

>  <sdf_rank>  (18) 
0

$$$$

     RDKit          3D

 13 13  0  0  0  0  0  0  0  0999 V2000
    1.8493   22.7464   -3.0309 N   0  0  0  0  0  0  0  0  0  0  0  0
    1.3381   21.5452   -2.7057 C   0  0  0  0  0  0  0  0  0  0  0  0
    1.1468   20.5177   -3.6182 C   0  0  0  0  0  0  0  0  0  0  0  0
    1.5152   20.7599   -4.9355 C   0  0  0  0  0  0  0  0  0  0  0  0
    2.0273   21.9933   -5.2909 C   0  0  0  0  0  0  0  0  0  0  0  0
    2.1754   22.9507   -4.3104 C   0  0  0  0  0  0  0  0  0  0  0  0
    0.5819   19.2056   -3.1968 C   0  0  0  0  0  0  0  0  0  0  0  0
   -0.1368   18.5504   -3.9437 O   0  0  0  0  0  0  0  0  0  0  0  0
    0.9245   18.8031   -1.9972 O   0  0  0  0  0  0  0  0  0  0  0  0
    1.0559   21.3677   -1.6574 H   0  0  0  0  0  0  0  0  0  0  0  0
    1.3995   19.9717   -5.6940 H   0  0  0  0  0  0  0  0  0  0  0  0
    2.3102   22.2061   -6.3323 H   0  0  0  0  0  0  0  0  0  0  0  0
    2.5825   23.9320   -4.5955 H   0  0  0  0  0  0  0  0  0  0  0  0
  1  2  2  0
  1  6  1  0
  2  3  1  0
  3  4  2  0
  3  7  1  0
  4  5  1  0
  5  6  2  0
  7  8  2  0
  7  9  1  0
  2 10  1  0
  4 11  1  0
  5 12  1  0
  6 13  1  0
M  CHG  1   9  -1
M  END
>  <filename_input>  (19) 
7Z1Q_NIO_docked.sdf

>  <pdb_id>  (19) 
7Z1Q_NIO

>  <pose_rank>  (19) 
18

>  <num_atoms_heavy>  (19) 
9

>  <num_torsions>  (19) 
1

>  <pose>  (19) 
[1.8493219120262818, 22.74637514673383, -3.030947951357385, 9.647704309273806, -1.5411113345758327, 2.81354809420802, 2.68824961908664]

>  <energy>  (19) 
-229.8703805479252

>  <inter_energy>  (19) 
-216.8712476552244

>  <intra_energy>  (19) 
0.0

>  <rmsd>  (19) 
3.84616

>  <sdf_rank>  (19) 
0

$$$$

     RDKit          3D

 13 13  0  0  0  0  0  0  0  0999 V2000
    1.9312   23.0724   -2.2302 N   0  0  0  0  0  0  0  0  0  0  0  0
    1.7964   22.1649   -3.2142 C   0  0  0  0  0  0  0  0  0  0  0  0
    1.7686   22.4904   -4.5627 C   0  0  0  0  0  0  0  0  0  0  0  0
    1.8942   23.8331   -4.8957 C   0  0  0  0  0  0  0  0  0  0  0  0
    2.0177   24.7808   -3.8974 C   0  0  0  0  0  0  0  0  0  0  0  0
    2.0309   24.3563   -2.5861 C   0  0  0  0  0  0  0  0  0  0  0  0
    1.6234   21.4397   -5.6081 C   0  0  0  0  0  0  0  0  0  0  0  0
    0.8150   21.5564   -6.5228 O   0  0  0  0  0  0  0  0  0  0  0  0
    2.4272   20.4109   -5.4894 O   0  0  0  0  0  0  0  0  0  0  0  0
    1.7030   21.1053   -2.9340 H   0  0  0  0  0  0  0  0  0  0  0  0
    1.8954   24.1414   -5.9516 H   0  0  0  0  0  0  0  0  0  0  0  0
    2.1034   25.8495   -4.1437 H   0  0  0  0  0  0  0  0  0  0  0  0
    2.1285   25.1123   -1.7931 H   0  0  0  0  0  0  0  0  0  0  0  0
  1  2  2  0
  1  6  1  0
  2  3  1  0
  3  4  2  0
  3  7  1  0
  4  5  1  0
  5  6  2  0
  7  8  2  0
  7  9  1  0
  2 10  1  0
  4 11  1  0
  5 12  1  0
  6 13  1  0
M  CHG  1   9  -1
M  END
>  <filename_input>  (20) 
7Z1Q_NIO_docked.sdf

>  <pdb_id>  (20) 
7Z1Q_NIO

>  <pose_rank>  (20) 
19

>  <num_atoms_heavy>  (20) 
9

>  <num_torsions>  (20) 
1

>  <pose>  (20) 
[1.9311973264771778, 23.072367392266514, -2.230204837055177, 4.827944877171037, -0.9958486401809268, 0.8858602448505721, 2.4428067132149023]

>  <energy>  (20) 
-287.8178381234388

>  <inter_energy>  (20) 
-276.2561713033035

>  <intra_energy>  (20) 
0.0

>  <rmsd>  (20) 
2.82816

>  <sdf_rank>  (20) 
0

$$$$

     RDKit          3D

 13 13  0  0  0  0  0  0  0  0999 V2000
   -3.0767   12.8584    3.2622 N   0  0  0  0  0  0  0  0  0  0  0  0
   -1.7353   12.7548    3.2575 C   0  0  0  0  0  0  0  0  0  0  0  0
   -0.9034   13.4964    4.0840 C   0  0  0  0  0  0  0  0  0  0  0  0
   -1.5084   14.3862    4.9625 C   0  0  0  0  0  0  0  0  0  0  0  0
   -2.8841   14.5173    4.9701 C   0  0  0  0  0  0  0  0  0  0  0  0
   -3.6234   13.7373    4.1069 C   0  0  0  0  0  0  0  0  0  0  0  0
    0.5762   13.3331    4.0378 C   0  0  0  0  0  0  0  0  0  0  0  0
    1.2951   13.7720    4.9290 O   0  0  0  0  0  0  0  0  0  0  0  0
    1.0392   12.6767    3.0018 O   0  0  0  0  0  0  0  0  0  0  0  0
   -1.2721   12.0421    2.5593 H   0  0  0  0  0  0  0  0  0  0  0  0
   -0.8938   14.9851    5.6507 H   0  0  0  0  0  0  0  0  0  0  0  0
   -3.3778   15.2278    5.6493 H   0  0  0  0  0  0  0  0  0  0  0  0
   -4.7182   13.8438    4.1140 H   0  0  0  0  0  0  0  0  0  0  0  0
  1  2  2  0
  1  6  1  0
  2  3  1  0
  3  4  2  0
  3  7  1  0
  4  5  1  0
  5  6  2  0
  7  8  2  0
  7  9  1  0
  2 10  1  0
  4 11  1  0
  5 12  1  0
  6 13  1  0
M  CHG  1   9  -1
M  END
>  <filename_input>  (21) 
7Z1Q_NIO_docked.sdf

>  <pdb_id>  (21) 
7Z1Q_NIO

>  <pose_rank>  (21) 
20

>  <num_atoms_heavy>  (21) 
9

>  <num_torsions>  (21) 
1

>  <pose>  (21) 
[-3.076704008611934, 12.858384698003851, 3.2621631949153227, -1.0157711426702647, 3.4205686648990246, 3.1675097469821267, 3.5355681049286565]

>  <energy>  (21) 
-89.11768201818715

>  <inter_energy>  (21) 
-93.61282160010659

>  <intra_energy>  (21) 
0.0

>  <rmsd>  (21) 
11.575

>  <sdf_rank>  (21) 
0

$$$$

     RDKit          3D

 13 13  0  0  0  0  0  0  0  0999 V2000
   -3.6508   30.0534  -10.6891 N   0  0  0  0  0  0  0  0  0  0  0  0
   -2.3693   29.6454  -10.6522 C   0  0  0  0  0  0  0  0  0  0  0  0
   -1.6061   29.6102   -9.4940 C   0  0  0  0  0  0  0  0  0  0  0  0
   -2.2188   30.0174   -8.3157 C   0  0  0  0  0  0  0  0  0  0  0  0
   -3.5296   30.4546   -8.3374 C   0  0  0  0  0  0  0  0  0  0  0  0
   -4.2023   30.4554   -9.5405 C   0  0  0  0  0  0  0  0  0  0  0  0
   -0.1925   29.1419   -9.5145 C   0  0  0  0  0  0  0  0  0  0  0  0
    0.1464   28.1093   -8.9466 O   0  0  0  0  0  0  0  0  0  0  0  0
    0.6408   29.8931  -10.1928 O   0  0  0  0  0  0  0  0  0  0  0  0
   -1.9003   29.3216  -11.5930 H   0  0  0  0  0  0  0  0  0  0  0  0
   -1.6619   29.9918   -7.3675 H   0  0  0  0  0  0  0  0  0  0  0  0
   -4.0248   30.7941   -7.4157 H   0  0  0  0  0  0  0  0  0  0  0  0
   -5.2454   30.8045   -9.5557 H   0  0  0  0  0  0  0  0  0  0  0  0
  1  2  2  0
  1  6  1  0
  2  3  1  0
  3  4  2  0
  3  7  1  0
  4  5  1  0
  5  6  2  0
  7  8  2  0
  7  9  1  0
  2 10  1  0
  4 11  1  0
  5 12  1  0
  6 13  1  0
M  CHG  1   9  -1
M  END
>  <filename_input>  (22) 
7Z1Q_NIO_docked.sdf

>  <pdb_id>  (22) 
7Z1Q_NIO

>  <pose_rank>  (22) 
21

>  <num_atoms_heavy>  (22) 
9

>  <num_torsions>  (22) 
1

>  <pose>  (22) 
[-3.6508329411725198, 30.05343967355265, -10.689096322948968, 0.7678599122659362, -0.9497282642962093, -1.5057847370963602, 10.722397817540024]

>  <energy>  (22) 
-122.64938684222521

>  <inter_energy>  (22) 
-110.97505511062623

>  <intra_energy>  (22) 
0.0

>  <rmsd>  (22) 
11.1681

>  <sdf_rank>  (22) 
0

$$$$

     RDKit          3D

 13 13  0  0  0  0  0  0  0  0999 V2000
   -4.8491   13.3625    2.6801 N   0  0  0  0  0  0  0  0  0  0  0  0
   -3.5192   13.3211    2.4814 C   0  0  0  0  0  0  0  0  0  0  0  0
   -2.5904   13.2270    3.5078 C   0  0  0  0  0  0  0  0  0  0  0  0
   -3.0808   13.1675    4.8061 C   0  0  0  0  0  0  0  0  0  0  0  0
   -4.4433   13.2247    5.0300 C   0  0  0  0  0  0  0  0  0  0  0  0
   -5.2846   13.3218    3.9425 C   0  0  0  0  0  0  0  0  0  0  0  0
   -1.1289   13.1784    3.2250 C   0  0  0  0  0  0  0  0  0  0  0  0
   -0.4557   14.2016    3.1659 O   0  0  0  0  0  0  0  0  0  0  0  0
   -0.6240   11.9787    3.0695 O   0  0  0  0  0  0  0  0  0  0  0  0
   -3.1472   13.3643    1.4470 H   0  0  0  0  0  0  0  0  0  0  0  0
   -2.3861   13.0751    5.6540 H   0  0  0  0  0  0  0  0  0  0  0  0
   -4.8471   13.1936    6.0527 H   0  0  0  0  0  0  0  0  0  0  0  0
   -6.3687   13.3680    4.1230 H   0  0  0  0  0  0  0  0  0  0  0  0
  1  2  2  0
  1  6  1  0
  2  3  1  0
  3  4  2  0
  3  7  1  0
  4  5  1  0
  5  6  2  0
  7  8  2  0
  7  9  1  0
  2 10  1  0
  4 11  1  0
  5 12  1  0
  6 13  1  0
M  CHG  1   9  -1
M  END
>  <filename_input>  (23) 
7Z1Q_NIO_docked.sdf

>  <pdb_id>  (23) 
7Z1Q_NIO

>  <pose_rank>  (23) 
22

>  <num_atoms_heavy>  (23) 
9

>  <num_torsions>  (23) 
1

>  <pose>  (23) 
[-4.849147992171894, 13.36252970705526, 2.680077200731011, 0.922961766534567, -0.5391145340871761, -1.44162037703503, 1.7133393193925082]

>  <energy>  (23) 
-119.29623783367039

>  <inter_energy>  (23) 
-92.68236615082458

>  <intra_energy>  (23) 
0.0

>  <rmsd>  (23) 
12.0141

>  <sdf_rank>  (23) 
0

$$$$

     RDKit          3D

 13 13  0  0  0  0  0  0  0  0999 V2000
   -1.8577   13.2660    2.9474 N   0  0  0  0  0  0  0  0  0  0  0  0
   -1.3441   14.1337    3.8381 C   0  0  0  0  0  0  0  0  0  0  0  0
   -0.0768   14.0106    4.3895 C   0  0  0  0  0  0  0  0  0  0  0  0
    0.6917   12.9275    3.9823 C   0  0  0  0  0  0  0  0  0  0  0  0
    0.1744   12.0174    3.0800 C   0  0  0  0  0  0  0  0  0  0  0  0
   -1.0978   12.2260    2.5923 C   0  0  0  0  0  0  0  0  0  0  0  0
    0.4402   15.0078    5.3674 C   0  0  0  0  0  0  0  0  0  0  0  0
   -0.3124   15.7830    5.9473 O   0  0  0  0  0  0  0  0  0  0  0  0
    1.7346   14.9778    5.5727 O   0  0  0  0  0  0  0  0  0  0  0  0
   -1.9636   14.9886    4.1466 H   0  0  0  0  0  0  0  0  0  0  0  0
    1.7098   12.7946    4.3770 H   0  0  0  0  0  0  0  0  0  0  0  0
    0.7645   11.1465    2.7585 H   0  0  0  0  0  0  0  0  0  0  0  0
   -1.5079   11.5000    1.8748 H   0  0  0  0  0  0  0  0  0  0  0  0
  1  2  2  0
  1  6  1  0
  2  3  1  0
  3  4  2  0
  3  7  1  0
  4  5  1  0
  5  6  2  0
  7  8  2  0
  7  9  1  0
  2 10  1  0
  4 11  1  0
  5 12  1  0
  6 13  1  0
M  CHG  1   9  -1
M  END
>  <filename_input>  (24) 
7Z1Q_NIO_docked.sdf

>  <pdb_id>  (24) 
7Z1Q_NIO

>  <pose_rank>  (24) 
23

>  <num_atoms_heavy>  (24) 
9

>  <num_torsions>  (24) 
1

>  <pose>  (24) 
[-1.8576742759508615, 13.265966402265502, 2.947366057705842, -3.0064313075327913, -2.281509311431202, 0.6897850386672069, 0.42852515524893703]

>  <energy>  (24) 
-116.94891499401025

>  <inter_energy>  (24) 
-92.43636608034294

>  <intra_energy>  (24) 
0.0

>  <rmsd>  (24) 
11.3836

>  <sdf_rank>  (24) 
0

$$$$

     RDKit          3D

 13 13  0  0  0  0  0  0  0  0999 V2000
   10.8534   12.9787  -11.0299 N   0  0  0  0  0  0  0  0  0  0  0  0
   10.6528   14.0714  -11.7887 C   0  0  0  0  0  0  0  0  0  0  0  0
   10.2972   15.3103  -11.2750 C   0  0  0  0  0  0  0  0  0  0  0  0
   10.1504   15.4093   -9.8973 C   0  0  0  0  0  0  0  0  0  0  0  0
   10.3370   14.2935   -9.1036 C   0  0  0  0  0  0  0  0  0  0  0  0
   10.6855   13.1060   -9.7106 C   0  0  0  0  0  0  0  0  0  0  0  0
   10.0950   16.4866  -12.1657 C   0  0  0  0  0  0  0  0  0  0  0  0
   11.0250   17.2268  -12.4670 O   0  0  0  0  0  0  0  0  0  0  0  0
    8.8736   16.6529  -12.6120 O   0  0  0  0  0  0  0  0  0  0  0  0
   10.7777   13.9774  -12.8776 H   0  0  0  0  0  0  0  0  0  0  0  0
    9.8862   16.3738   -9.4390 H   0  0  0  0  0  0  0  0  0  0  0  0
   10.2104   14.3516   -8.0124 H   0  0  0  0  0  0  0  0  0  0  0  0
   10.8329   12.2189   -9.0771 H   0  0  0  0  0  0  0  0  0  0  0  0
  1  2  2  0
  1  6  1  0
  2  3  1  0
  3  4  2  0
  3  7  1  0
  4  5  1  0
  5  6  2  0
  7  8  2  0
  7  9  1  0
  2 10  1  0
  4 11  1  0
  5 12  1  0
  6 13  1  0
M  CHG  1   9  -1
M  END
>  <filename_input>  (25) 
7Z1Q_NIO_docked.sdf

>  <pdb_id>  (25) 
7Z1Q_NIO

>  <pose_rank>  (25) 
24

>  <num_atoms_heavy>  (25) 
9

>  <num_torsions>  (25) 
1

>  <pose>  (25) 
[10.853361865837782, 12.97869857480417, -11.029899392515052, -4.677497620072954, -1.8635852977105132, -2.7177951099212674, -1.412857432341477]

>  <energy>  (25) 
-80.21719718659912

>  <inter_energy>  (25) 
-64.6100366776486

>  <intra_energy>  (25) 
0.0

>  <rmsd>  (25) 
13.6611

>  <sdf_rank>  (25) 
0

$$$$

     RDKit          3D

 13 13  0  0  0  0  0  0  0  0999 V2000
    1.6610   19.9700   -1.9460 N   0  0  0  0  0  0  0  0  0  0  0  0
    1.8780   20.6070   -3.1110 C   0  0  0  0  0  0  0  0  0  0  0  0
    1.8460   21.9870   -3.2510 C   0  0  0  0  0  0  0  0  0  0  0  0
    1.5790   22.7360   -2.1120 C   0  0  0  0  0  0  0  0  0  0  0  0
    1.3380   22.0980   -0.9100 C   0  0  0  0  0  0  0  0  0  0  0  0
    1.3890   20.7210   -0.8750 C   0  0  0  0  0  0  0  0  0  0  0  0
    2.1010   22.6360   -4.5670 C   0  0  0  0  0  0  0  0  0  0  0  0
    2.4840   21.9880   -5.5350 O   0  0  0  0  0  0  0  0  0  0  0  0
    1.8670   23.9250   -4.6150 O   0  0  0  0  0  0  0  0  0  0  0  0
    2.0929   19.9996   -4.0026 H   0  0  0  0  0  0  0  0  0  0  0  0
    1.5594   23.8345   -2.1667 H   0  0  0  0  0  0  0  0  0  0  0  0
    1.1107   22.6758   -0.0020 H   0  0  0  0  0  0  0  0  0  0  0  0
    1.1961   20.2151    0.0826 H   0  0  0  0  0  0  0  0  0  0  0  0
  1  2  2  0
  1  6  1  0
  2  3  1  0
  3  4  2  0
  3  7  1  0
  4  5  1  0
  5  6  2  0
  7  8  2  0
  7  9  1  0
  2 10  1  0
  4 11  1  0
  5 12  1  0
  6 13  1  0
M  CHG  1   9  -1
M  END
>  <filename_input>  (26) 
7Z1Q_NIO_docked.sdf

>  <pdb_id>  (26) 
7Z1Q_NIO

>  <pose_rank>  (26) 
25

>  <num_atoms_heavy>  (26) 
9

>  <num_torsions>  (26) 
1

>  <pose>  (26) 
[1.661, 19.97, -1.946, 1e-06, 1e-06, 1e-06, 0.0]

>  <energy>  (26) 
-367.00347011628037

>  <inter_energy>  (26) 
-363.69726241661596

>  <intra_energy>  (26) 
0.0

>  <rmsd>  (26) 
0.0

>  <sdf_rank>  (26) 
0

$$$$
