
     RDKit          3D

 21 23  0  0  0  0  0  0  0  0999 V2000
  -10.5652   14.5539   10.0591 C   0  0  0  0  0  0  0  0  0  0  0  0
   -9.5693   14.4220    9.1087 C   0  0  0  0  0  0  0  0  0  0  0  0
   -8.2520   14.5587    9.5125 C   0  0  0  0  0  0  0  0  0  0  0  0
   -5.8429   14.7659    9.8925 C   0  0  0  0  0  0  0  0  0  0  0  0
   -5.6073   15.1887   12.0145 C   0  0  0  0  0  0  0  0  0  0  0  0
   -7.9359   14.8645   10.8446 C   0  0  0  0  0  0  0  0  0  0  0  0
   -4.5534   14.8867   10.1013 N   0  0  0  0  0  0  0  0  0  0  0  0
   -4.4111   15.1446   11.4791 N   0  0  0  0  0  0  0  0  0  0  0  0
  -10.2586   14.8372   11.3931 C   0  0  0  0  0  0  0  0  0  0  0  0
   -6.5467   14.9690   11.0506 N   0  0  0  0  0  0  0  0  0  0  0  0
   -9.2576   14.8451   14.1510 C   0  0  0  0  0  0  0  0  0  0  0  0
   -8.4369   15.2473   13.0488 O   0  0  0  0  0  0  0  0  0  0  0  0
   -8.9335   15.0016   11.7917 C   0  0  0  0  0  0  0  0  0  0  0  0
   -6.8080   14.4518    8.4920 S   0  0  0  0  0  0  0  0  0  0  0  0
  -11.6169   14.4339    9.7601 H   0  0  0  0  0  0  0  0  0  0  0  0
   -9.8177   14.2136    8.0575 H   0  0  0  0  0  0  0  0  0  0  0  0
   -5.8203   15.3744   13.0776 H   0  0  0  0  0  0  0  0  0  0  0  0
  -11.0678   14.9308   12.1323 H   0  0  0  0  0  0  0  0  0  0  0  0
   -8.7509   15.0934   15.0952 H   0  0  0  0  0  0  0  0  0  0  0  0
  -10.2214   15.3730   14.1022 H   0  0  0  0  0  0  0  0  0  0  0  0
   -9.4310   13.7600   14.1022 H   0  0  0  0  0  0  0  0  0  0  0  0
  1  2  2  0
  1  9  1  0
  2  3  1  0
  3  6  2  0
  3 14  1  0
  4  7  2  0
  4 10  1  0
  4 14  1  0
  5  8  2  0
  5 10  1  0
  6 10  1  0
  6 13  1  0
  7  8  1  0
  9 13  2  0
 11 12  1  0
 12 13  1  0
  1 15  1  0
  2 16  1  0
  5 17  1  0
  9 18  1  0
 11 19  1  0
 11 20  1  0
 11 21  1  0
M  END
>  <filename_input>  (1) 
7Z2O_IAJ_docked.sdf

>  <pdb_id>  (1) 
7Z2O_IAJ

>  <pose_rank>  (1) 
0

>  <num_atoms_heavy>  (1) 
14

>  <num_torsions>  (1) 
1

>  <pose>  (1) 
[-10.565176223470734, 14.553936843316913, 10.059141699589485, -3.0277085931069943, -0.08843594597460896, 0.5976284000104198, -6.052229961160425]

>  <energy>  (1) 
-952.1635413776053

>  <inter_energy>  (1) 
-931.479167071692

>  <intra_energy>  (1) 
0.0

>  <rmsd>  (1) 
3.015

>  <sdf_rank>  (1) 
0

$$$$

     RDKit          3D

 21 23  0  0  0  0  0  0  0  0999 V2000
   -9.3058   15.7506   13.2526 C   0  0  0  0  0  0  0  0  0  0  0  0
   -7.9497   15.9240   13.4606 C   0  0  0  0  0  0  0  0  0  0  0  0
   -7.0831   15.6466   12.4171 C   0  0  0  0  0  0  0  0  0  0  0  0
   -5.2978   15.2243   10.7966 C   0  0  0  0  0  0  0  0  0  0  0  0
   -6.2870   14.5349    8.9846 C   0  0  0  0  0  0  0  0  0  0  0  0
   -7.5643   15.1618   11.1918 C   0  0  0  0  0  0  0  0  0  0  0  0
   -4.3452   14.9878    9.9262 N   0  0  0  0  0  0  0  0  0  0  0  0
   -4.9965   14.5575    8.7532 N   0  0  0  0  0  0  0  0  0  0  0  0
   -9.7962   15.2886   12.0279 C   0  0  0  0  0  0  0  0  0  0  0  0
   -6.5276   14.9347   10.2661 N   0  0  0  0  0  0  0  0  0  0  0  0
  -10.5637   14.7177    9.2785 C   0  0  0  0  0  0  0  0  0  0  0  0
   -9.2102   14.5546    9.7157 O   0  0  0  0  0  0  0  0  0  0  0  0
   -8.9200   14.9837   10.9882 C   0  0  0  0  0  0  0  0  0  0  0  0
   -5.3161   15.7717   12.4372 S   0  0  0  0  0  0  0  0  0  0  0  0
  -10.0109   15.9801   14.0651 H   0  0  0  0  0  0  0  0  0  0  0  0
   -7.5688   16.2739   14.4315 H   0  0  0  0  0  0  0  0  0  0  0  0
   -7.0570   14.2390    8.2569 H   0  0  0  0  0  0  0  0  0  0  0  0
  -10.8797   15.1650   11.8841 H   0  0  0  0  0  0  0  0  0  0  0  0
  -11.2248   14.7974   10.1541 H   0  0  0  0  0  0  0  0  0  0  0  0
  -10.6457   15.6322    8.6728 H   0  0  0  0  0  0  0  0  0  0  0  0
  -10.8606   13.8488    8.6728 H   0  0  0  0  0  0  0  0  0  0  0  0
  1  2  2  0
  1  9  1  0
  2  3  1  0
  3  6  2  0
  3 14  1  0
  4  7  2  0
  4 10  1  0
  4 14  1  0
  5  8  2  0
  5 10  1  0
  6 10  1  0
  6 13  1  0
  7  8  1  0
  9 13  2  0
 11 12  1  0
 12 13  1  0
  1 15  1  0
  2 16  1  0
  5 17  1  0
  9 18  1  0
 11 19  1  0
 11 20  1  0
 11 21  1  0
M  END
>  <filename_input>  (2) 
7Z2O_IAJ_docked.sdf

>  <pdb_id>  (2) 
7Z2O_IAJ

>  <pose_rank>  (2) 
1

>  <num_atoms_heavy>  (2) 
14

>  <num_torsions>  (2) 
1

>  <pose>  (2) 
[-9.305827687966998, 15.750552298648834, 13.25256744726703, 2.657087346364045, -5.067106753322945, 1.9512668557842834, 0.08807274583280233]

>  <energy>  (2) 
-776.9229369282236

>  <inter_energy>  (2) 
-739.9621096290214

>  <intra_energy>  (2) 
0.0

>  <rmsd>  (2) 
0.702331

>  <sdf_rank>  (2) 
0

$$$$

     RDKit          3D

 21 23  0  0  0  0  0  0  0  0999 V2000
  -10.3610   14.9690   12.5303 C   0  0  0  0  0  0  0  0  0  0  0  0
   -9.1234   15.2017   13.1020 C   0  0  0  0  0  0  0  0  0  0  0  0
   -8.0012   15.1287   12.2943 C   0  0  0  0  0  0  0  0  0  0  0  0
   -5.8361   15.0531   11.1552 C   0  0  0  0  0  0  0  0  0  0  0  0
   -6.2696   14.5558    9.0811 C   0  0  0  0  0  0  0  0  0  0  0  0
   -8.1118   14.7865   10.9383 C   0  0  0  0  0  0  0  0  0  0  0  0
   -4.6782   15.0025   10.5406 N   0  0  0  0  0  0  0  0  0  0  0  0
   -4.9709   14.6956    9.1970 N   0  0  0  0  0  0  0  0  0  0  0  0
  -10.4827   14.6487   11.1752 C   0  0  0  0  0  0  0  0  0  0  0  0
   -6.8601   14.7584   10.2936 N   0  0  0  0  0  0  0  0  0  0  0  0
   -9.9282   13.0939    8.5693 C   0  0  0  0  0  0  0  0  0  0  0  0
   -9.2698   14.2807    9.0254 O   0  0  0  0  0  0  0  0  0  0  0  0
   -9.3495   14.5487   10.3705 C   0  0  0  0  0  0  0  0  0  0  0  0
   -6.3164   15.3668   12.7869 S   0  0  0  0  0  0  0  0  0  0  0  0
  -11.2653   15.0372   13.1528 H   0  0  0  0  0  0  0  0  0  0  0  0
   -9.0328   15.4389   14.1723 H   0  0  0  0  0  0  0  0  0  0  0  0
   -6.8010   14.3125    8.1492 H   0  0  0  0  0  0  0  0  0  0  0  0
  -11.4785   14.4745   10.7416 H   0  0  0  0  0  0  0  0  0  0  0  0
  -10.2570   12.5011    9.4355 H   0  0  0  0  0  0  0  0  0  0  0  0
  -10.8020   13.3701    7.9609 H   0  0  0  0  0  0  0  0  0  0  0  0
   -9.2312   12.4987    7.9609 H   0  0  0  0  0  0  0  0  0  0  0  0
  1  2  2  0
  1  9  1  0
  2  3  1  0
  3  6  2  0
  3 14  1  0
  4  7  2  0
  4 10  1  0
  4 14  1  0
  5  8  2  0
  5 10  1  0
  6 10  1  0
  6 13  1  0
  7  8  1  0
  9 13  2  0
 11 12  1  0
 12 13  1  0
  1 15  1  0
  2 16  1  0
  5 17  1  0
  9 18  1  0
 11 19  1  0
 11 20  1  0
 11 21  1  0
M  END
>  <filename_input>  (3) 
7Z2O_IAJ_docked.sdf

>  <pdb_id>  (3) 
7Z2O_IAJ

>  <pose_rank>  (3) 
2

>  <num_atoms_heavy>  (3) 
14

>  <num_torsions>  (3) 
1

>  <pose>  (3) 
[-10.360982495799718, 14.968981170810368, 12.530257052374536, -2.5185714505260504, 5.6485693600542115, -0.6568211094068254, -1.1248333292521266]

>  <energy>  (3) 
-638.4137399049723

>  <inter_energy>  (3) 
-632.7752172947553

>  <intra_energy>  (3) 
0.0

>  <rmsd>  (3) 
0.781126

>  <sdf_rank>  (3) 
0

$$$$

     RDKit          3D

 21 23  0  0  0  0  0  0  0  0999 V2000
  -10.1569   14.8938   12.5758 C   0  0  0  0  0  0  0  0  0  0  0  0
   -9.9897   14.6783   11.2200 C   0  0  0  0  0  0  0  0  0  0  0  0
   -8.7040   14.6843   10.7064 C   0  0  0  0  0  0  0  0  0  0  0  0
   -6.5804   14.6569    9.4896 C   0  0  0  0  0  0  0  0  0  0  0  0
   -5.0354   15.0315   10.9763 C   0  0  0  0  0  0  0  0  0  0  0  0
   -7.6004   14.9437   11.5327 C   0  0  0  0  0  0  0  0  0  0  0  0
   -5.4395   14.6520    8.8420 N   0  0  0  0  0  0  0  0  0  0  0  0
   -4.4460   14.8796    9.8148 N   0  0  0  0  0  0  0  0  0  0  0  0
   -9.0614   15.1316   13.4106 C   0  0  0  0  0  0  0  0  0  0  0  0
   -6.3853   14.9131   10.8216 N   0  0  0  0  0  0  0  0  0  0  0  0
   -6.2864   16.6801   13.9802 C   0  0  0  0  0  0  0  0  0  0  0  0
   -6.5788   15.3478   13.5450 O   0  0  0  0  0  0  0  0  0  0  0  0
   -7.7706   15.1646   12.8867 C   0  0  0  0  0  0  0  0  0  0  0  0
   -8.2309   14.4518    9.0152 S   0  0  0  0  0  0  0  0  0  0  0  0
  -11.1697   14.8779   13.0047 H   0  0  0  0  0  0  0  0  0  0  0  0
  -10.8571   14.5063   10.5657 H   0  0  0  0  0  0  0  0  0  0  0  0
   -4.5204   15.2247   11.9288 H   0  0  0  0  0  0  0  0  0  0  0  0
   -9.2190   15.2936   14.4872 H   0  0  0  0  0  0  0  0  0  0  0  0
   -6.2791   16.7133   15.0797 H   0  0  0  0  0  0  0  0  0  0  0  0
   -5.3004   16.9827   13.5977 H   0  0  0  0  0  0  0  0  0  0  0  0
   -7.0549   17.3678   13.5977 H   0  0  0  0  0  0  0  0  0  0  0  0
  1  2  2  0
  1  9  1  0
  2  3  1  0
  3  6  2  0
  3 14  1  0
  4  7  2  0
  4 10  1  0
  4 14  1  0
  5  8  2  0
  5 10  1  0
  6 10  1  0
  6 13  1  0
  7  8  1  0
  9 13  2  0
 11 12  1  0
 12 13  1  0
  1 15  1  0
  2 16  1  0
  5 17  1  0
  9 18  1  0
 11 19  1  0
 11 20  1  0
 11 21  1  0
M  END
>  <filename_input>  (4) 
7Z2O_IAJ_docked.sdf

>  <pdb_id>  (4) 
7Z2O_IAJ

>  <pose_rank>  (4) 
3

>  <num_atoms_heavy>  (4) 
14

>  <num_torsions>  (4) 
1

>  <pose>  (4) 
[-10.156922951499915, 14.893834225797674, 12.575837656575196, 2.765113772540584, -0.0961950081942212, -1.6258190084994542, 11.077676813586836]

>  <energy>  (4) 
-693.0012159302804

>  <inter_energy>  (4) 
-695.5566010792072

>  <intra_energy>  (4) 
0.8838340727966182

>  <rmsd>  (4) 
3.09121

>  <sdf_rank>  (4) 
0

$$$$

     RDKit          3D

 21 23  0  0  0  0  0  0  0  0999 V2000
   -6.2996   14.0777    9.2155 C   0  0  0  0  0  0  0  0  0  0  0  0
   -5.7632   14.4687   10.4288 C   0  0  0  0  0  0  0  0  0  0  0  0
   -6.6265   14.9002   11.4215 C   0  0  0  0  0  0  0  0  0  0  0  0
   -7.8685   15.7304   13.3604 C   0  0  0  0  0  0  0  0  0  0  0  0
   -9.9655   15.7151   12.7775 C   0  0  0  0  0  0  0  0  0  0  0  0
   -8.0078   14.9785   11.1896 C   0  0  0  0  0  0  0  0  0  0  0  0
   -8.5394   16.1828   14.3930 N   0  0  0  0  0  0  0  0  0  0  0  0
   -9.8953   16.1541   14.0111 N   0  0  0  0  0  0  0  0  0  0  0  0
   -7.6768   14.1318    8.9828 C   0  0  0  0  0  0  0  0  0  0  0  0
   -8.7102   15.4464   12.3170 N   0  0  0  0  0  0  0  0  0  0  0  0
  -10.5339   14.5768    8.6611 C   0  0  0  0  0  0  0  0  0  0  0  0
   -9.9114   14.6863    9.9457 O   0  0  0  0  0  0  0  0  0  0  0  0
   -8.5411   14.5925    9.9740 C   0  0  0  0  0  0  0  0  0  0  0  0
   -6.1892   15.4648   13.0427 S   0  0  0  0  0  0  0  0  0  0  0  0
   -5.6308   13.7178    8.4198 H   0  0  0  0  0  0  0  0  0  0  0  0
   -4.6772   14.4377   10.6008 H   0  0  0  0  0  0  0  0  0  0  0  0
  -10.8940   15.5837   12.2025 H   0  0  0  0  0  0  0  0  0  0  0  0
   -8.0806   13.8090    8.0119 H   0  0  0  0  0  0  0  0  0  0  0  0
  -11.6099   14.3876    8.7899 H   0  0  0  0  0  0  0  0  0  0  0  0
  -10.3907   15.5139    8.1032 H   0  0  0  0  0  0  0  0  0  0  0  0
  -10.0796   13.7448    8.1032 H   0  0  0  0  0  0  0  0  0  0  0  0
  1  2  2  0
  1  9  1  0
  2  3  1  0
  3  6  2  0
  3 14  1  0
  4  7  2  0
  4 10  1  0
  4 14  1  0
  5  8  2  0
  5 10  1  0
  6 10  1  0
  6 13  1  0
  7  8  1  0
  9 13  2  0
 11 12  1  0
 12 13  1  0
  1 15  1  0
  2 16  1  0
  5 17  1  0
  9 18  1  0
 11 19  1  0
 11 20  1  0
 11 21  1  0
M  END
>  <filename_input>  (5) 
7Z2O_IAJ_docked.sdf

>  <pdb_id>  (5) 
7Z2O_IAJ

>  <pose_rank>  (5) 
4

>  <num_atoms_heavy>  (5) 
14

>  <num_torsions>  (5) 
1

>  <pose>  (5) 
[-6.299633468606106, 14.077706497205687, 9.21553084191298, -2.3652214941551795, -0.687618133236203, -2.2629023991363844, -0.44284541628165863]

>  <energy>  (5) 
-454.3967158394632

>  <inter_energy>  (5) 
-434.99602764791734

>  <intra_energy>  (5) 
0.0

>  <rmsd>  (5) 
3.69601

>  <sdf_rank>  (5) 
0

$$$$

     RDKit          3D

 21 23  0  0  0  0  0  0  0  0999 V2000
  -10.7759   15.5127   13.6438 C   0  0  0  0  0  0  0  0  0  0  0  0
   -9.4609   15.6071   14.0615 C   0  0  0  0  0  0  0  0  0  0  0  0
   -8.4594   15.2931   13.1585 C   0  0  0  0  0  0  0  0  0  0  0  0
   -6.4703   14.7892   11.8241 C   0  0  0  0  0  0  0  0  0  0  0  0
   -7.2027   14.1771    9.8681 C   0  0  0  0  0  0  0  0  0  0  0  0
   -8.7706   14.8500   11.8644 C   0  0  0  0  0  0  0  0  0  0  0  0
   -5.4085   14.5093   11.1062 N   0  0  0  0  0  0  0  0  0  0  0  0
   -5.8926   14.1295    9.8387 N   0  0  0  0  0  0  0  0  0  0  0  0
  -11.0949   15.0929   12.3493 C   0  0  0  0  0  0  0  0  0  0  0  0
   -7.6169   14.5753   11.1050 N   0  0  0  0  0  0  0  0  0  0  0  0
  -10.6226   15.3492    9.2038 C   0  0  0  0  0  0  0  0  0  0  0  0
  -10.1985   14.3532   10.1408 O   0  0  0  0  0  0  0  0  0  0  0  0
  -10.0861   14.7509   11.4510 C   0  0  0  0  0  0  0  0  0  0  0  0
   -6.7128   15.3183   13.4529 S   0  0  0  0  0  0  0  0  0  0  0  0
  -11.5848   15.7724   14.3424 H   0  0  0  0  0  0  0  0  0  0  0  0
   -9.2166   15.9240   15.0862 H   0  0  0  0  0  0  0  0  0  0  0  0
   -7.8657   13.9332    9.0248 H   0  0  0  0  0  0  0  0  0  0  0  0
  -12.1482   15.0322   12.0380 H   0  0  0  0  0  0  0  0  0  0  0  0
  -10.9971   16.2287    9.7481 H   0  0  0  0  0  0  0  0  0  0  0  0
   -9.7719   15.6439    8.5718 H   0  0  0  0  0  0  0  0  0  0  0  0
  -11.4246   14.9402    8.5718 H   0  0  0  0  0  0  0  0  0  0  0  0
  1  2  2  0
  1  9  1  0
  2  3  1  0
  3  6  2  0
  3 14  1  0
  4  7  2  0
  4 10  1  0
  4 14  1  0
  5  8  2  0
  5 10  1  0
  6 10  1  0
  6 13  1  0
  7  8  1  0
  9 13  2  0
 11 12  1  0
 12 13  1  0
  1 15  1  0
  2 16  1  0
  5 17  1  0
  9 18  1  0
 11 19  1  0
 11 20  1  0
 11 21  1  0
M  END
>  <filename_input>  (6) 
7Z2O_IAJ_docked.sdf

>  <pdb_id>  (6) 
7Z2O_IAJ

>  <pose_rank>  (6) 
5

>  <num_atoms_heavy>  (6) 
14

>  <num_torsions>  (6) 
1

>  <pose>  (6) 
[-10.775851732430045, 15.512683182403237, 13.643791508101824, -5.945290327974097, 3.7097253162944215, -10.629547699684142, 13.596825378516819]

>  <energy>  (6) 
-481.24626522325354

>  <inter_energy>  (6) 
-487.3668460062567

>  <intra_energy>  (6) 
0.5727359844332636

>  <rmsd>  (6) 
1.06977

>  <sdf_rank>  (6) 
0

$$$$

     RDKit          3D

 21 23  0  0  0  0  0  0  0  0999 V2000
  -10.4239   14.3894   11.3382 C   0  0  0  0  0  0  0  0  0  0  0  0
   -9.6838   14.1516   10.1945 C   0  0  0  0  0  0  0  0  0  0  0  0
   -8.3248   14.4147   10.2235 C   0  0  0  0  0  0  0  0  0  0  0  0
   -5.9235   14.7954    9.9404 C   0  0  0  0  0  0  0  0  0  0  0  0
   -5.2128   15.5696   11.8463 C   0  0  0  0  0  0  0  0  0  0  0  0
   -7.7197   14.9486   11.3711 C   0  0  0  0  0  0  0  0  0  0  0  0
   -4.6378   15.0098    9.7925 N   0  0  0  0  0  0  0  0  0  0  0  0
   -4.1851   15.4955   11.0352 N   0  0  0  0  0  0  0  0  0  0  0  0
   -9.8256   14.9009   12.4933 C   0  0  0  0  0  0  0  0  0  0  0  0
   -6.3370   15.1512   11.1974 N   0  0  0  0  0  0  0  0  0  0  0  0
   -7.8636   17.0416   13.8939 C   0  0  0  0  0  0  0  0  0  0  0  0
   -7.6966   15.6618   13.5499 O   0  0  0  0  0  0  0  0  0  0  0  0
   -8.4628   15.1909   12.5114 C   0  0  0  0  0  0  0  0  0  0  0  0
   -7.1713   14.2114    8.8946 S   0  0  0  0  0  0  0  0  0  0  0  0
  -11.5023   14.1724   11.3390 H   0  0  0  0  0  0  0  0  0  0  0  0
  -10.1631   13.7628    9.2839 H   0  0  0  0  0  0  0  0  0  0  0  0
   -5.1741   15.9160   12.8896 H   0  0  0  0  0  0  0  0  0  0  0  0
  -10.4340   15.0754   13.3930 H   0  0  0  0  0  0  0  0  0  0  0  0
   -7.8765   17.1475   14.9888 H   0  0  0  0  0  0  0  0  0  0  0  0
   -7.0298   17.6265   13.4787 H   0  0  0  0  0  0  0  0  0  0  0  0
   -8.8130   17.4107   13.4787 H   0  0  0  0  0  0  0  0  0  0  0  0
  1  2  2  0
  1  9  1  0
  2  3  1  0
  3  6  2  0
  3 14  1  0
  4  7  2  0
  4 10  1  0
  4 14  1  0
  5  8  2  0
  5 10  1  0
  6 10  1  0
  6 13  1  0
  7  8  1  0
  9 13  2  0
 11 12  1  0
 12 13  1  0
  1 15  1  0
  2 16  1  0
  5 17  1  0
  9 18  1  0
 11 19  1  0
 11 20  1  0
 11 21  1  0
M  END
>  <filename_input>  (7) 
7Z2O_IAJ_docked.sdf

>  <pdb_id>  (7) 
7Z2O_IAJ

>  <pose_rank>  (7) 
6

>  <num_atoms_heavy>  (7) 
14

>  <num_torsions>  (7) 
1

>  <pose>  (7) 
[-10.423945788827007, 14.389449413341454, 11.338246641723089, 2.874176016177678, 0.13106920127922903, -0.9685295150757683, 11.088532324903762]

>  <energy>  (7) 
-796.0828012787315

>  <inter_energy>  (7) 
-800.133911169288

>  <intra_energy>  (7) 
0.7465688340007746

>  <rmsd>  (7) 
2.97649

>  <sdf_rank>  (7) 
0

$$$$

     RDKit          3D

 21 23  0  0  0  0  0  0  0  0999 V2000
   -9.7597   14.8827   14.2611 C   0  0  0  0  0  0  0  0  0  0  0  0
   -9.7268   14.5234   12.9260 C   0  0  0  0  0  0  0  0  0  0  0  0
   -8.5276   14.6365   12.2434 C   0  0  0  0  0  0  0  0  0  0  0  0
   -6.5856   14.7406   10.7572 C   0  0  0  0  0  0  0  0  0  0  0  0
   -4.9458   15.5011   11.9696 C   0  0  0  0  0  0  0  0  0  0  0  0
   -7.3833   15.1422   12.8783 C   0  0  0  0  0  0  0  0  0  0  0  0
   -5.5430   14.8069    9.9637 N   0  0  0  0  0  0  0  0  0  0  0  0
   -4.4845   15.2850   10.7613 N   0  0  0  0  0  0  0  0  0  0  0  0
   -8.6191   15.3671   14.9077 C   0  0  0  0  0  0  0  0  0  0  0  0
   -6.2718   15.1853   12.0148 N   0  0  0  0  0  0  0  0  0  0  0  0
   -6.2137   16.9403   15.6889 C   0  0  0  0  0  0  0  0  0  0  0  0
   -6.1983   15.9277   14.6769 O   0  0  0  0  0  0  0  0  0  0  0  0
   -7.4202   15.5061   14.2114 C   0  0  0  0  0  0  0  0  0  0  0  0
   -8.2323   14.2594   10.5379 S   0  0  0  0  0  0  0  0  0  0  0  0
  -10.6998   14.7855   14.8239 H   0  0  0  0  0  0  0  0  0  0  0  0
  -10.6314   14.1567   12.4188 H   0  0  0  0  0  0  0  0  0  0  0  0
   -4.3542   15.8790   12.8165 H   0  0  0  0  0  0  0  0  0  0  0  0
   -8.6683   15.6401   15.9722 H   0  0  0  0  0  0  0  0  0  0  0  0
   -6.2065   16.4666   16.6817 H   0  0  0  0  0  0  0  0  0  0  0  0
   -5.3251   17.5798   15.5813 H   0  0  0  0  0  0  0  0  0  0  0  0
   -7.1212   17.5525   15.5813 H   0  0  0  0  0  0  0  0  0  0  0  0
  1  2  2  0
  1  9  1  0
  2  3  1  0
  3  6  2  0
  3 14  1  0
  4  7  2  0
  4 10  1  0
  4 14  1  0
  5  8  2  0
  5 10  1  0
  6 10  1  0
  6 13  1  0
  7  8  1  0
  9 13  2  0
 11 12  1  0
 12 13  1  0
  1 15  1  0
  2 16  1  0
  5 17  1  0
  9 18  1  0
 11 19  1  0
 11 20  1  0
 11 21  1  0
M  END
>  <filename_input>  (8) 
7Z2O_IAJ_docked.sdf

>  <pdb_id>  (8) 
7Z2O_IAJ

>  <pose_rank>  (8) 
7

>  <num_atoms_heavy>  (8) 
14

>  <num_torsions>  (8) 
1

>  <pose>  (8) 
[-9.759688863329572, 14.882662137691423, 14.261075024746022, 2.5115461672995734, -0.0012687885451044892, -1.6992741845744335, 11.773889980256318]

>  <energy>  (8) 
-612.9523951264039

>  <inter_energy>  (8) 
-596.9965405266896

>  <intra_energy>  (8) 
0.0

>  <rmsd>  (8) 
3.49578

>  <sdf_rank>  (8) 
0

$$$$

     RDKit          3D

 21 23  0  0  0  0  0  0  0  0999 V2000
   -4.5658   14.0335    9.6067 C   0  0  0  0  0  0  0  0  0  0  0  0
   -5.3892   12.9270    9.5065 C   0  0  0  0  0  0  0  0  0  0  0  0
   -6.7359   13.1294    9.2569 C   0  0  0  0  0  0  0  0  0  0  0  0
   -9.1493   13.1453    8.8489 C   0  0  0  0  0  0  0  0  0  0  0  0
   -9.7115   15.2406    8.6734 C   0  0  0  0  0  0  0  0  0  0  0  0
   -7.2608   14.4259    9.1494 C   0  0  0  0  0  0  0  0  0  0  0  0
  -10.4442   13.1611    8.6385 N   0  0  0  0  0  0  0  0  0  0  0  0
  -10.7948   14.5198    8.5110 N   0  0  0  0  0  0  0  0  0  0  0  0
   -5.0761   15.3285    9.4793 C   0  0  0  0  0  0  0  0  0  0  0  0
   -8.6473   14.4192    8.9032 N   0  0  0  0  0  0  0  0  0  0  0  0
   -6.9042   17.3809    7.8227 C   0  0  0  0  0  0  0  0  0  0  0  0
   -7.1124   16.7124    9.0716 O   0  0  0  0  0  0  0  0  0  0  0  0
   -6.4365   15.5306    9.2556 C   0  0  0  0  0  0  0  0  0  0  0  0
   -7.9897   11.8874    9.1029 S   0  0  0  0  0  0  0  0  0  0  0  0
   -3.4904   13.8920    9.7898 H   0  0  0  0  0  0  0  0  0  0  0  0
   -4.9842   11.9108    9.6223 H   0  0  0  0  0  0  0  0  0  0  0  0
   -9.6678   16.3389    8.6307 H   0  0  0  0  0  0  0  0  0  0  0  0
   -4.4001   16.1928    9.5561 H   0  0  0  0  0  0  0  0  0  0  0  0
   -6.5818   18.4158    8.0100 H   0  0  0  0  0  0  0  0  0  0  0  0
   -6.1279   16.8531    7.2493 H   0  0  0  0  0  0  0  0  0  0  0  0
   -7.8429   17.3873    7.2493 H   0  0  0  0  0  0  0  0  0  0  0  0
  1  2  2  0
  1  9  1  0
  2  3  1  0
  3  6  2  0
  3 14  1  0
  4  7  2  0
  4 10  1  0
  4 14  1  0
  5  8  2  0
  5 10  1  0
  6 10  1  0
  6 13  1  0
  7  8  1  0
  9 13  2  0
 11 12  1  0
 12 13  1  0
  1 15  1  0
  2 16  1  0
  5 17  1  0
  9 18  1  0
 11 19  1  0
 11 20  1  0
 11 21  1  0
M  END
>  <filename_input>  (9) 
7Z2O_IAJ_docked.sdf

>  <pdb_id>  (9) 
7Z2O_IAJ

>  <pose_rank>  (9) 
8

>  <num_atoms_heavy>  (9) 
14

>  <num_torsions>  (9) 
1

>  <pose>  (9) 
[-4.565758498442744, 14.033502682187814, 9.606703173618518, 0.4883580494892368, -2.045545819734729, 2.913072960064248, 1.0746222595632757]

>  <energy>  (9) 
-338.93833270137304

>  <inter_energy>  (9) 
-300.8623333115436

>  <intra_energy>  (9) 
1.1403785464188707

>  <rmsd>  (9) 
4.93825

>  <sdf_rank>  (9) 
0

$$$$

     RDKit          3D

 21 23  0  0  0  0  0  0  0  0999 V2000
   -6.5228   13.4874    8.6947 C   0  0  0  0  0  0  0  0  0  0  0  0
   -5.6412   13.8532    9.6955 C   0  0  0  0  0  0  0  0  0  0  0  0
   -6.1511   14.4503   10.8358 C   0  0  0  0  0  0  0  0  0  0  0  0
   -6.7240   15.5403   12.9512 C   0  0  0  0  0  0  0  0  0  0  0  0
   -8.8848   15.8001   12.9232 C   0  0  0  0  0  0  0  0  0  0  0  0
   -7.5233   14.7160   10.9566 C   0  0  0  0  0  0  0  0  0  0  0  0
   -7.0368   16.1323   14.0794 N   0  0  0  0  0  0  0  0  0  0  0  0
   -8.4376   16.2815   14.0580 N   0  0  0  0  0  0  0  0  0  0  0  0
   -7.8943   13.7285    8.8157 C   0  0  0  0  0  0  0  0  0  0  0  0
   -7.8393   15.3322   12.1828 N   0  0  0  0  0  0  0  0  0  0  0  0
  -10.6759   14.4297    9.2321 C   0  0  0  0  0  0  0  0  0  0  0  0
   -9.7081   14.6434   10.2653 O   0  0  0  0  0  0  0  0  0  0  0  0
   -8.4019   14.3546    9.9523 C   0  0  0  0  0  0  0  0  0  0  0  0
   -5.2351   15.0210   12.2406 S   0  0  0  0  0  0  0  0  0  0  0  0
   -6.1381   12.9982    7.7878 H   0  0  0  0  0  0  0  0  0  0  0  0
   -4.5612   13.6741    9.5881 H   0  0  0  0  0  0  0  0  0  0  0  0
   -9.9407   15.7772   12.6156 H   0  0  0  0  0  0  0  0  0  0  0  0
   -8.5767   13.4223    8.0091 H   0  0  0  0  0  0  0  0  0  0  0  0
  -11.6546   14.2137    9.6854 H   0  0  0  0  0  0  0  0  0  0  0  0
  -10.7520   15.3327    8.6085 H   0  0  0  0  0  0  0  0  0  0  0  0
  -10.3648   13.5786    8.6085 H   0  0  0  0  0  0  0  0  0  0  0  0
  1  2  2  0
  1  9  1  0
  2  3  1  0
  3  6  2  0
  3 14  1  0
  4  7  2  0
  4 10  1  0
  4 14  1  0
  5  8  2  0
  5 10  1  0
  6 10  1  0
  6 13  1  0
  7  8  1  0
  9 13  2  0
 11 12  1  0
 12 13  1  0
  1 15  1  0
  2 16  1  0
  5 17  1  0
  9 18  1  0
 11 19  1  0
 11 20  1  0
 11 21  1  0
M  END
>  <filename_input>  (10) 
7Z2O_IAJ_docked.sdf

>  <pdb_id>  (10) 
7Z2O_IAJ

>  <pose_rank>  (10) 
9

>  <num_atoms_heavy>  (10) 
14

>  <num_torsions>  (10) 
1

>  <pose>  (10) 
[-6.522846820617251, 13.487375563414261, 8.694744465118166, -2.7501144450866586, -0.6551380219930079, -1.9385785760382195, -0.33194826399795624]

>  <energy>  (10) 
-490.7105837928362

>  <inter_energy>  (10) 
-504.0942179303258

>  <intra_energy>  (10) 
0.0

>  <rmsd>  (10) 
3.52202

>  <sdf_rank>  (10) 
0

$$$$

     RDKit          3D

 21 23  0  0  0  0  0  0  0  0999 V2000
   -5.5544   13.4384    9.2033 C   0  0  0  0  0  0  0  0  0  0  0  0
   -6.7687   13.4006    8.5426 C   0  0  0  0  0  0  0  0  0  0  0  0
   -7.8743   13.9544    9.1655 C   0  0  0  0  0  0  0  0  0  0  0  0
  -10.0088   14.8177    9.9961 C   0  0  0  0  0  0  0  0  0  0  0  0
   -9.5913   15.6505   11.9632 C   0  0  0  0  0  0  0  0  0  0  0  0
   -7.7750   14.5035   10.4527 C   0  0  0  0  0  0  0  0  0  0  0  0
  -11.1513   15.2748   10.4508 N   0  0  0  0  0  0  0  0  0  0  0  0
  -10.8673   15.8250   11.7164 N   0  0  0  0  0  0  0  0  0  0  0  0
   -5.4415   14.0029   10.4770 C   0  0  0  0  0  0  0  0  0  0  0  0
   -9.0074   15.0064   10.9124 N   0  0  0  0  0  0  0  0  0  0  0  0
   -5.5029   15.9213   12.7425 C   0  0  0  0  0  0  0  0  0  0  0  0
   -6.6424   15.1554   12.3365 O   0  0  0  0  0  0  0  0  0  0  0  0
   -6.5611   14.5349   11.1134 C   0  0  0  0  0  0  0  0  0  0  0  0
   -9.5305   14.0160    8.5401 S   0  0  0  0  0  0  0  0  0  0  0  0
   -4.6618   13.0167    8.7180 H   0  0  0  0  0  0  0  0  0  0  0  0
   -6.8542   12.9417    7.5466 H   0  0  0  0  0  0  0  0  0  0  0  0
   -9.0717   15.9740   12.8772 H   0  0  0  0  0  0  0  0  0  0  0  0
   -4.4634   14.0274   10.9797 H   0  0  0  0  0  0  0  0  0  0  0  0
   -5.4552   15.9534   13.8410 H   0  0  0  0  0  0  0  0  0  0  0  0
   -4.5881   15.4540   12.3492 H   0  0  0  0  0  0  0  0  0  0  0  0
   -5.5901   16.9449   12.3492 H   0  0  0  0  0  0  0  0  0  0  0  0
  1  2  2  0
  1  9  1  0
  2  3  1  0
  3  6  2  0
  3 14  1  0
  4  7  2  0
  4 10  1  0
  4 14  1  0
  5  8  2  0
  5 10  1  0
  6 10  1  0
  6 13  1  0
  7  8  1  0
  9 13  2  0
 11 12  1  0
 12 13  1  0
  1 15  1  0
  2 16  1  0
  5 17  1  0
  9 18  1  0
 11 19  1  0
 11 20  1  0
 11 21  1  0
M  END
>  <filename_input>  (11) 
7Z2O_IAJ_docked.sdf

>  <pdb_id>  (11) 
7Z2O_IAJ

>  <pose_rank>  (11) 
10

>  <num_atoms_heavy>  (11) 
14

>  <num_torsions>  (11) 
1

>  <pose>  (11) 
[-5.554393069428275, 13.438358035690733, 9.203319542253354, -0.16769177031717344, -3.0214219107995532, 1.0833151121238547, 0.3893046572698152]

>  <energy>  (11) 
-442.77956260863266

>  <inter_energy>  (11) 
-420.464345716592

>  <intra_energy>  (11) 
0.0

>  <rmsd>  (11) 
4.98654

>  <sdf_rank>  (11) 
0

$$$$

     RDKit          3D

 21 23  0  0  0  0  0  0  0  0999 V2000
  -10.7977   15.0656   14.8958 C   0  0  0  0  0  0  0  0  0  0  0  0
  -10.7167   15.0734   13.5152 C   0  0  0  0  0  0  0  0  0  0  0  0
   -9.4705   15.2201   12.9300 C   0  0  0  0  0  0  0  0  0  0  0  0
   -7.4363   15.4833   11.5945 C   0  0  0  0  0  0  0  0  0  0  0  0
   -5.8071   15.6921   13.0226 C   0  0  0  0  0  0  0  0  0  0  0  0
   -8.3227   15.3981   13.7167 C   0  0  0  0  0  0  0  0  0  0  0  0
   -6.3433   15.6335   10.8845 N   0  0  0  0  0  0  0  0  0  0  0  0
   -5.2941   15.7520   11.8174 N   0  0  0  0  0  0  0  0  0  0  0  0
   -9.6565   15.2205   15.6879 C   0  0  0  0  0  0  0  0  0  0  0  0
   -7.1592   15.5364   12.9355 N   0  0  0  0  0  0  0  0  0  0  0  0
   -6.9754   14.7837   16.9053 C   0  0  0  0  0  0  0  0  0  0  0  0
   -7.1801   15.5290   15.7000 O   0  0  0  0  0  0  0  0  0  0  0  0
   -8.4070   15.3957   15.0965 C   0  0  0  0  0  0  0  0  0  0  0  0
   -9.1071   15.2781   11.1972 S   0  0  0  0  0  0  0  0  0  0  0  0
  -11.7773   14.9351   15.3789 H   0  0  0  0  0  0  0  0  0  0  0  0
  -11.6202   14.9657   12.8972 H   0  0  0  0  0  0  0  0  0  0  0  0
   -5.2350   15.7574   13.9599 H   0  0  0  0  0  0  0  0  0  0  0  0
   -9.7453   15.2041   16.7842 H   0  0  0  0  0  0  0  0  0  0  0  0
   -7.1542   15.4346   17.7737 H   0  0  0  0  0  0  0  0  0  0  0  0
   -7.6735   13.9340   16.9340 H   0  0  0  0  0  0  0  0  0  0  0  0
   -5.9413   14.4097   16.9340 H   0  0  0  0  0  0  0  0  0  0  0  0
  1  2  2  0
  1  9  1  0
  2  3  1  0
  3  6  2  0
  3 14  1  0
  4  7  2  0
  4 10  1  0
  4 14  1  0
  5  8  2  0
  5 10  1  0
  6 10  1  0
  6 13  1  0
  7  8  1  0
  9 13  2  0
 11 12  1  0
 12 13  1  0
  1 15  1  0
  2 16  1  0
  5 17  1  0
  9 18  1  0
 11 19  1  0
 11 20  1  0
 11 21  1  0
M  END
>  <filename_input>  (12) 
7Z2O_IAJ_docked.sdf

>  <pdb_id>  (12) 
7Z2O_IAJ

>  <pose_rank>  (12) 
11

>  <num_atoms_heavy>  (12) 
14

>  <num_torsions>  (12) 
1

>  <pose>  (12) 
[-10.797684073426273, 15.065557844563441, 14.89581102338676, -2.494137254982689, -0.08096645703139659, 1.592769109597159, 0.41839382264905484]

>  <energy>  (12) 
-405.4743332735914

>  <inter_energy>  (12) 
-410.168406669586

>  <intra_energy>  (12) 
0.0

>  <rmsd>  (12) 
3.90533

>  <sdf_rank>  (12) 
0

$$$$

     RDKit          3D

 21 23  0  0  0  0  0  0  0  0999 V2000
  -10.4053   13.7480   18.1575 C   0  0  0  0  0  0  0  0  0  0  0  0
  -10.8705   14.1316   16.9129 C   0  0  0  0  0  0  0  0  0  0  0  0
   -9.9841   14.7336   16.0360 C   0  0  0  0  0  0  0  0  0  0  0  0
   -8.6886   15.8363   14.2762 C   0  0  0  0  0  0  0  0  0  0  0  0
   -6.6778   16.0738   15.0748 C   0  0  0  0  0  0  0  0  0  0  0  0
   -8.6572   14.9863   16.4148 C   0  0  0  0  0  0  0  0  0  0  0  0
   -7.9908   16.4350   13.3404 N   0  0  0  0  0  0  0  0  0  0  0  0
   -6.6885   16.5697   13.8609 N   0  0  0  0  0  0  0  0  0  0  0  0
   -9.0792   13.9761   18.5356 C   0  0  0  0  0  0  0  0  0  0  0  0
   -7.9213   15.6100   15.3888 N   0  0  0  0  0  0  0  0  0  0  0  0
   -6.5255   15.7316   18.9422 C   0  0  0  0  0  0  0  0  0  0  0  0
   -6.8623   14.8852   17.8376 O   0  0  0  0  0  0  0  0  0  0  0  0
   -8.1961   14.6070   17.6616 C   0  0  0  0  0  0  0  0  0  0  0  0
  -10.3362   15.3260   14.4041 S   0  0  0  0  0  0  0  0  0  0  0  0
  -11.0910   13.2548   18.8622 H   0  0  0  0  0  0  0  0  0  0  0  0
  -11.9191   13.9626   16.6266 H   0  0  0  0  0  0  0  0  0  0  0  0
   -5.8008   16.0374   15.7377 H   0  0  0  0  0  0  0  0  0  0  0  0
   -8.7307   13.6558   19.5286 H   0  0  0  0  0  0  0  0  0  0  0  0
   -6.7351   15.2050   19.8849 H   0  0  0  0  0  0  0  0  0  0  0  0
   -5.4568   15.9880   18.8951 H   0  0  0  0  0  0  0  0  0  0  0  0
   -7.1258   16.6522   18.8951 H   0  0  0  0  0  0  0  0  0  0  0  0
  1  2  2  0
  1  9  1  0
  2  3  1  0
  3  6  2  0
  3 14  1  0
  4  7  2  0
  4 10  1  0
  4 14  1  0
  5  8  2  0
  5 10  1  0
  6 10  1  0
  6 13  1  0
  7  8  1  0
  9 13  2  0
 11 12  1  0
 12 13  1  0
  1 15  1  0
  2 16  1  0
  5 17  1  0
  9 18  1  0
 11 19  1  0
 11 20  1  0
 11 21  1  0
M  END
>  <filename_input>  (13) 
7Z2O_IAJ_docked.sdf

>  <pdb_id>  (13) 
7Z2O_IAJ

>  <pose_rank>  (13) 
12

>  <num_atoms_heavy>  (13) 
14

>  <num_torsions>  (13) 
1

>  <pose>  (13) 
[-10.40534566183447, 13.74800538366207, 18.157528367714697, 2.4460374703235157, 0.6217375544312655, -2.39046046464469, 11.333091049429449]

>  <energy>  (13) 
-297.35173600696993

>  <inter_energy>  (13) 
-283.95151078739616

>  <intra_energy>  (13) 
0.0

>  <rmsd>  (13) 
6.04737

>  <sdf_rank>  (13) 
0

$$$$

     RDKit          3D

 21 23  0  0  0  0  0  0  0  0999 V2000
  -15.4317   14.1927   20.1571 C   0  0  0  0  0  0  0  0  0  0  0  0
  -14.4861   13.1928   20.2936 C   0  0  0  0  0  0  0  0  0  0  0  0
  -13.2057   13.4295   19.8231 C   0  0  0  0  0  0  0  0  0  0  0  0
  -10.8754   13.5209   19.0796 C   0  0  0  0  0  0  0  0  0  0  0  0
  -10.6128   15.4845   18.1782 C   0  0  0  0  0  0  0  0  0  0  0  0
  -12.8851   14.6376   19.1861 C   0  0  0  0  0  0  0  0  0  0  0  0
   -9.6299   13.5732   18.6710 N   0  0  0  0  0  0  0  0  0  0  0  0
   -9.4663   14.8525   18.1038 N   0  0  0  0  0  0  0  0  0  0  0  0
  -15.1156   15.4080   19.5432 C   0  0  0  0  0  0  0  0  0  0  0  0
  -11.5390   14.6804   18.7745 N   0  0  0  0  0  0  0  0  0  0  0  0
  -13.2049   17.9241   19.2748 C   0  0  0  0  0  0  0  0  0  0  0  0
  -13.3286   16.7622   18.4474 O   0  0  0  0  0  0  0  0  0  0  0  0
  -13.8337   15.6333   19.0457 C   0  0  0  0  0  0  0  0  0  0  0  0
  -11.8317   12.3120   19.8642 S   0  0  0  0  0  0  0  0  0  0  0  0
  -16.4505   14.0287   20.5384 H   0  0  0  0  0  0  0  0  0  0  0  0
  -14.7449   12.2330   20.7645 H   0  0  0  0  0  0  0  0  0  0  0  0
  -10.7990   16.5062   17.8154 H   0  0  0  0  0  0  0  0  0  0  0  0
  -15.8830   16.1908   19.4523 H   0  0  0  0  0  0  0  0  0  0  0  0
  -13.2367   17.6257   20.3331 H   0  0  0  0  0  0  0  0  0  0  0  0
  -12.2484   18.4245   19.0635 H   0  0  0  0  0  0  0  0  0  0  0  0
  -14.0346   18.6147   19.0635 H   0  0  0  0  0  0  0  0  0  0  0  0
  1  2  2  0
  1  9  1  0
  2  3  1  0
  3  6  2  0
  3 14  1  0
  4  7  2  0
  4 10  1  0
  4 14  1  0
  5  8  2  0
  5 10  1  0
  6 10  1  0
  6 13  1  0
  7  8  1  0
  9 13  2  0
 11 12  1  0
 12 13  1  0
  1 15  1  0
  2 16  1  0
  5 17  1  0
  9 18  1  0
 11 19  1  0
 11 20  1  0
 11 21  1  0
M  END
>  <filename_input>  (14) 
7Z2O_IAJ_docked.sdf

>  <pdb_id>  (14) 
7Z2O_IAJ

>  <pose_rank>  (14) 
13

>  <num_atoms_heavy>  (14) 
14

>  <num_torsions>  (14) 
1

>  <pose>  (14) 
[-15.431744776575416, 14.192699673082044, 20.15713394488663, 1.3439483881855063, -0.19948909525668682, -0.5300895638833216, 0.9805108422738978]

>  <energy>  (14) 
-150.56164243807123

>  <inter_energy>  (14) 
-145.97385537796487

>  <intra_energy>  (14) 
0.18174688610705642

>  <rmsd>  (14) 
9.563

>  <sdf_rank>  (14) 
0

$$$$

     RDKit          3D

 21 23  0  0  0  0  0  0  0  0999 V2000
   -3.8513   24.9777    5.3426 C   0  0  0  0  0  0  0  0  0  0  0  0
   -2.6800   25.2510    6.0252 C   0  0  0  0  0  0  0  0  0  0  0  0
   -1.4782   25.1110    5.3522 C   0  0  0  0  0  0  0  0  0  0  0  0
    0.7962   24.9389    4.4640 C   0  0  0  0  0  0  0  0  0  0  0  0
    0.5831   24.2807    2.4003 C   0  0  0  0  0  0  0  0  0  0  0  0
   -1.4458   24.6631    4.0231 C   0  0  0  0  0  0  0  0  0  0  0  0
    2.0129   24.8364    3.9843 N   0  0  0  0  0  0  0  0  0  0  0  0
    1.8632   24.4252    2.6451 N   0  0  0  0  0  0  0  0  0  0  0  0
   -3.8299   24.5517    4.0116 C   0  0  0  0  0  0  0  0  0  0  0  0
   -0.1323   24.5803    3.5221 N   0  0  0  0  0  0  0  0  0  0  0  0
   -3.3799   23.1589    1.4444 C   0  0  0  0  0  0  0  0  0  0  0  0
   -2.3966   24.0113    2.0413 O   0  0  0  0  0  0  0  0  0  0  0  0
   -2.6178   24.3850    3.3447 C   0  0  0  0  0  0  0  0  0  0  0  0
    0.1464   25.3820    6.0044 S   0  0  0  0  0  0  0  0  0  0  0  0
   -4.8166   25.0976    5.8562 H   0  0  0  0  0  0  0  0  0  0  0  0
   -2.7026   25.5717    7.0772 H   0  0  0  0  0  0  0  0  0  0  0  0
    0.1525   23.9663    1.4381 H   0  0  0  0  0  0  0  0  0  0  0  0
   -4.7751   24.3469    3.4875 H   0  0  0  0  0  0  0  0  0  0  0  0
   -3.9584   22.6573    2.2342 H   0  0  0  0  0  0  0  0  0  0  0  0
   -4.0567   23.7608    0.8202 H   0  0  0  0  0  0  0  0  0  0  0  0
   -2.8800   22.4035    0.8202 H   0  0  0  0  0  0  0  0  0  0  0  0
  1  2  2  0
  1  9  1  0
  2  3  1  0
  3  6  2  0
  3 14  1  0
  4  7  2  0
  4 10  1  0
  4 14  1  0
  5  8  2  0
  5 10  1  0
  6 10  1  0
  6 13  1  0
  7  8  1  0
  9 13  2  0
 11 12  1  0
 12 13  1  0
  1 15  1  0
  2 16  1  0
  5 17  1  0
  9 18  1  0
 11 19  1  0
 11 20  1  0
 11 21  1  0
M  END
>  <filename_input>  (15) 
7Z2O_IAJ_docked.sdf

>  <pdb_id>  (15) 
7Z2O_IAJ

>  <pose_rank>  (15) 
14

>  <num_atoms_heavy>  (15) 
14

>  <num_torsions>  (15) 
1

>  <pose>  (15) 
[-3.8512947708386704, 24.977650879869202, 5.342637709564396, 1.875118958972888, 5.812689448749437, -0.10643934376002598, -0.6988253300866052]

>  <energy>  (15) 
-144.44903786403432

>  <inter_energy>  (15) 
-124.53676189103014

>  <intra_energy>  (15) 
0.0

>  <rmsd>  (15) 
13.5847

>  <sdf_rank>  (15) 
0

$$$$

     RDKit          3D

 21 23  0  0  0  0  0  0  0  0999 V2000
   -9.3614   17.7048   16.5904 C   0  0  0  0  0  0  0  0  0  0  0  0
   -8.4398   16.6887   16.4150 C   0  0  0  0  0  0  0  0  0  0  0  0
   -7.4870   16.4874   17.3991 C   0  0  0  0  0  0  0  0  0  0  0  0
   -5.6720   15.8906   18.9290 C   0  0  0  0  0  0  0  0  0  0  0  0
   -5.8211   17.2754   20.6016 C   0  0  0  0  0  0  0  0  0  0  0  0
   -7.4308   17.3195   18.5271 C   0  0  0  0  0  0  0  0  0  0  0  0
   -4.6959   15.5814   19.7492 N   0  0  0  0  0  0  0  0  0  0  0  0
   -4.8109   16.4725   20.8345 N   0  0  0  0  0  0  0  0  0  0  0  0
   -9.3266   18.5251   17.7216 C   0  0  0  0  0  0  0  0  0  0  0  0
   -6.3897   16.9571   19.4034 N   0  0  0  0  0  0  0  0  0  0  0  0
   -9.3354   19.6422   20.4362 C   0  0  0  0  0  0  0  0  0  0  0  0
   -8.1752   19.0132   19.8813 O   0  0  0  0  0  0  0  0  0  0  0  0
   -8.3496   18.3383   18.6974 C   0  0  0  0  0  0  0  0  0  0  0  0
   -6.1974   15.2728   17.4014 S   0  0  0  0  0  0  0  0  0  0  0  0
  -10.1353   17.8704   15.8264 H   0  0  0  0  0  0  0  0  0  0  0  0
   -8.4633   16.0558   15.5155 H   0  0  0  0  0  0  0  0  0  0  0  0
   -6.1582   18.0816   21.2697 H   0  0  0  0  0  0  0  0  0  0  0  0
  -10.0746   19.3226   17.8422 H   0  0  0  0  0  0  0  0  0  0  0  0
   -9.2792   19.6117   21.5343 H   0  0  0  0  0  0  0  0  0  0  0  0
   -9.3812   20.6887   20.1003 H   0  0  0  0  0  0  0  0  0  0  0  0
  -10.2373   19.1096   20.1003 H   0  0  0  0  0  0  0  0  0  0  0  0
  1  2  2  0
  1  9  1  0
  2  3  1  0
  3  6  2  0
  3 14  1  0
  4  7  2  0
  4 10  1  0
  4 14  1  0
  5  8  2  0
  5 10  1  0
  6 10  1  0
  6 13  1  0
  7  8  1  0
  9 13  2  0
 11 12  1  0
 12 13  1  0
  1 15  1  0
  2 16  1  0
  5 17  1  0
  9 18  1  0
 11 19  1  0
 11 20  1  0
 11 21  1  0
M  END
>  <filename_input>  (16) 
7Z2O_IAJ_docked.sdf

>  <pdb_id>  (16) 
7Z2O_IAJ

>  <pose_rank>  (16) 
15

>  <num_atoms_heavy>  (16) 
14

>  <num_torsions>  (16) 
1

>  <pose>  (16) 
[-9.36139790975329, 17.70481165985511, 16.590412227434868, 14.708881218006244, -4.467219873639171, 0.7142568840452835, 0.23921709605021718]

>  <energy>  (16) 
-143.10172949428153

>  <inter_energy>  (16) 
-132.86615823594653

>  <intra_energy>  (16) 
0.0

>  <rmsd>  (16) 
8.46342

>  <sdf_rank>  (16) 
0

$$$$

     RDKit          3D

 21 23  0  0  0  0  0  0  0  0999 V2000
   -3.5708    5.3003    5.7122 C   0  0  0  0  0  0  0  0  0  0  0  0
   -2.3878    5.3309    6.4280 C   0  0  0  0  0  0  0  0  0  0  0  0
   -1.2069    5.5469    5.7384 C   0  0  0  0  0  0  0  0  0  0  0  0
    1.0384    5.8809    4.8226 C   0  0  0  0  0  0  0  0  0  0  0  0
    0.7776    6.1227    2.6753 C   0  0  0  0  0  0  0  0  0  0  0  0
   -1.2044    5.6900    4.3428 C   0  0  0  0  0  0  0  0  0  0  0  0
    2.2398    6.0519    4.3243 N   0  0  0  0  0  0  0  0  0  0  0  0
    2.0585    6.2227    2.9376 N   0  0  0  0  0  0  0  0  0  0  0  0
   -3.5803    5.4636    4.3241 C   0  0  0  0  0  0  0  0  0  0  0  0
    0.0919    5.8930    3.8317 N   0  0  0  0  0  0  0  0  0  0  0  0
   -2.9661    6.9148    1.6873 C   0  0  0  0  0  0  0  0  0  0  0  0
   -2.1990    5.8636    2.2844 O   0  0  0  0  0  0  0  0  0  0  0  0
   -2.3877    5.6533    3.6289 C   0  0  0  0  0  0  0  0  0  0  0  0
    0.4276    5.6125    6.4184 S   0  0  0  0  0  0  0  0  0  0  0  0
   -4.5207    5.1448    6.2446 H   0  0  0  0  0  0  0  0  0  0  0  0
   -2.3853    5.1870    7.5185 H   0  0  0  0  0  0  0  0  0  0  0  0
    0.3256    6.2104    1.6763 H   0  0  0  0  0  0  0  0  0  0  0  0
   -4.5346    5.4423    3.7774 H   0  0  0  0  0  0  0  0  0  0  0  0
   -3.4175    7.5334    2.4770 H   0  0  0  0  0  0  0  0  0  0  0  0
   -2.3095    7.5387    1.0631 H   0  0  0  0  0  0  0  0  0  0  0  0
   -3.7606    6.4799    1.0631 H   0  0  0  0  0  0  0  0  0  0  0  0
  1  2  2  0
  1  9  1  0
  2  3  1  0
  3  6  2  0
  3 14  1  0
  4  7  2  0
  4 10  1  0
  4 14  1  0
  5  8  2  0
  5 10  1  0
  6 10  1  0
  6 13  1  0
  7  8  1  0
  9 13  2  0
 11 12  1  0
 12 13  1  0
  1 15  1  0
  2 16  1  0
  5 17  1  0
  9 18  1  0
 11 19  1  0
 11 20  1  0
 11 21  1  0
M  END
>  <filename_input>  (17) 
7Z2O_IAJ_docked.sdf

>  <pdb_id>  (17) 
7Z2O_IAJ

>  <pose_rank>  (17) 
16

>  <num_atoms_heavy>  (17) 
14

>  <num_torsions>  (17) 
1

>  <pose>  (17) 
[-3.5707596046284995, 5.3003251175677235, 5.71220626960365, -5.516032609181716, 2.025173423979099, -0.2698062232163599, 0.7212972096885426]

>  <energy>  (17) 
-98.46498956916467

>  <inter_energy>  (17) 
-94.52456560079682

>  <intra_energy>  (17) 
0.0

>  <rmsd>  (17) 
13.562

>  <sdf_rank>  (17) 
0

$$$$

     RDKit          3D

 21 23  0  0  0  0  0  0  0  0999 V2000
  -15.0135    5.6154    6.0500 C   0  0  0  0  0  0  0  0  0  0  0  0
  -13.6595    5.3987    6.2294 C   0  0  0  0  0  0  0  0  0  0  0  0
  -12.8238    5.5115    5.1313 C   0  0  0  0  0  0  0  0  0  0  0  0
  -11.0941    5.6095    3.4022 C   0  0  0  0  0  0  0  0  0  0  0  0
  -12.1265    6.1096    1.5525 C   0  0  0  0  0  0  0  0  0  0  0  0
  -13.3419    5.7978    3.8594 C   0  0  0  0  0  0  0  0  0  0  0  0
  -10.1731    5.6551    2.4691 N   0  0  0  0  0  0  0  0  0  0  0  0
  -10.8489    5.9945    1.2803 N   0  0  0  0  0  0  0  0  0  0  0  0
  -15.5360    5.9224    4.7905 C   0  0  0  0  0  0  0  0  0  0  0  0
  -12.3345    5.8625    2.8775 N   0  0  0  0  0  0  0  0  0  0  0  0
  -15.6048    5.2895    1.5950 C   0  0  0  0  0  0  0  0  0  0  0  0
  -15.0146    6.3283    2.3839 O   0  0  0  0  0  0  0  0  0  0  0  0
  -14.6966    6.0083    3.6816 C   0  0  0  0  0  0  0  0  0  0  0  0
  -11.0696    5.2675    5.0975 S   0  0  0  0  0  0  0  0  0  0  0  0
  -15.6912    5.5448    6.9136 H   0  0  0  0  0  0  0  0  0  0  0  0
  -13.2562    5.1429    7.2204 H   0  0  0  0  0  0  0  0  0  0  0  0
  -12.9099    6.3660    0.8241 H   0  0  0  0  0  0  0  0  0  0  0  0
  -16.6157    6.0973    4.6740 H   0  0  0  0  0  0  0  0  0  0  0  0
  -16.0383    4.5266    2.2584 H   0  0  0  0  0  0  0  0  0  0  0  0
  -16.3957    5.7156    0.9602 H   0  0  0  0  0  0  0  0  0  0  0  0
  -14.8340    4.8281    0.9602 H   0  0  0  0  0  0  0  0  0  0  0  0
  1  2  2  0
  1  9  1  0
  2  3  1  0
  3  6  2  0
  3 14  1  0
  4  7  2  0
  4 10  1  0
  4 14  1  0
  5  8  2  0
  5 10  1  0
  6 10  1  0
  6 13  1  0
  7  8  1  0
  9 13  2  0
 11 12  1  0
 12 13  1  0
  1 15  1  0
  2 16  1  0
  5 17  1  0
  9 18  1  0
 11 19  1  0
 11 20  1  0
 11 21  1  0
M  END
>  <filename_input>  (18) 
7Z2O_IAJ_docked.sdf

>  <pdb_id>  (18) 
7Z2O_IAJ

>  <pose_rank>  (18) 
17

>  <num_atoms_heavy>  (18) 
14

>  <num_torsions>  (18) 
1

>  <pose>  (18) 
[-15.013512073284172, 5.61535876066581, 6.05002306702816, -4.577063212446543, -2.4995667945391635, 2.3975415154111563, -1.5602032056803214]

>  <energy>  (18) 
-105.27214561248114

>  <inter_energy>  (18) 
-99.5149317037004

>  <intra_energy>  (18) 
2.1264166833400524

>  <rmsd>  (18) 
13.3425

>  <sdf_rank>  (18) 
0

$$$$

     RDKit          3D

 21 23  0  0  0  0  0  0  0  0999 V2000
  -16.4698   17.0641    5.6723 C   0  0  0  0  0  0  0  0  0  0  0  0
  -15.4640   17.0864    6.6213 C   0  0  0  0  0  0  0  0  0  0  0  0
  -14.5767   18.1492    6.6148 C   0  0  0  0  0  0  0  0  0  0  0  0
  -12.8442   19.8612    6.8571 C   0  0  0  0  0  0  0  0  0  0  0  0
  -13.2238   21.3212    5.2881 C   0  0  0  0  0  0  0  0  0  0  0  0
  -14.6692   19.1578    5.6440 C   0  0  0  0  0  0  0  0  0  0  0  0
  -11.9131   20.7778    6.9761 N   0  0  0  0  0  0  0  0  0  0  0  0
  -12.1770   21.7249    5.9669 N   0  0  0  0  0  0  0  0  0  0  0  0
  -16.5829   18.0759    4.7146 C   0  0  0  0  0  0  0  0  0  0  0  0
  -13.6739   20.1412    5.8030 N   0  0  0  0  0  0  0  0  0  0  0  0
  -16.8426   20.9931    3.7684 C   0  0  0  0  0  0  0  0  0  0  0  0
  -15.6394   20.2226    3.8605 O   0  0  0  0  0  0  0  0  0  0  0  0
  -15.6720   19.1301    4.6929 C   0  0  0  0  0  0  0  0  0  0  0  0
  -13.2038   18.3980    7.7063 S   0  0  0  0  0  0  0  0  0  0  0  0
  -17.1933   16.2355    5.6711 H   0  0  0  0  0  0  0  0  0  0  0  0
  -15.3714   16.2796    7.3632 H   0  0  0  0  0  0  0  0  0  0  0  0
  -13.6702   21.8525    4.4346 H   0  0  0  0  0  0  0  0  0  0  0  0
  -17.3955   18.0398    3.9741 H   0  0  0  0  0  0  0  0  0  0  0  0
  -17.2069   21.2264    4.7798 H   0  0  0  0  0  0  0  0  0  0  0  0
  -16.6384   21.9288    3.2274 H   0  0  0  0  0  0  0  0  0  0  0  0
  -17.6070   20.4161    3.2274 H   0  0  0  0  0  0  0  0  0  0  0  0
  1  2  2  0
  1  9  1  0
  2  3  1  0
  3  6  2  0
  3 14  1  0
  4  7  2  0
  4 10  1  0
  4 14  1  0
  5  8  2  0
  5 10  1  0
  6 10  1  0
  6 13  1  0
  7  8  1  0
  9 13  2  0
 11 12  1  0
 12 13  1  0
  1 15  1  0
  2 16  1  0
  5 17  1  0
  9 18  1  0
 11 19  1  0
 11 20  1  0
 11 21  1  0
M  END
>  <filename_input>  (19) 
7Z2O_IAJ_docked.sdf

>  <pdb_id>  (19) 
7Z2O_IAJ

>  <pose_rank>  (19) 
18

>  <num_atoms_heavy>  (19) 
14

>  <num_torsions>  (19) 
1

>  <pose>  (19) 
[-16.469767163314355, 17.064058602635882, 5.67227498656037, 1.105358962731351, -0.2208549251723191, 0.5361803113360548, -5.544976306445268]

>  <energy>  (19) 
-118.91368720160104

>  <inter_energy>  (19) 
-109.45097297248748

>  <intra_energy>  (19) 
0.0

>  <rmsd>  (19) 
9.93608

>  <sdf_rank>  (19) 
0

$$$$

     RDKit          3D

 21 23  0  0  0  0  0  0  0  0999 V2000
    1.5492   19.6997    1.9368 C   0  0  0  0  0  0  0  0  0  0  0  0
    2.2532   20.2827    2.9746 C   0  0  0  0  0  0  0  0  0  0  0  0
    1.7959   21.4853    3.4860 C   0  0  0  0  0  0  0  0  0  0  0  0
    1.2691   23.6056    4.5896 C   0  0  0  0  0  0  0  0  0  0  0  0
   -0.5203   24.3614    3.6078 C   0  0  0  0  0  0  0  0  0  0  0  0
    0.6703   22.1186    2.9382 C   0  0  0  0  0  0  0  0  0  0  0  0
    0.9861   24.7470    5.1711 N   0  0  0  0  0  0  0  0  0  0  0  0
   -0.1812   25.2196    4.5394 N   0  0  0  0  0  0  0  0  0  0  0  0
    0.4139   20.3126    1.3990 C   0  0  0  0  0  0  0  0  0  0  0  0
    0.3725   23.3306    3.5904 N   0  0  0  0  0  0  0  0  0  0  0  0
   -2.4029   21.6333    1.6782 C   0  0  0  0  0  0  0  0  0  0  0  0
   -1.1294   22.2697    1.5260 O   0  0  0  0  0  0  0  0  0  0  0  0
   -0.0284   21.5366    1.8970 C   0  0  0  0  0  0  0  0  0  0  0  0
    2.5246   22.4336    4.7929 S   0  0  0  0  0  0  0  0  0  0  0  0
    1.8886   18.7368    1.5273 H   0  0  0  0  0  0  0  0  0  0  0  0
    3.1544   19.8027    3.3838 H   0  0  0  0  0  0  0  0  0  0  0  0
   -1.3911   24.4580    2.9425 H   0  0  0  0  0  0  0  0  0  0  0  0
   -0.1334   19.8261    0.5782 H   0  0  0  0  0  0  0  0  0  0  0  0
   -2.6304   21.5196    2.7484 H   0  0  0  0  0  0  0  0  0  0  0  0
   -3.1798   22.2491    1.2016 H   0  0  0  0  0  0  0  0  0  0  0  0
   -2.3768   20.6422    1.2016 H   0  0  0  0  0  0  0  0  0  0  0  0
  1  2  2  0
  1  9  1  0
  2  3  1  0
  3  6  2  0
  3 14  1  0
  4  7  2  0
  4 10  1  0
  4 14  1  0
  5  8  2  0
  5 10  1  0
  6 10  1  0
  6 13  1  0
  7  8  1  0
  9 13  2  0
 11 12  1  0
 12 13  1  0
  1 15  1  0
  2 16  1  0
  5 17  1  0
  9 18  1  0
 11 19  1  0
 11 20  1  0
 11 21  1  0
M  END
>  <filename_input>  (20) 
7Z2O_IAJ_docked.sdf

>  <pdb_id>  (20) 
7Z2O_IAJ

>  <pose_rank>  (20) 
19

>  <num_atoms_heavy>  (20) 
14

>  <num_torsions>  (20) 
1

>  <pose>  (20) 
[1.5491878721825347, 19.69966213460474, 1.936771649930103, 1.6113796895829888, 0.35991631455910084, 1.446128004092101, 0.8608364141369191]

>  <energy>  (20) 
-67.32019077124485

>  <inter_energy>  (20) 
-95.50858811125039

>  <intra_energy>  (20) 
0.0

>  <rmsd>  (20) 
13.9466

>  <sdf_rank>  (20) 
0

$$$$

     RDKit          3D

 21 23  0  0  0  0  0  0  0  0999 V2000
  -16.9045   15.0039   20.1665 C   0  0  0  0  0  0  0  0  0  0  0  0
  -15.8448   14.1154   20.1706 C   0  0  0  0  0  0  0  0  0  0  0  0
  -14.6256   14.5429   19.6728 C   0  0  0  0  0  0  0  0  0  0  0  0
  -12.3623   14.9755   18.8473 C   0  0  0  0  0  0  0  0  0  0  0  0
  -12.3729   17.0280   18.1231 C   0  0  0  0  0  0  0  0  0  0  0  0
  -14.4786   15.8318   19.1388 C   0  0  0  0  0  0  0  0  0  0  0  0
  -11.1535   15.2111   18.3952 N   0  0  0  0  0  0  0  0  0  0  0  0
  -11.1669   16.5457   17.9437 N   0  0  0  0  0  0  0  0  0  0  0  0
  -16.7615   16.2974   19.6564 C   0  0  0  0  0  0  0  0  0  0  0  0
  -13.1691   16.0703   18.6789 N   0  0  0  0  0  0  0  0  0  0  0  0
  -15.1726   19.0373   19.5459 C   0  0  0  0  0  0  0  0  0  0  0  0
  -15.1999   17.9454   18.6203 O   0  0  0  0  0  0  0  0  0  0  0  0
  -15.5410   16.7163   19.1305 C   0  0  0  0  0  0  0  0  0  0  0  0
  -13.1324   13.5973   19.5536 S   0  0  0  0  0  0  0  0  0  0  0  0
  -17.8769   14.6873   20.5717 H   0  0  0  0  0  0  0  0  0  0  0  0
  -15.9675   13.0939   20.5600 H   0  0  0  0  0  0  0  0  0  0  0  0
  -12.6932   18.0483   17.8652 H   0  0  0  0  0  0  0  0  0  0  0  0
  -17.6172   16.9885   19.6701 H   0  0  0  0  0  0  0  0  0  0  0  0
  -15.1823   18.6467   20.5742 H   0  0  0  0  0  0  0  0  0  0  0  0
  -14.2593   19.6297   19.3874 H   0  0  0  0  0  0  0  0  0  0  0  0
  -16.0550   19.6746   19.3874 H   0  0  0  0  0  0  0  0  0  0  0  0
  1  2  2  0
  1  9  1  0
  2  3  1  0
  3  6  2  0
  3 14  1  0
  4  7  2  0
  4 10  1  0
  4 14  1  0
  5  8  2  0
  5 10  1  0
  6 10  1  0
  6 13  1  0
  7  8  1  0
  9 13  2  0
 11 12  1  0
 12 13  1  0
  1 15  1  0
  2 16  1  0
  5 17  1  0
  9 18  1  0
 11 19  1  0
 11 20  1  0
 11 21  1  0
M  END
>  <filename_input>  (21) 
7Z2O_IAJ_docked.sdf

>  <pdb_id>  (21) 
7Z2O_IAJ

>  <pose_rank>  (21) 
20

>  <num_atoms_heavy>  (21) 
14

>  <num_torsions>  (21) 
1

>  <pose>  (21) 
[-16.904486553623006, 15.00394949747657, 20.166494560371774, 1.4210812573316662, -0.05893202127664651, -0.4754419726268819, 0.9767959003538179]

>  <energy>  (21) 
-115.06412406350815

>  <inter_energy>  (21) 
-109.26317118663509

>  <intra_energy>  (21) 
0.16273757615422274

>  <rmsd>  (21) 
10.4327

>  <sdf_rank>  (21) 
0

$$$$

     RDKit          3D

 21 23  0  0  0  0  0  0  0  0999 V2000
  -13.3346    6.5911    9.4736 C   0  0  0  0  0  0  0  0  0  0  0  0
  -12.6060    6.6232    8.2986 C   0  0  0  0  0  0  0  0  0  0  0  0
  -13.2553    6.3221    7.1134 C   0  0  0  0  0  0  0  0  0  0  0  0
  -14.0936    5.8214    4.8689 C   0  0  0  0  0  0  0  0  0  0  0  0
  -16.1996    5.3293    5.1140 C   0  0  0  0  0  0  0  0  0  0  0  0
  -14.6088    5.9531    7.1081 C   0  0  0  0  0  0  0  0  0  0  0  0
  -14.5472    5.5434    3.6697 N   0  0  0  0  0  0  0  0  0  0  0  0
  -15.9132    5.2418    3.8373 N   0  0  0  0  0  0  0  0  0  0  0  0
  -14.6889    6.2456    9.4755 C   0  0  0  0  0  0  0  0  0  0  0  0
  -15.0799    5.6795    5.8095 N   0  0  0  0  0  0  0  0  0  0  0  0
  -17.4406    5.3538    9.2539 C   0  0  0  0  0  0  0  0  0  0  0  0
  -16.6517    5.5868    8.0820 O   0  0  0  0  0  0  0  0  0  0  0  0
  -15.3334    5.9161    8.2848 C   0  0  0  0  0  0  0  0  0  0  0  0
  -12.5456    6.2774    5.4909 S   0  0  0  0  0  0  0  0  0  0  0  0
  -12.8395    6.8418   10.4234 H   0  0  0  0  0  0  0  0  0  0  0  0
  -11.5368    6.8815    8.3054 H   0  0  0  0  0  0  0  0  0  0  0  0
  -17.1905    5.1482    5.5559 H   0  0  0  0  0  0  0  0  0  0  0  0
  -15.2491    6.2336   10.4221 H   0  0  0  0  0  0  0  0  0  0  0  0
  -16.8286    5.5346   10.1498 H   0  0  0  0  0  0  0  0  0  0  0  0
  -18.3041    6.0352    9.2561 H   0  0  0  0  0  0  0  0  0  0  0  0
  -17.7952    4.3125    9.2561 H   0  0  0  0  0  0  0  0  0  0  0  0
  1  2  2  0
  1  9  1  0
  2  3  1  0
  3  6  2  0
  3 14  1  0
  4  7  2  0
  4 10  1  0
  4 14  1  0
  5  8  2  0
  5 10  1  0
  6 10  1  0
  6 13  1  0
  7  8  1  0
  9 13  2  0
 11 12  1  0
 12 13  1  0
  1 15  1  0
  2 16  1  0
  5 17  1  0
  9 18  1  0
 11 19  1  0
 11 20  1  0
 11 21  1  0
M  END
>  <filename_input>  (22) 
7Z2O_IAJ_docked.sdf

>  <pdb_id>  (22) 
7Z2O_IAJ

>  <pose_rank>  (22) 
21

>  <num_atoms_heavy>  (22) 
14

>  <num_torsions>  (22) 
1

>  <pose>  (22) 
[-13.334572365484386, 6.591068640426676, 9.473635298938092, 0.4793853795614671, -4.85263063360123, 0.4433948705326476, -0.36202147694138986]

>  <energy>  (22) 
-98.12676548417474

>  <inter_energy>  (22) 
-88.23225614017188

>  <intra_energy>  (22) 
0.0

>  <rmsd>  (22) 
12.8817

>  <sdf_rank>  (22) 
0

$$$$

     RDKit          3D

 21 23  0  0  0  0  0  0  0  0999 V2000
  -14.4484    6.1521    7.6096 C   0  0  0  0  0  0  0  0  0  0  0  0
  -13.2008    6.0949    7.0157 C   0  0  0  0  0  0  0  0  0  0  0  0
  -13.1320    5.8990    5.6468 C   0  0  0  0  0  0  0  0  0  0  0  0
  -12.6682    5.5424    3.2701 C   0  0  0  0  0  0  0  0  0  0  0  0
  -14.6095    5.3446    2.3059 C   0  0  0  0  0  0  0  0  0  0  0  0
  -14.2972    5.7213    4.8860 C   0  0  0  0  0  0  0  0  0  0  0  0
  -12.4263    5.3423    1.9963 N   0  0  0  0  0  0  0  0  0  0  0  0
  -13.6883    5.2313    1.3797 N   0  0  0  0  0  0  0  0  0  0  0  0
  -15.6156    5.9978    6.8562 C   0  0  0  0  0  0  0  0  0  0  0  0
  -14.0156    5.5290    3.5197 N   0  0  0  0  0  0  0  0  0  0  0  0
  -17.3094    6.8148    4.2622 C   0  0  0  0  0  0  0  0  0  0  0  0
  -16.5674    5.6319    4.5784 O   0  0  0  0  0  0  0  0  0  0  0  0
  -15.5430    5.7731    5.4830 C   0  0  0  0  0  0  0  0  0  0  0  0
  -11.6659    5.7729    4.6606 S   0  0  0  0  0  0  0  0  0  0  0  0
  -14.5235    6.3221    8.6938 H   0  0  0  0  0  0  0  0  0  0  0  0
  -12.2855    6.2025    7.6162 H   0  0  0  0  0  0  0  0  0  0  0  0
  -15.6945    5.2982    2.1309 H   0  0  0  0  0  0  0  0  0  0  0  0
  -16.5969    6.0539    7.3502 H   0  0  0  0  0  0  0  0  0  0  0  0
  -17.6212    7.3118    5.1926 H   0  0  0  0  0  0  0  0  0  0  0  0
  -16.6778    7.4980    3.6754 H   0  0  0  0  0  0  0  0  0  0  0  0
  -18.1994    6.5434    3.6754 H   0  0  0  0  0  0  0  0  0  0  0  0
  1  2  2  0
  1  9  1  0
  2  3  1  0
  3  6  2  0
  3 14  1  0
  4  7  2  0
  4 10  1  0
  4 14  1  0
  5  8  2  0
  5 10  1  0
  6 10  1  0
  6 13  1  0
  7  8  1  0
  9 13  2  0
 11 12  1  0
 12 13  1  0
  1 15  1  0
  2 16  1  0
  5 17  1  0
  9 18  1  0
 11 19  1  0
 11 20  1  0
 11 21  1  0
M  END
>  <filename_input>  (23) 
7Z2O_IAJ_docked.sdf

>  <pdb_id>  (23) 
7Z2O_IAJ

>  <pose_rank>  (23) 
22

>  <num_atoms_heavy>  (23) 
14

>  <num_torsions>  (23) 
1

>  <pose>  (23) 
[-14.448434389449407, 6.152126327405801, 7.609601553957019, 0.03426094316188229, 0.8139937132854056, -0.2217812609698214, 1.0621585599151595]

>  <energy>  (23) 
-112.77275993553636

>  <inter_energy>  (23) 
-77.21925900371562

>  <intra_energy>  (23) 
0.9581783974786395

>  <rmsd>  (23) 
13.4457

>  <sdf_rank>  (23) 
0

$$$$

     RDKit          3D

 21 23  0  0  0  0  0  0  0  0999 V2000
  -17.6752   14.3075   19.1851 C   0  0  0  0  0  0  0  0  0  0  0  0
  -17.1366   13.1523   18.6485 C   0  0  0  0  0  0  0  0  0  0  0  0
  -15.7585   13.0388   18.5801 C   0  0  0  0  0  0  0  0  0  0  0  0
  -13.3791   12.5394   18.2962 C   0  0  0  0  0  0  0  0  0  0  0  0
  -12.3094   14.2728   19.0634 C   0  0  0  0  0  0  0  0  0  0  0  0
  -14.9283   14.0864   19.0060 C   0  0  0  0  0  0  0  0  0  0  0  0
  -12.1024   12.2816   18.1390 N   0  0  0  0  0  0  0  0  0  0  0  0
  -11.4195   13.4019   18.6524 N   0  0  0  0  0  0  0  0  0  0  0  0
  -16.8554   15.3477   19.6320 C   0  0  0  0  0  0  0  0  0  0  0  0
  -13.5629   13.7804   18.8476 N   0  0  0  0  0  0  0  0  0  0  0  0
  -14.4391   16.3971   21.3537 C   0  0  0  0  0  0  0  0  0  0  0  0
  -14.5080   16.1339   19.9481 O   0  0  0  0  0  0  0  0  0  0  0  0
  -15.4692   15.2426   19.5367 C   0  0  0  0  0  0  0  0  0  0  0  0
  -14.8323   11.6778   17.9257 S   0  0  0  0  0  0  0  0  0  0  0  0
  -18.7678   14.4096   19.2614 H   0  0  0  0  0  0  0  0  0  0  0  0
  -17.7873   12.3433   18.2849 H   0  0  0  0  0  0  0  0  0  0  0  0
  -12.0803   15.2501   19.5132 H   0  0  0  0  0  0  0  0  0  0  0  0
  -17.3070   16.2542   20.0613 H   0  0  0  0  0  0  0  0  0  0  0  0
  -14.6793   15.4795   21.9108 H   0  0  0  0  0  0  0  0  0  0  0  0
  -13.4237   16.7297   21.6152 H   0  0  0  0  0  0  0  0  0  0  0  0
  -15.1615   17.1844   21.6152 H   0  0  0  0  0  0  0  0  0  0  0  0
  1  2  2  0
  1  9  1  0
  2  3  1  0
  3  6  2  0
  3 14  1  0
  4  7  2  0
  4 10  1  0
  4 14  1  0
  5  8  2  0
  5 10  1  0
  6 10  1  0
  6 13  1  0
  7  8  1  0
  9 13  2  0
 11 12  1  0
 12 13  1  0
  1 15  1  0
  2 16  1  0
  5 17  1  0
  9 18  1  0
 11 19  1  0
 11 20  1  0
 11 21  1  0
M  END
>  <filename_input>  (24) 
7Z2O_IAJ_docked.sdf

>  <pdb_id>  (24) 
7Z2O_IAJ

>  <pose_rank>  (24) 
23

>  <num_atoms_heavy>  (24) 
14

>  <num_torsions>  (24) 
1

>  <pose>  (24) 
[-17.675186196482134, 14.307531781878675, 19.185050484569423, -9.316264853664373, 2.242974452697017, 3.583255271605722, 0.9211342937036056]

>  <energy>  (24) 
-109.40854106369521

>  <inter_energy>  (24) 
-102.80000278612485

>  <intra_energy>  (24) 
0.011145887713484426

>  <rmsd>  (24) 
10.9113

>  <sdf_rank>  (24) 
0

$$$$

     RDKit          3D

 21 23  0  0  0  0  0  0  0  0999 V2000
    2.3370    7.8038    5.4692 C   0  0  0  0  0  0  0  0  0  0  0  0
    1.4480    6.7824    5.7501 C   0  0  0  0  0  0  0  0  0  0  0  0
    0.4808    6.4743    4.8086 C   0  0  0  0  0  0  0  0  0  0  0  0
   -1.3485    5.7040    3.3763 C   0  0  0  0  0  0  0  0  0  0  0  0
   -1.2730    6.9468    1.5910 C   0  0  0  0  0  0  0  0  0  0  0  0
    0.3778    7.2070    3.6167 C   0  0  0  0  0  0  0  0  0  0  0  0
   -2.3325    5.3016    2.6076 N   0  0  0  0  0  0  0  0  0  0  0  0
   -2.2651    6.1011    1.4494 N   0  0  0  0  0  0  0  0  0  0  0  0
    2.2557    8.5250    4.2746 C   0  0  0  0  0  0  0  0  0  0  0  0
   -0.6708    6.7452    2.7980 N   0  0  0  0  0  0  0  0  0  0  0  0
    2.2022    9.2711    1.4082 C   0  0  0  0  0  0  0  0  0  0  0  0
    1.0461    8.7997    2.1090 O   0  0  0  0  0  0  0  0  0  0  0  0
    1.2641    8.2314    3.3407 C   0  0  0  0  0  0  0  0  0  0  0  0
   -0.7742    5.2307    4.9376 S   0  0  0  0  0  0  0  0  0  0  0  0
    3.1218    8.0531    6.1985 H   0  0  0  0  0  0  0  0  0  0  0  0
    1.5080    6.2282    6.6984 H   0  0  0  0  0  0  0  0  0  0  0  0
   -0.9727    7.7025    0.8503 H   0  0  0  0  0  0  0  0  0  0  0  0
    2.9785    9.3287    4.0706 H   0  0  0  0  0  0  0  0  0  0  0  0
    2.9684    9.5835    2.1330 H   0  0  0  0  0  0  0  0  0  0  0  0
    2.6024    8.4643    0.7765 H   0  0  0  0  0  0  0  0  0  0  0  0
    1.9241   10.1276    0.7765 H   0  0  0  0  0  0  0  0  0  0  0  0
  1  2  2  0
  1  9  1  0
  2  3  1  0
  3  6  2  0
  3 14  1  0
  4  7  2  0
  4 10  1  0
  4 14  1  0
  5  8  2  0
  5 10  1  0
  6 10  1  0
  6 13  1  0
  7  8  1  0
  9 13  2  0
 11 12  1  0
 12 13  1  0
  1 15  1  0
  2 16  1  0
  5 17  1  0
  9 18  1  0
 11 19  1  0
 11 20  1  0
 11 21  1  0
M  END
>  <filename_input>  (25) 
7Z2O_IAJ_docked.sdf

>  <pdb_id>  (25) 
7Z2O_IAJ

>  <pose_rank>  (25) 
24

>  <num_atoms_heavy>  (25) 
14

>  <num_torsions>  (25) 
1

>  <pose>  (25) 
[2.3370288948510543, 7.8038365539963035, 5.469167757365677, -0.08330675489349938, -0.4830652696203112, 3.7171534184851387, 0.3618457963103462]

>  <energy>  (25) 
-101.47383121042094

>  <inter_energy>  (25) 
-93.57958714674619

>  <intra_energy>  (25) 
0.0

>  <rmsd>  (25) 
14.3112

>  <sdf_rank>  (25) 
0

$$$$

     RDKit          3D

 21 23  0  0  0  0  0  0  0  0999 V2000
  -10.0790   15.4510   13.1260 C   0  0  0  0  0  0  0  0  0  0  0  0
   -8.8090   15.6890   13.6190 C   0  0  0  0  0  0  0  0  0  0  0  0
   -7.7360   15.5870   12.7500 C   0  0  0  0  0  0  0  0  0  0  0  0
   -5.6410   15.4660   11.4900 C   0  0  0  0  0  0  0  0  0  0  0  0
   -6.1970   14.9190    9.4580 C   0  0  0  0  0  0  0  0  0  0  0  0
   -7.9270   15.2110   11.4120 C   0  0  0  0  0  0  0  0  0  0  0  0
   -4.5210   15.3910   10.8110 N   0  0  0  0  0  0  0  0  0  0  0  0
   -4.8930   15.0520    9.4950 N   0  0  0  0  0  0  0  0  0  0  0  0
  -10.2810   15.0970   11.7890 C   0  0  0  0  0  0  0  0  0  0  0  0
   -6.7150   15.1570   10.6970 N   0  0  0  0  0  0  0  0  0  0  0  0
  -10.4680   14.6780    8.9240 C   0  0  0  0  0  0  0  0  0  0  0  0
   -9.1970   14.6650    9.5830 O   0  0  0  0  0  0  0  0  0  0  0  0
   -9.1970   14.9680   10.9230 C   0  0  0  0  0  0  0  0  0  0  0  0
   -6.0240   15.8250   13.1380 S   0  0  0  0  0  0  0  0  0  0  0  0
  -10.9453   15.5419   13.7978 H   0  0  0  0  0  0  0  0  0  0  0  0
   -8.6551   15.9529   14.6757 H   0  0  0  0  0  0  0  0  0  0  0  0
   -6.7830   14.6559    8.5650 H   0  0  0  0  0  0  0  0  0  0  0  0
  -11.3013   14.9193   11.4184 H   0  0  0  0  0  0  0  0  0  0  0  0
  -11.2708   14.6862    9.6759 H   0  0  0  0  0  0  0  0  0  0  0  0
  -10.5457   15.5770    8.2949 H   0  0  0  0  0  0  0  0  0  0  0  0
  -10.5640   13.7808    8.2949 H   0  0  0  0  0  0  0  0  0  0  0  0
  1  2  2  0
  1  9  1  0
  2  3  1  0
  3  6  2  0
  3 14  1  0
  4  7  2  0
  4 10  1  0
  4 14  1  0
  5  8  2  0
  5 10  1  0
  6 10  1  0
  6 13  1  0
  7  8  1  0
  9 13  2  0
 11 12  1  0
 12 13  1  0
  1 15  1  0
  2 16  1  0
  5 17  1  0
  9 18  1  0
 11 19  1  0
 11 20  1  0
 11 21  1  0
M  END
>  <filename_input>  (26) 
7Z2O_IAJ_docked.sdf

>  <pdb_id>  (26) 
7Z2O_IAJ

>  <pose_rank>  (26) 
25

>  <num_atoms_heavy>  (26) 
14

>  <num_torsions>  (26) 
1

>  <pose>  (26) 
[-10.079, 15.451, 13.126, 1e-06, 1e-06, 1e-06, 0.0]

>  <energy>  (26) 
-662.9738023438845

>  <inter_energy>  (26) 
-656.8284943043839

>  <intra_energy>  (26) 
0.0

>  <rmsd>  (26) 
0.0

>  <sdf_rank>  (26) 
0

$$$$
