
     RDKit          3D

 26 27  0  0  0  0  0  0  0  0999 V2000
   18.2210   24.1565    3.5159 C   0  0  0  0  0  0  0  0  0  0  0  0
   18.3235   30.2286    6.5084 C   0  0  0  0  0  0  0  0  0  0  0  0
   17.4872   28.7640    4.6132 C   0  0  0  0  0  0  0  0  0  0  0  0
   16.1986   28.7672    3.9796 C   0  0  0  0  0  0  0  0  0  0  0  0
   15.6945   27.5617    3.5493 C   0  0  0  0  0  0  0  0  0  0  0  0
   17.6148   26.4698    4.3130 C   0  0  0  0  0  0  0  0  0  0  0  0
   14.2318   29.1196    3.0622 C   0  0  0  0  0  0  0  0  0  0  0  0
   13.6416   26.7713    2.3775 C   0  0  0  0  0  0  0  0  0  0  0  0
   18.0873   29.9980    5.0849 N   0  0  0  0  0  0  0  0  0  0  0  0
   16.4242   26.4337    3.7259 N   0  0  0  0  0  0  0  0  0  0  0  0
   18.1330   27.6162    4.7604 N   0  0  0  0  0  0  0  0  0  0  0  0
   18.3787   25.2469    4.4691 N   0  0  0  0  0  0  0  0  0  0  0  0
   14.4884   27.8011    2.9781 N   0  0  0  0  0  0  0  0  0  0  0  0
   15.2688   29.7277    3.6695 N   0  0  0  0  0  0  0  0  0  0  0  0
   18.0843   23.2105    4.0603 H   0  0  0  0  0  0  0  0  0  0  0  0
   17.3410   24.3464    2.8839 H   0  0  0  0  0  0  0  0  0  0  0  0
   19.1188   24.0894    2.8839 H   0  0  0  0  0  0  0  0  0  0  0  0
   17.6598   29.5807    7.0999 H   0  0  0  0  0  0  0  0  0  0  0  0
   19.3716   29.9965    6.7485 H   0  0  0  0  0  0  0  0  0  0  0  0
   18.1169   31.2820    6.7485 H   0  0  0  0  0  0  0  0  0  0  0  0
   13.3232   29.6191    2.6949 H   0  0  0  0  0  0  0  0  0  0  0  0
   13.1588   26.1840    3.1725 H   0  0  0  0  0  0  0  0  0  0  0  0
   12.8708   27.2479    1.7542 H   0  0  0  0  0  0  0  0  0  0  0  0
   14.2583   26.1071    1.7542 H   0  0  0  0  0  0  0  0  0  0  0  0
   18.3516   30.7245    4.4042 H   0  0  0  0  0  0  0  0  0  0  0  0
   19.0351   25.1490    5.2568 H   0  0  0  0  0  0  0  0  0  0  0  0
  1 12  1  0
  2  9  1  0
  3  4  2  0
  3  9  1  0
  3 11  1  0
  4  5  1  0
  4 14  1  0
  5 10  2  0
  5 13  1  0
  6 10  1  0
  6 11  2  0
  6 12  1  0
  7 13  1  0
  7 14  2  0
  8 13  1  0
  1 15  1  0
  1 16  1  0
  1 17  1  0
  2 18  1  0
  2 19  1  0
  2 20  1  0
  7 21  1  0
  8 22  1  0
  8 23  1  0
  8 24  1  0
  9 25  1  0
 12 26  1  0
M  END
>  <filename_input>  (1) 
7Z7F_IF3_docked.sdf

>  <pdb_id>  (1) 
7Z7F_IF3

>  <pose_rank>  (1) 
0

>  <num_atoms_heavy>  (1) 
14

>  <num_torsions>  (1) 
1

>  <pose>  (1) 
[18.221046778474314, 24.156546860318645, 3.5159365810149996, 2.686220453704238, -0.7909780226241366, 0.9362302052308267, 4.951614384310349]

>  <energy>  (1) 
-628.2370717447441

>  <inter_energy>  (1) 
-632.1214769437481

>  <intra_energy>  (1) 
0.0

>  <rmsd>  (1) 
3.60479

>  <sdf_rank>  (1) 
0

$$$$

     RDKit          3D

 26 27  0  0  0  0  0  0  0  0999 V2000
   18.9024   30.5985    6.2832 C   0  0  0  0  0  0  0  0  0  0  0  0
   18.3392   24.8372    3.6419 C   0  0  0  0  0  0  0  0  0  0  0  0
   17.0024   26.9899    3.7653 C   0  0  0  0  0  0  0  0  0  0  0  0
   15.7917   27.7229    3.5231 C   0  0  0  0  0  0  0  0  0  0  0  0
   15.7598   29.0464    3.8969 C   0  0  0  0  0  0  0  0  0  0  0  0
   17.9519   28.8895    4.6926 C   0  0  0  0  0  0  0  0  0  0  0  0
   13.8148   28.5435    3.0205 C   0  0  0  0  0  0  0  0  0  0  0  0
   14.0958   30.9016    3.8525 C   0  0  0  0  0  0  0  0  0  0  0  0
   17.1078   25.5879    3.4063 N   0  0  0  0  0  0  0  0  0  0  0  0
   16.8501   29.6001    4.4807 N   0  0  0  0  0  0  0  0  0  0  0  0
   18.0306   27.6070    4.3296 N   0  0  0  0  0  0  0  0  0  0  0  0
   19.0947   29.5071    5.3375 N   0  0  0  0  0  0  0  0  0  0  0  0
   14.5313   29.5307    3.5891 N   0  0  0  0  0  0  0  0  0  0  0  0
   14.5688   27.4284    2.9744 N   0  0  0  0  0  0  0  0  0  0  0  0
   18.9708   30.2101    7.3101 H   0  0  0  0  0  0  0  0  0  0  0  0
   19.6802   31.3605    6.1268 H   0  0  0  0  0  0  0  0  0  0  0  0
   17.9111   31.0489    6.1268 H   0  0  0  0  0  0  0  0  0  0  0  0
   18.5054   24.7358    4.7245 H   0  0  0  0  0  0  0  0  0  0  0  0
   18.2520   23.8384    3.1893 H   0  0  0  0  0  0  0  0  0  0  0  0
   19.1871   25.3721    3.1893 H   0  0  0  0  0  0  0  0  0  0  0  0
   12.7818   28.6327    2.6533 H   0  0  0  0  0  0  0  0  0  0  0  0
   14.0432   31.0673    4.9386 H   0  0  0  0  0  0  0  0  0  0  0  0
   14.8143   31.6063    3.4084 H   0  0  0  0  0  0  0  0  0  0  0  0
   13.1023   31.0624    3.4084 H   0  0  0  0  0  0  0  0  0  0  0  0
   16.3003   25.1134    2.9778 H   0  0  0  0  0  0  0  0  0  0  0  0
   20.0457   29.1730    5.1260 H   0  0  0  0  0  0  0  0  0  0  0  0
  1 12  1  0
  2  9  1  0
  3  4  2  0
  3  9  1  0
  3 11  1  0
  4  5  1  0
  4 14  1  0
  5 10  2  0
  5 13  1  0
  6 10  1  0
  6 11  2  0
  6 12  1  0
  7 13  1  0
  7 14  2  0
  8 13  1  0
  1 15  1  0
  1 16  1  0
  1 17  1  0
  2 18  1  0
  2 19  1  0
  2 20  1  0
  7 21  1  0
  8 22  1  0
  8 23  1  0
  8 24  1  0
  9 25  1  0
 12 26  1  0
M  END
>  <filename_input>  (2) 
7Z7F_IF3_docked.sdf

>  <pdb_id>  (2) 
7Z7F_IF3

>  <pose_rank>  (2) 
1

>  <num_atoms_heavy>  (2) 
14

>  <num_torsions>  (2) 
1

>  <pose>  (2) 
[18.902428087408413, 30.59846984598737, 6.2831861452784965, 5.433910648324441, 0.2988295468934753, 2.9455975973689257, -0.20186753364304563]

>  <energy>  (2) 
-668.4498188226413

>  <inter_energy>  (2) 
-645.0127717284344

>  <intra_energy>  (2) 
0.0

>  <rmsd>  (2) 
0.306431

>  <sdf_rank>  (2) 
0

$$$$

     RDKit          3D

 26 27  0  0  0  0  0  0  0  0999 V2000
   12.9630   26.7003    2.0916 C   0  0  0  0  0  0  0  0  0  0  0  0
   18.0284   30.1629    5.9867 C   0  0  0  0  0  0  0  0  0  0  0  0
   16.5557   28.9932    4.2840 C   0  0  0  0  0  0  0  0  0  0  0  0
   17.3593   27.8041    4.3317 C   0  0  0  0  0  0  0  0  0  0  0  0
   16.9067   26.6987    3.6494 C   0  0  0  0  0  0  0  0  0  0  0  0
   15.0139   27.8826    2.9576 C   0  0  0  0  0  0  0  0  0  0  0  0
   18.8058   26.1717    4.6084 C   0  0  0  0  0  0  0  0  0  0  0  0
   17.6699   24.3530    3.2916 C   0  0  0  0  0  0  0  0  0  0  0  0
   16.9638   30.1956    4.9862 N   0  0  0  0  0  0  0  0  0  0  0  0
   15.7328   26.7660    2.9762 N   0  0  0  0  0  0  0  0  0  0  0  0
   15.4254   28.9830    3.5923 N   0  0  0  0  0  0  0  0  0  0  0  0
   13.7522   27.9155    2.2434 N   0  0  0  0  0  0  0  0  0  0  0  0
   17.8053   25.7015    3.8408 N   0  0  0  0  0  0  0  0  0  0  0  0
   18.5487   27.4561    4.9213 N   0  0  0  0  0  0  0  0  0  0  0  0
   12.7056   26.3038    3.0848 H   0  0  0  0  0  0  0  0  0  0  0  0
   12.0406   26.9289    1.5376 H   0  0  0  0  0  0  0  0  0  0  0  0
   13.5471   25.9506    1.5376 H   0  0  0  0  0  0  0  0  0  0  0  0
   17.5859   30.1765    6.9936 H   0  0  0  0  0  0  0  0  0  0  0  0
   18.6228   29.2461    5.8597 H   0  0  0  0  0  0  0  0  0  0  0  0
   18.6780   31.0415    5.8597 H   0  0  0  0  0  0  0  0  0  0  0  0
   19.6896   25.6000    4.9281 H   0  0  0  0  0  0  0  0  0  0  0  0
   17.5970   23.6274    4.1151 H   0  0  0  0  0  0  0  0  0  0  0  0
   16.7617   24.2985    2.6733 H   0  0  0  0  0  0  0  0  0  0  0  0
   18.5490   24.1189    2.6733 H   0  0  0  0  0  0  0  0  0  0  0  0
   16.4948   31.0882    4.7758 H   0  0  0  0  0  0  0  0  0  0  0  0
   13.4127   28.8012    1.8421 H   0  0  0  0  0  0  0  0  0  0  0  0
  1 12  1  0
  2  9  1  0
  3  4  2  0
  3  9  1  0
  3 11  1  0
  4  5  1  0
  4 14  1  0
  5 10  2  0
  5 13  1  0
  6 10  1  0
  6 11  2  0
  6 12  1  0
  7 13  1  0
  7 14  2  0
  8 13  1  0
  1 15  1  0
  1 16  1  0
  1 17  1  0
  2 18  1  0
  2 19  1  0
  2 20  1  0
  7 21  1  0
  8 22  1  0
  8 23  1  0
  8 24  1  0
  9 25  1  0
 12 26  1  0
M  END
>  <filename_input>  (3) 
7Z7F_IF3_docked.sdf

>  <pdb_id>  (3) 
7Z7F_IF3

>  <pose_rank>  (3) 
2

>  <num_atoms_heavy>  (3) 
14

>  <num_torsions>  (3) 
1

>  <pose>  (3) 
[12.963044968945876, 26.70030982306234, 2.091583738394344, -1.1129708009098276, -0.938456773042317, 2.272343660491195, 2.711906838777145]

>  <energy>  (3) 
-536.056110486208

>  <inter_energy>  (3) 
-559.9250467752529

>  <intra_energy>  (3) 
16.648123538773426

>  <rmsd>  (3) 
4.9621

>  <sdf_rank>  (3) 
0

$$$$

     RDKit          3D

 26 27  0  0  0  0  0  0  0  0999 V2000
   18.1939   24.8218    3.8508 C   0  0  0  0  0  0  0  0  0  0  0  0
   12.6684   29.3585    3.7233 C   0  0  0  0  0  0  0  0  0  0  0  0
   14.9254   28.2827    3.2935 C   0  0  0  0  0  0  0  0  0  0  0  0
   15.6842   29.2044    4.0914 C   0  0  0  0  0  0  0  0  0  0  0  0
   16.9516   28.8281    4.4716 C   0  0  0  0  0  0  0  0  0  0  0  0
   16.6951   26.7882    3.3599 C   0  0  0  0  0  0  0  0  0  0  0  0
   16.5628   30.8229    5.2924 C   0  0  0  0  0  0  0  0  0  0  0  0
   18.8001   29.8040    5.8292 C   0  0  0  0  0  0  0  0  0  0  0  0
   13.5782   28.6061    2.8622 N   0  0  0  0  0  0  0  0  0  0  0  0
   17.4277   27.6167    4.0952 N   0  0  0  0  0  0  0  0  0  0  0  0
   15.4670   27.1214    2.9554 N   0  0  0  0  0  0  0  0  0  0  0  0
   17.2272   25.4907    2.9903 N   0  0  0  0  0  0  0  0  0  0  0  0
   17.4716   29.8329    5.2189 N   0  0  0  0  0  0  0  0  0  0  0  0
   15.4610   30.4548    4.6109 N   0  0  0  0  0  0  0  0  0  0  0  0
   17.9335   25.0020    4.9042 H   0  0  0  0  0  0  0  0  0  0  0  0
   18.1781   23.7406    3.6489 H   0  0  0  0  0  0  0  0  0  0  0  0
   19.2001   25.2178    3.6489 H   0  0  0  0  0  0  0  0  0  0  0  0
   12.9110   29.1578    4.7772 H   0  0  0  0  0  0  0  0  0  0  0  0
   12.7769   30.4341    3.5204 H   0  0  0  0  0  0  0  0  0  0  0  0
   11.6322   29.0498    3.5204 H   0  0  0  0  0  0  0  0  0  0  0  0
   16.6979   31.7770    5.8228 H   0  0  0  0  0  0  0  0  0  0  0  0
   18.7005   29.8061    6.9247 H   0  0  0  0  0  0  0  0  0  0  0  0
   19.3301   28.8941    5.5111 H   0  0  0  0  0  0  0  0  0  0  0  0
   19.3692   30.6899    5.5111 H   0  0  0  0  0  0  0  0  0  0  0  0
   13.2575   28.2998    1.9326 H   0  0  0  0  0  0  0  0  0  0  0  0
   16.9204   25.0404    2.1162 H   0  0  0  0  0  0  0  0  0  0  0  0
  1 12  1  0
  2  9  1  0
  3  4  2  0
  3  9  1  0
  3 11  1  0
  4  5  1  0
  4 14  1  0
  5 10  2  0
  5 13  1  0
  6 10  1  0
  6 11  2  0
  6 12  1  0
  7 13  1  0
  7 14  2  0
  8 13  1  0
  1 15  1  0
  1 16  1  0
  1 17  1  0
  2 18  1  0
  2 19  1  0
  2 20  1  0
  7 21  1  0
  8 22  1  0
  8 23  1  0
  8 24  1  0
  9 25  1  0
 12 26  1  0
M  END
>  <filename_input>  (4) 
7Z7F_IF3_docked.sdf

>  <pdb_id>  (4) 
7Z7F_IF3

>  <pose_rank>  (4) 
3

>  <num_atoms_heavy>  (4) 
14

>  <num_torsions>  (4) 
1

>  <pose>  (4) 
[18.193920354204945, 24.821797631951434, 3.850765472160606, -1.6857994569429442, -1.6140102413542035, 3.8386017039098044, 2.3182721573862612]

>  <energy>  (4) 
-502.3736554236921

>  <inter_energy>  (4) 
-506.7025817163835

>  <intra_energy>  (4) 
9.790099109715843

>  <rmsd>  (4) 
4.1412

>  <sdf_rank>  (4) 
0

$$$$

     RDKit          3D

 26 27  0  0  0  0  0  0  0  0999 V2000
   12.5032   30.8370    4.2231 C   0  0  0  0  0  0  0  0  0  0  0  0
   18.4348   30.5118    6.4604 C   0  0  0  0  0  0  0  0  0  0  0  0
   17.0173   29.3094    4.7339 C   0  0  0  0  0  0  0  0  0  0  0  0
   16.7307   28.0678    4.0719 C   0  0  0  0  0  0  0  0  0  0  0  0
   15.4986   27.9304    3.4757 C   0  0  0  0  0  0  0  0  0  0  0  0
   14.9080   30.0837    4.1668 C   0  0  0  0  0  0  0  0  0  0  0  0
   16.6144   26.0705    3.1601 C   0  0  0  0  0  0  0  0  0  0  0  0
   14.2815   26.1538    2.2208 C   0  0  0  0  0  0  0  0  0  0  0  0
   18.2921   29.5242    5.3928 N   0  0  0  0  0  0  0  0  0  0  0  0
   14.6092   28.9505    3.5420 N   0  0  0  0  0  0  0  0  0  0  0  0
   16.0986   30.2645    4.7438 N   0  0  0  0  0  0  0  0  0  0  0  0
   13.9262   31.1488    4.2363 N   0  0  0  0  0  0  0  0  0  0  0  0
   15.4425   26.6907    2.9294 N   0  0  0  0  0  0  0  0  0  0  0  0
   17.4145   26.8967    3.8609 N   0  0  0  0  0  0  0  0  0  0  0  0
   12.1358   30.7565    5.2568 H   0  0  0  0  0  0  0  0  0  0  0  0
   11.9574   31.6369    3.7012 H   0  0  0  0  0  0  0  0  0  0  0  0
   12.3418   29.8822    3.7012 H   0  0  0  0  0  0  0  0  0  0  0  0
   18.3623   30.0097    7.4364 H   0  0  0  0  0  0  0  0  0  0  0  0
   19.4138   31.0060    6.3742 H   0  0  0  0  0  0  0  0  0  0  0  0
   17.6360   31.2630    6.3742 H   0  0  0  0  0  0  0  0  0  0  0  0
   16.8761   25.0543    2.8301 H   0  0  0  0  0  0  0  0  0  0  0  0
   13.5342   25.8082    2.9503 H   0  0  0  0  0  0  0  0  0  0  0  0
   13.8415   26.9399    1.5895 H   0  0  0  0  0  0  0  0  0  0  0  0
   14.5954   25.3095    1.5895 H   0  0  0  0  0  0  0  0  0  0  0  0
   19.1109   28.9708    5.1029 H   0  0  0  0  0  0  0  0  0  0  0  0
   14.2362   32.1292    4.2952 H   0  0  0  0  0  0  0  0  0  0  0  0
  1 12  1  0
  2  9  1  0
  3  4  2  0
  3  9  1  0
  3 11  1  0
  4  5  1  0
  4 14  1  0
  5 10  2  0
  5 13  1  0
  6 10  1  0
  6 11  2  0
  6 12  1  0
  7 13  1  0
  7 14  2  0
  8 13  1  0
  1 15  1  0
  1 16  1  0
  1 17  1  0
  2 18  1  0
  2 19  1  0
  2 20  1  0
  7 21  1  0
  8 22  1  0
  8 23  1  0
  8 24  1  0
  9 25  1  0
 12 26  1  0
M  END
>  <filename_input>  (5) 
7Z7F_IF3_docked.sdf

>  <pdb_id>  (5) 
7Z7F_IF3

>  <pose_rank>  (5) 
4

>  <num_atoms_heavy>  (5) 
14

>  <num_torsions>  (5) 
1

>  <pose>  (5) 
[12.503188726937546, 30.837002281875698, 4.223065440879349, 1.523934576186825, 1.7279732286439946, -3.8915803571411285, 0.2095956274995858]

>  <energy>  (5) 
-523.8291669883225

>  <inter_energy>  (5) 
-508.27454499251576

>  <intra_energy>  (5) 
0.0

>  <rmsd>  (5) 
4.04926

>  <sdf_rank>  (5) 
0

$$$$

     RDKit          3D

 26 27  0  0  0  0  0  0  0  0999 V2000
   12.7937   30.6309    3.3954 C   0  0  0  0  0  0  0  0  0  0  0  0
   17.6759   25.6004    3.7094 C   0  0  0  0  0  0  0  0  0  0  0  0
   16.7673   27.9691    3.7076 C   0  0  0  0  0  0  0  0  0  0  0  0
   17.3212   28.8159    4.7264 C   0  0  0  0  0  0  0  0  0  0  0  0
   16.5109   29.7935    5.2557 C   0  0  0  0  0  0  0  0  0  0  0  0
   14.7658   29.1282    3.8504 C   0  0  0  0  0  0  0  0  0  0  0  0
   18.4634   29.9248    6.2429 C   0  0  0  0  0  0  0  0  0  0  0  0
   16.7309   31.6061    6.9523 C   0  0  0  0  0  0  0  0  0  0  0  0
   17.5642   26.9220    3.0960 N   0  0  0  0  0  0  0  0  0  0  0  0
   15.2429   29.9279    4.7973 N   0  0  0  0  0  0  0  0  0  0  0  0
   15.5132   28.1560    3.3221 N   0  0  0  0  0  0  0  0  0  0  0  0
   13.4103   29.3112    3.3682 N   0  0  0  0  0  0  0  0  0  0  0  0
   17.2354   30.4719    6.1795 N   0  0  0  0  0  0  0  0  0  0  0  0
   18.5356   28.9118    5.3583 N   0  0  0  0  0  0  0  0  0  0  0  0
   12.6467   30.9455    4.4392 H   0  0  0  0  0  0  0  0  0  0  0  0
   13.4482   31.3520    2.8838 H   0  0  0  0  0  0  0  0  0  0  0  0
   11.8208   30.5916    2.8838 H   0  0  0  0  0  0  0  0  0  0  0  0
   17.6673   25.7026    4.8046 H   0  0  0  0  0  0  0  0  0  0  0  0
   16.8273   24.9763    3.3927 H   0  0  0  0  0  0  0  0  0  0  0  0
   18.6172   25.1275    3.3927 H   0  0  0  0  0  0  0  0  0  0  0  0
   19.2757   30.2518    6.9086 H   0  0  0  0  0  0  0  0  0  0  0  0
   16.8271   31.3897    8.0265 H   0  0  0  0  0  0  0  0  0  0  0  0
   17.3136   32.5059    6.7059 H   0  0  0  0  0  0  0  0  0  0  0  0
   15.6724   31.7759    6.7059 H   0  0  0  0  0  0  0  0  0  0  0  0
   18.0600   27.1137    2.2138 H   0  0  0  0  0  0  0  0  0  0  0  0
   12.8817   28.5052    3.0052 H   0  0  0  0  0  0  0  0  0  0  0  0
  1 12  1  0
  2  9  1  0
  3  4  2  0
  3  9  1  0
  3 11  1  0
  4  5  1  0
  4 14  1  0
  5 10  2  0
  5 13  1  0
  6 10  1  0
  6 11  2  0
  6 12  1  0
  7 13  1  0
  7 14  2  0
  8 13  1  0
  1 15  1  0
  1 16  1  0
  1 17  1  0
  2 18  1  0
  2 19  1  0
  2 20  1  0
  7 21  1  0
  8 22  1  0
  8 23  1  0
  8 24  1  0
  9 25  1  0
 12 26  1  0
M  END
>  <filename_input>  (6) 
7Z7F_IF3_docked.sdf

>  <pdb_id>  (6) 
7Z7F_IF3

>  <pose_rank>  (6) 
5

>  <num_atoms_heavy>  (6) 
14

>  <num_torsions>  (6) 
1

>  <pose>  (6) 
[12.793742641910818, 30.630873826075838, 3.39540576302805, 1.0988138499039664, -2.774048245891139, -1.299899906590865, -1.8468603031662396]

>  <energy>  (6) 
-397.9771261602547

>  <inter_energy>  (6) 
-392.6568875239068

>  <intra_energy>  (6) 
0.0

>  <rmsd>  (6) 
3.84068

>  <sdf_rank>  (6) 
0

$$$$

     RDKit          3D

 26 27  0  0  0  0  0  0  0  0999 V2000
   13.1819   26.4255    0.4271 C   0  0  0  0  0  0  0  0  0  0  0  0
   18.4961   25.1772    3.7790 C   0  0  0  0  0  0  0  0  0  0  0  0
   16.7941   27.0401    3.5168 C   0  0  0  0  0  0  0  0  0  0  0  0
   16.2977   28.3234    3.9276 C   0  0  0  0  0  0  0  0  0  0  0  0
   15.0582   28.7061    3.4697 C   0  0  0  0  0  0  0  0  0  0  0  0
   14.8582   26.6984    2.2898 C   0  0  0  0  0  0  0  0  0  0  0  0
   15.8415   30.3185    4.7308 C   0  0  0  0  0  0  0  0  0  0  0  0
   13.5836   30.7036    3.6890 C   0  0  0  0  0  0  0  0  0  0  0  0
   18.0967   26.5721    3.9522 N   0  0  0  0  0  0  0  0  0  0  0  0
   14.3652   27.8772    2.6521 N   0  0  0  0  0  0  0  0  0  0  0  0
   16.0496   26.2815    2.7253 N   0  0  0  0  0  0  0  0  0  0  0  0
   14.0991   25.8433    1.3978 N   0  0  0  0  0  0  0  0  0  0  0  0
   14.8002   29.9411    3.9664 N   0  0  0  0  0  0  0  0  0  0  0  0
   16.7693   29.3424    4.7166 N   0  0  0  0  0  0  0  0  0  0  0  0
   12.3677   26.9423    0.9561 H   0  0  0  0  0  0  0  0  0  0  0  0
   13.7242   27.1451   -0.2039 H   0  0  0  0  0  0  0  0  0  0  0  0
   12.7615   25.6285   -0.2039 H   0  0  0  0  0  0  0  0  0  0  0  0
   18.6302   24.7090    4.7653 H   0  0  0  0  0  0  0  0  0  0  0  0
   17.7160   24.6391    3.2206 H   0  0  0  0  0  0  0  0  0  0  0  0
   19.4429   25.1335    3.2206 H   0  0  0  0  0  0  0  0  0  0  0  0
   15.9218   31.2694    5.2781 H   0  0  0  0  0  0  0  0  0  0  0  0
   13.1119   30.9992    4.6378 H   0  0  0  0  0  0  0  0  0  0  0  0
   13.8388   31.6036    3.1104 H   0  0  0  0  0  0  0  0  0  0  0  0
   12.8849   30.0815    3.1104 H   0  0  0  0  0  0  0  0  0  0  0  0
   18.7516   27.2350    4.3911 H   0  0  0  0  0  0  0  0  0  0  0  0
   14.2088   24.8205    1.4508 H   0  0  0  0  0  0  0  0  0  0  0  0
  1 12  1  0
  2  9  1  0
  3  4  2  0
  3  9  1  0
  3 11  1  0
  4  5  1  0
  4 14  1  0
  5 10  2  0
  5 13  1  0
  6 10  1  0
  6 11  2  0
  6 12  1  0
  7 13  1  0
  7 14  2  0
  8 13  1  0
  1 15  1  0
  1 16  1  0
  1 17  1  0
  2 18  1  0
  2 19  1  0
  2 20  1  0
  7 21  1  0
  8 22  1  0
  8 23  1  0
  8 24  1  0
  9 25  1  0
 12 26  1  0
M  END
>  <filename_input>  (7) 
7Z7F_IF3_docked.sdf

>  <pdb_id>  (7) 
7Z7F_IF3

>  <pose_rank>  (7) 
6

>  <num_atoms_heavy>  (7) 
14

>  <num_torsions>  (7) 
1

>  <pose>  (7) 
[13.181949150104707, 26.425454735087076, 0.4270994784995051, 2.1269371217590516, -2.499196071380942, -0.20411917704041513, -0.4199345069418914]

>  <energy>  (7) 
-488.6713940896349

>  <inter_energy>  (7) 
-473.41630436881786

>  <intra_energy>  (7) 
0.0

>  <rmsd>  (7) 
3.775

>  <sdf_rank>  (7) 
0

$$$$

     RDKit          3D

 26 27  0  0  0  0  0  0  0  0999 V2000
   17.7517   30.8731    6.9583 C   0  0  0  0  0  0  0  0  0  0  0  0
   17.4522   24.5743    3.9617 C   0  0  0  0  0  0  0  0  0  0  0  0
   17.4727   27.1108    4.0021 C   0  0  0  0  0  0  0  0  0  0  0  0
   16.1384   27.4561    3.5990 C   0  0  0  0  0  0  0  0  0  0  0  0
   15.6348   28.6642    4.0225 C   0  0  0  0  0  0  0  0  0  0  0  0
   17.6280   29.1135    5.1576 C   0  0  0  0  0  0  0  0  0  0  0  0
   14.0947   27.6735    2.8182 C   0  0  0  0  0  0  0  0  0  0  0  0
   13.4908   29.9141    3.7914 C   0  0  0  0  0  0  0  0  0  0  0  0
   18.0680   25.8496    3.6016 N   0  0  0  0  0  0  0  0  0  0  0  0
   16.3988   29.4680    4.8011 N   0  0  0  0  0  0  0  0  0  0  0  0
   18.1609   27.9575    4.7542 N   0  0  0  0  0  0  0  0  0  0  0  0
   18.4122   29.9882    6.0079 N   0  0  0  0  0  0  0  0  0  0  0  0
   14.3723   28.7746    3.5405 N   0  0  0  0  0  0  0  0  0  0  0  0
   15.1627   26.8536    2.8451 N   0  0  0  0  0  0  0  0  0  0  0  0
   17.9902   30.5536    7.9835 H   0  0  0  0  0  0  0  0  0  0  0  0
   18.1029   31.9041    6.8045 H   0  0  0  0  0  0  0  0  0  0  0  0
   16.6634   30.8296    6.8045 H   0  0  0  0  0  0  0  0  0  0  0  0
   17.4088   24.4844    5.0572 H   0  0  0  0  0  0  0  0  0  0  0  0
   16.4333   24.5297    3.5496 H   0  0  0  0  0  0  0  0  0  0  0  0
   18.0510   23.7487    3.5496 H   0  0  0  0  0  0  0  0  0  0  0  0
   13.1494   27.4756    2.2916 H   0  0  0  0  0  0  0  0  0  0  0  0
   13.3787   30.0590    4.8761 H   0  0  0  0  0  0  0  0  0  0  0  0
   13.9257   30.8197    3.3435 H   0  0  0  0  0  0  0  0  0  0  0  0
   12.5050   29.7206    3.3435 H   0  0  0  0  0  0  0  0  0  0  0  0
   18.9402   25.8533    3.0537 H   0  0  0  0  0  0  0  0  0  0  0  0
   19.4399   29.9839    5.9396 H   0  0  0  0  0  0  0  0  0  0  0  0
  1 12  1  0
  2  9  1  0
  3  4  2  0
  3  9  1  0
  3 11  1  0
  4  5  1  0
  4 14  1  0
  5 10  2  0
  5 13  1  0
  6 10  1  0
  6 11  2  0
  6 12  1  0
  7 13  1  0
  7 14  2  0
  8 13  1  0
  1 15  1  0
  1 16  1  0
  1 17  1  0
  2 18  1  0
  2 19  1  0
  2 20  1  0
  7 21  1  0
  8 22  1  0
  8 23  1  0
  8 24  1  0
  9 25  1  0
 12 26  1  0
M  END
>  <filename_input>  (8) 
7Z7F_IF3_docked.sdf

>  <pdb_id>  (8) 
7Z7F_IF3

>  <pose_rank>  (8) 
7

>  <num_atoms_heavy>  (8) 
14

>  <num_torsions>  (8) 
1

>  <pose>  (8) 
[17.751724425776995, 30.873078819268354, 6.95827632812359, 0.12464621722245182, 3.2155491326735754, -5.023119103365956, 1.916138970259125]

>  <energy>  (8) 
-556.0284120126973

>  <inter_energy>  (8) 
-555.6613535053013

>  <intra_energy>  (8) 
2.3827820740984293

>  <rmsd>  (8) 
0.788195

>  <sdf_rank>  (8) 
0

$$$$

     RDKit          3D

 26 27  0  0  0  0  0  0  0  0999 V2000
   15.5289   32.2968    9.9780 C   0  0  0  0  0  0  0  0  0  0  0  0
   11.8055   30.3027    5.0678 C   0  0  0  0  0  0  0  0  0  0  0  0
   14.2486   30.6133    5.6771 C   0  0  0  0  0  0  0  0  0  0  0  0
   15.6042   30.2775    5.3433 C   0  0  0  0  0  0  0  0  0  0  0  0
   16.5521   30.3841    6.3346 C   0  0  0  0  0  0  0  0  0  0  0  0
   14.9178   31.1114    7.8390 C   0  0  0  0  0  0  0  0  0  0  0  0
   17.5548   29.6985    4.5103 C   0  0  0  0  0  0  0  0  0  0  0  0
   19.0124   30.0382    6.5330 C   0  0  0  0  0  0  0  0  0  0  0  0
   13.1958   30.5339    4.6817 N   0  0  0  0  0  0  0  0  0  0  0  0
   16.1814   30.8055    7.5679 N   0  0  0  0  0  0  0  0  0  0  0  0
   13.9640   31.0055    6.9106 N   0  0  0  0  0  0  0  0  0  0  0  0
   14.5577   31.5780    9.1641 N   0  0  0  0  0  0  0  0  0  0  0  0
   17.7475   30.0338    5.7993 N   0  0  0  0  0  0  0  0  0  0  0  0
   16.2495   29.8445    4.2122 N   0  0  0  0  0  0  0  0  0  0  0  0
   15.3076   32.1330   11.0430 H   0  0  0  0  0  0  0  0  0  0  0  0
   16.5405   31.9281    9.7528 H   0  0  0  0  0  0  0  0  0  0  0  0
   15.4720   33.3720    9.7528 H   0  0  0  0  0  0  0  0  0  0  0  0
   11.7270   30.2897    6.1649 H   0  0  0  0  0  0  0  0  0  0  0  0
   11.1742   31.1082    4.6645 H   0  0  0  0  0  0  0  0  0  0  0  0
   11.4688   29.3363    4.6645 H   0  0  0  0  0  0  0  0  0  0  0  0
   18.3360   29.3604    3.8136 H   0  0  0  0  0  0  0  0  0  0  0  0
   18.8092   30.0375    7.6141 H   0  0  0  0  0  0  0  0  0  0  0  0
   19.5929   29.1421    6.2685 H   0  0  0  0  0  0  0  0  0  0  0  0
   19.5866   30.9384    6.2685 H   0  0  0  0  0  0  0  0  0  0  0  0
   13.4327   30.6423    3.6851 H   0  0  0  0  0  0  0  0  0  0  0  0
   13.6118   31.4006    9.5311 H   0  0  0  0  0  0  0  0  0  0  0  0
  1 12  1  0
  2  9  1  0
  3  4  2  0
  3  9  1  0
  3 11  1  0
  4  5  1  0
  4 14  1  0
  5 10  2  0
  5 13  1  0
  6 10  1  0
  6 11  2  0
  6 12  1  0
  7 13  1  0
  7 14  2  0
  8 13  1  0
  1 15  1  0
  1 16  1  0
  1 17  1  0
  2 18  1  0
  2 19  1  0
  2 20  1  0
  7 21  1  0
  8 22  1  0
  8 23  1  0
  8 24  1  0
  9 25  1  0
 12 26  1  0
M  END
>  <filename_input>  (9) 
7Z7F_IF3_docked.sdf

>  <pdb_id>  (9) 
7Z7F_IF3

>  <pose_rank>  (9) 
8

>  <num_atoms_heavy>  (9) 
14

>  <num_torsions>  (9) 
1

>  <pose>  (9) 
[15.528917181688692, 32.29677717587967, 9.978008860853404, 0.9796242776995522, 2.0512959267448836, 2.7572546967533285, -0.6582168200622441]

>  <energy>  (9) 
-280.26176726830585

>  <inter_energy>  (9) 
-272.0094566851928

>  <intra_energy>  (9) 
0.0

>  <rmsd>  (9) 
5.18217

>  <sdf_rank>  (9) 
0

$$$$

     RDKit          3D

 26 27  0  0  0  0  0  0  0  0999 V2000
   12.7614   27.2188    2.8864 C   0  0  0  0  0  0  0  0  0  0  0  0
   17.0545   30.8978    6.2863 C   0  0  0  0  0  0  0  0  0  0  0  0
   16.8407   29.2537    4.3661 C   0  0  0  0  0  0  0  0  0  0  0  0
   17.5523   28.0085    4.2958 C   0  0  0  0  0  0  0  0  0  0  0  0
   16.9079   26.9349    3.7262 C   0  0  0  0  0  0  0  0  0  0  0  0
   15.0127   28.2514    3.3542 C   0  0  0  0  0  0  0  0  0  0  0  0
   18.9037   26.2750    4.3467 C   0  0  0  0  0  0  0  0  0  0  0  0
   17.4249   24.5365    3.2873 C   0  0  0  0  0  0  0  0  0  0  0  0
   17.4520   30.4275    4.9612 N   0  0  0  0  0  0  0  0  0  0  0  0
   15.6413   27.0846    3.2687 N   0  0  0  0  0  0  0  0  0  0  0  0
   15.6080   29.3226    3.8843 N   0  0  0  0  0  0  0  0  0  0  0  0
   13.6502   28.3729    2.8725 N   0  0  0  0  0  0  0  0  0  0  0  0
   17.7520   25.8750    3.7767 N   0  0  0  0  0  0  0  0  0  0  0  0
   18.7990   27.5772    4.6740 N   0  0  0  0  0  0  0  0  0  0  0  0
   12.5437   26.9361    3.9269 H   0  0  0  0  0  0  0  0  0  0  0  0
   11.8231   27.4724    2.3714 H   0  0  0  0  0  0  0  0  0  0  0  0
   13.2462   26.3763    2.3714 H   0  0  0  0  0  0  0  0  0  0  0  0
   17.5618   30.2975    7.0559 H   0  0  0  0  0  0  0  0  0  0  0  0
   17.3372   31.9548    6.4003 H   0  0  0  0  0  0  0  0  0  0  0  0
   15.9652   30.7953    6.4003 H   0  0  0  0  0  0  0  0  0  0  0  0
   19.7866   25.6415    4.5176 H   0  0  0  0  0  0  0  0  0  0  0  0
   17.2605   23.8637    4.1418 H   0  0  0  0  0  0  0  0  0  0  0  0
   16.5116   24.5827    2.6759 H   0  0  0  0  0  0  0  0  0  0  0  0
   18.2565   24.1562    2.6759 H   0  0  0  0  0  0  0  0  0  0  0  0
   18.1791   30.9382    4.4403 H   0  0  0  0  0  0  0  0  0  0  0  0
   13.3098   29.2786    2.5193 H   0  0  0  0  0  0  0  0  0  0  0  0
  1 12  1  0
  2  9  1  0
  3  4  2  0
  3  9  1  0
  3 11  1  0
  4  5  1  0
  4 14  1  0
  5 10  2  0
  5 13  1  0
  6 10  1  0
  6 11  2  0
  6 12  1  0
  7 13  1  0
  7 14  2  0
  8 13  1  0
  1 15  1  0
  1 16  1  0
  1 17  1  0
  2 18  1  0
  2 19  1  0
  2 20  1  0
  7 21  1  0
  8 22  1  0
  8 23  1  0
  8 24  1  0
  9 25  1  0
 12 26  1  0
M  END
>  <filename_input>  (10) 
7Z7F_IF3_docked.sdf

>  <pdb_id>  (10) 
7Z7F_IF3

>  <pose_rank>  (10) 
9

>  <num_atoms_heavy>  (10) 
14

>  <num_torsions>  (10) 
1

>  <pose>  (10) 
[12.761361596396824, 27.218754092844545, 2.886378407472553, -0.9179739755998422, -0.8000062336042584, 2.2769795875963794, 1.1099815863966087]

>  <energy>  (10) 
-527.576757344386

>  <inter_energy>  (10) 
-519.3030936895718

>  <intra_energy>  (10) 
0.0

>  <rmsd>  (10) 
4.92533

>  <sdf_rank>  (10) 
0

$$$$

     RDKit          3D

 26 27  0  0  0  0  0  0  0  0999 V2000
   12.9753   26.8203    2.3154 C   0  0  0  0  0  0  0  0  0  0  0  0
   17.8517   30.1482    6.0624 C   0  0  0  0  0  0  0  0  0  0  0  0
   16.9492   28.8213    4.0975 C   0  0  0  0  0  0  0  0  0  0  0  0
   17.5863   27.5446    4.2589 C   0  0  0  0  0  0  0  0  0  0  0  0
   16.9553   26.4433    3.7284 C   0  0  0  0  0  0  0  0  0  0  0  0
   15.2075   27.7944    2.9651 C   0  0  0  0  0  0  0  0  0  0  0  0
   18.8113   25.7678    4.6785 C   0  0  0  0  0  0  0  0  0  0  0  0
   17.3763   23.9888    3.6262 C   0  0  0  0  0  0  0  0  0  0  0  0
   17.5502   30.0264    4.6378 N   0  0  0  0  0  0  0  0  0  0  0  0
   15.7692   26.5977    3.0920 N   0  0  0  0  0  0  0  0  0  0  0  0
   15.7947   28.8911    3.4504 N   0  0  0  0  0  0  0  0  0  0  0  0
   13.9277   27.9225    2.2951 N   0  0  0  0  0  0  0  0  0  0  0  0
   17.7196   25.3584    4.0064 N   0  0  0  0  0  0  0  0  0  0  0  0
   18.7458   27.1026    4.8452 N   0  0  0  0  0  0  0  0  0  0  0  0
   12.7450   26.5538    3.3575 H   0  0  0  0  0  0  0  0  0  0  0  0
   12.0513   27.1246    1.8020 H   0  0  0  0  0  0  0  0  0  0  0  0
   13.4105   25.9502    1.8020 H   0  0  0  0  0  0  0  0  0  0  0  0
   16.9898   29.8000    6.6506 H   0  0  0  0  0  0  0  0  0  0  0  0
   18.7325   29.5355    6.3045 H   0  0  0  0  0  0  0  0  0  0  0  0
   18.0595   31.2009    6.3045 H   0  0  0  0  0  0  0  0  0  0  0  0
   19.6247   25.1181    5.0338 H   0  0  0  0  0  0  0  0  0  0  0  0
   17.2246   23.3838    4.5322 H   0  0  0  0  0  0  0  0  0  0  0  0
   16.4518   23.9946    3.0301 H   0  0  0  0  0  0  0  0  0  0  0  0
   18.1942   23.5578    3.0301 H   0  0  0  0  0  0  0  0  0  0  0  0
   17.7683   30.8100    4.0058 H   0  0  0  0  0  0  0  0  0  0  0  0
   13.6913   28.7959    1.8031 H   0  0  0  0  0  0  0  0  0  0  0  0
  1 12  1  0
  2  9  1  0
  3  4  2  0
  3  9  1  0
  3 11  1  0
  4  5  1  0
  4 14  1  0
  5 10  2  0
  5 13  1  0
  6 10  1  0
  6 11  2  0
  6 12  1  0
  7 13  1  0
  7 14  2  0
  8 13  1  0
  1 15  1  0
  1 16  1  0
  1 17  1  0
  2 18  1  0
  2 19  1  0
  2 20  1  0
  7 21  1  0
  8 22  1  0
  8 23  1  0
  8 24  1  0
  9 25  1  0
 12 26  1  0
M  END
>  <filename_input>  (11) 
7Z7F_IF3_docked.sdf

>  <pdb_id>  (11) 
7Z7F_IF3

>  <pose_rank>  (11) 
10

>  <num_atoms_heavy>  (11) 
14

>  <num_torsions>  (11) 
1

>  <pose>  (11) 
[12.975310149635014, 26.820268262083275, 2.3153988789955484, -1.1370033105809654, -0.6982031776884261, 2.2518864181269227, 1.93942881362958]

>  <energy>  (11) 
-523.2315644542107

>  <inter_energy>  (11) 
-510.5042441434093

>  <intra_energy>  (11) 
2.7093152921009307

>  <rmsd>  (11) 
4.95774

>  <sdf_rank>  (11) 
0

$$$$

     RDKit          3D

 26 27  0  0  0  0  0  0  0  0999 V2000
    9.2246   34.7631    2.6274 C   0  0  0  0  0  0  0  0  0  0  0  0
   12.0969   29.3417    4.2519 C   0  0  0  0  0  0  0  0  0  0  0  0
   10.2153   30.7984    5.1317 C   0  0  0  0  0  0  0  0  0  0  0  0
    9.3542   31.1971    6.2094 C   0  0  0  0  0  0  0  0  0  0  0  0
    8.5613   32.3049    6.0181 C   0  0  0  0  0  0  0  0  0  0  0  0
    9.4394   32.5802    3.8695 C   0  0  0  0  0  0  0  0  0  0  0  0
    8.1721   31.5335    8.0324 C   0  0  0  0  0  0  0  0  0  0  0  0
    6.9031   33.5984    7.3558 C   0  0  0  0  0  0  0  0  0  0  0  0
   11.0868   29.6457    5.2631 N   0  0  0  0  0  0  0  0  0  0  0  0
    8.6274   32.9763    4.8430 N   0  0  0  0  0  0  0  0  0  0  0  0
   10.2128   31.5006    4.0077 N   0  0  0  0  0  0  0  0  0  0  0  0
    9.5003   33.3326    2.6312 N   0  0  0  0  0  0  0  0  0  0  0  0
    7.8493   32.5018    7.1551 N   0  0  0  0  0  0  0  0  0  0  0  0
    9.0941   30.7273    7.4723 N   0  0  0  0  0  0  0  0  0  0  0  0
    9.1547   35.1258    3.6635 H   0  0  0  0  0  0  0  0  0  0  0  0
   10.0374   35.2918    2.1079 H   0  0  0  0  0  0  0  0  0  0  0  0
    8.2736   34.9518    2.1079 H   0  0  0  0  0  0  0  0  0  0  0  0
   13.0376   29.0587    4.7469 H   0  0  0  0  0  0  0  0  0  0  0  0
   11.7480   28.5088    3.6239 H   0  0  0  0  0  0  0  0  0  0  0  0
   12.2655   30.2289    3.6239 H   0  0  0  0  0  0  0  0  0  0  0  0
    7.7513   31.4193    9.0423 H   0  0  0  0  0  0  0  0  0  0  0  0
    6.7588   33.7656    8.4334 H   0  0  0  0  0  0  0  0  0  0  0  0
    7.2993   34.5140    6.8925 H   0  0  0  0  0  0  0  0  0  0  0  0
    5.9393   33.3405    6.8925 H   0  0  0  0  0  0  0  0  0  0  0  0
   10.9916   29.0306    6.0839 H   0  0  0  0  0  0  0  0  0  0  0  0
    9.7395   32.8538    1.7512 H   0  0  0  0  0  0  0  0  0  0  0  0
  1 12  1  0
  2  9  1  0
  3  4  2  0
  3  9  1  0
  3 11  1  0
  4  5  1  0
  4 14  1  0
  5 10  2  0
  5 13  1  0
  6 10  1  0
  6 11  2  0
  6 12  1  0
  7 13  1  0
  7 14  2  0
  8 13  1  0
  1 15  1  0
  1 16  1  0
  1 17  1  0
  2 18  1  0
  2 19  1  0
  2 20  1  0
  7 21  1  0
  8 22  1  0
  8 23  1  0
  8 24  1  0
  9 25  1  0
 12 26  1  0
M  END
>  <filename_input>  (12) 
7Z7F_IF3_docked.sdf

>  <pdb_id>  (12) 
7Z7F_IF3

>  <pose_rank>  (12) 
11

>  <num_atoms_heavy>  (12) 
14

>  <num_torsions>  (12) 
1

>  <pose>  (12) 
[9.224624127542025, 34.76309721072061, 2.6274121465569933, -0.9121463028494264, 1.350447515316512, 0.5972818644461534, -0.04453302242596237]

>  <energy>  (12) 
-158.95583617142216

>  <inter_energy>  (12) 
-157.40175601472237

>  <intra_energy>  (12) 
0.0

>  <rmsd>  (12) 
8.56913

>  <sdf_rank>  (12) 
0

$$$$

     RDKit          3D

 26 27  0  0  0  0  0  0  0  0999 V2000
   20.4858   32.2635   -0.6940 C   0  0  0  0  0  0  0  0  0  0  0  0
   18.9545   37.9386    2.0222 C   0  0  0  0  0  0  0  0  0  0  0  0
   20.6636   36.9139    0.4522 C   0  0  0  0  0  0  0  0  0  0  0  0
   22.0995   36.9182    0.4433 C   0  0  0  0  0  0  0  0  0  0  0  0
   22.7395   35.7907   -0.0168 C   0  0  0  0  0  0  0  0  0  0  0  0
   20.6776   34.7599   -0.4023 C   0  0  0  0  0  0  0  0  0  0  0  0
   24.2698   37.2486    0.5634 C   0  0  0  0  0  0  0  0  0  0  0  0
   25.0977   35.0346   -0.2992 C   0  0  0  0  0  0  0  0  0  0  0  0
   19.9191   38.0633    0.9317 N   0  0  0  0  0  0  0  0  0  0  0  0
   22.0050   34.7292   -0.4286 N   0  0  0  0  0  0  0  0  0  0  0  0
   20.0170   35.8405    0.0207 N   0  0  0  0  0  0  0  0  0  0  0  0
   19.9213   33.5994   -0.8319 N   0  0  0  0  0  0  0  0  0  0  0  0
   24.0745   36.0098    0.0752 N   0  0  0  0  0  0  0  0  0  0  0  0
   23.0724   37.8188    0.7977 N   0  0  0  0  0  0  0  0  0  0  0  0
   20.5897   32.0177    0.3731 H   0  0  0  0  0  0  0  0  0  0  0  0
   19.8197   31.5324   -1.1756 H   0  0  0  0  0  0  0  0  0  0  0  0
   21.4743   32.2316   -1.1756 H   0  0  0  0  0  0  0  0  0  0  0  0
   19.4800   38.0066    2.9862 H   0  0  0  0  0  0  0  0  0  0  0  0
   18.2135   38.7484    1.9507 H   0  0  0  0  0  0  0  0  0  0  0  0
   18.4438   36.9670    1.9507 H   0  0  0  0  0  0  0  0  0  0  0  0
   25.2481   37.7188    0.7420 H   0  0  0  0  0  0  0  0  0  0  0  0
   25.5465   34.6068    0.6094 H   0  0  0  0  0  0  0  0  0  0  0  0
   24.6385   34.2315   -0.8944 H   0  0  0  0  0  0  0  0  0  0  0  0
   25.8778   35.5318   -0.8944 H   0  0  0  0  0  0  0  0  0  0  0  0
   20.0733   38.9836    0.4956 H   0  0  0  0  0  0  0  0  0  0  0  0
   18.9816   33.7202   -1.2360 H   0  0  0  0  0  0  0  0  0  0  0  0
  1 12  1  0
  2  9  1  0
  3  4  2  0
  3  9  1  0
  3 11  1  0
  4  5  1  0
  4 14  1  0
  5 10  2  0
  5 13  1  0
  6 10  1  0
  6 11  2  0
  6 12  1  0
  7 13  1  0
  7 14  2  0
  8 13  1  0
  1 15  1  0
  1 16  1  0
  1 17  1  0
  2 18  1  0
  2 19  1  0
  2 20  1  0
  7 21  1  0
  8 22  1  0
  8 23  1  0
  8 24  1  0
  9 25  1  0
 12 26  1  0
M  END
>  <filename_input>  (13) 
7Z7F_IF3_docked.sdf

>  <pdb_id>  (13) 
7Z7F_IF3

>  <pose_rank>  (13) 
12

>  <num_atoms_heavy>  (13) 
14

>  <num_torsions>  (13) 
1

>  <pose>  (13) 
[20.48582162662516, 32.26348071628685, -0.6940311597271573, 0.43695911871345516, 1.0955263001081663, -2.464596318050296, 0.8005388211970658]

>  <energy>  (13) 
-212.64444685295746

>  <inter_energy>  (13) 
-192.1971820739894

>  <intra_energy>  (13) 
0.0

>  <rmsd>  (13) 
11.3487

>  <sdf_rank>  (13) 
0

$$$$

     RDKit          3D

 26 27  0  0  0  0  0  0  0  0999 V2000
   12.4457   30.4337    4.7624 C   0  0  0  0  0  0  0  0  0  0  0  0
    8.5288   31.5296   10.4516 C   0  0  0  0  0  0  0  0  0  0  0  0
    9.1291   30.4784    8.2221 C   0  0  0  0  0  0  0  0  0  0  0  0
    8.1361   31.0235    7.3397 C   0  0  0  0  0  0  0  0  0  0  0  0
    8.4484   31.1132    6.0029 C   0  0  0  0  0  0  0  0  0  0  0  0
   10.5613   30.2054    6.4209 C   0  0  0  0  0  0  0  0  0  0  0  0
    6.4188   31.8937    6.2777 C   0  0  0  0  0  0  0  0  0  0  0  0
    7.3325   31.9409    3.9337 C   0  0  0  0  0  0  0  0  0  0  0  0
    8.8752   30.3608    9.6459 N   0  0  0  0  0  0  0  0  0  0  0  0
    9.6659   30.7010    5.5744 N   0  0  0  0  0  0  0  0  0  0  0  0
   10.2922   30.0851    7.7232 N   0  0  0  0  0  0  0  0  0  0  0  0
   11.8625   29.7912    5.9326 N   0  0  0  0  0  0  0  0  0  0  0  0
    7.3829   31.6611    5.3680 N   0  0  0  0  0  0  0  0  0  0  0  0
    6.8628   31.5127    7.4908 N   0  0  0  0  0  0  0  0  0  0  0  0
   13.1524   31.2122    5.0856 H   0  0  0  0  0  0  0  0  0  0  0  0
   12.9776   29.6834    4.1590 H   0  0  0  0  0  0  0  0  0  0  0  0
   11.6475   30.8907    4.1590 H   0  0  0  0  0  0  0  0  0  0  0  0
    8.6044   31.2746   11.5190 H   0  0  0  0  0  0  0  0  0  0  0  0
    9.2219   32.3522   10.2212 H   0  0  0  0  0  0  0  0  0  0  0  0
    7.4996   31.8419   10.2212 H   0  0  0  0  0  0  0  0  0  0  0  0
    5.4294   32.3248    6.0651 H   0  0  0  0  0  0  0  0  0  0  0  0
    7.1393   33.0123    3.7757 H   0  0  0  0  0  0  0  0  0  0  0  0
    8.2940   31.6699    3.4731 H   0  0  0  0  0  0  0  0  0  0  0  0
    6.5262   31.3512    3.4731 H   0  0  0  0  0  0  0  0  0  0  0  0
    8.9402   29.4369   10.0966 H   0  0  0  0  0  0  0  0  0  0  0  0
   12.3761   29.0399    6.4149 H   0  0  0  0  0  0  0  0  0  0  0  0
  1 12  1  0
  2  9  1  0
  3  4  2  0
  3  9  1  0
  3 11  1  0
  4  5  1  0
  4 14  1  0
  5 10  2  0
  5 13  1  0
  6 10  1  0
  6 11  2  0
  6 12  1  0
  7 13  1  0
  7 14  2  0
  8 13  1  0
  1 15  1  0
  1 16  1  0
  1 17  1  0
  2 18  1  0
  2 19  1  0
  2 20  1  0
  7 21  1  0
  8 22  1  0
  8 23  1  0
  8 24  1  0
  9 25  1  0
 12 26  1  0
M  END
>  <filename_input>  (14) 
7Z7F_IF3_docked.sdf

>  <pdb_id>  (14) 
7Z7F_IF3

>  <pose_rank>  (14) 
13

>  <num_atoms_heavy>  (14) 
14

>  <num_torsions>  (14) 
1

>  <pose>  (14) 
[12.445709235415954, 30.433696406258196, 4.762383585993903, 3.876895937114531, -1.1798466900482674, 1.6300056466559383, 1.9419907929858835]

>  <energy>  (14) 
-137.27708601146244

>  <inter_energy>  (14) 
-145.16432094928788

>  <intra_energy>  (14) 
2.746330905908849

>  <rmsd>  (14) 
8.86176

>  <sdf_rank>  (14) 
0

$$$$

     RDKit          3D

 26 27  0  0  0  0  0  0  0  0999 V2000
   12.8275   31.1606    3.7176 C   0  0  0  0  0  0  0  0  0  0  0  0
    7.3601   29.9632    7.5102 C   0  0  0  0  0  0  0  0  0  0  0  0
    8.3627   30.2382    5.1961 C   0  0  0  0  0  0  0  0  0  0  0  0
    7.8280   31.3418    4.4490 C   0  0  0  0  0  0  0  0  0  0  0  0
    8.6729   31.9979    3.5841 C   0  0  0  0  0  0  0  0  0  0  0  0
   10.4224   30.5702    4.1875 C   0  0  0  0  0  0  0  0  0  0  0  0
    6.7087   32.9642    3.4748 C   0  0  0  0  0  0  0  0  0  0  0  0
    8.5235   33.9424    2.0320 C   0  0  0  0  0  0  0  0  0  0  0  0
    7.5343   29.5038    6.1341 N   0  0  0  0  0  0  0  0  0  0  0  0
    9.9617   31.5933    3.4771 N   0  0  0  0  0  0  0  0  0  0  0  0
    9.6315   29.8956    5.0255 N   0  0  0  0  0  0  0  0  0  0  0  0
   11.8122   30.1748    4.0638 N   0  0  0  0  0  0  0  0  0  0  0  0
    7.9684   32.9996    3.0022 N   0  0  0  0  0  0  0  0  0  0  0  0
    6.6046   31.9580    4.3639 N   0  0  0  0  0  0  0  0  0  0  0  0
   13.2599   31.5804    4.6378 H   0  0  0  0  0  0  0  0  0  0  0  0
   13.6203   30.6785    3.1267 H   0  0  0  0  0  0  0  0  0  0  0  0
   12.3690   31.9672    3.1267 H   0  0  0  0  0  0  0  0  0  0  0  0
    7.6626   29.1653    8.2043 H   0  0  0  0  0  0  0  0  0  0  0  0
    7.9831   30.8535    7.6812 H   0  0  0  0  0  0  0  0  0  0  0  0
    6.3035   30.2168    7.6812 H   0  0  0  0  0  0  0  0  0  0  0  0
    5.8965   33.6460    3.1825 H   0  0  0  0  0  0  0  0  0  0  0  0
    9.0118   34.7717    2.5647 H   0  0  0  0  0  0  0  0  0  0  0  0
    9.2621   33.4266    1.4008 H   0  0  0  0  0  0  0  0  0  0  0  0
    7.7142   34.3380    1.4008 H   0  0  0  0  0  0  0  0  0  0  0  0
    7.0606   28.6432    5.8243 H   0  0  0  0  0  0  0  0  0  0  0  0
   12.0825   29.1935    4.2213 H   0  0  0  0  0  0  0  0  0  0  0  0
  1 12  1  0
  2  9  1  0
  3  4  2  0
  3  9  1  0
  3 11  1  0
  4  5  1  0
  4 14  1  0
  5 10  2  0
  5 13  1  0
  6 10  1  0
  6 11  2  0
  6 12  1  0
  7 13  1  0
  7 14  2  0
  8 13  1  0
  1 15  1  0
  1 16  1  0
  1 17  1  0
  2 18  1  0
  2 19  1  0
  2 20  1  0
  7 21  1  0
  8 22  1  0
  8 23  1  0
  8 24  1  0
  9 25  1  0
 12 26  1  0
M  END
>  <filename_input>  (15) 
7Z7F_IF3_docked.sdf

>  <pdb_id>  (15) 
7Z7F_IF3

>  <pose_rank>  (15) 
14

>  <num_atoms_heavy>  (15) 
14

>  <num_torsions>  (15) 
1

>  <pose>  (15) 
[12.827521179727583, 31.160591180664117, 3.717561283650525, 3.4154076280132677, -1.5913097603433726, 3.109141970860444, 1.45955899680232]

>  <energy>  (15) 
-200.40423251774837

>  <inter_energy>  (15) 
-195.15490314567623

>  <intra_energy>  (15) 
0.0

>  <rmsd>  (15) 
8.5392

>  <sdf_rank>  (15) 
0

$$$$

     RDKit          3D

 26 27  0  0  0  0  0  0  0  0999 V2000
   26.5055   36.6320    2.4311 C   0  0  0  0  0  0  0  0  0  0  0  0
   19.7051   36.9570    1.6828 C   0  0  0  0  0  0  0  0  0  0  0  0
   21.8789   35.6493    1.6568 C   0  0  0  0  0  0  0  0  0  0  0  0
   22.1439   35.1809    0.3255 C   0  0  0  0  0  0  0  0  0  0  0  0
   23.4589   35.0451   -0.0547 C   0  0  0  0  0  0  0  0  0  0  0  0
   24.1587   35.7972    2.0447 C   0  0  0  0  0  0  0  0  0  0  0  0
   22.2000   34.4544   -1.7488 C   0  0  0  0  0  0  0  0  0  0  0  0
   24.6882   34.3597   -2.1118 C   0  0  0  0  0  0  0  0  0  0  0  0
   20.5172   35.8260    2.1260 N   0  0  0  0  0  0  0  0  0  0  0  0
   24.4419   35.3630    0.8220 N   0  0  0  0  0  0  0  0  0  0  0  0
   22.8961   35.9270    2.4595 N   0  0  0  0  0  0  0  0  0  0  0  0
   25.2343   36.1473    2.9522 N   0  0  0  0  0  0  0  0  0  0  0  0
   23.4724   34.6072   -1.3379 N   0  0  0  0  0  0  0  0  0  0  0  0
   21.3727   34.8037   -0.7452 N   0  0  0  0  0  0  0  0  0  0  0  0
   27.1721   36.8861    3.2685 H   0  0  0  0  0  0  0  0  0  0  0  0
   26.9721   35.8486    1.8157 H   0  0  0  0  0  0  0  0  0  0  0  0
   26.3322   37.5271    1.8157 H   0  0  0  0  0  0  0  0  0  0  0  0
   19.3178   37.4964    2.5597 H   0  0  0  0  0  0  0  0  0  0  0  0
   20.3226   37.6369    1.0774 H   0  0  0  0  0  0  0  0  0  0  0  0
   18.8635   36.5892    1.0774 H   0  0  0  0  0  0  0  0  0  0  0  0
   21.8868   34.1016   -2.7425 H   0  0  0  0  0  0  0  0  0  0  0  0
   25.5309   34.1882   -1.4259 H   0  0  0  0  0  0  0  0  0  0  0  0
   24.5450   33.4723   -2.7458 H   0  0  0  0  0  0  0  0  0  0  0  0
   24.9032   35.2325   -2.7458 H   0  0  0  0  0  0  0  0  0  0  0  0
   20.1159   35.1420    2.7833 H   0  0  0  0  0  0  0  0  0  0  0  0
   25.0991   36.0530    3.9690 H   0  0  0  0  0  0  0  0  0  0  0  0
  1 12  1  0
  2  9  1  0
  3  4  2  0
  3  9  1  0
  3 11  1  0
  4  5  1  0
  4 14  1  0
  5 10  2  0
  5 13  1  0
  6 10  1  0
  6 11  2  0
  6 12  1  0
  7 13  1  0
  7 14  2  0
  8 13  1  0
  1 15  1  0
  1 16  1  0
  1 17  1  0
  2 18  1  0
  2 19  1  0
  2 20  1  0
  7 21  1  0
  8 22  1  0
  8 23  1  0
  8 24  1  0
  9 25  1  0
 12 26  1  0
M  END
>  <filename_input>  (16) 
7Z7F_IF3_docked.sdf

>  <pdb_id>  (16) 
7Z7F_IF3

>  <pose_rank>  (16) 
15

>  <num_atoms_heavy>  (16) 
14

>  <num_torsions>  (16) 
1

>  <pose>  (16) 
[26.505536733933404, 36.631963995262346, 2.4311329872078806, 2.897360768631236, 1.4495737500063077, 2.326788394428775, 1.6396756639132215]

>  <energy>  (16) 
-197.81719093869646

>  <inter_energy>  (16) 
-164.74477292614253

>  <intra_energy>  (16) 
0.07918416650990748

>  <rmsd>  (16) 
10.9942

>  <sdf_rank>  (16) 
0

$$$$

     RDKit          3D

 26 27  0  0  0  0  0  0  0  0999 V2000
   25.1718   36.7054    2.3138 C   0  0  0  0  0  0  0  0  0  0  0  0
   23.0353   32.6583   -2.9862 C   0  0  0  0  0  0  0  0  0  0  0  0
   23.3444   34.8209   -1.6963 C   0  0  0  0  0  0  0  0  0  0  0  0
   22.0009   35.1321   -1.2964 C   0  0  0  0  0  0  0  0  0  0  0  0
   21.8315   35.9085   -0.1735 C   0  0  0  0  0  0  0  0  0  0  0  0
   24.1482   36.0252    0.1130 C   0  0  0  0  0  0  0  0  0  0  0  0
   19.8465   35.4170   -0.9624 C   0  0  0  0  0  0  0  0  0  0  0  0
   19.9093   36.8117    1.1311 C   0  0  0  0  0  0  0  0  0  0  0  0
   23.6016   33.9998   -2.8647 N   0  0  0  0  0  0  0  0  0  0  0  0
   22.9199   36.3364    0.5107 N   0  0  0  0  0  0  0  0  0  0  0  0
   24.3573   35.2884   -0.9808 N   0  0  0  0  0  0  0  0  0  0  0  0
   25.2914   36.4831    0.8790 N   0  0  0  0  0  0  0  0  0  0  0  0
   20.4986   36.0636    0.0215 N   0  0  0  0  0  0  0  0  0  0  0  0
   20.7495   34.8381   -1.7769 N   0  0  0  0  0  0  0  0  0  0  0  0
   25.6255   35.8618    2.8546 H   0  0  0  0  0  0  0  0  0  0  0  0
   25.6908   37.6365    2.5850 H   0  0  0  0  0  0  0  0  0  0  0  0
   24.1088   36.7858    2.5850 H   0  0  0  0  0  0  0  0  0  0  0  0
   22.8597   32.2423   -1.9831 H   0  0  0  0  0  0  0  0  0  0  0  0
   22.0825   32.7106   -3.5334 H   0  0  0  0  0  0  0  0  0  0  0  0
   23.7374   32.0120   -3.5334 H   0  0  0  0  0  0  0  0  0  0  0  0
   18.7541   35.3691   -1.0817 H   0  0  0  0  0  0  0  0  0  0  0  0
   20.2485   36.3811    2.0848 H   0  0  0  0  0  0  0  0  0  0  0  0
   20.2236   37.8642    1.0716 H   0  0  0  0  0  0  0  0  0  0  0  0
   18.8125   36.7527    1.0716 H   0  0  0  0  0  0  0  0  0  0  0  0
   24.1939   34.3693   -3.6221 H   0  0  0  0  0  0  0  0  0  0  0  0
   26.1911   36.6517    0.4069 H   0  0  0  0  0  0  0  0  0  0  0  0
  1 12  1  0
  2  9  1  0
  3  4  2  0
  3  9  1  0
  3 11  1  0
  4  5  1  0
  4 14  1  0
  5 10  2  0
  5 13  1  0
  6 10  1  0
  6 11  2  0
  6 12  1  0
  7 13  1  0
  7 14  2  0
  8 13  1  0
  1 15  1  0
  1 16  1  0
  1 17  1  0
  2 18  1  0
  2 19  1  0
  2 20  1  0
  7 21  1  0
  8 22  1  0
  8 23  1  0
  8 24  1  0
  9 25  1  0
 12 26  1  0
M  END
>  <filename_input>  (17) 
7Z7F_IF3_docked.sdf

>  <pdb_id>  (17) 
7Z7F_IF3

>  <pose_rank>  (17) 
16

>  <num_atoms_heavy>  (17) 
14

>  <num_torsions>  (17) 
1

>  <pose>  (17) 
[25.171789668497695, 36.70540314837744, 2.3137914586186166, -4.934247609676667, -1.7857750650373976, -2.039398804079886, 1.9612150387664928]

>  <energy>  (17) 
-192.24861645960513

>  <inter_energy>  (17) 
-196.01979766507682

>  <intra_energy>  (17) 
3.030811170796379

>  <rmsd>  (17) 
10.7367

>  <sdf_rank>  (17) 
0

$$$$

     RDKit          3D

 26 27  0  0  0  0  0  0  0  0999 V2000
   21.6463   37.6623    1.7301 C   0  0  0  0  0  0  0  0  0  0  0  0
   24.9443   33.5509   -2.9211 C   0  0  0  0  0  0  0  0  0  0  0  0
   23.0667   34.3209   -1.3986 C   0  0  0  0  0  0  0  0  0  0  0  0
   21.7697   34.2647   -2.0121 C   0  0  0  0  0  0  0  0  0  0  0  0
   20.8394   35.2025   -1.6281 C   0  0  0  0  0  0  0  0  0  0  0  0
   22.3797   36.1435   -0.1432 C   0  0  0  0  0  0  0  0  0  0  0  0
   19.9097   33.9012   -3.1268 C   0  0  0  0  0  0  0  0  0  0  0  0
   18.4641   35.7262   -2.1723 C   0  0  0  0  0  0  0  0  0  0  0  0
   24.0965   33.3596   -1.7464 N   0  0  0  0  0  0  0  0  0  0  0  0
   21.1705   36.1246   -0.6921 N   0  0  0  0  0  0  0  0  0  0  0  0
   23.3172   35.2621   -0.4999 N   0  0  0  0  0  0  0  0  0  0  0  0
   22.6957   37.1317    0.8701 N   0  0  0  0  0  0  0  0  0  0  0  0
   19.6982   34.9554   -2.3174 N   0  0  0  0  0  0  0  0  0  0  0  0
   21.1711   33.4630   -2.9515 N   0  0  0  0  0  0  0  0  0  0  0  0
   21.9286   37.5196    2.7836 H   0  0  0  0  0  0  0  0  0  0  0  0
   21.5142   38.7355    1.5280 H   0  0  0  0  0  0  0  0  0  0  0  0
   20.7037   37.1324    1.5280 H   0  0  0  0  0  0  0  0  0  0  0  0
   25.9703   33.7825   -2.5991 H   0  0  0  0  0  0  0  0  0  0  0  0
   24.9481   32.6311   -3.5243 H   0  0  0  0  0  0  0  0  0  0  0  0
   24.5526   34.3833   -3.5243 H   0  0  0  0  0  0  0  0  0  0  0  0
   19.1725   33.4679   -3.8188 H   0  0  0  0  0  0  0  0  0  0  0  0
   18.2419   35.8649   -1.1039 H   0  0  0  0  0  0  0  0  0  0  0  0
   18.5867   36.7085   -2.6519 H   0  0  0  0  0  0  0  0  0  0  0  0
   17.6352   35.1849   -2.6519 H   0  0  0  0  0  0  0  0  0  0  0  0
   24.2324   32.5276   -1.1547 H   0  0  0  0  0  0  0  0  0  0  0  0
   23.6656   37.4597    0.9821 H   0  0  0  0  0  0  0  0  0  0  0  0
  1 12  1  0
  2  9  1  0
  3  4  2  0
  3  9  1  0
  3 11  1  0
  4  5  1  0
  4 14  1  0
  5 10  2  0
  5 13  1  0
  6 10  1  0
  6 11  2  0
  6 12  1  0
  7 13  1  0
  7 14  2  0
  8 13  1  0
  1 15  1  0
  1 16  1  0
  1 17  1  0
  2 18  1  0
  2 19  1  0
  2 20  1  0
  7 21  1  0
  8 22  1  0
  8 23  1  0
  8 24  1  0
  9 25  1  0
 12 26  1  0
M  END
>  <filename_input>  (18) 
7Z7F_IF3_docked.sdf

>  <pdb_id>  (18) 
7Z7F_IF3

>  <pose_rank>  (18) 
17

>  <num_atoms_heavy>  (18) 
14

>  <num_torsions>  (18) 
1

>  <pose>  (18) 
[21.64628971034932, 37.66229819156775, 1.7300959151481006, -0.6023097597881641, 2.825681256196714, -4.789334891278488, -1.8746879142891268]

>  <energy>  (18) 
-130.43515157600785

>  <inter_energy>  (18) 
-131.96667032122616

>  <intra_energy>  (18) 
0.0

>  <rmsd>  (18) 
10.4659

>  <sdf_rank>  (18) 
0

$$$$

     RDKit          3D

 26 27  0  0  0  0  0  0  0  0999 V2000
   23.6807   31.9503   -4.9765 C   0  0  0  0  0  0  0  0  0  0  0  0
   21.4960   36.3948   -0.0670 C   0  0  0  0  0  0  0  0  0  0  0  0
   22.1104   35.6920   -2.4260 C   0  0  0  0  0  0  0  0  0  0  0  0
   23.2964   36.4515   -2.7061 C   0  0  0  0  0  0  0  0  0  0  0  0
   24.1835   35.9371   -3.6230 C   0  0  0  0  0  0  0  0  0  0  0  0
   22.8108   34.0697   -3.9251 C   0  0  0  0  0  0  0  0  0  0  0  0
   24.9871   37.8437   -2.8997 C   0  0  0  0  0  0  0  0  0  0  0  0
   26.3868   36.6005   -4.5810 C   0  0  0  0  0  0  0  0  0  0  0  0
   21.1331   36.1663   -1.4639 N   0  0  0  0  0  0  0  0  0  0  0  0
   23.9169   34.7464   -4.2122 N   0  0  0  0  0  0  0  0  0  0  0  0
   21.9155   34.5413   -3.0539 N   0  0  0  0  0  0  0  0  0  0  0  0
   22.5648   32.7887   -4.5590 N   0  0  0  0  0  0  0  0  0  0  0  0
   25.2223   36.8032   -3.7203 N   0  0  0  0  0  0  0  0  0  0  0  0
   23.8143   37.6446   -2.2681 N   0  0  0  0  0  0  0  0  0  0  0  0
   24.1992   31.5608   -4.0881 H   0  0  0  0  0  0  0  0  0  0  0  0
   23.3032   31.1105   -5.5784 H   0  0  0  0  0  0  0  0  0  0  0  0
   24.3822   32.5466   -5.5784 H   0  0  0  0  0  0  0  0  0  0  0  0
   20.7482   35.9238    0.5879 H   0  0  0  0  0  0  0  0  0  0  0  0
   22.4852   35.9564    0.1313 H   0  0  0  0  0  0  0  0  0  0  0  0
   21.5278   37.4763    0.1313 H   0  0  0  0  0  0  0  0  0  0  0  0
   25.6454   38.7148   -2.7665 H   0  0  0  0  0  0  0  0  0  0  0  0
   27.2803   36.4450   -3.9585 H   0  0  0  0  0  0  0  0  0  0  0  0
   26.2241   35.7172   -5.2160 H   0  0  0  0  0  0  0  0  0  0  0  0
   26.5321   37.4868   -5.2160 H   0  0  0  0  0  0  0  0  0  0  0  0
   20.1664   36.3450   -1.7711 H   0  0  0  0  0  0  0  0  0  0  0  0
   21.5976   32.4705   -4.7145 H   0  0  0  0  0  0  0  0  0  0  0  0
  1 12  1  0
  2  9  1  0
  3  4  2  0
  3  9  1  0
  3 11  1  0
  4  5  1  0
  4 14  1  0
  5 10  2  0
  5 13  1  0
  6 10  1  0
  6 11  2  0
  6 12  1  0
  7 13  1  0
  7 14  2  0
  8 13  1  0
  1 15  1  0
  1 16  1  0
  1 17  1  0
  2 18  1  0
  2 19  1  0
  2 20  1  0
  7 21  1  0
  8 22  1  0
  8 23  1  0
  8 24  1  0
  9 25  1  0
 12 26  1  0
M  END
>  <filename_input>  (19) 
7Z7F_IF3_docked.sdf

>  <pdb_id>  (19) 
7Z7F_IF3

>  <pose_rank>  (19) 
18

>  <num_atoms_heavy>  (19) 
14

>  <num_torsions>  (19) 
1

>  <pose>  (19) 
[23.680669581970815, 31.950320473918772, -4.97654987794112, -0.12143496096099263, 1.4535039457302086, -1.9528594267511625, 1.8985417674584153]

>  <energy>  (19) 
-104.57433144208161

>  <inter_energy>  (19) 
-80.34281106171366

>  <intra_energy>  (19) 
2.1482787199479603

>  <rmsd>  (19) 
13.3215

>  <sdf_rank>  (19) 
0

$$$$

     RDKit          3D

 26 27  0  0  0  0  0  0  0  0999 V2000
   24.5330   32.3064   -4.3003 C   0  0  0  0  0  0  0  0  0  0  0  0
   21.4908   38.2438   -4.8576 C   0  0  0  0  0  0  0  0  0  0  0  0
   21.3707   35.8882   -3.9231 C   0  0  0  0  0  0  0  0  0  0  0  0
   20.2860   35.0494   -4.3493 C   0  0  0  0  0  0  0  0  0  0  0  0
   20.5336   33.7029   -4.4840 C   0  0  0  0  0  0  0  0  0  0  0  0
   22.7550   34.0318   -3.8360 C   0  0  0  0  0  0  0  0  0  0  0  0
   18.4367   34.0617   -5.0116 C   0  0  0  0  0  0  0  0  0  0  0  0
   19.2472   31.6857   -5.1828 C   0  0  0  0  0  0  0  0  0  0  0  0
   21.1878   37.3192   -3.7673 N   0  0  0  0  0  0  0  0  0  0  0  0
   21.7745   33.2247   -4.2246 N   0  0  0  0  0  0  0  0  0  0  0  0
   22.5527   35.3420   -3.6764 N   0  0  0  0  0  0  0  0  0  0  0  0
   24.0770   33.4908   -3.5850 N   0  0  0  0  0  0  0  0  0  0  0  0
   19.3862   33.1141   -4.9027 N   0  0  0  0  0  0  0  0  0  0  0  0
   18.9698   35.2533   -4.6799 N   0  0  0  0  0  0  0  0  0  0  0  0
   24.8307   31.5331   -3.5768 H   0  0  0  0  0  0  0  0  0  0  0  0
   23.7181   31.9232   -4.9321 H   0  0  0  0  0  0  0  0  0  0  0  0
   25.3945   32.5686   -4.9321 H   0  0  0  0  0  0  0  0  0  0  0  0
   21.8077   39.2111   -4.4406 H   0  0  0  0  0  0  0  0  0  0  0  0
   22.2998   37.8284   -5.4764 H   0  0  0  0  0  0  0  0  0  0  0  0
   20.5928   38.3878   -5.4764 H   0  0  0  0  0  0  0  0  0  0  0  0
   17.3951   33.8909   -5.3211 H   0  0  0  0  0  0  0  0  0  0  0  0
   19.1931   31.1297   -4.2352 H   0  0  0  0  0  0  0  0  0  0  0  0
   18.3280   31.5134   -5.7620 H   0  0  0  0  0  0  0  0  0  0  0  0
   20.1159   31.3394   -5.7620 H   0  0  0  0  0  0  0  0  0  0  0  0
   20.8382   37.6899   -2.8722 H   0  0  0  0  0  0  0  0  0  0  0  0
   24.6957   33.9456   -2.8986 H   0  0  0  0  0  0  0  0  0  0  0  0
  1 12  1  0
  2  9  1  0
  3  4  2  0
  3  9  1  0
  3 11  1  0
  4  5  1  0
  4 14  1  0
  5 10  2  0
  5 13  1  0
  6 10  1  0
  6 11  2  0
  6 12  1  0
  7 13  1  0
  7 14  2  0
  8 13  1  0
  1 15  1  0
  1 16  1  0
  1 17  1  0
  2 18  1  0
  2 19  1  0
  2 20  1  0
  7 21  1  0
  8 22  1  0
  8 23  1  0
  8 24  1  0
  9 25  1  0
 12 26  1  0
M  END
>  <filename_input>  (20) 
7Z7F_IF3_docked.sdf

>  <pdb_id>  (20) 
7Z7F_IF3

>  <pose_rank>  (20) 
19

>  <num_atoms_heavy>  (20) 
14

>  <num_torsions>  (20) 
1

>  <pose>  (20) 
[24.532999534809797, 32.306395723122975, -4.300288750717014, -3.1783575935491384, -0.15812074406943671, -1.0582199041614222, 1.322056312858472]

>  <energy>  (20) 
-86.83739655750284

>  <inter_energy>  (20) 
-81.8781097215642

>  <intra_energy>  (20) 
0.0

>  <rmsd>  (20) 
12.1132

>  <sdf_rank>  (20) 
0

$$$$

     RDKit          3D

 26 27  0  0  0  0  0  0  0  0999 V2000
   18.0162   31.2817    5.9985 C   0  0  0  0  0  0  0  0  0  0  0  0
   13.9418   26.3037    2.4975 C   0  0  0  0  0  0  0  0  0  0  0  0
   15.2833   28.1283    3.6409 C   0  0  0  0  0  0  0  0  0  0  0  0
   14.1612   29.0242    3.6309 C   0  0  0  0  0  0  0  0  0  0  0  0
   14.3669   30.3117    4.0696 C   0  0  0  0  0  0  0  0  0  0  0  0
   16.6121   29.8226    4.4975 C   0  0  0  0  0  0  0  0  0  0  0  0
   12.2616   30.1221    3.4904 C   0  0  0  0  0  0  0  0  0  0  0  0
   12.9839   32.3616    4.3819 C   0  0  0  0  0  0  0  0  0  0  0  0
   15.1411   26.7528    3.2013 N   0  0  0  0  0  0  0  0  0  0  0  0
   15.5981   30.6803    4.4989 N   0  0  0  0  0  0  0  0  0  0  0  0
   16.4594   28.5689    4.0640 N   0  0  0  0  0  0  0  0  0  0  0  0
   17.9126   30.2436    4.9818 N   0  0  0  0  0  0  0  0  0  0  0  0
   13.1836   30.9683    3.9855 N   0  0  0  0  0  0  0  0  0  0  0  0
   12.8408   28.9264    3.2701 N   0  0  0  0  0  0  0  0  0  0  0  0
   17.9704   30.8228    6.9972 H   0  0  0  0  0  0  0  0  0  0  0  0
   18.9720   31.8140    5.8831 H   0  0  0  0  0  0  0  0  0  0  0  0
   17.1846   31.9924    5.8831 H   0  0  0  0  0  0  0  0  0  0  0  0
   13.1731   26.0159    3.2298 H   0  0  0  0  0  0  0  0  0  0  0  0
   13.5598   27.1197    1.8665 H   0  0  0  0  0  0  0  0  0  0  0  0
   14.1897   25.4375    1.8665 H   0  0  0  0  0  0  0  0  0  0  0  0
   11.2068   30.3672    3.2972 H   0  0  0  0  0  0  0  0  0  0  0  0
   12.9737   32.4327    5.4796 H   0  0  0  0  0  0  0  0  0  0  0  0
   13.8030   32.9776    3.9822 H   0  0  0  0  0  0  0  0  0  0  0  0
   12.0248   32.7227    3.9822 H   0  0  0  0  0  0  0  0  0  0  0  0
   15.8990   26.0809    3.3886 H   0  0  0  0  0  0  0  0  0  0  0  0
   18.7662   29.8069    4.6054 H   0  0  0  0  0  0  0  0  0  0  0  0
  1 12  1  0
  2  9  1  0
  3  4  2  0
  3  9  1  0
  3 11  1  0
  4  5  1  0
  4 14  1  0
  5 10  2  0
  5 13  1  0
  6 10  1  0
  6 11  2  0
  6 12  1  0
  7 13  1  0
  7 14  2  0
  8 13  1  0
  1 15  1  0
  1 16  1  0
  1 17  1  0
  2 18  1  0
  2 19  1  0
  2 20  1  0
  7 21  1  0
  8 22  1  0
  8 23  1  0
  8 24  1  0
  9 25  1  0
 12 26  1  0
M  END
>  <filename_input>  (21) 
7Z7F_IF3_docked.sdf

>  <pdb_id>  (21) 
7Z7F_IF3

>  <pose_rank>  (21) 
20

>  <num_atoms_heavy>  (21) 
14

>  <num_torsions>  (21) 
1

>  <pose>  (21) 
[18.016240864789854, 31.281748173794853, 5.998537317118196, -0.7508699557348425, 4.400568196278341, -4.749473316838822, 3.156322121143561]

>  <energy>  (21) 
-351.2753271884686

>  <inter_energy>  (21) 
-357.6073463156993

>  <intra_energy>  (21) 
16.98990842246534

>  <rmsd>  (21) 
2.21725

>  <sdf_rank>  (21) 
0

$$$$

     RDKit          3D

 26 27  0  0  0  0  0  0  0  0999 V2000
   20.3284   36.4240   -1.7802 C   0  0  0  0  0  0  0  0  0  0  0  0
   17.9392   30.3109   -4.3167 C   0  0  0  0  0  0  0  0  0  0  0  0
   18.8535   32.6765   -4.3787 C   0  0  0  0  0  0  0  0  0  0  0  0
   17.7078   33.3932   -4.8640 C   0  0  0  0  0  0  0  0  0  0  0  0
   17.6240   34.7357   -4.5757 C   0  0  0  0  0  0  0  0  0  0  0  0
   19.6475   34.6267   -3.4111 C   0  0  0  0  0  0  0  0  0  0  0  0
   15.8520   34.1817   -5.7406 C   0  0  0  0  0  0  0  0  0  0  0  0
   16.0075   36.5834   -5.0063 C   0  0  0  0  0  0  0  0  0  0  0  0
   19.0065   31.2566   -4.6355 N   0  0  0  0  0  0  0  0  0  0  0  0
   18.6038   35.3228   -3.8469 N   0  0  0  0  0  0  0  0  0  0  0  0
   19.7760   33.3258   -3.6831 N   0  0  0  0  0  0  0  0  0  0  0  0
   20.6693   35.2812   -2.6169 N   0  0  0  0  0  0  0  0  0  0  0  0
   16.4698   35.2004   -5.1146 N   0  0  0  0  0  0  0  0  0  0  0  0
   16.5934   33.0667   -5.5954 N   0  0  0  0  0  0  0  0  0  0  0  0
   20.4129   36.1409   -0.7206 H   0  0  0  0  0  0  0  0  0  0  0  0
   21.0181   37.2538   -1.9941 H   0  0  0  0  0  0  0  0  0  0  0  0
   19.2968   36.7403   -1.9941 H   0  0  0  0  0  0  0  0  0  0  0  0
   17.8407   30.2236   -3.2246 H   0  0  0  0  0  0  0  0  0  0  0  0
   16.9910   30.6707   -4.7427 H   0  0  0  0  0  0  0  0  0  0  0  0
   18.1823   29.3263   -4.7427 H   0  0  0  0  0  0  0  0  0  0  0  0
   14.8972   34.2488   -6.2827 H   0  0  0  0  0  0  0  0  0  0  0  0
   15.9159   36.8573   -3.9449 H   0  0  0  0  0  0  0  0  0  0  0  0
   16.7312   37.2514   -5.4962 H   0  0  0  0  0  0  0  0  0  0  0  0
   15.0275   36.6819   -5.4962 H   0  0  0  0  0  0  0  0  0  0  0  0
   19.8831   30.9091   -5.0500 H   0  0  0  0  0  0  0  0  0  0  0  0
   21.6396   34.9367   -2.6444 H   0  0  0  0  0  0  0  0  0  0  0  0
  1 12  1  0
  2  9  1  0
  3  4  2  0
  3  9  1  0
  3 11  1  0
  4  5  1  0
  4 14  1  0
  5 10  2  0
  5 13  1  0
  6 10  1  0
  6 11  2  0
  6 12  1  0
  7 13  1  0
  7 14  2  0
  8 13  1  0
  1 15  1  0
  1 16  1  0
  1 17  1  0
  2 18  1  0
  2 19  1  0
  2 20  1  0
  7 21  1  0
  8 22  1  0
  8 23  1  0
  8 24  1  0
  9 25  1  0
 12 26  1  0
M  END
>  <filename_input>  (22) 
7Z7F_IF3_docked.sdf

>  <pdb_id>  (22) 
7Z7F_IF3

>  <pose_rank>  (22) 
21

>  <num_atoms_heavy>  (22) 
14

>  <num_torsions>  (22) 
1

>  <pose>  (22) 
[20.328411055634387, 36.4240308410829, -1.780166592724719, 3.581987671306989, 4.653309762375962, 1.4697835944721849, 2.0375309122248915]

>  <energy>  (22) 
-148.10233136096056

>  <inter_energy>  (22) 
-147.69454476757642

>  <intra_energy>  (22) 
4.269029190082801

>  <rmsd>  (22) 
10.3742

>  <sdf_rank>  (22) 
0

$$$$

     RDKit          3D

 26 27  0  0  0  0  0  0  0  0999 V2000
   21.9644   36.8418   -5.0550 C   0  0  0  0  0  0  0  0  0  0  0  0
   19.9967   34.5006    1.2919 C   0  0  0  0  0  0  0  0  0  0  0  0
   21.0918   36.0269   -0.4132 C   0  0  0  0  0  0  0  0  0  0  0  0
   22.4773   35.7648   -0.1417 C   0  0  0  0  0  0  0  0  0  0  0  0
   23.3837   36.0118   -1.1465 C   0  0  0  0  0  0  0  0  0  0  0  0
   21.6532   36.7030   -2.5574 C   0  0  0  0  0  0  0  0  0  0  0  0
   24.4879   35.2616    0.5918 C   0  0  0  0  0  0  0  0  0  0  0  0
   25.8462   35.7876   -1.4600 C   0  0  0  0  0  0  0  0  0  0  0  0
   20.0769   35.7823    0.5946 N   0  0  0  0  0  0  0  0  0  0  0  0
   22.9437   36.4759   -2.3411 N   0  0  0  0  0  0  0  0  0  0  0  0
   20.7426   36.4928   -1.6037 N   0  0  0  0  0  0  0  0  0  0  0  0
   21.2132   37.1814   -3.8538 N   0  0  0  0  0  0  0  0  0  0  0  0
   24.6141   35.6857   -0.6792 N   0  0  0  0  0  0  0  0  0  0  0  0
   23.1867   35.3001    0.9373 N   0  0  0  0  0  0  0  0  0  0  0  0
   22.9326   36.4041   -4.7704 H   0  0  0  0  0  0  0  0  0  0  0  0
   21.3939   36.1141   -5.6507 H   0  0  0  0  0  0  0  0  0  0  0  0
   22.1339   37.7508   -5.6507 H   0  0  0  0  0  0  0  0  0  0  0  0
   20.0075   34.6729    2.3782 H   0  0  0  0  0  0  0  0  0  0  0  0
   19.0647   33.9882    1.0111 H   0  0  0  0  0  0  0  0  0  0  0  0
   20.8575   33.8760    1.0111 H   0  0  0  0  0  0  0  0  0  0  0  0
   25.3130   34.9365    1.2425 H   0  0  0  0  0  0  0  0  0  0  0  0
   26.7071   35.8588   -0.7789 H   0  0  0  0  0  0  0  0  0  0  0  0
   25.9533   34.8952   -2.0942 H   0  0  0  0  0  0  0  0  0  0  0  0
   25.8052   36.6854   -2.0942 H   0  0  0  0  0  0  0  0  0  0  0  0
   19.4010   36.5253    0.8225 H   0  0  0  0  0  0  0  0  0  0  0  0
   20.3664   37.7634   -3.9256 H   0  0  0  0  0  0  0  0  0  0  0  0
  1 12  1  0
  2  9  1  0
  3  4  2  0
  3  9  1  0
  3 11  1  0
  4  5  1  0
  4 14  1  0
  5 10  2  0
  5 13  1  0
  6 10  1  0
  6 11  2  0
  6 12  1  0
  7 13  1  0
  7 14  2  0
  8 13  1  0
  1 15  1  0
  1 16  1  0
  1 17  1  0
  2 18  1  0
  2 19  1  0
  2 20  1  0
  7 21  1  0
  8 22  1  0
  8 23  1  0
  8 24  1  0
  9 25  1  0
 12 26  1  0
M  END
>  <filename_input>  (23) 
7Z7F_IF3_docked.sdf

>  <pdb_id>  (23) 
7Z7F_IF3

>  <pose_rank>  (23) 
22

>  <num_atoms_heavy>  (23) 
14

>  <num_torsions>  (23) 
1

>  <pose>  (23) 
[21.96439421359696, 36.8418062286826, -5.054965675207646, -1.2362464830700202, -2.8515687097845923, 1.1623280739732376, 2.0573291906146074]

>  <energy>  (23) 
-172.15234037487878

>  <inter_energy>  (23) 
-154.10369407434118

>  <intra_energy>  (23) 
4.615959371821317

>  <rmsd>  (23) 
12.0438

>  <sdf_rank>  (23) 
0

$$$$

     RDKit          3D

 26 27  0  0  0  0  0  0  0  0999 V2000
    8.7027   26.4617   -5.0600 C   0  0  0  0  0  0  0  0  0  0  0  0
   11.5558   19.9836   -5.8475 C   0  0  0  0  0  0  0  0  0  0  0  0
   10.7439   22.1346   -4.7750 C   0  0  0  0  0  0  0  0  0  0  0  0
    9.9763   21.7879   -3.6120 C   0  0  0  0  0  0  0  0  0  0  0  0
    8.9722   22.6467   -3.2291 C   0  0  0  0  0  0  0  0  0  0  0  0
    9.4863   24.0663   -5.0133 C   0  0  0  0  0  0  0  0  0  0  0  0
    9.0082   20.9735   -1.8138 C   0  0  0  0  0  0  0  0  0  0  0  0
    7.2968   22.7683   -1.3877 C   0  0  0  0  0  0  0  0  0  0  0  0
   11.8248   21.2824   -5.2342 N   0  0  0  0  0  0  0  0  0  0  0  0
    8.7531   23.7763   -3.9446 N   0  0  0  0  0  0  0  0  0  0  0  0
   10.4592   23.2516   -5.4288 N   0  0  0  0  0  0  0  0  0  0  0  0
    9.2387   25.2933   -5.7456 N   0  0  0  0  0  0  0  0  0  0  0  0
    8.3954   22.1334   -2.1145 N   0  0  0  0  0  0  0  0  0  0  0  0
    9.9808   20.7471   -2.7176 N   0  0  0  0  0  0  0  0  0  0  0  0
    8.7713   26.3121   -3.9724 H   0  0  0  0  0  0  0  0  0  0  0  0
    9.2825   27.3520   -5.3450 H   0  0  0  0  0  0  0  0  0  0  0  0
    7.6498   26.6031   -5.3450 H   0  0  0  0  0  0  0  0  0  0  0  0
   11.4001   19.2315   -5.0601 H   0  0  0  0  0  0  0  0  0  0  0  0
   10.6530   20.0530   -6.4721 H   0  0  0  0  0  0  0  0  0  0  0  0
   12.4120   19.6887   -6.4721 H   0  0  0  0  0  0  0  0  0  0  0  0
    8.7559   20.3174   -0.9677 H   0  0  0  0  0  0  0  0  0  0  0  0
    7.4676   22.6696   -0.3056 H   0  0  0  0  0  0  0  0  0  0  0  0
    7.2476   23.8341   -1.6554 H   0  0  0  0  0  0  0  0  0  0  0  0
    6.3488   22.2788   -1.6554 H   0  0  0  0  0  0  0  0  0  0  0  0
   12.7991   21.5986   -5.1260 H   0  0  0  0  0  0  0  0  0  0  0  0
    9.4424   25.3389   -6.7543 H   0  0  0  0  0  0  0  0  0  0  0  0
  1 12  1  0
  2  9  1  0
  3  4  2  0
  3  9  1  0
  3 11  1  0
  4  5  1  0
  4 14  1  0
  5 10  2  0
  5 13  1  0
  6 10  1  0
  6 11  2  0
  6 12  1  0
  7 13  1  0
  7 14  2  0
  8 13  1  0
  1 15  1  0
  1 16  1  0
  1 17  1  0
  2 18  1  0
  2 19  1  0
  2 20  1  0
  7 21  1  0
  8 22  1  0
  8 23  1  0
  8 24  1  0
  9 25  1  0
 12 26  1  0
M  END
>  <filename_input>  (24) 
7Z7F_IF3_docked.sdf

>  <pdb_id>  (24) 
7Z7F_IF3

>  <pose_rank>  (24) 
23

>  <num_atoms_heavy>  (24) 
14

>  <num_torsions>  (24) 
1

>  <pose>  (24) 
[8.702741932024471, 26.46169916074048, -5.060018310070744, -0.6372888072276304, 1.1121041219262326, 1.0911425249035522, -2.0966000918891665]

>  <energy>  (24) 
-91.37972668876026

>  <inter_energy>  (24) 
-89.02157080227181

>  <intra_energy>  (24) 
0.38889966781068425

>  <rmsd>  (24) 
12.2237

>  <sdf_rank>  (24) 
0

$$$$

     RDKit          3D

 26 27  0  0  0  0  0  0  0  0999 V2000
   10.0278   19.0310   -1.1250 C   0  0  0  0  0  0  0  0  0  0  0  0
    8.7277   25.2768   -4.5373 C   0  0  0  0  0  0  0  0  0  0  0  0
    9.7192   23.2537   -3.3712 C   0  0  0  0  0  0  0  0  0  0  0  0
   10.7632   22.9027   -4.2925 C   0  0  0  0  0  0  0  0  0  0  0  0
   11.2224   21.6060   -4.2748 C   0  0  0  0  0  0  0  0  0  0  0  0
    9.7275   21.0847   -2.5554 C   0  0  0  0  0  0  0  0  0  0  0  0
   12.3447   22.7008   -5.8065 C   0  0  0  0  0  0  0  0  0  0  0  0
   12.9584   20.2827   -5.4780 C   0  0  0  0  0  0  0  0  0  0  0  0
    9.1904   24.6041   -3.3254 N   0  0  0  0  0  0  0  0  0  0  0  0
   10.6899   20.7228   -3.3960 N   0  0  0  0  0  0  0  0  0  0  0  0
    9.2416   22.3284   -2.5514 N   0  0  0  0  0  0  0  0  0  0  0  0
    9.1926   20.1199   -1.6140 N   0  0  0  0  0  0  0  0  0  0  0  0
   12.2026   21.5046   -5.2062 N   0  0  0  0  0  0  0  0  0  0  0  0
   11.4741   23.5699   -5.2583 N   0  0  0  0  0  0  0  0  0  0  0  0
   10.0261   19.0332   -0.0250 H   0  0  0  0  0  0  0  0  0  0  0  0
    9.6313   18.0723   -1.4903 H   0  0  0  0  0  0  0  0  0  0  0  0
   11.0566   19.1655   -1.4903 H   0  0  0  0  0  0  0  0  0  0  0  0
    8.1241   26.1543   -4.2619 H   0  0  0  0  0  0  0  0  0  0  0  0
    9.5953   25.6003   -5.1311 H   0  0  0  0  0  0  0  0  0  0  0  0
    8.1153   24.5823   -5.1311 H   0  0  0  0  0  0  0  0  0  0  0  0
   13.0559   22.9310   -6.6134 H   0  0  0  0  0  0  0  0  0  0  0  0
   13.2493   19.8123   -4.5271 H   0  0  0  0  0  0  0  0  0  0  0  0
   12.3334   19.5858   -6.0557 H   0  0  0  0  0  0  0  0  0  0  0  0
   13.8611   20.5307   -6.0557 H   0  0  0  0  0  0  0  0  0  0  0  0
    9.1402   25.0974   -2.4226 H   0  0  0  0  0  0  0  0  0  0  0  0
    8.2186   20.2049   -1.2900 H   0  0  0  0  0  0  0  0  0  0  0  0
  1 12  1  0
  2  9  1  0
  3  4  2  0
  3  9  1  0
  3 11  1  0
  4  5  1  0
  4 14  1  0
  5 10  2  0
  5 13  1  0
  6 10  1  0
  6 11  2  0
  6 12  1  0
  7 13  1  0
  7 14  2  0
  8 13  1  0
  1 15  1  0
  1 16  1  0
  1 17  1  0
  2 18  1  0
  2 19  1  0
  2 20  1  0
  7 21  1  0
  8 22  1  0
  8 23  1  0
  8 24  1  0
  9 25  1  0
 12 26  1  0
M  END
>  <filename_input>  (25) 
7Z7F_IF3_docked.sdf

>  <pdb_id>  (25) 
7Z7F_IF3

>  <pose_rank>  (25) 
24

>  <num_atoms_heavy>  (25) 
14

>  <num_torsions>  (25) 
1

>  <pose>  (25) 
[10.027815525387298, 19.03104646882097, -1.1249563752872895, -0.7653696991564563, 0.35031447991554865, -2.8451615160505317, 3.8496509112743174]

>  <energy>  (25) 
-114.03550764101081

>  <inter_energy>  (25) 
-110.12308584377222

>  <intra_energy>  (25) 
4.492659755284738

>  <rmsd>  (25) 
12.3768

>  <sdf_rank>  (25) 
0

$$$$

     RDKit          3D

 26 27  0  0  0  0  0  0  0  0999 V2000
   18.6160   30.3380    6.4530 C   0  0  0  0  0  0  0  0  0  0  0  0
   18.1930   24.7100    3.5550 C   0  0  0  0  0  0  0  0  0  0  0  0
   16.8640   26.8690    3.6480 C   0  0  0  0  0  0  0  0  0  0  0  0
   15.6200   27.5640    3.4710 C   0  0  0  0  0  0  0  0  0  0  0  0
   15.5310   28.8490    3.9540 C   0  0  0  0  0  0  0  0  0  0  0  0
   17.7330   28.7260    4.7280 C   0  0  0  0  0  0  0  0  0  0  0  0
   13.6050   28.3330    3.0440 C   0  0  0  0  0  0  0  0  0  0  0  0
   13.7850   30.6240    4.0690 C   0  0  0  0  0  0  0  0  0  0  0  0
   17.0300   25.5080    3.1730 N   0  0  0  0  0  0  0  0  0  0  0  0
   16.5990   29.4010    4.5790 N   0  0  0  0  0  0  0  0  0  0  0  0
   17.8670   27.4830    4.2590 N   0  0  0  0  0  0  0  0  0  0  0  0
   18.8510   29.3390    5.4190 N   0  0  0  0  0  0  0  0  0  0  0  0
   14.2800   29.3010    3.6910 N   0  0  0  0  0  0  0  0  0  0  0  0
   14.4080   27.2610    2.9030 N   0  0  0  0  0  0  0  0  0  0  0  0
   18.7254   29.8729    7.4438 H   0  0  0  0  0  0  0  0  0  0  0  0
   19.3469   31.1534    6.3480 H   0  0  0  0  0  0  0  0  0  0  0  0
   17.5983   30.7420    6.3480 H   0  0  0  0  0  0  0  0  0  0  0  0
   18.2613   24.6632    4.6519 H   0  0  0  0  0  0  0  0  0  0  0  0
   18.0885   23.6925    3.1503 H   0  0  0  0  0  0  0  0  0  0  0  0
   19.1048   25.1736    3.1503 H   0  0  0  0  0  0  0  0  0  0  0  0
   12.5666   28.4055    2.6883 H   0  0  0  0  0  0  0  0  0  0  0  0
   13.7548   30.7046    5.1656 H   0  0  0  0  0  0  0  0  0  0  0  0
   14.4551   31.3960    3.6629 H   0  0  0  0  0  0  0  0  0  0  0  0
   12.7727   30.7666    3.6629 H   0  0  0  0  0  0  0  0  0  0  0  0
   16.3153   25.0971    2.5555 H   0  0  0  0  0  0  0  0  0  0  0  0
   19.8147   29.0671    5.1778 H   0  0  0  0  0  0  0  0  0  0  0  0
  1 12  1  0
  2  9  1  0
  3  4  2  0
  3  9  1  0
  3 11  1  0
  4  5  1  0
  4 14  1  0
  5 10  2  0
  5 13  1  0
  6 10  1  0
  6 11  2  0
  6 12  1  0
  7 13  1  0
  7 14  2  0
  8 13  1  0
  1 15  1  0
  1 16  1  0
  1 17  1  0
  2 18  1  0
  2 19  1  0
  2 20  1  0
  7 21  1  0
  8 22  1  0
  8 23  1  0
  8 24  1  0
  9 25  1  0
 12 26  1  0
M  END
>  <filename_input>  (26) 
7Z7F_IF3_docked.sdf

>  <pdb_id>  (26) 
7Z7F_IF3

>  <pose_rank>  (26) 
25

>  <num_atoms_heavy>  (26) 
14

>  <num_torsions>  (26) 
1

>  <pose>  (26) 
[18.616, 30.338, 6.453, 1e-06, 1e-06, 1e-06, 0.0]

>  <energy>  (26) 
-625.5440218725854

>  <inter_energy>  (26) 
-618.0444263806912

>  <intra_energy>  (26) 
0.0

>  <rmsd>  (26) 
0.0

>  <sdf_rank>  (26) 
0

$$$$
