
     RDKit          3D

 13 12  0  0  0  0  0  0  0  0999 V2000
   36.2438   15.3785   59.2021 C   0  0  0  0  0  0  0  0  0  0  0  0
   37.3758   16.3497   59.3425 C   0  0  0  0  0  0  0  0  0  0  0  0
   39.7982   16.8532   59.3623 C   0  0  0  0  0  0  0  0  0  0  0  0
   41.0738   16.1590   59.8640 C   0  0  0  0  0  0  0  0  0  0  0  0
   36.5363   14.1400   59.2598 O   0  0  0  0  0  0  0  0  0  0  0  0
   35.0675   15.9472   59.0484 O   0  0  0  0  0  0  0  0  0  0  0  0
   37.0553   17.4947   59.5694 O   0  0  0  0  0  0  0  0  0  0  0  0
   42.1344   16.8159   60.2171 O   0  0  0  0  0  0  0  0  0  0  0  0
   38.7455   15.8995   59.2224 N   0  0  0  0  0  0  0  0  0  0  0  0
   41.0206   14.9230   59.9189 O   0  0  0  0  0  0  0  0  0  0  0  0
   39.4960   17.6258   60.0846 H   0  0  0  0  0  0  0  0  0  0  0  0
   39.9994   17.3147   58.3843 H   0  0  0  0  0  0  0  0  0  0  0  0
   38.9572   14.9082   59.0391 H   0  0  0  0  0  0  0  0  0  0  0  0
  1  2  1  0
  1  5  2  0
  1  6  1  0
  2  7  2  0
  2  9  1  0
  3  4  1  0
  3  9  1  0
  4  8  1  0
  4 10  2  0
  3 11  1  0
  3 12  1  0
  9 13  1  0
M  CHG  2   6  -1   8  -1
M  END
>  <filename_input>  (1) 
7ZCC_OGA_docked.sdf

>  <pdb_id>  (1) 
7ZCC_OGA

>  <pose_rank>  (1) 
0

>  <num_atoms_heavy>  (1) 
10

>  <num_torsions>  (1) 
3

>  <pose>  (1) 
[37.37576783549195, 16.349724919755246, 59.34246420545488, 1.6781356686893238, -5.358108486817498, -2.345772148364893, 0.16339676611567933, -0.3311577586910496, 0.12881660607410822]

>  <energy>  (1) 
-584.7272990742003

>  <inter_energy>  (1) 
-574.2844060450154

>  <intra_energy>  (1) 
0.0

>  <rmsd>  (1) 
0.598623

>  <sdf_rank>  (1) 
0

$$$$

     RDKit          3D

 13 12  0  0  0  0  0  0  0  0999 V2000
   37.1451   18.0460   57.4263 C   0  0  0  0  0  0  0  0  0  0  0  0
   37.6113   17.2795   58.6261 C   0  0  0  0  0  0  0  0  0  0  0  0
   39.4023   16.6037   60.1938 C   0  0  0  0  0  0  0  0  0  0  0  0
   40.8412   16.0979   60.0084 C   0  0  0  0  0  0  0  0  0  0  0  0
   37.6992   19.1727   57.2109 O   0  0  0  0  0  0  0  0  0  0  0  0
   36.2128   17.4330   56.7294 O   0  0  0  0  0  0  0  0  0  0  0  0
   36.7656   16.6149   59.1812 O   0  0  0  0  0  0  0  0  0  0  0  0
   41.8642   16.8941   59.9837 O   0  0  0  0  0  0  0  0  0  0  0  0
   38.9941   17.3479   59.0462 N   0  0  0  0  0  0  0  0  0  0  0  0
   40.9634   14.8711   59.8925 O   0  0  0  0  0  0  0  0  0  0  0  0
   38.7289   15.7446   60.3292 H   0  0  0  0  0  0  0  0  0  0  0  0
   39.3600   17.2545   61.0797 H   0  0  0  0  0  0  0  0  0  0  0  0
   39.6720   17.9234   58.5264 H   0  0  0  0  0  0  0  0  0  0  0  0
  1  2  1  0
  1  5  2  0
  1  6  1  0
  2  7  2  0
  2  9  1  0
  3  4  1  0
  3  9  1  0
  4  8  1  0
  4 10  2  0
  3 11  1  0
  3 12  1  0
  9 13  1  0
M  CHG  2   6  -1   8  -1
M  END
>  <filename_input>  (2) 
7ZCC_OGA_docked.sdf

>  <pdb_id>  (2) 
7ZCC_OGA

>  <pose_rank>  (2) 
1

>  <num_atoms_heavy>  (2) 
10

>  <num_torsions>  (2) 
3

>  <pose>  (2) 
[37.61131217945331, 17.27952321935571, 58.6260849695402, -3.87907431505667, 0.9950959794120637, -1.2958979915897633, -0.6822474613322443, -0.46250434329754303, -1.9598824574476603]

>  <energy>  (2) 
-442.52799446976286

>  <inter_energy>  (2) 
-440.4272534865336

>  <intra_energy>  (2) 
0.0

>  <rmsd>  (2) 
1.9634

>  <sdf_rank>  (2) 
0

$$$$

     RDKit          3D

 13 12  0  0  0  0  0  0  0  0999 V2000
   45.1144   16.3603   59.0468 C   0  0  0  0  0  0  0  0  0  0  0  0
   43.8808   16.9653   59.6437 C   0  0  0  0  0  0  0  0  0  0  0  0
   41.4455   16.9156   60.0788 C   0  0  0  0  0  0  0  0  0  0  0  0
   40.1715   16.2494   59.5368 C   0  0  0  0  0  0  0  0  0  0  0  0
   45.7968   15.5867   59.7943 O   0  0  0  0  0  0  0  0  0  0  0  0
   45.3271   16.7050   57.7952 O   0  0  0  0  0  0  0  0  0  0  0  0
   44.0432   18.0152   60.2239 O   0  0  0  0  0  0  0  0  0  0  0  0
   40.0677   14.9671   59.3758 O   0  0  0  0  0  0  0  0  0  0  0  0
   42.5995   16.3095   59.4970 N   0  0  0  0  0  0  0  0  0  0  0  0
   39.2398   17.0204   59.2703 O   0  0  0  0  0  0  0  0  0  0  0  0
   41.4313   17.9866   59.8283 H   0  0  0  0  0  0  0  0  0  0  0  0
   41.4828   16.7881   61.1708 H   0  0  0  0  0  0  0  0  0  0  0  0
   42.5214   15.4210   58.9819 H   0  0  0  0  0  0  0  0  0  0  0  0
  1  2  1  0
  1  5  2  0
  1  6  1  0
  2  7  2  0
  2  9  1  0
  3  4  1  0
  3  9  1  0
  4  8  1  0
  4 10  2  0
  3 11  1  0
  3 12  1  0
  9 13  1  0
M  CHG  2   6  -1   8  -1
M  END
>  <filename_input>  (3) 
7ZCC_OGA_docked.sdf

>  <pdb_id>  (3) 
7ZCC_OGA

>  <pose_rank>  (3) 
2

>  <num_atoms_heavy>  (3) 
10

>  <num_torsions>  (3) 
3

>  <pose>  (3) 
[43.880757409259076, 16.9653170579367, 59.643711162635974, 0.19878891043596317, -2.6267943631622974, -1.0601041107917373, -1.697359691608609, -6.375348591150912, 3.8623081059073816]

>  <energy>  (3) 
-320.7186174585931

>  <inter_energy>  (3) 
-305.92355677270183

>  <intra_energy>  (3) 
0.0

>  <rmsd>  (3) 
6.25574

>  <sdf_rank>  (3) 
0

$$$$

     RDKit          3D

 13 12  0  0  0  0  0  0  0  0999 V2000
   40.9696   12.7359   60.2746 C   0  0  0  0  0  0  0  0  0  0  0  0
   39.8486   13.6901   59.9967 C   0  0  0  0  0  0  0  0  0  0  0  0
   39.0318   15.8969   59.2318 C   0  0  0  0  0  0  0  0  0  0  0  0
   39.3843   17.3181   59.6972 C   0  0  0  0  0  0  0  0  0  0  0  0
   41.6801   12.3760   59.2805 O   0  0  0  0  0  0  0  0  0  0  0  0
   41.0832   12.3990   61.5412 O   0  0  0  0  0  0  0  0  0  0  0  0
   38.7381   13.2756   60.2419 O   0  0  0  0  0  0  0  0  0  0  0  0
   40.5990   17.6855   59.9626 O   0  0  0  0  0  0  0  0  0  0  0  0
   40.1251   15.0146   59.4843 N   0  0  0  0  0  0  0  0  0  0  0  0
   38.4280   18.0988   59.7945 O   0  0  0  0  0  0  0  0  0  0  0  0
   38.1451   15.5439   59.7788 H   0  0  0  0  0  0  0  0  0  0  0  0
   38.8226   15.9123   58.1519 H   0  0  0  0  0  0  0  0  0  0  0  0
   41.0936   15.3156   59.3049 H   0  0  0  0  0  0  0  0  0  0  0  0
  1  2  1  0
  1  5  2  0
  1  6  1  0
  2  7  2  0
  2  9  1  0
  3  4  1  0
  3  9  1  0
  4  8  1  0
  4 10  2  0
  3 11  1  0
  3 12  1  0
  9 13  1  0
M  CHG  2   6  -1   8  -1
M  END
>  <filename_input>  (4) 
7ZCC_OGA_docked.sdf

>  <pdb_id>  (4) 
7ZCC_OGA

>  <pose_rank>  (4) 
3

>  <num_atoms_heavy>  (4) 
10

>  <num_torsions>  (4) 
3

>  <pose>  (4) 
[39.84858138856705, 13.69012488544416, 59.996731168058425, 1.2122499474377093, -0.6662271238120013, -4.211428521539201, -1.1815618621291122, -0.5836116022621529, -2.8822382027285074]

>  <energy>  (4) 
-286.85527579272025

>  <inter_energy>  (4) 
-278.97465082279047

>  <intra_energy>  (4) 
0.0

>  <rmsd>  (4) 
4.49574

>  <sdf_rank>  (4) 
0

$$$$

     RDKit          3D

 13 12  0  0  0  0  0  0  0  0999 V2000
   36.6701   16.7404   58.3200 C   0  0  0  0  0  0  0  0  0  0  0  0
   37.7005   16.2189   59.2743 C   0  0  0  0  0  0  0  0  0  0  0  0
   39.5504   14.6686   59.8185 C   0  0  0  0  0  0  0  0  0  0  0  0
   40.6750   15.7034   59.9771 C   0  0  0  0  0  0  0  0  0  0  0  0
   36.8085   17.9427   57.9224 O   0  0  0  0  0  0  0  0  0  0  0  0
   35.7445   15.8619   58.0002 O   0  0  0  0  0  0  0  0  0  0  0  0
   37.7203   16.7503   60.3617 O   0  0  0  0  0  0  0  0  0  0  0  0
   41.0528   16.4789   59.0092 O   0  0  0  0  0  0  0  0  0  0  0  0
   38.5811   15.1398   58.8827 N   0  0  0  0  0  0  0  0  0  0  0  0
   41.1951   15.7563   61.0996 O   0  0  0  0  0  0  0  0  0  0  0  0
   39.9759   13.7211   59.4561 H   0  0  0  0  0  0  0  0  0  0  0  0
   39.0647   14.5113   60.7928 H   0  0  0  0  0  0  0  0  0  0  0  0
   38.5097   14.7190   57.9453 H   0  0  0  0  0  0  0  0  0  0  0  0
  1  2  1  0
  1  5  2  0
  1  6  1  0
  2  7  2  0
  2  9  1  0
  3  4  1  0
  3  9  1  0
  4  8  1  0
  4 10  2  0
  3 11  1  0
  3 12  1  0
  9 13  1  0
M  CHG  2   6  -1   8  -1
M  END
>  <filename_input>  (5) 
7ZCC_OGA_docked.sdf

>  <pdb_id>  (5) 
7ZCC_OGA

>  <pose_rank>  (5) 
4

>  <num_atoms_heavy>  (5) 
10

>  <num_torsions>  (5) 
3

>  <pose>  (5) 
[37.70049433172186, 16.21894429801255, 59.27428377304038, 0.9431475573630085, -0.3087494831736477, -0.551852414165238, -2.09413174191296, 2.0167995925277937, -3.7020927826642733]

>  <energy>  (5) 
-429.8334354495931

>  <inter_energy>  (5) 
-435.0956233950276

>  <intra_energy>  (5) 
7.40499550240729

>  <rmsd>  (5) 
1.62552

>  <sdf_rank>  (5) 
0

$$$$

     RDKit          3D

 13 12  0  0  0  0  0  0  0  0999 V2000
   36.2820   15.6032   59.4014 C   0  0  0  0  0  0  0  0  0  0  0  0
   37.3736   16.6255   59.4885 C   0  0  0  0  0  0  0  0  0  0  0  0
   39.7542   17.2651   59.2746 C   0  0  0  0  0  0  0  0  0  0  0  0
   41.0388   16.6586   59.8599 C   0  0  0  0  0  0  0  0  0  0  0  0
   35.1984   15.9636   58.8368 O   0  0  0  0  0  0  0  0  0  0  0  0
   36.5997   14.4364   59.9192 O   0  0  0  0  0  0  0  0  0  0  0  0
   37.0261   17.7309   59.8385 O   0  0  0  0  0  0  0  0  0  0  0  0
   41.1578   15.3949   60.1241 O   0  0  0  0  0  0  0  0  0  0  0  0
   38.7404   16.2647   59.1802 N   0  0  0  0  0  0  0  0  0  0  0  0
   41.9636   17.4584   60.0561 O   0  0  0  0  0  0  0  0  0  0  0  0
   39.4044   18.0776   59.9283 H   0  0  0  0  0  0  0  0  0  0  0  0
   39.9667   17.6594   58.2699 H   0  0  0  0  0  0  0  0  0  0  0  0
   38.9776   15.3031   58.8977 H   0  0  0  0  0  0  0  0  0  0  0  0
  1  2  1  0
  1  5  2  0
  1  6  1  0
  2  7  2  0
  2  9  1  0
  3  4  1  0
  3  9  1  0
  4  8  1  0
  4 10  2  0
  3 11  1  0
  3 12  1  0
  9 13  1  0
M  CHG  2   6  -1   8  -1
M  END
>  <filename_input>  (6) 
7ZCC_OGA_docked.sdf

>  <pdb_id>  (6) 
7ZCC_OGA

>  <pose_rank>  (6) 
5

>  <num_atoms_heavy>  (6) 
10

>  <num_torsions>  (6) 
3

>  <pose>  (6) 
[37.373614128734395, 16.625532649831722, 59.488522757613055, -0.3755801978430624, -5.346978306606761, -2.617894770512241, -2.456756442474534, -19.388301634955923, -3.073194314240598]

>  <energy>  (6) 
-517.8500908655595

>  <inter_energy>  (6) 
-514.6428898080601

>  <intra_energy>  (6) 
0.0

>  <rmsd>  (6) 
0.621969

>  <sdf_rank>  (6) 
0

$$$$

     RDKit          3D

 13 12  0  0  0  0  0  0  0  0999 V2000
   44.2730   17.6170   60.1525 C   0  0  0  0  0  0  0  0  0  0  0  0
   43.1590   16.6635   59.8452 C   0  0  0  0  0  0  0  0  0  0  0  0
   40.7575   16.0685   59.8730 C   0  0  0  0  0  0  0  0  0  0  0  0
   39.4022   16.7891   59.8068 C   0  0  0  0  0  0  0  0  0  0  0  0
   44.7518   17.5831   61.3325 O   0  0  0  0  0  0  0  0  0  0  0  0
   44.6271   18.3712   59.1345 O   0  0  0  0  0  0  0  0  0  0  0  0
   43.4923   15.6224   59.3255 O   0  0  0  0  0  0  0  0  0  0  0  0
   38.6386   16.9385   60.8440 O   0  0  0  0  0  0  0  0  0  0  0  0
   41.7928   17.0018   60.1803 N   0  0  0  0  0  0  0  0  0  0  0  0
   39.0875   17.2298   58.6932 O   0  0  0  0  0  0  0  0  0  0  0  0
   40.7209   15.2949   60.6542 H   0  0  0  0  0  0  0  0  0  0  0  0
   40.9676   15.6048   58.8979 H   0  0  0  0  0  0  0  0  0  0  0  0
   41.5712   17.9003   60.6327 H   0  0  0  0  0  0  0  0  0  0  0  0
  1  2  1  0
  1  5  2  0
  1  6  1  0
  2  7  2  0
  2  9  1  0
  3  4  1  0
  3  9  1  0
  4  8  1  0
  4 10  2  0
  3 11  1  0
  3 12  1  0
  9 13  1  0
M  CHG  2   6  -1   8  -1
M  END
>  <filename_input>  (7) 
7ZCC_OGA_docked.sdf

>  <pdb_id>  (7) 
7ZCC_OGA

>  <pose_rank>  (7) 
6

>  <num_atoms_heavy>  (7) 
10

>  <num_torsions>  (7) 
3

>  <pose>  (7) 
[43.15903215538708, 16.663498008801973, 59.84524925475318, 0.07309820509529229, 1.0275299924394539, -2.919506096837449, 1.3757517430533612, 0.5069455533793363, 1.5691728489568002]

>  <energy>  (7) 
-303.88006083246427

>  <inter_energy>  (7) 
-286.3380423265114

>  <intra_energy>  (7) 
0.0

>  <rmsd>  (7) 
6.00563

>  <sdf_rank>  (7) 
0

$$$$

     RDKit          3D

 13 12  0  0  0  0  0  0  0  0999 V2000
   38.2664   18.3777   58.8836 C   0  0  0  0  0  0  0  0  0  0  0  0
   38.9892   17.3477   59.6965 C   0  0  0  0  0  0  0  0  0  0  0  0
   40.7001   15.5723   59.9038 C   0  0  0  0  0  0  0  0  0  0  0  0
   42.0909   16.0867   60.3059 C   0  0  0  0  0  0  0  0  0  0  0  0
   38.6458   19.5866   59.0156 O   0  0  0  0  0  0  0  0  0  0  0  0
   37.3223   17.8837   58.1120 O   0  0  0  0  0  0  0  0  0  0  0  0
   38.6271   17.2429   60.8468 O   0  0  0  0  0  0  0  0  0  0  0  0
   42.8322   16.7924   59.5099 O   0  0  0  0  0  0  0  0  0  0  0  0
   40.0334   16.5443   59.0986 N   0  0  0  0  0  0  0  0  0  0  0  0
   42.4576   15.7901   61.4509 O   0  0  0  0  0  0  0  0  0  0  0  0
   40.8084   14.6385   59.3324 H   0  0  0  0  0  0  0  0  0  0  0  0
   40.1072   15.3878   60.8117 H   0  0  0  0  0  0  0  0  0  0  0  0
   40.2912   16.6715   58.1096 H   0  0  0  0  0  0  0  0  0  0  0  0
  1  2  1  0
  1  5  2  0
  1  6  1  0
  2  7  2  0
  2  9  1  0
  3  4  1  0
  3  9  1  0
  4  8  1  0
  4 10  2  0
  3 11  1  0
  3 12  1  0
  9 13  1  0
M  CHG  2   6  -1   8  -1
M  END
>  <filename_input>  (8) 
7ZCC_OGA_docked.sdf

>  <pdb_id>  (8) 
7ZCC_OGA

>  <pose_rank>  (8) 
7

>  <num_atoms_heavy>  (8) 
10

>  <num_torsions>  (8) 
3

>  <pose>  (8) 
[38.989234737932, 17.347680871335555, 59.696530317749385, 1.5729254043322054, -0.46825347640995924, -0.4929189983588649, -1.8231258526823146, 1.4702165166294687, -3.7901484814144912]

>  <energy>  (8) 
-386.95643031101866

>  <inter_energy>  (8) 
-380.1242208790493

>  <intra_energy>  (8) 
0.0

>  <rmsd>  (8) 
2.45773

>  <sdf_rank>  (8) 
0

$$$$

     RDKit          3D

 13 12  0  0  0  0  0  0  0  0999 V2000
   36.5332   15.8193   59.1318 C   0  0  0  0  0  0  0  0  0  0  0  0
   37.1606   17.1049   58.6869 C   0  0  0  0  0  0  0  0  0  0  0  0
   37.3091   18.9998   57.1028 C   0  0  0  0  0  0  0  0  0  0  0  0
   36.8046   19.4238   55.7148 C   0  0  0  0  0  0  0  0  0  0  0  0
   37.3146   14.8308   59.3186 O   0  0  0  0  0  0  0  0  0  0  0  0
   35.2287   15.8871   59.2879 O   0  0  0  0  0  0  0  0  0  0  0  0
   38.0705   17.5071   59.3765 O   0  0  0  0  0  0  0  0  0  0  0  0
   37.4856   19.2185   54.6308 O   0  0  0  0  0  0  0  0  0  0  0  0
   36.6869   17.7770   57.4964 N   0  0  0  0  0  0  0  0  0  0  0  0
   35.6933   19.9698   55.6963 O   0  0  0  0  0  0  0  0  0  0  0  0
   38.3993   18.8585   57.0664 H   0  0  0  0  0  0  0  0  0  0  0  0
   37.0583   19.7836   57.8328 H   0  0  0  0  0  0  0  0  0  0  0  0
   35.9143   17.3801   56.9428 H   0  0  0  0  0  0  0  0  0  0  0  0
  1  2  1  0
  1  5  2  0
  1  6  1  0
  2  7  2  0
  2  9  1  0
  3  4  1  0
  3  9  1  0
  4  8  1  0
  4 10  2  0
  3 11  1  0
  3 12  1  0
  9 13  1  0
M  CHG  2   6  -1   8  -1
M  END
>  <filename_input>  (9) 
7ZCC_OGA_docked.sdf

>  <pdb_id>  (9) 
7ZCC_OGA

>  <pose_rank>  (9) 
8

>  <num_atoms_heavy>  (9) 
10

>  <num_torsions>  (9) 
3

>  <pose>  (9) 
[37.16062446745156, 17.10490662932431, 58.686888050143054, -2.073903813796901, -3.526202651069609, -0.44607580475951114, -4.17043414578868, -18.862098134946503, 1.385925649767988]

>  <energy>  (9) 
-340.71646852942234

>  <inter_energy>  (9) 
-336.97485392172365

>  <intra_energy>  (9) 
0.0

>  <rmsd>  (9) 
4.51952

>  <sdf_rank>  (9) 
0

$$$$

     RDKit          3D

 13 12  0  0  0  0  0  0  0  0999 V2000
   41.2064   16.2250   59.7165 C   0  0  0  0  0  0  0  0  0  0  0  0
   39.9020   16.9617   59.7283 C   0  0  0  0  0  0  0  0  0  0  0  0
   37.8602   17.7547   58.5776 C   0  0  0  0  0  0  0  0  0  0  0  0
   36.8146   17.0519   57.6982 C   0  0  0  0  0  0  0  0  0  0  0  0
   41.1831   15.0054   60.0840 O   0  0  0  0  0  0  0  0  0  0  0  0
   42.2252   16.9483   59.3047 O   0  0  0  0  0  0  0  0  0  0  0  0
   39.6010   17.4721   60.7838 O   0  0  0  0  0  0  0  0  0  0  0  0
   36.4061   17.5433   56.5700 O   0  0  0  0  0  0  0  0  0  0  0  0
   39.0971   17.0440   58.5289 N   0  0  0  0  0  0  0  0  0  0  0  0
   36.3907   15.9732   58.1343 O   0  0  0  0  0  0  0  0  0  0  0  0
   38.0147   18.7801   58.2107 H   0  0  0  0  0  0  0  0  0  0  0  0
   37.4994   17.7803   59.6165 H   0  0  0  0  0  0  0  0  0  0  0  0
   39.4111   16.5977   57.6554 H   0  0  0  0  0  0  0  0  0  0  0  0
  1  2  1  0
  1  5  2  0
  1  6  1  0
  2  7  2  0
  2  9  1  0
  3  4  1  0
  3  9  1  0
  4  8  1  0
  4 10  2  0
  3 11  1  0
  3 12  1  0
  9 13  1  0
M  CHG  2   6  -1   8  -1
M  END
>  <filename_input>  (10) 
7ZCC_OGA_docked.sdf

>  <pdb_id>  (10) 
7ZCC_OGA

>  <pose_rank>  (10) 
9

>  <num_atoms_heavy>  (10) 
10

>  <num_torsions>  (10) 
3

>  <pose>  (10) 
[39.90202529926458, 16.961693440804893, 59.728342532673324, 0.49924692362897755, -2.8636716349334024, -2.240858725614653, -1.7296953966993127, 0.7738973225287273, -5.038381829055689]

>  <energy>  (10) 
-323.0479947102997

>  <inter_energy>  (10) 
-328.1140909234292

>  <intra_energy>  (10) 
0.0

>  <rmsd>  (10) 
4.66853

>  <sdf_rank>  (10) 
0

$$$$

     RDKit          3D

 13 12  0  0  0  0  0  0  0  0999 V2000
   36.7338   15.6717   59.1403 C   0  0  0  0  0  0  0  0  0  0  0  0
   38.1808   15.8781   58.8118 C   0  0  0  0  0  0  0  0  0  0  0  0
   40.5627   15.2609   59.0716 C   0  0  0  0  0  0  0  0  0  0  0  0
   41.1195   16.4334   59.8938 C   0  0  0  0  0  0  0  0  0  0  0  0
   36.4150   15.6853   60.3736 O   0  0  0  0  0  0  0  0  0  0  0  0
   35.9633   15.5143   58.0857 O   0  0  0  0  0  0  0  0  0  0  0  0
   38.4173   16.7847   58.0455 O   0  0  0  0  0  0  0  0  0  0  0  0
   40.7139   17.6544   59.7335 O   0  0  0  0  0  0  0  0  0  0  0  0
   39.1941   15.0347   59.4077 N   0  0  0  0  0  0  0  0  0  0  0  0
   41.9802   16.1341   60.7323 O   0  0  0  0  0  0  0  0  0  0  0  0
   40.6402   15.4982   58.0003 H   0  0  0  0  0  0  0  0  0  0  0  0
   41.1441   14.3545   59.2963 H   0  0  0  0  0  0  0  0  0  0  0  0
   38.9324   14.2842   60.0630 H   0  0  0  0  0  0  0  0  0  0  0  0
  1  2  1  0
  1  5  2  0
  1  6  1  0
  2  7  2  0
  2  9  1  0
  3  4  1  0
  3  9  1  0
  4  8  1  0
  4 10  2  0
  3 11  1  0
  3 12  1  0
  9 13  1  0
M  CHG  2   6  -1   8  -1
M  END
>  <filename_input>  (11) 
7ZCC_OGA_docked.sdf

>  <pdb_id>  (11) 
7ZCC_OGA

>  <pose_rank>  (11) 
10

>  <num_atoms_heavy>  (11) 
10

>  <num_torsions>  (11) 
3

>  <pose>  (11) 
[38.180792079595, 15.878111293276783, 58.81179402765473, 4.577544414121865, -0.699368056930973, 2.4953440820161443, 7.147223307114641, 10.967411396374358, 1.9601661064252376]

>  <energy>  (11) 
-463.70752932190584

>  <inter_energy>  (11) 
-474.6326848405596

>  <intra_energy>  (11) 
12.276207879904476

>  <rmsd>  (11) 
1.64058

>  <sdf_rank>  (11) 
0

$$$$

     RDKit          3D

 13 12  0  0  0  0  0  0  0  0999 V2000
   36.7033   16.7663   58.7729 C   0  0  0  0  0  0  0  0  0  0  0  0
   38.0261   17.4662   58.8402 C   0  0  0  0  0  0  0  0  0  0  0  0
   40.4805   17.4182   59.1497 C   0  0  0  0  0  0  0  0  0  0  0  0
   41.5212   16.5821   59.9103 C   0  0  0  0  0  0  0  0  0  0  0  0
   36.3207   16.1544   59.8227 O   0  0  0  0  0  0  0  0  0  0  0  0
   36.0907   16.8912   57.6154 O   0  0  0  0  0  0  0  0  0  0  0  0
   37.9896   18.6661   58.6851 O   0  0  0  0  0  0  0  0  0  0  0  0
   42.7956   16.6900   59.6971 O   0  0  0  0  0  0  0  0  0  0  0  0
   39.2382   16.7175   59.0920 N   0  0  0  0  0  0  0  0  0  0  0  0
   41.0623   15.7993   60.7530 O   0  0  0  0  0  0  0  0  0  0  0  0
   40.3340   18.3770   59.6686 H   0  0  0  0  0  0  0  0  0  0  0  0
   40.8408   17.5987   58.1262 H   0  0  0  0  0  0  0  0  0  0  0  0
   39.2054   15.6969   59.2271 H   0  0  0  0  0  0  0  0  0  0  0  0
  1  2  1  0
  1  5  2  0
  1  6  1  0
  2  7  2  0
  2  9  1  0
  3  4  1  0
  3  9  1  0
  4  8  1  0
  4 10  2  0
  3 11  1  0
  3 12  1  0
  9 13  1  0
M  CHG  2   6  -1   8  -1
M  END
>  <filename_input>  (12) 
7ZCC_OGA_docked.sdf

>  <pdb_id>  (12) 
7ZCC_OGA

>  <pose_rank>  (12) 
11

>  <num_atoms_heavy>  (12) 
10

>  <num_torsions>  (12) 
3

>  <pose>  (12) 
[38.02609458447384, 17.466223589144033, 58.84023184671018, 5.048587410045535, -0.6826421484578408, 2.9590898545561917, 7.265380825174605, 12.343128648341803, -0.479443108512448]

>  <energy>  (12) 
-489.62221110288243

>  <inter_energy>  (12) 
-485.7475834509857

>  <intra_energy>  (12) 
0.0

>  <rmsd>  (12) 
1.09762

>  <sdf_rank>  (12) 
0

$$$$

     RDKit          3D

 13 12  0  0  0  0  0  0  0  0999 V2000
   36.9365   15.2344   58.8919 C   0  0  0  0  0  0  0  0  0  0  0  0
   38.3813   15.5353   59.1499 C   0  0  0  0  0  0  0  0  0  0  0  0
   40.6325   14.8325   59.8984 C   0  0  0  0  0  0  0  0  0  0  0  0
   40.7342   16.1034   60.7559 C   0  0  0  0  0  0  0  0  0  0  0  0
   36.4913   14.1248   59.3318 O   0  0  0  0  0  0  0  0  0  0  0  0
   36.3002   16.1849   58.2421 O   0  0  0  0  0  0  0  0  0  0  0  0
   38.7280   16.6704   58.9120 O   0  0  0  0  0  0  0  0  0  0  0  0
   39.7227   16.8862   60.9681 O   0  0  0  0  0  0  0  0  0  0  0  0
   39.2620   14.5092   59.6644 N   0  0  0  0  0  0  0  0  0  0  0  0
   41.8502   16.3290   61.2428 O   0  0  0  0  0  0  0  0  0  0  0  0
   41.1363   15.0018   58.9353 H   0  0  0  0  0  0  0  0  0  0  0  0
   41.1141   13.9988   60.4303 H   0  0  0  0  0  0  0  0  0  0  0  0
   38.9064   13.5623   59.8583 H   0  0  0  0  0  0  0  0  0  0  0  0
  1  2  1  0
  1  5  2  0
  1  6  1  0
  2  7  2  0
  2  9  1  0
  3  4  1  0
  3  9  1  0
  4  8  1  0
  4 10  2  0
  3 11  1  0
  3 12  1  0
  9 13  1  0
M  CHG  2   6  -1   8  -1
M  END
>  <filename_input>  (13) 
7ZCC_OGA_docked.sdf

>  <pdb_id>  (13) 
7ZCC_OGA

>  <pose_rank>  (13) 
12

>  <num_atoms_heavy>  (13) 
10

>  <num_torsions>  (13) 
3

>  <pose>  (13) 
[38.38126704602957, 15.535345229973018, 59.14987789753643, 3.4100033955404405, 0.7001983814011599, 4.411038812252146, 6.376460609368654, 10.460334981682042, 2.901269941947985]

>  <energy>  (13) 
-305.1659027661292

>  <inter_energy>  (13) 
-402.25748394560804

>  <intra_energy>  (13) 
84.77108739417095

>  <rmsd>  (13) 
1.73753

>  <sdf_rank>  (13) 
0

$$$$

     RDKit          3D

 13 12  0  0  0  0  0  0  0  0999 V2000
   37.6738   18.4004   57.5011 C   0  0  0  0  0  0  0  0  0  0  0  0
   38.3070   17.7755   58.7064 C   0  0  0  0  0  0  0  0  0  0  0  0
   39.2442   15.8070   59.8765 C   0  0  0  0  0  0  0  0  0  0  0  0
   40.7324   16.1845   59.9339 C   0  0  0  0  0  0  0  0  0  0  0  0
   38.3545   19.2833   56.8846 O   0  0  0  0  0  0  0  0  0  0  0  0
   36.4756   17.9333   57.2240 O   0  0  0  0  0  0  0  0  0  0  0  0
   38.4928   18.5197   59.6428 O   0  0  0  0  0  0  0  0  0  0  0  0
   41.5906   15.7805   59.0499 O   0  0  0  0  0  0  0  0  0  0  0  0
   38.6423   16.3680   58.7101 N   0  0  0  0  0  0  0  0  0  0  0  0
   41.0607   16.9126   60.8803 O   0  0  0  0  0  0  0  0  0  0  0  0
   39.1473   14.7118   59.8454 H   0  0  0  0  0  0  0  0  0  0  0  0
   38.7372   16.2015   60.7694 H   0  0  0  0  0  0  0  0  0  0  0  0
   38.4500   15.7813   57.8857 H   0  0  0  0  0  0  0  0  0  0  0  0
  1  2  1  0
  1  5  2  0
  1  6  1  0
  2  7  2  0
  2  9  1  0
  3  4  1  0
  3  9  1  0
  4  8  1  0
  4 10  2  0
  3 11  1  0
  3 12  1  0
  9 13  1  0
M  CHG  2   6  -1   8  -1
M  END
>  <filename_input>  (14) 
7ZCC_OGA_docked.sdf

>  <pdb_id>  (14) 
7ZCC_OGA

>  <pose_rank>  (14) 
13

>  <num_atoms_heavy>  (14) 
10

>  <num_torsions>  (14) 
3

>  <pose>  (14) 
[38.307017275545746, 17.77547730946303, 58.706401784415355, 0.664333581687849, -0.6923215109328592, -0.8436315927460417, -2.091540949980422, 1.9282109325239174, -4.276066942052052]

>  <energy>  (14) 
-381.06803178559716

>  <inter_energy>  (14) 
-391.56733079910464

>  <intra_energy>  (14) 
4.192188862857809

>  <rmsd>  (14) 
2.27601

>  <sdf_rank>  (14) 
0

$$$$

     RDKit          3D

 13 12  0  0  0  0  0  0  0  0999 V2000
   37.0975   17.7867   58.1622 C   0  0  0  0  0  0  0  0  0  0  0  0
   38.0014   17.1058   59.1439 C   0  0  0  0  0  0  0  0  0  0  0  0
   39.0911   15.0638   60.0185 C   0  0  0  0  0  0  0  0  0  0  0  0
   40.5545   15.3962   59.6888 C   0  0  0  0  0  0  0  0  0  0  0  0
   37.2292   19.0474   58.0355 O   0  0  0  0  0  0  0  0  0  0  0  0
   36.2775   16.9708   57.5356 O   0  0  0  0  0  0  0  0  0  0  0  0
   38.4977   17.8250   59.9815 O   0  0  0  0  0  0  0  0  0  0  0  0
   40.9152   16.5318   59.1774 O   0  0  0  0  0  0  0  0  0  0  0  0
   38.2237   15.6783   59.0659 N   0  0  0  0  0  0  0  0  0  0  0  0
   41.3749   14.5073   59.9533 O   0  0  0  0  0  0  0  0  0  0  0  0
   38.9500   13.9733   59.9893 H   0  0  0  0  0  0  0  0  0  0  0  0
   38.8520   15.4445   61.0224 H   0  0  0  0  0  0  0  0  0  0  0  0
   37.7642   15.1154   58.3359 H   0  0  0  0  0  0  0  0  0  0  0  0
  1  2  1  0
  1  5  2  0
  1  6  1  0
  2  7  2  0
  2  9  1  0
  3  4  1  0
  3  9  1  0
  4  8  1  0
  4 10  2  0
  3 11  1  0
  3 12  1  0
  9 13  1  0
M  CHG  2   6  -1   8  -1
M  END
>  <filename_input>  (15) 
7ZCC_OGA_docked.sdf

>  <pdb_id>  (15) 
7ZCC_OGA

>  <pose_rank>  (15) 
14

>  <num_atoms_heavy>  (15) 
10

>  <num_torsions>  (15) 
3

>  <pose>  (15) 
[38.00144760909461, 17.1057962745208, 59.14385816499157, 0.507149691504345, -0.4570477172871614, -0.9828298388616826, -2.8937645647676318, 1.9797284978290617, -2.5555831155944695]

>  <energy>  (15) 
-379.4962213560948

>  <inter_energy>  (15) 
-406.3277151539198

>  <intra_energy>  (15) 
25.64892743855047

>  <rmsd>  (15) 
1.8692

>  <sdf_rank>  (15) 
0

$$$$

     RDKit          3D

 13 12  0  0  0  0  0  0  0  0999 V2000
   38.5525   24.1994   55.1505 C   0  0  0  0  0  0  0  0  0  0  0  0
   39.2497   25.3279   55.8468 C   0  0  0  0  0  0  0  0  0  0  0  0
   40.9462   26.1598   57.4442 C   0  0  0  0  0  0  0  0  0  0  0  0
   42.4626   26.0989   57.2041 C   0  0  0  0  0  0  0  0  0  0  0  0
   37.5089   23.7323   55.7121 O   0  0  0  0  0  0  0  0  0  0  0  0
   39.1158   23.8412   54.0169 O   0  0  0  0  0  0  0  0  0  0  0  0
   38.8582   26.4374   55.5625 O   0  0  0  0  0  0  0  0  0  0  0  0
   43.3148   26.7237   57.9553 O   0  0  0  0  0  0  0  0  0  0  0  0
   40.3047   25.0595   56.7998 N   0  0  0  0  0  0  0  0  0  0  0  0
   42.8221   25.4021   56.2457 O   0  0  0  0  0  0  0  0  0  0  0  0
   40.7466   26.1155   58.5251 H   0  0  0  0  0  0  0  0  0  0  0  0
   40.5528   27.0999   57.0301 H   0  0  0  0  0  0  0  0  0  0  0  0
   40.5879   24.0917   57.0094 H   0  0  0  0  0  0  0  0  0  0  0  0
  1  2  1  0
  1  5  2  0
  1  6  1  0
  2  7  2  0
  2  9  1  0
  3  4  1  0
  3  9  1  0
  4  8  1  0
  4 10  2  0
  3 11  1  0
  3 12  1  0
  9 13  1  0
M  CHG  2   6  -1   8  -1
M  END
>  <filename_input>  (16) 
7ZCC_OGA_docked.sdf

>  <pdb_id>  (16) 
7ZCC_OGA

>  <pose_rank>  (16) 
15

>  <num_atoms_heavy>  (16) 
10

>  <num_torsions>  (16) 
3

>  <pose>  (16) 
[39.24968510443547, 25.32786956972035, 55.84681228862091, 2.2323544911498217, 5.062206994019838, -0.9470878236881075, -4.787186276158504, 1.1167878494735717, 12.906560546848452]

>  <energy>  (16) 
-114.56867162081727

>  <inter_energy>  (16) 
-107.75174470189097

>  <intra_energy>  (16) 
0.0006362905165866341

>  <rmsd>  (16) 
9.64053

>  <sdf_rank>  (16) 
0

$$$$

     RDKit          3D

 13 12  0  0  0  0  0  0  0  0999 V2000
   40.8661   16.0464   59.6557 C   0  0  0  0  0  0  0  0  0  0  0  0
   39.4732   15.8471   59.1415 C   0  0  0  0  0  0  0  0  0  0  0  0
   37.5930   14.3632   58.5207 C   0  0  0  0  0  0  0  0  0  0  0  0
   36.5911   14.9750   59.5118 C   0  0  0  0  0  0  0  0  0  0  0  0
   41.3447   17.2247   59.5820 O   0  0  0  0  0  0  0  0  0  0  0  0
   41.4186   14.9551   60.1398 O   0  0  0  0  0  0  0  0  0  0  0  0
   38.8784   16.8577   58.8415 O   0  0  0  0  0  0  0  0  0  0  0  0
   36.9277   15.8804   60.3768 O   0  0  0  0  0  0  0  0  0  0  0  0
   38.9236   14.5147   59.0147 N   0  0  0  0  0  0  0  0  0  0  0  0
   35.4305   14.5518   59.4249 O   0  0  0  0  0  0  0  0  0  0  0  0
   37.3717   13.2933   58.3928 H   0  0  0  0  0  0  0  0  0  0  0  0
   37.5060   14.8807   57.5539 H   0  0  0  0  0  0  0  0  0  0  0  0
   39.4827   13.6901   59.2762 H   0  0  0  0  0  0  0  0  0  0  0  0
  1  2  1  0
  1  5  2  0
  1  6  1  0
  2  7  2  0
  2  9  1  0
  3  4  1  0
  3  9  1  0
  4  8  1  0
  4 10  2  0
  3 11  1  0
  3 12  1  0
  9 13  1  0
M  CHG  2   6  -1   8  -1
M  END
>  <filename_input>  (17) 
7ZCC_OGA_docked.sdf

>  <pdb_id>  (17) 
7ZCC_OGA

>  <pose_rank>  (17) 
16

>  <num_atoms_heavy>  (17) 
10

>  <num_torsions>  (17) 
3

>  <pose>  (17) 
[39.47317344868206, 15.847062539627382, 59.141536134808625, 1.224398161216572, -2.977448800872999, 0.06645303747554887, -3.380615065071417, 2.1349879587352008, -2.7583708168886933]

>  <energy>  (17) 
-269.81606920748766

>  <inter_energy>  (17) 
-330.53164101992115

>  <intra_energy>  (17) 
43.380429395432344

>  <rmsd>  (17) 
4.47339

>  <sdf_rank>  (17) 
0

$$$$

     RDKit          3D

 13 12  0  0  0  0  0  0  0  0999 V2000
   33.5922   17.5158   50.5048 C   0  0  0  0  0  0  0  0  0  0  0  0
   35.0503   17.8590   50.5263 C   0  0  0  0  0  0  0  0  0  0  0  0
   37.0409   18.7512   51.6940 C   0  0  0  0  0  0  0  0  0  0  0  0
   37.6616   18.4620   53.0694 C   0  0  0  0  0  0  0  0  0  0  0  0
   32.7714   18.4890   50.4590 O   0  0  0  0  0  0  0  0  0  0  0  0
   33.3469   16.2234   50.5222 O   0  0  0  0  0  0  0  0  0  0  0  0
   35.6546   17.6316   49.5025 O   0  0  0  0  0  0  0  0  0  0  0  0
   38.0144   17.2709   53.4405 O   0  0  0  0  0  0  0  0  0  0  0  0
   35.6487   18.4367   51.7101 N   0  0  0  0  0  0  0  0  0  0  0  0
   37.8133   19.4482   53.8028 O   0  0  0  0  0  0  0  0  0  0  0  0
   37.1708   19.8165   51.4525 H   0  0  0  0  0  0  0  0  0  0  0  0
   37.5418   18.1325   50.9348 H   0  0  0  0  0  0  0  0  0  0  0  0
   35.0802   18.6178   52.5497 H   0  0  0  0  0  0  0  0  0  0  0  0
  1  2  1  0
  1  5  2  0
  1  6  1  0
  2  7  2  0
  2  9  1  0
  3  4  1  0
  3  9  1  0
  4  8  1  0
  4 10  2  0
  3 11  1  0
  3 12  1  0
  9 13  1  0
M  CHG  2   6  -1   8  -1
M  END
>  <filename_input>  (18) 
7ZCC_OGA_docked.sdf

>  <pdb_id>  (18) 
7ZCC_OGA

>  <pose_rank>  (18) 
17

>  <num_atoms_heavy>  (18) 
10

>  <num_torsions>  (18) 
3

>  <pose>  (18) 
[35.050278822924604, 17.858969774794193, 50.52632617600966, -1.8963807955803387, -0.7086430038021776, -0.5422332706460784, 1.1682872504804342, 0.7793346346684888, -1.7371998097649182]

>  <energy>  (18) 
-130.4757374795107

>  <inter_energy>  (18) 
-121.08683030736749

>  <intra_energy>  (18) 
0.0

>  <rmsd>  (18) 
8.71994

>  <sdf_rank>  (18) 
0

$$$$

     RDKit          3D

 13 12  0  0  0  0  0  0  0  0999 V2000
   39.7640   24.3375   55.4352 C   0  0  0  0  0  0  0  0  0  0  0  0
   40.9132   24.4565   56.3889 C   0  0  0  0  0  0  0  0  0  0  0  0
   43.3449   24.5023   56.8439 C   0  0  0  0  0  0  0  0  0  0  0  0
   43.8833   25.9413   56.8512 C   0  0  0  0  0  0  0  0  0  0  0  0
   38.6272   24.7362   55.8497 O   0  0  0  0  0  0  0  0  0  0  0  0
   40.0915   23.8382   54.2630 O   0  0  0  0  0  0  0  0  0  0  0  0
   40.6124   24.5981   57.5528 O   0  0  0  0  0  0  0  0  0  0  0  0
   43.7881   26.7283   55.8252 O   0  0  0  0  0  0  0  0  0  0  0  0
   42.2752   24.3853   55.9061 N   0  0  0  0  0  0  0  0  0  0  0  0
   44.4095   26.3074   57.9106 O   0  0  0  0  0  0  0  0  0  0  0  0
   44.1537   23.8122   56.5618 H   0  0  0  0  0  0  0  0  0  0  0  0
   42.9732   24.2510   57.8483 H   0  0  0  0  0  0  0  0  0  0  0  0
   42.4695   24.2526   54.9033 H   0  0  0  0  0  0  0  0  0  0  0  0
  1  2  1  0
  1  5  2  0
  1  6  1  0
  2  7  2  0
  2  9  1  0
  3  4  1  0
  3  9  1  0
  4  8  1  0
  4 10  2  0
  3 11  1  0
  3 12  1  0
  9 13  1  0
M  CHG  2   6  -1   8  -1
M  END
>  <filename_input>  (19) 
7ZCC_OGA_docked.sdf

>  <pdb_id>  (19) 
7ZCC_OGA

>  <pose_rank>  (19) 
18

>  <num_atoms_heavy>  (19) 
10

>  <num_torsions>  (19) 
3

>  <pose>  (19) 
[40.91319115381429, 24.456526811442306, 56.388882379809594, -5.019455916415204, -0.3784385414304603, -0.5647778458648044, -2.9303113149464917, 1.565530038577573, -3.6075270612768504]

>  <energy>  (19) 
-128.7028578515964

>  <inter_energy>  (19) 
-110.25742417144853

>  <intra_energy>  (19) 
0.0

>  <rmsd>  (19) 
9.75462

>  <sdf_rank>  (19) 
0

$$$$

     RDKit          3D

 13 12  0  0  0  0  0  0  0  0999 V2000
   45.1727   23.8080   68.3528 C   0  0  0  0  0  0  0  0  0  0  0  0
   43.7836   23.2654   68.4956 C   0  0  0  0  0  0  0  0  0  0  0  0
   41.3681   23.3498   67.9662 C   0  0  0  0  0  0  0  0  0  0  0  0
   40.5545   24.2144   68.9415 C   0  0  0  0  0  0  0  0  0  0  0  0
   45.3923   24.5764   67.3607 O   0  0  0  0  0  0  0  0  0  0  0  0
   45.9979   23.4212   69.3015 O   0  0  0  0  0  0  0  0  0  0  0  0
   43.6721   22.3020   69.2199 O   0  0  0  0  0  0  0  0  0  0  0  0
   41.0793   25.1894   69.6160 O   0  0  0  0  0  0  0  0  0  0  0  0
   42.6779   23.8942   67.8063 N   0  0  0  0  0  0  0  0  0  0  0  0
   39.3543   23.9245   69.0358 O   0  0  0  0  0  0  0  0  0  0  0  0
   41.4449   22.3269   68.3635 H   0  0  0  0  0  0  0  0  0  0  0  0
   40.8621   23.3341   66.9896 H   0  0  0  0  0  0  0  0  0  0  0  0
   42.8331   24.7201   67.2106 H   0  0  0  0  0  0  0  0  0  0  0  0
  1  2  1  0
  1  5  2  0
  1  6  1  0
  2  7  2  0
  2  9  1  0
  3  4  1  0
  3  9  1  0
  4  8  1  0
  4 10  2  0
  3 11  1  0
  3 12  1  0
  9 13  1  0
M  CHG  2   6  -1   8  -1
M  END
>  <filename_input>  (20) 
7ZCC_OGA_docked.sdf

>  <pdb_id>  (20) 
7ZCC_OGA

>  <pose_rank>  (20) 
19

>  <num_atoms_heavy>  (20) 
10

>  <num_torsions>  (20) 
3

>  <pose>  (20) 
[43.7836477760589, 23.265369176277073, 68.49555702129618, -0.615696231125588, 0.6082888850799497, 2.8537062795294803, -6.690659104914386, 11.355762481176281, -3.2811659362430197]

>  <energy>  (20) 
-85.86802538226189

>  <inter_energy>  (20) 
-81.69006090364226

>  <intra_energy>  (20) 
0.2823156366459596

>  <rmsd>  (20) 
13.2993

>  <sdf_rank>  (20) 
0

$$$$

     RDKit          3D

 13 12  0  0  0  0  0  0  0  0999 V2000
   33.2609   11.7484   67.4032 C   0  0  0  0  0  0  0  0  0  0  0  0
   33.0768   13.2345   67.3607 C   0  0  0  0  0  0  0  0  0  0  0  0
   33.9635   15.5283   67.6341 C   0  0  0  0  0  0  0  0  0  0  0  0
   35.0622   16.2546   68.4251 C   0  0  0  0  0  0  0  0  0  0  0  0
   33.4786   11.2268   68.5448 O   0  0  0  0  0  0  0  0  0  0  0  0
   33.1568   11.1631   66.2296 O   0  0  0  0  0  0  0  0  0  0  0  0
   31.9683   13.6141   67.0567 O   0  0  0  0  0  0  0  0  0  0  0  0
   35.0539   17.5369   68.6169 O   0  0  0  0  0  0  0  0  0  0  0  0
   34.1760   14.1177   67.6849 N   0  0  0  0  0  0  0  0  0  0  0  0
   35.9582   15.5305   68.8794 O   0  0  0  0  0  0  0  0  0  0  0  0
   32.9826   15.7648   68.0722 H   0  0  0  0  0  0  0  0  0  0  0  0
   33.9941   15.8603   66.5859 H   0  0  0  0  0  0  0  0  0  0  0  0
   35.0956   13.7353   67.9477 H   0  0  0  0  0  0  0  0  0  0  0  0
  1  2  1  0
  1  5  2  0
  1  6  1  0
  2  7  2  0
  2  9  1  0
  3  4  1  0
  3  9  1  0
  4  8  1  0
  4 10  2  0
  3 11  1  0
  3 12  1  0
  9 13  1  0
M  CHG  2   6  -1   8  -1
M  END
>  <filename_input>  (21) 
7ZCC_OGA_docked.sdf

>  <pdb_id>  (21) 
7ZCC_OGA

>  <pose_rank>  (21) 
20

>  <num_atoms_heavy>  (21) 
10

>  <num_torsions>  (21) 
3

>  <pose>  (21) 
[33.07676785838353, 13.234539027433723, 67.36070939402553, 2.0072390530963453, 1.0902129216782133, -4.653492633605678, 1.0686227064414386, -0.17931630152185304, 0.077674963805288]

>  <energy>  (21) 
-125.62977617537402

>  <inter_energy>  (21) 
-109.19539856621009

>  <intra_energy>  (21) 
0.0

>  <rmsd>  (21) 
10.1832

>  <sdf_rank>  (21) 
0

$$$$

     RDKit          3D

 13 12  0  0  0  0  0  0  0  0999 V2000
   30.2908   16.1256   66.4778 C   0  0  0  0  0  0  0  0  0  0  0  0
   31.1899   17.0306   67.2632 C   0  0  0  0  0  0  0  0  0  0  0  0
   33.2494   17.4155   68.5795 C   0  0  0  0  0  0  0  0  0  0  0  0
   34.5354   16.6960   69.0142 C   0  0  0  0  0  0  0  0  0  0  0  0
   29.4019   15.4879   67.1305 O   0  0  0  0  0  0  0  0  0  0  0  0
   30.5349   16.1201   65.1851 O   0  0  0  0  0  0  0  0  0  0  0  0
   30.8062   18.1726   67.3813 O   0  0  0  0  0  0  0  0  0  0  0  0
   35.7170   17.1821   68.7936 O   0  0  0  0  0  0  0  0  0  0  0  0
   32.4177   16.5242   67.8370 N   0  0  0  0  0  0  0  0  0  0  0  0
   34.3699   15.6185   69.6017 O   0  0  0  0  0  0  0  0  0  0  0  0
   32.7067   17.7620   69.4714 H   0  0  0  0  0  0  0  0  0  0  0  0
   33.5134   18.2750   67.9458 H   0  0  0  0  0  0  0  0  0  0  0  0
   32.6870   15.5379   67.7119 H   0  0  0  0  0  0  0  0  0  0  0  0
  1  2  1  0
  1  5  2  0
  1  6  1  0
  2  7  2  0
  2  9  1  0
  3  4  1  0
  3  9  1  0
  4  8  1  0
  4 10  2  0
  3 11  1  0
  3 12  1  0
  9 13  1  0
M  CHG  2   6  -1   8  -1
M  END
>  <filename_input>  (22) 
7ZCC_OGA_docked.sdf

>  <pdb_id>  (22) 
7ZCC_OGA

>  <pose_rank>  (22) 
21

>  <num_atoms_heavy>  (22) 
10

>  <num_torsions>  (22) 
3

>  <pose>  (22) 
[31.189904874143448, 17.030606704276646, 67.26324721720982, -0.0654994076292718, 5.87687885358845, -0.5787677566237122, 1.4631514536905543, 0.20256989382410154, -0.9079072691909986]

>  <energy>  (22) 
-123.10160173030908

>  <inter_energy>  (22) 
-119.84678011083037

>  <intra_energy>  (22) 
0.0

>  <rmsd>  (22) 
10.4312

>  <sdf_rank>  (22) 
0

$$$$

     RDKit          3D

 13 12  0  0  0  0  0  0  0  0999 V2000
   30.5720   20.4865   51.6736 C   0  0  0  0  0  0  0  0  0  0  0  0
   31.7146   21.3681   52.0757 C   0  0  0  0  0  0  0  0  0  0  0  0
   34.1127   21.6932   52.5913 C   0  0  0  0  0  0  0  0  0  0  0  0
   35.2978   20.8718   53.1218 C   0  0  0  0  0  0  0  0  0  0  0  0
   30.6857   19.8638   50.5681 O   0  0  0  0  0  0  0  0  0  0  0  0
   29.5851   20.4606   52.5430 O   0  0  0  0  0  0  0  0  0  0  0  0
   31.4309   22.5258   52.2863 O   0  0  0  0  0  0  0  0  0  0  0  0
   35.2941   20.3154   54.2928 O   0  0  0  0  0  0  0  0  0  0  0  0
   33.0487   20.8233   52.2058 N   0  0  0  0  0  0  0  0  0  0  0  0
   36.2603   20.7665   52.3498 O   0  0  0  0  0  0  0  0  0  0  0  0
   33.7592   22.3737   53.3799 H   0  0  0  0  0  0  0  0  0  0  0  0
   34.4392   22.2739   51.7159 H   0  0  0  0  0  0  0  0  0  0  0  0
   33.2274   19.8255   52.0235 H   0  0  0  0  0  0  0  0  0  0  0  0
  1  2  1  0
  1  5  2  0
  1  6  1  0
  2  7  2  0
  2  9  1  0
  3  4  1  0
  3  9  1  0
  4  8  1  0
  4 10  2  0
  3 11  1  0
  3 12  1  0
  9 13  1  0
M  CHG  2   6  -1   8  -1
M  END
>  <filename_input>  (23) 
7ZCC_OGA_docked.sdf

>  <pdb_id>  (23) 
7ZCC_OGA

>  <pose_rank>  (23) 
22

>  <num_atoms_heavy>  (23) 
10

>  <num_torsions>  (23) 
3

>  <pose>  (23) 
[31.714630632330056, 21.368051264850195, 52.07568937751643, 3.7668979458977248, 4.892870651078319, -0.9868419604671376, -1.0855375463422081, -0.19348622489354067, 1.8240562261207105]

>  <energy>  (23) 
-117.40217516662626

>  <inter_energy>  (23) 
-110.9650783484195

>  <intra_energy>  (23) 
0.0

>  <rmsd>  (23) 
10.1795

>  <sdf_rank>  (23) 
0

$$$$

     RDKit          3D

 13 12  0  0  0  0  0  0  0  0999 V2000
   42.8493    9.5457   50.2726 C   0  0  0  0  0  0  0  0  0  0  0  0
   43.1067   11.0149   50.1322 C   0  0  0  0  0  0  0  0  0  0  0  0
   44.6682   12.9290   49.9905 C   0  0  0  0  0  0  0  0  0  0  0  0
   46.0932   13.2960   50.4324 C   0  0  0  0  0  0  0  0  0  0  0  0
   41.6607    9.1449   50.0506 O   0  0  0  0  0  0  0  0  0  0  0  0
   43.9136    8.8455   50.6007 O   0  0  0  0  0  0  0  0  0  0  0  0
   42.1204   11.7107   50.0419 O   0  0  0  0  0  0  0  0  0  0  0  0
   46.7920   14.2166   49.8447 O   0  0  0  0  0  0  0  0  0  0  0  0
   44.4613   11.5232   50.1258 N   0  0  0  0  0  0  0  0  0  0  0  0
   46.5316   12.6581   51.3990 O   0  0  0  0  0  0  0  0  0  0  0  0
   43.9424   13.4660   50.6188 H   0  0  0  0  0  0  0  0  0  0  0  0
   44.5326   13.2139   48.9367 H   0  0  0  0  0  0  0  0  0  0  0  0
   45.2622   10.8820   50.2172 H   0  0  0  0  0  0  0  0  0  0  0  0
  1  2  1  0
  1  5  2  0
  1  6  1  0
  2  7  2  0
  2  9  1  0
  3  4  1  0
  3  9  1  0
  4  8  1  0
  4 10  2  0
  3 11  1  0
  3 12  1  0
  9 13  1  0
M  CHG  2   6  -1   8  -1
M  END
>  <filename_input>  (24) 
7ZCC_OGA_docked.sdf

>  <pdb_id>  (24) 
7ZCC_OGA

>  <pose_rank>  (24) 
23

>  <num_atoms_heavy>  (24) 
10

>  <num_torsions>  (24) 
3

>  <pose>  (24) 
[43.10672838273106, 11.014862270843919, 50.132159156774854, -0.3839389134616215, 0.07323417005252343, 0.7318850874457999, -3.032992112993503, -0.1644279390542506, -0.6457425029129527]

>  <energy>  (24) 
-117.11188308313044

>  <inter_energy>  (24) 
-107.05604151180954

>  <intra_energy>  (24) 
0.0

>  <rmsd>  (24) 
12.0711

>  <sdf_rank>  (24) 
0

$$$$

     RDKit          3D

 13 12  0  0  0  0  0  0  0  0999 V2000
   35.5440   13.2051   68.5096 C   0  0  0  0  0  0  0  0  0  0  0  0
   34.0927   12.8337   68.4969 C   0  0  0  0  0  0  0  0  0  0  0  0
   31.7461   13.3169   67.8787 C   0  0  0  0  0  0  0  0  0  0  0  0
   31.0158   13.9939   69.0487 C   0  0  0  0  0  0  0  0  0  0  0  0
   35.9364   14.0277   67.6195 O   0  0  0  0  0  0  0  0  0  0  0  0
   36.2347   12.6297   69.4701 O   0  0  0  0  0  0  0  0  0  0  0  0
   33.8165   11.7910   69.0462 O   0  0  0  0  0  0  0  0  0  0  0  0
   30.0790   13.4037   69.7234 O   0  0  0  0  0  0  0  0  0  0  0  0
   33.1202   13.7031   67.8711 N   0  0  0  0  0  0  0  0  0  0  0  0
   31.3883   15.1446   69.3143 O   0  0  0  0  0  0  0  0  0  0  0  0
   31.6754   12.2247   67.9885 H   0  0  0  0  0  0  0  0  0  0  0  0
   31.2786   13.6281   66.9329 H   0  0  0  0  0  0  0  0  0  0  0  0
   33.4143   14.5852   67.4280 H   0  0  0  0  0  0  0  0  0  0  0  0
  1  2  1  0
  1  5  2  0
  1  6  1  0
  2  7  2  0
  2  9  1  0
  3  4  1  0
  3  9  1  0
  4  8  1  0
  4 10  2  0
  3 11  1  0
  3 12  1  0
  9 13  1  0
M  CHG  2   6  -1   8  -1
M  END
>  <filename_input>  (25) 
7ZCC_OGA_docked.sdf

>  <pdb_id>  (25) 
7ZCC_OGA

>  <pose_rank>  (25) 
24

>  <num_atoms_heavy>  (25) 
10

>  <num_torsions>  (25) 
3

>  <pose>  (25) 
[34.09269270345496, 12.833666200435133, 68.4969366661999, -0.6052998584462186, 0.38644720652024755, 2.722153812303981, -0.4756863745675522, -1.3239181552672301, 0.6274239180484176]

>  <energy>  (25) 
-115.40060864453412

>  <inter_energy>  (25) 
-102.83172817655675

>  <intra_energy>  (25) 
0.04041980033359859

>  <rmsd>  (25) 
11.9476

>  <sdf_rank>  (25) 
0

$$$$

     RDKit          3D

 13 12  0  0  0  0  0  0  0  0999 V2000
   36.2640   16.0820   58.9240 C   0  0  0  0  0  0  0  0  0  0  0  0
   37.4200   16.9510   59.3150 C   0  0  0  0  0  0  0  0  0  0  0  0
   39.8310   17.2560   59.7800 C   0  0  0  0  0  0  0  0  0  0  0  0
   41.1080   16.4310   60.0020 C   0  0  0  0  0  0  0  0  0  0  0  0
   36.5010   14.8390   58.7770 O   0  0  0  0  0  0  0  0  0  0  0  0
   35.1270   16.7310   58.7950 O   0  0  0  0  0  0  0  0  0  0  0  0
   37.1470   18.1060   59.5530 O   0  0  0  0  0  0  0  0  0  0  0  0
   42.2330   16.9670   60.3600 O   0  0  0  0  0  0  0  0  0  0  0  0
   38.7540   16.3980   59.4040 N   0  0  0  0  0  0  0  0  0  0  0  0
   40.9910   15.2110   59.8250 O   0  0  0  0  0  0  0  0  0  0  0  0
   39.5703   17.7812   60.7107 H   0  0  0  0  0  0  0  0  0  0  0  0
   40.0082   17.9860   58.9764 H   0  0  0  0  0  0  0  0  0  0  0  0
   38.9235   15.4028   59.1997 H   0  0  0  0  0  0  0  0  0  0  0  0
  1  2  1  0
  1  5  2  0
  1  6  1  0
  2  7  2  0
  2  9  1  0
  3  4  1  0
  3  9  1  0
  4  8  1  0
  4 10  2  0
  3 11  1  0
  3 12  1  0
  9 13  1  0
M  CHG  2   6  -1   8  -1
M  END
>  <filename_input>  (26) 
7ZCC_OGA_docked.sdf

>  <pdb_id>  (26) 
7ZCC_OGA

>  <pose_rank>  (26) 
25

>  <num_atoms_heavy>  (26) 
10

>  <num_torsions>  (26) 
3

>  <pose>  (26) 
[37.42, 16.951, 59.315, 1e-06, 1e-06, 1e-06, 0.0, 0.0, 0.0]

>  <energy>  (26) 
-547.9282318566407

>  <inter_energy>  (26) 
-550.6528337953687

>  <intra_energy>  (26) 
0.0

>  <rmsd>  (26) 
0.0

>  <sdf_rank>  (26) 
0

$$$$
