
     RDKit          3D

 23 23  0  0  0  0  0  0  0  0999 V2000
   28.3015  -10.1639   43.9413 C   0  0  0  0  0  0  0  0  0  0  0  0
   28.0146   -8.7536   44.0365 O   0  0  0  0  0  0  0  0  0  0  0  0
   26.7373   -8.3545   43.4744 C   0  0  1  0  0  0  0  0  0  0  0  0
   26.7278   -6.8064   43.6289 C   0  0  1  0  0  0  0  0  0  0  0  0
   25.7186   -6.0644   42.7998 C   0  0  2  0  0  0  0  0  0  0  0  0
   25.9720   -6.4825   41.3456 C   0  0  1  0  0  0  0  0  0  0  0  0
   25.7413   -8.0062   41.2564 C   0  0  0  0  0  0  0  0  0  0  0  0
   26.8043   -8.6531   42.0345 O   0  0  0  0  0  0  0  0  0  0  0  0
   25.0035   -5.8342   40.5505 O   0  0  0  0  0  0  0  0  0  0  0  0
   26.0629   -4.6588   42.8222 O   0  0  0  0  0  0  0  0  0  0  0  0
   26.4567   -6.4374   45.0411 O   0  0  0  0  0  0  0  0  0  0  0  0
   28.3881  -10.5896   44.9519 H   0  0  0  0  0  0  0  0  0  0  0  0
   27.4875  -10.6679   43.3996 H   0  0  0  0  0  0  0  0  0  0  0  0
   29.2477  -10.3099   43.3996 H   0  0  0  0  0  0  0  0  0  0  0  0
   25.8683   -8.8434   43.9389 H   0  0  0  0  0  0  0  0  0  0  0  0
   27.7263   -6.5091   43.2759 H   0  0  0  0  0  0  0  0  0  0  0  0
   24.6979   -6.2588   43.1612 H   0  0  0  0  0  0  0  0  0  0  0  0
   26.9883   -6.2234   41.0141 H   0  0  0  0  0  0  0  0  0  0  0  0
   24.7575   -8.2635   41.6759 H   0  0  0  0  0  0  0  0  0  0  0  0
   25.7636   -8.3436   40.2096 H   0  0  0  0  0  0  0  0  0  0  0  0
   24.3398   -5.3900   41.1356 H   0  0  0  0  0  0  0  0  0  0  0  0
   26.1380   -4.3523   43.7605 H   0  0  0  0  0  0  0  0  0  0  0  0
   26.9222   -7.0709   45.6429 H   0  0  0  0  0  0  0  0  0  0  0  0
  1  2  1  0
  3  2  1  0
  3  4  1  0
  3  8  1  0
  4  5  1  0
  4 11  1  0
  5  6  1  0
  5 10  1  0
  6  7  1  0
  6  9  1  0
  7  8  1  0
  1 12  1  0
  1 13  1  0
  1 14  1  0
  3 15  1  1
  4 16  1  6
  5 17  1  1
  6 18  1  6
  7 19  1  0
  7 20  1  0
  9 21  1  0
 10 22  1  0
 11 23  1  0
M  END
>  <filename_input>  (1) 
7ZDY_6MJ_docked.sdf

>  <pdb_id>  (1) 
7ZDY_6MJ

>  <pose_rank>  (1) 
0

>  <num_atoms_heavy>  (1) 
11

>  <num_torsions>  (1) 
1

>  <pose>  (1) 
[26.73729752981375, -8.354517800250202, 43.474379646164536, 3.2241354665150865, -3.64527997646222, 3.838678080025433, -0.01718280564500425]

>  <energy>  (1) 
-701.4704931914235

>  <inter_energy>  (1) 
-686.4822208551633

>  <intra_energy>  (1) 
0.0

>  <rmsd>  (1) 
0.197048

>  <sdf_rank>  (1) 
0

$$$$

     RDKit          3D

 23 23  0  0  0  0  0  0  0  0999 V2000
   28.5774   -9.7657   43.7816 C   0  0  0  0  0  0  0  0  0  0  0  0
   28.2466   -8.3633   43.7155 O   0  0  0  0  0  0  0  0  0  0  0  0
   26.9605   -8.0708   43.1094 C   0  0  1  0  0  0  0  0  0  0  0  0
   26.7349   -6.5630   43.4199 C   0  0  1  0  0  0  0  0  0  0  0  0
   25.6829   -5.8689   42.6025 C   0  0  2  0  0  0  0  0  0  0  0  0
   26.0706   -6.0885   41.1344 C   0  0  1  0  0  0  0  0  0  0  0  0
   26.0518   -7.6101   40.8745 C   0  0  0  0  0  0  0  0  0  0  0  0
   27.1470   -8.1979   41.6548 O   0  0  0  0  0  0  0  0  0  0  0  0
   25.0696   -5.4854   40.3440 O   0  0  0  0  0  0  0  0  0  0  0  0
   25.8338   -4.4420   42.7919 O   0  0  0  0  0  0  0  0  0  0  0  0
   26.3386   -6.3895   44.8400 O   0  0  0  0  0  0  0  0  0  0  0  0
   28.6505  -10.0759   44.8345 H   0  0  0  0  0  0  0  0  0  0  0  0
   27.7928  -10.3515   43.2805 H   0  0  0  0  0  0  0  0  0  0  0  0
   29.5411   -9.9392   43.2805 H   0  0  0  0  0  0  0  0  0  0  0  0
   26.1405   -8.7146   43.4601 H   0  0  0  0  0  0  0  0  0  0  0  0
   27.7026   -6.1039   43.1693 H   0  0  0  0  0  0  0  0  0  0  0  0
   24.6791   -6.2304   42.8702 H   0  0  0  0  0  0  0  0  0  0  0  0
   27.0599   -5.6671   40.9025 H   0  0  0  0  0  0  0  0  0  0  0  0
   25.0896   -8.0353   41.1961 H   0  0  0  0  0  0  0  0  0  0  0  0
   26.1773   -7.8245   39.8029 H   0  0  0  0  0  0  0  0  0  0  0  0
   24.3876   -5.0745   40.9323 H   0  0  0  0  0  0  0  0  0  0  0  0
   25.8554   -4.2381   43.7604 H   0  0  0  0  0  0  0  0  0  0  0  0
   27.0684   -6.7091   45.4277 H   0  0  0  0  0  0  0  0  0  0  0  0
  1  2  1  0
  3  2  1  0
  3  4  1  0
  3  8  1  0
  4  5  1  0
  4 11  1  0
  5  6  1  0
  5 10  1  0
  6  7  1  0
  6  9  1  0
  7  8  1  0
  1 12  1  0
  1 13  1  0
  1 14  1  0
  3 15  1  1
  4 16  1  1
  5 17  1  6
  6 18  1  1
  7 19  1  0
  7 20  1  0
  9 21  1  0
 10 22  1  0
 11 23  1  0
M  END
>  <filename_input>  (2) 
7ZDY_6MJ_docked.sdf

>  <pdb_id>  (2) 
7ZDY_6MJ

>  <pose_rank>  (2) 
1

>  <num_atoms_heavy>  (2) 
11

>  <num_torsions>  (2) 
1

>  <pose>  (2) 
[26.96053301589109, -8.070803400851085, 43.109386722508425, 3.8256544121544813, -0.830699329441401, 5.043628464616779, 6.016619160844378]

>  <energy>  (2) 
-605.3545822610618

>  <inter_energy>  (2) 
-611.7939494043212

>  <intra_energy>  (2) 
0.0

>  <rmsd>  (2) 
0.528038

>  <sdf_rank>  (2) 
0

$$$$

     RDKit          3D

 23 23  0  0  0  0  0  0  0  0999 V2000
   28.2420  -10.2000   43.8937 C   0  0  0  0  0  0  0  0  0  0  0  0
   28.0045   -8.7775   43.9161 O   0  0  0  0  0  0  0  0  0  0  0  0
   26.7419   -8.3634   43.3321 C   0  0  1  0  0  0  0  0  0  0  0  0
   26.7501   -6.8148   43.4824 C   0  0  1  0  0  0  0  0  0  0  0  0
   25.7643   -6.0622   42.6350 C   0  0  2  0  0  0  0  0  0  0  0  0
   26.0359   -6.4876   41.1861 C   0  0  1  0  0  0  0  0  0  0  0  0
   25.7869   -8.0085   41.0972 C   0  0  0  0  0  0  0  0  0  0  0  0
   26.8285   -8.6669   41.8943 O   0  0  0  0  0  0  0  0  0  0  0  0
   25.0891   -5.8291   40.3736 O   0  0  0  0  0  0  0  0  0  0  0  0
   26.1266   -4.6611   42.6592 O   0  0  0  0  0  0  0  0  0  0  0  0
   26.4608   -6.4384   44.8890 O   0  0  0  0  0  0  0  0  0  0  0  0
   28.3050  -10.5776   44.9249 H   0  0  0  0  0  0  0  0  0  0  0  0
   27.4151  -10.7015   43.3695 H   0  0  0  0  0  0  0  0  0  0  0  0
   29.1869  -10.4058   43.3695 H   0  0  0  0  0  0  0  0  0  0  0  0
   25.8591   -8.8396   43.7837 H   0  0  0  0  0  0  0  0  0  0  0  0
   27.7580   -6.5316   43.1450 H   0  0  0  0  0  0  0  0  0  0  0  0
   24.7354   -6.2422   42.9800 H   0  0  0  0  0  0  0  0  0  0  0  0
   27.0609   -6.2428   40.8706 H   0  0  0  0  0  0  0  0  0  0  0  0
   24.7931   -8.2518   41.5012 H   0  0  0  0  0  0  0  0  0  0  0  0
   25.8219   -8.3491   40.0518 H   0  0  0  0  0  0  0  0  0  0  0  0
   24.4263   -5.3682   40.9466 H   0  0  0  0  0  0  0  0  0  0  0  0
   26.2052   -4.3568   43.5980 H   0  0  0  0  0  0  0  0  0  0  0  0
   26.9353   -7.0559   45.5002 H   0  0  0  0  0  0  0  0  0  0  0  0
  1  2  1  0
  3  2  1  0
  3  4  1  0
  3  8  1  0
  4  5  1  0
  4 11  1  0
  5  6  1  0
  5 10  1  0
  6  7  1  0
  6  9  1  0
  7  8  1  0
  1 12  1  0
  1 13  1  0
  1 14  1  0
  3 15  1  1
  4 16  1  6
  5 17  1  1
  6 18  1  6
  7 19  1  0
  7 20  1  0
  9 21  1  0
 10 22  1  0
 11 23  1  0
M  END
>  <filename_input>  (3) 
7ZDY_6MJ_docked.sdf

>  <pdb_id>  (3) 
7ZDY_6MJ

>  <pose_rank>  (3) 
2

>  <num_atoms_heavy>  (3) 
11

>  <num_torsions>  (3) 
1

>  <pose>  (3) 
[26.741875455109053, -8.363424540841857, 43.33210318807212, 3.27237510809929, -2.397119241098659, 4.683327170521294, 6.210582116485992]

>  <energy>  (3) 
-676.5921851751839

>  <inter_energy>  (3) 
-669.717114857841

>  <intra_energy>  (3) 
0.0

>  <rmsd>  (3) 
0.312373

>  <sdf_rank>  (3) 
0

$$$$

     RDKit          3D

 23 23  0  0  0  0  0  0  0  0999 V2000
   27.8608   -9.9824   44.6772 C   0  0  0  0  0  0  0  0  0  0  0  0
   27.9463   -8.7668   43.9055 O   0  0  0  0  0  0  0  0  0  0  0  0
   26.6893   -8.3223   43.3316 C   0  0  1  0  0  0  0  0  0  0  0  0
   26.7493   -6.7725   43.4543 C   0  0  1  0  0  0  0  0  0  0  0  0
   25.7762   -6.0031   42.6072 C   0  0  2  0  0  0  0  0  0  0  0  0
   26.0134   -6.4621   41.1626 C   0  0  1  0  0  0  0  0  0  0  0  0
   25.7145   -7.9755   41.1040 C   0  0  0  0  0  0  0  0  0  0  0  0
   26.7457   -8.6533   41.8984 O   0  0  0  0  0  0  0  0  0  0  0  0
   25.0766   -5.7875   40.3515 O   0  0  0  0  0  0  0  0  0  0  0  0
   26.1834   -4.6142   42.6016 O   0  0  0  0  0  0  0  0  0  0  0  0
   26.4923   -6.3626   44.8578 O   0  0  0  0  0  0  0  0  0  0  0  0
   27.8780   -9.7379   45.7496 H   0  0  0  0  0  0  0  0  0  0  0  0
   26.9237  -10.5051   44.4353 H   0  0  0  0  0  0  0  0  0  0  0  0
   28.7155  -10.6311   44.4353 H   0  0  0  0  0  0  0  0  0  0  0  0
   25.7983   -8.7619   43.8036 H   0  0  0  0  0  0  0  0  0  0  0  0
   27.7609   -6.5278   43.0981 H   0  0  0  0  0  0  0  0  0  0  0  0
   24.7471   -6.1438   42.9694 H   0  0  0  0  0  0  0  0  0  0  0  0
   27.0410   -6.2560   40.8288 H   0  0  0  0  0  0  0  0  0  0  0  0
   24.7193   -8.1795   41.5258 H   0  0  0  0  0  0  0  0  0  0  0  0
   25.7236   -8.3351   40.0645 H   0  0  0  0  0  0  0  0  0  0  0  0
   24.4221   -5.3162   40.9255 H   0  0  0  0  0  0  0  0  0  0  0  0
   26.2773   -4.2941   43.5337 H   0  0  0  0  0  0  0  0  0  0  0  0
   26.9040   -7.0191   45.4740 H   0  0  0  0  0  0  0  0  0  0  0  0
  1  2  1  0
  3  2  1  0
  3  4  1  0
  3  8  1  0
  4  5  1  0
  4 11  1  0
  5  6  1  0
  5 10  1  0
  6  7  1  0
  6  9  1  0
  7  8  1  0
  1 12  1  0
  1 13  1  0
  1 14  1  0
  3 15  1  1
  4 16  1  6
  5 17  1  1
  6 18  1  6
  7 19  1  0
  7 20  1  0
  9 21  1  0
 10 22  1  0
 11 23  1  0
M  END
>  <filename_input>  (4) 
7ZDY_6MJ_docked.sdf

>  <pdb_id>  (4) 
7ZDY_6MJ

>  <pose_rank>  (4) 
3

>  <num_atoms_heavy>  (4) 
11

>  <num_torsions>  (4) 
1

>  <pose>  (4) 
[26.689346046796, -8.32233211137064, 43.33158691254019, 3.0965485096770644, -2.3348162409742708, 4.78182733815247, 5.551617906206811]

>  <energy>  (4) 
-662.9660134352098

>  <inter_energy>  (4) 
-661.4596701335872

>  <intra_energy>  (4) 
0.0

>  <rmsd>  (4) 
0.444693

>  <sdf_rank>  (4) 
0

$$$$

     RDKit          3D

 23 23  0  0  0  0  0  0  0  0999 V2000
   29.4896   -8.5681   42.9511 C   0  0  0  0  0  0  0  0  0  0  0  0
   28.3771   -8.5929   43.8688 O   0  0  0  0  0  0  0  0  0  0  0  0
   27.0900   -8.2879   43.2709 C   0  0  1  0  0  0  0  0  0  0  0  0
   26.8953   -6.7707   43.5555 C   0  0  1  0  0  0  0  0  0  0  0  0
   25.8474   -6.0726   42.7364 C   0  0  2  0  0  0  0  0  0  0  0  0
   26.2149   -6.3265   41.2686 C   0  0  1  0  0  0  0  0  0  0  0  0
   26.1654   -7.8521   41.0376 C   0  0  0  0  0  0  0  0  0  0  0  0
   27.2582   -8.4455   41.8171 O   0  0  0  0  0  0  0  0  0  0  0  0
   25.2165   -5.7198   40.4777 O   0  0  0  0  0  0  0  0  0  0  0  0
   26.0264   -4.6454   42.8974 O   0  0  0  0  0  0  0  0  0  0  0  0
   26.5178   -6.5636   44.9762 O   0  0  0  0  0  0  0  0  0  0  0  0
   30.4320   -8.5472   43.5179 H   0  0  0  0  0  0  0  0  0  0  0  0
   29.4625   -9.4671   42.3177 H   0  0  0  0  0  0  0  0  0  0  0  0
   29.4226   -7.6713   42.3177 H   0  0  0  0  0  0  0  0  0  0  0  0
   26.2622   -8.9099   43.6423 H   0  0  0  0  0  0  0  0  0  0  0  0
   27.8685   -6.3343   43.2861 H   0  0  0  0  0  0  0  0  0  0  0  0
   24.8401   -6.4105   43.0214 H   0  0  0  0  0  0  0  0  0  0  0  0
   27.2092   -5.9279   41.0185 H   0  0  0  0  0  0  0  0  0  0  0  0
   25.1992   -8.2534   41.3772 H   0  0  0  0  0  0  0  0  0  0  0  0
   26.2753   -8.0886   39.9689 H   0  0  0  0  0  0  0  0  0  0  0  0
   24.5359   -5.3062   41.0657 H   0  0  0  0  0  0  0  0  0  0  0  0
   26.0543   -4.4230   43.8616 H   0  0  0  0  0  0  0  0  0  0  0  0
   27.2170   -6.9472   45.5628 H   0  0  0  0  0  0  0  0  0  0  0  0
  1  2  1  0
  3  2  1  0
  3  4  1  0
  3  8  1  0
  4  5  1  0
  4 11  1  0
  5  6  1  0
  5 10  1  0
  6  7  1  0
  6  9  1  0
  7  8  1  0
  1 12  1  0
  1 13  1  0
  1 14  1  0
  3 15  1  1
  4 16  1  1
  5 17  1  1
  6 18  1  6
  7 19  1  0
  7 20  1  0
  9 21  1  0
 10 22  1  0
 11 23  1  0
M  END
>  <filename_input>  (5) 
7ZDY_6MJ_docked.sdf

>  <pdb_id>  (5) 
7ZDY_6MJ

>  <pose_rank>  (5) 
4

>  <num_atoms_heavy>  (5) 
11

>  <num_torsions>  (5) 
1

>  <pose>  (5) 
[27.090007958635, -8.287941055192446, 43.270942642451985, 3.607295514204659, -0.19262216473015795, 5.232088361419855, 1.3860001759975773]

>  <energy>  (5) 
-630.9969437366783

>  <inter_energy>  (5) 
-625.079410054097

>  <intra_energy>  (5) 
0.0

>  <rmsd>  (5) 
0.722464

>  <sdf_rank>  (5) 
0

$$$$

     RDKit          3D

 23 23  0  0  0  0  0  0  0  0999 V2000
   29.3540   -9.9511   43.7890 C   0  0  0  0  0  0  0  0  0  0  0  0
   28.4033   -9.3916   44.7183 O   0  0  0  0  0  0  0  0  0  0  0  0
   27.1697   -8.9209   44.1153 C   0  0  1  0  0  0  0  0  0  0  0  0
   27.2757   -7.3714   44.2075 C   0  0  1  0  0  0  0  0  0  0  0  0
   26.3400   -6.5904   43.3294 C   0  0  2  0  0  0  0  0  0  0  0  0
   26.5852   -7.0864   41.8984 C   0  0  1  0  0  0  0  0  0  0  0  0
   26.2406   -8.5908   41.8658 C   0  0  0  0  0  0  0  0  0  0  0  0
   27.2380   -9.2832   42.6902 O   0  0  0  0  0  0  0  0  0  0  0  0
   25.6824   -6.4004   41.0588 O   0  0  0  0  0  0  0  0  0  0  0  0
   26.7901   -5.2150   43.3022 O   0  0  0  0  0  0  0  0  0  0  0  0
   27.0098   -6.9247   45.5980 O   0  0  0  0  0  0  0  0  0  0  0  0
   30.1715  -10.4322   44.3460 H   0  0  0  0  0  0  0  0  0  0  0  0
   28.8522  -10.6979   43.1562 H   0  0  0  0  0  0  0  0  0  0  0  0
   29.7632   -9.1498   43.1562 H   0  0  0  0  0  0  0  0  0  0  0  0
   26.2583   -9.3231   44.5817 H   0  0  0  0  0  0  0  0  0  0  0  0
   28.2997   -7.1653   43.8627 H   0  0  0  0  0  0  0  0  0  0  0  0
   25.3016   -6.6920   43.6778 H   0  0  0  0  0  0  0  0  0  0  0  0
   27.6238   -6.9188   41.5770 H   0  0  0  0  0  0  0  0  0  0  0  0
   25.2332   -8.7555   42.2755 H   0  0  0  0  0  0  0  0  0  0  0  0
   26.2547   -8.9720   40.8340 H   0  0  0  0  0  0  0  0  0  0  0  0
   25.0290   -5.9040   41.6125 H   0  0  0  0  0  0  0  0  0  0  0  0
   26.8982   -4.8848   44.2292 H   0  0  0  0  0  0  0  0  0  0  0  0
   27.3979   -7.5767   46.2340 H   0  0  0  0  0  0  0  0  0  0  0  0
  1  2  1  0
  3  2  1  0
  3  4  1  0
  3  8  1  0
  4  5  1  0
  4 11  1  0
  5  6  1  0
  5 10  1  0
  6  7  1  0
  6  9  1  0
  7  8  1  0
  1 12  1  0
  1 13  1  0
  1 14  1  0
  3 15  1  1
  4 16  1  6
  5 17  1  1
  6 18  1  6
  7 19  1  0
  7 20  1  0
  9 21  1  0
 10 22  1  0
 11 23  1  0
M  END
>  <filename_input>  (6) 
7ZDY_6MJ_docked.sdf

>  <pdb_id>  (6) 
7ZDY_6MJ

>  <pose_rank>  (6) 
5

>  <num_atoms_heavy>  (6) 
11

>  <num_torsions>  (6) 
1

>  <pose>  (6) 
[27.169714827095248, -8.920908488534993, 44.11532985575739, 3.2173461065651003, -1.251810027079947, 5.060451075338151, 1.1726386138956324]

>  <energy>  (6) 
-474.0293195920827

>  <inter_energy>  (6) 
-460.3413563643014

>  <intra_energy>  (6) 
0.0

>  <rmsd>  (6) 
0.866285

>  <sdf_rank>  (6) 
0

$$$$

     RDKit          3D

 23 23  0  0  0  0  0  0  0  0999 V2000
   28.6492   -9.2226   43.2282 C   0  0  0  0  0  0  0  0  0  0  0  0
   27.7459   -8.5062   44.0950 O   0  0  0  0  0  0  0  0  0  0  0  0
   26.4785   -8.1455   43.4864 C   0  0  1  0  0  0  0  0  0  0  0  0
   26.3837   -6.6077   43.7028 C   0  0  1  0  0  0  0  0  0  0  0  0
   25.3792   -5.8805   42.8551 C   0  0  2  0  0  0  0  0  0  0  0  0
   25.7226   -6.2231   41.3995 C   0  0  1  0  0  0  0  0  0  0  0  0
   25.5735   -7.7510   41.2374 C   0  0  0  0  0  0  0  0  0  0  0  0
   26.6293   -8.3785   42.0408 O   0  0  0  0  0  0  0  0  0  0  0  0
   24.7618   -5.5890   40.5840 O   0  0  0  0  0  0  0  0  0  0  0  0
   25.6509   -4.4621   42.9514 O   0  0  0  0  0  0  0  0  0  0  0  0
   26.0271   -6.3132   45.1135 O   0  0  0  0  0  0  0  0  0  0  0  0
   29.3672   -9.7919   43.8368 H   0  0  0  0  0  0  0  0  0  0  0  0
   28.0766   -9.9147   42.5934 H   0  0  0  0  0  0  0  0  0  0  0  0
   29.1928   -8.5073   42.5934 H   0  0  0  0  0  0  0  0  0  0  0  0
   25.6140   -8.6953   43.8869 H   0  0  0  0  0  0  0  0  0  0  0  0
   27.3817   -6.2477   43.4123 H   0  0  0  0  0  0  0  0  0  0  0  0
   24.3535   -6.1393   43.1568 H   0  0  0  0  0  0  0  0  0  0  0  0
   26.7393   -5.9013   41.1299 H   0  0  0  0  0  0  0  0  0  0  0  0
   24.5850   -8.0733   41.5965 H   0  0  0  0  0  0  0  0  0  0  0  0
   25.6628   -8.0418   40.1802 H   0  0  0  0  0  0  0  0  0  0  0  0
   24.0868   -5.1434   41.1549 H   0  0  0  0  0  0  0  0  0  0  0  0
   25.7011   -4.1997   43.9047 H   0  0  0  0  0  0  0  0  0  0  0  0
   26.6316   -6.8125   45.7178 H   0  0  0  0  0  0  0  0  0  0  0  0
  1  2  1  0
  3  2  1  0
  3  4  1  0
  3  8  1  0
  4  5  1  0
  4 11  1  0
  5  6  1  0
  5 10  1  0
  6  7  1  0
  6  9  1  0
  7  8  1  0
  1 12  1  0
  1 13  1  0
  1 14  1  0
  3 15  1  1
  4 16  1  6
  5 17  1  1
  6 18  1  6
  7 19  1  0
  7 20  1  0
  9 21  1  0
 10 22  1  0
 11 23  1  0
M  END
>  <filename_input>  (7) 
7ZDY_6MJ_docked.sdf

>  <pdb_id>  (7) 
7ZDY_6MJ

>  <pose_rank>  (7) 
6

>  <num_atoms_heavy>  (7) 
11

>  <num_torsions>  (7) 
1

>  <pose>  (7) 
[26.478493219867897, -8.14554745941198, 43.486407895714265, 3.6360636196809444, -1.5296542230786154, 4.885222283835045, 0.8748897667680547]

>  <energy>  (7) 
-615.6132587899991

>  <inter_energy>  (7) 
-617.8221781337458

>  <intra_energy>  (7) 
0.0

>  <rmsd>  (7) 
0.575255

>  <sdf_rank>  (7) 
0

$$$$

     RDKit          3D

 23 23  0  0  0  0  0  0  0  0999 V2000
   29.4549   -8.2854   43.0870 C   0  0  0  0  0  0  0  0  0  0  0  0
   28.3052   -8.6941   43.8561 O   0  0  0  0  0  0  0  0  0  0  0  0
   27.0252   -8.3653   43.2558 C   0  0  1  0  0  0  0  0  0  0  0  0
   26.8674   -6.8406   43.5225 C   0  0  1  0  0  0  0  0  0  0  0  0
   25.8356   -6.1272   42.6961 C   0  0  2  0  0  0  0  0  0  0  0  0
   26.1952   -6.4072   41.2311 C   0  0  1  0  0  0  0  0  0  0  0  0
   26.1087   -7.9338   41.0182 C   0  0  0  0  0  0  0  0  0  0  0  0
   27.1878   -8.5440   41.8038 O   0  0  0  0  0  0  0  0  0  0  0  0
   25.2108   -5.7860   40.4340 O   0  0  0  0  0  0  0  0  0  0  0  0
   26.0491   -4.7029   42.8400 O   0  0  0  0  0  0  0  0  0  0  0  0
   26.4967   -6.6076   44.9410 O   0  0  0  0  0  0  0  0  0  0  0  0
   30.2682   -7.9962   43.7689 H   0  0  0  0  0  0  0  0  0  0  0  0
   29.7875   -9.1203   42.4528 H   0  0  0  0  0  0  0  0  0  0  0  0
   29.1859   -7.4278   42.4528 H   0  0  0  0  0  0  0  0  0  0  0  0
   26.1831   -8.9627   43.6353 H   0  0  0  0  0  0  0  0  0  0  0  0
   27.8505   -6.4309   43.2471 H   0  0  0  0  0  0  0  0  0  0  0  0
   24.8208   -6.4373   42.9860 H   0  0  0  0  0  0  0  0  0  0  0  0
   27.1985   -6.0356   40.9754 H   0  0  0  0  0  0  0  0  0  0  0  0
   25.1336   -8.3077   41.3635 H   0  0  0  0  0  0  0  0  0  0  0  0
   26.2116   -8.1855   39.9524 H   0  0  0  0  0  0  0  0  0  0  0  0
   24.5346   -5.3593   41.0176 H   0  0  0  0  0  0  0  0  0  0  0  0
   26.0841   -4.4699   43.8016 H   0  0  0  0  0  0  0  0  0  0  0  0
   27.1694   -7.0304   45.5316 H   0  0  0  0  0  0  0  0  0  0  0  0
  1  2  1  0
  3  2  1  0
  3  4  1  0
  3  8  1  0
  4  5  1  0
  4 11  1  0
  5  6  1  0
  5 10  1  0
  6  7  1  0
  6  9  1  0
  7  8  1  0
  1 12  1  0
  1 13  1  0
  1 14  1  0
  3 15  1  1
  4 16  1  1
  5 17  1  1
  6 18  1  6
  7 19  1  0
  7 20  1  0
  9 21  1  0
 10 22  1  0
 11 23  1  0
M  END
>  <filename_input>  (8) 
7ZDY_6MJ_docked.sdf

>  <pdb_id>  (8) 
7ZDY_6MJ

>  <pose_rank>  (8) 
7

>  <num_atoms_heavy>  (8) 
11

>  <num_torsions>  (8) 
1

>  <pose>  (8) 
[27.02516429245024, -8.365329460123576, 43.255800081938766, -19.833640643843832, 0.8998724537083889, -24.28450905426757, 1.730488967878226]

>  <energy>  (8) 
-614.6623602016705

>  <inter_energy>  (8) 
-614.3203861497828

>  <intra_energy>  (8) 
0.0

>  <rmsd>  (8) 
0.753984

>  <sdf_rank>  (8) 
0

$$$$

     RDKit          3D

 23 23  0  0  0  0  0  0  0  0999 V2000
   24.7486   -5.1472   40.5798 C   0  0  0  0  0  0  0  0  0  0  0  0
   25.0961   -6.5396   40.7245 O   0  0  0  0  0  0  0  0  0  0  0  0
   26.4104   -6.7816   41.2909 C   0  0  1  0  0  0  0  0  0  0  0  0
   26.2074   -6.5561   42.8169 C   0  0  1  0  0  0  0  0  0  0  0  0
   27.2805   -7.1019   43.7154 C   0  0  2  0  0  0  0  0  0  0  0  0
   27.3995   -8.5941   43.3787 C   0  0  1  0  0  0  0  0  0  0  0  0
   27.8182   -8.7010   41.8967 C   0  0  0  0  0  0  0  0  0  0  0  0
   26.6931   -8.2123   41.0909 O   0  0  0  0  0  0  0  0  0  0  0  0
   28.4365   -9.1204   44.1775 O   0  0  0  0  0  0  0  0  0  0  0  0
   26.7798   -7.0912   45.0733 O   0  0  0  0  0  0  0  0  0  0  0  0
   26.1204   -5.1033   43.1097 O   0  0  0  0  0  0  0  0  0  0  0  0
   24.6351   -4.6923   41.5748 H   0  0  0  0  0  0  0  0  0  0  0  0
   25.5443   -4.6262   40.0271 H   0  0  0  0  0  0  0  0  0  0  0  0
   23.8014   -5.0612   40.0271 H   0  0  0  0  0  0  0  0  0  0  0  0
   27.2079   -6.1577   40.8612 H   0  0  0  0  0  0  0  0  0  0  0  0
   25.2822   -7.1096   43.0353 H   0  0  0  0  0  0  0  0  0  0  0  0
   28.2135   -6.5306   43.6007 H   0  0  0  0  0  0  0  0  0  0  0  0
   26.4567   -9.1324   43.5558 H   0  0  0  0  0  0  0  0  0  0  0  0
   28.7101   -8.0843   41.7117 H   0  0  0  0  0  0  0  0  0  0  0  0
   28.0633   -9.7408   41.6346 H   0  0  0  0  0  0  0  0  0  0  0  0
   28.2078   -9.0043   45.1337 H   0  0  0  0  0  0  0  0  0  0  0  0
   27.5412   -7.1076   45.7059 H   0  0  0  0  0  0  0  0  0  0  0  0
   26.1120   -4.9641   44.0898 H   0  0  0  0  0  0  0  0  0  0  0  0
  1  2  1  0
  3  2  1  0
  3  4  1  0
  3  8  1  0
  4  5  1  0
  4 11  1  0
  5  6  1  0
  5 10  1  0
  6  7  1  0
  6  9  1  0
  7  8  1  0
  1 12  1  0
  1 13  1  0
  1 14  1  0
  3 15  1  6
  4 16  1  1
  5 17  1  1
  6 18  1  6
  7 19  1  0
  7 20  1  0
  9 21  1  0
 10 22  1  0
 11 23  1  0
M  END
>  <filename_input>  (9) 
7ZDY_6MJ_docked.sdf

>  <pdb_id>  (9) 
7ZDY_6MJ

>  <pose_rank>  (9) 
8

>  <num_atoms_heavy>  (9) 
11

>  <num_torsions>  (9) 
1

>  <pose>  (9) 
[26.41037113360671, -6.781640969078276, 41.29093407193389, -0.49237267733021256, 2.2697920144274795, 2.2404382639691613, 4.438064222998641]

>  <energy>  (9) 
-386.75399186485197

>  <inter_energy>  (9) 
-404.675943839202

>  <intra_energy>  (9) 
15.628858861457228

>  <rmsd>  (9) 
3.77119

>  <sdf_rank>  (9) 
0

$$$$

     RDKit          3D

 23 23  0  0  0  0  0  0  0  0999 V2000
   24.8439   -5.9412   40.7619 C   0  0  0  0  0  0  0  0  0  0  0  0
   25.4793   -7.2338   40.6844 O   0  0  0  0  0  0  0  0  0  0  0  0
   26.8117   -7.2907   41.2575 C   0  0  1  0  0  0  0  0  0  0  0  0
   26.5591   -7.2840   42.7928 C   0  0  1  0  0  0  0  0  0  0  0  0
   27.7093   -7.7204   43.6549 C   0  0  2  0  0  0  0  0  0  0  0  0
   28.1092   -9.1155   43.1572 C   0  0  1  0  0  0  0  0  0  0  0  0
   28.5510   -8.9714   41.6851 C   0  0  0  0  0  0  0  0  0  0  0  0
   27.3598   -8.6111   40.9071 O   0  0  0  0  0  0  0  0  0  0  0  0
   29.2209   -9.5281   43.9215 O   0  0  0  0  0  0  0  0  0  0  0  0
   27.2059   -7.9593   44.9907 O   0  0  0  0  0  0  0  0  0  0  0  0
   26.1984   -5.9162   43.2433 O   0  0  0  0  0  0  0  0  0  0  0  0
   24.7070   -5.6626   41.8171 H   0  0  0  0  0  0  0  0  0  0  0  0
   25.4762   -5.1914   40.2637 H   0  0  0  0  0  0  0  0  0  0  0  0
   23.8641   -5.9839   40.2637 H   0  0  0  0  0  0  0  0  0  0  0  0
   27.4806   -6.4841   40.9232 H   0  0  0  0  0  0  0  0  0  0  0  0
   25.7530   -8.0213   42.9214 H   0  0  0  0  0  0  0  0  0  0  0  0
   28.5190   -6.9762   43.6314 H   0  0  0  0  0  0  0  0  0  0  0  0
   27.2832   -9.8365   43.2460 H   0  0  0  0  0  0  0  0  0  0  0  0
   29.3122   -8.1825   41.5956 H   0  0  0  0  0  0  0  0  0  0  0  0
   28.9891   -9.9103   41.3155 H   0  0  0  0  0  0  0  0  0  0  0  0
   29.0069   -9.4487   44.8848 H   0  0  0  0  0  0  0  0  0  0  0  0
   27.8694   -7.6444   45.6546 H   0  0  0  0  0  0  0  0  0  0  0  0
   26.1904   -5.8861   44.2328 H   0  0  0  0  0  0  0  0  0  0  0  0
  1  2  1  0
  3  2  1  0
  3  4  1  0
  3  8  1  0
  4  5  1  0
  4 11  1  0
  5  6  1  0
  5 10  1  0
  6  7  1  0
  6  9  1  0
  7  8  1  0
  1 12  1  0
  1 13  1  0
  1 14  1  0
  3 15  1  1
  4 16  1  6
  5 17  1  1
  6 18  1  6
  7 19  1  0
  7 20  1  0
  9 21  1  0
 10 22  1  0
 11 23  1  0
M  END
>  <filename_input>  (10) 
7ZDY_6MJ_docked.sdf

>  <pdb_id>  (10) 
7ZDY_6MJ

>  <pose_rank>  (10) 
9

>  <num_atoms_heavy>  (10) 
11

>  <num_torsions>  (10) 
1

>  <pose>  (10) 
[26.811665561714925, -7.290698887380403, 41.25753106795536, -0.7561586389944802, 2.155069079115742, 2.419708862599957, 4.373489390595091]

>  <energy>  (10) 
-314.2366012110618

>  <inter_energy>  (10) 
-343.5337571742192

>  <intra_energy>  (10) 
17.918164869933825

>  <rmsd>  (10) 
3.83621

>  <sdf_rank>  (10) 
0

$$$$

     RDKit          3D

 23 23  0  0  0  0  0  0  0  0999 V2000
   28.9248   -9.8993   43.4316 C   0  0  0  0  0  0  0  0  0  0  0  0
   28.2347   -8.7956   44.0527 O   0  0  0  0  0  0  0  0  0  0  0  0
   26.9622   -8.4548   43.4432 C   0  0  1  0  0  0  0  0  0  0  0  0
   26.8303   -6.9233   43.6837 C   0  0  1  0  0  0  0  0  0  0  0  0
   25.8134   -6.2060   42.8424 C   0  0  2  0  0  0  0  0  0  0  0  0
   26.1721   -6.5169   41.3834 C   0  0  1  0  0  0  0  0  0  0  0  0
   26.0596   -8.0451   41.1959 C   0  0  0  0  0  0  0  0  0  0  0  0
   27.1257   -8.6607   41.9948 O   0  0  0  0  0  0  0  0  0  0  0  0
   25.2009   -5.8922   40.5729 O   0  0  0  0  0  0  0  0  0  0  0  0
   26.0513   -4.7835   42.9629 O   0  0  0  0  0  0  0  0  0  0  0  0
   26.4598   -6.6600   45.0970 O   0  0  0  0  0  0  0  0  0  0  0  0
   29.3371  -10.5586   44.2097 H   0  0  0  0  0  0  0  0  0  0  0  0
   28.2204  -10.4667   42.8057 H   0  0  0  0  0  0  0  0  0  0  0  0
   29.7434   -9.5144   42.8057 H   0  0  0  0  0  0  0  0  0  0  0  0
   26.1088   -9.0310   43.8300 H   0  0  0  0  0  0  0  0  0  0  0  0
   27.8211   -6.5354   43.4045 H   0  0  0  0  0  0  0  0  0  0  0  0
   24.7925   -6.4935   43.1343 H   0  0  0  0  0  0  0  0  0  0  0  0
   27.1824   -6.1672   41.1245 H   0  0  0  0  0  0  0  0  0  0  0  0
   25.0771   -8.3961   41.5444 H   0  0  0  0  0  0  0  0  0  0  0  0
   26.1610   -8.3165   40.1347 H   0  0  0  0  0  0  0  0  0  0  0  0
   24.5227   -5.4561   41.1474 H   0  0  0  0  0  0  0  0  0  0  0  0
   26.0927   -4.5358   43.9206 H   0  0  0  0  0  0  0  0  0  0  0  0
   27.1018   -7.1161   45.6969 H   0  0  0  0  0  0  0  0  0  0  0  0
  1  2  1  0
  3  2  1  0
  3  4  1  0
  3  8  1  0
  4  5  1  0
  4 11  1  0
  5  6  1  0
  5 10  1  0
  6  7  1  0
  6  9  1  0
  7  8  1  0
  1 12  1  0
  1 13  1  0
  1 14  1  0
  3 15  1  1
  4 16  1  6
  5 17  1  1
  6 18  1  6
  7 19  1  0
  7 20  1  0
  9 21  1  0
 10 22  1  0
 11 23  1  0
M  END
>  <filename_input>  (11) 
7ZDY_6MJ_docked.sdf

>  <pdb_id>  (11) 
7ZDY_6MJ

>  <pose_rank>  (11) 
10

>  <num_atoms_heavy>  (11) 
11

>  <num_torsions>  (11) 
1

>  <pose>  (11) 
[26.96219593179286, -8.45477767211663, 43.44315584526843, 3.5017809859849267, -1.079358429320981, 5.134431090320476, 0.45582850825450755]

>  <energy>  (11) 
-634.1132930182707

>  <inter_energy>  (11) 
-626.8142868093955

>  <intra_energy>  (11) 
0.0

>  <rmsd>  (11) 
0.274003

>  <sdf_rank>  (11) 
0

$$$$

     RDKit          3D

 23 23  0  0  0  0  0  0  0  0999 V2000
   28.5477  -10.1604   43.5895 C   0  0  0  0  0  0  0  0  0  0  0  0
   27.9850   -8.9560   44.1491 O   0  0  0  0  0  0  0  0  0  0  0  0
   26.7366   -8.5306   43.5431 C   0  0  1  0  0  0  0  0  0  0  0  0
   26.7627   -6.9811   43.6811 C   0  0  1  0  0  0  0  0  0  0  0  0
   25.7993   -6.2227   42.8131 C   0  0  2  0  0  0  0  0  0  0  0  0
   26.0868   -6.6635   41.3719 C   0  0  1  0  0  0  0  0  0  0  0  0
   25.8194   -8.1818   41.2914 C   0  0  0  0  0  0  0  0  0  0  0  0
   26.8405   -8.8469   42.1093 O   0  0  0  0  0  0  0  0  0  0  0  0
   25.1607   -5.9996   40.5401 O   0  0  0  0  0  0  0  0  0  0  0  0
   26.1793   -4.8263   42.8315 O   0  0  0  0  0  0  0  0  0  0  0  0
   26.4575   -6.5894   45.0802 O   0  0  0  0  0  0  0  0  0  0  0  0
   28.8611  -10.8312   44.4030 H   0  0  0  0  0  0  0  0  0  0  0  0
   27.7919  -10.6645   42.9693 H   0  0  0  0  0  0  0  0  0  0  0  0
   29.4193   -9.9041   42.9693 H   0  0  0  0  0  0  0  0  0  0  0  0
   25.8411   -8.9917   43.9853 H   0  0  0  0  0  0  0  0  0  0  0  0
   27.7790   -6.7136   43.3565 H   0  0  0  0  0  0  0  0  0  0  0  0
   24.7632   -6.3867   43.1442 H   0  0  0  0  0  0  0  0  0  0  0  0
   27.1194   -6.4345   41.0698 H   0  0  0  0  0  0  0  0  0  0  0  0
   24.8167   -8.4090   41.6825 H   0  0  0  0  0  0  0  0  0  0  0  0
   25.8654   -8.5314   40.2495 H   0  0  0  0  0  0  0  0  0  0  0  0
   24.4968   -5.5237   41.0995 H   0  0  0  0  0  0  0  0  0  0  0  0
   26.2629   -4.5193   43.7690 H   0  0  0  0  0  0  0  0  0  0  0  0
   26.9303   -7.1962   45.7033 H   0  0  0  0  0  0  0  0  0  0  0  0
  1  2  1  0
  3  2  1  0
  3  4  1  0
  3  8  1  0
  4  5  1  0
  4 11  1  0
  5  6  1  0
  5 10  1  0
  6  7  1  0
  6  9  1  0
  7  8  1  0
  1 12  1  0
  1 13  1  0
  1 14  1  0
  3 15  1  1
  4 16  1  6
  5 17  1  1
  6 18  1  6
  7 19  1  0
  7 20  1  0
  9 21  1  0
 10 22  1  0
 11 23  1  0
M  END
>  <filename_input>  (12) 
7ZDY_6MJ_docked.sdf

>  <pdb_id>  (12) 
7ZDY_6MJ

>  <pose_rank>  (12) 
11

>  <num_atoms_heavy>  (12) 
11

>  <num_torsions>  (12) 
1

>  <pose>  (12) 
[26.73658895335322, -8.530581578272686, 43.54308767890311, 3.3913737448759385, -1.2042081891285785, 5.030843123938293, 0.45781988855282163]

>  <energy>  (12) 
-645.290629158787

>  <inter_energy>  (12) 
-629.6957327805883

>  <intra_energy>  (12) 
0.0

>  <rmsd>  (12) 
0.238148

>  <sdf_rank>  (12) 
0

$$$$

     RDKit          3D

 23 23  0  0  0  0  0  0  0  0999 V2000
   17.5597  -14.2040   50.8743 C   0  0  0  0  0  0  0  0  0  0  0  0
   18.2023  -13.3714   49.8873 O   0  0  0  0  0  0  0  0  0  0  0  0
   17.3020  -12.7726   48.9190 C   0  0  1  0  0  0  0  0  0  0  0  0
   17.5644  -11.2454   49.0585 C   0  0  1  0  0  0  0  0  0  0  0  0
   17.0717  -10.3832   47.9314 C   0  0  2  0  0  0  0  0  0  0  0  0
   17.7066  -10.9482   46.6540 C   0  0  1  0  0  0  0  0  0  0  0  0
   17.2068  -12.3999   46.4931 C   0  0  0  0  0  0  0  0  0  0  0  0
   17.7859  -13.1832   47.5908 O   0  0  0  0  0  0  0  0  0  0  0  0
   17.2202  -10.1832   45.5730 O   0  0  0  0  0  0  0  0  0  0  0  0
   17.6737   -9.0743   48.0688 O   0  0  0  0  0  0  0  0  0  0  0  0
   16.9171  -10.7281   50.2903 O   0  0  0  0  0  0  0  0  0  0  0  0
   17.8299  -13.8539   51.8815 H   0  0  0  0  0  0  0  0  0  0  0  0
   16.4685  -14.1478   50.7471 H   0  0  0  0  0  0  0  0  0  0  0  0
   17.8905  -15.2453   50.7471 H   0  0  0  0  0  0  0  0  0  0  0  0
   16.2456  -13.0468   49.0565 H   0  0  0  0  0  0  0  0  0  0  0  0
   18.6621  -11.1757   49.0706 H   0  0  0  0  0  0  0  0  0  0  0  0
   15.9723  -10.3474   47.9192 H   0  0  0  0  0  0  0  0  0  0  0  0
   18.8055  -10.9178   46.6926 H   0  0  0  0  0  0  0  0  0  0  0  0
   16.1085  -12.4285   46.5484 H   0  0  0  0  0  0  0  0  0  0  0  0
   17.5092  -12.8109   45.5186 H   0  0  0  0  0  0  0  0  0  0  0  0
   16.7227   -9.4008   45.9199 H   0  0  0  0  0  0  0  0  0  0  0  0
   17.7740   -8.8564   49.0293 H   0  0  0  0  0  0  0  0  0  0  0  0
   17.3782  -11.0966   51.0851 H   0  0  0  0  0  0  0  0  0  0  0  0
  1  2  1  0
  3  2  1  0
  3  4  1  0
  3  8  1  0
  4  5  1  0
  4 11  1  0
  5  6  1  0
  5 10  1  0
  6  7  1  0
  6  9  1  0
  7  8  1  0
  1 12  1  0
  1 13  1  0
  1 14  1  0
  3 15  1  1
  4 16  1  1
  5 17  1  6
  6 18  1  1
  7 19  1  0
  7 20  1  0
  9 21  1  0
 10 22  1  0
 11 23  1  0
M  END
>  <filename_input>  (13) 
7ZDY_6MJ_docked.sdf

>  <pdb_id>  (13) 
7ZDY_6MJ

>  <pose_rank>  (13) 
12

>  <num_atoms_heavy>  (13) 
11

>  <num_torsions>  (13) 
1

>  <pose>  (13) 
[17.30199105560598, -12.772608775466061, 48.91897297317935, 0.9781871484885899, 4.302179112398862, 3.882934315830538, -1.0714886953597231]

>  <energy>  (13) 
-137.8985085700889

>  <inter_energy>  (13) 
-96.67109627337588

>  <intra_energy>  (13) 
0.008891700837593398

>  <rmsd>  (13) 
11.4798

>  <sdf_rank>  (13) 
0

$$$$

     RDKit          3D

 23 23  0  0  0  0  0  0  0  0999 V2000
   20.9096   -2.8343   52.7197 C   0  0  0  0  0  0  0  0  0  0  0  0
   19.4948   -2.9157   52.4513 O   0  0  0  0  0  0  0  0  0  0  0  0
   19.0284   -2.0489   51.3845 C   0  0  1  0  0  0  0  0  0  0  0  0
   17.9494   -1.1609   52.0687 C   0  0  1  0  0  0  0  0  0  0  0  0
   17.5558    0.0880   51.3327 C   0  0  2  0  0  0  0  0  0  0  0  0
   18.8550    0.8677   51.0916 C   0  0  1  0  0  0  0  0  0  0  0  0
   19.7698   -0.0180   50.2188 C   0  0  0  0  0  0  0  0  0  0  0  0
   20.1597   -1.1752   51.0330 O   0  0  0  0  0  0  0  0  0  0  0  0
   18.5173    2.0245   50.3581 O   0  0  0  0  0  0  0  0  0  0  0  0
   16.8088    0.9305   52.2421 O   0  0  0  0  0  0  0  0  0  0  0  0
   16.7000   -1.9383   52.2648 O   0  0  0  0  0  0  0  0  0  0  0  0
   21.0766   -2.8247   53.8069 H   0  0  0  0  0  0  0  0  0  0  0  0
   21.4172   -3.7048   52.2785 H   0  0  0  0  0  0  0  0  0  0  0  0
   21.3141   -1.9114   52.2785 H   0  0  0  0  0  0  0  0  0  0  0  0
   18.6538   -2.5848   50.5000 H   0  0  0  0  0  0  0  0  0  0  0  0
   18.4322   -0.8515   53.0074 H   0  0  0  0  0  0  0  0  0  0  0  0
   16.9931   -0.1577   50.4200 H   0  0  0  0  0  0  0  0  0  0  0  0
   19.3562    1.1336   52.0340 H   0  0  0  0  0  0  0  0  0  0  0  0
   19.2264   -0.3535   49.3232 H   0  0  0  0  0  0  0  0  0  0  0  0
   20.6564    0.5431   49.8885 H   0  0  0  0  0  0  0  0  0  0  0  0
   18.3022    2.7609   50.9839 H   0  0  0  0  0  0  0  0  0  0  0  0
   17.0276    0.6838   53.1755 H   0  0  0  0  0  0  0  0  0  0  0  0
   16.5269   -2.0460   53.2336 H   0  0  0  0  0  0  0  0  0  0  0  0
  1  2  1  0
  3  2  1  0
  3  4  1  0
  3  8  1  0
  4  5  1  0
  4 11  1  0
  5  6  1  0
  5 10  1  0
  6  7  1  0
  6  9  1  0
  7  8  1  0
  1 12  1  0
  1 13  1  0
  1 14  1  0
  3 15  1  6
  4 16  1  1
  5 17  1  6
  6 18  1  1
  7 19  1  0
  7 20  1  0
  9 21  1  0
 10 22  1  0
 11 23  1  0
M  END
>  <filename_input>  (14) 
7ZDY_6MJ_docked.sdf

>  <pdb_id>  (14) 
7ZDY_6MJ

>  <pose_rank>  (14) 
13

>  <num_atoms_heavy>  (14) 
11

>  <num_torsions>  (14) 
1

>  <pose>  (14) 
[19.028418816544985, -2.048894870653244, 51.384501932227195, -3.008930910389307, 3.7558517619341187, -1.0943314608684684, 0.9382237281704328]

>  <energy>  (14) 
-114.15968064601792

>  <inter_energy>  (14) 
-107.69879951629011

>  <intra_energy>  (14) 
0.0

>  <rmsd>  (14) 
13.5154

>  <sdf_rank>  (14) 
0

$$$$

     RDKit          3D

 23 23  0  0  0  0  0  0  0  0999 V2000
   35.1916   -0.7775   38.3858 C   0  0  0  0  0  0  0  0  0  0  0  0
   35.1867    0.6122   37.9999 O   0  0  0  0  0  0  0  0  0  0  0  0
   34.3632    0.9186   36.8446 C   0  0  1  0  0  0  0  0  0  0  0  0
   34.8717   -0.0646   35.7512 C   0  0  1  0  0  0  0  0  0  0  0  0
   33.9692   -0.2618   34.5667 C   0  0  2  0  0  0  0  0  0  0  0  0
   32.6135   -0.7034   35.1330 C   0  0  1  0  0  0  0  0  0  0  0  0
   32.0951    0.4385   36.0333 C   0  0  0  0  0  0  0  0  0  0  0  0
   32.9905    0.5178   37.1935 O   0  0  0  0  0  0  0  0  0  0  0  0
   31.7327   -0.8492   34.0406 O   0  0  0  0  0  0  0  0  0  0  0  0
   34.4337   -1.4206   33.8343 O   0  0  0  0  0  0  0  0  0  0  0  0
   36.1715    0.4049   35.2091 O   0  0  0  0  0  0  0  0  0  0  0  0
   35.1918   -0.8533   39.4832 H   0  0  0  0  0  0  0  0  0  0  0  0
   34.2952   -1.2727   37.9843 H   0  0  0  0  0  0  0  0  0  0  0  0
   36.0914   -1.2665   37.9843 H   0  0  0  0  0  0  0  0  0  0  0  0
   34.3994    1.9728   36.5324 H   0  0  0  0  0  0  0  0  0  0  0  0
   34.9329   -1.0261   36.2821 H   0  0  0  0  0  0  0  0  0  0  0  0
   33.9332    0.6469   33.9479 H   0  0  0  0  0  0  0  0  0  0  0  0
   32.6910   -1.6417   35.7018 H   0  0  0  0  0  0  0  0  0  0  0  0
   32.1091    1.3896   35.4809 H   0  0  0  0  0  0  0  0  0  0  0  0
   31.0601    0.2451   36.3516 H   0  0  0  0  0  0  0  0  0  0  0  0
   30.8136   -1.0013   34.3757 H   0  0  0  0  0  0  0  0  0  0  0  0
   34.7154   -2.1232   34.4723 H   0  0  0  0  0  0  0  0  0  0  0  0
   36.7810    0.6251   35.9575 H   0  0  0  0  0  0  0  0  0  0  0  0
  1  2  1  0
  3  2  1  0
  3  4  1  0
  3  8  1  0
  4  5  1  0
  4 11  1  0
  5  6  1  0
  5 10  1  0
  6  7  1  0
  6  9  1  0
  7  8  1  0
  1 12  1  0
  1 13  1  0
  1 14  1  0
  3 15  1  6
  4 16  1  1
  5 17  1  6
  6 18  1  1
  7 19  1  0
  7 20  1  0
  9 21  1  0
 10 22  1  0
 11 23  1  0
M  END
>  <filename_input>  (15) 
7ZDY_6MJ_docked.sdf

>  <pdb_id>  (15) 
7ZDY_6MJ

>  <pose_rank>  (15) 
14

>  <num_atoms_heavy>  (15) 
11

>  <num_torsions>  (15) 
1

>  <pose>  (15) 
[34.36318468252117, 0.9186374004702537, 36.84456880265099, -1.8556551193006139, 0.3561810702704252, -1.5432922043029014, 2.129004662916436]

>  <energy>  (15) 
-128.56909051722246

>  <inter_energy>  (15) 
-105.700110457318

>  <intra_energy>  (15) 
0.15355007188885683

>  <rmsd>  (15) 
12.7921

>  <sdf_rank>  (15) 
0

$$$$

     RDKit          3D

 23 23  0  0  0  0  0  0  0  0999 V2000
   35.3497   -0.2233   39.4685 C   0  0  0  0  0  0  0  0  0  0  0  0
   34.7278   -1.2602   38.6821 O   0  0  0  0  0  0  0  0  0  0  0  0
   34.9444   -1.1495   37.2511 C   0  0  1  0  0  0  0  0  0  0  0  0
   33.6416   -1.7299   36.6294 C   0  0  1  0  0  0  0  0  0  0  0  0
   33.3955   -1.4039   35.1838 C   0  0  2  0  0  0  0  0  0  0  0  0
   33.4346    0.1263   35.0797 C   0  0  1  0  0  0  0  0  0  0  0  0
   34.8444    0.5826   35.5125 C   0  0  0  0  0  0  0  0  0  0  0  0
   34.9754    0.2900   36.9447 O   0  0  0  0  0  0  0  0  0  0  0  0
   33.2533    0.4566   33.7201 O   0  0  0  0  0  0  0  0  0  0  0  0
   32.0217   -1.7381   34.8741 O   0  0  0  0  0  0  0  0  0  0  0  0
   33.6478   -3.2113   36.7255 O   0  0  0  0  0  0  0  0  0  0  0  0
   35.2169   -0.4446   40.5378 H   0  0  0  0  0  0  0  0  0  0  0  0
   36.4234   -0.1792   39.2337 H   0  0  0  0  0  0  0  0  0  0  0  0
   34.8829    0.7447   39.2337 H   0  0  0  0  0  0  0  0  0  0  0  0
   35.8570   -1.6490   36.8937 H   0  0  0  0  0  0  0  0  0  0  0  0
   32.8440   -1.2500   37.2155 H   0  0  0  0  0  0  0  0  0  0  0  0
   34.1169   -1.9256   34.5378 H   0  0  0  0  0  0  0  0  0  0  0  0
   32.6638    0.6011   35.7045 H   0  0  0  0  0  0  0  0  0  0  0  0
   35.6093    0.0331   34.9442 H   0  0  0  0  0  0  0  0  0  0  0  0
   34.9833    1.6566   35.3194 H   0  0  0  0  0  0  0  0  0  0  0  0
   32.7779    1.3222   33.6514 H   0  0  0  0  0  0  0  0  0  0  0  0
   31.5144   -1.8615   35.7153 H   0  0  0  0  0  0  0  0  0  0  0  0
   33.6490   -3.4802   37.6783 H   0  0  0  0  0  0  0  0  0  0  0  0
  1  2  1  0
  3  2  1  0
  3  4  1  0
  3  8  1  0
  4  5  1  0
  4 11  1  0
  5  6  1  0
  5 10  1  0
  6  7  1  0
  6  9  1  0
  7  8  1  0
  1 12  1  0
  1 13  1  0
  1 14  1  0
  3 15  1  6
  4 16  1  1
  5 17  1  6
  6 18  1  1
  7 19  1  0
  7 20  1  0
  9 21  1  0
 10 22  1  0
 11 23  1  0
M  END
>  <filename_input>  (16) 
7ZDY_6MJ_docked.sdf

>  <pdb_id>  (16) 
7ZDY_6MJ

>  <pose_rank>  (16) 
15

>  <num_atoms_heavy>  (16) 
11

>  <num_torsions>  (16) 
1

>  <pose>  (16) 
[34.94443918646113, -1.149458840043121, 37.25110203640601, -1.3967284774785416, 2.04018887307922, -3.1364950391612205, 0.4848274076751421]

>  <energy>  (16) 
-123.52709395951041

>  <inter_energy>  (16) 
-105.73121906306447

>  <intra_energy>  (16) 
0.0

>  <rmsd>  (16) 
12.1308

>  <sdf_rank>  (16) 
0

$$$$

     RDKit          3D

 23 23  0  0  0  0  0  0  0  0999 V2000
   20.7638  -13.7041   52.9553 C   0  0  0  0  0  0  0  0  0  0  0  0
   19.8807  -12.7932   52.2690 O   0  0  0  0  0  0  0  0  0  0  0  0
   18.5901  -13.3528   51.9109 C   0  0  1  0  0  0  0  0  0  0  0  0
   18.3104  -12.7720   50.4949 C   0  0  1  0  0  0  0  0  0  0  0  0
   17.2416  -13.4616   49.6957 C   0  0  2  0  0  0  0  0  0  0  0  0
   17.6482  -14.9394   49.6267 C   0  0  1  0  0  0  0  0  0  0  0  0
   17.6837  -15.4765   51.0735 C   0  0  0  0  0  0  0  0  0  0  0  0
   18.7923  -14.8030   51.7601 O   0  0  0  0  0  0  0  0  0  0  0  0
   16.6334  -15.6186   48.9202 O   0  0  0  0  0  0  0  0  0  0  0  0
   17.3419  -13.0094   48.3245 O   0  0  0  0  0  0  0  0  0  0  0  0
   17.8972  -11.3500   50.6005 O   0  0  0  0  0  0  0  0  0  0  0  0
   20.6448  -13.5813   54.0419 H   0  0  0  0  0  0  0  0  0  0  0  0
   20.5152  -14.7379   52.6737 H   0  0  0  0  0  0  0  0  0  0  0  0
   21.8048  -13.4876   52.6737 H   0  0  0  0  0  0  0  0  0  0  0  0
   17.7900  -13.1389   52.6348 H   0  0  0  0  0  0  0  0  0  0  0  0
   19.2636  -12.9196   49.9663 H   0  0  0  0  0  0  0  0  0  0  0  0
   16.2488  -13.2796   50.1328 H   0  0  0  0  0  0  0  0  0  0  0  0
   18.6242  -15.0753   49.1379 H   0  0  0  0  0  0  0  0  0  0  0  0
   16.7342  -15.2528   51.5819 H   0  0  0  0  0  0  0  0  0  0  0  0
   17.8250  -16.5674   51.0814 H   0  0  0  0  0  0  0  0  0  0  0  0
   16.0075  -16.0374   49.5629 H   0  0  0  0  0  0  0  0  0  0  0  0
   17.5563  -12.0430   48.3105 H   0  0  0  0  0  0  0  0  0  0  0  0
   17.8238  -11.0977   51.5550 H   0  0  0  0  0  0  0  0  0  0  0  0
  1  2  1  0
  3  2  1  0
  3  4  1  0
  3  8  1  0
  4  5  1  0
  4 11  1  0
  5  6  1  0
  5 10  1  0
  6  7  1  0
  6  9  1  0
  7  8  1  0
  1 12  1  0
  1 13  1  0
  1 14  1  0
  3 15  1  1
  4 16  1  6
  5 17  1  1
  6 18  1  6
  7 19  1  0
  7 20  1  0
  9 21  1  0
 10 22  1  0
 11 23  1  0
M  END
>  <filename_input>  (17) 
7ZDY_6MJ_docked.sdf

>  <pdb_id>  (17) 
7ZDY_6MJ

>  <pose_rank>  (17) 
16

>  <num_atoms_heavy>  (17) 
11

>  <num_torsions>  (17) 
1

>  <pose>  (17) 
[18.59014593159672, -13.35282173661938, 51.91093066753125, 4.932998376591317, -0.23230316007540813, -0.4062922769853195, 0.6168061911756436]

>  <energy>  (17) 
-81.26178456162481

>  <inter_energy>  (17) 
-78.0973731527375

>  <intra_energy>  (17) 
0.0

>  <rmsd>  (17) 
13.2931

>  <sdf_rank>  (17) 
0

$$$$

     RDKit          3D

 23 23  0  0  0  0  0  0  0  0999 V2000
   16.7309  -11.7555   46.8311 C   0  0  0  0  0  0  0  0  0  0  0  0
   17.2097  -11.4942   48.1664 O   0  0  0  0  0  0  0  0  0  0  0  0
   17.8759  -12.6157   48.8028 C   0  0  1  0  0  0  0  0  0  0  0  0
   17.4699  -12.4917   50.2997 C   0  0  1  0  0  0  0  0  0  0  0  0
   17.6820  -13.7140   51.1467 C   0  0  2  0  0  0  0  0  0  0  0  0
   16.9230  -14.8514   50.4508 C   0  0  1  0  0  0  0  0  0  0  0  0
   17.5503  -15.0374   49.0526 C   0  0  0  0  0  0  0  0  0  0  0  0
   17.2400  -13.8331   48.2733 O   0  0  0  0  0  0  0  0  0  0  0  0
   17.1468  -16.0236   51.2032 O   0  0  0  0  0  0  0  0  0  0  0  0
   16.9666  -13.5295   52.3913 O   0  0  0  0  0  0  0  0  0  0  0  0
   18.2393  -11.3996   50.9470 O   0  0  0  0  0  0  0  0  0  0  0  0
   15.7665  -12.2819   46.8839 H   0  0  0  0  0  0  0  0  0  0  0  0
   16.6003  -10.8036   46.2956 H   0  0  0  0  0  0  0  0  0  0  0  0
   17.4609  -12.3803   46.2956 H   0  0  0  0  0  0  0  0  0  0  0  0
   18.9647  -12.6398   48.6480 H   0  0  0  0  0  0  0  0  0  0  0  0
   16.3866  -12.3061   50.2551 H   0  0  0  0  0  0  0  0  0  0  0  0
   18.7552  -13.9038   51.2962 H   0  0  0  0  0  0  0  0  0  0  0  0
   15.8470  -14.6380   50.3685 H   0  0  0  0  0  0  0  0  0  0  0  0
   18.6400  -15.1582   49.1417 H   0  0  0  0  0  0  0  0  0  0  0  0
   17.1476  -15.9350   48.5606 H   0  0  0  0  0  0  0  0  0  0  0  0
   17.1058  -15.8090   52.1687 H   0  0  0  0  0  0  0  0  0  0  0  0
   17.5807  -13.6879   53.1515 H   0  0  0  0  0  0  0  0  0  0  0  0
   18.1760  -11.4895   51.9309 H   0  0  0  0  0  0  0  0  0  0  0  0
  1  2  1  0
  3  2  1  0
  3  4  1  0
  3  8  1  0
  4  5  1  0
  4 11  1  0
  5  6  1  0
  5 10  1  0
  6  7  1  0
  6  9  1  0
  7  8  1  0
  1 12  1  0
  1 13  1  0
  1 14  1  0
  3 15  1  1
  4 16  1  6
  5 17  1  1
  6 18  1  6
  7 19  1  0
  7 20  1  0
  9 21  1  0
 10 22  1  0
 11 23  1  0
M  END
>  <filename_input>  (18) 
7ZDY_6MJ_docked.sdf

>  <pdb_id>  (18) 
7ZDY_6MJ

>  <pose_rank>  (18) 
17

>  <num_atoms_heavy>  (18) 
11

>  <num_torsions>  (18) 
1

>  <pose>  (18) 
[17.875945352622743, -12.615744451141945, 48.80283965425933, -0.11284346503767723, -2.486819438685913, -2.779004238214706, 0.5432612436566899]

>  <energy>  (18) 
-73.46382007422795

>  <inter_energy>  (18) 
-72.4302522063329

>  <intra_energy>  (18) 
0.0

>  <rmsd>  (18) 
13.4427

>  <sdf_rank>  (18) 
0

$$$$

     RDKit          3D

 23 23  0  0  0  0  0  0  0  0999 V2000
   32.0034    2.4990   37.5662 C   0  0  0  0  0  0  0  0  0  0  0  0
   32.3697    2.9117   36.2336 O   0  0  0  0  0  0  0  0  0  0  0  0
   31.9734    1.9922   35.1827 C   0  0  1  0  0  0  0  0  0  0  0  0
   33.2847    1.2281   34.8400 C   0  0  1  0  0  0  0  0  0  0  0  0
   33.1237   -0.0496   34.0667 C   0  0  2  0  0  0  0  0  0  0  0  0
   32.1614   -0.9227   34.8825 C   0  0  1  0  0  0  0  0  0  0  0  0
   30.8191   -0.1662   34.9772 C   0  0  0  0  0  0  0  0  0  0  0  0
   31.0497    1.0267   35.8005 O   0  0  0  0  0  0  0  0  0  0  0  0
   31.9561   -2.1120   34.1518 O   0  0  0  0  0  0  0  0  0  0  0  0
   34.3777   -0.7704   34.1213 O   0  0  0  0  0  0  0  0  0  0  0  0
   34.1809    2.0924   34.0315 O   0  0  0  0  0  0  0  0  0  0  0  0
   32.5463    3.1107   38.3017 H   0  0  0  0  0  0  0  0  0  0  0  0
   30.9205    2.6318   37.7066 H   0  0  0  0  0  0  0  0  0  0  0  0
   32.2641    1.4395   37.7066 H   0  0  0  0  0  0  0  0  0  0  0  0
   31.5119    2.4774   34.3101 H   0  0  0  0  0  0  0  0  0  0  0  0
   33.6923    0.9661   35.8275 H   0  0  0  0  0  0  0  0  0  0  0  0
   32.7949    0.1559   33.0373 H   0  0  0  0  0  0  0  0  0  0  0  0
   32.5551   -1.1423   35.8859 H   0  0  0  0  0  0  0  0  0  0  0  0
   30.4812    0.1288   33.9728 H   0  0  0  0  0  0  0  0  0  0  0  0
   30.0423   -0.8042   35.4237 H   0  0  0  0  0  0  0  0  0  0  0  0
   31.8258   -2.8665   34.7793 H   0  0  0  0  0  0  0  0  0  0  0  0
   34.6331   -0.9172   35.0664 H   0  0  0  0  0  0  0  0  0  0  0  0
   34.7461    2.6374   34.6345 H   0  0  0  0  0  0  0  0  0  0  0  0
  1  2  1  0
  3  2  1  0
  3  4  1  0
  3  8  1  0
  4  5  1  0
  4 11  1  0
  5  6  1  0
  5 10  1  0
  6  7  1  0
  6  9  1  0
  7  8  1  0
  1 12  1  0
  1 13  1  0
  1 14  1  0
  3 15  1  6
  4 16  1  1
  5 17  1  6
  6 18  1  1
  7 19  1  0
  7 20  1  0
  9 21  1  0
 10 22  1  0
 11 23  1  0
M  END
>  <filename_input>  (19) 
7ZDY_6MJ_docked.sdf

>  <pdb_id>  (19) 
7ZDY_6MJ

>  <pose_rank>  (19) 
18

>  <num_atoms_heavy>  (19) 
11

>  <num_torsions>  (19) 
1

>  <pose>  (19) 
[31.973396288375874, 1.9921517161995848, 35.18273463773813, -1.9563955378839155, -0.8740533249292148, -1.3325670232092766, 1.2930830875960313]

>  <energy>  (19) 
-61.36625600636239

>  <inter_energy>  (19) 
-68.09838729534326

>  <intra_energy>  (19) 
0.0

>  <rmsd>  (19) 
13.1815

>  <sdf_rank>  (19) 
0

$$$$

     RDKit          3D

 23 23  0  0  0  0  0  0  0  0999 V2000
   29.3187  -12.3581   39.8835 C   0  0  0  0  0  0  0  0  0  0  0  0
   28.5907  -11.6663   40.9188 O   0  0  0  0  0  0  0  0  0  0  0  0
   29.4197  -11.0797   41.9558 C   0  0  1  0  0  0  0  0  0  0  0  0
   29.5440  -12.2090   43.0189 C   0  0  1  0  0  0  0  0  0  0  0  0
   30.6476  -12.0519   44.0258 C   0  0  2  0  0  0  0  0  0  0  0  0
   31.9424  -11.8959   43.2177 C   0  0  1  0  0  0  0  0  0  0  0  0
   31.7992  -10.6219   42.3577 C   0  0  0  0  0  0  0  0  0  0  0  0
   30.7527  -10.8845   41.3627 O   0  0  0  0  0  0  0  0  0  0  0  0
   32.9897  -11.6984   44.1421 O   0  0  0  0  0  0  0  0  0  0  0  0
   30.8158  -13.3157   44.7108 O   0  0  0  0  0  0  0  0  0  0  0  0
   28.2843  -12.3163   43.7971 O   0  0  0  0  0  0  0  0  0  0  0  0
   30.0435  -13.0466   40.3425 H   0  0  0  0  0  0  0  0  0  0  0  0
   28.6154  -12.9287   39.2593 H   0  0  0  0  0  0  0  0  0  0  0  0
   29.8527  -11.6264   39.2593 H   0  0  0  0  0  0  0  0  0  0  0  0
   29.0283  -10.1372   42.3661 H   0  0  0  0  0  0  0  0  0  0  0  0
   29.7719  -13.1012   42.4172 H   0  0  0  0  0  0  0  0  0  0  0  0
   30.4335  -11.2200   44.7130 H   0  0  0  0  0  0  0  0  0  0  0  0
   32.1397  -12.7726   42.5833 H   0  0  0  0  0  0  0  0  0  0  0  0
   31.5114   -9.7700   42.9912 H   0  0  0  0  0  0  0  0  0  0  0  0
   32.7515  -10.3739   41.8662 H   0  0  0  0  0  0  0  0  0  0  0  0
   32.6337  -11.7655   45.0634 H   0  0  0  0  0  0  0  0  0  0  0  0
   30.7959  -13.1660   45.6892 H   0  0  0  0  0  0  0  0  0  0  0  0
   28.4918  -12.2986   44.7650 H   0  0  0  0  0  0  0  0  0  0  0  0
  1  2  1  0
  3  2  1  0
  3  4  1  0
  3  8  1  0
  4  5  1  0
  4 11  1  0
  5  6  1  0
  5 10  1  0
  6  7  1  0
  6  9  1  0
  7  8  1  0
  1 12  1  0
  1 13  1  0
  1 14  1  0
  3 15  1  1
  4 16  1  6
  5 17  1  1
  6 18  1  6
  7 19  1  0
  7 20  1  0
  9 21  1  0
 10 22  1  0
 11 23  1  0
M  END
>  <filename_input>  (20) 
7ZDY_6MJ_docked.sdf

>  <pdb_id>  (20) 
7ZDY_6MJ

>  <pose_rank>  (20) 
19

>  <num_atoms_heavy>  (20) 
11

>  <num_torsions>  (20) 
1

>  <pose>  (20) 
[29.41974671788974, -11.079727398058566, 41.95579497003939, 9.356470540138867, -2.8570369915888265, -11.523691012150735, 1.4929624345102672]

>  <energy>  (20) 
-169.08533896790217

>  <inter_energy>  (20) 
-165.5962028437528

>  <intra_energy>  (20) 
0.0

>  <rmsd>  (20) 
6.93885

>  <sdf_rank>  (20) 
0

$$$$

     RDKit          3D

 23 23  0  0  0  0  0  0  0  0999 V2000
   17.7325    2.3543   38.9771 C   0  0  0  0  0  0  0  0  0  0  0  0
   18.3384    2.8423   37.7625 O   0  0  0  0  0  0  0  0  0  0  0  0
   19.0214    1.8314   36.9761 C   0  0  1  0  0  0  0  0  0  0  0  0
   18.0325    1.5310   35.8130 C   0  0  1  0  0  0  0  0  0  0  0  0
   18.6069    0.8148   34.6240 C   0  0  2  0  0  0  0  0  0  0  0  0
   19.7932    1.6632   34.1480 C   0  0  1  0  0  0  0  0  0  0  0  0
   20.8160    1.7160   35.3031 C   0  0  0  0  0  0  0  0  0  0  0  0
   20.2030    2.4864   36.3916 O   0  0  0  0  0  0  0  0  0  0  0  0
   20.3803    0.9853   33.0589 O   0  0  0  0  0  0  0  0  0  0  0  0
   17.6546    0.9089   33.5381 O   0  0  0  0  0  0  0  0  0  0  0  0
   16.9114    0.6898   36.3025 O   0  0  0  0  0  0  0  0  0  0  0  0
   18.2586    2.7781   39.8452 H   0  0  0  0  0  0  0  0  0  0  0  0
   16.6750    2.6559   39.0062 H   0  0  0  0  0  0  0  0  0  0  0  0
   17.8018    1.2569   39.0062 H   0  0  0  0  0  0  0  0  0  0  0  0
   19.3081    0.9352   37.5458 H   0  0  0  0  0  0  0  0  0  0  0  0
   17.7233    2.5316   35.4768 H   0  0  0  0  0  0  0  0  0  0  0  0
   18.8603   -0.2247   34.8795 H   0  0  0  0  0  0  0  0  0  0  0  0
   19.4832    2.6777   33.8571 H   0  0  0  0  0  0  0  0  0  0  0  0
   21.0488    0.6975   35.6471 H   0  0  0  0  0  0  0  0  0  0  0  0
   21.7539    2.1861   34.9726 H   0  0  0  0  0  0  0  0  0  0  0  0
   20.9894    0.2821   33.3974 H   0  0  0  0  0  0  0  0  0  0  0  0
   16.7406    0.9993   33.9075 H   0  0  0  0  0  0  0  0  0  0  0  0
   16.9084    0.6875   37.2925 H   0  0  0  0  0  0  0  0  0  0  0  0
  1  2  1  0
  3  2  1  0
  3  4  1  0
  3  8  1  0
  4  5  1  0
  4 11  1  0
  5  6  1  0
  5 10  1  0
  6  7  1  0
  6  9  1  0
  7  8  1  0
  1 12  1  0
  1 13  1  0
  1 14  1  0
  3 15  1  1
  4 16  1  6
  5 17  1  1
  6 18  1  6
  7 19  1  0
  7 20  1  0
  9 21  1  0
 10 22  1  0
 11 23  1  0
M  END
>  <filename_input>  (21) 
7ZDY_6MJ_docked.sdf

>  <pdb_id>  (21) 
7ZDY_6MJ

>  <pose_rank>  (21) 
20

>  <num_atoms_heavy>  (21) 
11

>  <num_torsions>  (21) 
1

>  <pose>  (21) 
[19.021362228447057, 1.8314210553659804, 36.97607242354809, 1.1517914844540107, 2.0990372759971065, -3.528953307293282, -1.422161912273148]

>  <energy>  (21) 
-56.26726910606484

>  <inter_energy>  (21) 
-58.67884261146609

>  <intra_energy>  (21) 
3.559999821879411

>  <rmsd>  (21) 
14.2031

>  <sdf_rank>  (21) 
0

$$$$

     RDKit          3D

 23 23  0  0  0  0  0  0  0  0999 V2000
   32.2574    0.8152   37.6570 C   0  0  0  0  0  0  0  0  0  0  0  0
   32.3349    1.3961   36.3391 O   0  0  0  0  0  0  0  0  0  0  0  0
   31.4085    0.8349   35.3728 C   0  0  1  0  0  0  0  0  0  0  0  0
   32.2865   -0.1381   34.5342 C   0  0  1  0  0  0  0  0  0  0  0  0
   31.5474   -1.1528   33.7093 C   0  0  2  0  0  0  0  0  0  0  0  0
   30.6389   -1.9137   34.6837 C   0  0  1  0  0  0  0  0  0  0  0  0
   29.6611   -0.8896   35.2988 C   0  0  0  0  0  0  0  0  0  0  0  0
   30.4529    0.0176   36.1379 O   0  0  0  0  0  0  0  0  0  0  0  0
   29.8972   -2.8425   33.9236 O   0  0  0  0  0  0  0  0  0  0  0  0
   32.4967   -2.1520   33.2672 O   0  0  0  0  0  0  0  0  0  0  0  0
   33.1340    0.6290   33.5870 O   0  0  0  0  0  0  0  0  0  0  0  0
   32.3629    1.6067   38.4134 H   0  0  0  0  0  0  0  0  0  0  0  0
   31.2848    0.3165   37.7813 H   0  0  0  0  0  0  0  0  0  0  0  0
   33.0654    0.0791   37.7813 H   0  0  0  0  0  0  0  0  0  0  0  0
   30.8856    1.5853   34.7617 H   0  0  0  0  0  0  0  0  0  0  0  0
   32.8579   -0.6872   35.2971 H   0  0  0  0  0  0  0  0  0  0  0  0
   31.0197   -0.6678   32.8748 H   0  0  0  0  0  0  0  0  0  0  0  0
   31.2145   -2.4224   35.4710 H   0  0  0  0  0  0  0  0  0  0  0  0
   29.1584   -0.3227   34.5013 H   0  0  0  0  0  0  0  0  0  0  0  0
   28.8881   -1.3972   35.8944 H   0  0  0  0  0  0  0  0  0  0  0  0
   29.4099   -3.4526   34.5322 H   0  0  0  0  0  0  0  0  0  0  0  0
   32.9094   -2.5864   34.0553 H   0  0  0  0  0  0  0  0  0  0  0  0
   33.7640    1.1992   34.0951 H   0  0  0  0  0  0  0  0  0  0  0  0
  1  2  1  0
  3  2  1  0
  3  4  1  0
  3  8  1  0
  4  5  1  0
  4 11  1  0
  5  6  1  0
  5 10  1  0
  6  7  1  0
  6  9  1  0
  7  8  1  0
  1 12  1  0
  1 13  1  0
  1 14  1  0
  3 15  1  6
  4 16  1  1
  5 17  1  6
  6 18  1  1
  7 19  1  0
  7 20  1  0
  9 21  1  0
 10 22  1  0
 11 23  1  0
M  END
>  <filename_input>  (22) 
7ZDY_6MJ_docked.sdf

>  <pdb_id>  (22) 
7ZDY_6MJ

>  <pose_rank>  (22) 
21

>  <num_atoms_heavy>  (22) 
11

>  <num_torsions>  (22) 
1

>  <pose>  (22) 
[31.40852028455126, 0.8349191153908199, 35.37275716791136, -2.1299402125758644, -0.34122282923031927, -1.1587467402325276, 1.300237681909774]

>  <energy>  (22) 
-100.0390569146987

>  <inter_energy>  (22) 
-98.44211471327498

>  <intra_energy>  (22) 
0.0

>  <rmsd>  (22) 
12.0678

>  <sdf_rank>  (22) 
0

$$$$

     RDKit          3D

 23 23  0  0  0  0  0  0  0  0999 V2000
   30.9729    1.0165   36.9545 C   0  0  0  0  0  0  0  0  0  0  0  0
   31.8243    1.7049   36.0155 O   0  0  0  0  0  0  0  0  0  0  0  0
   32.4099    0.8576   34.9927 C   0  0  1  0  0  0  0  0  0  0  0  0
   33.7211    0.3338   35.6464 C   0  0  1  0  0  0  0  0  0  0  0  0
   34.3544   -0.8619   34.9938 C   0  0  2  0  0  0  0  0  0  0  0  0
   33.2724   -1.9490   34.9552 C   0  0  1  0  0  0  0  0  0  0  0  0
   32.1067   -1.4099   34.0987 C   0  0  0  0  0  0  0  0  0  0  0  0
   31.5052   -0.2930   34.8368 O   0  0  0  0  0  0  0  0  0  0  0  0
   33.8293   -3.0686   34.3021 O   0  0  0  0  0  0  0  0  0  0  0  0
   35.3500   -1.3948   35.8992 O   0  0  0  0  0  0  0  0  0  0  0  0
   34.7522    1.4018   35.6456 O   0  0  0  0  0  0  0  0  0  0  0  0
   31.2815    1.2660   37.9804 H   0  0  0  0  0  0  0  0  0  0  0  0
   29.9293    1.3277   36.7996 H   0  0  0  0  0  0  0  0  0  0  0  0
   31.0587   -0.0692   36.7996 H   0  0  0  0  0  0  0  0  0  0  0  0
   32.5756    1.3629   34.0298 H   0  0  0  0  0  0  0  0  0  0  0  0
   33.3992    0.0276   36.6527 H   0  0  0  0  0  0  0  0  0  0  0  0
   34.7711   -0.5953   34.0113 H   0  0  0  0  0  0  0  0  0  0  0  0
   32.9223   -2.2171   35.9629 H   0  0  0  0  0  0  0  0  0  0  0  0
   32.4840   -1.0594   33.1267 H   0  0  0  0  0  0  0  0  0  0  0  0
   31.3634   -2.1987   33.9107 H   0  0  0  0  0  0  0  0  0  0  0  0
   34.1520   -3.7174   34.9767 H   0  0  0  0  0  0  0  0  0  0  0  0
   35.0622   -1.2408   36.8338 H   0  0  0  0  0  0  0  0  0  0  0  0
   34.9818    1.6395   36.5788 H   0  0  0  0  0  0  0  0  0  0  0  0
  1  2  1  0
  3  2  1  0
  3  4  1  0
  3  8  1  0
  4  5  1  0
  4 11  1  0
  5  6  1  0
  5 10  1  0
  6  7  1  0
  6  9  1  0
  7  8  1  0
  1 12  1  0
  1 13  1  0
  1 14  1  0
  3 15  1  6
  4 16  1  1
  5 17  1  6
  6 18  1  1
  7 19  1  0
  7 20  1  0
  9 21  1  0
 10 22  1  0
 11 23  1  0
M  END
>  <filename_input>  (23) 
7ZDY_6MJ_docked.sdf

>  <pdb_id>  (23) 
7ZDY_6MJ

>  <pose_rank>  (23) 
22

>  <num_atoms_heavy>  (23) 
11

>  <num_torsions>  (23) 
1

>  <pose>  (23) 
[32.409911103598674, 0.857603395316389, 34.99273172294224, -1.283541807818931, -1.2950414407123858, -1.9775672802890811, 1.5369361582934242]

>  <energy>  (23) 
-98.67790485775843

>  <inter_energy>  (23) 
-84.66482028010634

>  <intra_energy>  (23) 
0.0

>  <rmsd>  (23) 
12.733

>  <sdf_rank>  (23) 
0

$$$$

     RDKit          3D

 23 23  0  0  0  0  0  0  0  0999 V2000
   31.7351    2.7210   36.9272 C   0  0  0  0  0  0  0  0  0  0  0  0
   33.1448    2.5365   36.6844 O   0  0  0  0  0  0  0  0  0  0  0  0
   33.4611    1.7956   35.4769 C   0  0  1  0  0  0  0  0  0  0  0  0
   34.0302    0.4468   36.0038 C   0  0  1  0  0  0  0  0  0  0  0  0
   34.0897   -0.6795   35.0116 C   0  0  2  0  0  0  0  0  0  0  0  0
   32.6642   -0.8446   34.4688 C   0  0  1  0  0  0  0  0  0  0  0  0
   32.2786    0.4788   33.7738 C   0  0  0  0  0  0  0  0  0  0  0  0
   32.1772    1.5048   34.8184 O   0  0  0  0  0  0  0  0  0  0  0  0
   32.7037   -1.8671   33.4975 O   0  0  0  0  0  0  0  0  0  0  0  0
   34.3292   -1.9081   35.7382 O   0  0  0  0  0  0  0  0  0  0  0  0
   35.4168    0.6378   36.4985 O   0  0  0  0  0  0  0  0  0  0  0  0
   31.5498    2.7453   38.0112 H   0  0  0  0  0  0  0  0  0  0  0  0
   31.4068    3.6699   36.4777 H   0  0  0  0  0  0  0  0  0  0  0  0
   31.1736    1.8888   36.4777 H   0  0  0  0  0  0  0  0  0  0  0  0
   34.1457    2.3193   34.7935 H   0  0  0  0  0  0  0  0  0  0  0  0
   33.3147    0.1574   36.7877 H   0  0  0  0  0  0  0  0  0  0  0  0
   34.8524   -0.4831   34.2436 H   0  0  0  0  0  0  0  0  0  0  0  0
   31.9462   -1.0885   35.2656 H   0  0  0  0  0  0  0  0  0  0  0  0
   33.0515    0.7599   33.0434 H   0  0  0  0  0  0  0  0  0  0  0  0
   31.3247    0.3737   33.2363 H   0  0  0  0  0  0  0  0  0  0  0  0
   32.7377   -2.7484   33.9473 H   0  0  0  0  0  0  0  0  0  0  0  0
   34.2941   -1.7282   36.7111 H   0  0  0  0  0  0  0  0  0  0  0  0
   35.4170    0.6378   37.4885 H   0  0  0  0  0  0  0  0  0  0  0  0
  1  2  1  0
  3  2  1  0
  3  4  1  0
  3  8  1  0
  4  5  1  0
  4 11  1  0
  5  6  1  0
  5 10  1  0
  6  7  1  0
  6  9  1  0
  7  8  1  0
  1 12  1  0
  1 13  1  0
  1 14  1  0
  3 15  1  6
  4 16  1  1
  5 17  1  6
  6 18  1  1
  7 19  1  0
  7 20  1  0
  9 21  1  0
 10 22  1  0
 11 23  1  0
M  END
>  <filename_input>  (24) 
7ZDY_6MJ_docked.sdf

>  <pdb_id>  (24) 
7ZDY_6MJ

>  <pose_rank>  (24) 
23

>  <num_atoms_heavy>  (24) 
11

>  <num_torsions>  (24) 
1

>  <pose>  (24) 
[33.461093256250244, 1.7955827196461533, 35.476949957615744, -1.4399857696160459, -0.618471613341867, -2.6763037141388506, 1.134253040344263]

>  <energy>  (24) 
-97.46848357070613

>  <inter_energy>  (24) 
-96.5857336553105

>  <intra_energy>  (24) 
0.0

>  <rmsd>  (24) 
13.2115

>  <sdf_rank>  (24) 
0

$$$$

     RDKit          3D

 23 23  0  0  0  0  0  0  0  0999 V2000
   31.5962   -2.7100   33.0224 C   0  0  0  0  0  0  0  0  0  0  0  0
   30.6494   -2.4414   34.0769 O   0  0  0  0  0  0  0  0  0  0  0  0
   30.1596   -1.0757   34.1197 C   0  0  1  0  0  0  0  0  0  0  0  0
   30.5230   -0.5926   35.5533 C   0  0  1  0  0  0  0  0  0  0  0  0
   30.4949    0.8923   35.7786 C   0  0  2  0  0  0  0  0  0  0  0  0
   31.4311    1.5006   34.7263 C   0  0  1  0  0  0  0  0  0  0  0  0
   30.8577    1.1455   33.3377 C   0  0  0  0  0  0  0  0  0  0  0  0
   30.9848   -0.3073   33.1735 O   0  0  0  0  0  0  0  0  0  0  0  0
   31.3847    2.9014   34.8867 O   0  0  0  0  0  0  0  0  0  0  0  0
   31.1574    1.1701   37.0351 O   0  0  0  0  0  0  0  0  0  0  0  0
   29.5842   -1.1802   36.5419 O   0  0  0  0  0  0  0  0  0  0  0  0
   32.5663   -2.9852   33.4620 H   0  0  0  0  0  0  0  0  0  0  0  0
   31.2270   -3.5389   32.4006 H   0  0  0  0  0  0  0  0  0  0  0  0
   31.7173   -1.8108   32.4006 H   0  0  0  0  0  0  0  0  0  0  0  0
   29.0899   -0.9733   33.8843 H   0  0  0  0  0  0  0  0  0  0  0  0
   31.5643   -0.9247   35.6776 H   0  0  0  0  0  0  0  0  0  0  0  0
   29.4630    1.2722   35.7480 H   0  0  0  0  0  0  0  0  0  0  0  0
   32.4613    1.1284   34.8278 H   0  0  0  0  0  0  0  0  0  0  0  0
   29.7994    1.4400   33.2807 H   0  0  0  0  0  0  0  0  0  0  0  0
   31.4020    1.6771   32.5433 H   0  0  0  0  0  0  0  0  0  0  0  0
   31.3773    3.1231   35.8515 H   0  0  0  0  0  0  0  0  0  0  0  0
   30.5612    0.9201   37.7848 H   0  0  0  0  0  0  0  0  0  0  0  0
   29.9023   -0.9811   37.4580 H   0  0  0  0  0  0  0  0  0  0  0  0
  1  2  1  0
  3  2  1  0
  3  4  1  0
  3  8  1  0
  4  5  1  0
  4 11  1  0
  5  6  1  0
  5 10  1  0
  6  7  1  0
  6  9  1  0
  7  8  1  0
  1 12  1  0
  1 13  1  0
  1 14  1  0
  3 15  1  6
  4 16  1  1
  5 17  1  1
  6 18  1  6
  7 19  1  0
  7 20  1  0
  9 21  1  0
 10 22  1  0
 11 23  1  0
M  END
>  <filename_input>  (25) 
7ZDY_6MJ_docked.sdf

>  <pdb_id>  (25) 
7ZDY_6MJ

>  <pose_rank>  (25) 
24

>  <num_atoms_heavy>  (25) 
11

>  <num_torsions>  (25) 
1

>  <pose>  (25) 
[30.15955995813893, -1.0757397380772709, 34.11971884814594, -4.021487327542625, 1.3523915988178012, 2.7101253836305976, 0.9221963735403494]

>  <energy>  (25) 
-54.15017108493563

>  <inter_energy>  (25) 
-56.879017251982354

>  <intra_energy>  (25) 
0.0

>  <rmsd>  (25) 
11.9457

>  <sdf_rank>  (25) 
0

$$$$

     RDKit          3D

 23 23  0  0  0  0  0  0  0  0999 V2000
   28.4950  -10.1510   44.0200 C   0  0  0  0  0  0  0  0  0  0  0  0
   28.1180   -8.7680   44.1800 O   0  0  0  0  0  0  0  0  0  0  0  0
   26.8500   -8.4100   43.5710 C   0  0  1  0  0  0  0  0  0  0  0  0
   26.7500   -6.8730   43.7910 C   0  0  1  0  0  0  0  0  0  0  0  0
   25.7440   -6.1470   42.9440 C   0  0  2  0  0  0  0  0  0  0  0  0
   26.0900   -6.4850   41.4880 C   0  0  1  0  0  0  0  0  0  0  0  0
   25.9460   -8.0130   41.3220 C   0  0  0  0  0  0  0  0  0  0  0  0
   27.0030   -8.6390   42.1250 O   0  0  0  0  0  0  0  0  0  0  0  0
   25.1280   -5.8520   40.6730 O   0  0  0  0  0  0  0  0  0  0  0  0
   26.0110   -4.7280   43.0440 O   0  0  0  0  0  0  0  0  0  0  0  0
   26.3910   -6.5830   45.2020 O   0  0  0  0  0  0  0  0  0  0  0  0
   28.6211  -10.6136   45.0100 H   0  0  0  0  0  0  0  0  0  0  0  0
   27.7092  -10.6833   43.4640 H   0  0  0  0  0  0  0  0  0  0  0  0
   29.4422  -10.2109   43.4640 H   0  0  0  0  0  0  0  0  0  0  0  0
   25.9869   -8.9635   43.9693 H   0  0  0  0  0  0  0  0  0  0  0  0
   27.7471   -6.5091   43.5024 H   0  0  0  0  0  0  0  0  0  0  0  0
   24.7189   -6.4098   43.2441 H   0  0  0  0  0  0  0  0  0  0  0  0
   27.1060   -6.1593   41.2202 H   0  0  0  0  0  0  0  0  0  0  0  0
   24.9582   -8.3393   41.6793 H   0  0  0  0  0  0  0  0  0  0  0  0
   26.0373   -8.3009   40.2643 H   0  0  0  0  0  0  0  0  0  0  0  0
   24.4525   -5.4075   41.2443 H   0  0  0  0  0  0  0  0  0  0  0  0
   26.0599   -4.4678   43.9980 H   0  0  0  0  0  0  0  0  0  0  0  0
   27.0013   -7.0760   45.8058 H   0  0  0  0  0  0  0  0  0  0  0  0
  1  2  1  0
  3  2  1  0
  3  4  1  0
  3  8  1  0
  4  5  1  0
  4 11  1  0
  5  6  1  0
  5 10  1  0
  6  7  1  0
  6  9  1  0
  7  8  1  0
  1 12  1  0
  1 13  1  0
  1 14  1  0
  3 15  1  1
  4 16  1  6
  5 17  1  1
  6 18  1  6
  7 19  1  0
  7 20  1  0
  9 21  1  0
 10 22  1  0
 11 23  1  0
M  END
>  <filename_input>  (26) 
7ZDY_6MJ_docked.sdf

>  <pdb_id>  (26) 
7ZDY_6MJ

>  <pose_rank>  (26) 
25

>  <num_atoms_heavy>  (26) 
11

>  <num_torsions>  (26) 
1

>  <pose>  (26) 
[26.85, -8.41, 43.571, 1e-06, 1e-06, 1e-06, 0.0]

>  <energy>  (26) 
-625.6887974648624

>  <inter_energy>  (26) 
-634.8030237548256

>  <intra_energy>  (26) 
0.0

>  <rmsd>  (26) 
0.0

>  <sdf_rank>  (26) 
0

$$$$
