
     RDKit          3D

 18 18  0  0  0  0  0  0  0  0999 V2000
   31.8558   57.5373   51.2514 N   0  0  0  0  0  0  0  0  0  0  0  0
   32.6616   57.3152   50.4765 C   0  0  0  0  0  0  0  0  0  0  0  0
   33.5216   57.9680   48.2630 C   0  0  0  0  0  0  0  0  0  0  0  0
   34.6263   58.3846   47.5597 C   0  0  0  0  0  0  0  0  0  0  0  0
   32.2647   58.4418   47.9229 C   0  0  0  0  0  0  0  0  0  0  0  0
   32.0925   59.3176   46.8800 C   0  0  0  0  0  0  0  0  0  0  0  0
   34.4617   59.2599   46.5280 C   0  0  0  0  0  0  0  0  0  0  0  0
   33.2095   59.7324   46.1620 C   0  0  0  0  0  0  0  0  0  0  0  0
   33.0690   60.6172   45.1140 O   0  0  0  0  0  0  0  0  0  0  0  0
   33.7193   56.9905   49.4139 C   0  0  2  0  0  0  0  0  0  0  0  0
   33.5733   55.6375   49.0327 O   0  0  0  0  0  0  0  0  0  0  0  0
   35.6284   58.0172   47.8254 H   0  0  0  0  0  0  0  0  0  0  0  0
   31.3886   58.1100   48.4994 H   0  0  0  0  0  0  0  0  0  0  0  0
   31.0895   59.6847   46.6168 H   0  0  0  0  0  0  0  0  0  0  0  0
   35.3461   59.6012   45.9700 H   0  0  0  0  0  0  0  0  0  0  0  0
   33.8652   60.9112   44.6043 H   0  0  0  0  0  0  0  0  0  0  0  0
   34.7483   57.1063   49.7851 H   0  0  0  0  0  0  0  0  0  0  0  0
   33.5122   55.0713   49.8425 H   0  0  0  0  0  0  0  0  0  0  0  0
  1  2  3  0
  2 10  1  0
  3  4  2  0
  3  5  1  0
  3 10  1  0
  4  7  1  0
  5  6  2  0
  6  8  1  0
  7  8  2  0
  8  9  1  0
 10 11  1  0
  4 12  1  0
  5 13  1  0
  6 14  1  0
  7 15  1  0
  9 16  1  0
 10 17  1  1
 11 18  1  0
M  END
>  <filename_input>  (1) 
7ZF0_DHR_docked.sdf

>  <pdb_id>  (1) 
7ZF0_DHR

>  <pose_rank>  (1) 
0

>  <num_atoms_heavy>  (1) 
11

>  <num_torsions>  (1) 
2

>  <pose>  (1) 
[33.52162217409603, 57.96797757943609, 48.26296961741566, -0.002062454068261851, -0.028359405110257356, -0.06466015901750913, 19.007382299505505, 0.08412256135732478]

>  <energy>  (1) 
-518.493637418861

>  <inter_energy>  (1) 
-513.3121829738333

>  <intra_energy>  (1) 
1.5414695437479389

>  <rmsd>  (1) 
0.259116

>  <sdf_rank>  (1) 
0

$$$$

     RDKit          3D

 18 18  0  0  0  0  0  0  0  0999 V2000
   33.7996   56.8347   50.3272 N   0  0  0  0  0  0  0  0  0  0  0  0
   33.1223   56.8640   49.4109 C   0  0  0  0  0  0  0  0  0  0  0  0
   32.7159   58.1111   47.3264 C   0  0  0  0  0  0  0  0  0  0  0  0
   31.7748   58.9510   46.7812 C   0  0  0  0  0  0  0  0  0  0  0  0
   34.0638   58.3469   47.1085 C   0  0  0  0  0  0  0  0  0  0  0  0
   34.4874   59.4191   46.3633 C   0  0  0  0  0  0  0  0  0  0  0  0
   32.1897   60.0128   46.0342 C   0  0  0  0  0  0  0  0  0  0  0  0
   33.5352   60.2746   45.8189 C   0  0  0  0  0  0  0  0  0  0  0  0
   33.9297   61.3558   45.0597 O   0  0  0  0  0  0  0  0  0  0  0  0
   32.2391   56.9280   48.1583 C   0  0  2  0  0  0  0  0  0  0  0  0
   30.8897   57.0349   48.5645 O   0  0  0  0  0  0  0  0  0  0  0  0
   30.7024   58.7690   46.9453 H   0  0  0  0  0  0  0  0  0  0  0  0
   34.8084   57.6622   47.5407 H   0  0  0  0  0  0  0  0  0  0  0  0
   35.5603   59.5984   46.1995 H   0  0  0  0  0  0  0  0  0  0  0  0
   31.4371   60.6806   45.5897 H   0  0  0  0  0  0  0  0  0  0  0  0
   33.2505   61.9635   44.6732 H   0  0  0  0  0  0  0  0  0  0  0  0
   32.3125   56.0237   47.5364 H   0  0  0  0  0  0  0  0  0  0  0  0
   30.8421   57.0387   49.5533 H   0  0  0  0  0  0  0  0  0  0  0  0
  1  2  3  0
  2 10  1  0
  3  4  2  0
  3  5  1  0
  3 10  1  0
  4  7  1  0
  5  6  2  0
  6  8  1  0
  7  8  2  0
  8  9  1  0
 10 11  1  0
  4 12  1  0
  5 13  1  0
  6 14  1  0
  7 15  1  0
  9 16  1  0
 10 17  1  6
 11 18  1  0
M  END
>  <filename_input>  (2) 
7ZF0_DHR_docked.sdf

>  <pdb_id>  (2) 
7ZF0_DHR

>  <pose_rank>  (2) 
1

>  <num_atoms_heavy>  (2) 
11

>  <num_torsions>  (2) 
2

>  <pose>  (2) 
[32.71594578878213, 58.111128096779254, 47.326433058143245, -0.20676714190467194, -2.3231875110160387, 2.1551192003692865, 1.5076739934584744, -1.756022167341653]

>  <energy>  (2) 
-433.85910762547655

>  <inter_energy>  (2) 
-423.24156924954593

>  <intra_energy>  (2) 
0.5384129710766409

>  <rmsd>  (2) 
1.61084

>  <sdf_rank>  (2) 
0

$$$$

     RDKit          3D

 18 18  0  0  0  0  0  0  0  0999 V2000
   32.5265   60.2323   45.5702 N   0  0  0  0  0  0  0  0  0  0  0  0
   33.2287   59.4597   46.0275 C   0  0  0  0  0  0  0  0  0  0  0  0
   33.7067   58.1212   48.0388 C   0  0  0  0  0  0  0  0  0  0  0  0
   34.5727   57.5190   48.9196 C   0  0  0  0  0  0  0  0  0  0  0  0
   32.4105   58.4128   48.4319 C   0  0  0  0  0  0  0  0  0  0  0  0
   31.9689   58.1233   49.6990 C   0  0  0  0  0  0  0  0  0  0  0  0
   34.1370   57.2225   50.1766 C   0  0  0  0  0  0  0  0  0  0  0  0
   32.8480   57.5220   50.5938 C   0  0  0  0  0  0  0  0  0  0  0  0
   32.4312   57.2125   51.8710 O   0  0  0  0  0  0  0  0  0  0  0  0
   34.2057   58.4464   46.6371 C   0  0  2  0  0  0  0  0  0  0  0  0
   35.5033   59.0058   46.6190 O   0  0  0  0  0  0  0  0  0  0  0  0
   35.6021   57.2797   48.6148 H   0  0  0  0  0  0  0  0  0  0  0  0
   31.7225   58.8852   47.7153 H   0  0  0  0  0  0  0  0  0  0  0  0
   30.9386   58.3623   50.0012 H   0  0  0  0  0  0  0  0  0  0  0  0
   34.8263   56.7323   50.8798 H   0  0  0  0  0  0  0  0  0  0  0  0
   33.0584   56.7846   52.5063 H   0  0  0  0  0  0  0  0  0  0  0  0
   34.2575   57.5063   46.0683 H   0  0  0  0  0  0  0  0  0  0  0  0
   35.8173   59.1412   47.5481 H   0  0  0  0  0  0  0  0  0  0  0  0
  1  2  3  0
  2 10  1  0
  3  4  2  0
  3  5  1  0
  3 10  1  0
  4  7  1  0
  5  6  2  0
  6  8  1  0
  7  8  2  0
  8  9  1  0
 10 11  1  0
  4 12  1  0
  5 13  1  0
  6 14  1  0
  7 15  1  0
  9 16  1  0
 10 17  1  6
 11 18  1  0
M  END
>  <filename_input>  (3) 
7ZF0_DHR_docked.sdf

>  <pdb_id>  (3) 
7ZF0_DHR

>  <pose_rank>  (3) 
2

>  <num_atoms_heavy>  (3) 
11

>  <num_torsions>  (3) 
2

>  <pose>  (3) 
[33.706727499238355, 58.121189131172386, 48.03875672895324, -3.4192482794412142, 0.7329942229032926, 0.09457497604436861, 1.0285823741326032, 0.6946786803517555]

>  <energy>  (3) 
-493.15278140521616

>  <inter_energy>  (3) 
-483.6045998108152

>  <intra_energy>  (3) 
2.8253062466841588

>  <rmsd>  (3) 
4.35638

>  <sdf_rank>  (3) 
0

$$$$

     RDKit          3D

 18 18  0  0  0  0  0  0  0  0999 V2000
   31.1757   57.3394   49.8334 N   0  0  0  0  0  0  0  0  0  0  0  0
   31.9471   57.1060   49.0275 C   0  0  0  0  0  0  0  0  0  0  0  0
   33.2392   58.0223   47.1416 C   0  0  0  0  0  0  0  0  0  0  0  0
   32.1607   58.6158   46.5308 C   0  0  0  0  0  0  0  0  0  0  0  0
   34.5053   58.5649   46.9916 C   0  0  0  0  0  0  0  0  0  0  0  0
   34.7091   59.7015   46.2495 C   0  0  0  0  0  0  0  0  0  0  0  0
   32.3587   59.7404   45.7867 C   0  0  0  0  0  0  0  0  0  0  0  0
   33.6162   60.3077   45.6385 C   0  0  0  0  0  0  0  0  0  0  0  0
   33.7905   61.4463   44.8808 O   0  0  0  0  0  0  0  0  0  0  0  0
   33.0045   56.7658   47.9695 C   0  0  2  0  0  0  0  0  0  0  0  0
   32.5416   55.6696   47.2072 O   0  0  0  0  0  0  0  0  0  0  0  0
   31.1526   58.1895   46.6407 H   0  0  0  0  0  0  0  0  0  0  0  0
   35.3631   58.0756   47.4761 H   0  0  0  0  0  0  0  0  0  0  0  0
   35.7183   60.1254   46.1399 H   0  0  0  0  0  0  0  0  0  0  0  0
   31.4976   60.2113   45.2898 H   0  0  0  0  0  0  0  0  0  0  0  0
   33.0114   61.8762   44.4469 H   0  0  0  0  0  0  0  0  0  0  0  0
   33.9668   56.4634   48.4083 H   0  0  0  0  0  0  0  0  0  0  0  0
   32.2376   54.9498   47.8152 H   0  0  0  0  0  0  0  0  0  0  0  0
  1  2  3  0
  2 10  1  0
  3  4  2  0
  3  5  1  0
  3 10  1  0
  4  7  1  0
  5  6  2  0
  6  8  1  0
  7  8  2  0
  8  9  1  0
 10 11  1  0
  4 12  1  0
  5 13  1  0
  6 14  1  0
  7 15  1  0
  9 16  1  0
 10 17  1  1
 11 18  1  0
M  END
>  <filename_input>  (4) 
7ZF0_DHR_docked.sdf

>  <pdb_id>  (4) 
7ZF0_DHR

>  <pose_rank>  (4) 
3

>  <num_atoms_heavy>  (4) 
11

>  <num_torsions>  (4) 
2

>  <pose>  (4) 
[33.23917935428225, 58.02230284952851, 47.141642820313166, -0.007538116125100899, 2.1333552714990924, -1.9741090284413663, 2.905484057917568, 2.287339788779342]

>  <energy>  (4) 
-478.3699934306101

>  <inter_energy>  (4) 
-473.21110315364143

>  <intra_energy>  (4) 
0.018533521380304514

>  <rmsd>  (4) 
1.47216

>  <sdf_rank>  (4) 
0

$$$$

     RDKit          3D

 18 18  0  0  0  0  0  0  0  0999 V2000
   30.9259   56.4829   51.0617 N   0  0  0  0  0  0  0  0  0  0  0  0
   31.3432   56.0609   50.0886 C   0  0  0  0  0  0  0  0  0  0  0  0
   32.3093   56.7221   47.9218 C   0  0  0  0  0  0  0  0  0  0  0  0
   31.4699   57.0797   46.8943 C   0  0  0  0  0  0  0  0  0  0  0  0
   33.4684   57.4452   48.1529 C   0  0  0  0  0  0  0  0  0  0  0  0
   33.7961   58.5309   47.3794 C   0  0  0  0  0  0  0  0  0  0  0  0
   31.7943   58.1523   46.1185 C   0  0  0  0  0  0  0  0  0  0  0  0
   32.9419   58.8987   46.3448 C   0  0  0  0  0  0  0  0  0  0  0  0
   33.2478   59.9801   45.5462 O   0  0  0  0  0  0  0  0  0  0  0  0
   31.9357   55.5212   48.7807 C   0  0  2  0  0  0  0  0  0  0  0  0
   30.9845   54.6708   48.1731 O   0  0  0  0  0  0  0  0  0  0  0  0
   30.5498   56.5087   46.7007 H   0  0  0  0  0  0  0  0  0  0  0  0
   34.1386   57.1437   48.9714 H   0  0  0  0  0  0  0  0  0  0  0  0
   34.7173   59.0997   47.5740 H   0  0  0  0  0  0  0  0  0  0  0  0
   31.1278   58.4342   45.2900 H   0  0  0  0  0  0  0  0  0  0  0  0
   32.6386   60.2402   44.8105 H   0  0  0  0  0  0  0  0  0  0  0  0
   32.8437   54.9204   48.9381 H   0  0  0  0  0  0  0  0  0  0  0  0
   30.4633   54.2047   48.8740 H   0  0  0  0  0  0  0  0  0  0  0  0
  1  2  3  0
  2 10  1  0
  3  4  2  0
  3  5  1  0
  3 10  1  0
  4  7  1  0
  5  6  2  0
  6  8  1  0
  7  8  2  0
  8  9  1  0
 10 11  1  0
  4 12  1  0
  5 13  1  0
  6 14  1  0
  7 15  1  0
  9 16  1  0
 10 17  1  1
 11 18  1  0
M  END
>  <filename_input>  (5) 
7ZF0_DHR_docked.sdf

>  <pdb_id>  (5) 
7ZF0_DHR

>  <pose_rank>  (5) 
4

>  <num_atoms_heavy>  (5) 
11

>  <num_torsions>  (5) 
2

>  <pose>  (5) 
[32.309299718994815, 56.72208335236763, 47.92184893989875, -0.24725254196779503, -2.5581556586058634, 2.722112210869199, 2.105868776484974, -2.2151762177656202]

>  <energy>  (5) 
-378.16631379212606

>  <inter_energy>  (5) 
-377.97241278279887

>  <intra_energy>  (5) 
0.0

>  <rmsd>  (5) 
1.72814

>  <sdf_rank>  (5) 
0

$$$$

     RDKit          3D

 18 18  0  0  0  0  0  0  0  0999 V2000
   31.0346   54.1792   46.1500 N   0  0  0  0  0  0  0  0  0  0  0  0
   31.4396   54.8575   46.9716 C   0  0  0  0  0  0  0  0  0  0  0  0
   32.2584   57.1400   47.4017 C   0  0  0  0  0  0  0  0  0  0  0  0
   32.9905   57.1478   46.2388 C   0  0  0  0  0  0  0  0  0  0  0  0
   31.8155   58.3332   47.9493 C   0  0  0  0  0  0  0  0  0  0  0  0
   32.0822   59.5363   47.3444 C   0  0  0  0  0  0  0  0  0  0  0  0
   33.2645   58.3401   45.6381 C   0  0  0  0  0  0  0  0  0  0  0  0
   32.8154   59.5438   46.1623 C   0  0  0  0  0  0  0  0  0  0  0  0
   33.1054   60.7370   45.5354 O   0  0  0  0  0  0  0  0  0  0  0  0
   31.9599   55.8011   48.0633 C   0  0  2  0  0  0  0  0  0  0  0  0
   33.0917   55.2090   48.6678 O   0  0  0  0  0  0  0  0  0  0  0  0
   33.3501   56.2057   45.7993 H   0  0  0  0  0  0  0  0  0  0  0  0
   31.2394   58.3162   48.8863 H   0  0  0  0  0  0  0  0  0  0  0  0
   31.7226   60.4772   47.7864 H   0  0  0  0  0  0  0  0  0  0  0  0
   33.8581   58.3484   44.7120 H   0  0  0  0  0  0  0  0  0  0  0  0
   33.6273   60.7402   44.6942 H   0  0  0  0  0  0  0  0  0  0  0  0
   31.2263   55.9742   48.8645 H   0  0  0  0  0  0  0  0  0  0  0  0
   33.0022   55.2558   49.6527 H   0  0  0  0  0  0  0  0  0  0  0  0
  1  2  3  0
  2 10  1  0
  3  4  2  0
  3  5  1  0
  3 10  1  0
  4  7  1  0
  5  6  2  0
  6  8  1  0
  7  8  2  0
  8  9  1  0
 10 11  1  0
  4 12  1  0
  5 13  1  0
  6 14  1  0
  7 15  1  0
  9 16  1  0
 10 17  1  1
 11 18  1  0
M  END
>  <filename_input>  (6) 
7ZF0_DHR_docked.sdf

>  <pdb_id>  (6) 
7ZF0_DHR

>  <pose_rank>  (6) 
5

>  <num_atoms_heavy>  (6) 
11

>  <num_torsions>  (6) 
2

>  <pose>  (6) 
[32.25840168582871, 57.139980086020095, 47.40174114084378, -1.7752731936782422, -2.5327889986321996, 4.16216774648048, 3.0387231041923153, -2.238098800895431]

>  <energy>  (6) 
-418.50315939944994

>  <inter_energy>  (6) 
-414.7640824880462

>  <intra_energy>  (6) 
0.6211581601476382

>  <rmsd>  (6) 
2.69489

>  <sdf_rank>  (6) 
0

$$$$

     RDKit          3D

 18 18  0  0  0  0  0  0  0  0999 V2000
   36.0452   56.2528   49.2207 N   0  0  0  0  0  0  0  0  0  0  0  0
   34.9412   56.5287   49.2837 C   0  0  0  0  0  0  0  0  0  0  0  0
   33.1590   57.8856   48.2600 C   0  0  0  0  0  0  0  0  0  0  0  0
   34.2093   58.3523   47.5067 C   0  0  0  0  0  0  0  0  0  0  0  0
   31.8756   58.3509   48.0223 C   0  0  0  0  0  0  0  0  0  0  0  0
   31.6230   59.2678   47.0324 C   0  0  0  0  0  0  0  0  0  0  0  0
   33.9650   59.2683   46.5275 C   0  0  0  0  0  0  0  0  0  0  0  0
   32.6847   59.7335   46.2637 C   0  0  0  0  0  0  0  0  0  0  0  0
   32.4633   60.6601   45.2671 O   0  0  0  0  0  0  0  0  0  0  0  0
   33.4456   56.8629   49.3514 C   0  0  2  0  0  0  0  0  0  0  0  0
   33.1477   57.3307   50.6512 O   0  0  0  0  0  0  0  0  0  0  0  0
   35.2321   57.9919   47.6913 H   0  0  0  0  0  0  0  0  0  0  0  0
   31.0438   57.9786   48.6383 H   0  0  0  0  0  0  0  0  0  0  0  0
   30.5996   59.6277   46.8504 H   0  0  0  0  0  0  0  0  0  0  0  0
   34.8062   59.6494   45.9298 H   0  0  0  0  0  0  0  0  0  0  0  0
   33.2202   60.9902   44.7211 H   0  0  0  0  0  0  0  0  0  0  0  0
   32.8032   55.9878   49.1742 H   0  0  0  0  0  0  0  0  0  0  0  0
   33.5392   56.7158   51.3210 H   0  0  0  0  0  0  0  0  0  0  0  0
  1  2  3  0
  2 10  1  0
  3  4  2  0
  3  5  1  0
  3 10  1  0
  4  7  1  0
  5  6  2  0
  6  8  1  0
  7  8  2  0
  8  9  1  0
 10 11  1  0
  4 12  1  0
  5 13  1  0
  6 14  1  0
  7 15  1  0
  9 16  1  0
 10 17  1  6
 11 18  1  0
M  END
>  <filename_input>  (7) 
7ZF0_DHR_docked.sdf

>  <pdb_id>  (7) 
7ZF0_DHR

>  <pose_rank>  (7) 
6

>  <num_atoms_heavy>  (7) 
11

>  <num_torsions>  (7) 
2

>  <pose>  (7) 
[33.15896819198255, 57.88562418304445, 48.25996672962307, -3.39527609761919, -3.175328994321637, 4.117612830422274, 3.82357459873748, -3.2980543997223837]

>  <energy>  (7) 
-477.73295385552495

>  <inter_energy>  (7) 
-481.77138852767416

>  <intra_energy>  (7) 
5.4548232094676585

>  <rmsd>  (7) 
1.77199

>  <sdf_rank>  (7) 
0

$$$$

     RDKit          3D

 18 18  0  0  0  0  0  0  0  0999 V2000
   35.4836   56.1232   49.5158 N   0  0  0  0  0  0  0  0  0  0  0  0
   34.4491   56.6011   49.5379 C   0  0  0  0  0  0  0  0  0  0  0  0
   33.0036   58.1930   48.3372 C   0  0  0  0  0  0  0  0  0  0  0  0
   31.7867   58.7124   47.9658 C   0  0  0  0  0  0  0  0  0  0  0  0
   34.1462   58.5325   47.6307 C   0  0  0  0  0  0  0  0  0  0  0  0
   34.0937   59.3954   46.5644 C   0  0  0  0  0  0  0  0  0  0  0  0
   31.7278   59.5638   46.9031 C   0  0  0  0  0  0  0  0  0  0  0  0
   32.8633   59.9284   46.1940 C   0  0  0  0  0  0  0  0  0  0  0  0
   32.7777   60.7921   45.1227 O   0  0  0  0  0  0  0  0  0  0  0  0
   33.0556   57.2423   49.5257 C   0  0  2  0  0  0  0  0  0  0  0  0
   32.8447   57.8837   50.7672 O   0  0  0  0  0  0  0  0  0  0  0  0
   30.8737   58.4450   48.5180 H   0  0  0  0  0  0  0  0  0  0  0  0
   35.1135   58.1026   47.9299 H   0  0  0  0  0  0  0  0  0  0  0  0
   35.0077   59.6605   46.0129 H   0  0  0  0  0  0  0  0  0  0  0  0
   30.7531   59.9731   46.5992 H   0  0  0  0  0  0  0  0  0  0  0  0
   31.9011   61.1703   44.8606 H   0  0  0  0  0  0  0  0  0  0  0  0
   32.2469   56.5061   49.4075 H   0  0  0  0  0  0  0  0  0  0  0  0
   33.0516   57.2545   51.5030 H   0  0  0  0  0  0  0  0  0  0  0  0
  1  2  3  0
  2 10  1  0
  3  4  2  0
  3  5  1  0
  3 10  1  0
  4  7  1  0
  5  6  2  0
  6  8  1  0
  7  8  2  0
  8  9  1  0
 10 11  1  0
  4 12  1  0
  5 13  1  0
  6 14  1  0
  7 15  1  0
  9 16  1  0
 10 17  1  6
 11 18  1  0
M  END
>  <filename_input>  (8) 
7ZF0_DHR_docked.sdf

>  <pdb_id>  (8) 
7ZF0_DHR

>  <pose_rank>  (8) 
7

>  <num_atoms_heavy>  (8) 
11

>  <num_torsions>  (8) 
2

>  <pose>  (8) 
[33.00360335465334, 58.193021694825205, 48.33715055877106, -2.496883344884222, 13.954467721700173, -16.896110865099377, 0.5372713529851035, -2.1214034298130517]

>  <energy>  (8) 
-528.7216846637364

>  <inter_energy>  (8) 
-514.6881086032201

>  <intra_energy>  (8) 
3.9161391534902465

>  <rmsd>  (8) 
1.70088

>  <sdf_rank>  (8) 
0

$$$$

     RDKit          3D

 18 18  0  0  0  0  0  0  0  0999 V2000
   34.4334   67.3799   52.8737 N   0  0  0  0  0  0  0  0  0  0  0  0
   33.3254   67.1762   53.0462 C   0  0  0  0  0  0  0  0  0  0  0  0
   31.7603   65.9641   54.5114 C   0  0  0  0  0  0  0  0  0  0  0  0
   32.4432   66.2951   55.6571 C   0  0  0  0  0  0  0  0  0  0  0  0
   31.0263   64.7901   54.4574 C   0  0  0  0  0  0  0  0  0  0  0  0
   30.9532   63.9461   55.5375 C   0  0  0  0  0  0  0  0  0  0  0  0
   32.3800   65.4569   56.7299 C   0  0  0  0  0  0  0  0  0  0  0  0
   31.6369   64.2855   56.7004 C   0  0  0  0  0  0  0  0  0  0  0  0
   31.5885   63.4542   57.7993 O   0  0  0  0  0  0  0  0  0  0  0  0
   31.8398   66.9088   53.3196 C   0  0  2  0  0  0  0  0  0  0  0  0
   31.2542   66.3825   52.1461 O   0  0  0  0  0  0  0  0  0  0  0  0
   33.0320   67.2229   55.7075 H   0  0  0  0  0  0  0  0  0  0  0  0
   30.4923   64.5295   53.5317 H   0  0  0  0  0  0  0  0  0  0  0  0
   30.3647   63.0183   55.4844 H   0  0  0  0  0  0  0  0  0  0  0  0
   32.9335   65.7162   57.6445 H   0  0  0  0  0  0  0  0  0  0  0  0
   32.0757   63.6976   58.6260 H   0  0  0  0  0  0  0  0  0  0  0  0
   31.2801   67.8216   53.5717 H   0  0  0  0  0  0  0  0  0  0  0  0
   30.5410   65.7415   52.3921 H   0  0  0  0  0  0  0  0  0  0  0  0
  1  2  3  0
  2 10  1  0
  3  4  2  0
  3  5  1  0
  3 10  1  0
  4  7  1  0
  5  6  2  0
  6  8  1  0
  7  8  2  0
  8  9  1  0
 10 11  1  0
  4 12  1  0
  5 13  1  0
  6 14  1  0
  7 15  1  0
  9 16  1  0
 10 17  1  1
 11 18  1  0
M  END
>  <filename_input>  (9) 
7ZF0_DHR_docked.sdf

>  <pdb_id>  (9) 
7ZF0_DHR

>  <pose_rank>  (9) 
8

>  <num_atoms_heavy>  (9) 
11

>  <num_torsions>  (9) 
2

>  <pose>  (9) 
[31.76032252070518, 65.96407022719438, 54.51141471305865, 2.7397014763403704, 1.080383354989, 0.6329514647920291, -1.4981417220473618, -2.263185306543579]

>  <energy>  (9) 
-152.25430993508573

>  <inter_energy>  (9) 
-138.47933148278878

>  <intra_energy>  (9) 
0.365635108894418

>  <rmsd>  (9) 
11.0853

>  <sdf_rank>  (9) 
0

$$$$

     RDKit          3D

 18 18  0  0  0  0  0  0  0  0999 V2000
   35.5932   66.0686   39.4680 N   0  0  0  0  0  0  0  0  0  0  0  0
   35.8630   64.9613   39.4657 C   0  0  0  0  0  0  0  0  0  0  0  0
   37.6970   63.3369   39.7169 C   0  0  0  0  0  0  0  0  0  0  0  0
   38.1741   63.8116   40.9150 C   0  0  0  0  0  0  0  0  0  0  0  0
   38.5665   62.7615   38.8043 C   0  0  0  0  0  0  0  0  0  0  0  0
   39.9065   62.6409   39.0764 C   0  0  0  0  0  0  0  0  0  0  0  0
   39.5050   63.7011   41.1871 C   0  0  0  0  0  0  0  0  0  0  0  0
   40.3882   63.1131   40.2930 C   0  0  0  0  0  0  0  0  0  0  0  0
   41.7304   63.0126   40.5918 O   0  0  0  0  0  0  0  0  0  0  0  0
   36.2080   63.4671   39.4249 C   0  0  2  0  0  0  0  0  0  0  0  0
   35.8368   62.9542   38.1615 O   0  0  0  0  0  0  0  0  0  0  0  0
   37.4919   64.2739   41.6437 H   0  0  0  0  0  0  0  0  0  0  0  0
   38.1756   62.3945   37.8438 H   0  0  0  0  0  0  0  0  0  0  0  0
   40.5870   62.1793   38.3458 H   0  0  0  0  0  0  0  0  0  0  0  0
   39.8896   64.0888   42.1420 H   0  0  0  0  0  0  0  0  0  0  0  0
   42.0712   63.3493   41.4582 H   0  0  0  0  0  0  0  0  0  0  0  0
   35.6614   62.8811   40.1784 H   0  0  0  0  0  0  0  0  0  0  0  0
   35.2609   62.1584   38.2847 H   0  0  0  0  0  0  0  0  0  0  0  0
  1  2  3  0
  2 10  1  0
  3  4  2  0
  3  5  1  0
  3 10  1  0
  4  7  1  0
  5  6  2  0
  6  8  1  0
  7  8  2  0
  8  9  1  0
 10 11  1  0
  4 12  1  0
  5 13  1  0
  6 14  1  0
  7 15  1  0
  9 16  1  0
 10 17  1  1
 11 18  1  0
M  END
>  <filename_input>  (10) 
7ZF0_DHR_docked.sdf

>  <pdb_id>  (10) 
7ZF0_DHR

>  <pose_rank>  (10) 
9

>  <num_atoms_heavy>  (10) 
11

>  <num_torsions>  (10) 
2

>  <pose>  (10) 
[37.69700441209138, 63.33685813934584, 39.71690473833805, -0.9741826876875446, -1.9863520576970919, -0.3051980719863238, -1.3639208967150769, 0.7934452098936084]

>  <energy>  (10) 
-104.58476006972303

>  <inter_energy>  (10) 
-101.3063167642479

>  <intra_energy>  (10) 
0.0

>  <rmsd>  (10) 
11.7277

>  <sdf_rank>  (10) 
0

$$$$

     RDKit          3D

 18 18  0  0  0  0  0  0  0  0999 V2000
   35.2949   64.4939   38.4465 N   0  0  0  0  0  0  0  0  0  0  0  0
   35.8579   64.5117   39.4373 C   0  0  0  0  0  0  0  0  0  0  0  0
   37.9473   63.9055   40.5917 C   0  0  0  0  0  0  0  0  0  0  0  0
   38.7245   64.3079   39.5322 C   0  0  0  0  0  0  0  0  0  0  0  0
   38.4039   62.9183   41.4500 C   0  0  0  0  0  0  0  0  0  0  0  0
   39.6337   62.3346   41.2734 C   0  0  0  0  0  0  0  0  0  0  0  0
   39.9433   63.7264   39.3479 C   0  0  0  0  0  0  0  0  0  0  0  0
   40.4246   62.7483   40.2064 C   0  0  0  0  0  0  0  0  0  0  0  0
   41.6614   62.1755   39.9989 O   0  0  0  0  0  0  0  0  0  0  0  0
   36.5872   64.5626   40.7859 C   0  0  2  0  0  0  0  0  0  0  0  0
   35.7857   63.9183   41.7552 O   0  0  0  0  0  0  0  0  0  0  0  0
   38.3682   65.0878   38.8431 H   0  0  0  0  0  0  0  0  0  0  0  0
   37.7690   62.5962   42.2886 H   0  0  0  0  0  0  0  0  0  0  0  0
   39.9874   61.5541   41.9631 H   0  0  0  0  0  0  0  0  0  0  0  0
   40.5625   64.0411   38.4950 H   0  0  0  0  0  0  0  0  0  0  0  0
   42.2227   62.4712   39.2389 H   0  0  0  0  0  0  0  0  0  0  0  0
   36.7539   65.5894   41.1436 H   0  0  0  0  0  0  0  0  0  0  0  0
   36.0976   64.1690   42.6608 H   0  0  0  0  0  0  0  0  0  0  0  0
  1  2  3  0
  2 10  1  0
  3  4  2  0
  3  5  1  0
  3 10  1  0
  4  7  1  0
  5  6  2  0
  6  8  1  0
  7  8  2  0
  8  9  1  0
 10 11  1  0
  4 12  1  0
  5 13  1  0
  6 14  1  0
  7 15  1  0
  9 16  1  0
 10 17  1  1
 11 18  1  0
M  END
>  <filename_input>  (11) 
7ZF0_DHR_docked.sdf

>  <pdb_id>  (11) 
7ZF0_DHR

>  <pose_rank>  (11) 
10

>  <num_atoms_heavy>  (11) 
11

>  <num_torsions>  (11) 
2

>  <pose>  (11) 
[37.947263449851725, 63.90548126257692, 40.59167250930127, 2.317451239442791, 1.0493928987612815, -2.2470495047238477, -1.5358257309961962, 1.9131630278986003]

>  <energy>  (11) 
-144.16801711421078

>  <inter_energy>  (11) 
-131.1652216021241

>  <intra_energy>  (11) 
0.28733046717700544

>  <rmsd>  (11) 
11.4001

>  <sdf_rank>  (11) 
0

$$$$

     RDKit          3D

 18 18  0  0  0  0  0  0  0  0999 V2000
   42.7650   48.6276   41.1483 N   0  0  0  0  0  0  0  0  0  0  0  0
   41.8884   49.2110   41.5846 C   0  0  0  0  0  0  0  0  0  0  0  0
   40.3070   51.0273   41.0697 C   0  0  0  0  0  0  0  0  0  0  0  0
   41.2892   51.5351   40.2536 C   0  0  0  0  0  0  0  0  0  0  0  0
   38.9952   51.4473   40.9185 C   0  0  0  0  0  0  0  0  0  0  0  0
   38.6466   52.3591   39.9534 C   0  0  0  0  0  0  0  0  0  0  0  0
   40.9496   52.4463   39.2987 C   0  0  0  0  0  0  0  0  0  0  0  0
   39.6392   52.8664   39.1212 C   0  0  0  0  0  0  0  0  0  0  0  0
   39.3209   53.7891   38.1475 O   0  0  0  0  0  0  0  0  0  0  0  0
   40.6998   50.0105   42.1332 C   0  0  2  0  0  0  0  0  0  0  0  0
   41.0817   50.5998   43.3595 O   0  0  0  0  0  0  0  0  0  0  0  0
   42.3339   51.2108   40.3693 H   0  0  0  0  0  0  0  0  0  0  0  0
   38.2187   51.0424   41.5842 H   0  0  0  0  0  0  0  0  0  0  0  0
   37.6014   52.6828   39.8403 H   0  0  0  0  0  0  0  0  0  0  0  0
   41.7363   52.8603   38.6507 H   0  0  0  0  0  0  0  0  0  0  0  0
   40.0288   54.1489   37.5562 H   0  0  0  0  0  0  0  0  0  0  0  0
   39.8218   49.3819   42.3430 H   0  0  0  0  0  0  0  0  0  0  0  0
   40.7304   50.0577   44.1097 H   0  0  0  0  0  0  0  0  0  0  0  0
  1  2  3  0
  2 10  1  0
  3  4  2  0
  3  5  1  0
  3 10  1  0
  4  7  1  0
  5  6  2  0
  6  8  1  0
  7  8  2  0
  8  9  1  0
 10 11  1  0
  4 12  1  0
  5 13  1  0
  6 14  1  0
  7 15  1  0
  9 16  1  0
 10 17  1  1
 11 18  1  0
M  END
>  <filename_input>  (12) 
7ZF0_DHR_docked.sdf

>  <pdb_id>  (12) 
7ZF0_DHR

>  <pose_rank>  (12) 
11

>  <num_atoms_heavy>  (12) 
11

>  <num_torsions>  (12) 
2

>  <pose>  (12) 
[40.30698031533982, 51.02734525486687, 41.06967983744861, -2.391565747240814, -5.637762190366447, 0.7571578003032378, -2.953533794968921, -1.7257445518063792]

>  <energy>  (12) 
-137.2397485469875

>  <inter_energy>  (12) 
-131.7644435905737

>  <intra_energy>  (12) 
3.049214324850301

>  <rmsd>  (12) 
12.6324

>  <sdf_rank>  (12) 
0

$$$$

     RDKit          3D

 18 18  0  0  0  0  0  0  0  0999 V2000
   42.0689   51.2414   44.3863 N   0  0  0  0  0  0  0  0  0  0  0  0
   41.6980   50.4878   43.6159 C   0  0  0  0  0  0  0  0  0  0  0  0
   40.3402   50.1649   41.5868 C   0  0  0  0  0  0  0  0  0  0  0  0
   40.9495   50.8823   40.5855 C   0  0  0  0  0  0  0  0  0  0  0  0
   38.9574   50.1157   41.6607 C   0  0  0  0  0  0  0  0  0  0  0  0
   38.1720   50.7631   40.7396 C   0  0  0  0  0  0  0  0  0  0  0  0
   40.1743   51.5331   39.6728 C   0  0  0  0  0  0  0  0  0  0  0  0
   38.7885   51.4819   39.7206 C   0  0  0  0  0  0  0  0  0  0  0  0
   38.0262   52.1486   38.7851 O   0  0  0  0  0  0  0  0  0  0  0  0
   41.2177   49.4429   42.6007 C   0  0  2  0  0  0  0  0  0  0  0  0
   40.5418   48.4161   43.2977 O   0  0  0  0  0  0  0  0  0  0  0  0
   42.0465   50.9306   40.5217 H   0  0  0  0  0  0  0  0  0  0  0  0
   38.4801   49.5472   42.4725 H   0  0  0  0  0  0  0  0  0  0  0  0
   37.0751   50.7144   40.8061 H   0  0  0  0  0  0  0  0  0  0  0  0
   40.6607   52.1152   38.8762 H   0  0  0  0  0  0  0  0  0  0  0  0
   38.4669   52.6596   38.0607 H   0  0  0  0  0  0  0  0  0  0  0  0
   42.0446   48.9649   42.0550 H   0  0  0  0  0  0  0  0  0  0  0  0
   40.6371   48.5609   44.2724 H   0  0  0  0  0  0  0  0  0  0  0  0
  1  2  3  0
  2 10  1  0
  3  4  2  0
  3  5  1  0
  3 10  1  0
  4  7  1  0
  5  6  2  0
  6  8  1  0
  7  8  2  0
  8  9  1  0
 10 11  1  0
  4 12  1  0
  5 13  1  0
  6 14  1  0
  7 15  1  0
  9 16  1  0
 10 17  1  6
 11 18  1  0
M  END
>  <filename_input>  (13) 
7ZF0_DHR_docked.sdf

>  <pdb_id>  (13) 
7ZF0_DHR

>  <pose_rank>  (13) 
12

>  <num_atoms_heavy>  (13) 
11

>  <num_torsions>  (13) 
2

>  <pose>  (13) 
[40.34015152121254, 50.16486598422791, 41.58678372139205, 0.6402155866705411, -3.852683494816233, -4.359239393653181, -1.0195104044669299, 1.6323307573437256]

>  <energy>  (13) 
-132.3579207154061

>  <inter_energy>  (13) 
-117.05979318076595

>  <intra_energy>  (13) 
0.0

>  <rmsd>  (13) 
12.2183

>  <sdf_rank>  (13) 
0

$$$$

     RDKit          3D

 18 18  0  0  0  0  0  0  0  0999 V2000
   32.4738   48.2213   39.9715 N   0  0  0  0  0  0  0  0  0  0  0  0
   32.9381   48.9495   39.2276 C   0  0  0  0  0  0  0  0  0  0  0  0
   34.9818   50.2183   38.6997 C   0  0  0  0  0  0  0  0  0  0  0  0
   35.5783   51.4037   38.3426 C   0  0  0  0  0  0  0  0  0  0  0  0
   35.6847   49.2866   39.4466 C   0  0  0  0  0  0  0  0  0  0  0  0
   36.9732   49.5272   39.8543 C   0  0  0  0  0  0  0  0  0  0  0  0
   36.8601   51.6444   38.7385 C   0  0  0  0  0  0  0  0  0  0  0  0
   37.5741   50.7310   39.5008 C   0  0  0  0  0  0  0  0  0  0  0  0
   38.8697   50.9980   39.8894 O   0  0  0  0  0  0  0  0  0  0  0  0
   33.5496   49.9613   38.2502 C   0  0  2  0  0  0  0  0  0  0  0  0
   32.7458   51.1237   38.2449 O   0  0  0  0  0  0  0  0  0  0  0  0
   35.0295   52.1472   37.7460 H   0  0  0  0  0  0  0  0  0  0  0  0
   35.2013   48.3365   39.7178 H   0  0  0  0  0  0  0  0  0  0  0  0
   37.5206   48.7817   40.4498 H   0  0  0  0  0  0  0  0  0  0  0  0
   37.3418   52.5889   38.4457 H   0  0  0  0  0  0  0  0  0  0  0  0
   39.2955   51.8553   39.6368 H   0  0  0  0  0  0  0  0  0  0  0  0
   33.5796   49.5916   37.2147 H   0  0  0  0  0  0  0  0  0  0  0  0
   32.5562   51.3980   39.1770 H   0  0  0  0  0  0  0  0  0  0  0  0
  1  2  3  0
  2 10  1  0
  3  4  2  0
  3  5  1  0
  3 10  1  0
  4  7  1  0
  5  6  2  0
  6  8  1  0
  7  8  2  0
  8  9  1  0
 10 11  1  0
  4 12  1  0
  5 13  1  0
  6 14  1  0
  7 15  1  0
  9 16  1  0
 10 17  1  6
 11 18  1  0
M  END
>  <filename_input>  (14) 
7ZF0_DHR_docked.sdf

>  <pdb_id>  (14) 
7ZF0_DHR

>  <pose_rank>  (14) 
13

>  <num_atoms_heavy>  (14) 
11

>  <num_torsions>  (14) 
2

>  <pose>  (14) 
[34.981817981662964, 50.21829593914364, 38.69968029855028, -2.064317998481479, -2.0681538467336567, 1.3189784904147897, 1.1582766455282703, 0.13565775455235332]

>  <energy>  (14) 
-130.05083198100834

>  <inter_energy>  (14) 
-113.96532023984322

>  <intra_energy>  (14) 
2.2930531798946308

>  <rmsd>  (14) 
12.6181

>  <sdf_rank>  (14) 
0

$$$$

     RDKit          3D

 18 18  0  0  0  0  0  0  0  0999 V2000
   42.4391   52.3559   41.6276 N   0  0  0  0  0  0  0  0  0  0  0  0
   41.6437   52.3766   40.8114 C   0  0  0  0  0  0  0  0  0  0  0  0
   39.4130   51.5754   40.1428 C   0  0  0  0  0  0  0  0  0  0  0  0
   38.4889   51.1956   39.1992 C   0  0  0  0  0  0  0  0  0  0  0  0
   39.2630   51.1732   41.4602 C   0  0  0  0  0  0  0  0  0  0  0  0
   38.2085   50.3846   41.8480 C   0  0  0  0  0  0  0  0  0  0  0  0
   37.4359   50.4188   39.5803 C   0  0  0  0  0  0  0  0  0  0  0  0
   37.2779   49.9924   40.8913 C   0  0  0  0  0  0  0  0  0  0  0  0
   36.2040   49.2065   41.2518 O   0  0  0  0  0  0  0  0  0  0  0  0
   40.5844   52.4440   39.7040 C   0  0  2  0  0  0  0  0  0  0  0  0
   41.1739   52.0207   38.4914 O   0  0  0  0  0  0  0  0  0  0  0  0
   38.5975   51.5139   38.1519 H   0  0  0  0  0  0  0  0  0  0  0  0
   40.0028   51.4918   42.2093 H   0  0  0  0  0  0  0  0  0  0  0  0
   38.1013   50.0685   42.8961 H   0  0  0  0  0  0  0  0  0  0  0  0
   36.6906   50.1217   38.8279 H   0  0  0  0  0  0  0  0  0  0  0  0
   35.5429   48.9285   40.5694 H   0  0  0  0  0  0  0  0  0  0  0  0
   40.2069   53.4632   39.5345 H   0  0  0  0  0  0  0  0  0  0  0  0
   41.9621   51.4547   38.6876 H   0  0  0  0  0  0  0  0  0  0  0  0
  1  2  3  0
  2 10  1  0
  3  4  2  0
  3  5  1  0
  3 10  1  0
  4  7  1  0
  5  6  2  0
  6  8  1  0
  7  8  2  0
  8  9  1  0
 10 11  1  0
  4 12  1  0
  5 13  1  0
  6 14  1  0
  7 15  1  0
  9 16  1  0
 10 17  1  6
 11 18  1  0
M  END
>  <filename_input>  (15) 
7ZF0_DHR_docked.sdf

>  <pdb_id>  (15) 
7ZF0_DHR

>  <pose_rank>  (15) 
14

>  <num_atoms_heavy>  (15) 
11

>  <num_torsions>  (15) 
2

>  <pose>  (15) 
[39.41299842868825, 51.57537637826631, 40.14275879207937, 1.5875287952766874, -2.9928852507595622, -2.5875887101329207, 1.0187752660432552, 2.25993148094869]

>  <energy>  (15) 
-129.10359743144983

>  <inter_energy>  (15) 
-135.87396551549827

>  <intra_energy>  (15) 
2.8224894860346095

>  <rmsd>  (15) 
12.5506

>  <sdf_rank>  (15) 
0

$$$$

     RDKit          3D

 18 18  0  0  0  0  0  0  0  0999 V2000
   42.3389   49.7048   45.9185 N   0  0  0  0  0  0  0  0  0  0  0  0
   42.2270   49.4694   44.8089 C   0  0  0  0  0  0  0  0  0  0  0  0
   42.1734   50.5109   42.5779 C   0  0  0  0  0  0  0  0  0  0  0  0
   43.1901   51.3813   42.8898 C   0  0  0  0  0  0  0  0  0  0  0  0
   41.2319   50.8594   41.6229 C   0  0  0  0  0  0  0  0  0  0  0  0
   41.2981   52.0616   40.9637 C   0  0  0  0  0  0  0  0  0  0  0  0
   43.2562   52.5794   42.2435 C   0  0  0  0  0  0  0  0  0  0  0  0
   42.3324   52.9390   41.2726 C   0  0  0  0  0  0  0  0  0  0  0  0
   42.4211   54.1569   40.6325 O   0  0  0  0  0  0  0  0  0  0  0  0
   42.1105   49.1758   43.3078 C   0  0  2  0  0  0  0  0  0  0  0  0
   40.9090   48.4676   43.0800 O   0  0  0  0  0  0  0  0  0  0  0  0
   43.9395   51.1149   43.6497 H   0  0  0  0  0  0  0  0  0  0  0  0
   40.4161   50.1596   41.3888 H   0  0  0  0  0  0  0  0  0  0  0  0
   40.5469   52.3263   40.2049 H   0  0  0  0  0  0  0  0  0  0  0  0
   44.0643   53.2808   42.4986 H   0  0  0  0  0  0  0  0  0  0  0  0
   43.1580   54.7799   40.8538 H   0  0  0  0  0  0  0  0  0  0  0  0
   42.9279   48.5436   42.9308 H   0  0  0  0  0  0  0  0  0  0  0  0
   40.4988   48.2257   43.9479 H   0  0  0  0  0  0  0  0  0  0  0  0
  1  2  3  0
  2 10  1  0
  3  4  2  0
  3  5  1  0
  3 10  1  0
  4  7  1  0
  5  6  2  0
  6  8  1  0
  7  8  2  0
  8  9  1  0
 10 11  1  0
  4 12  1  0
  5 13  1  0
  6 14  1  0
  7 15  1  0
  9 16  1  0
 10 17  1  6
 11 18  1  0
M  END
>  <filename_input>  (16) 
7ZF0_DHR_docked.sdf

>  <pdb_id>  (16) 
7ZF0_DHR

>  <pose_rank>  (16) 
15

>  <num_atoms_heavy>  (16) 
11

>  <num_torsions>  (16) 
2

>  <pose>  (16) 
[42.1734182277579, 50.51091561224738, 42.57789329193827, 0.40560556340849413, -0.6831089385066182, 0.2648656874550248, -1.5362553236111276, -2.332268789233468]

>  <energy>  (16) 
-125.12563975263474

>  <inter_energy>  (16) 
-103.32255307918491

>  <intra_energy>  (16) 
0.5472725630857193

>  <rmsd>  (16) 
12.6807

>  <sdf_rank>  (16) 
0

$$$$

     RDKit          3D

 18 18  0  0  0  0  0  0  0  0999 V2000
   42.4408   48.3907   44.9374 N   0  0  0  0  0  0  0  0  0  0  0  0
   42.2029   49.4644   44.6379 C   0  0  0  0  0  0  0  0  0  0  0  0
   41.8240   50.9705   42.7265 C   0  0  0  0  0  0  0  0  0  0  0  0
   41.5757   52.1816   42.1265 C   0  0  0  0  0  0  0  0  0  0  0  0
   42.0435   49.8446   41.9492 C   0  0  0  0  0  0  0  0  0  0  0  0
   42.0315   49.9128   40.5783 C   0  0  0  0  0  0  0  0  0  0  0  0
   41.5554   52.2534   40.7657 C   0  0  0  0  0  0  0  0  0  0  0  0
   41.7893   51.1405   39.9707 C   0  0  0  0  0  0  0  0  0  0  0  0
   41.7638   51.2391   38.5957 O   0  0  0  0  0  0  0  0  0  0  0  0
   41.8432   50.9036   44.2478 C   0  0  2  0  0  0  0  0  0  0  0  0
   42.7848   51.7778   44.8363 O   0  0  0  0  0  0  0  0  0  0  0  0
   41.3960   53.0798   42.7356 H   0  0  0  0  0  0  0  0  0  0  0  0
   42.2307   48.8781   42.4399 H   0  0  0  0  0  0  0  0  0  0  0  0
   42.2103   49.0131   39.9712 H   0  0  0  0  0  0  0  0  0  0  0  0
   41.3478   53.2204   40.2842 H   0  0  0  0  0  0  0  0  0  0  0  0
   41.5912   52.1137   38.1653 H   0  0  0  0  0  0  0  0  0  0  0  0
   40.8526   51.2113   44.6139 H   0  0  0  0  0  0  0  0  0  0  0  0
   42.7199   51.7175   45.8223 H   0  0  0  0  0  0  0  0  0  0  0  0
  1  2  3  0
  2 10  1  0
  3  4  2  0
  3  5  1  0
  3 10  1  0
  4  7  1  0
  5  6  2  0
  6  8  1  0
  7  8  2  0
  8  9  1  0
 10 11  1  0
  4 12  1  0
  5 13  1  0
  6 14  1  0
  7 15  1  0
  9 16  1  0
 10 17  1  1
 11 18  1  0
M  END
>  <filename_input>  (17) 
7ZF0_DHR_docked.sdf

>  <pdb_id>  (17) 
7ZF0_DHR

>  <pose_rank>  (17) 
16

>  <num_atoms_heavy>  (17) 
11

>  <num_torsions>  (17) 
2

>  <pose>  (17) 
[41.82404769034938, 50.97046279797337, 42.72648347100729, -0.26752498063833224, -0.790757557209318, 1.6771173615992894, 0.7805369181946687, 2.9380721925772137]

>  <energy>  (17) 
-114.17995457664135

>  <inter_energy>  (17) 
-103.64357942248239

>  <intra_energy>  (17) 
3.7431364084673215

>  <rmsd>  (17) 
13.0008

>  <sdf_rank>  (17) 
0

$$$$

     RDKit          3D

 18 18  0  0  0  0  0  0  0  0999 V2000
   25.4668   68.1322   45.8905 N   0  0  0  0  0  0  0  0  0  0  0  0
   25.1340   67.2171   45.2980 C   0  0  0  0  0  0  0  0  0  0  0  0
   24.7879   66.3085   43.0353 C   0  0  0  0  0  0  0  0  0  0  0  0
   25.1054   65.2876   42.1718 C   0  0  0  0  0  0  0  0  0  0  0  0
   24.6089   67.5944   42.5514 C   0  0  0  0  0  0  0  0  0  0  0  0
   24.7296   67.8745   41.2130 C   0  0  0  0  0  0  0  0  0  0  0  0
   25.2339   65.5617   40.8429 C   0  0  0  0  0  0  0  0  0  0  0  0
   25.0421   66.8396   40.3375 C   0  0  0  0  0  0  0  0  0  0  0  0
   25.1773   67.0913   38.9887 O   0  0  0  0  0  0  0  0  0  0  0  0
   24.6480   65.9891   44.5178 C   0  0  2  0  0  0  0  0  0  0  0  0
   23.3199   65.7050   44.9080 O   0  0  0  0  0  0  0  0  0  0  0  0
   25.2537   64.2645   42.5476 H   0  0  0  0  0  0  0  0  0  0  0  0
   24.3654   68.4060   43.2528 H   0  0  0  0  0  0  0  0  0  0  0  0
   24.5821   68.8986   40.8396 H   0  0  0  0  0  0  0  0  0  0  0  0
   25.4969   64.7472   40.1520 H   0  0  0  0  0  0  0  0  0  0  0  0
   25.3997   66.3534   38.3673 H   0  0  0  0  0  0  0  0  0  0  0  0
   25.2405   65.0865   44.7282 H   0  0  0  0  0  0  0  0  0  0  0  0
   23.2617   65.6926   45.8962 H   0  0  0  0  0  0  0  0  0  0  0  0
  1  2  3  0
  2 10  1  0
  3  4  2  0
  3  5  1  0
  3 10  1  0
  4  7  1  0
  5  6  2  0
  6  8  1  0
  7  8  2  0
  8  9  1  0
 10 11  1  0
  4 12  1  0
  5 13  1  0
  6 14  1  0
  7 15  1  0
  9 16  1  0
 10 17  1  1
 11 18  1  0
M  END
>  <filename_input>  (18) 
7ZF0_DHR_docked.sdf

>  <pdb_id>  (18) 
7ZF0_DHR

>  <pose_rank>  (18) 
17

>  <num_atoms_heavy>  (18) 
11

>  <num_torsions>  (18) 
2

>  <pose>  (18) 
[24.78785405000452, 66.30846099836162, 43.03528867633528, 1.684254627896398, -1.205622640462707, 4.423466952268564, 0.1502782166229009, 0.6413069210947804]

>  <energy>  (18) 
-110.40949166611512

>  <inter_energy>  (18) 
-106.8439772465789

>  <intra_energy>  (18) 
1.3321241089597322

>  <rmsd>  (18) 
13.237

>  <sdf_rank>  (18) 
0

$$$$

     RDKit          3D

 18 18  0  0  0  0  0  0  0  0999 V2000
   26.2820   61.3080   39.9280 N   0  0  0  0  0  0  0  0  0  0  0  0
   25.5351   61.9893   39.4018 C   0  0  0  0  0  0  0  0  0  0  0  0
   24.7127   64.3102   39.3512 C   0  0  0  0  0  0  0  0  0  0  0  0
   25.0097   65.3703   38.5288 C   0  0  0  0  0  0  0  0  0  0  0  0
   24.5897   64.5066   40.7173 C   0  0  0  0  0  0  0  0  0  0  0  0
   24.7463   65.7514   41.2743 C   0  0  0  0  0  0  0  0  0  0  0  0
   25.1736   66.6071   39.0776 C   0  0  0  0  0  0  0  0  0  0  0  0
   25.0379   66.8264   40.4409 C   0  0  0  0  0  0  0  0  0  0  0  0
   25.2081   68.0873   40.9719 O   0  0  0  0  0  0  0  0  0  0  0  0
   24.5328   62.9334   38.7256 C   0  0  2  0  0  0  0  0  0  0  0  0
   23.2330   62.4054   38.8947 O   0  0  0  0  0  0  0  0  0  0  0  0
   25.1137   65.2229   37.4437 H   0  0  0  0  0  0  0  0  0  0  0  0
   24.3622   63.6491   41.3676 H   0  0  0  0  0  0  0  0  0  0  0  0
   24.6431   65.8963   42.3598 H   0  0  0  0  0  0  0  0  0  0  0  0
   25.4203   67.4548   38.4215 H   0  0  0  0  0  0  0  0  0  0  0  0
   25.4156   68.8511   40.3771 H   0  0  0  0  0  0  0  0  0  0  0  0
   24.6983   63.0283   37.6422 H   0  0  0  0  0  0  0  0  0  0  0  0
   23.0330   62.3241   39.8609 H   0  0  0  0  0  0  0  0  0  0  0  0
  1  2  3  0
  2 10  1  0
  3  4  2  0
  3  5  1  0
  3 10  1  0
  4  7  1  0
  5  6  2  0
  6  8  1  0
  7  8  2  0
  8  9  1  0
 10 11  1  0
  4 12  1  0
  5 13  1  0
  6 14  1  0
  7 15  1  0
  9 16  1  0
 10 17  1  6
 11 18  1  0
M  END
>  <filename_input>  (19) 
7ZF0_DHR_docked.sdf

>  <pdb_id>  (19) 
7ZF0_DHR

>  <pose_rank>  (19) 
18

>  <num_atoms_heavy>  (19) 
11

>  <num_torsions>  (19) 
2

>  <pose>  (19) 
[24.71267588157525, 64.31019572436456, 39.35122610345318, 1.0399034838774794, 1.28723622242503, -0.5787494999374224, -0.26084743267764704, -1.1037197593469965]

>  <energy>  (19) 
-106.59116883846245

>  <inter_energy>  (19) 
-90.5112579562452

>  <intra_energy>  (19) 
0.0

>  <rmsd>  (19) 
13.6877

>  <sdf_rank>  (19) 
0

$$$$

     RDKit          3D

 18 18  0  0  0  0  0  0  0  0999 V2000
   39.0317   53.5024   39.9196 N   0  0  0  0  0  0  0  0  0  0  0  0
   40.0222   52.9397   39.8829 C   0  0  0  0  0  0  0  0  0  0  0  0
   41.4274   51.2850   41.0461 C   0  0  0  0  0  0  0  0  0  0  0  0
   40.9414   50.0013   40.9808 C   0  0  0  0  0  0  0  0  0  0  0  0
   41.9751   51.7590   42.2273 C   0  0  0  0  0  0  0  0  0  0  0  0
   42.0568   50.9639   43.3433 C   0  0  0  0  0  0  0  0  0  0  0  0
   41.0134   49.2100   42.0881 C   0  0  0  0  0  0  0  0  0  0  0  0
   41.5733   49.6613   43.2747 C   0  0  0  0  0  0  0  0  0  0  0  0
   41.6350   48.8412   44.3813 O   0  0  0  0  0  0  0  0  0  0  0  0
   41.3402   52.1590   39.8020 C   0  0  2  0  0  0  0  0  0  0  0  0
   42.4038   53.0827   39.6892 O   0  0  0  0  0  0  0  0  0  0  0  0
   40.5009   49.6180   40.0486 H   0  0  0  0  0  0  0  0  0  0  0  0
   42.3513   52.7917   42.2716 H   0  0  0  0  0  0  0  0  0  0  0  0
   42.4967   51.3497   44.2748 H   0  0  0  0  0  0  0  0  0  0  0  0
   40.6165   48.1852   42.0399 H   0  0  0  0  0  0  0  0  0  0  0  0
   41.2903   47.9146   44.3305 H   0  0  0  0  0  0  0  0  0  0  0  0
   41.3952   51.5026   38.9210 H   0  0  0  0  0  0  0  0  0  0  0  0
   42.7084   53.3472   40.5932 H   0  0  0  0  0  0  0  0  0  0  0  0
  1  2  3  0
  2 10  1  0
  3  4  2  0
  3  5  1  0
  3 10  1  0
  4  7  1  0
  5  6  2  0
  6  8  1  0
  7  8  2  0
  8  9  1  0
 10 11  1  0
  4 12  1  0
  5 13  1  0
  6 14  1  0
  7 15  1  0
  9 16  1  0
 10 17  1  6
 11 18  1  0
M  END
>  <filename_input>  (20) 
7ZF0_DHR_docked.sdf

>  <pdb_id>  (20) 
7ZF0_DHR

>  <pose_rank>  (20) 
19

>  <num_atoms_heavy>  (20) 
11

>  <num_torsions>  (20) 
2

>  <pose>  (20) 
[41.42737583332485, 51.285027758859975, 41.04607162639645, 1.5918864433215598, -2.085499536573661, -1.8600794228819546, -0.7963314880920808, 2.9252405396590393]

>  <energy>  (20) 
-106.37209040946097

>  <inter_energy>  (20) 
-93.43197848750889

>  <intra_energy>  (20) 
0.0

>  <rmsd>  (20) 
13.2102

>  <sdf_rank>  (20) 
0

$$$$

     RDKit          3D

 18 18  0  0  0  0  0  0  0  0999 V2000
   26.7245   68.2991   52.1144 N   0  0  0  0  0  0  0  0  0  0  0  0
   26.1397   67.5105   51.5355 C   0  0  0  0  0  0  0  0  0  0  0  0
   25.3504   66.8789   49.2897 C   0  0  0  0  0  0  0  0  0  0  0  0
   26.4739   67.4598   48.7525 C   0  0  0  0  0  0  0  0  0  0  0  0
   24.2148   66.7178   48.5123 C   0  0  0  0  0  0  0  0  0  0  0  0
   24.1886   67.1172   47.1993 C   0  0  0  0  0  0  0  0  0  0  0  0
   26.4508   67.8650   47.4514 C   0  0  0  0  0  0  0  0  0  0  0  0
   25.3288   67.6970   46.6525 C   0  0  0  0  0  0  0  0  0  0  0  0
   25.3305   68.1148   45.3387 O   0  0  0  0  0  0  0  0  0  0  0  0
   25.3890   66.4314   50.7449 C   0  0  2  0  0  0  0  0  0  0  0  0
   24.1068   66.2659   51.3156 O   0  0  0  0  0  0  0  0  0  0  0  0
   27.3785   67.5958   49.3634 H   0  0  0  0  0  0  0  0  0  0  0  0
   23.3175   66.2613   48.9556 H   0  0  0  0  0  0  0  0  0  0  0  0
   23.2825   66.9813   46.5905 H   0  0  0  0  0  0  0  0  0  0  0  0
   27.3465   68.3383   47.0227 H   0  0  0  0  0  0  0  0  0  0  0  0
   26.1430   68.5272   44.9514 H   0  0  0  0  0  0  0  0  0  0  0  0
   25.8834   65.4496   50.7854 H   0  0  0  0  0  0  0  0  0  0  0  0
   24.1812   66.2755   52.3027 H   0  0  0  0  0  0  0  0  0  0  0  0
  1  2  3  0
  2 10  1  0
  3  4  2  0
  3  5  1  0
  3 10  1  0
  4  7  1  0
  5  6  2  0
  6  8  1  0
  7  8  2  0
  8  9  1  0
 10 11  1  0
  4 12  1  0
  5 13  1  0
  6 14  1  0
  7 15  1  0
  9 16  1  0
 10 17  1  6
 11 18  1  0
M  END
>  <filename_input>  (21) 
7ZF0_DHR_docked.sdf

>  <pdb_id>  (21) 
7ZF0_DHR

>  <pose_rank>  (21) 
20

>  <num_atoms_heavy>  (21) 
11

>  <num_torsions>  (21) 
2

>  <pose>  (21) 
[25.350368747814613, 66.87890784997774, 49.289746672763954, 3.5079978312881206, 3.4721245892021053, -2.8766991878986556, -1.698820681148138, -2.901922870739641]

>  <energy>  (21) 
-94.2656078077168

>  <inter_energy>  (21) 
-83.6119544903179

>  <intra_energy>  (21) 
1.5297413059701872

>  <rmsd>  (21) 
12.1498

>  <sdf_rank>  (21) 
0

$$$$

     RDKit          3D

 18 18  0  0  0  0  0  0  0  0999 V2000
   24.6814   67.6267   47.5169 N   0  0  0  0  0  0  0  0  0  0  0  0
   25.2271   67.7582   46.5249 C   0  0  0  0  0  0  0  0  0  0  0  0
   25.3271   67.0618   44.1647 C   0  0  0  0  0  0  0  0  0  0  0  0
   24.0001   67.2768   43.8792 C   0  0  0  0  0  0  0  0  0  0  0  0
   26.0224   66.0577   43.5104 C   0  0  0  0  0  0  0  0  0  0  0  0
   25.4145   65.2717   42.5634 C   0  0  0  0  0  0  0  0  0  0  0  0
   23.3897   66.4943   42.9450 C   0  0  0  0  0  0  0  0  0  0  0  0
   24.0737   65.4952   42.2675 C   0  0  0  0  0  0  0  0  0  0  0  0
   23.4338   64.7171   41.3263 O   0  0  0  0  0  0  0  0  0  0  0  0
   25.9970   67.9426   45.2110 C   0  0  2  0  0  0  0  0  0  0  0  0
   27.3535   67.6154   45.4349 O   0  0  0  0  0  0  0  0  0  0  0  0
   23.4390   68.0688   44.3968 H   0  0  0  0  0  0  0  0  0  0  0  0
   27.0814   65.8873   43.7544 H   0  0  0  0  0  0  0  0  0  0  0  0
   25.9773   64.4796   42.0478 H   0  0  0  0  0  0  0  0  0  0  0  0
   22.3253   66.6594   42.7221 H   0  0  0  0  0  0  0  0  0  0  0  0
   22.4796   64.8777   41.1171 H   0  0  0  0  0  0  0  0  0  0  0  0
   25.9770   68.9798   44.8453 H   0  0  0  0  0  0  0  0  0  0  0  0
   27.5264   67.5737   46.4088 H   0  0  0  0  0  0  0  0  0  0  0  0
  1  2  3  0
  2 10  1  0
  3  4  2  0
  3  5  1  0
  3 10  1  0
  4  7  1  0
  5  6  2  0
  6  8  1  0
  7  8  2  0
  8  9  1  0
 10 11  1  0
  4 12  1  0
  5 13  1  0
  6 14  1  0
  7 15  1  0
  9 16  1  0
 10 17  1  6
 11 18  1  0
M  END
>  <filename_input>  (22) 
7ZF0_DHR_docked.sdf

>  <pdb_id>  (22) 
7ZF0_DHR

>  <pose_rank>  (22) 
21

>  <num_atoms_heavy>  (22) 
11

>  <num_torsions>  (22) 
2

>  <pose>  (22) 
[25.32705900859928, 67.06184165546165, 44.164704758761424, -0.6806188600802827, -0.05044541659965727, -3.653829913924066, -1.3726355417168734, 1.1679082373187188]

>  <energy>  (22) 
-92.28870211050426

>  <inter_energy>  (22) 
-80.50511764511559

>  <intra_energy>  (22) 
0.0

>  <rmsd>  (22) 
12.7209

>  <sdf_rank>  (22) 
0

$$$$

     RDKit          3D

 18 18  0  0  0  0  0  0  0  0999 V2000
   42.6392   51.3522   57.9588 N   0  0  0  0  0  0  0  0  0  0  0  0
   42.7149   50.6228   57.0862 C   0  0  0  0  0  0  0  0  0  0  0  0
   42.3677   50.4469   54.6544 C   0  0  0  0  0  0  0  0  0  0  0  0
   43.2599   50.5599   53.6154 C   0  0  0  0  0  0  0  0  0  0  0  0
   41.1204   51.0437   54.5643 C   0  0  0  0  0  0  0  0  0  0  0  0
   40.7451   51.7425   53.4439 C   0  0  0  0  0  0  0  0  0  0  0  0
   42.8951   51.2589   52.5037 C   0  0  0  0  0  0  0  0  0  0  0  0
   41.6448   51.8493   52.3883 C   0  0  0  0  0  0  0  0  0  0  0  0
   41.2992   52.5509   51.2529 O   0  0  0  0  0  0  0  0  0  0  0  0
   42.7880   49.6639   55.8912 C   0  0  2  0  0  0  0  0  0  0  0  0
   41.9612   48.5492   56.1577 O   0  0  0  0  0  0  0  0  0  0  0  0
   44.2539   50.0931   53.6800 H   0  0  0  0  0  0  0  0  0  0  0  0
   40.4180   50.9560   55.4062 H   0  0  0  0  0  0  0  0  0  0  0  0
   39.7511   52.2094   53.3820 H   0  0  0  0  0  0  0  0  0  0  0  0
   43.6117   51.3577   51.6751 H   0  0  0  0  0  0  0  0  0  0  0  0
   41.9408   52.6257   50.5027 H   0  0  0  0  0  0  0  0  0  0  0  0
   43.8015   49.2730   55.7176 H   0  0  0  0  0  0  0  0  0  0  0  0
   41.8731   48.4303   57.1366 H   0  0  0  0  0  0  0  0  0  0  0  0
  1  2  3  0
  2 10  1  0
  3  4  2  0
  3  5  1  0
  3 10  1  0
  4  7  1  0
  5  6  2  0
  6  8  1  0
  7  8  2  0
  8  9  1  0
 10 11  1  0
  4 12  1  0
  5 13  1  0
  6 14  1  0
  7 15  1  0
  9 16  1  0
 10 17  1  6
 11 18  1  0
M  END
>  <filename_input>  (23) 
7ZF0_DHR_docked.sdf

>  <pdb_id>  (23) 
7ZF0_DHR

>  <pose_rank>  (23) 
22

>  <num_atoms_heavy>  (23) 
11

>  <num_torsions>  (23) 
2

>  <pose>  (23) 
[42.36765925833789, 50.446871344365746, 54.65441207009697, 3.2747953500448173, -3.883082525261715, 3.01735991566152, -0.30119041263026214, -1.0015458832125828]

>  <energy>  (23) 
-89.76517530343922

>  <inter_energy>  (23) 
-78.03059605472569

>  <intra_energy>  (23) 
0.0

>  <rmsd>  (23) 
13.2078

>  <sdf_rank>  (23) 
0

$$$$

     RDKit          3D

 18 18  0  0  0  0  0  0  0  0999 V2000
   23.8816   56.1018   44.7251 N   0  0  0  0  0  0  0  0  0  0  0  0
   23.5787   56.7347   43.8269 C   0  0  0  0  0  0  0  0  0  0  0  0
   24.1388   57.2310   41.4806 C   0  0  0  0  0  0  0  0  0  0  0  0
   23.8160   57.6382   40.2084 C   0  0  0  0  0  0  0  0  0  0  0  0
   25.2877   56.4881   41.6994 C   0  0  0  0  0  0  0  0  0  0  0  0
   26.1281   56.1561   40.6661 C   0  0  0  0  0  0  0  0  0  0  0  0
   24.6431   57.3049   39.1777 C   0  0  0  0  0  0  0  0  0  0  0  0
   25.8064   56.5760   39.3795 C   0  0  0  0  0  0  0  0  0  0  0  0
   26.6271   56.2517   38.3202 O   0  0  0  0  0  0  0  0  0  0  0  0
   23.2058   57.6094   42.6232 C   0  0  2  0  0  0  0  0  0  0  0  0
   23.3070   58.9663   43.0048 O   0  0  0  0  0  0  0  0  0  0  0  0
   22.9036   58.2245   40.0246 H   0  0  0  0  0  0  0  0  0  0  0  0
   25.5309   56.1582   42.7202 H   0  0  0  0  0  0  0  0  0  0  0  0
   27.0394   55.5687   40.8520 H   0  0  0  0  0  0  0  0  0  0  0  0
   24.3812   57.6225   38.1577 H   0  0  0  0  0  0  0  0  0  0  0  0
   26.3964   56.5515   37.4053 H   0  0  0  0  0  0  0  0  0  0  0  0
   22.1714   57.4516   42.2838 H   0  0  0  0  0  0  0  0  0  0  0  0
   23.3119   59.0319   43.9926 H   0  0  0  0  0  0  0  0  0  0  0  0
  1  2  3  0
  2 10  1  0
  3  4  2  0
  3  5  1  0
  3 10  1  0
  4  7  1  0
  5  6  2  0
  6  8  1  0
  7  8  2  0
  8  9  1  0
 10 11  1  0
  4 12  1  0
  5 13  1  0
  6 14  1  0
  7 15  1  0
  9 16  1  0
 10 17  1  6
 11 18  1  0
M  END
>  <filename_input>  (24) 
7ZF0_DHR_docked.sdf

>  <pdb_id>  (24) 
7ZF0_DHR

>  <pose_rank>  (24) 
23

>  <num_atoms_heavy>  (24) 
11

>  <num_torsions>  (24) 
2

>  <pose>  (24) 
[24.138769036839147, 57.23103114516791, 41.48057556921196, -0.9507620444431809, -0.8695836835538499, 2.5598502129006024, 0.47447989602755886, -0.16558043127456548]

>  <energy>  (24) 
-74.94329711116474

>  <inter_energy>  (24) 
-85.21916263998725

>  <intra_energy>  (24) 
3.492749333834011

>  <rmsd>  (24) 
11.2364

>  <sdf_rank>  (24) 
0

$$$$

     RDKit          3D

 18 18  0  0  0  0  0  0  0  0999 V2000
   27.3156   51.9137   39.3493 N   0  0  0  0  0  0  0  0  0  0  0  0
   28.1027   51.0930   39.2716 C   0  0  0  0  0  0  0  0  0  0  0  0
   30.5164   50.6246   39.1305 C   0  0  0  0  0  0  0  0  0  0  0  0
   30.8119   51.6223   40.0281 C   0  0  0  0  0  0  0  0  0  0  0  0
   31.4559   50.2413   38.1869 C   0  0  0  0  0  0  0  0  0  0  0  0
   32.6939   50.8319   38.1345 C   0  0  0  0  0  0  0  0  0  0  0  0
   32.0370   52.2172   39.9756 C   0  0  0  0  0  0  0  0  0  0  0  0
   32.9966   51.8356   39.0489 C   0  0  0  0  0  0  0  0  0  0  0  0
   34.2291   52.4526   39.0163 O   0  0  0  0  0  0  0  0  0  0  0  0
   29.1437   49.9686   39.1993 C   0  0  2  0  0  0  0  0  0  0  0  0
   28.8525   49.1574   38.0795 O   0  0  0  0  0  0  0  0  0  0  0  0
   30.0707   51.9362   40.7778 H   0  0  0  0  0  0  0  0  0  0  0  0
   31.2049   49.4489   37.4664 H   0  0  0  0  0  0  0  0  0  0  0  0
   33.4331   50.5172   37.3832 H   0  0  0  0  0  0  0  0  0  0  0  0
   32.2716   53.0222   40.6876 H   0  0  0  0  0  0  0  0  0  0  0  0
   34.4426   53.1666   39.6679 H   0  0  0  0  0  0  0  0  0  0  0  0
   29.1252   49.3111   40.0810 H   0  0  0  0  0  0  0  0  0  0  0  0
   28.5346   48.2718   38.3873 H   0  0  0  0  0  0  0  0  0  0  0  0
  1  2  3  0
  2 10  1  0
  3  4  2  0
  3  5  1  0
  3 10  1  0
  4  7  1  0
  5  6  2  0
  6  8  1  0
  7  8  2  0
  8  9  1  0
 10 11  1  0
  4 12  1  0
  5 13  1  0
  6 14  1  0
  7 15  1  0
  9 16  1  0
 10 17  1  1
 11 18  1  0
M  END
>  <filename_input>  (25) 
7ZF0_DHR_docked.sdf

>  <pdb_id>  (25) 
7ZF0_DHR

>  <pose_rank>  (25) 
24

>  <num_atoms_heavy>  (25) 
11

>  <num_torsions>  (25) 
2

>  <pose>  (25) 
[30.51639552616363, 50.624597577125115, 39.13053162325802, 1.1552639988975641, 3.887565767090051, -0.6772476642474289, -1.5639451833274094, 2.5415668573382377]

>  <energy>  (25) 
-72.21846048826919

>  <inter_energy>  (25) 
-64.54887586101738

>  <intra_energy>  (25) 
0.47999648195902417

>  <rmsd>  (25) 
12.0875

>  <sdf_rank>  (25) 
0

$$$$

     RDKit          3D

 18 18  0  0  0  0  0  0  0  0999 V2000
   32.2510   57.5160   51.4300 N   0  0  0  0  0  0  0  0  0  0  0  0
   32.9380   57.2320   50.5660 C   0  0  0  0  0  0  0  0  0  0  0  0
   33.5380   57.7920   48.2440 C   0  0  0  0  0  0  0  0  0  0  0  0
   34.5930   58.2800   47.5110 C   0  0  0  0  0  0  0  0  0  0  0  0
   32.2440   58.1840   47.9410 C   0  0  0  0  0  0  0  0  0  0  0  0
   31.9860   59.0480   46.9060 C   0  0  0  0  0  0  0  0  0  0  0  0
   34.3430   59.1440   46.4870 C   0  0  0  0  0  0  0  0  0  0  0  0
   33.0530   59.5350   46.1580 C   0  0  0  0  0  0  0  0  0  0  0  0
   32.8260   60.4100   45.1170 O   0  0  0  0  0  0  0  0  0  0  0  0
   33.8310   56.8280   49.3860 C   0  0  2  0  0  0  0  0  0  0  0  0
   33.5660   55.4780   49.0630 O   0  0  0  0  0  0  0  0  0  0  0  0
   35.6240   57.9778   47.7472 H   0  0  0  0  0  0  0  0  0  0  0  0
   31.4079   57.7956   48.5410 H   0  0  0  0  0  0  0  0  0  0  0  0
   30.9543   59.3498   46.6723 H   0  0  0  0  0  0  0  0  0  0  0  0
   35.1873   59.5424   45.9052 H   0  0  0  0  0  0  0  0  0  0  0  0
   33.5867   60.7554   44.5859 H   0  0  0  0  0  0  0  0  0  0  0  0
   34.9040   56.8937   49.6193 H   0  0  0  0  0  0  0  0  0  0  0  0
   33.4630   54.9534   49.8962 H   0  0  0  0  0  0  0  0  0  0  0  0
  1  2  3  0
  2 10  1  0
  3  4  2  0
  3  5  1  0
  3 10  1  0
  4  7  1  0
  5  6  2  0
  6  8  1  0
  7  8  2  0
  8  9  1  0
 10 11  1  0
  4 12  1  0
  5 13  1  0
  6 14  1  0
  7 15  1  0
  9 16  1  0
 10 17  1  1
 11 18  1  0
M  END
>  <filename_input>  (26) 
7ZF0_DHR_docked.sdf

>  <pdb_id>  (26) 
7ZF0_DHR

>  <pose_rank>  (26) 
25

>  <num_atoms_heavy>  (26) 
11

>  <num_torsions>  (26) 
2

>  <pose>  (26) 
[33.538, 57.792, 48.244, 1e-06, 1e-06, 1e-06, 0.0, 0.0]

>  <energy>  (26) 
-535.7860503368677

>  <inter_energy>  (26) 
-536.4107603005094

>  <intra_energy>  (26) 
0.6537620936772529

>  <rmsd>  (26) 
0.0

>  <sdf_rank>  (26) 
0

$$$$
