
     RDKit          3D

 51 54  0  0  0  0  0  0  0  0999 V2000
   71.5667   38.1482    0.8152 N   0  0  0  0  0  0  0  0  0  0  0  0
   66.5853   34.7358    4.2083 C   0  0  2  0  0  0  0  0  0  0  0  0
   73.7190   37.7012   -0.1484 N   0  0  0  0  0  0  0  0  0  0  0  0
   67.1063   36.9920    2.8448 C   0  0  0  0  0  0  0  0  0  0  0  0
   67.4146   38.1812    2.0936 C   0  0  0  0  0  0  0  0  0  0  0  0
   66.4466   39.1877    1.9653 C   0  0  0  0  0  0  0  0  0  0  0  0
   65.1689   34.6454    4.4642 O   0  0  0  0  0  0  0  0  0  0  0  0
   66.9948   33.5331    3.3553 C   0  0  0  0  0  0  0  0  0  0  0  0
   68.4562   33.4220    3.0830 C   0  0  0  0  0  0  0  0  0  0  0  0
   67.3089   34.7387    5.5409 C   0  0  0  0  0  0  0  0  0  0  0  0
   66.5532   34.0616    6.6636 C   0  0  0  0  0  0  0  0  0  0  0  0
   66.8788   36.0112    3.4922 C   0  0  0  0  0  0  0  0  0  0  0  0
   68.6954   38.3580    1.5434 C   0  0  0  0  0  0  0  0  0  0  0  0
   69.0096   39.5553    0.8807 C   0  0  0  0  0  0  0  0  0  0  0  0
   68.0269   40.5586    0.7994 C   0  0  0  0  0  0  0  0  0  0  0  0
   66.7510   40.3836    1.3346 C   0  0  0  0  0  0  0  0  0  0  0  0
   70.2003   40.0685    0.1858 C   0  0  0  0  0  0  0  0  0  0  0  0
   71.4453   39.2399    0.0430 C   0  0  0  0  0  0  0  0  0  0  0  0
   72.4440   39.5957   -0.8810 C   0  0  0  0  0  0  0  0  0  0  0  0
   73.5617   38.7935   -0.8952 C   0  0  0  0  0  0  0  0  0  0  0  0
   72.6961   37.4162    0.6785 C   0  0  0  0  0  0  0  0  0  0  0  0
   72.7738   36.2816    1.3726 N   0  0  0  0  0  0  0  0  0  0  0  0
   72.3262   40.7186   -1.8829 C   0  0  0  0  0  0  0  0  0  0  0  0
   72.1386   42.0713   -1.2557 C   0  0  0  0  0  0  0  0  0  0  0  0
   70.6623   42.3971   -1.0047 C   0  0  0  0  0  0  0  0  0  0  0  0
   69.8639   41.3725   -0.2560 C   0  0  0  0  0  0  0  0  0  0  0  0
   68.5544   41.6476    0.1162 N   0  0  0  0  0  0  0  0  0  0  0  0
   65.4361   39.0264    2.3690 H   0  0  0  0  0  0  0  0  0  0  0  0
   65.0101   34.6352    5.4413 H   0  0  0  0  0  0  0  0  0  0  0  0
   66.6746   32.6195    3.8776 H   0  0  0  0  0  0  0  0  0  0  0  0
   66.5096   33.6703    2.3777 H   0  0  0  0  0  0  0  0  0  0  0  0
   69.0045   33.3802    4.0356 H   0  0  0  0  0  0  0  0  0  0  0  0
   68.6530   32.5062    2.5061 H   0  0  0  0  0  0  0  0  0  0  0  0
   68.7893   34.2974    2.5061 H   0  0  0  0  0  0  0  0  0  0  0  0
   68.2704   34.2201    5.4116 H   0  0  0  0  0  0  0  0  0  0  0  0
   67.4264   35.7928    5.8323 H   0  0  0  0  0  0  0  0  0  0  0  0
   66.9431   34.4109    7.6310 H   0  0  0  0  0  0  0  0  0  0  0  0
   65.4842   34.3099    6.5879 H   0  0  0  0  0  0  0  0  0  0  0  0
   66.6828   32.9719    6.5879 H   0  0  0  0  0  0  0  0  0  0  0  0
   69.4489   37.5615    1.6315 H   0  0  0  0  0  0  0  0  0  0  0  0
   65.9984   41.1820    1.2574 H   0  0  0  0  0  0  0  0  0  0  0  0
   74.3835   39.0735   -1.5707 H   0  0  0  0  0  0  0  0  0  0  0  0
   73.6143   35.6906    1.3009 H   0  0  0  0  0  0  0  0  0  0  0  0
   71.9934   35.9956    1.9809 H   0  0  0  0  0  0  0  0  0  0  0  0
   73.2441   40.7411   -2.4887 H   0  0  0  0  0  0  0  0  0  0  0  0
   71.4292   40.5174   -2.4870 H   0  0  0  0  0  0  0  0  0  0  0  0
   72.6738   42.0929   -0.2949 H   0  0  0  0  0  0  0  0  0  0  0  0
   72.5350   42.8235   -1.9537 H   0  0  0  0  0  0  0  0  0  0  0  0
   70.6208   43.3354   -0.4321 H   0  0  0  0  0  0  0  0  0  0  0  0
   70.2038   42.4472   -2.0033 H   0  0  0  0  0  0  0  0  0  0  0  0
   68.0517   42.5241   -0.0834 H   0  0  0  0  0  0  0  0  0  0  0  0
  1 18  2  0
  1 21  1  0
  2  7  1  0
  2  8  1  0
  2 10  1  0
  2 12  1  6
  3 20  1  0
  3 21  2  0
  4  5  1  0
  4 12  3  0
  5  6  2  0
  5 13  1  0
  6 16  1  0
  8  9  1  0
 10 11  1  0
 13 14  2  0
 14 15  1  0
 14 17  1  0
 15 16  2  0
 15 27  1  0
 17 18  1  0
 17 26  2  0
 18 19  1  0
 19 20  2  0
 19 23  1  0
 21 22  1  0
 23 24  1  0
 24 25  1  0
 25 26  1  0
 26 27  1  0
  6 28  1  0
  7 29  1  0
  8 30  1  0
  8 31  1  0
  9 32  1  0
  9 33  1  0
  9 34  1  0
 10 35  1  0
 10 36  1  0
 11 37  1  0
 11 38  1  0
 11 39  1  0
 13 40  1  0
 16 41  1  0
 20 42  1  0
 22 43  1  0
 22 44  1  0
 23 45  1  0
 23 46  1  0
 24 47  1  0
 24 48  1  0
 25 49  1  0
 25 50  1  0
 27 51  1  0
M  END
>  <filename_input>  (1) 
7ZHP_IQY_docked.sdf

>  <pdb_id>  (1) 
7ZHP_IQY

>  <pose_rank>  (1) 
0

>  <num_atoms_heavy>  (1) 
27

>  <num_torsions>  (1) 
4

>  <pose>  (1) 
[71.5667200729976, 38.14815899604192, 0.8152081367015477, -5.5938642657159825, -0.8760195831016587, 2.584793341885605, 8.313482937474488, 10.3588002326038, -4.546529931215557, -0.8277814128998905]

>  <energy>  (1) 
-1448.0720712206876

>  <inter_energy>  (1) 
-1416.371350903356

>  <intra_energy>  (1) 
0.0

>  <rmsd>  (1) 
0.359455

>  <sdf_rank>  (1) 
0

$$$$

     RDKit          3D

 51 54  0  0  0  0  0  0  0  0999 V2000
   71.7482   38.5458    0.4848 N   0  0  0  0  0  0  0  0  0  0  0  0
   67.2091   34.4616    3.8872 C   0  0  2  0  0  0  0  0  0  0  0  0
   73.8893   38.3830   -0.5875 N   0  0  0  0  0  0  0  0  0  0  0  0
   67.5350   36.8141    2.6299 C   0  0  0  0  0  0  0  0  0  0  0  0
   67.6796   38.0645    1.9305 C   0  0  0  0  0  0  0  0  0  0  0  0
   66.6047   38.9644    1.8948 C   0  0  0  0  0  0  0  0  0  0  0  0
   68.2782   34.2332    4.8278 O   0  0  0  0  0  0  0  0  0  0  0  0
   65.8895   34.4925    4.6614 C   0  0  0  0  0  0  0  0  0  0  0  0
   65.7204   33.4010    5.6625 C   0  0  0  0  0  0  0  0  0  0  0  0
   67.2249   33.3379    2.8689 C   0  0  0  0  0  0  0  0  0  0  0  0
   68.6096   32.8978    2.4460 C   0  0  0  0  0  0  0  0  0  0  0  0
   67.4359   35.7582    3.1849 C   0  0  0  0  0  0  0  0  0  0  0  0
   68.9075   38.4061    1.3389 C   0  0  0  0  0  0  0  0  0  0  0  0
   69.0612   39.6610    0.7280 C   0  0  0  0  0  0  0  0  0  0  0  0
   67.9742   40.5539    0.7397 C   0  0  0  0  0  0  0  0  0  0  0  0
   66.7503   40.2153    1.3163 C   0  0  0  0  0  0  0  0  0  0  0  0
   70.1569   40.3338    0.0135 C   0  0  0  0  0  0  0  0  0  0  0  0
   71.4754   39.6537   -0.2231 C   0  0  0  0  0  0  0  0  0  0  0  0
   72.3868   40.1602   -1.1669 C   0  0  0  0  0  0  0  0  0  0  0  0
   73.5820   39.4863   -1.2687 C   0  0  0  0  0  0  0  0  0  0  0  0
   72.9418   37.9488    0.2640 C   0  0  0  0  0  0  0  0  0  0  0  0
   73.1722   36.7974    0.8935 N   0  0  0  0  0  0  0  0  0  0  0  0
   72.1038   41.3104   -2.1025 C   0  0  0  0  0  0  0  0  0  0  0  0
   71.8018   42.6029   -1.3977 C   0  0  0  0  0  0  0  0  0  0  0  0
   70.3122   42.7534   -1.0703 C   0  0  0  0  0  0  0  0  0  0  0  0
   69.6631   41.6130   -0.3449 C   0  0  0  0  0  0  0  0  0  0  0  0
   68.3503   41.7255    0.0941 N   0  0  0  0  0  0  0  0  0  0  0  0
   65.6369   38.6747    2.3301 H   0  0  0  0  0  0  0  0  0  0  0  0
   67.9275   34.3082    5.7505 H   0  0  0  0  0  0  0  0  0  0  0  0
   65.8275   35.4543    5.1915 H   0  0  0  0  0  0  0  0  0  0  0  0
   65.0927   34.3521    3.9162 H   0  0  0  0  0  0  0  0  0  0  0  0
   65.7855   33.8208    6.6771 H   0  0  0  0  0  0  0  0  0  0  0  0
   64.7380   32.9259    5.5245 H   0  0  0  0  0  0  0  0  0  0  0  0
   66.5131   32.6509    5.5245 H   0  0  0  0  0  0  0  0  0  0  0  0
   66.7065   32.4712    3.3048 H   0  0  0  0  0  0  0  0  0  0  0  0
   66.7289   33.7247    1.9665 H   0  0  0  0  0  0  0  0  0  0  0  0
   69.2213   32.7033    3.3393 H   0  0  0  0  0  0  0  0  0  0  0  0
   68.5348   31.9791    1.8456 H   0  0  0  0  0  0  0  0  0  0  0  0
   69.0791   33.6909    1.8456 H   0  0  0  0  0  0  0  0  0  0  0  0
   69.7450   37.6932    1.3542 H   0  0  0  0  0  0  0  0  0  0  0  0
   65.9139   40.9297    1.3119 H   0  0  0  0  0  0  0  0  0  0  0  0
   74.3372   39.8864   -1.9613 H   0  0  0  0  0  0  0  0  0  0  0  0
   74.0668   36.3056    0.7568 H   0  0  0  0  0  0  0  0  0  0  0  0
   72.4556   36.3990    1.5170 H   0  0  0  0  0  0  0  0  0  0  0  0
   72.9852   41.4619   -2.7430 H   0  0  0  0  0  0  0  0  0  0  0  0
   71.2066   41.0419   -2.6795 H   0  0  0  0  0  0  0  0  0  0  0  0
   72.3753   42.6365   -0.4597 H   0  0  0  0  0  0  0  0  0  0  0  0
   72.0830   43.4265   -2.0706 H   0  0  0  0  0  0  0  0  0  0  0  0
   70.1971   43.6529   -0.4478 H   0  0  0  0  0  0  0  0  0  0  0  0
   69.8056   42.8011   -2.0455 H   0  0  0  0  0  0  0  0  0  0  0  0
   67.7481   42.5505   -0.0385 H   0  0  0  0  0  0  0  0  0  0  0  0
  1 18  2  0
  1 21  1  0
  2  7  1  0
  2  8  1  0
  2 10  1  0
  2 12  1  6
  3 20  1  0
  3 21  2  0
  4  5  1  0
  4 12  3  0
  5  6  2  0
  5 13  1  0
  6 16  1  0
  8  9  1  0
 10 11  1  0
 13 14  2  0
 14 15  1  0
 14 17  1  0
 15 16  2  0
 15 27  1  0
 17 18  1  0
 17 26  2  0
 18 19  1  0
 19 20  2  0
 19 23  1  0
 21 22  1  0
 23 24  1  0
 24 25  1  0
 25 26  1  0
 26 27  1  0
  6 28  1  0
  7 29  1  0
  8 30  1  0
  8 31  1  0
  9 32  1  0
  9 33  1  0
  9 34  1  0
 10 35  1  0
 10 36  1  0
 11 37  1  0
 11 38  1  0
 11 39  1  0
 13 40  1  0
 16 41  1  0
 20 42  1  0
 22 43  1  0
 22 44  1  0
 23 45  1  0
 23 46  1  0
 24 47  1  0
 24 48  1  0
 25 49  1  0
 25 50  1  0
 27 51  1  0
M  END
>  <filename_input>  (2) 
7ZHP_IQY_docked.sdf

>  <pdb_id>  (2) 
7ZHP_IQY

>  <pose_rank>  (2) 
1

>  <num_atoms_heavy>  (2) 
27

>  <num_torsions>  (2) 
4

>  <pose>  (2) 
[71.74822203971652, 38.54581827925882, 0.48480911655708125, 0.10254144751091543, 0.05518378796224564, 0.08276716369462563, 0.3623517488857281, 3.280791008996436, 4.007244466448062, -1.959555177910032]

>  <energy>  (2) 
-1136.794071938518

>  <inter_energy>  (2) 
-1128.6611870036566

>  <intra_energy>  (2) 
0.0

>  <rmsd>  (2) 
0.96898

>  <sdf_rank>  (2) 
0

$$$$

     RDKit          3D

 51 54  0  0  0  0  0  0  0  0999 V2000
   66.8993   40.8514    0.3322 N   0  0  0  0  0  0  0  0  0  0  0  0
   66.7368   34.6731    3.6237 C   0  0  2  0  0  0  0  0  0  0  0  0
   65.4933   42.7600   -0.0430 N   0  0  0  0  0  0  0  0  0  0  0  0
   68.3181   36.5422    2.5159 C   0  0  0  0  0  0  0  0  0  0  0  0
   69.1906   37.5141    1.9096 C   0  0  0  0  0  0  0  0  0  0  0  0
   70.5623   37.2418    1.8061 C   0  0  0  0  0  0  0  0  0  0  0  0
   65.4858   35.2598    4.0369 O   0  0  0  0  0  0  0  0  0  0  0  0
   66.4379   33.5973    2.5774 C   0  0  0  0  0  0  0  0  0  0  0  0
   67.5906   32.7184    2.2301 C   0  0  0  0  0  0  0  0  0  0  0  0
   67.4100   34.0810    4.8468 C   0  0  0  0  0  0  0  0  0  0  0  0
   66.5975   34.1856    6.1191 C   0  0  0  0  0  0  0  0  0  0  0  0
   67.6154   35.7335    3.0498 C   0  0  0  0  0  0  0  0  0  0  0  0
   68.6629   38.7005    1.3724 C   0  0  0  0  0  0  0  0  0  0  0  0
   69.5114   39.6046    0.7135 C   0  0  0  0  0  0  0  0  0  0  0  0
   70.8765   39.2852    0.5968 C   0  0  0  0  0  0  0  0  0  0  0  0
   71.4066   38.1141    1.1376 C   0  0  0  0  0  0  0  0  0  0  0  0
   69.3236   40.9123    0.0666 C   0  0  0  0  0  0  0  0  0  0  0  0
   67.9819   41.5875    0.0338 C   0  0  0  0  0  0  0  0  0  0  0  0
   67.8711   42.9518   -0.2891 C   0  0  0  0  0  0  0  0  0  0  0  0
   66.5916   43.4557   -0.3351 C   0  0  0  0  0  0  0  0  0  0  0  0
   65.6985   41.4730    0.2926 C   0  0  0  0  0  0  0  0  0  0  0  0
   64.6360   40.7698    0.6824 N   0  0  0  0  0  0  0  0  0  0  0  0
   69.0409   43.8828   -0.4972 C   0  0  0  0  0  0  0  0  0  0  0  0
   69.9414   43.4784   -1.6304 C   0  0  0  0  0  0  0  0  0  0  0  0
   71.0398   42.5076   -1.1833 C   0  0  0  0  0  0  0  0  0  0  0  0
   70.5974   41.2925   -0.4246 C   0  0  0  0  0  0  0  0  0  0  0  0
   71.5179   40.3069   -0.0926 N   0  0  0  0  0  0  0  0  0  0  0  0
   70.9720   36.3272    2.2598 H   0  0  0  0  0  0  0  0  0  0  0  0
   65.4417   35.2805    5.0257 H   0  0  0  0  0  0  0  0  0  0  0  0
   65.6281   32.9611    2.9640 H   0  0  0  0  0  0  0  0  0  0  0  0
   66.1703   34.1324    1.6543 H   0  0  0  0  0  0  0  0  0  0  0  0
   68.0664   32.3557    3.1532 H   0  0  0  0  0  0  0  0  0  0  0  0
   67.2336   31.8612    1.6404 H   0  0  0  0  0  0  0  0  0  0  0  0
   68.3227   33.2896    1.6404 H   0  0  0  0  0  0  0  0  0  0  0  0
   67.6061   33.0166    4.6502 H   0  0  0  0  0  0  0  0  0  0  0  0
   68.3289   34.6626    5.0121 H   0  0  0  0  0  0  0  0  0  0  0  0
   67.2655   34.0996    6.9888 H   0  0  0  0  0  0  0  0  0  0  0  0
   66.0830   35.1574    6.1467 H   0  0  0  0  0  0  0  0  0  0  0  0
   65.8535   33.3759    6.1467 H   0  0  0  0  0  0  0  0  0  0  0  0
   67.5893   38.9200    1.4677 H   0  0  0  0  0  0  0  0  0  0  0  0
   72.4779   37.8863    1.0351 H   0  0  0  0  0  0  0  0  0  0  0  0
   66.4665   44.5068   -0.6341 H   0  0  0  0  0  0  0  0  0  0  0  0
   63.7005   41.2005    0.6697 H   0  0  0  0  0  0  0  0  0  0  0  0
   64.7503   39.7955    0.9965 H   0  0  0  0  0  0  0  0  0  0  0  0
   68.6504   44.8897   -0.7064 H   0  0  0  0  0  0  0  0  0  0  0  0
   69.6455   43.8493    0.4212 H   0  0  0  0  0  0  0  0  0  0  0  0
   69.3344   42.9917   -2.4080 H   0  0  0  0  0  0  0  0  0  0  0  0
   70.4304   44.3868   -2.0119 H   0  0  0  0  0  0  0  0  0  0  0  0
   71.5676   42.1636   -2.0850 H   0  0  0  0  0  0  0  0  0  0  0  0
   71.6603   43.0790   -0.4772 H   0  0  0  0  0  0  0  0  0  0  0  0
   72.5218   40.3299   -0.3222 H   0  0  0  0  0  0  0  0  0  0  0  0
  1 18  2  0
  1 21  1  0
  2  7  1  0
  2  8  1  0
  2 10  1  0
  2 12  1  6
  3 20  1  0
  3 21  2  0
  4  5  1  0
  4 12  3  0
  5  6  2  0
  5 13  1  0
  6 16  1  0
  8  9  1  0
 10 11  1  0
 13 14  2  0
 14 15  1  0
 14 17  1  0
 15 16  2  0
 15 27  1  0
 17 18  1  0
 17 26  2  0
 18 19  1  0
 19 20  2  0
 19 23  1  0
 21 22  1  0
 23 24  1  0
 24 25  1  0
 25 26  1  0
 26 27  1  0
  6 28  1  0
  7 29  1  0
  8 30  1  0
  8 31  1  0
  9 32  1  0
  9 33  1  0
  9 34  1  0
 10 35  1  0
 10 36  1  0
 11 37  1  0
 11 38  1  0
 11 39  1  0
 13 40  1  0
 16 41  1  0
 20 42  1  0
 22 43  1  0
 22 44  1  0
 23 45  1  0
 23 46  1  0
 24 47  1  0
 24 48  1  0
 25 49  1  0
 25 50  1  0
 27 51  1  0
M  END
>  <filename_input>  (3) 
7ZHP_IQY_docked.sdf

>  <pdb_id>  (3) 
7ZHP_IQY

>  <pose_rank>  (3) 
2

>  <num_atoms_heavy>  (3) 
27

>  <num_torsions>  (3) 
4

>  <pose>  (3) 
[66.89931394258457, 40.85141859499432, 0.3322136581361449, -1.3511043114831867, -2.445737334325522, 1.684175033676319, -1.2248634647331134, 3.6348041678262764, 1.8522670533478378, 5.0596802503160845]

>  <energy>  (3) 
-745.8751263984378

>  <inter_energy>  (3) 
-744.5222077934781

>  <intra_energy>  (3) 
0.0

>  <rmsd>  (3) 
4.35146

>  <sdf_rank>  (3) 
0

$$$$

     RDKit          3D

 51 54  0  0  0  0  0  0  0  0999 V2000
   64.6205   41.0266    2.2158 N   0  0  0  0  0  0  0  0  0  0  0  0
   66.7416   34.6306    4.1462 C   0  0  2  0  0  0  0  0  0  0  0  0
   63.0083   42.6870    2.8518 N   0  0  0  0  0  0  0  0  0  0  0  0
   67.3656   36.8395    2.7488 C   0  0  0  0  0  0  0  0  0  0  0  0
   67.7325   38.0038    1.9850 C   0  0  0  0  0  0  0  0  0  0  0  0
   68.9094   37.9872    1.2226 C   0  0  0  0  0  0  0  0  0  0  0  0
   65.3204   34.5921    4.3877 O   0  0  0  0  0  0  0  0  0  0  0  0
   67.1199   33.3993    3.3202 C   0  0  0  0  0  0  0  0  0  0  0  0
   68.4287   33.4925    2.6129 C   0  0  0  0  0  0  0  0  0  0  0  0
   67.4507   34.6346    5.4867 C   0  0  0  0  0  0  0  0  0  0  0  0
   66.8425   35.5664    6.5123 C   0  0  0  0  0  0  0  0  0  0  0  0
   67.0852   35.8820    3.4101 C   0  0  0  0  0  0  0  0  0  0  0  0
   66.8877   39.1262    1.9567 C   0  0  0  0  0  0  0  0  0  0  0  0
   67.2160   40.2250    1.1465 C   0  0  0  0  0  0  0  0  0  0  0  0
   68.3858   40.1624    0.3676 C   0  0  0  0  0  0  0  0  0  0  0  0
   69.2329   39.0549    0.4005 C   0  0  0  0  0  0  0  0  0  0  0  0
   66.6022   41.5365    0.8877 C   0  0  0  0  0  0  0  0  0  0  0  0
   65.3430   41.9664    1.5853 C   0  0  0  0  0  0  0  0  0  0  0  0
   64.9448   43.3152    1.5840 C   0  0  0  0  0  0  0  0  0  0  0  0
   63.7520   43.5894    2.2128 C   0  0  0  0  0  0  0  0  0  0  0  0
   63.4866   41.4292    2.8341 C   0  0  0  0  0  0  0  0  0  0  0  0
   62.8217   40.5163    3.5408 N   0  0  0  0  0  0  0  0  0  0  0  0
   65.7653   44.4524    1.0255 C   0  0  0  0  0  0  0  0  0  0  0  0
   66.0546   44.3247   -0.4437 C   0  0  0  0  0  0  0  0  0  0  0  0
   67.3310   43.5221   -0.7182 C   0  0  0  0  0  0  0  0  0  0  0  0
   67.4383   42.1800   -0.0586 C   0  0  0  0  0  0  0  0  0  0  0  0
   68.5063   41.3431   -0.3550 N   0  0  0  0  0  0  0  0  0  0  0  0
   69.5820   37.1185    1.2777 H   0  0  0  0  0  0  0  0  0  0  0  0
   65.1514   34.5876    5.3631 H   0  0  0  0  0  0  0  0  0  0  0  0
   67.1589   32.5332    3.9972 H   0  0  0  0  0  0  0  0  0  0  0  0
   66.3531   33.3074    2.5369 H   0  0  0  0  0  0  0  0  0  0  0  0
   69.2415   33.5504    3.3518 H   0  0  0  0  0  0  0  0  0  0  0  0
   68.5691   32.6021    1.9825 H   0  0  0  0  0  0  0  0  0  0  0  0
   68.4414   34.3939    1.9825 H   0  0  0  0  0  0  0  0  0  0  0  0
   67.4252   33.6125    5.8925 H   0  0  0  0  0  0  0  0  0  0  0  0
   68.4726   34.9964    5.3005 H   0  0  0  0  0  0  0  0  0  0  0  0
   67.0793   35.2036    7.5234 H   0  0  0  0  0  0  0  0  0  0  0  0
   67.2551   36.5774    6.3795 H   0  0  0  0  0  0  0  0  0  0  0  0
   65.7509   35.5955    6.3795 H   0  0  0  0  0  0  0  0  0  0  0  0
   65.9727   39.1441    2.5670 H   0  0  0  0  0  0  0  0  0  0  0  0
   70.1433   39.0293   -0.2163 H   0  0  0  0  0  0  0  0  0  0  0  0
   63.3866   44.6266    2.1861 H   0  0  0  0  0  0  0  0  0  0  0  0
   61.9528   40.7757    4.0293 H   0  0  0  0  0  0  0  0  0  0  0  0
   63.1765   39.5510    3.5987 H   0  0  0  0  0  0  0  0  0  0  0  0
   65.2159   45.3909    1.1908 H   0  0  0  0  0  0  0  0  0  0  0  0
   66.7341   44.4355    1.5463 H   0  0  0  0  0  0  0  0  0  0  0  0
   65.2071   43.8177   -0.9282 H   0  0  0  0  0  0  0  0  0  0  0  0
   66.2010   45.3376   -0.8469 H   0  0  0  0  0  0  0  0  0  0  0  0
   67.3990   43.3657   -1.8049 H   0  0  0  0  0  0  0  0  0  0  0  0
   68.1470   44.1214   -0.2881 H   0  0  0  0  0  0  0  0  0  0  0  0
   69.2701   41.5637   -1.0098 H   0  0  0  0  0  0  0  0  0  0  0  0
  1 18  2  0
  1 21  1  0
  2  7  1  0
  2  8  1  0
  2 10  1  0
  2 12  1  6
  3 20  1  0
  3 21  2  0
  4  5  1  0
  4 12  3  0
  5  6  2  0
  5 13  1  0
  6 16  1  0
  8  9  1  0
 10 11  1  0
 13 14  2  0
 14 15  1  0
 14 17  1  0
 15 16  2  0
 15 27  1  0
 17 18  1  0
 17 26  2  0
 18 19  1  0
 19 20  2  0
 19 23  1  0
 21 22  1  0
 23 24  1  0
 24 25  1  0
 25 26  1  0
 26 27  1  0
  6 28  1  0
  7 29  1  0
  8 30  1  0
  8 31  1  0
  9 32  1  0
  9 33  1  0
  9 34  1  0
 10 35  1  0
 10 36  1  0
 11 37  1  0
 11 38  1  0
 11 39  1  0
 13 40  1  0
 16 41  1  0
 20 42  1  0
 22 43  1  0
 22 44  1  0
 23 45  1  0
 23 46  1  0
 24 47  1  0
 24 48  1  0
 25 49  1  0
 25 50  1  0
 27 51  1  0
M  END
>  <filename_input>  (4) 
7ZHP_IQY_docked.sdf

>  <pdb_id>  (4) 
7ZHP_IQY

>  <pose_rank>  (4) 
3

>  <num_atoms_heavy>  (4) 
27

>  <num_torsions>  (4) 
4

>  <pose>  (4) 
[64.62046330740705, 41.02659552730614, 2.2158173445828764, 0.7584061126978994, 2.721576733521901, -1.8346262877671695, 5.524264351137049, -2.3692684485868543, -4.951421458135433, -2.0448729178936356]

>  <energy>  (4) 
-762.2381699464809

>  <inter_energy>  (4) 
-746.7464048774424

>  <intra_energy>  (4) 
2.446534990704868

>  <rmsd>  (4) 
5.66759

>  <sdf_rank>  (4) 
0

$$$$

     RDKit          3D

 51 54  0  0  0  0  0  0  0  0999 V2000
   71.1034   40.1275   -0.8044 N   0  0  0  0  0  0  0  0  0  0  0  0
   65.5385   44.2732   -0.8486 C   0  0  2  0  0  0  0  0  0  0  0  0
   73.4306   40.2287   -1.3828 N   0  0  0  0  0  0  0  0  0  0  0  0
   66.5138   41.9715    0.1373 C   0  0  0  0  0  0  0  0  0  0  0  0
   67.0690   40.7584    0.6793 C   0  0  0  0  0  0  0  0  0  0  0  0
   66.2672   39.9264    1.4739 C   0  0  0  0  0  0  0  0  0  0  0  0
   64.8599   44.0555   -2.1024 O   0  0  0  0  0  0  0  0  0  0  0  0
   64.5334   44.8631    0.1430 C   0  0  0  0  0  0  0  0  0  0  0  0
   63.1064   44.5340   -0.1351 C   0  0  0  0  0  0  0  0  0  0  0  0
   66.6944   45.2238   -1.0936 C   0  0  0  0  0  0  0  0  0  0  0  0
   66.2814   46.6578   -1.3447 C   0  0  0  0  0  0  0  0  0  0  0  0
   66.0741   42.9756   -0.3435 C   0  0  0  0  0  0  0  0  0  0  0  0
   68.3859   40.3816    0.3659 C   0  0  0  0  0  0  0  0  0  0  0  0
   68.8908   39.1583    0.8351 C   0  0  0  0  0  0  0  0  0  0  0  0
   68.0492   38.3310    1.6009 C   0  0  0  0  0  0  0  0  0  0  0  0
   66.7451   38.7056    1.9234 C   0  0  0  0  0  0  0  0  0  0  0  0
   70.1845   38.4664    0.7277 C   0  0  0  0  0  0  0  0  0  0  0  0
   71.3469   39.0814    0.0013 C   0  0  0  0  0  0  0  0  0  0  0  0
   72.6494   38.5795    0.1732 C   0  0  0  0  0  0  0  0  0  0  0  0
   73.6305   39.1875   -0.5756 C   0  0  0  0  0  0  0  0  0  0  0  0
   72.1599   40.6661   -1.4554 C   0  0  0  0  0  0  0  0  0  0  0  0
   71.9350   41.7627   -2.1778 N   0  0  0  0  0  0  0  0  0  0  0  0
   73.0322   37.5052    1.1621 C   0  0  0  0  0  0  0  0  0  0  0  0
   72.3380   36.1930    0.9282 C   0  0  0  0  0  0  0  0  0  0  0  0
   70.9896   36.1104    1.6519 C   0  0  0  0  0  0  0  0  0  0  0  0
   70.0322   37.2416    1.4244 C   0  0  0  0  0  0  0  0  0  0  0  0
   68.7467   37.1799    1.9462 N   0  0  0  0  0  0  0  0  0  0  0  0
   65.2495   40.2456    1.7428 H   0  0  0  0  0  0  0  0  0  0  0  0
   63.9320   43.7578   -1.9280 H   0  0  0  0  0  0  0  0  0  0  0  0
   64.7816   44.4853    1.1458 H   0  0  0  0  0  0  0  0  0  0  0  0
   64.6196   45.9562    0.0543 H   0  0  0  0  0  0  0  0  0  0  0  0
   62.5669   44.4096    0.8154 H   0  0  0  0  0  0  0  0  0  0  0  0
   62.6478   45.3500   -0.7129 H   0  0  0  0  0  0  0  0  0  0  0  0
   63.0515   43.5996   -0.7129 H   0  0  0  0  0  0  0  0  0  0  0  0
   67.3494   45.2041   -0.2101 H   0  0  0  0  0  0  0  0  0  0  0  0
   67.1978   44.8772   -2.0081 H   0  0  0  0  0  0  0  0  0  0  0  0
   66.1336   47.1706   -0.3828 H   0  0  0  0  0  0  0  0  0  0  0  0
   67.0681   47.1712   -1.9169 H   0  0  0  0  0  0  0  0  0  0  0  0
   65.3420   46.6740   -1.9169 H   0  0  0  0  0  0  0  0  0  0  0  0
   69.0188   41.0424   -0.2447 H   0  0  0  0  0  0  0  0  0  0  0  0
   66.1060   38.0427    2.5251 H   0  0  0  0  0  0  0  0  0  0  0  0
   74.6520   38.7859   -0.5028 H   0  0  0  0  0  0  0  0  0  0  0  0
   72.7085   42.2088   -2.6912 H   0  0  0  0  0  0  0  0  0  0  0  0
   70.9877   42.1645   -2.2228 H   0  0  0  0  0  0  0  0  0  0  0  0
   74.1176   37.3409    1.0934 H   0  0  0  0  0  0  0  0  0  0  0  0
   72.7232   37.8593    2.1567 H   0  0  0  0  0  0  0  0  0  0  0  0
   72.1679   36.0705   -0.1516 H   0  0  0  0  0  0  0  0  0  0  0  0
   72.9828   35.3958    1.3267 H   0  0  0  0  0  0  0  0  0  0  0  0
   70.4936   35.1837    1.3275 H   0  0  0  0  0  0  0  0  0  0  0  0
   71.2341   36.1501    2.7236 H   0  0  0  0  0  0  0  0  0  0  0  0
   68.3684   36.4007    2.5035 H   0  0  0  0  0  0  0  0  0  0  0  0
  1 18  2  0
  1 21  1  0
  2  7  1  0
  2  8  1  0
  2 10  1  0
  2 12  1  1
  3 20  1  0
  3 21  2  0
  4  5  1  0
  4 12  3  0
  5  6  2  0
  5 13  1  0
  6 16  1  0
  8  9  1  0
 10 11  1  0
 13 14  2  0
 14 15  1  0
 14 17  1  0
 15 16  2  0
 15 27  1  0
 17 18  1  0
 17 26  2  0
 18 19  1  0
 19 20  2  0
 19 23  1  0
 21 22  1  0
 23 24  1  0
 24 25  1  0
 25 26  1  0
 26 27  1  0
  6 28  1  0
  7 29  1  0
  8 30  1  0
  8 31  1  0
  9 32  1  0
  9 33  1  0
  9 34  1  0
 10 35  1  0
 10 36  1  0
 11 37  1  0
 11 38  1  0
 11 39  1  0
 13 40  1  0
 16 41  1  0
 20 42  1  0
 22 43  1  0
 22 44  1  0
 23 45  1  0
 23 46  1  0
 24 47  1  0
 24 48  1  0
 25 49  1  0
 25 50  1  0
 27 51  1  0
M  END
>  <filename_input>  (5) 
7ZHP_IQY_docked.sdf

>  <pdb_id>  (5) 
7ZHP_IQY

>  <pose_rank>  (5) 
4

>  <num_atoms_heavy>  (5) 
27

>  <num_torsions>  (5) 
4

>  <pose>  (5) 
[71.1034131242576, 40.12754173290059, -0.8043917880714769, -2.9812836822555435, 0.22830961320544518, 0.9927654249242265, 1.571444966125319, 2.8174324420874366, -1.037493376545792, -0.009842163164638715]

>  <energy>  (5) 
-702.7186940226285

>  <inter_energy>  (5) 
-686.2226057587201

>  <intra_energy>  (5) 
0.0

>  <rmsd>  (5) 
6.7821

>  <sdf_rank>  (5) 
0

$$$$

     RDKit          3D

 51 54  0  0  0  0  0  0  0  0999 V2000
   66.4586   41.3928    0.4552 N   0  0  0  0  0  0  0  0  0  0  0  0
   67.1495   35.2074    3.6343 C   0  0  2  0  0  0  0  0  0  0  0  0
   65.0216   43.3148    0.4946 N   0  0  0  0  0  0  0  0  0  0  0  0
   68.3968   37.0637    2.1444 C   0  0  0  0  0  0  0  0  0  0  0  0
   69.0713   38.0303    1.3172 C   0  0  0  0  0  0  0  0  0  0  0  0
   70.3552   37.7465    0.8299 C   0  0  0  0  0  0  0  0  0  0  0  0
   67.7663   35.0798    4.9317 O   0  0  0  0  0  0  0  0  0  0  0  0
   65.6855   35.6032    3.8377 C   0  0  0  0  0  0  0  0  0  0  0  0
   65.3834   37.0438    3.6019 C   0  0  0  0  0  0  0  0  0  0  0  0
   67.2665   33.8747    2.9202 C   0  0  0  0  0  0  0  0  0  0  0  0
   68.5850   33.6606    2.2092 C   0  0  0  0  0  0  0  0  0  0  0  0
   67.8695   36.2480    2.8439 C   0  0  0  0  0  0  0  0  0  0  0  0
   68.4243   39.2231    0.9523 C   0  0  0  0  0  0  0  0  0  0  0  0
   69.0603   40.1222    0.0813 C   0  0  0  0  0  0  0  0  0  0  0  0
   70.3337   39.7915   -0.4168 C   0  0  0  0  0  0  0  0  0  0  0  0
   70.9842   38.6139   -0.0491 C   0  0  0  0  0  0  0  0  0  0  0  0
   68.7094   41.4337   -0.4848 C   0  0  0  0  0  0  0  0  0  0  0  0
   67.4195   42.1206   -0.1364 C   0  0  0  0  0  0  0  0  0  0  0  0
   67.2346   43.4870   -0.4134 C   0  0  0  0  0  0  0  0  0  0  0  0
   65.9990   44.0020   -0.0953 C   0  0  0  0  0  0  0  0  0  0  0  0
   65.3014   42.0248    0.7572 C   0  0  0  0  0  0  0  0  0  0  0  0
   64.3860   41.3295    1.4307 N   0  0  0  0  0  0  0  0  0  0  0  0
   68.3065   44.4086   -0.9428 C   0  0  0  0  0  0  0  0  0  0  0  0
   68.8461   44.0005   -2.2847 C   0  0  0  0  0  0  0  0  0  0  0  0
   70.0171   43.0188   -2.1673 C   0  0  0  0  0  0  0  0  0  0  0  0
   69.7959   41.8047   -1.3157 C   0  0  0  0  0  0  0  0  0  0  0  0
   70.7636   40.8101   -1.2585 N   0  0  0  0  0  0  0  0  0  0  0  0
   70.8679   36.8269    1.1484 H   0  0  0  0  0  0  0  0  0  0  0  0
   67.0851   35.2207    5.6361 H   0  0  0  0  0  0  0  0  0  0  0  0
   65.0718   35.0082    3.1453 H   0  0  0  0  0  0  0  0  0  0  0  0
   65.4596   35.4113    4.8970 H   0  0  0  0  0  0  0  0  0  0  0  0
   65.2755   37.5587    4.5679 H   0  0  0  0  0  0  0  0  0  0  0  0
   66.2050   37.5022    3.0319 H   0  0  0  0  0  0  0  0  0  0  0  0
   64.4469   37.1336    3.0319 H   0  0  0  0  0  0  0  0  0  0  0  0
   67.1425   33.0737    3.6639 H   0  0  0  0  0  0  0  0  0  0  0  0
   66.4861   33.8642    2.1450 H   0  0  0  0  0  0  0  0  0  0  0  0
   69.3855   33.5306    2.9523 H   0  0  0  0  0  0  0  0  0  0  0  0
   68.5200   32.7613    1.5791 H   0  0  0  0  0  0  0  0  0  0  0  0
   68.8079   34.5343    1.5791 H   0  0  0  0  0  0  0  0  0  0  0  0
   67.4234   39.4515    1.3474 H   0  0  0  0  0  0  0  0  0  0  0  0
   71.9807   38.3773   -0.4505 H   0  0  0  0  0  0  0  0  0  0  0  0
   65.8042   45.0553   -0.3457 H   0  0  0  0  0  0  0  0  0  0  0  0
   63.4890   41.7682    1.6834 H   0  0  0  0  0  0  0  0  0  0  0  0
   64.5753   40.3531    1.6988 H   0  0  0  0  0  0  0  0  0  0  0  0
   67.8821   45.4195   -1.0321 H   0  0  0  0  0  0  0  0  0  0  0  0
   69.1456   44.3666   -0.2328 H   0  0  0  0  0  0  0  0  0  0  0  0
   68.0396   43.5218   -2.8595 H   0  0  0  0  0  0  0  0  0  0  0  0
   69.2158   44.9061   -2.7880 H   0  0  0  0  0  0  0  0  0  0  0  0
   70.2653   42.6734   -3.1818 H   0  0  0  0  0  0  0  0  0  0  0  0
   70.8171   43.5822   -1.6648 H   0  0  0  0  0  0  0  0  0  0  0  0
   71.6618   40.8253   -1.7624 H   0  0  0  0  0  0  0  0  0  0  0  0
  1 18  2  0
  1 21  1  0
  2  7  1  0
  2  8  1  0
  2 10  1  0
  2 12  1  6
  3 20  1  0
  3 21  2  0
  4  5  1  0
  4 12  3  0
  5  6  2  0
  5 13  1  0
  6 16  1  0
  8  9  1  0
 10 11  1  0
 13 14  2  0
 14 15  1  0
 14 17  1  0
 15 16  2  0
 15 27  1  0
 17 18  1  0
 17 26  2  0
 18 19  1  0
 19 20  2  0
 19 23  1  0
 21 22  1  0
 23 24  1  0
 24 25  1  0
 25 26  1  0
 26 27  1  0
  6 28  1  0
  7 29  1  0
  8 30  1  0
  8 31  1  0
  9 32  1  0
  9 33  1  0
  9 34  1  0
 10 35  1  0
 10 36  1  0
 11 37  1  0
 11 38  1  0
 11 39  1  0
 13 40  1  0
 16 41  1  0
 20 42  1  0
 22 43  1  0
 22 44  1  0
 23 45  1  0
 23 46  1  0
 24 47  1  0
 24 48  1  0
 25 49  1  0
 25 50  1  0
 27 51  1  0
M  END
>  <filename_input>  (6) 
7ZHP_IQY_docked.sdf

>  <pdb_id>  (6) 
7ZHP_IQY

>  <pose_rank>  (6) 
5

>  <num_atoms_heavy>  (6) 
27

>  <num_torsions>  (6) 
4

>  <pose>  (6) 
[66.45862033730045, 41.39282881343504, 0.4551738695967247, 1.1002396548826874, 2.427505493786272, -1.8448417877729621, -1.6471476360561175, 2.4764697910521765, 0.30471623114679525, -2.7416293021737745]

>  <energy>  (6) 
-591.8685068479032

>  <inter_energy>  (6) 
-601.8683687756343

>  <intra_energy>  (6) 
10.734762187097875

>  <rmsd>  (6) 
4.81093

>  <sdf_rank>  (6) 
0

$$$$

     RDKit          3D

 51 54  0  0  0  0  0  0  0  0999 V2000
   67.5842   39.9755    1.0980 N   0  0  0  0  0  0  0  0  0  0  0  0
   61.0347   42.4195    1.3069 C   0  0  2  0  0  0  0  0  0  0  0  0
   68.7700   37.9189    1.4513 N   0  0  0  0  0  0  0  0  0  0  0  0
   63.5354   42.8966    0.4464 C   0  0  0  0  0  0  0  0  0  0  0  0
   64.8606   43.1589   -0.0521 C   0  0  0  0  0  0  0  0  0  0  0  0
   65.1256   44.3712   -0.7053 C   0  0  0  0  0  0  0  0  0  0  0  0
   61.0144   42.3025    2.7442 O   0  0  0  0  0  0  0  0  0  0  0  0
   60.1437   43.5987    0.9105 C   0  0  0  0  0  0  0  0  0  0  0  0
   60.2109   43.9836   -0.5281 C   0  0  0  0  0  0  0  0  0  0  0  0
   60.5231   41.1191    0.7178 C   0  0  0  0  0  0  0  0  0  0  0  0
   59.9636   41.2452   -0.6825 C   0  0  0  0  0  0  0  0  0  0  0  0
   62.4365   42.6435    0.8480 C   0  0  0  0  0  0  0  0  0  0  0  0
   65.8945   42.2329    0.1664 C   0  0  0  0  0  0  0  0  0  0  0  0
   67.1998   42.5340   -0.2545 C   0  0  0  0  0  0  0  0  0  0  0  0
   67.4386   43.7733   -0.8758 C   0  0  0  0  0  0  0  0  0  0  0  0
   66.4137   44.6911   -1.1044 C   0  0  0  0  0  0  0  0  0  0  0  0
   68.4869   41.8229   -0.2148 C   0  0  0  0  0  0  0  0  0  0  0  0
   68.6021   40.4370    0.3538 C   0  0  0  0  0  0  0  0  0  0  0  0
   69.7386   39.6481    0.1011 C   0  0  0  0  0  0  0  0  0  0  0  0
   69.7598   38.4141    0.7092 C   0  0  0  0  0  0  0  0  0  0  0  0
   67.7061   38.7282    1.6073 C   0  0  0  0  0  0  0  0  0  0  0  0
   66.6573   38.2335    2.2633 N   0  0  0  0  0  0  0  0  0  0  0  0
   70.8586   40.0308   -0.8358 C   0  0  0  0  0  0  0  0  0  0  0  0
   71.5715   41.2937   -0.4417 C   0  0  0  0  0  0  0  0  0  0  0  0
   70.9092   42.5441   -1.0304 C   0  0  0  0  0  0  0  0  0  0  0  0
   69.4355   42.6975   -0.8011 C   0  0  0  0  0  0  0  0  0  0  0  0
   68.7878   43.8606   -1.1967 N   0  0  0  0  0  0  0  0  0  0  0  0
   64.3034   45.0748   -0.9028 H   0  0  0  0  0  0  0  0  0  0  0  0
   61.1690   43.1923    3.1499 H   0  0  0  0  0  0  0  0  0  0  0  0
   59.1022   43.3330    1.1443 H   0  0  0  0  0  0  0  0  0  0  0  0
   60.5114   44.4661    1.4782 H   0  0  0  0  0  0  0  0  0  0  0  0
   60.3993   45.0643   -0.6101 H   0  0  0  0  0  0  0  0  0  0  0  0
   61.0262   43.4311   -1.0179 H   0  0  0  0  0  0  0  0  0  0  0  0
   59.2566   43.7396   -1.0179 H   0  0  0  0  0  0  0  0  0  0  0  0
   61.3564   40.4016    0.6921 H   0  0  0  0  0  0  0  0  0  0  0  0
   59.6928   40.7889    1.3593 H   0  0  0  0  0  0  0  0  0  0  0  0
   58.8918   41.4868   -0.6288 H   0  0  0  0  0  0  0  0  0  0  0  0
   60.4936   42.0465   -1.2184 H   0  0  0  0  0  0  0  0  0  0  0  0
   60.0987   40.2941   -1.2184 H   0  0  0  0  0  0  0  0  0  0  0  0
   65.6822   41.2758    0.6653 H   0  0  0  0  0  0  0  0  0  0  0  0
   66.6243   45.6535   -1.5936 H   0  0  0  0  0  0  0  0  0  0  0  0
   70.6570   37.7924    0.5732 H   0  0  0  0  0  0  0  0  0  0  0  0
   66.7028   37.2878    2.6688 H   0  0  0  0  0  0  0  0  0  0  0  0
   65.8010   38.7968    2.3650 H   0  0  0  0  0  0  0  0  0  0  0  0
   71.5909   39.2102   -0.8548 H   0  0  0  0  0  0  0  0  0  0  0  0
   70.4051   40.2120   -1.8214 H   0  0  0  0  0  0  0  0  0  0  0  0
   71.5674   41.3746    0.6553 H   0  0  0  0  0  0  0  0  0  0  0  0
   72.5966   41.2385   -0.8370 H   0  0  0  0  0  0  0  0  0  0  0  0
   71.4075   43.4221   -0.5935 H   0  0  0  0  0  0  0  0  0  0  0  0
   71.0233   42.4455   -2.1200 H   0  0  0  0  0  0  0  0  0  0  0  0
   69.2382   44.6643   -1.6572 H   0  0  0  0  0  0  0  0  0  0  0  0
  1 18  2  0
  1 21  1  0
  2  7  1  0
  2  8  1  0
  2 10  1  0
  2 12  1  6
  3 20  1  0
  3 21  2  0
  4  5  1  0
  4 12  3  0
  5  6  2  0
  5 13  1  0
  6 16  1  0
  8  9  1  0
 10 11  1  0
 13 14  2  0
 14 15  1  0
 14 17  1  0
 15 16  2  0
 15 27  1  0
 17 18  1  0
 17 26  2  0
 18 19  1  0
 19 20  2  0
 19 23  1  0
 21 22  1  0
 23 24  1  0
 24 25  1  0
 25 26  1  0
 26 27  1  0
  6 28  1  0
  7 29  1  0
  8 30  1  0
  8 31  1  0
  9 32  1  0
  9 33  1  0
  9 34  1  0
 10 35  1  0
 10 36  1  0
 11 37  1  0
 11 38  1  0
 11 39  1  0
 13 40  1  0
 16 41  1  0
 20 42  1  0
 22 43  1  0
 22 44  1  0
 23 45  1  0
 23 46  1  0
 24 47  1  0
 24 48  1  0
 25 49  1  0
 25 50  1  0
 27 51  1  0
M  END
>  <filename_input>  (7) 
7ZHP_IQY_docked.sdf

>  <pdb_id>  (7) 
7ZHP_IQY

>  <pose_rank>  (7) 
6

>  <num_atoms_heavy>  (7) 
27

>  <num_torsions>  (7) 
4

>  <pose>  (7) 
[67.58424855076605, 39.97549094939996, 1.0980443725343, -0.20878737366267983, -0.5373071760529464, -0.8407580023203912, 0.25787583881527587, -2.687394973570074, -11.054034692828743, 7.74157539044587]

>  <energy>  (7) 
-387.33344364554523

>  <inter_energy>  (7) 
-412.8666790023888

>  <intra_energy>  (7) 
33.690187183590496

>  <rmsd>  (7) 
6.63208

>  <sdf_rank>  (7) 
0

$$$$

     RDKit          3D

 51 54  0  0  0  0  0  0  0  0999 V2000
   71.5964   38.0227    0.7270 N   0  0  0  0  0  0  0  0  0  0  0  0
   66.4527   34.9119    4.3199 C   0  0  2  0  0  0  0  0  0  0  0  0
   73.7313   37.4892   -0.2311 N   0  0  0  0  0  0  0  0  0  0  0  0
   67.1311   37.0501    2.8404 C   0  0  0  0  0  0  0  0  0  0  0  0
   67.4565   38.1974    2.0332 C   0  0  0  0  0  0  0  0  0  0  0  0
   66.5074   39.2161    1.8661 C   0  0  0  0  0  0  0  0  0  0  0  0
   66.7842   35.1743    5.6987 O   0  0  0  0  0  0  0  0  0  0  0  0
   64.9416   34.6899    4.2254 C   0  0  0  0  0  0  0  0  0  0  0  0
   64.3711   33.7866    5.2649 C   0  0  0  0  0  0  0  0  0  0  0  0
   67.2198   33.6824    3.8732 C   0  0  0  0  0  0  0  0  0  0  0  0
   67.0909   33.3672    2.3988 C   0  0  0  0  0  0  0  0  0  0  0  0
   66.8657   36.0747    3.4813 C   0  0  0  0  0  0  0  0  0  0  0  0
   68.7359   38.3231    1.4660 C   0  0  0  0  0  0  0  0  0  0  0  0
   69.0681   39.4824    0.7468 C   0  0  0  0  0  0  0  0  0  0  0  0
   68.1047   40.5005    0.6269 C   0  0  0  0  0  0  0  0  0  0  0  0
   66.8301   40.3756    1.1790 C   0  0  0  0  0  0  0  0  0  0  0  0
   70.2628   39.9394    0.0204 C   0  0  0  0  0  0  0  0  0  0  0  0
   71.4900   39.0803   -0.0935 C   0  0  0  0  0  0  0  0  0  0  0  0
   72.4878   39.3735   -1.0402 C   0  0  0  0  0  0  0  0  0  0  0  0
   73.5894   38.5491   -1.0260 C   0  0  0  0  0  0  0  0  0  0  0  0
   72.7099   37.2628    0.6156 C   0  0  0  0  0  0  0  0  0  0  0  0
   72.7710   36.1597    1.3603 N   0  0  0  0  0  0  0  0  0  0  0  0
   72.3839   40.4516   -2.0916 C   0  0  0  0  0  0  0  0  0  0  0  0
   72.2282   41.8350   -1.5256 C   0  0  0  0  0  0  0  0  0  0  0  0
   70.7607   42.2014   -1.2789 C   0  0  0  0  0  0  0  0  0  0  0  0
   69.9485   41.2283   -0.4781 C   0  0  0  0  0  0  0  0  0  0  0  0
   68.6479   41.5463   -0.1093 N   0  0  0  0  0  0  0  0  0  0  0  0
   65.4974   39.0938    2.2842 H   0  0  0  0  0  0  0  0  0  0  0  0
   66.1604   34.6805    6.2878 H   0  0  0  0  0  0  0  0  0  0  0  0
   64.4468   35.6682    4.3146 H   0  0  0  0  0  0  0  0  0  0  0  0
   64.7634   34.1967    3.2584 H   0  0  0  0  0  0  0  0  0  0  0  0
   64.6169   34.1759    6.2639 H   0  0  0  0  0  0  0  0  0  0  0  0
   63.2782   33.7383    5.1490 H   0  0  0  0  0  0  0  0  0  0  0  0
   64.7969   32.7790    5.1490 H   0  0  0  0  0  0  0  0  0  0  0  0
   68.2846   33.8401    4.0996 H   0  0  0  0  0  0  0  0  0  0  0  0
   66.7882   32.8285    4.4159 H   0  0  0  0  0  0  0  0  0  0  0  0
   66.6770   32.3556    2.2749 H   0  0  0  0  0  0  0  0  0  0  0  0
   66.4196   34.0985    1.9249 H   0  0  0  0  0  0  0  0  0  0  0  0
   68.0822   33.4184    1.9249 H   0  0  0  0  0  0  0  0  0  0  0  0
   69.4743   37.5165    1.5849 H   0  0  0  0  0  0  0  0  0  0  0  0
   66.0927   41.1846    1.0709 H   0  0  0  0  0  0  0  0  0  0  0  0
   74.4109   38.7816   -1.7196 H   0  0  0  0  0  0  0  0  0  0  0  0
   73.5991   35.5493    1.3096 H   0  0  0  0  0  0  0  0  0  0  0  0
   71.9902   35.9175    1.9868 H   0  0  0  0  0  0  0  0  0  0  0  0
   73.2970   40.4279   -2.7045 H   0  0  0  0  0  0  0  0  0  0  0  0
   71.4781   40.2410   -2.6792 H   0  0  0  0  0  0  0  0  0  0  0  0
   72.7717   41.8897   -0.5708 H   0  0  0  0  0  0  0  0  0  0  0  0
   72.6335   42.5464   -2.2603 H   0  0  0  0  0  0  0  0  0  0  0  0
   70.7425   43.1656   -0.7496 H   0  0  0  0  0  0  0  0  0  0  0  0
   70.2950   42.2151   -2.2754 H   0  0  0  0  0  0  0  0  0  0  0  0
   68.1608   42.4227   -0.3452 H   0  0  0  0  0  0  0  0  0  0  0  0
  1 18  2  0
  1 21  1  0
  2  7  1  0
  2  8  1  0
  2 10  1  0
  2 12  1  6
  3 20  1  0
  3 21  2  0
  4  5  1  0
  4 12  3  0
  5  6  2  0
  5 13  1  0
  6 16  1  0
  8  9  1  0
 10 11  1  0
 13 14  2  0
 14 15  1  0
 14 17  1  0
 15 16  2  0
 15 27  1  0
 17 18  1  0
 17 26  2  0
 18 19  1  0
 19 20  2  0
 19 23  1  0
 21 22  1  0
 23 24  1  0
 24 25  1  0
 25 26  1  0
 26 27  1  0
  6 28  1  0
  7 29  1  0
  8 30  1  0
  8 31  1  0
  9 32  1  0
  9 33  1  0
  9 34  1  0
 10 35  1  0
 10 36  1  0
 11 37  1  0
 11 38  1  0
 11 39  1  0
 13 40  1  0
 16 41  1  0
 20 42  1  0
 22 43  1  0
 22 44  1  0
 23 45  1  0
 23 46  1  0
 24 47  1  0
 24 48  1  0
 25 49  1  0
 25 50  1  0
 27 51  1  0
M  END
>  <filename_input>  (8) 
7ZHP_IQY_docked.sdf

>  <pdb_id>  (8) 
7ZHP_IQY

>  <pose_rank>  (8) 
7

>  <num_atoms_heavy>  (8) 
27

>  <num_torsions>  (8) 
4

>  <pose>  (8) 
[71.59637608842107, 38.02272068708599, 0.7269725185238052, 0.9673660152725414, 1.995816375531153, -5.929792448473013, -0.06358557506080163, -1.8839070518056562, -2.278193195506436, -4.308434669748502]

>  <energy>  (8) 
-1225.2750349472253

>  <inter_energy>  (8) 
-1217.0554683761002

>  <intra_energy>  (8) 
0.24570460184850182

>  <rmsd>  (8) 
0.881184

>  <sdf_rank>  (8) 
0

$$$$

     RDKit          3D

 51 54  0  0  0  0  0  0  0  0999 V2000
   66.9949   43.9269   -0.8663 N   0  0  0  0  0  0  0  0  0  0  0  0
   72.5533   39.7982   -0.8419 C   0  0  2  0  0  0  0  0  0  0  0  0
   66.1179   45.7629   -2.1393 N   0  0  0  0  0  0  0  0  0  0  0  0
   70.0469   40.0398    0.0965 C   0  0  0  0  0  0  0  0  0  0  0  0
   68.7058   40.2095    0.5928 C   0  0  0  0  0  0  0  0  0  0  0  0
   68.1857   39.2834    1.5085 C   0  0  0  0  0  0  0  0  0  0  0  0
   73.4405   40.6624   -0.1031 O   0  0  0  0  0  0  0  0  0  0  0  0
   73.0708   38.3635   -0.7186 C   0  0  0  0  0  0  0  0  0  0  0  0
   72.8159   37.7125    0.5980 C   0  0  0  0  0  0  0  0  0  0  0  0
   72.5389   40.2570   -2.2873 C   0  0  0  0  0  0  0  0  0  0  0  0
   72.9413   39.1924   -3.2846 C   0  0  0  0  0  0  0  0  0  0  0  0
   71.1747   39.9088   -0.2824 C   0  0  0  0  0  0  0  0  0  0  0  0
   67.9455   41.3268    0.2082 C   0  0  0  0  0  0  0  0  0  0  0  0
   66.6691   41.5239    0.7593 C   0  0  0  0  0  0  0  0  0  0  0  0
   66.1908   40.5948    1.7011 C   0  0  0  0  0  0  0  0  0  0  0  0
   66.9374   39.4788    2.0779 C   0  0  0  0  0  0  0  0  0  0  0  0
   65.6139   42.5336    0.5838 C   0  0  0  0  0  0  0  0  0  0  0  0
   65.7674   43.6707   -0.3860 C   0  0  0  0  0  0  0  0  0  0  0  0
   64.6539   44.4323   -0.7835 C   0  0  0  0  0  0  0  0  0  0  0  0
   64.9164   45.4781   -1.6383 C   0  0  0  0  0  0  0  0  0  0  0  0
   67.1170   44.9575   -1.7339 C   0  0  0  0  0  0  0  0  0  0  0  0
   68.3147   45.1507   -2.2847 N   0  0  0  0  0  0  0  0  0  0  0  0
   63.2249   44.1257   -0.4062 C   0  0  0  0  0  0  0  0  0  0  0  0
   62.9715   44.1531    1.0749 C   0  0  0  0  0  0  0  0  0  0  0  0
   63.2355   42.7960    1.7360 C   0  0  0  0  0  0  0  0  0  0  0  0
   64.5632   42.1575    1.4574 C   0  0  0  0  0  0  0  0  0  0  0  0
   64.9245   40.9892    2.1156 N   0  0  0  0  0  0  0  0  0  0  0  0
   68.7741   38.3937    1.7773 H   0  0  0  0  0  0  0  0  0  0  0  0
   73.3010   40.5264    0.8676 H   0  0  0  0  0  0  0  0  0  0  0  0
   72.5858   37.7577   -1.4983 H   0  0  0  0  0  0  0  0  0  0  0  0
   74.1639   38.4207   -0.8266 H   0  0  0  0  0  0  0  0  0  0  0  0
   73.0871   38.4053    1.4082 H   0  0  0  0  0  0  0  0  0  0  0  0
   71.7499   37.4533    0.6786 H   0  0  0  0  0  0  0  0  0  0  0  0
   73.4226   36.7985    0.6786 H   0  0  0  0  0  0  0  0  0  0  0  0
   71.5198   40.5906   -2.5324 H   0  0  0  0  0  0  0  0  0  0  0  0
   73.2844   41.0617   -2.3689 H   0  0  0  0  0  0  0  0  0  0  0  0
   73.2804   38.2951   -2.7462 H   0  0  0  0  0  0  0  0  0  0  0  0
   72.0778   38.9366   -3.9162 H   0  0  0  0  0  0  0  0  0  0  0  0
   73.7581   39.5717   -3.9162 H   0  0  0  0  0  0  0  0  0  0  0  0
   68.3486   42.0442   -0.5217 H   0  0  0  0  0  0  0  0  0  0  0  0
   66.5417   38.7648    2.8153 H   0  0  0  0  0  0  0  0  0  0  0  0
   64.0751   46.1246   -1.9286 H   0  0  0  0  0  0  0  0  0  0  0  0
   68.4564   45.9229   -2.9514 H   0  0  0  0  0  0  0  0  0  0  0  0
   69.0989   44.5279   -2.0438 H   0  0  0  0  0  0  0  0  0  0  0  0
   62.5721   44.8711   -0.8839 H   0  0  0  0  0  0  0  0  0  0  0  0
   63.0147   43.1019   -0.7492 H   0  0  0  0  0  0  0  0  0  0  0  0
   63.6321   44.9041    1.5329 H   0  0  0  0  0  0  0  0  0  0  0  0
   61.9113   44.4022    1.2301 H   0  0  0  0  0  0  0  0  0  0  0  0
   63.1540   42.9340    2.8243 H   0  0  0  0  0  0  0  0  0  0  0  0
   62.4901   42.1134    1.3020 H   0  0  0  0  0  0  0  0  0  0  0  0
   64.3432   40.4915    2.8050 H   0  0  0  0  0  0  0  0  0  0  0  0
  1 18  2  0
  1 21  1  0
  2  7  1  0
  2  8  1  0
  2 10  1  0
  2 12  1  1
  3 20  1  0
  3 21  2  0
  4  5  1  0
  4 12  3  0
  5  6  2  0
  5 13  1  0
  6 16  1  0
  8  9  1  0
 10 11  1  0
 13 14  2  0
 14 15  1  0
 14 17  1  0
 15 16  2  0
 15 27  1  0
 17 18  1  0
 17 26  2  0
 18 19  1  0
 19 20  2  0
 19 23  1  0
 21 22  1  0
 23 24  1  0
 24 25  1  0
 25 26  1  0
 26 27  1  0
  6 28  1  0
  7 29  1  0
  8 30  1  0
  8 31  1  0
  9 32  1  0
  9 33  1  0
  9 34  1  0
 10 35  1  0
 10 36  1  0
 11 37  1  0
 11 38  1  0
 11 39  1  0
 13 40  1  0
 16 41  1  0
 20 42  1  0
 22 43  1  0
 22 44  1  0
 23 45  1  0
 23 46  1  0
 24 47  1  0
 24 48  1  0
 25 49  1  0
 25 50  1  0
 27 51  1  0
M  END
>  <filename_input>  (9) 
7ZHP_IQY_docked.sdf

>  <pdb_id>  (9) 
7ZHP_IQY

>  <pose_rank>  (9) 
8

>  <num_atoms_heavy>  (9) 
27

>  <num_torsions>  (9) 
4

>  <pose>  (9) 
[66.99489048207518, 43.926921978753555, -0.8662514022431734, -1.3655580206283244, -2.3612083167675486, -3.479139309431009, -3.397595992486827, 1.294137970355993, -0.1645348766060341, 0.8634372973477182]

>  <energy>  (9) 
-476.6425176587988

>  <inter_energy>  (9) 
-480.80141936745497

>  <intra_energy>  (9) 
0.6593123587479653

>  <rmsd>  (9) 
7.88037

>  <sdf_rank>  (9) 
0

$$$$

     RDKit          3D

 51 54  0  0  0  0  0  0  0  0999 V2000
   67.4659   40.8903    0.2460 N   0  0  0  0  0  0  0  0  0  0  0  0
   67.1749   34.9247    3.9050 C   0  0  2  0  0  0  0  0  0  0  0  0
   66.2615   42.9546    0.0259 N   0  0  0  0  0  0  0  0  0  0  0  0
   68.7180   36.4997    2.3689 C   0  0  0  0  0  0  0  0  0  0  0  0
   69.5777   37.3302    1.5659 C   0  0  0  0  0  0  0  0  0  0  0  0
   70.8628   36.8774    1.2345 C   0  0  0  0  0  0  0  0  0  0  0  0
   67.8837   34.6221    5.1239 O   0  0  0  0  0  0  0  0  0  0  0  0
   65.8492   35.5928    4.2760 C   0  0  0  0  0  0  0  0  0  0  0  0
   65.5040   36.7987    3.4705 C   0  0  0  0  0  0  0  0  0  0  0  0
   66.9474   33.6271    3.1538 C   0  0  0  0  0  0  0  0  0  0  0  0
   68.0957   33.2136    2.2593 C   0  0  0  0  0  0  0  0  0  0  0  0
   68.0040   35.8356    3.0631 C   0  0  0  0  0  0  0  0  0  0  0  0
   69.1110   38.5588    1.0688 C   0  0  0  0  0  0  0  0  0  0  0  0
   69.9293   39.3237    0.2221 C   0  0  0  0  0  0  0  0  0  0  0  0
   71.1997   38.8247   -0.1187 C   0  0  0  0  0  0  0  0  0  0  0  0
   71.6713   37.6109    0.3808 C   0  0  0  0  0  0  0  0  0  0  0  0
   69.7889   40.6247   -0.4499 C   0  0  0  0  0  0  0  0  0  0  0  0
   68.5578   41.4688   -0.2792 C   0  0  0  0  0  0  0  0  0  0  0  0
   68.5591   42.8255   -0.6495 C   0  0  0  0  0  0  0  0  0  0  0  0
   67.3650   43.4912   -0.4938 C   0  0  0  0  0  0  0  0  0  0  0  0
   66.3643   41.6625    0.3878 C   0  0  0  0  0  0  0  0  0  0  0  0
   65.3128   41.1167    0.9975 N   0  0  0  0  0  0  0  0  0  0  0  0
   69.7767   43.5884   -1.1120 C   0  0  0  0  0  0  0  0  0  0  0  0
   70.3971   43.0355   -2.3642 C   0  0  0  0  0  0  0  0  0  0  0  0
   71.4304   41.9430   -2.0687 C   0  0  0  0  0  0  0  0  0  0  0  0
   70.9881   40.8197   -1.1796 C   0  0  0  0  0  0  0  0  0  0  0  0
   71.8250   39.7323   -0.9648 N   0  0  0  0  0  0  0  0  0  0  0  0
   71.2326   35.9310    1.6561 H   0  0  0  0  0  0  0  0  0  0  0  0
   67.3203   34.8626    5.9017 H   0  0  0  0  0  0  0  0  0  0  0  0
   65.0458   34.8531    4.1442 H   0  0  0  0  0  0  0  0  0  0  0  0
   65.9592   35.9381    5.3145 H   0  0  0  0  0  0  0  0  0  0  0  0
   65.2649   37.6341    4.1450 H   0  0  0  0  0  0  0  0  0  0  0  0
   66.3597   37.0731    2.8360 H   0  0  0  0  0  0  0  0  0  0  0  0
   64.6328   36.5788    2.8360 H   0  0  0  0  0  0  0  0  0  0  0  0
   66.7800   32.8277    3.8907 H   0  0  0  0  0  0  0  0  0  0  0  0
   66.0809   33.7924    2.4966 H   0  0  0  0  0  0  0  0  0  0  0  0
   68.9508   32.9057    2.8790 H   0  0  0  0  0  0  0  0  0  0  0  0
   67.7812   32.3722    1.6243 H   0  0  0  0  0  0  0  0  0  0  0  0
   68.3899   34.0623    1.6243 H   0  0  0  0  0  0  0  0  0  0  0  0
   68.1085   38.9201    1.3419 H   0  0  0  0  0  0  0  0  0  0  0  0
   72.6691   37.2417    0.1015 H   0  0  0  0  0  0  0  0  0  0  0  0
   67.3180   44.5402   -0.8213 H   0  0  0  0  0  0  0  0  0  0  0  0
   64.4513   41.6657    1.1286 H   0  0  0  0  0  0  0  0  0  0  0  0
   65.3615   40.1457    1.3377 H   0  0  0  0  0  0  0  0  0  0  0  0
   69.4818   44.6310   -1.3017 H   0  0  0  0  0  0  0  0  0  0  0  0
   70.5306   43.5035   -0.3155 H   0  0  0  0  0  0  0  0  0  0  0  0
   69.6023   42.6095   -2.9942 H   0  0  0  0  0  0  0  0  0  0  0  0
   70.9162   43.8601   -2.8746 H   0  0  0  0  0  0  0  0  0  0  0  0
   71.7373   41.5058   -3.0303 H   0  0  0  0  0  0  0  0  0  0  0  0
   72.2356   42.4490   -1.5159 H   0  0  0  0  0  0  0  0  0  0  0  0
   72.7647   39.6166   -1.3703 H   0  0  0  0  0  0  0  0  0  0  0  0
  1 18  2  0
  1 21  1  0
  2  7  1  0
  2  8  1  0
  2 10  1  0
  2 12  1  6
  3 20  1  0
  3 21  2  0
  4  5  1  0
  4 12  3  0
  5  6  2  0
  5 13  1  0
  6 16  1  0
  8  9  1  0
 10 11  1  0
 13 14  2  0
 14 15  1  0
 14 17  1  0
 15 16  2  0
 15 27  1  0
 17 18  1  0
 17 26  2  0
 18 19  1  0
 19 20  2  0
 19 23  1  0
 21 22  1  0
 23 24  1  0
 24 25  1  0
 25 26  1  0
 26 27  1  0
  6 28  1  0
  7 29  1  0
  8 30  1  0
  8 31  1  0
  9 32  1  0
  9 33  1  0
  9 34  1  0
 10 35  1  0
 10 36  1  0
 11 37  1  0
 11 38  1  0
 11 39  1  0
 13 40  1  0
 16 41  1  0
 20 42  1  0
 22 43  1  0
 22 44  1  0
 23 45  1  0
 23 46  1  0
 24 47  1  0
 24 48  1  0
 25 49  1  0
 25 50  1  0
 27 51  1  0
M  END
>  <filename_input>  (10) 
7ZHP_IQY_docked.sdf

>  <pdb_id>  (10) 
7ZHP_IQY

>  <pose_rank>  (10) 
9

>  <num_atoms_heavy>  (10) 
27

>  <num_torsions>  (10) 
4

>  <pose>  (10) 
[67.46589750545492, 40.89027125649993, 0.24604828059440778, 1.3170151118788795, 2.2831591782363145, -1.8258734786297606, -0.11545034915212443, 0.7105546458818743, 0.8757300180836778, -2.778518177229785]

>  <energy>  (10) 
-689.4425300048205

>  <inter_energy>  (10) 
-679.6140521850939

>  <intra_energy>  (10) 
10.723721350775842

>  <rmsd>  (10) 
4.31601

>  <sdf_rank>  (10) 
0

$$$$

     RDKit          3D

 51 54  0  0  0  0  0  0  0  0999 V2000
   66.8489   44.1964   -1.0160 N   0  0  0  0  0  0  0  0  0  0  0  0
   72.3171   39.8838   -1.3325 C   0  0  2  0  0  0  0  0  0  0  0  0
   65.9770   46.1178   -2.1599 N   0  0  0  0  0  0  0  0  0  0  0  0
   69.8282   40.1897   -0.3667 C   0  0  0  0  0  0  0  0  0  0  0  0
   68.5103   40.3663    0.1862 C   0  0  0  0  0  0  0  0  0  0  0  0
   67.9982   39.4067    1.0712 C   0  0  0  0  0  0  0  0  0  0  0  0
   72.3119   39.0552   -2.5128 O   0  0  0  0  0  0  0  0  0  0  0  0
   72.8746   41.2567   -1.7145 C   0  0  0  0  0  0  0  0  0  0  0  0
   74.2755   41.2485   -2.2242 C   0  0  0  0  0  0  0  0  0  0  0  0
   73.1809   39.2102   -0.2838 C   0  0  0  0  0  0  0  0  0  0  0  0
   72.4117   38.3755    0.7169 C   0  0  0  0  0  0  0  0  0  0  0  0
   70.9256   40.0096   -0.8094 C   0  0  0  0  0  0  0  0  0  0  0  0
   67.7670   41.5207   -0.1124 C   0  0  0  0  0  0  0  0  0  0  0  0
   66.5165   41.7202    0.4942 C   0  0  0  0  0  0  0  0  0  0  0  0
   66.0469   40.7551    1.4036 C   0  0  0  0  0  0  0  0  0  0  0  0
   66.7762   39.6027    1.6949 C   0  0  0  0  0  0  0  0  0  0  0  0
   65.4829   42.7635    0.4095 C   0  0  0  0  0  0  0  0  0  0  0  0
   65.6327   43.9458   -0.5053 C   0  0  0  0  0  0  0  0  0  0  0  0
   64.5266   44.7546   -0.8222 C   0  0  0  0  0  0  0  0  0  0  0  0
   64.7867   45.8370   -1.6309 C   0  0  0  0  0  0  0  0  0  0  0  0
   66.9679   45.2678   -1.8333 C   0  0  0  0  0  0  0  0  0  0  0  0
   68.1503   45.4600   -2.4166 N   0  0  0  0  0  0  0  0  0  0  0  0
   63.1040   44.4641   -0.4094 C   0  0  0  0  0  0  0  0  0  0  0  0
   62.9035   44.4200    1.0793 C   0  0  0  0  0  0  0  0  0  0  0  0
   63.1543   43.0239    1.6596 C   0  0  0  0  0  0  0  0  0  0  0  0
   64.4539   42.3683    1.3002 C   0  0  0  0  0  0  0  0  0  0  0  0
   64.8068   41.1584    1.8838 N   0  0  0  0  0  0  0  0  0  0  0  0
   68.5717   38.4898    1.2722 H   0  0  0  0  0  0  0  0  0  0  0  0
   72.3058   38.1017   -2.2466 H   0  0  0  0  0  0  0  0  0  0  0  0
   72.2292   41.6812   -2.4976 H   0  0  0  0  0  0  0  0  0  0  0  0
   72.8878   41.8513   -0.7892 H   0  0  0  0  0  0  0  0  0  0  0  0
   74.9746   41.2444   -1.3749 H   0  0  0  0  0  0  0  0  0  0  0  0
   74.4375   40.3494   -2.8368 H   0  0  0  0  0  0  0  0  0  0  0  0
   74.4480   42.1457   -2.8368 H   0  0  0  0  0  0  0  0  0  0  0  0
   73.8991   38.5550   -0.7985 H   0  0  0  0  0  0  0  0  0  0  0  0
   73.6676   40.0150    0.2867 H   0  0  0  0  0  0  0  0  0  0  0  0
   72.6900   38.6775    1.7374 H   0  0  0  0  0  0  0  0  0  0  0  0
   71.3324   38.5297    0.5704 H   0  0  0  0  0  0  0  0  0  0  0  0
   72.6533   37.3124    0.5704 H   0  0  0  0  0  0  0  0  0  0  0  0
   68.1632   42.2653   -0.8185 H   0  0  0  0  0  0  0  0  0  0  0  0
   66.3878   38.8610    2.4085 H   0  0  0  0  0  0  0  0  0  0  0  0
   63.9532   46.5185   -1.8566 H   0  0  0  0  0  0  0  0  0  0  0  0
   68.2891   46.2623   -3.0473 H   0  0  0  0  0  0  0  0  0  0  0  0
   68.9256   44.8061   -2.2369 H   0  0  0  0  0  0  0  0  0  0  0  0
   62.4550   45.2495   -0.8240 H   0  0  0  0  0  0  0  0  0  0  0  0
   62.8547   43.4653   -0.7969 H   0  0  0  0  0  0  0  0  0  0  0  0
   63.5995   45.1293    1.5511 H   0  0  0  0  0  0  0  0  0  0  0  0
   61.8564   44.6867    1.2856 H   0  0  0  0  0  0  0  0  0  0  0  0
   63.1147   43.1066    2.7557 H   0  0  0  0  0  0  0  0  0  0  0  0
   62.3762   42.3838    1.2184 H   0  0  0  0  0  0  0  0  0  0  0  0
   64.2370   40.6398    2.5673 H   0  0  0  0  0  0  0  0  0  0  0  0
  1 18  2  0
  1 21  1  0
  2  7  1  0
  2  8  1  0
  2 10  1  0
  2 12  1  1
  3 20  1  0
  3 21  2  0
  4  5  1  0
  4 12  3  0
  5  6  2  0
  5 13  1  0
  6 16  1  0
  8  9  1  0
 10 11  1  0
 13 14  2  0
 14 15  1  0
 14 17  1  0
 15 16  2  0
 15 27  1  0
 17 18  1  0
 17 26  2  0
 18 19  1  0
 19 20  2  0
 19 23  1  0
 21 22  1  0
 23 24  1  0
 24 25  1  0
 25 26  1  0
 26 27  1  0
  6 28  1  0
  7 29  1  0
  8 30  1  0
  8 31  1  0
  9 32  1  0
  9 33  1  0
  9 34  1  0
 10 35  1  0
 10 36  1  0
 11 37  1  0
 11 38  1  0
 11 39  1  0
 13 40  1  0
 16 41  1  0
 20 42  1  0
 22 43  1  0
 22 44  1  0
 23 45  1  0
 23 46  1  0
 24 47  1  0
 24 48  1  0
 25 49  1  0
 25 50  1  0
 27 51  1  0
M  END
>  <filename_input>  (11) 
7ZHP_IQY_docked.sdf

>  <pdb_id>  (11) 
7ZHP_IQY

>  <pose_rank>  (11) 
10

>  <num_atoms_heavy>  (11) 
27

>  <num_torsions>  (11) 
4

>  <pose>  (11) 
[66.84891319204723, 44.19644139209543, -1.0160451779569057, 0.6516422672275569, 0.9758306085742261, 1.4663265429010726, 4.2166562618184384, -3.125562336719444, -8.834925024232922, 3.3274714707573527]

>  <energy>  (11) 
-493.83927319454426

>  <inter_energy>  (11) 
-499.0576294585881

>  <intra_energy>  (11) 
6.411118878396768

>  <rmsd>  (11) 
8.13295

>  <sdf_rank>  (11) 
0

$$$$

     RDKit          3D

 51 54  0  0  0  0  0  0  0  0999 V2000
   71.6804   38.2499    0.8496 N   0  0  0  0  0  0  0  0  0  0  0  0
   66.7875   34.8927    4.4119 C   0  0  2  0  0  0  0  0  0  0  0  0
   73.8514   37.8148   -0.0766 N   0  0  0  0  0  0  0  0  0  0  0  0
   67.2388   37.0743    2.9092 C   0  0  0  0  0  0  0  0  0  0  0  0
   67.5194   38.2315    2.0994 C   0  0  0  0  0  0  0  0  0  0  0  0
   66.5247   39.2023    1.9134 C   0  0  0  0  0  0  0  0  0  0  0  0
   67.5696   34.9510    5.6222 O   0  0  0  0  0  0  0  0  0  0  0  0
   65.3125   34.7725    4.8011 C   0  0  0  0  0  0  0  0  0  0  0  0
   64.4106   35.7786    4.1715 C   0  0  0  0  0  0  0  0  0  0  0  0
   67.2456   33.6909    3.6084 C   0  0  0  0  0  0  0  0  0  0  0  0
   66.9299   33.7704    2.1306 C   0  0  0  0  0  0  0  0  0  0  0  0
   67.0199   36.1304    3.6120 C   0  0  0  0  0  0  0  0  0  0  0  0
   68.7989   38.4158    1.5486 C   0  0  0  0  0  0  0  0  0  0  0  0
   69.0846   39.5858    0.8268 C   0  0  0  0  0  0  0  0  0  0  0  0
   68.0750   40.5555    0.6878 C   0  0  0  0  0  0  0  0  0  0  0  0
   66.8005   40.3722    1.2237 C   0  0  0  0  0  0  0  0  0  0  0  0
   70.2657   40.0960    0.1136 C   0  0  0  0  0  0  0  0  0  0  0  0
   71.5343   39.2966    0.0214 C   0  0  0  0  0  0  0  0  0  0  0  0
   72.5296   39.6324   -0.9138 C   0  0  0  0  0  0  0  0  0  0  0  0
   73.6694   38.8624   -0.8798 C   0  0  0  0  0  0  0  0  0  0  0  0
   72.8307   37.5440    0.7577 C   0  0  0  0  0  0  0  0  0  0  0  0
   72.9348   36.4493    1.5100 N   0  0  0  0  0  0  0  0  0  0  0  0
   72.3882   40.6984   -1.9730 C   0  0  0  0  0  0  0  0  0  0  0  0
   72.1582   42.0758   -1.4177 C   0  0  0  0  0  0  0  0  0  0  0  0
   70.6716   42.3723   -1.1928 C   0  0  0  0  0  0  0  0  0  0  0  0
   69.8964   41.3654   -0.3970 C   0  0  0  0  0  0  0  0  0  0  0  0
   68.5770   41.6223   -0.0475 N   0  0  0  0  0  0  0  0  0  0  0  0
   65.5162   39.0336    2.3188 H   0  0  0  0  0  0  0  0  0  0  0  0
   66.9675   34.9061    6.4067 H   0  0  0  0  0  0  0  0  0  0  0  0
   64.9632   33.7711    4.5092 H   0  0  0  0  0  0  0  0  0  0  0  0
   65.2651   34.9530    5.8851 H   0  0  0  0  0  0  0  0  0  0  0  0
   63.8963   36.3522    4.9568 H   0  0  0  0  0  0  0  0  0  0  0  0
   65.0036   36.4626    3.5467 H   0  0  0  0  0  0  0  0  0  0  0  0
   63.6661   35.2635    3.5467 H   0  0  0  0  0  0  0  0  0  0  0  0
   68.3355   33.5956    3.7228 H   0  0  0  0  0  0  0  0  0  0  0  0
   66.6960   32.8227    4.0008 H   0  0  0  0  0  0  0  0  0  0  0  0
   65.8712   34.0369    1.9957 H   0  0  0  0  0  0  0  0  0  0  0  0
   67.5637   34.5370    1.6610 H   0  0  0  0  0  0  0  0  0  0  0  0
   67.1252   32.7951    1.6610 H   0  0  0  0  0  0  0  0  0  0  0  0
   69.5737   37.6464    1.6823 H   0  0  0  0  0  0  0  0  0  0  0  0
   66.0264   41.1441    1.1007 H   0  0  0  0  0  0  0  0  0  0  0  0
   74.4881   39.1304   -1.5638 H   0  0  0  0  0  0  0  0  0  0  0  0
   73.7919   35.8793    1.4740 H   0  0  0  0  0  0  0  0  0  0  0  0
   72.1581   36.1730    2.1275 H   0  0  0  0  0  0  0  0  0  0  0  0
   73.3096   40.7156   -2.5736 H   0  0  0  0  0  0  0  0  0  0  0  0
   71.5017   40.4412   -2.5713 H   0  0  0  0  0  0  0  0  0  0  0  0
   72.6854   42.1620   -0.4561 H   0  0  0  0  0  0  0  0  0  0  0  0
   72.5387   42.8019   -2.1512 H   0  0  0  0  0  0  0  0  0  0  0  0
   70.5996   43.3373   -0.6697 H   0  0  0  0  0  0  0  0  0  0  0  0
   70.2194   42.3580   -2.1955 H   0  0  0  0  0  0  0  0  0  0  0  0
   68.0515   42.4728   -0.2952 H   0  0  0  0  0  0  0  0  0  0  0  0
  1 18  2  0
  1 21  1  0
  2  7  1  0
  2  8  1  0
  2 10  1  0
  2 12  1  6
  3 20  1  0
  3 21  2  0
  4  5  1  0
  4 12  3  0
  5  6  2  0
  5 13  1  0
  6 16  1  0
  8  9  1  0
 10 11  1  0
 13 14  2  0
 14 15  1  0
 14 17  1  0
 15 16  2  0
 15 27  1  0
 17 18  1  0
 17 26  2  0
 18 19  1  0
 19 20  2  0
 19 23  1  0
 21 22  1  0
 23 24  1  0
 24 25  1  0
 25 26  1  0
 26 27  1  0
  6 28  1  0
  7 29  1  0
  8 30  1  0
  8 31  1  0
  9 32  1  0
  9 33  1  0
  9 34  1  0
 10 35  1  0
 10 36  1  0
 11 37  1  0
 11 38  1  0
 11 39  1  0
 13 40  1  0
 16 41  1  0
 20 42  1  0
 22 43  1  0
 22 44  1  0
 23 45  1  0
 23 46  1  0
 24 47  1  0
 24 48  1  0
 25 49  1  0
 25 50  1  0
 27 51  1  0
M  END
>  <filename_input>  (12) 
7ZHP_IQY_docked.sdf

>  <pdb_id>  (12) 
7ZHP_IQY

>  <pose_rank>  (12) 
11

>  <num_atoms_heavy>  (12) 
27

>  <num_torsions>  (12) 
4

>  <pose>  (12) 
[71.68037442346976, 38.249879107214625, 0.8496226557106326, -2.185036931138751, -2.4854679323833406, -5.336160430468648, 2.505676687958239, -4.83059425644182, 0.7444286311367457, -4.032388034866195]

>  <energy>  (12) 
-1265.2143445729855

>  <inter_energy>  (12) 
-1261.3955254742687

>  <intra_energy>  (12) 
10.478950180544793

>  <rmsd>  (12) 
1.02249

>  <sdf_rank>  (12) 
0

$$$$

     RDKit          3D

 51 54  0  0  0  0  0  0  0  0999 V2000
   71.5942   38.1371    0.8059 N   0  0  0  0  0  0  0  0  0  0  0  0
   67.0072   34.4522    4.5194 C   0  0  2  0  0  0  0  0  0  0  0  0
   73.7443   37.8542   -0.2225 N   0  0  0  0  0  0  0  0  0  0  0  0
   67.3153   36.6495    3.0034 C   0  0  0  0  0  0  0  0  0  0  0  0
   67.4976   37.8458    2.2230 C   0  0  0  0  0  0  0  0  0  0  0  0
   66.4443   38.7649    2.1112 C   0  0  0  0  0  0  0  0  0  0  0  0
   65.7686   33.7795    4.2140 O   0  0  0  0  0  0  0  0  0  0  0  0
   68.1584   33.4821    4.2451 C   0  0  0  0  0  0  0  0  0  0  0  0
   67.7436   32.0894    3.9132 C   0  0  0  0  0  0  0  0  0  0  0  0
   66.9734   34.8699    5.9768 C   0  0  0  0  0  0  0  0  0  0  0  0
   67.4370   33.8021    6.9436 C   0  0  0  0  0  0  0  0  0  0  0  0
   67.1326   35.6699    3.6667 C   0  0  0  0  0  0  0  0  0  0  0  0
   68.7404   38.1190    1.6271 C   0  0  0  0  0  0  0  0  0  0  0  0
   68.9308   39.3257    0.9348 C   0  0  0  0  0  0  0  0  0  0  0  0
   67.8647   40.2412    0.8704 C   0  0  0  0  0  0  0  0  0  0  0  0
   66.6261   39.9699    1.4512 C   0  0  0  0  0  0  0  0  0  0  0  0
   70.0507   39.9237    0.1919 C   0  0  0  0  0  0  0  0  0  0  0  0
   71.3561   39.1999    0.0206 C   0  0  0  0  0  0  0  0  0  0  0  0
   72.2908   39.6207   -0.9423 C   0  0  0  0  0  0  0  0  0  0  0  0
   73.4713   38.9150   -0.9812 C   0  0  0  0  0  0  0  0  0  0  0  0
   72.7764   37.5001    0.6430 C   0  0  0  0  0  0  0  0  0  0  0  0
   72.9721   36.3894    1.3524 N   0  0  0  0  0  0  0  0  0  0  0  0
   72.0463   40.7105   -1.9577 C   0  0  0  0  0  0  0  0  0  0  0  0
   71.7653   42.0544   -1.3465 C   0  0  0  0  0  0  0  0  0  0  0  0
   70.2756   42.2598   -1.0512 C   0  0  0  0  0  0  0  0  0  0  0  0
   69.5912   41.1862   -0.2594 C   0  0  0  0  0  0  0  0  0  0  0  0
   68.2759   41.3575    0.1523 N   0  0  0  0  0  0  0  0  0  0  0  0
   65.4646   38.5271    2.5513 H   0  0  0  0  0  0  0  0  0  0  0  0
   65.3116   33.5312    5.0564 H   0  0  0  0  0  0  0  0  0  0  0  0
   68.7415   33.8752    3.3992 H   0  0  0  0  0  0  0  0  0  0  0  0
   68.7345   33.4167    5.1799 H   0  0  0  0  0  0  0  0  0  0  0  0
   67.5756   31.5255    4.8426 H   0  0  0  0  0  0  0  0  0  0  0  0
   66.8137   32.1138    3.3260 H   0  0  0  0  0  0  0  0  0  0  0  0
   68.5352   31.6010    3.3260 H   0  0  0  0  0  0  0  0  0  0  0  0
   67.6231   35.7493    6.0978 H   0  0  0  0  0  0  0  0  0  0  0  0
   65.9209   35.0781    6.2196 H   0  0  0  0  0  0  0  0  0  0  0  0
   67.2854   34.1511    7.9756 H   0  0  0  0  0  0  0  0  0  0  0  0
   66.8573   32.8818    6.7789 H   0  0  0  0  0  0  0  0  0  0  0  0
   68.5051   33.5971    6.7789 H   0  0  0  0  0  0  0  0  0  0  0  0
   69.5610   37.3904    1.7026 H   0  0  0  0  0  0  0  0  0  0  0  0
   65.8065   40.7007    1.3865 H   0  0  0  0  0  0  0  0  0  0  0  0
   74.2442   39.2502   -1.6885 H   0  0  0  0  0  0  0  0  0  0  0  0
   73.8568   35.8698    1.2620 H   0  0  0  0  0  0  0  0  0  0  0  0
   72.2387   36.0505    1.9913 H   0  0  0  0  0  0  0  0  0  0  0  0
   72.9390   40.7984   -2.5944 H   0  0  0  0  0  0  0  0  0  0  0  0
   71.1504   40.4232   -2.5278 H   0  0  0  0  0  0  0  0  0  0  0  0
   72.3275   42.1391   -0.4049 H   0  0  0  0  0  0  0  0  0  0  0  0
   72.0740   42.8237   -2.0696 H   0  0  0  0  0  0  0  0  0  0  0  0
   70.1735   43.2020   -0.4928 H   0  0  0  0  0  0  0  0  0  0  0  0
   69.7826   42.2522   -2.0345 H   0  0  0  0  0  0  0  0  0  0  0  0
   67.6947   42.1847   -0.0445 H   0  0  0  0  0  0  0  0  0  0  0  0
  1 18  2  0
  1 21  1  0
  2  7  1  0
  2  8  1  0
  2 10  1  0
  2 12  1  6
  3 20  1  0
  3 21  2  0
  4  5  1  0
  4 12  3  0
  5  6  2  0
  5 13  1  0
  6 16  1  0
  8  9  1  0
 10 11  1  0
 13 14  2  0
 14 15  1  0
 14 17  1  0
 15 16  2  0
 15 27  1  0
 17 18  1  0
 17 26  2  0
 18 19  1  0
 19 20  2  0
 19 23  1  0
 21 22  1  0
 23 24  1  0
 24 25  1  0
 25 26  1  0
 26 27  1  0
  6 28  1  0
  7 29  1  0
  8 30  1  0
  8 31  1  0
  9 32  1  0
  9 33  1  0
  9 34  1  0
 10 35  1  0
 10 36  1  0
 11 37  1  0
 11 38  1  0
 11 39  1  0
 13 40  1  0
 16 41  1  0
 20 42  1  0
 22 43  1  0
 22 44  1  0
 23 45  1  0
 23 46  1  0
 24 47  1  0
 24 48  1  0
 25 49  1  0
 25 50  1  0
 27 51  1  0
M  END
>  <filename_input>  (13) 
7ZHP_IQY_docked.sdf

>  <pdb_id>  (13) 
7ZHP_IQY

>  <pose_rank>  (13) 
12

>  <num_atoms_heavy>  (13) 
27

>  <num_torsions>  (13) 
4

>  <pose>  (13) 
[71.59421085628577, 38.137132687871926, 0.8058817204630465, -2.6543125966969705, -3.3252228469476206, -4.512860501036205, 3.907407766043626, 2.8129572218614967, -1.6046650588904425, 0.2245941537843495]

>  <energy>  (13) 
-1363.2736186728764

>  <inter_energy>  (13) 
-1367.7980438136335

>  <intra_energy>  (13) 
2.8026392994570815

>  <rmsd>  (13) 
0.642946

>  <sdf_rank>  (13) 
0

$$$$

     RDKit          3D

 51 54  0  0  0  0  0  0  0  0999 V2000
   67.5039   43.5284   -0.8631 N   0  0  0  0  0  0  0  0  0  0  0  0
   73.8389   42.4663   -3.4574 C   0  0  2  0  0  0  0  0  0  0  0  0
   65.6011   44.9349   -1.2650 N   0  0  0  0  0  0  0  0  0  0  0  0
   71.9349   41.3765   -1.9055 C   0  0  0  0  0  0  0  0  0  0  0  0
   70.9032   40.8301   -1.0627 C   0  0  0  0  0  0  0  0  0  0  0  0
   71.1395   39.6353   -0.3676 C   0  0  0  0  0  0  0  0  0  0  0  0
   75.1230   41.8572   -3.2124 O   0  0  0  0  0  0  0  0  0  0  0  0
   73.4838   42.2570   -4.9311 C   0  0  0  0  0  0  0  0  0  0  0  0
   74.6499   42.0607   -5.8387 C   0  0  0  0  0  0  0  0  0  0  0  0
   73.9409   43.9409   -3.1187 C   0  0  0  0  0  0  0  0  0  0  0  0
   72.8710   44.8029   -3.7529 C   0  0  0  0  0  0  0  0  0  0  0  0
   72.8146   41.8340   -2.5760 C   0  0  0  0  0  0  0  0  0  0  0  0
   69.6908   41.5195   -0.8915 C   0  0  0  0  0  0  0  0  0  0  0  0
   68.7232   41.0180   -0.0062 C   0  0  0  0  0  0  0  0  0  0  0  0
   69.0057   39.8355    0.7015 C   0  0  0  0  0  0  0  0  0  0  0  0
   70.2030   39.1421    0.5270 C   0  0  0  0  0  0  0  0  0  0  0  0
   67.3749   41.4445    0.3987 C   0  0  0  0  0  0  0  0  0  0  0  0
   66.7261   42.6644   -0.1912 C   0  0  0  0  0  0  0  0  0  0  0  0
   65.3439   42.8830   -0.0505 C   0  0  0  0  0  0  0  0  0  0  0  0
   64.8638   44.0546   -0.5892 C   0  0  0  0  0  0  0  0  0  0  0  0
   66.9053   44.6243   -1.3831 C   0  0  0  0  0  0  0  0  0  0  0  0
   67.6567   45.4309   -2.1314 N   0  0  0  0  0  0  0  0  0  0  0  0
   64.3768   41.8991    0.5619 C   0  0  0  0  0  0  0  0  0  0  0  0
   64.6774   41.5693    1.9969 C   0  0  0  0  0  0  0  0  0  0  0  0
   65.6566   40.3982    2.1324 C   0  0  0  0  0  0  0  0  0  0  0  0
   66.9337   40.4938    1.3527 C   0  0  0  0  0  0  0  0  0  0  0  0
   67.9226   39.5328    1.5178 N   0  0  0  0  0  0  0  0  0  0  0  0
   72.0770   39.0844   -0.5341 H   0  0  0  0  0  0  0  0  0  0  0  0
   75.2735   41.7858   -2.2366 H   0  0  0  0  0  0  0  0  0  0  0  0
   72.8410   41.3674   -5.0042 H   0  0  0  0  0  0  0  0  0  0  0  0
   72.9890   43.1820   -5.2622 H   0  0  0  0  0  0  0  0  0  0  0  0
   75.5594   41.9076   -5.2392 H   0  0  0  0  0  0  0  0  0  0  0  0
   74.4763   41.1792   -6.4733 H   0  0  0  0  0  0  0  0  0  0  0  0
   74.7745   42.9505   -6.4733 H   0  0  0  0  0  0  0  0  0  0  0  0
   73.8674   44.0490   -2.0265 H   0  0  0  0  0  0  0  0  0  0  0  0
   74.9040   44.2895   -3.5200 H   0  0  0  0  0  0  0  0  0  0  0  0
   72.2734   45.2845   -2.9649 H   0  0  0  0  0  0  0  0  0  0  0  0
   73.3445   45.5748   -4.3773 H   0  0  0  0  0  0  0  0  0  0  0  0
   72.2175   44.1761   -4.3773 H   0  0  0  0  0  0  0  0  0  0  0  0
   69.5005   42.4485   -1.4489 H   0  0  0  0  0  0  0  0  0  0  0  0
   70.4010   38.2183    1.0905 H   0  0  0  0  0  0  0  0  0  0  0  0
   63.7959   44.2803   -0.4523 H   0  0  0  0  0  0  0  0  0  0  0  0
   67.2451   46.2778   -2.5489 H   0  0  0  0  0  0  0  0  0  0  0  0
   68.6492   45.2076   -2.2924 H   0  0  0  0  0  0  0  0  0  0  0  0
   63.3652   42.3278    0.5088 H   0  0  0  0  0  0  0  0  0  0  0  0
   64.4667   40.9629   -0.0085 H   0  0  0  0  0  0  0  0  0  0  0  0
   65.1167   42.4551    2.4789 H   0  0  0  0  0  0  0  0  0  0  0  0
   63.7334   41.2757    2.4793 H   0  0  0  0  0  0  0  0  0  0  0  0
   65.9218   40.3069    3.1961 H   0  0  0  0  0  0  0  0  0  0  0  0
   65.1273   39.5293    1.7143 H   0  0  0  0  0  0  0  0  0  0  0  0
   67.8625   38.7206    2.1484 H   0  0  0  0  0  0  0  0  0  0  0  0
  1 18  2  0
  1 21  1  0
  2  7  1  0
  2  8  1  0
  2 10  1  0
  2 12  1  1
  3 20  1  0
  3 21  2  0
  4  5  1  0
  4 12  3  0
  5  6  2  0
  5 13  1  0
  6 16  1  0
  8  9  1  0
 10 11  1  0
 13 14  2  0
 14 15  1  0
 14 17  1  0
 15 16  2  0
 15 27  1  0
 17 18  1  0
 17 26  2  0
 18 19  1  0
 19 20  2  0
 19 23  1  0
 21 22  1  0
 23 24  1  0
 24 25  1  0
 25 26  1  0
 26 27  1  0
  6 28  1  0
  7 29  1  0
  8 30  1  0
  8 31  1  0
  9 32  1  0
  9 33  1  0
  9 34  1  0
 10 35  1  0
 10 36  1  0
 11 37  1  0
 11 38  1  0
 11 39  1  0
 13 40  1  0
 16 41  1  0
 20 42  1  0
 22 43  1  0
 22 44  1  0
 23 45  1  0
 23 46  1  0
 24 47  1  0
 24 48  1  0
 25 49  1  0
 25 50  1  0
 27 51  1  0
M  END
>  <filename_input>  (14) 
7ZHP_IQY_docked.sdf

>  <pdb_id>  (14) 
7ZHP_IQY

>  <pose_rank>  (14) 
13

>  <num_atoms_heavy>  (14) 
27

>  <num_torsions>  (14) 
4

>  <pose>  (14) 
[67.5039111989634, 43.52838917091584, -0.8630709551595551, -1.2741018908349484, -1.9544720119949122, -3.0259137346733915, 3.063252110746372, 2.5836069552219127, -1.9140862387152393, 1.5130318048187172]

>  <energy>  (14) 
-485.0223841918511

>  <inter_energy>  (14) 
-472.62624438269955

>  <intra_energy>  (14) 
0.0

>  <rmsd>  (14) 
9.17264

>  <sdf_rank>  (14) 
0

$$$$

     RDKit          3D

 51 54  0  0  0  0  0  0  0  0999 V2000
   68.7051   42.2010   -0.3706 N   0  0  0  0  0  0  0  0  0  0  0  0
   74.2848   43.8314   -4.1760 C   0  0  2  0  0  0  0  0  0  0  0  0
   66.3986   42.8339   -0.1708 N   0  0  0  0  0  0  0  0  0  0  0  0
   73.2376   41.9654   -2.5504 C   0  0  0  0  0  0  0  0  0  0  0  0
   72.6776   40.9923   -1.6486 C   0  0  0  0  0  0  0  0  0  0  0  0
   73.4606   39.9065   -1.2308 C   0  0  0  0  0  0  0  0  0  0  0  0
   75.1145   44.7212   -3.4016 O   0  0  0  0  0  0  0  0  0  0  0  0
   75.1444   43.2190   -5.2839 C   0  0  0  0  0  0  0  0  0  0  0  0
   74.3822   42.6552   -6.4342 C   0  0  0  0  0  0  0  0  0  0  0  0
   73.1347   44.6353   -4.7511 C   0  0  0  0  0  0  0  0  0  0  0  0
   72.9142   45.9755   -4.0838 C   0  0  0  0  0  0  0  0  0  0  0  0
   73.7372   42.7657   -3.2870 C   0  0  0  0  0  0  0  0  0  0  0  0
   71.3769   41.1613   -1.1447 C   0  0  0  0  0  0  0  0  0  0  0  0
   70.8699   40.2492   -0.2052 C   0  0  0  0  0  0  0  0  0  0  0  0
   71.6935   39.1906    0.2189 C   0  0  0  0  0  0  0  0  0  0  0  0
   72.9812   39.0127   -0.2864 C   0  0  0  0  0  0  0  0  0  0  0  0
   69.5887   40.1013    0.5023 C   0  0  0  0  0  0  0  0  0  0  0  0
   68.4455   41.0465    0.2640 C   0  0  0  0  0  0  0  0  0  0  0  0
   67.1436   40.7210    0.6848 C   0  0  0  0  0  0  0  0  0  0  0  0
   66.1824   41.6789    0.4575 C   0  0  0  0  0  0  0  0  0  0  0  0
   67.6659   43.0433   -0.5722 C   0  0  0  0  0  0  0  0  0  0  0  0
   67.9034   44.1427   -1.2863 N   0  0  0  0  0  0  0  0  0  0  0  0
   66.7387   39.3916    1.2741 C   0  0  0  0  0  0  0  0  0  0  0  0
   67.4555   39.0527    2.5508 C   0  0  0  0  0  0  0  0  0  0  0  0
   68.7786   38.3214    2.2992 C   0  0  0  0  0  0  0  0  0  0  0  0
   69.7304   38.9630    1.3346 C   0  0  0  0  0  0  0  0  0  0  0  0
   70.9976   38.4262    1.1474 N   0  0  0  0  0  0  0  0  0  0  0  0
   74.4646   39.7629   -1.6567 H   0  0  0  0  0  0  0  0  0  0  0  0
   74.9626   44.5583   -2.4370 H   0  0  0  0  0  0  0  0  0  0  0  0
   75.8135   44.0025   -5.6691 H   0  0  0  0  0  0  0  0  0  0  0  0
   75.6795   42.3739   -4.8260 H   0  0  0  0  0  0  0  0  0  0  0  0
   73.5513   42.0406   -6.0575 H   0  0  0  0  0  0  0  0  0  0  0  0
   73.9823   43.4766   -7.0470 H   0  0  0  0  0  0  0  0  0  0  0  0
   75.0505   42.0324   -7.0470 H   0  0  0  0  0  0  0  0  0  0  0  0
   73.3373   44.8113   -5.8178 H   0  0  0  0  0  0  0  0  0  0  0  0
   72.2223   44.0452   -4.5798 H   0  0  0  0  0  0  0  0  0  0  0  0
   72.9350   45.8489   -2.9913 H   0  0  0  0  0  0  0  0  0  0  0  0
   73.7099   46.6716   -4.3875 H   0  0  0  0  0  0  0  0  0  0  0  0
   71.9374   46.3800   -4.3875 H   0  0  0  0  0  0  0  0  0  0  0  0
   70.7583   42.0049   -1.4848 H   0  0  0  0  0  0  0  0  0  0  0  0
   73.6064   38.1762    0.0592 H   0  0  0  0  0  0  0  0  0  0  0  0
   65.1636   41.4770    0.8200 H   0  0  0  0  0  0  0  0  0  0  0  0
   67.1433   44.8141   -1.4663 H   0  0  0  0  0  0  0  0  0  0  0  0
   68.8472   44.3213   -1.6583 H   0  0  0  0  0  0  0  0  0  0  0  0
   65.6582   39.4173    1.4788 H   0  0  0  0  0  0  0  0  0  0  0  0
   67.0087   38.6189    0.5392 H   0  0  0  0  0  0  0  0  0  0  0  0
   67.6647   39.9844    3.0969 H   0  0  0  0  0  0  0  0  0  0  0  0
   66.8063   38.3824    3.1331 H   0  0  0  0  0  0  0  0  0  0  0  0
   69.2962   38.2273    3.2652 H   0  0  0  0  0  0  0  0  0  0  0  0
   68.4963   37.3656    1.8338 H   0  0  0  0  0  0  0  0  0  0  0  0
   71.3650   37.5901    1.6237 H   0  0  0  0  0  0  0  0  0  0  0  0
  1 18  2  0
  1 21  1  0
  2  7  1  0
  2  8  1  0
  2 10  1  0
  2 12  1  1
  3 20  1  0
  3 21  2  0
  4  5  1  0
  4 12  3  0
  5  6  2  0
  5 13  1  0
  6 16  1  0
  8  9  1  0
 10 11  1  0
 13 14  2  0
 14 15  1  0
 14 17  1  0
 15 16  2  0
 15 27  1  0
 17 18  1  0
 17 26  2  0
 18 19  1  0
 19 20  2  0
 19 23  1  0
 21 22  1  0
 23 24  1  0
 24 25  1  0
 25 26  1  0
 26 27  1  0
  6 28  1  0
  7 29  1  0
  8 30  1  0
  8 31  1  0
  9 32  1  0
  9 33  1  0
  9 34  1  0
 10 35  1  0
 10 36  1  0
 11 37  1  0
 11 38  1  0
 11 39  1  0
 13 40  1  0
 16 41  1  0
 20 42  1  0
 22 43  1  0
 22 44  1  0
 23 45  1  0
 23 46  1  0
 24 47  1  0
 24 48  1  0
 25 49  1  0
 25 50  1  0
 27 51  1  0
M  END
>  <filename_input>  (15) 
7ZHP_IQY_docked.sdf

>  <pdb_id>  (15) 
7ZHP_IQY

>  <pose_rank>  (15) 
14

>  <num_atoms_heavy>  (15) 
27

>  <num_torsions>  (15) 
4

>  <pose>  (15) 
[68.70506284565745, 42.20098167528663, -0.3705669219393588, -1.0882043085473143, -1.728060716147673, -2.684553162054134, -2.6074707200787075, 0.8440222929246547, 2.008217167773995, -1.5688109318709247]

>  <energy>  (15) 
-543.5857454595825

>  <inter_energy>  (15) 
-547.1226934051998

>  <intra_energy>  (15) 
0.0

>  <rmsd>  (15) 
9.40022

>  <sdf_rank>  (15) 
0

$$$$

     RDKit          3D

 51 54  0  0  0  0  0  0  0  0999 V2000
   67.9206   40.6428    0.3228 N   0  0  0  0  0  0  0  0  0  0  0  0
   66.5779   35.1245    4.4133 C   0  0  2  0  0  0  0  0  0  0  0  0
   67.1195   42.8754   -0.0437 N   0  0  0  0  0  0  0  0  0  0  0  0
   68.3641   36.2568    2.7554 C   0  0  0  0  0  0  0  0  0  0  0  0
   69.3510   36.8527    1.8927 C   0  0  0  0  0  0  0  0  0  0  0  0
   70.5237   36.1448    1.5922 C   0  0  0  0  0  0  0  0  0  0  0  0
   67.2563   34.7480    5.6290 O   0  0  0  0  0  0  0  0  0  0  0  0
   65.4360   36.0757    4.7779 C   0  0  0  0  0  0  0  0  0  0  0  0
   65.5909   37.4694    4.2720 C   0  0  0  0  0  0  0  0  0  0  0  0
   66.0556   33.8639    3.7516 C   0  0  0  0  0  0  0  0  0  0  0  0
   67.1295   32.8702    3.3655 C   0  0  0  0  0  0  0  0  0  0  0  0
   67.5440   35.7926    3.4936 C   0  0  0  0  0  0  0  0  0  0  0  0
   69.1142   38.1087    1.3089 C   0  0  0  0  0  0  0  0  0  0  0  0
   70.0476   38.6449    0.4073 C   0  0  0  0  0  0  0  0  0  0  0  0
   71.1970   37.8939    0.1009 C   0  0  0  0  0  0  0  0  0  0  0  0
   71.4415   36.6517    0.6859 C   0  0  0  0  0  0  0  0  0  0  0  0
   70.1421   39.8983   -0.3569 C   0  0  0  0  0  0  0  0  0  0  0  0
   69.0930   40.9679   -0.2452 C   0  0  0  0  0  0  0  0  0  0  0  0
   69.3417   42.2708   -0.7128 C   0  0  0  0  0  0  0  0  0  0  0  0
   68.2954   43.1576   -0.6031 C   0  0  0  0  0  0  0  0  0  0  0  0
   66.9848   41.6157    0.4106 C   0  0  0  0  0  0  0  0  0  0  0  0
   65.8596   41.3211    1.0604 N   0  0  0  0  0  0  0  0  0  0  0  0
   70.6730   42.7574   -1.2318 C   0  0  0  0  0  0  0  0  0  0  0  0
   71.1596   42.0110   -2.4420 C   0  0  0  0  0  0  0  0  0  0  0  0
   71.9753   40.7679   -2.0703 C   0  0  0  0  0  0  0  0  0  0  0  0
   71.3450   39.8131   -1.1013 C   0  0  0  0  0  0  0  0  0  0  0  0
   71.9675   38.6062   -0.8100 N   0  0  0  0  0  0  0  0  0  0  0  0
   70.7169   35.1782    2.0805 H   0  0  0  0  0  0  0  0  0  0  0  0
   66.7236   35.0436    6.4093 H   0  0  0  0  0  0  0  0  0  0  0  0
   64.5038   35.6641    4.3638 H   0  0  0  0  0  0  0  0  0  0  0  0
   65.4331   36.1458    5.8756 H   0  0  0  0  0  0  0  0  0  0  0  0
   65.6679   38.1619    5.1231 H   0  0  0  0  0  0  0  0  0  0  0  0
   66.5022   37.5381    3.6598 H   0  0  0  0  0  0  0  0  0  0  0  0
   64.7169   37.7365    3.6598 H   0  0  0  0  0  0  0  0  0  0  0  0
   65.3644   33.3696    4.4501 H   0  0  0  0  0  0  0  0  0  0  0  0
   65.5681   34.1786    2.8171 H   0  0  0  0  0  0  0  0  0  0  0  0
   67.5839   32.4497    4.2747 H   0  0  0  0  0  0  0  0  0  0  0  0
   66.6826   32.0600    2.7706 H   0  0  0  0  0  0  0  0  0  0  0  0
   67.9026   33.3784    2.7706 H   0  0  0  0  0  0  0  0  0  0  0  0
   68.2012   38.6697    1.5572 H   0  0  0  0  0  0  0  0  0  0  0  0
   72.3484   36.0833    0.4320 H   0  0  0  0  0  0  0  0  0  0  0  0
   68.4400   44.1711   -1.0057 H   0  0  0  0  0  0  0  0  0  0  0  0
   65.1179   42.0297    1.1532 H   0  0  0  0  0  0  0  0  0  0  0  0
   65.7315   40.3848    1.4699 H   0  0  0  0  0  0  0  0  0  0  0  0
   70.5750   43.8207   -1.4959 H   0  0  0  0  0  0  0  0  0  0  0  0
   71.4101   42.5893   -0.4328 H   0  0  0  0  0  0  0  0  0  0  0  0
   70.2896   41.6978   -3.0378 H   0  0  0  0  0  0  0  0  0  0  0  0
   71.8155   42.6855   -3.0118 H   0  0  0  0  0  0  0  0  0  0  0  0
   72.1802   40.2141   -2.9984 H   0  0  0  0  0  0  0  0  0  0  0  0
   72.8693   41.1519   -1.5572 H   0  0  0  0  0  0  0  0  0  0  0  0
   72.8626   38.2881   -1.2081 H   0  0  0  0  0  0  0  0  0  0  0  0
  1 18  2  0
  1 21  1  0
  2  7  1  0
  2  8  1  0
  2 10  1  0
  2 12  1  6
  3 20  1  0
  3 21  2  0
  4  5  1  0
  4 12  3  0
  5  6  2  0
  5 13  1  0
  6 16  1  0
  8  9  1  0
 10 11  1  0
 13 14  2  0
 14 15  1  0
 14 17  1  0
 15 16  2  0
 15 27  1  0
 17 18  1  0
 17 26  2  0
 18 19  1  0
 19 20  2  0
 19 23  1  0
 21 22  1  0
 23 24  1  0
 24 25  1  0
 25 26  1  0
 26 27  1  0
  6 28  1  0
  7 29  1  0
  8 30  1  0
  8 31  1  0
  9 32  1  0
  9 33  1  0
  9 34  1  0
 10 35  1  0
 10 36  1  0
 11 37  1  0
 11 38  1  0
 11 39  1  0
 13 40  1  0
 16 41  1  0
 20 42  1  0
 22 43  1  0
 22 44  1  0
 23 45  1  0
 23 46  1  0
 24 47  1  0
 24 48  1  0
 25 49  1  0
 25 50  1  0
 27 51  1  0
M  END
>  <filename_input>  (16) 
7ZHP_IQY_docked.sdf

>  <pdb_id>  (16) 
7ZHP_IQY

>  <pose_rank>  (16) 
15

>  <num_atoms_heavy>  (16) 
27

>  <num_torsions>  (16) 
4

>  <pose>  (16) 
[67.92059982690097, 40.642830906919194, 0.32284403510939036, 1.5636022969159555, 2.1406515417608936, -1.948505051573344, 0.09016294257932435, 0.47113259240900496, 0.5088241088655931, -2.341592686918245]

>  <energy>  (16) 
-681.5423304744647

>  <inter_energy>  (16) 
-692.623140141373

>  <intra_energy>  (16) 
5.7808106995945785

>  <rmsd>  (16) 
4.08717

>  <sdf_rank>  (16) 
0

$$$$

     RDKit          3D

 51 54  0  0  0  0  0  0  0  0999 V2000
   71.1031   43.6733   -3.6402 N   0  0  0  0  0  0  0  0  0  0  0  0
   68.7017   39.0124    0.9302 C   0  0  2  0  0  0  0  0  0  0  0  0
   70.3812   45.6859   -4.7304 N   0  0  0  0  0  0  0  0  0  0  0  0
   70.9267   39.9714   -0.2319 C   0  0  0  0  0  0  0  0  0  0  0  0
   72.1093   40.4651   -0.8887 C   0  0  0  0  0  0  0  0  0  0  0  0
   73.3394   39.8295   -0.6663 C   0  0  0  0  0  0  0  0  0  0  0  0
   68.5512   37.6153    0.6056 O   0  0  0  0  0  0  0  0  0  0  0  0
   68.7449   39.1474    2.4538 C   0  0  0  0  0  0  0  0  0  0  0  0
   67.7367   38.3307    3.1878 C   0  0  0  0  0  0  0  0  0  0  0  0
   67.5236   39.7654    0.3430 C   0  0  0  0  0  0  0  0  0  0  0  0
   67.4969   41.2413    0.6761 C   0  0  0  0  0  0  0  0  0  0  0  0
   69.9619   39.5292    0.3216 C   0  0  0  0  0  0  0  0  0  0  0  0
   72.0211   41.5382   -1.7915 C   0  0  0  0  0  0  0  0  0  0  0  0
   73.1662   41.9603   -2.4859 C   0  0  0  0  0  0  0  0  0  0  0  0
   74.3772   41.2793   -2.2656 C   0  0  0  0  0  0  0  0  0  0  0  0
   74.4720   40.2206   -1.3627 C   0  0  0  0  0  0  0  0  0  0  0  0
   73.4482   43.0255   -3.4604 C   0  0  0  0  0  0  0  0  0  0  0  0
   72.3817   43.9848   -3.9069 C   0  0  0  0  0  0  0  0  0  0  0  0
   72.7194   45.1765   -4.5731 C   0  0  0  0  0  0  0  0  0  0  0  0
   71.6619   45.9580   -4.9782 C   0  0  0  0  0  0  0  0  0  0  0  0
   70.1548   44.5447   -4.0539 C   0  0  0  0  0  0  0  0  0  0  0  0
   68.8955   44.2849   -3.7048 N   0  0  0  0  0  0  0  0  0  0  0  0
   74.1295   45.6713   -4.7861 C   0  0  0  0  0  0  0  0  0  0  0  0
   74.9822   44.7365   -5.5971 C   0  0  0  0  0  0  0  0  0  0  0  0
   75.6857   43.6883   -4.7282 C   0  0  0  0  0  0  0  0  0  0  0  0
   74.8219   42.9037   -3.7867 C   0  0  0  0  0  0  0  0  0  0  0  0
   75.3645   41.8544   -3.0564 N   0  0  0  0  0  0  0  0  0  0  0  0
   73.4059   39.0130    0.0678 H   0  0  0  0  0  0  0  0  0  0  0  0
   68.4942   37.0868    1.4408 H   0  0  0  0  0  0  0  0  0  0  0  0
   69.7451   38.8421    2.7951 H   0  0  0  0  0  0  0  0  0  0  0  0
   68.5094   40.1987    2.6760 H   0  0  0  0  0  0  0  0  0  0  0  0
   67.8855   38.4513    4.2710 H   0  0  0  0  0  0  0  0  0  0  0  0
   66.7250   38.6670    2.9170 H   0  0  0  0  0  0  0  0  0  0  0  0
   67.8557   37.2712    2.9170 H   0  0  0  0  0  0  0  0  0  0  0  0
   67.5587   39.6602   -0.7513 H   0  0  0  0  0  0  0  0  0  0  0  0
   66.6176   39.3269    0.7869 H   0  0  0  0  0  0  0  0  0  0  0  0
   67.4946   41.3707    1.7684 H   0  0  0  0  0  0  0  0  0  0  0  0
   68.3864   41.7292    0.2509 H   0  0  0  0  0  0  0  0  0  0  0  0
   66.5904   41.6968    0.2509 H   0  0  0  0  0  0  0  0  0  0  0  0
   71.0587   42.0457   -1.9536 H   0  0  0  0  0  0  0  0  0  0  0  0
   75.4304   39.7041   -1.2058 H   0  0  0  0  0  0  0  0  0  0  0  0
   71.8897   46.8718   -5.5465 H   0  0  0  0  0  0  0  0  0  0  0  0
   68.1387   44.9198   -3.9965 H   0  0  0  0  0  0  0  0  0  0  0  0
   68.6788   43.4491   -3.1432 H   0  0  0  0  0  0  0  0  0  0  0  0
   74.0828   46.6389   -5.3071 H   0  0  0  0  0  0  0  0  0  0  0  0
   74.5954   45.7511   -3.7929 H   0  0  0  0  0  0  0  0  0  0  0  0
   74.3432   44.2190   -6.3278 H   0  0  0  0  0  0  0  0  0  0  0  0
   75.7583   45.3361   -6.0952 H   0  0  0  0  0  0  0  0  0  0  0  0
   76.1786   42.9728   -5.4028 H   0  0  0  0  0  0  0  0  0  0  0  0
   76.3703   44.2595   -4.0840 H   0  0  0  0  0  0  0  0  0  0  0  0
   76.3475   41.5493   -3.0951 H   0  0  0  0  0  0  0  0  0  0  0  0
  1 18  2  0
  1 21  1  0
  2  7  1  0
  2  8  1  0
  2 10  1  0
  2 12  1  6
  3 20  1  0
  3 21  2  0
  4  5  1  0
  4 12  3  0
  5  6  2  0
  5 13  1  0
  6 16  1  0
  8  9  1  0
 10 11  1  0
 13 14  2  0
 14 15  1  0
 14 17  1  0
 15 16  2  0
 15 27  1  0
 17 18  1  0
 17 26  2  0
 18 19  1  0
 19 20  2  0
 19 23  1  0
 21 22  1  0
 23 24  1  0
 24 25  1  0
 25 26  1  0
 26 27  1  0
  6 28  1  0
  7 29  1  0
  8 30  1  0
  8 31  1  0
  9 32  1  0
  9 33  1  0
  9 34  1  0
 10 35  1  0
 10 36  1  0
 11 37  1  0
 11 38  1  0
 11 39  1  0
 13 40  1  0
 16 41  1  0
 20 42  1  0
 22 43  1  0
 22 44  1  0
 23 45  1  0
 23 46  1  0
 24 47  1  0
 24 48  1  0
 25 49  1  0
 25 50  1  0
 27 51  1  0
M  END
>  <filename_input>  (17) 
7ZHP_IQY_docked.sdf

>  <pdb_id>  (17) 
7ZHP_IQY

>  <pose_rank>  (17) 
16

>  <num_atoms_heavy>  (17) 
27

>  <num_torsions>  (17) 
4

>  <pose>  (17) 
[71.10311197995487, 43.673265213755414, -3.6402332640469455, 1.6003384191907173, 1.766088097497083, -1.7302064783406272, -2.4256004945845198, 1.0792385105619693, 4.041361580138076, 1.8017239324916092]

>  <energy>  (17) 
-447.6787017598942

>  <inter_energy>  (17) 
-449.5395969587616

>  <intra_energy>  (17) 
0.030072410848852104

>  <rmsd>  (17) 
6.90228

>  <sdf_rank>  (17) 
0

$$$$

     RDKit          3D

 51 54  0  0  0  0  0  0  0  0999 V2000
   66.3792   41.3314    0.7176 N   0  0  0  0  0  0  0  0  0  0  0  0
   72.6305   41.1938   -2.4438 C   0  0  2  0  0  0  0  0  0  0  0  0
   65.2159   40.2358    2.5084 N   0  0  0  0  0  0  0  0  0  0  0  0
   70.3697   42.5997   -2.0785 C   0  0  0  0  0  0  0  0  0  0  0  0
   69.1785   43.3871   -1.8926 C   0  0  0  0  0  0  0  0  0  0  0  0
   69.0223   44.5831   -2.6079 C   0  0  0  0  0  0  0  0  0  0  0  0
   73.7551   42.0938   -2.3730 O   0  0  0  0  0  0  0  0  0  0  0  0
   72.8190   40.1084   -1.3818 C   0  0  0  0  0  0  0  0  0  0  0  0
   71.6064   39.8033   -0.5703 C   0  0  0  0  0  0  0  0  0  0  0  0
   72.5857   40.5993   -3.8382 C   0  0  0  0  0  0  0  0  0  0  0  0
   71.7430   41.3799   -4.8233 C   0  0  0  0  0  0  0  0  0  0  0  0
   71.3710   41.9549   -2.1984 C   0  0  0  0  0  0  0  0  0  0  0  0
   68.1541   42.9309   -1.0459 C   0  0  0  0  0  0  0  0  0  0  0  0
   66.9639   43.6673   -0.9331 C   0  0  0  0  0  0  0  0  0  0  0  0
   66.8253   44.8445   -1.6906 C   0  0  0  0  0  0  0  0  0  0  0  0
   67.8434   45.3069   -2.5241 C   0  0  0  0  0  0  0  0  0  0  0  0
   65.7248   43.5133   -0.1555 C   0  0  0  0  0  0  0  0  0  0  0  0
   65.5349   42.3719    0.8029 C   0  0  0  0  0  0  0  0  0  0  0  0
   64.5095   42.4037    1.7649 C   0  0  0  0  0  0  0  0  0  0  0  0
   64.3973   41.2859    2.5595 C   0  0  0  0  0  0  0  0  0  0  0  0
   66.1911   40.3095    1.5839 C   0  0  0  0  0  0  0  0  0  0  0  0
   67.0862   39.3228    1.5647 N   0  0  0  0  0  0  0  0  0  0  0  0
   63.6107   43.5885    2.0232 C   0  0  0  0  0  0  0  0  0  0  0  0
   62.7857   43.9922    0.8338 C   0  0  0  0  0  0  0  0  0  0  0  0
   63.5180   44.9885   -0.0717 C   0  0  0  0  0  0  0  0  0  0  0  0
   64.8991   44.6078   -0.5142 C   0  0  0  0  0  0  0  0  0  0  0  0
   65.5777   45.3989   -1.4320 N   0  0  0  0  0  0  0  0  0  0  0  0
   69.8432   44.9502   -3.2415 H   0  0  0  0  0  0  0  0  0  0  0  0
   73.9767   42.2711   -1.4246 H   0  0  0  0  0  0  0  0  0  0  0  0
   73.1308   39.1841   -1.8903 H   0  0  0  0  0  0  0  0  0  0  0  0
   73.5708   40.4947   -0.6778 H   0  0  0  0  0  0  0  0  0  0  0  0
   71.8557   39.8660    0.4992 H   0  0  0  0  0  0  0  0  0  0  0  0
   70.8152   40.5303   -0.8057 H   0  0  0  0  0  0  0  0  0  0  0  0
   71.2536   38.7883   -0.8057 H   0  0  0  0  0  0  0  0  0  0  0  0
   73.6141   40.5532   -4.2259 H   0  0  0  0  0  0  0  0  0  0  0  0
   72.1191   39.6078   -3.7421 H   0  0  0  0  0  0  0  0  0  0  0  0
   71.0435   42.0278   -4.2747 H   0  0  0  0  0  0  0  0  0  0  0  0
   72.3968   41.9985   -5.4556 H   0  0  0  0  0  0  0  0  0  0  0  0
   71.1761   40.6807   -5.4556 H   0  0  0  0  0  0  0  0  0  0  0  0
   68.2841   42.0005   -0.4737 H   0  0  0  0  0  0  0  0  0  0  0  0
   67.7128   46.2314   -3.1057 H   0  0  0  0  0  0  0  0  0  0  0  0
   63.5738   41.2573    3.2882 H   0  0  0  0  0  0  0  0  0  0  0  0
   66.9850   38.5232    2.2060 H   0  0  0  0  0  0  0  0  0  0  0  0
   67.8793   39.3597    0.9086 H   0  0  0  0  0  0  0  0  0  0  0  0
   62.9290   43.3338    2.8482 H   0  0  0  0  0  0  0  0  0  0  0  0
   64.2634   44.4401    2.2655 H   0  0  0  0  0  0  0  0  0  0  0  0
   62.5455   43.0925    0.2482 H   0  0  0  0  0  0  0  0  0  0  0  0
   61.8752   44.4837    1.2072 H   0  0  0  0  0  0  0  0  0  0  0  0
   62.9060   45.1302   -0.9747 H   0  0  0  0  0  0  0  0  0  0  0  0
   63.6500   45.8925    0.5409 H   0  0  0  0  0  0  0  0  0  0  0  0
   65.2123   46.2637   -1.8559 H   0  0  0  0  0  0  0  0  0  0  0  0
  1 18  2  0
  1 21  1  0
  2  7  1  0
  2  8  1  0
  2 10  1  0
  2 12  1  1
  3 20  1  0
  3 21  2  0
  4  5  1  0
  4 12  3  0
  5  6  2  0
  5 13  1  0
  6 16  1  0
  8  9  1  0
 10 11  1  0
 13 14  2  0
 14 15  1  0
 14 17  1  0
 15 16  2  0
 15 27  1  0
 17 18  1  0
 17 26  2  0
 18 19  1  0
 19 20  2  0
 19 23  1  0
 21 22  1  0
 23 24  1  0
 24 25  1  0
 25 26  1  0
 26 27  1  0
  6 28  1  0
  7 29  1  0
  8 30  1  0
  8 31  1  0
  9 32  1  0
  9 33  1  0
  9 34  1  0
 10 35  1  0
 10 36  1  0
 11 37  1  0
 11 38  1  0
 11 39  1  0
 13 40  1  0
 16 41  1  0
 20 42  1  0
 22 43  1  0
 22 44  1  0
 23 45  1  0
 23 46  1  0
 24 47  1  0
 24 48  1  0
 25 49  1  0
 25 50  1  0
 27 51  1  0
M  END
>  <filename_input>  (18) 
7ZHP_IQY_docked.sdf

>  <pdb_id>  (18) 
7ZHP_IQY

>  <pose_rank>  (18) 
17

>  <num_atoms_heavy>  (18) 
27

>  <num_torsions>  (18) 
4

>  <pose>  (18) 
[66.3791872074599, 41.331376837767515, 0.7176335205100661, -1.4068527444022065, 2.7663518790019475, -1.06466849297978, -0.23528312453460778, 0.6742128513466642, 0.8677501886544086, -2.865236885806182]

>  <energy>  (18) 
-380.0622048230689

>  <inter_energy>  (18) 
-394.7366315434736

>  <intra_energy>  (18) 
11.994062451824025

>  <rmsd>  (18) 
8.48083

>  <sdf_rank>  (18) 
0

$$$$

     RDKit          3D

 51 54  0  0  0  0  0  0  0  0999 V2000
   67.3860   43.1881   -0.3428 N   0  0  0  0  0  0  0  0  0  0  0  0
   72.3674   45.5373   -4.5417 C   0  0  2  0  0  0  0  0  0  0  0  0
   65.0673   43.6100    0.1108 N   0  0  0  0  0  0  0  0  0  0  0  0
   71.6987   43.4995   -2.9226 C   0  0  0  0  0  0  0  0  0  0  0  0
   71.3010   42.4163   -2.0613 C   0  0  0  0  0  0  0  0  0  0  0  0
   72.1995   41.3700   -1.8073 C   0  0  0  0  0  0  0  0  0  0  0  0
   72.8888   44.9904   -5.7700 O   0  0  0  0  0  0  0  0  0  0  0  0
   71.1224   46.3619   -4.8759 C   0  0  0  0  0  0  0  0  0  0  0  0
   70.8230   46.4898   -6.3306 C   0  0  0  0  0  0  0  0  0  0  0  0
   73.4450   46.3972   -3.9100 C   0  0  0  0  0  0  0  0  0  0  0  0
   74.1437   47.3313   -4.8739 C   0  0  0  0  0  0  0  0  0  0  0  0
   72.0246   44.4238   -3.6099 C   0  0  0  0  0  0  0  0  0  0  0  0
   70.0443   42.4371   -1.4330 C   0  0  0  0  0  0  0  0  0  0  0  0
   69.6981   41.4158   -0.5337 C   0  0  0  0  0  0  0  0  0  0  0  0
   70.6356   40.3994   -0.2748 C   0  0  0  0  0  0  0  0  0  0  0  0
   71.8798   40.3688   -0.9039 C   0  0  0  0  0  0  0  0  0  0  0  0
   68.5039   41.1075    0.2679 C   0  0  0  0  0  0  0  0  0  0  0  0
   67.2752   41.9702    0.2116 C   0  0  0  0  0  0  0  0  0  0  0  0
   66.0469   41.5061    0.7155 C   0  0  0  0  0  0  0  0  0  0  0  0
   64.9989   42.3957    0.6552 C   0  0  0  0  0  0  0  0  0  0  0  0
   66.2719   43.9544   -0.3806 C   0  0  0  0  0  0  0  0  0  0  0  0
   66.3575   45.1219   -1.0167 N   0  0  0  0  0  0  0  0  0  0  0  0
   65.8007   40.1059    1.2228 C   0  0  0  0  0  0  0  0  0  0  0  0
   66.6578   39.7295    2.3985 C   0  0  0  0  0  0  0  0  0  0  0  0
   68.0029   39.1323    1.9710 C   0  0  0  0  0  0  0  0  0  0  0  0
   68.8087   39.9236    0.9849 C   0  0  0  0  0  0  0  0  0  0  0  0
   70.0896   39.5101    0.6428 N   0  0  0  0  0  0  0  0  0  0  0  0
   73.1671   41.3438   -2.3299 H   0  0  0  0  0  0  0  0  0  0  0  0
   73.5568   44.2899   -5.5620 H   0  0  0  0  0  0  0  0  0  0  0  0
   70.2576   45.8863   -4.3902 H   0  0  0  0  0  0  0  0  0  0  0  0
   71.3219   47.3808   -4.5126 H   0  0  0  0  0  0  0  0  0  0  0  0
   69.8186   46.9187   -6.4619 H   0  0  0  0  0  0  0  0  0  0  0  0
   71.5675   47.1484   -6.8017 H   0  0  0  0  0  0  0  0  0  0  0  0
   70.8619   45.4965   -6.8017 H   0  0  0  0  0  0  0  0  0  0  0  0
   72.9812   47.0037   -3.1181 H   0  0  0  0  0  0  0  0  0  0  0  0
   74.2128   45.7083   -3.5279 H   0  0  0  0  0  0  0  0  0  0  0  0
   74.7087   48.0866   -4.3079 H   0  0  0  0  0  0  0  0  0  0  0  0
   74.8344   46.7552   -5.5072 H   0  0  0  0  0  0  0  0  0  0  0  0
   73.3960   47.8311   -5.5072 H   0  0  0  0  0  0  0  0  0  0  0  0
   69.3345   43.2503   -1.6449 H   0  0  0  0  0  0  0  0  0  0  0  0
   72.5961   39.5628   -0.6866 H   0  0  0  0  0  0  0  0  0  0  0  0
   64.0369   42.0824    1.0870 H   0  0  0  0  0  0  0  0  0  0  0  0
   65.5353   45.7399   -1.0719 H   0  0  0  0  0  0  0  0  0  0  0  0
   67.2460   45.4066   -1.4533 H   0  0  0  0  0  0  0  0  0  0  0  0
   64.7454   40.0258    1.5226 H   0  0  0  0  0  0  0  0  0  0  0  0
   66.0581   39.4178    0.4042 H   0  0  0  0  0  0  0  0  0  0  0  0
   66.8463   40.6300    3.0014 H   0  0  0  0  0  0  0  0  0  0  0  0
   66.1186   38.9643    2.9763 H   0  0  0  0  0  0  0  0  0  0  0  0
   68.6145   39.0066    2.8766 H   0  0  0  0  0  0  0  0  0  0  0  0
   67.7512   38.1954    1.4525 H   0  0  0  0  0  0  0  0  0  0  0  0
   70.5623   38.6728    1.0123 H   0  0  0  0  0  0  0  0  0  0  0  0
  1 18  2  0
  1 21  1  0
  2  7  1  0
  2  8  1  0
  2 10  1  0
  2 12  1  1
  3 20  1  0
  3 21  2  0
  4  5  1  0
  4 12  3  0
  5  6  2  0
  5 13  1  0
  6 16  1  0
  8  9  1  0
 10 11  1  0
 13 14  2  0
 14 15  1  0
 14 17  1  0
 15 16  2  0
 15 27  1  0
 17 18  1  0
 17 26  2  0
 18 19  1  0
 19 20  2  0
 19 23  1  0
 21 22  1  0
 23 24  1  0
 24 25  1  0
 25 26  1  0
 26 27  1  0
  6 28  1  0
  7 29  1  0
  8 30  1  0
  8 31  1  0
  9 32  1  0
  9 33  1  0
  9 34  1  0
 10 35  1  0
 10 36  1  0
 11 37  1  0
 11 38  1  0
 11 39  1  0
 13 40  1  0
 16 41  1  0
 20 42  1  0
 22 43  1  0
 22 44  1  0
 23 45  1  0
 23 46  1  0
 24 47  1  0
 24 48  1  0
 25 49  1  0
 25 50  1  0
 27 51  1  0
M  END
>  <filename_input>  (19) 
7ZHP_IQY_docked.sdf

>  <pdb_id>  (19) 
7ZHP_IQY

>  <pose_rank>  (19) 
18

>  <num_atoms_heavy>  (19) 
27

>  <num_torsions>  (19) 
4

>  <pose>  (19) 
[67.3860435450867, 43.188085812653966, -0.34280325632324465, -1.101796988305071, -1.5984097179301813, -2.5898396182360477, 8.344628651695073, 10.979630883270492, -1.5590626287006084, -0.4797407438281788]

>  <energy>  (19) 
-464.17840527987136

>  <inter_energy>  (19) 
-464.4129993093042

>  <intra_energy>  (19) 
0.1797978799474341

>  <rmsd>  (19) 
10.0174

>  <sdf_rank>  (19) 
0

$$$$

     RDKit          3D

 51 54  0  0  0  0  0  0  0  0999 V2000
   75.4793   43.3925   -2.2472 N   0  0  0  0  0  0  0  0  0  0  0  0
   71.5020   38.7739    1.0817 C   0  0  2  0  0  0  0  0  0  0  0  0
   77.7868   43.6937   -2.8345 N   0  0  0  0  0  0  0  0  0  0  0  0
   71.4450   40.8742   -0.5936 C   0  0  0  0  0  0  0  0  0  0  0  0
   71.4365   41.9781   -1.5182 C   0  0  0  0  0  0  0  0  0  0  0  0
   70.2122   42.5021   -1.9573 C   0  0  0  0  0  0  0  0  0  0  0  0
   71.4163   39.2048    2.4553 O   0  0  0  0  0  0  0  0  0  0  0  0
   70.3053   37.8661    0.7897 C   0  0  0  0  0  0  0  0  0  0  0  0
   68.9705   38.4999    0.9868 C   0  0  0  0  0  0  0  0  0  0  0  0
   72.8131   38.0345    0.8974 C   0  0  0  0  0  0  0  0  0  0  0  0
   72.8627   37.1466   -0.3270 C   0  0  0  0  0  0  0  0  0  0  0  0
   71.4861   39.9672    0.1865 C   0  0  0  0  0  0  0  0  0  0  0  0
   72.6451   42.5641   -1.9311 C   0  0  0  0  0  0  0  0  0  0  0  0
   72.6225   43.6896   -2.7704 C   0  0  0  0  0  0  0  0  0  0  0  0
   71.3770   44.2112   -3.1649 C   0  0  0  0  0  0  0  0  0  0  0  0
   70.1752   43.6267   -2.7663 C   0  0  0  0  0  0  0  0  0  0  0  0
   73.6539   44.5280   -3.4005 C   0  0  0  0  0  0  0  0  0  0  0  0
   75.1176   44.2377   -3.2259 C   0  0  0  0  0  0  0  0  0  0  0  0
   76.0737   44.8274   -4.0720 C   0  0  0  0  0  0  0  0  0  0  0  0
   77.3876   44.5289   -3.7930 C   0  0  0  0  0  0  0  0  0  0  0  0
   76.8012   43.1462   -2.0997 C   0  0  0  0  0  0  0  0  0  0  0  0
   77.1531   42.2345   -1.1940 N   0  0  0  0  0  0  0  0  0  0  0  0
   75.7472   45.6719   -5.2798 C   0  0  0  0  0  0  0  0  0  0  0  0
   74.9685   46.9156   -4.9553 C   0  0  0  0  0  0  0  0  0  0  0  0
   73.4555   46.6719   -4.9553 C   0  0  0  0  0  0  0  0  0  0  0  0
   72.9573   45.5270   -4.1252 C   0  0  0  0  0  0  0  0  0  0  0  0
   71.5923   45.3182   -3.9769 N   0  0  0  0  0  0  0  0  0  0  0  0
   69.2723   42.0159   -1.6568 H   0  0  0  0  0  0  0  0  0  0  0  0
   71.5702   38.4315    3.0540 H   0  0  0  0  0  0  0  0  0  0  0  0
   70.3750   37.5359   -0.2572 H   0  0  0  0  0  0  0  0  0  0  0  0
   70.3628   37.0396    1.5133 H   0  0  0  0  0  0  0  0  0  0  0  0
   68.7660   38.5970    2.0632 H   0  0  0  0  0  0  0  0  0  0  0  0
   68.9655   39.4965    0.5212 H   0  0  0  0  0  0  0  0  0  0  0  0
   68.1950   37.8739    0.5212 H   0  0  0  0  0  0  0  0  0  0  0  0
   73.6193   38.7784    0.8159 H   0  0  0  0  0  0  0  0  0  0  0  0
   72.9263   37.3736    1.7695 H   0  0  0  0  0  0  0  0  0  0  0  0
   72.9215   36.0936   -0.0142 H   0  0  0  0  0  0  0  0  0  0  0  0
   71.9546   37.3003   -0.9284 H   0  0  0  0  0  0  0  0  0  0  0  0
   73.7480   37.4004   -0.9284 H   0  0  0  0  0  0  0  0  0  0  0  0
   73.6051   42.1427   -1.5982 H   0  0  0  0  0  0  0  0  0  0  0  0
   69.2132   44.0516   -3.0889 H   0  0  0  0  0  0  0  0  0  0  0  0
   78.1630   45.0138   -4.4041 H   0  0  0  0  0  0  0  0  0  0  0  0
   78.1480   42.0130   -1.0459 H   0  0  0  0  0  0  0  0  0  0  0  0
   76.4301   41.7512   -0.6420 H   0  0  0  0  0  0  0  0  0  0  0  0
   76.6906   45.9687   -5.7613 H   0  0  0  0  0  0  0  0  0  0  0  0
   75.1141   45.0592   -5.9385 H   0  0  0  0  0  0  0  0  0  0  0  0
   75.2694   47.2713   -3.9589 H   0  0  0  0  0  0  0  0  0  0  0  0
   75.1887   47.6625   -5.7323 H   0  0  0  0  0  0  0  0  0  0  0  0
   72.9705   47.5874   -4.5855 H   0  0  0  0  0  0  0  0  0  0  0  0
   73.2057   46.4063   -5.9931 H   0  0  0  0  0  0  0  0  0  0  0  0
   70.8531   45.8951   -4.4032 H   0  0  0  0  0  0  0  0  0  0  0  0
  1 18  2  0
  1 21  1  0
  2  7  1  0
  2  8  1  0
  2 10  1  0
  2 12  1  6
  3 20  1  0
  3 21  2  0
  4  5  1  0
  4 12  3  0
  5  6  2  0
  5 13  1  0
  6 16  1  0
  8  9  1  0
 10 11  1  0
 13 14  2  0
 14 15  1  0
 14 17  1  0
 15 16  2  0
 15 27  1  0
 17 18  1  0
 17 26  2  0
 18 19  1  0
 19 20  2  0
 19 23  1  0
 21 22  1  0
 23 24  1  0
 24 25  1  0
 25 26  1  0
 26 27  1  0
  6 28  1  0
  7 29  1  0
  8 30  1  0
  8 31  1  0
  9 32  1  0
  9 33  1  0
  9 34  1  0
 10 35  1  0
 10 36  1  0
 11 37  1  0
 11 38  1  0
 11 39  1  0
 13 40  1  0
 16 41  1  0
 20 42  1  0
 22 43  1  0
 22 44  1  0
 23 45  1  0
 23 46  1  0
 24 47  1  0
 24 48  1  0
 25 49  1  0
 25 50  1  0
 27 51  1  0
M  END
>  <filename_input>  (20) 
7ZHP_IQY_docked.sdf

>  <pdb_id>  (20) 
7ZHP_IQY

>  <pose_rank>  (20) 
19

>  <num_atoms_heavy>  (20) 
27

>  <num_torsions>  (20) 
4

>  <pose>  (20) 
[75.47926897575013, 43.392482588879126, -2.24724925854839, 1.6664314043443216, 2.0500826785108988, -5.243823995016049, 1.4283722224210424, -3.326090965710407, -0.44294504121632094, -4.747250258028324]

>  <energy>  (20) 
-423.0500396258666

>  <inter_energy>  (20) 
-411.47882295798433

>  <intra_energy>  (20) 
0.01728708424387878

>  <rmsd>  (20) 
6.91797

>  <sdf_rank>  (20) 
0

$$$$

     RDKit          3D

 51 54  0  0  0  0  0  0  0  0999 V2000
   66.2603   43.7844   -0.6732 N   0  0  0  0  0  0  0  0  0  0  0  0
   72.4393   41.0311   -2.1361 C   0  0  2  0  0  0  0  0  0  0  0  0
   64.7870   45.4671   -1.5440 N   0  0  0  0  0  0  0  0  0  0  0  0
   70.1841   40.6297   -0.7311 C   0  0  0  0  0  0  0  0  0  0  0  0
   68.9614   40.4504    0.0082 C   0  0  0  0  0  0  0  0  0  0  0  0
   68.8362   39.3613    0.8827 C   0  0  0  0  0  0  0  0  0  0  0  0
   72.2551   40.4577   -3.4465 O   0  0  0  0  0  0  0  0  0  0  0  0
   72.7013   42.5295   -2.3023 C   0  0  0  0  0  0  0  0  0  0  0  0
   72.0494   43.1557   -3.4876 C   0  0  0  0  0  0  0  0  0  0  0  0
   73.6137   40.3359   -1.4749 C   0  0  0  0  0  0  0  0  0  0  0  0
   74.9694   40.8325   -1.9280 C   0  0  0  0  0  0  0  0  0  0  0  0
   71.2134   40.8003   -1.3178 C   0  0  0  0  0  0  0  0  0  0  0  0
   67.9244   41.3923   -0.1009 C   0  0  0  0  0  0  0  0  0  0  0  0
   66.7688   41.2500    0.6839 C   0  0  0  0  0  0  0  0  0  0  0  0
   66.6893   40.1654    1.5762 C   0  0  0  0  0  0  0  0  0  0  0  0
   67.7114   39.2222    1.6802 C   0  0  0  0  0  0  0  0  0  0  0  0
   65.5127   42.0039    0.8175 C   0  0  0  0  0  0  0  0  0  0  0  0
   65.2322   43.2188   -0.0206 C   0  0  0  0  0  0  0  0  0  0  0  0
   63.9284   43.7361   -0.1235 C   0  0  0  0  0  0  0  0  0  0  0  0
   63.7938   44.8781   -0.8791 C   0  0  0  0  0  0  0  0  0  0  0  0
   65.9919   44.8808   -1.4187 C   0  0  0  0  0  0  0  0  0  0  0  0
   66.9908   45.3839   -2.1427 N   0  0  0  0  0  0  0  0  0  0  0  0
   62.6974   43.0839    0.4577 C   0  0  0  0  0  0  0  0  0  0  0  0
   62.7400   42.9364    1.9527 C   0  0  0  0  0  0  0  0  0  0  0  0
   63.4059   41.6271    2.3898 C   0  0  0  0  0  0  0  0  0  0  0  0
   64.7563   41.3312    1.8094 C   0  0  0  0  0  0  0  0  0  0  0  0
   65.4754   40.2276    2.2494 N   0  0  0  0  0  0  0  0  0  0  0  0
   69.6382   38.6104    0.9360 H   0  0  0  0  0  0  0  0  0  0  0  0
   71.9535   39.5191   -3.3566 H   0  0  0  0  0  0  0  0  0  0  0  0
   72.3346   43.0420   -1.4007 H   0  0  0  0  0  0  0  0  0  0  0  0
   73.7853   42.6368   -2.4554 H   0  0  0  0  0  0  0  0  0  0  0  0
   71.2942   43.8809   -3.1502 H   0  0  0  0  0  0  0  0  0  0  0  0
   72.8085   43.6718   -4.0936 H   0  0  0  0  0  0  0  0  0  0  0  0
   71.5642   42.3763   -4.0936 H   0  0  0  0  0  0  0  0  0  0  0  0
   73.5367   40.4887   -0.3883 H   0  0  0  0  0  0  0  0  0  0  0  0
   73.5547   39.2761   -1.7639 H   0  0  0  0  0  0  0  0  0  0  0  0
   75.5894   41.0597   -1.0482 H   0  0  0  0  0  0  0  0  0  0  0  0
   75.4611   40.0562   -2.5325 H   0  0  0  0  0  0  0  0  0  0  0  0
   74.8431   41.7428   -2.5325 H   0  0  0  0  0  0  0  0  0  0  0  0
   68.0175   42.2377   -0.7985 H   0  0  0  0  0  0  0  0  0  0  0  0
   67.6262   38.3813    2.3842 H   0  0  0  0  0  0  0  0  0  0  0  0
   62.7960   45.3371   -0.9385 H   0  0  0  0  0  0  0  0  0  0  0  0
   66.8345   46.2181   -2.7263 H   0  0  0  0  0  0  0  0  0  0  0  0
   67.9193   44.9387   -2.1188 H   0  0  0  0  0  0  0  0  0  0  0  0
   61.8227   43.6965    0.1940 H   0  0  0  0  0  0  0  0  0  0  0  0
   62.6420   42.0694    0.0362 H   0  0  0  0  0  0  0  0  0  0  0  0
   63.3063   43.7795    2.3752 H   0  0  0  0  0  0  0  0  0  0  0  0
   61.7028   42.9248    2.3190 H   0  0  0  0  0  0  0  0  0  0  0  0
   63.5129   41.6570    3.4842 H   0  0  0  0  0  0  0  0  0  0  0  0
   62.7487   40.8293    2.0137 H   0  0  0  0  0  0  0  0  0  0  0  0
   65.1577   39.5581    2.9648 H   0  0  0  0  0  0  0  0  0  0  0  0
  1 18  2  0
  1 21  1  0
  2  7  1  0
  2  8  1  0
  2 10  1  0
  2 12  1  1
  3 20  1  0
  3 21  2  0
  4  5  1  0
  4 12  3  0
  5  6  2  0
  5 13  1  0
  6 16  1  0
  8  9  1  0
 10 11  1  0
 13 14  2  0
 14 15  1  0
 14 17  1  0
 15 16  2  0
 15 27  1  0
 17 18  1  0
 17 26  2  0
 18 19  1  0
 19 20  2  0
 19 23  1  0
 21 22  1  0
 23 24  1  0
 24 25  1  0
 25 26  1  0
 26 27  1  0
  6 28  1  0
  7 29  1  0
  8 30  1  0
  8 31  1  0
  9 32  1  0
  9 33  1  0
  9 34  1  0
 10 35  1  0
 10 36  1  0
 11 37  1  0
 11 38  1  0
 11 39  1  0
 13 40  1  0
 16 41  1  0
 20 42  1  0
 22 43  1  0
 22 44  1  0
 23 45  1  0
 23 46  1  0
 24 47  1  0
 24 48  1  0
 25 49  1  0
 25 50  1  0
 27 51  1  0
M  END
>  <filename_input>  (21) 
7ZHP_IQY_docked.sdf

>  <pdb_id>  (21) 
7ZHP_IQY

>  <pose_rank>  (21) 
20

>  <num_atoms_heavy>  (21) 
27

>  <num_torsions>  (21) 
4

>  <pose>  (21) 
[66.26032987974382, 43.7843931902198, -0.6731852815529874, -1.3354161954293498, -2.2112551470783206, -3.2027458146011285, 8.823032203960626, 11.30147512333442, -0.9513046283821605, 0.11230674194706132]

>  <energy>  (21) 
-470.1005901811244

>  <inter_energy>  (21) 
-463.2719490568617

>  <intra_energy>  (21) 
0.0

>  <rmsd>  (21) 
8.742

>  <sdf_rank>  (21) 
0

$$$$

     RDKit          3D

 51 54  0  0  0  0  0  0  0  0999 V2000
   73.9646   42.2410   -2.7339 N   0  0  0  0  0  0  0  0  0  0  0  0
   68.4006   39.3955    0.4122 C   0  0  2  0  0  0  0  0  0  0  0  0
   76.2044   41.6544   -3.3660 N   0  0  0  0  0  0  0  0  0  0  0  0
   69.2538   41.3905   -1.1732 C   0  0  0  0  0  0  0  0  0  0  0  0
   69.6894   42.4858   -2.0002 C   0  0  0  0  0  0  0  0  0  0  0  0
   68.7765   43.4896   -2.3545 C   0  0  0  0  0  0  0  0  0  0  0  0
   67.4431   38.5622   -0.2723 O   0  0  0  0  0  0  0  0  0  0  0  0
   69.5785   38.5176    0.8405 C   0  0  0  0  0  0  0  0  0  0  0  0
   70.7236   39.2526    1.4493 C   0  0  0  0  0  0  0  0  0  0  0  0
   67.7141   40.0206    1.6111 C   0  0  0  0  0  0  0  0  0  0  0  0
   66.8386   39.0684    2.3964 C   0  0  0  0  0  0  0  0  0  0  0  0
   68.8598   40.4785   -0.5054 C   0  0  0  0  0  0  0  0  0  0  0  0
   71.0333   42.5793   -2.3999 C   0  0  0  0  0  0  0  0  0  0  0  0
   71.4642   43.6923   -3.1396 C   0  0  0  0  0  0  0  0  0  0  0  0
   70.5308   44.6982   -3.4491 C   0  0  0  0  0  0  0  0  0  0  0  0
   69.1937   44.6047   -3.0637 C   0  0  0  0  0  0  0  0  0  0  0  0
   72.7469   44.1062   -3.7287 C   0  0  0  0  0  0  0  0  0  0  0  0
   73.9736   43.2449   -3.6255 C   0  0  0  0  0  0  0  0  0  0  0  0
   75.0894   43.4810   -4.4484 C   0  0  0  0  0  0  0  0  0  0  0  0
   76.1748   42.6622   -4.2371 C   0  0  0  0  0  0  0  0  0  0  0  0
   75.0789   41.4786   -2.6494 C   0  0  0  0  0  0  0  0  0  0  0  0
   75.0348   40.4245   -1.8358 N   0  0  0  0  0  0  0  0  0  0  0  0
   75.1314   44.4910   -5.5694 C   0  0  0  0  0  0  0  0  0  0  0  0
   74.9100   45.9067   -5.1163 C   0  0  0  0  0  0  0  0  0  0  0  0
   73.4249   46.2839   -5.0892 C   0  0  0  0  0  0  0  0  0  0  0  0
   72.5085   45.3605   -4.3438 C   0  0  0  0  0  0  0  0  0  0  0  0
   71.1723   45.6975   -4.1708 N   0  0  0  0  0  0  0  0  0  0  0  0
   67.7194   43.3909   -2.0668 H   0  0  0  0  0  0  0  0  0  0  0  0
   66.8898   38.0807    0.3927 H   0  0  0  0  0  0  0  0  0  0  0  0
   69.2105   37.7887    1.5775 H   0  0  0  0  0  0  0  0  0  0  0  0
   69.9654   38.0527   -0.0783 H   0  0  0  0  0  0  0  0  0  0  0  0
   70.6489   39.2046    2.5457 H   0  0  0  0  0  0  0  0  0  0  0  0
   71.6687   38.7919    1.1258 H   0  0  0  0  0  0  0  0  0  0  0  0
   70.6984   40.3036    1.1258 H   0  0  0  0  0  0  0  0  0  0  0  0
   68.4893   40.4116    2.2865 H   0  0  0  0  0  0  0  0  0  0  0  0
   67.0512   40.8062    1.2193 H   0  0  0  0  0  0  0  0  0  0  0  0
   66.9907   39.2338    3.4732 H   0  0  0  0  0  0  0  0  0  0  0  0
   65.7831   39.2475    2.1434 H   0  0  0  0  0  0  0  0  0  0  0  0
   67.1055   38.0317    2.1434 H   0  0  0  0  0  0  0  0  0  0  0  0
   71.7449   41.7837   -2.1343 H   0  0  0  0  0  0  0  0  0  0  0  0
   68.4816   45.4034   -3.3187 H   0  0  0  0  0  0  0  0  0  0  0  0
   77.0820   42.8530   -4.8292 H   0  0  0  0  0  0  0  0  0  0  0  0
   75.8589   39.8143   -1.7385 H   0  0  0  0  0  0  0  0  0  0  0  0
   74.1767   40.2197   -1.3042 H   0  0  0  0  0  0  0  0  0  0  0  0
   76.1174   44.4315   -6.0535 H   0  0  0  0  0  0  0  0  0  0  0  0
   74.3101   44.2417   -6.2573 H   0  0  0  0  0  0  0  0  0  0  0  0
   75.3228   46.0224   -4.1033 H   0  0  0  0  0  0  0  0  0  0  0  0
   75.4128   46.5718   -5.8338 H   0  0  0  0  0  0  0  0  0  0  0  0
   73.3422   47.2791   -4.6281 H   0  0  0  0  0  0  0  0  0  0  0  0
   73.0951   46.2339   -6.1374 H   0  0  0  0  0  0  0  0  0  0  0  0
   70.7256   46.5561   -4.5232 H   0  0  0  0  0  0  0  0  0  0  0  0
  1 18  2  0
  1 21  1  0
  2  7  1  0
  2  8  1  0
  2 10  1  0
  2 12  1  6
  3 20  1  0
  3 21  2  0
  4  5  1  0
  4 12  3  0
  5  6  2  0
  5 13  1  0
  6 16  1  0
  8  9  1  0
 10 11  1  0
 13 14  2  0
 14 15  1  0
 14 17  1  0
 15 16  2  0
 15 27  1  0
 17 18  1  0
 17 26  2  0
 18 19  1  0
 19 20  2  0
 19 23  1  0
 21 22  1  0
 23 24  1  0
 24 25  1  0
 25 26  1  0
 26 27  1  0
  6 28  1  0
  7 29  1  0
  8 30  1  0
  8 31  1  0
  9 32  1  0
  9 33  1  0
  9 34  1  0
 10 35  1  0
 10 36  1  0
 11 37  1  0
 11 38  1  0
 11 39  1  0
 13 40  1  0
 16 41  1  0
 20 42  1  0
 22 43  1  0
 22 44  1  0
 23 45  1  0
 23 46  1  0
 24 47  1  0
 24 48  1  0
 25 49  1  0
 25 50  1  0
 27 51  1  0
M  END
>  <filename_input>  (22) 
7ZHP_IQY_docked.sdf

>  <pdb_id>  (22) 
7ZHP_IQY

>  <pose_rank>  (22) 
21

>  <num_atoms_heavy>  (22) 
27

>  <num_torsions>  (22) 
4

>  <pose>  (22) 
[73.96462956805557, 42.241020967771966, -2.733865657205409, -0.05235920591237477, -0.11901150718419942, -0.046139523947996496, -7.705816427444377, -10.359153038596585, -4.719678616250188, 5.760349282287896]

>  <energy>  (22) 
-365.08366234247165

>  <inter_energy>  (22) 
-350.40340130388006

>  <intra_energy>  (22) 
0.3700674031316179

>  <rmsd>  (22) 
6.15026

>  <sdf_rank>  (22) 
0

$$$$

     RDKit          3D

 51 54  0  0  0  0  0  0  0  0999 V2000
   64.7552   46.2317   -2.2447 N   0  0  0  0  0  0  0  0  0  0  0  0
   69.7895   41.7551   -0.6581 C   0  0  2  0  0  0  0  0  0  0  0  0
   64.2355   47.8204   -3.9671 N   0  0  0  0  0  0  0  0  0  0  0  0
   67.2391   42.4047   -0.1150 C   0  0  0  0  0  0  0  0  0  0  0  0
   65.8749   42.7829    0.1486 C   0  0  0  0  0  0  0  0  0  0  0  0
   65.1547   42.1169    1.1507 C   0  0  0  0  0  0  0  0  0  0  0  0
   69.7889   40.8791   -1.8037 O   0  0  0  0  0  0  0  0  0  0  0  0
   70.5958   43.0062   -1.0133 C   0  0  0  0  0  0  0  0  0  0  0  0
   71.3481   42.9276   -2.2978 C   0  0  0  0  0  0  0  0  0  0  0  0
   70.4112   41.0110    0.5079 C   0  0  0  0  0  0  0  0  0  0  0  0
   71.7689   40.4112    0.2136 C   0  0  0  0  0  0  0  0  0  0  0  0
   68.3845   42.1174   -0.3109 C   0  0  0  0  0  0  0  0  0  0  0  0
   65.2891   43.8507   -0.5522 C   0  0  0  0  0  0  0  0  0  0  0  0
   63.9853   44.2621   -0.2320 C   0  0  0  0  0  0  0  0  0  0  0  0
   63.3028   43.5953    0.8017 C   0  0  0  0  0  0  0  0  0  0  0  0
   63.8762   42.5282    1.4928 C   0  0  0  0  0  0  0  0  0  0  0  0
   63.0721   45.2930   -0.7490 C   0  0  0  0  0  0  0  0  0  0  0  0
   63.4595   46.1825   -1.8960 C   0  0  0  0  0  0  0  0  0  0  0  0
   62.4884   46.9295   -2.5867 C   0  0  0  0  0  0  0  0  0  0  0  0
   62.9600   47.7457   -3.5890 C   0  0  0  0  0  0  0  0  0  0  0  0
   65.0881   47.0417   -3.2757 C   0  0  0  0  0  0  0  0  0  0  0  0
   66.3560   47.0168   -3.6844 N   0  0  0  0  0  0  0  0  0  0  0  0
   61.0004   46.8257   -2.3554 C   0  0  0  0  0  0  0  0  0  0  0  0
   60.5790   47.1868   -0.9588 C   0  0  0  0  0  0  0  0  0  0  0  0
   60.6167   45.9839   -0.0099 C   0  0  0  0  0  0  0  0  0  0  0  0
   61.8919   45.1963    0.0296 C   0  0  0  0  0  0  0  0  0  0  0  0
   62.0461   44.1689    0.9513 N   0  0  0  0  0  0  0  0  0  0  0  0
   65.6087   41.2601    1.6701 H   0  0  0  0  0  0  0  0  0  0  0  0
   69.7882   39.9372   -1.4988 H   0  0  0  0  0  0  0  0  0  0  0  0
   69.8986   43.8546   -1.0776 H   0  0  0  0  0  0  0  0  0  0  0  0
   71.3508   43.1203   -0.2214 H   0  0  0  0  0  0  0  0  0  0  0  0
   72.4220   42.8153   -2.0875 H   0  0  0  0  0  0  0  0  0  0  0  0
   70.9954   42.0614   -2.8768 H   0  0  0  0  0  0  0  0  0  0  0  0
   71.1822   43.8480   -2.8768 H   0  0  0  0  0  0  0  0  0  0  0  0
   70.5202   41.7145    1.3464 H   0  0  0  0  0  0  0  0  0  0  0  0
   69.7397   40.1706    0.7381 H   0  0  0  0  0  0  0  0  0  0  0  0
   72.2824   40.1843    1.1595 H   0  0  0  0  0  0  0  0  0  0  0  0
   71.6427   39.4850   -0.3664 H   0  0  0  0  0  0  0  0  0  0  0  0
   72.3686   41.1282   -0.3664 H   0  0  0  0  0  0  0  0  0  0  0  0
   65.8497   44.3623   -1.3484 H   0  0  0  0  0  0  0  0  0  0  0  0
   63.3225   42.0210    2.2966 H   0  0  0  0  0  0  0  0  0  0  0  0
   62.2327   48.3814   -4.1152 H   0  0  0  0  0  0  0  0  0  0  0  0
   66.6570   47.6162   -4.4661 H   0  0  0  0  0  0  0  0  0  0  0  0
   67.0352   46.3983   -3.2186 H   0  0  0  0  0  0  0  0  0  0  0  0
   60.4919   47.5028   -3.0575 H   0  0  0  0  0  0  0  0  0  0  0  0
   60.7236   45.7728   -2.5124 H   0  0  0  0  0  0  0  0  0  0  0  0
   61.2577   47.9622   -0.5739 H   0  0  0  0  0  0  0  0  0  0  0  0
   59.5407   47.5474   -1.0035 H   0  0  0  0  0  0  0  0  0  0  0  0
   60.4230   46.3556    1.0071 H   0  0  0  0  0  0  0  0  0  0  0  0
   59.8586   45.2870   -0.3968 H   0  0  0  0  0  0  0  0  0  0  0  0
   61.3379   43.8771    1.6398 H   0  0  0  0  0  0  0  0  0  0  0  0
  1 18  2  0
  1 21  1  0
  2  7  1  0
  2  8  1  0
  2 10  1  0
  2 12  1  1
  3 20  1  0
  3 21  2  0
  4  5  1  0
  4 12  3  0
  5  6  2  0
  5 13  1  0
  6 16  1  0
  8  9  1  0
 10 11  1  0
 13 14  2  0
 14 15  1  0
 14 17  1  0
 15 16  2  0
 15 27  1  0
 17 18  1  0
 17 26  2  0
 18 19  1  0
 19 20  2  0
 19 23  1  0
 21 22  1  0
 23 24  1  0
 24 25  1  0
 25 26  1  0
 26 27  1  0
  6 28  1  0
  7 29  1  0
  8 30  1  0
  8 31  1  0
  9 32  1  0
  9 33  1  0
  9 34  1  0
 10 35  1  0
 10 36  1  0
 11 37  1  0
 11 38  1  0
 11 39  1  0
 13 40  1  0
 16 41  1  0
 20 42  1  0
 22 43  1  0
 22 44  1  0
 23 45  1  0
 23 46  1  0
 24 47  1  0
 24 48  1  0
 25 49  1  0
 25 50  1  0
 27 51  1  0
M  END
>  <filename_input>  (23) 
7ZHP_IQY_docked.sdf

>  <pdb_id>  (23) 
7ZHP_IQY

>  <pose_rank>  (23) 
22

>  <num_atoms_heavy>  (23) 
27

>  <num_torsions>  (23) 
4

>  <pose>  (23) 
[64.75523068266105, 46.231667814029976, -2.244735413715932, -1.02349080863657, -2.758780016967916, -3.5659106483843748, 8.775105144288455, 11.392142116829959, -1.6494183968497382, -0.35672561145099735]

>  <energy>  (23) 
-246.03647917391868

>  <inter_energy>  (23) 
-237.75528829157105

>  <intra_energy>  (23) 
1.4528252710391616

>  <rmsd>  (23) 
9.94338

>  <sdf_rank>  (23) 
0

$$$$

     RDKit          3D

 51 54  0  0  0  0  0  0  0  0999 V2000
   66.5344   42.1321   -0.1713 N   0  0  0  0  0  0  0  0  0  0  0  0
   68.7789   46.2648   -5.2508 C   0  0  2  0  0  0  0  0  0  0  0  0
   64.4489   41.3975    0.7621 N   0  0  0  0  0  0  0  0  0  0  0  0
   69.5372   44.2991   -3.5829 C   0  0  0  0  0  0  0  0  0  0  0  0
   69.9043   43.2389   -2.6802 C   0  0  0  0  0  0  0  0  0  0  0  0
   71.2340   42.7955   -2.6397 C   0  0  0  0  0  0  0  0  0  0  0  0
   68.7786   45.7394   -6.5939 O   0  0  0  0  0  0  0  0  0  0  0  0
   67.3565   46.7179   -4.9144 C   0  0  0  0  0  0  0  0  0  0  0  0
   66.3616   46.5365   -6.0095 C   0  0  0  0  0  0  0  0  0  0  0  0
   69.7547   47.4243   -5.1952 C   0  0  0  0  0  0  0  0  0  0  0  0
   69.6154   48.4131   -6.3321 C   0  0  0  0  0  0  0  0  0  0  0  0
   69.2293   45.2036   -4.3039 C   0  0  0  0  0  0  0  0  0  0  0  0
   68.9502   42.6935   -1.8046 C   0  0  0  0  0  0  0  0  0  0  0  0
   69.3372   41.7156   -0.8742 C   0  0  0  0  0  0  0  0  0  0  0  0
   70.6859   41.3177   -0.8363 C   0  0  0  0  0  0  0  0  0  0  0  0
   71.6342   41.8484   -1.7105 C   0  0  0  0  0  0  0  0  0  0  0  0
   68.6329   40.9307    0.1513 C   0  0  0  0  0  0  0  0  0  0  0  0
   67.1529   41.0698    0.3689 C   0  0  0  0  0  0  0  0  0  0  0  0
   66.4409   40.1074    1.1070 C   0  0  0  0  0  0  0  0  0  0  0  0
   65.0997   40.3583    1.2838 C   0  0  0  0  0  0  0  0  0  0  0  0
   65.2029   42.2456    0.0386 C   0  0  0  0  0  0  0  0  0  0  0  0
   64.5726   43.2448   -0.5773 N   0  0  0  0  0  0  0  0  0  0  0  0
   67.0269   38.8166    1.6255 C   0  0  0  0  0  0  0  0  0  0  0  0
   68.1628   39.0126    2.5898 C   0  0  0  0  0  0  0  0  0  0  0  0
   69.5171   39.1191    1.8803 C   0  0  0  0  0  0  0  0  0  0  0  0
   69.6170   40.1161    0.7649 C   0  0  0  0  0  0  0  0  0  0  0  0
   70.8417   40.3576    0.1561 N   0  0  0  0  0  0  0  0  0  0  0  0
   71.9663   43.2031   -3.3522 H   0  0  0  0  0  0  0  0  0  0  0  0
   68.7782   44.7499   -6.5611 H   0  0  0  0  0  0  0  0  0  0  0  0
   67.0126   46.1427   -4.0422 H   0  0  0  0  0  0  0  0  0  0  0  0
   67.4148   47.8005   -4.7284 H   0  0  0  0  0  0  0  0  0  0  0  0
   65.3674   46.3552   -5.5753 H   0  0  0  0  0  0  0  0  0  0  0  0
   66.3306   47.4438   -6.6307 H   0  0  0  0  0  0  0  0  0  0  0  0
   66.6528   45.6766   -6.6307 H   0  0  0  0  0  0  0  0  0  0  0  0
   69.5957   47.9628   -4.2493 H   0  0  0  0  0  0  0  0  0  0  0  0
   70.7624   46.9910   -5.2774 H   0  0  0  0  0  0  0  0  0  0  0  0
   69.4729   49.4243   -5.9233 H   0  0  0  0  0  0  0  0  0  0  0  0
   70.5253   48.3922   -6.9498 H   0  0  0  0  0  0  0  0  0  0  0  0
   68.7466   48.1415   -6.9498 H   0  0  0  0  0  0  0  0  0  0  0  0
   67.9043   43.0313   -1.8478 H   0  0  0  0  0  0  0  0  0  0  0  0
   72.6831   41.5204   -1.6631 H   0  0  0  0  0  0  0  0  0  0  0  0
   64.5241   39.6513    1.8992 H   0  0  0  0  0  0  0  0  0  0  0  0
   63.5586   43.3717   -0.4480 H   0  0  0  0  0  0  0  0  0  0  0  0
   65.0993   43.8905   -1.1828 H   0  0  0  0  0  0  0  0  0  0  0  0
   66.2311   38.2544    2.1361 H   0  0  0  0  0  0  0  0  0  0  0  0
   67.4322   38.2762    0.7573 H   0  0  0  0  0  0  0  0  0  0  0  0
   67.9880   39.9376    3.1589 H   0  0  0  0  0  0  0  0  0  0  0  0
   68.1979   38.1342    3.2511 H   0  0  0  0  0  0  0  0  0  0  0  0
   70.2691   39.3887    2.6365 H   0  0  0  0  0  0  0  0  0  0  0  0
   69.6727   38.1388    1.4062 H   0  0  0  0  0  0  0  0  0  0  0  0
   71.7289   39.8960    0.4023 H   0  0  0  0  0  0  0  0  0  0  0  0
  1 18  2  0
  1 21  1  0
  2  7  1  0
  2  8  1  0
  2 10  1  0
  2 12  1  1
  3 20  1  0
  3 21  2  0
  4  5  1  0
  4 12  3  0
  5  6  2  0
  5 13  1  0
  6 16  1  0
  8  9  1  0
 10 11  1  0
 13 14  2  0
 14 15  1  0
 14 17  1  0
 15 16  2  0
 15 27  1  0
 17 18  1  0
 17 26  2  0
 18 19  1  0
 19 20  2  0
 19 23  1  0
 21 22  1  0
 23 24  1  0
 24 25  1  0
 25 26  1  0
 26 27  1  0
  6 28  1  0
  7 29  1  0
  8 30  1  0
  8 31  1  0
  9 32  1  0
  9 33  1  0
  9 34  1  0
 10 35  1  0
 10 36  1  0
 11 37  1  0
 11 38  1  0
 11 39  1  0
 13 40  1  0
 16 41  1  0
 20 42  1  0
 22 43  1  0
 22 44  1  0
 23 45  1  0
 23 46  1  0
 24 47  1  0
 24 48  1  0
 25 49  1  0
 25 50  1  0
 27 51  1  0
M  END
>  <filename_input>  (24) 
7ZHP_IQY_docked.sdf

>  <pdb_id>  (24) 
7ZHP_IQY

>  <pose_rank>  (24) 
23

>  <num_atoms_heavy>  (24) 
27

>  <num_torsions>  (24) 
4

>  <pose>  (24) 
[66.53440463987206, 42.13210537230937, -0.17133743315845845, -0.7843143088348606, -1.6164550544631027, -2.0524168332920634, 8.558131045107693, 11.151292705782847, -1.4945474181291314, -0.4577805346398027]

>  <energy>  (24) 
-468.22704976564086

>  <inter_energy>  (24) 
-451.3635249983039

>  <intra_energy>  (24) 
0.02709626455767652

>  <rmsd>  (24) 
9.94286

>  <sdf_rank>  (24) 
0

$$$$

     RDKit          3D

 51 54  0  0  0  0  0  0  0  0999 V2000
   67.3484   44.0131   -1.0674 N   0  0  0  0  0  0  0  0  0  0  0  0
   73.7783   41.5698   -1.8363 C   0  0  2  0  0  0  0  0  0  0  0  0
   65.9474   45.7227   -2.0028 N   0  0  0  0  0  0  0  0  0  0  0  0
   71.3631   40.9850   -0.8136 C   0  0  0  0  0  0  0  0  0  0  0  0
   70.0563   40.7092   -0.2753 C   0  0  0  0  0  0  0  0  0  0  0  0
   69.8521   39.5461    0.4810 C   0  0  0  0  0  0  0  0  0  0  0  0
   73.6880   41.4566   -3.2712 O   0  0  0  0  0  0  0  0  0  0  0  0
   74.1753   43.0075   -1.4942 C   0  0  0  0  0  0  0  0  0  0  0  0
   74.3976   43.8967   -2.6697 C   0  0  0  0  0  0  0  0  0  0  0  0
   74.8171   40.5794   -1.3467 C   0  0  0  0  0  0  0  0  0  0  0  0
   76.1058   40.5825   -2.1399 C   0  0  0  0  0  0  0  0  0  0  0  0
   72.4584   41.2312   -1.2288 C   0  0  0  0  0  0  0  0  0  0  0  0
   69.0086   41.6278   -0.4564 C   0  0  0  0  0  0  0  0  0  0  0  0
   67.7602   41.3869    0.1395 C   0  0  0  0  0  0  0  0  0  0  0  0
   67.5985   40.2280    0.9204 C   0  0  0  0  0  0  0  0  0  0  0  0
   68.6322   39.3081    1.0942 C   0  0  0  0  0  0  0  0  0  0  0  0
   66.4689   42.0913    0.1510 C   0  0  0  0  0  0  0  0  0  0  0  0
   66.2616   43.3653   -0.6178 C   0  0  0  0  0  0  0  0  0  0  0  0
   64.9660   43.8532   -0.8655 C   0  0  0  0  0  0  0  0  0  0  0  0
   64.8944   45.0515   -1.5378 C   0  0  0  0  0  0  0  0  0  0  0  0
   67.1448   45.1614   -1.7528 C   0  0  0  0  0  0  0  0  0  0  0  0
   68.2153   45.7523   -2.2821 N   0  0  0  0  0  0  0  0  0  0  0  0
   63.6921   43.1197   -0.5226 C   0  0  0  0  0  0  0  0  0  0  0  0
   63.5287   42.8459    0.9461 C   0  0  0  0  0  0  0  0  0  0  0  0
   64.1775   41.5230    1.3675 C   0  0  0  0  0  0  0  0  0  0  0  0
   65.6071   41.3155    0.9658 C   0  0  0  0  0  0  0  0  0  0  0  0
   66.3000   40.1986    1.4143 N   0  0  0  0  0  0  0  0  0  0  0  0
   70.6677   38.8159    0.5886 H   0  0  0  0  0  0  0  0  0  0  0  0
   73.0886   40.7045   -3.5058 H   0  0  0  0  0  0  0  0  0  0  0  0
   73.3740   43.4460   -0.8814 H   0  0  0  0  0  0  0  0  0  0  0  0
   75.1405   42.9434   -0.9705 H   0  0  0  0  0  0  0  0  0  0  0  0
   74.6507   44.9089   -2.3212 H   0  0  0  0  0  0  0  0  0  0  0  0
   75.2245   43.5009   -3.2777 H   0  0  0  0  0  0  0  0  0  0  0  0
   73.4818   43.9366   -3.2777 H   0  0  0  0  0  0  0  0  0  0  0  0
   75.0563   40.8207   -0.3005 H   0  0  0  0  0  0  0  0  0  0  0  0
   74.3773   39.5782   -1.4658 H   0  0  0  0  0  0  0  0  0  0  0  0
   76.9616   40.5845   -1.4488 H   0  0  0  0  0  0  0  0  0  0  0  0
   76.1483   39.6844   -2.7737 H   0  0  0  0  0  0  0  0  0  0  0  0
   76.1441   41.4807   -2.7737 H   0  0  0  0  0  0  0  0  0  0  0  0
   69.1657   42.5321   -1.0626 H   0  0  0  0  0  0  0  0  0  0  0  0
   68.4817   38.4079    1.7082 H   0  0  0  0  0  0  0  0  0  0  0  0
   63.8975   45.4861   -1.7032 H   0  0  0  0  0  0  0  0  0  0  0  0
   68.1101   46.6287   -2.8128 H   0  0  0  0  0  0  0  0  0  0  0  0
   69.1480   45.3326   -2.1606 H   0  0  0  0  0  0  0  0  0  0  0  0
   62.8398   43.7282   -0.8592 H   0  0  0  0  0  0  0  0  0  0  0  0
   63.7372   42.1439   -1.0282 H   0  0  0  0  0  0  0  0  0  0  0  0
   63.9956   43.6651    1.5126 H   0  0  0  0  0  0  0  0  0  0  0  0
   62.4514   42.7742    1.1569 H   0  0  0  0  0  0  0  0  0  0  0  0
   64.1275   41.4620    2.4646 H   0  0  0  0  0  0  0  0  0  0  0  0
   63.6123   40.7424    0.8372 H   0  0  0  0  0  0  0  0  0  0  0  0
   65.9112   39.4617    2.0200 H   0  0  0  0  0  0  0  0  0  0  0  0
  1 18  2  0
  1 21  1  0
  2  7  1  0
  2  8  1  0
  2 10  1  0
  2 12  1  1
  3 20  1  0
  3 21  2  0
  4  5  1  0
  4 12  3  0
  5  6  2  0
  5 13  1  0
  6 16  1  0
  8  9  1  0
 10 11  1  0
 13 14  2  0
 14 15  1  0
 14 17  1  0
 15 16  2  0
 15 27  1  0
 17 18  1  0
 17 26  2  0
 18 19  1  0
 19 20  2  0
 19 23  1  0
 21 22  1  0
 23 24  1  0
 24 25  1  0
 25 26  1  0
 26 27  1  0
  6 28  1  0
  7 29  1  0
  8 30  1  0
  8 31  1  0
  9 32  1  0
  9 33  1  0
  9 34  1  0
 10 35  1  0
 10 36  1  0
 11 37  1  0
 11 38  1  0
 11 39  1  0
 13 40  1  0
 16 41  1  0
 20 42  1  0
 22 43  1  0
 22 44  1  0
 23 45  1  0
 23 46  1  0
 24 47  1  0
 24 48  1  0
 25 49  1  0
 25 50  1  0
 27 51  1  0
M  END
>  <filename_input>  (25) 
7ZHP_IQY_docked.sdf

>  <pdb_id>  (25) 
7ZHP_IQY

>  <pose_rank>  (25) 
24

>  <num_atoms_heavy>  (25) 
27

>  <num_torsions>  (25) 
4

>  <pose>  (25) 
[67.34844338378187, 44.013069474967196, -1.0674289227413545, -1.1663447256885258, -1.9558510558578575, -3.4508466983991872, 8.901422605740624, 11.49952171653094, -1.5044905174656669, -0.4679820031509852]

>  <energy>  (25) 
-487.79676004946356

>  <inter_energy>  (25) 
-471.6121992715625

>  <intra_energy>  (25) 
0.03475246798881602

>  <rmsd>  (25) 
8.76938

>  <sdf_rank>  (25) 
0

$$$$

     RDKit          3D

 51 54  0  0  0  0  0  0  0  0999 V2000
   71.6130   38.2030    0.7680 N   0  0  0  0  0  0  0  0  0  0  0  0
   66.5610   34.8870    4.3040 C   0  0  2  0  0  0  0  0  0  0  0  0
   73.7840   37.7590   -0.1540 N   0  0  0  0  0  0  0  0  0  0  0  0
   67.1640   37.0460    2.8220 C   0  0  0  0  0  0  0  0  0  0  0  0
   67.4500   38.2010    2.0110 C   0  0  0  0  0  0  0  0  0  0  0  0
   66.4590   39.1750    1.8220 C   0  0  0  0  0  0  0  0  0  0  0  0
   65.1260   34.7440    4.3150 O   0  0  0  0  0  0  0  0  0  0  0  0
   67.1650   33.6040    3.7290 C   0  0  0  0  0  0  0  0  0  0  0  0
   67.2390   33.5540    2.2410 C   0  0  0  0  0  0  0  0  0  0  0  0
   67.0250   35.1250    5.7280 C   0  0  0  0  0  0  0  0  0  0  0  0
   66.9690   33.9010    6.6160 C   0  0  0  0  0  0  0  0  0  0  0  0
   66.9350   36.0640    3.4670 C   0  0  0  0  0  0  0  0  0  0  0  0
   68.7310   38.3800    1.4620 C   0  0  0  0  0  0  0  0  0  0  0  0
   69.0220   39.5480    0.7390 C   0  0  0  0  0  0  0  0  0  0  0  0
   68.0160   40.5210    0.5970 C   0  0  0  0  0  0  0  0  0  0  0  0
   66.7400   40.3430    1.1310 C   0  0  0  0  0  0  0  0  0  0  0  0
   70.2060   40.0530    0.0270 C   0  0  0  0  0  0  0  0  0  0  0  0
   71.4720   39.2490   -0.0620 C   0  0  0  0  0  0  0  0  0  0  0  0
   72.4700   39.5800   -0.9960 C   0  0  0  0  0  0  0  0  0  0  0  0
   73.6070   38.8060   -0.9590 C   0  0  0  0  0  0  0  0  0  0  0  0
   72.7610   37.4930    0.6790 C   0  0  0  0  0  0  0  0  0  0  0  0
   72.8600   36.3990    1.4330 N   0  0  0  0  0  0  0  0  0  0  0  0
   72.3340   40.6450   -2.0570 C   0  0  0  0  0  0  0  0  0  0  0  0
   72.1080   42.0240   -1.5040 C   0  0  0  0  0  0  0  0  0  0  0  0
   70.6220   42.3260   -1.2820 C   0  0  0  0  0  0  0  0  0  0  0  0
   69.8420   41.3230   -0.4860 C   0  0  0  0  0  0  0  0  0  0  0  0
   68.5230   41.5850   -0.1390 N   0  0  0  0  0  0  0  0  0  0  0  0
   65.4492   39.0104    2.2260 H   0  0  0  0  0  0  0  0  0  0  0  0
   64.8047   34.7120    5.2509 H   0  0  0  0  0  0  0  0  0  0  0  0
   68.1860   33.5002    4.1250 H   0  0  0  0  0  0  0  0  0  0  0  0
   66.4940   32.7863    4.0309 H   0  0  0  0  0  0  0  0  0  0  0  0
   68.1150   32.9621    1.9371 H   0  0  0  0  0  0  0  0  0  0  0  0
   66.3255   33.0873    1.8439 H   0  0  0  0  0  0  0  0  0  0  0  0
   67.3311   34.5757    1.8439 H   0  0  0  0  0  0  0  0  0  0  0  0
   68.0658   35.4797    5.6961 H   0  0  0  0  0  0  0  0  0  0  0  0
   66.3344   35.8616    6.1645 H   0  0  0  0  0  0  0  0  0  0  0  0
   66.9833   34.2124    7.6709 H   0  0  0  0  0  0  0  0  0  0  0  0
   66.0443   33.3415    6.4113 H   0  0  0  0  0  0  0  0  0  0  0  0
   67.8387   33.2594    6.4113 H   0  0  0  0  0  0  0  0  0  0  0  0
   69.5028   37.6081    1.5981 H   0  0  0  0  0  0  0  0  0  0  0  0
   65.9689   41.1174    1.0057 H   0  0  0  0  0  0  0  0  0  0  0  0
   74.4277   39.0702   -1.6421 H   0  0  0  0  0  0  0  0  0  0  0  0
   73.7152   35.8259    1.3993 H   0  0  0  0  0  0  0  0  0  0  0  0
   72.0813   36.1263    2.0496 H   0  0  0  0  0  0  0  0  0  0  0  0
   73.2565   40.6581   -2.6561 H   0  0  0  0  0  0  0  0  0  0  0  0
   71.4476   40.3900   -2.6564 H   0  0  0  0  0  0  0  0  0  0  0  0
   72.6339   42.1096   -0.5416 H   0  0  0  0  0  0  0  0  0  0  0  0
   72.4922   42.7477   -2.2379 H   0  0  0  0  0  0  0  0  0  0  0  0
   70.5526   43.2920   -0.7604 H   0  0  0  0  0  0  0  0  0  0  0  0
   70.1714   42.3118   -2.2854 H   0  0  0  0  0  0  0  0  0  0  0  0
   68.0009   42.4370   -0.3888 H   0  0  0  0  0  0  0  0  0  0  0  0
  1 18  2  0
  1 21  1  0
  2  7  1  0
  2  8  1  0
  2 10  1  0
  2 12  1  6
  3 20  1  0
  3 21  2  0
  4  5  1  0
  4 12  3  0
  5  6  2  0
  5 13  1  0
  6 16  1  0
  8  9  1  0
 10 11  1  0
 13 14  2  0
 14 15  1  0
 14 17  1  0
 15 16  2  0
 15 27  1  0
 17 18  1  0
 17 26  2  0
 18 19  1  0
 19 20  2  0
 19 23  1  0
 21 22  1  0
 23 24  1  0
 24 25  1  0
 25 26  1  0
 26 27  1  0
  6 28  1  0
  7 29  1  0
  8 30  1  0
  8 31  1  0
  9 32  1  0
  9 33  1  0
  9 34  1  0
 10 35  1  0
 10 36  1  0
 11 37  1  0
 11 38  1  0
 11 39  1  0
 13 40  1  0
 16 41  1  0
 20 42  1  0
 22 43  1  0
 22 44  1  0
 23 45  1  0
 23 46  1  0
 24 47  1  0
 24 48  1  0
 25 49  1  0
 25 50  1  0
 27 51  1  0
M  END
>  <filename_input>  (26) 
7ZHP_IQY_docked.sdf

>  <pdb_id>  (26) 
7ZHP_IQY

>  <pose_rank>  (26) 
25

>  <num_atoms_heavy>  (26) 
27

>  <num_torsions>  (26) 
4

>  <pose>  (26) 
[71.613, 38.203, 0.768, 1e-06, 1e-06, 1e-06, 0.0, 0.0, 0.0, 0.0]

>  <energy>  (26) 
-1384.4468615797693

>  <inter_energy>  (26) 
-1391.9885373752295

>  <intra_energy>  (26) 
2.015571426713104

>  <rmsd>  (26) 
0.0

>  <sdf_rank>  (26) 
0

$$$$
