
     RDKit          3D

 33 35  0  0  0  0  0  0  0  0999 V2000
  -17.6285   34.5066   46.0274 N   0  0  0  0  0  0  0  0  0  0  0  0
  -18.1196   36.4950   41.2823 C   0  0  0  0  0  0  0  0  0  0  0  0
  -18.7030   37.0759   42.3894 C   0  0  0  0  0  0  0  0  0  0  0  0
  -18.3603   36.6722   43.6735 C   0  0  0  0  0  0  0  0  0  0  0  0
  -17.3961   35.6509   43.8307 C   0  0  0  0  0  0  0  0  0  0  0  0
  -16.9126   35.2195   45.1615 C   0  0  0  0  0  0  0  0  0  0  0  0
  -16.8464   35.0622   42.6903 C   0  0  0  0  0  0  0  0  0  0  0  0
  -20.0970   38.1488   44.7683 C   0  0  0  0  0  0  0  0  0  0  0  0
  -17.2534   33.7109   39.5053 O   0  0  0  0  0  0  0  0  0  0  0  0
  -21.3476   37.3454   44.8909 C   0  0  0  0  0  0  0  0  0  0  0  0
  -23.2524   35.9718   45.6843 C   0  0  0  0  0  0  0  0  0  0  0  0
  -23.4567   36.5784   44.4951 C   0  0  0  0  0  0  0  0  0  0  0  0
  -15.5684   34.6825   46.7749 N   0  0  0  0  0  0  0  0  0  0  0  0
  -22.3633   37.3469   44.0473 C   0  0  0  0  0  0  0  0  0  0  0  0
  -16.7724   34.2043   46.9945 N   0  0  0  0  0  0  0  0  0  0  0  0
  -18.7678   36.9543   39.7440 Cl  0  0  0  0  0  0  0  0  0  0  0  0
  -15.6288   35.3136   45.6092 N   0  0  0  0  0  0  0  0  0  0  0  0
  -17.1791   35.4704   41.4096 C   0  0  0  0  0  0  0  0  0  0  0  0
  -16.3413   34.6990   40.0482 S   0  0  1  0  0  0  0  0  0  0  0  0
  -15.0877   33.9723   40.6602 N   0  0  0  0  0  0  0  0  0  0  0  0
  -15.9572   35.7787   39.1861 O   0  0  0  0  0  0  0  0  0  0  0  0
  -18.9064   37.3218   44.7854 N   0  0  0  0  0  0  0  0  0  0  0  0
  -21.7303   36.3366   46.2687 S   0  0  0  0  0  0  0  0  0  0  0  0
  -19.4508   37.8710   42.2531 H   0  0  0  0  0  0  0  0  0  0  0  0
  -16.1221   34.2436   42.8137 H   0  0  0  0  0  0  0  0  0  0  0  0
  -20.1265   38.7064   43.8206 H   0  0  0  0  0  0  0  0  0  0  0  0
  -20.0473   38.8270   45.6329 H   0  0  0  0  0  0  0  0  0  0  0  0
  -23.9841   35.3289   46.1955 H   0  0  0  0  0  0  0  0  0  0  0  0
  -24.3933   36.4813   43.9264 H   0  0  0  0  0  0  0  0  0  0  0  0
  -22.3569   37.8926   43.0922 H   0  0  0  0  0  0  0  0  0  0  0  0
  -15.1409   34.0032   41.6883 H   0  0  0  0  0  0  0  0  0  0  0  0
  -15.0723   32.9914   40.3464 H   0  0  0  0  0  0  0  0  0  0  0  0
  -18.4244   37.2033   45.6878 H   0  0  0  0  0  0  0  0  0  0  0  0
  1  6  1  0
  1 15  1  0
  2  3  2  0
  2 16  1  0
  2 18  1  0
  3  4  1  0
  4  5  2  0
  4 22  1  0
  5  6  1  0
  5  7  1  0
  6 17  2  0
  7 18  2  0
  8 10  1  0
  8 22  1  0
  9 19  2  0
 10 14  2  0
 10 23  1  0
 11 12  2  0
 11 23  1  0
 12 14  1  0
 13 15  2  0
 13 17  1  0
 18 19  1  0
 19 20  1  1
 19 21  2  0
  3 24  1  0
  7 25  1  0
  8 26  1  0
  8 27  1  0
 11 28  1  0
 12 29  1  0
 14 30  1  0
 20 31  1  0
 20 32  1  0
 22 33  1  0
M  CHG  1   1  -1
M  END
>  <filename_input>  (1) 
7ZL5_IWE_docked.sdf

>  <pdb_id>  (1) 
7ZL5_IWE

>  <pose_rank>  (1) 
0

>  <num_atoms_heavy>  (1) 
23

>  <num_torsions>  (1) 
5

>  <pose>  (1) 
[-18.11956737457343, 36.494963771217435, 41.282326585528054, 1.357972112806853, 5.451376633784313, 2.3939256810666496, -2.365207406745146, -0.019238355254732352, 6.4774983472834915, 0.17923028283585563, 6.252031014200335]

>  <energy>  (1) 
-1093.220742922326

>  <inter_energy>  (1) 
-1073.307367977864

>  <intra_energy>  (1) 
7.695621279388531

>  <rmsd>  (1) 
0.776225

>  <sdf_rank>  (1) 
0

$$$$

     RDKit          3D

 33 35  0  0  0  0  0  0  0  0999 V2000
  -17.6629   33.6545   45.7505 N   0  0  0  0  0  0  0  0  0  0  0  0
  -18.3874   36.5787   41.5507 C   0  0  0  0  0  0  0  0  0  0  0  0
  -18.8043   36.9618   42.8088 C   0  0  0  0  0  0  0  0  0  0  0  0
  -18.3847   36.2759   43.9413 C   0  0  0  0  0  0  0  0  0  0  0  0
  -17.5157   35.1723   43.7850 C   0  0  0  0  0  0  0  0  0  0  0  0
  -16.9549   34.4388   44.9418 C   0  0  0  0  0  0  0  0  0  0  0  0
  -17.1361   34.7912   42.4966 C   0  0  0  0  0  0  0  0  0  0  0  0
  -19.5827   35.9837   46.1491 C   0  0  0  0  0  0  0  0  0  0  0  0
  -18.0002   34.2373   39.1364 O   0  0  0  0  0  0  0  0  0  0  0  0
  -19.3760   36.4249   47.5587 C   0  0  0  0  0  0  0  0  0  0  0  0
  -19.2345   36.5901   50.0280 C   0  0  0  0  0  0  0  0  0  0  0  0
  -18.5266   37.5283   49.3627 C   0  0  0  0  0  0  0  0  0  0  0  0
  -15.5299   33.4518   46.2432 N   0  0  0  0  0  0  0  0  0  0  0  0
  -18.6234   37.4329   47.9598 C   0  0  0  0  0  0  0  0  0  0  0  0
  -16.7566   33.0764   46.5276 N   0  0  0  0  0  0  0  0  0  0  0  0
  -19.1281   37.3953   40.2156 Cl  0  0  0  0  0  0  0  0  0  0  0  0
  -15.6296   34.3009   45.2284 N   0  0  0  0  0  0  0  0  0  0  0  0
  -17.5451   35.4800   41.3672 C   0  0  0  0  0  0  0  0  0  0  0  0
  -16.9187   34.9439   39.7953 S   0  0  1  0  0  0  0  0  0  0  0  0
  -15.7515   33.9373   40.1089 N   0  0  0  0  0  0  0  0  0  0  0  0
  -16.4329   36.1349   39.1612 O   0  0  0  0  0  0  0  0  0  0  0  0
  -18.7574   36.7221   45.2135 N   0  0  0  0  0  0  0  0  0  0  0  0
  -20.0189   35.5819   48.9510 S   0  0  0  0  0  0  0  0  0  0  0  0
  -19.4793   37.8236   42.9167 H   0  0  0  0  0  0  0  0  0  0  0  0
  -16.4878   33.9109   42.3742 H   0  0  0  0  0  0  0  0  0  0  0  0
  -19.3338   34.9150   46.0730 H   0  0  0  0  0  0  0  0  0  0  0  0
  -20.6350   36.1713   45.8893 H   0  0  0  0  0  0  0  0  0  0  0  0
  -19.2872   36.5022   51.1232 H   0  0  0  0  0  0  0  0  0  0  0  0
  -17.9275   38.2984   49.8706 H   0  0  0  0  0  0  0  0  0  0  0  0
  -18.1230   38.1277   47.2692 H   0  0  0  0  0  0  0  0  0  0  0  0
  -15.6433   33.8440   41.1290 H   0  0  0  0  0  0  0  0  0  0  0  0
  -15.9726   33.0175   39.7016 H   0  0  0  0  0  0  0  0  0  0  0  0
  -18.4185   37.6487   45.5091 H   0  0  0  0  0  0  0  0  0  0  0  0
  1  6  1  0
  1 15  1  0
  2  3  2  0
  2 16  1  0
  2 18  1  0
  3  4  1  0
  4  5  2  0
  4 22  1  0
  5  6  1  0
  5  7  1  0
  6 17  2  0
  7 18  2  0
  8 10  1  0
  8 22  1  0
  9 19  2  0
 10 14  2  0
 10 23  1  0
 11 12  2  0
 11 23  1  0
 12 14  1  0
 13 15  2  0
 13 17  1  0
 18 19  1  0
 19 20  1  1
 19 21  2  0
  3 24  1  0
  7 25  1  0
  8 26  1  0
  8 27  1  0
 11 28  1  0
 12 29  1  0
 14 30  1  0
 20 31  1  0
 20 32  1  0
 22 33  1  0
M  CHG  1   1  -1
M  END
>  <filename_input>  (2) 
7ZL5_IWE_docked.sdf

>  <pdb_id>  (2) 
7ZL5_IWE

>  <pose_rank>  (2) 
1

>  <num_atoms_heavy>  (2) 
23

>  <num_torsions>  (2) 
5

>  <pose>  (2) 
[-18.38736451636485, 36.578729286905194, 41.55065850687846, 4.271362152276844, -1.233647393537468, -4.766174275424476, -2.4055348875310747, 0.04378883368136612, 1.904601552584664, 1.4573515761491325, 2.218863769156763]

>  <energy>  (2) 
-755.9752575539031

>  <inter_energy>  (2) 
-776.781731807776

>  <intra_energy>  (2) 
27.253116884338972

>  <rmsd>  (2) 
2.40161

>  <sdf_rank>  (2) 
0

$$$$

     RDKit          3D

 33 35  0  0  0  0  0  0  0  0999 V2000
  -15.2073   35.6455   45.3665 N   0  0  0  0  0  0  0  0  0  0  0  0
  -18.0661   36.5207   41.2371 C   0  0  0  0  0  0  0  0  0  0  0  0
  -18.4794   37.0108   42.4589 C   0  0  0  0  0  0  0  0  0  0  0  0
  -17.9304   36.5359   43.6430 C   0  0  0  0  0  0  0  0  0  0  0  0
  -16.9327   35.5370   43.5776 C   0  0  0  0  0  0  0  0  0  0  0  0
  -16.2367   35.0359   44.7840 C   0  0  0  0  0  0  0  0  0  0  0  0
  -16.5578   35.0404   42.3278 C   0  0  0  0  0  0  0  0  0  0  0  0
  -19.6180   36.9705   45.4756 C   0  0  0  0  0  0  0  0  0  0  0  0
  -15.0532   34.6217   39.8244 O   0  0  0  0  0  0  0  0  0  0  0  0
  -19.6404   35.9624   46.5745 C   0  0  0  0  0  0  0  0  0  0  0  0
  -19.4763   34.7620   48.7371 C   0  0  0  0  0  0  0  0  0  0  0  0
  -20.2354   34.1413   47.8085 C   0  0  0  0  0  0  0  0  0  0  0  0
  -15.8567   33.9693   46.6323 N   0  0  0  0  0  0  0  0  0  0  0  0
  -20.3123   34.8258   46.5788 C   0  0  0  0  0  0  0  0  0  0  0  0
  -15.0079   34.9615   46.4854 N   0  0  0  0  0  0  0  0  0  0  0  0
  -18.9581   37.0579   39.8539 Cl  0  0  0  0  0  0  0  0  0  0  0  0
  -16.6574   34.0088   45.5749 N   0  0  0  0  0  0  0  0  0  0  0  0
  -17.0966   35.5197   41.1457 C   0  0  0  0  0  0  0  0  0  0  0  0
  -16.4684   34.8640   39.6206 S   0  0  1  0  0  0  0  0  0  0  0  0
  -16.6549   35.9977   38.5464 N   0  0  0  0  0  0  0  0  0  0  0  0
  -17.2929   33.7258   39.3358 O   0  0  0  0  0  0  0  0  0  0  0  0
  -18.3075   37.0953   44.8684 N   0  0  0  0  0  0  0  0  0  0  0  0
  -18.8549   36.1859   48.1222 S   0  0  0  0  0  0  0  0  0  0  0  0
  -19.2555   37.7894   42.4956 H   0  0  0  0  0  0  0  0  0  0  0  0
  -15.8065   34.2384   42.2804 H   0  0  0  0  0  0  0  0  0  0  0  0
  -20.3385   36.6664   44.7021 H   0  0  0  0  0  0  0  0  0  0  0  0
  -19.8814   37.9464   45.9095 H   0  0  0  0  0  0  0  0  0  0  0  0
  -19.2931   34.3839   49.7537 H   0  0  0  0  0  0  0  0  0  0  0  0
  -20.7482   33.1862   47.9953 H   0  0  0  0  0  0  0  0  0  0  0  0
  -20.8750   34.4513   45.7109 H   0  0  0  0  0  0  0  0  0  0  0  0
  -16.8033   36.8996   39.0212 H   0  0  0  0  0  0  0  0  0  0  0  0
  -15.8120   36.0545   37.9572 H   0  0  0  0  0  0  0  0  0  0  0  0
  -17.5978   37.6391   45.3798 H   0  0  0  0  0  0  0  0  0  0  0  0
  1  6  1  0
  1 15  1  0
  2  3  2  0
  2 16  1  0
  2 18  1  0
  3  4  1  0
  4  5  2  0
  4 22  1  0
  5  6  1  0
  5  7  1  0
  6 17  2  0
  7 18  2  0
  8 10  1  0
  8 22  1  0
  9 19  2  0
 10 14  2  0
 10 23  1  0
 11 12  2  0
 11 23  1  0
 12 14  1  0
 13 15  2  0
 13 17  1  0
 18 19  1  0
 19 20  1  6
 19 21  2  0
  3 24  1  0
  7 25  1  0
  8 26  1  0
  8 27  1  0
 11 28  1  0
 12 29  1  0
 14 30  1  0
 20 31  1  0
 20 32  1  0
 22 33  1  0
M  CHG  1   1  -1
M  END
>  <filename_input>  (3) 
7ZL5_IWE_docked.sdf

>  <pdb_id>  (3) 
7ZL5_IWE

>  <pose_rank>  (3) 
2

>  <num_atoms_heavy>  (3) 
23

>  <num_torsions>  (3) 
5

>  <pose>  (3) 
[-18.066130251668994, 36.520709431292076, 41.23714506202788, 2.9685247679589097, 0.23549244895954416, -5.590863185719113, 1.224322245708443, -2.398380153689339, -36.63625984755088, 0.4941056628808711, 0.12956170676127363]

>  <energy>  (3) 
-850.0113751290123

>  <inter_energy>  (3) 
-865.4438865742463

>  <intra_energy>  (3) 
17.375546344391733

>  <rmsd>  (3) 
2.04543

>  <sdf_rank>  (3) 
0

$$$$

     RDKit          3D

 33 35  0  0  0  0  0  0  0  0999 V2000
  -14.1064   34.5956   43.4658 N   0  0  0  0  0  0  0  0  0  0  0  0
  -18.2199   37.0369   41.7330 C   0  0  0  0  0  0  0  0  0  0  0  0
  -17.9980   37.3881   43.0487 C   0  0  0  0  0  0  0  0  0  0  0  0
  -17.0741   36.7020   43.8263 C   0  0  0  0  0  0  0  0  0  0  0  0
  -16.3573   35.6316   43.2450 C   0  0  0  0  0  0  0  0  0  0  0  0
  -15.2965   34.9025   43.9756 C   0  0  0  0  0  0  0  0  0  0  0  0
  -16.6264   35.2815   41.9205 C   0  0  0  0  0  0  0  0  0  0  0  0
  -17.7442   37.8117   45.9976 C   0  0  0  0  0  0  0  0  0  0  0  0
  -19.1443   35.3125   39.2120 O   0  0  0  0  0  0  0  0  0  0  0  0
  -17.2270   37.9664   47.3880 C   0  0  0  0  0  0  0  0  0  0  0  0
  -16.6765   38.7557   49.6724 C   0  0  0  0  0  0  0  0  0  0  0  0
  -16.4731   37.4358   49.4721 C   0  0  0  0  0  0  0  0  0  0  0  0
  -14.1174   34.0996   45.6076 N   0  0  0  0  0  0  0  0  0  0  0  0
  -16.7776   36.9995   48.1668 C   0  0  0  0  0  0  0  0  0  0  0  0
  -13.4228   34.1071   44.4924 N   0  0  0  0  0  0  0  0  0  0  0  0
  -19.5256   37.8451   40.9333 Cl  0  0  0  0  0  0  0  0  0  0  0  0
  -15.3021   34.6170   45.3083 N   0  0  0  0  0  0  0  0  0  0  0  0
  -17.5396   35.9708   41.1406 C   0  0  0  0  0  0  0  0  0  0  0  0
  -17.7227   35.4784   39.4451 S   0  0  1  0  0  0  0  0  0  0  0  0
  -17.0056   34.0845   39.3139 N   0  0  0  0  0  0  0  0  0  0  0  0
  -17.0489   36.4922   38.6870 O   0  0  0  0  0  0  0  0  0  0  0  0
  -16.8082   37.1176   45.1352 N   0  0  0  0  0  0  0  0  0  0  0  0
  -17.2448   39.4746   48.2753 S   0  0  0  0  0  0  0  0  0  0  0  0
  -18.5614   38.2243   43.4884 H   0  0  0  0  0  0  0  0  0  0  0  0
  -16.0931   34.4262   41.4801 H   0  0  0  0  0  0  0  0  0  0  0  0
  -18.6839   37.2408   46.0315 H   0  0  0  0  0  0  0  0  0  0  0  0
  -17.8998   38.8186   45.5831 H   0  0  0  0  0  0  0  0  0  0  0  0
  -16.4940   39.2827   50.6205 H   0  0  0  0  0  0  0  0  0  0  0  0
  -16.1027   36.7609   50.2578 H   0  0  0  0  0  0  0  0  0  0  0  0
  -16.6534   35.9594   47.8311 H   0  0  0  0  0  0  0  0  0  0  0  0
  -16.8120   33.7082   40.2530 H   0  0  0  0  0  0  0  0  0  0  0  0
  -17.6154   33.4316   38.8014 H   0  0  0  0  0  0  0  0  0  0  0  0
  -15.8732   36.9144   45.5165 H   0  0  0  0  0  0  0  0  0  0  0  0
  1  6  1  0
  1 15  1  0
  2  3  2  0
  2 16  1  0
  2 18  1  0
  3  4  1  0
  4  5  2  0
  4 22  1  0
  5  6  1  0
  5  7  1  0
  6 17  2  0
  7 18  2  0
  8 10  1  0
  8 22  1  0
  9 19  2  0
 10 14  2  0
 10 23  1  0
 11 12  2  0
 11 23  1  0
 12 14  1  0
 13 15  2  0
 13 17  1  0
 18 19  1  0
 19 20  1  1
 19 21  2  0
  3 24  1  0
  7 25  1  0
  8 26  1  0
  8 27  1  0
 11 28  1  0
 12 29  1  0
 14 30  1  0
 20 31  1  0
 20 32  1  0
 22 33  1  0
M  CHG  1   1  -1
M  END
>  <filename_input>  (4) 
7ZL5_IWE_docked.sdf

>  <pdb_id>  (4) 
7ZL5_IWE

>  <pose_rank>  (4) 
3

>  <num_atoms_heavy>  (4) 
23

>  <num_torsions>  (4) 
5

>  <pose>  (4) 
[-18.219904392407706, 37.036918770116735, 41.7330201212399, 0.13040840490329292, 0.45249720821474126, -0.1755643264393039, 0.31380297856177947, 6.771841905631961, 0.36044037964538267, 8.008556739146629, 1.1980631250474392]

>  <energy>  (4) 
-664.0270028867639

>  <inter_energy>  (4) 
-665.8173808797334

>  <intra_energy>  (4) 
18.845433393015647

>  <rmsd>  (4) 
3.34153

>  <sdf_rank>  (4) 
0

$$$$

     RDKit          3D

 33 35  0  0  0  0  0  0  0  0999 V2000
  -20.5079   37.7482   43.3744 N   0  0  0  0  0  0  0  0  0  0  0  0
  -16.3949   34.8022   42.5649 C   0  0  0  0  0  0  0  0  0  0  0  0
  -16.5401   34.9635   43.9274 C   0  0  0  0  0  0  0  0  0  0  0  0
  -17.6332   35.6383   44.4556 C   0  0  0  0  0  0  0  0  0  0  0  0
  -18.6034   36.1597   43.5700 C   0  0  0  0  0  0  0  0  0  0  0  0
  -19.8388   36.8180   44.0508 C   0  0  0  0  0  0  0  0  0  0  0  0
  -18.4123   36.0062   42.1955 C   0  0  0  0  0  0  0  0  0  0  0  0
  -17.9961   34.6034   46.7342 C   0  0  0  0  0  0  0  0  0  0  0  0
  -16.9817   33.7223   39.6577 O   0  0  0  0  0  0  0  0  0  0  0  0
  -17.6973   34.9482   48.1542 C   0  0  0  0  0  0  0  0  0  0  0  0
  -16.7047   35.7881   50.2647 C   0  0  0  0  0  0  0  0  0  0  0  0
  -18.0085   35.4480   50.3557 C   0  0  0  0  0  0  0  0  0  0  0  0
  -21.6761   37.1712   45.1453 N   0  0  0  0  0  0  0  0  0  0  0  0
  -18.5600   34.9604   49.1537 C   0  0  0  0  0  0  0  0  0  0  0  0
  -21.6169   37.9351   44.0778 N   0  0  0  0  0  0  0  0  0  0  0  0
  -14.9008   34.1104   42.0295 Cl  0  0  0  0  0  0  0  0  0  0  0  0
  -20.5683   36.4407   45.1385 N   0  0  0  0  0  0  0  0  0  0  0  0
  -17.3286   35.3249   41.6675 C   0  0  0  0  0  0  0  0  0  0  0  0
  -17.2514   35.1255   39.9055 S   0  0  1  0  0  0  0  0  0  0  0  0
  -16.0275   35.9863   39.4203 N   0  0  0  0  0  0  0  0  0  0  0  0
  -18.4930   35.6498   39.4156 O   0  0  0  0  0  0  0  0  0  0  0  0
  -17.8029   35.7288   45.8411 N   0  0  0  0  0  0  0  0  0  0  0  0
  -16.1418   35.5220   48.7142 S   0  0  0  0  0  0  0  0  0  0  0  0
  -15.7786   34.5512   44.6058 H   0  0  0  0  0  0  0  0  0  0  0  0
  -19.1502   36.4428   41.5063 H   0  0  0  0  0  0  0  0  0  0  0  0
  -17.3304   33.7855   46.4214 H   0  0  0  0  0  0  0  0  0  0  0  0
  -19.0536   34.3062   46.6761 H   0  0  0  0  0  0  0  0  0  0  0  0
  -16.0995   36.1841   51.0934 H   0  0  0  0  0  0  0  0  0  0  0  0
  -18.5887   35.5431   51.2855 H   0  0  0  0  0  0  0  0  0  0  0  0
  -19.6029   34.6242   49.0580 H   0  0  0  0  0  0  0  0  0  0  0  0
  -15.5154   36.3465   40.2382 H   0  0  0  0  0  0  0  0  0  0  0  0
  -15.3990   35.4001   38.8525 H   0  0  0  0  0  0  0  0  0  0  0  0
  -17.7894   36.6697   46.2600 H   0  0  0  0  0  0  0  0  0  0  0  0
  1  6  1  0
  1 15  1  0
  2  3  2  0
  2 16  1  0
  2 18  1  0
  3  4  1  0
  4  5  2  0
  4 22  1  0
  5  6  1  0
  5  7  1  0
  6 17  2  0
  7 18  2  0
  8 10  1  0
  8 22  1  0
  9 19  2  0
 10 14  2  0
 10 23  1  0
 11 12  2  0
 11 23  1  0
 12 14  1  0
 13 15  2  0
 13 17  1  0
 18 19  1  0
 19 20  1  6
 19 21  2  0
  3 24  1  0
  7 25  1  0
  8 26  1  0
  8 27  1  0
 11 28  1  0
 12 29  1  0
 14 30  1  0
 20 31  1  0
 20 32  1  0
 22 33  1  0
M  CHG  1   1  -1
M  END
>  <filename_input>  (5) 
7ZL5_IWE_docked.sdf

>  <pdb_id>  (5) 
7ZL5_IWE

>  <pose_rank>  (5) 
4

>  <num_atoms_heavy>  (5) 
23

>  <num_torsions>  (5) 
5

>  <pose>  (5) 
[-16.394944937133854, 34.80222753986253, 42.5649226171152, 0.6700354809100538, -0.6847846449845659, -2.7891747978366848, -0.9660997057928019, 2.2179786345924652, -1.2169444227567356, 1.5191782315246054, -2.137134006757561]

>  <energy>  (5) 
-703.7923508240127

>  <inter_energy>  (5) 
-736.7903886939888

>  <intra_energy>  (5) 
18.02439817591541

>  <rmsd>  (5) 
4.59287

>  <sdf_rank>  (5) 
0

$$$$

     RDKit          3D

 33 35  0  0  0  0  0  0  0  0999 V2000
  -15.8771   34.8274   45.4931 N   0  0  0  0  0  0  0  0  0  0  0  0
  -18.0606   36.4959   41.2103 C   0  0  0  0  0  0  0  0  0  0  0  0
  -18.6878   37.0920   42.2850 C   0  0  0  0  0  0  0  0  0  0  0  0
  -18.4304   36.6753   43.5847 C   0  0  0  0  0  0  0  0  0  0  0  0
  -17.5078   35.6250   43.7921 C   0  0  0  0  0  0  0  0  0  0  0  0
  -17.1134   35.1764   45.1464 C   0  0  0  0  0  0  0  0  0  0  0  0
  -16.9127   35.0224   42.6823 C   0  0  0  0  0  0  0  0  0  0  0  0
  -20.1389   38.2545   44.5759 C   0  0  0  0  0  0  0  0  0  0  0  0
  -17.1797   33.6904   39.4745 O   0  0  0  0  0  0  0  0  0  0  0  0
  -20.6784   38.6253   45.9161 C   0  0  0  0  0  0  0  0  0  0  0  0
  -21.3240   39.7875   48.0082 C   0  0  0  0  0  0  0  0  0  0  0  0
  -22.0118   38.6513   47.7639 C   0  0  0  0  0  0  0  0  0  0  0  0
  -17.1344   34.8940   47.2954 N   0  0  0  0  0  0  0  0  0  0  0  0
  -21.6288   37.9919   46.5785 C   0  0  0  0  0  0  0  0  0  0  0  0
  -15.9365   34.6619   46.8079 N   0  0  0  0  0  0  0  0  0  0  0  0
  -18.6069   36.9779   39.6396 Cl  0  0  0  0  0  0  0  0  0  0  0  0
  -17.8925   35.2403   46.2628 N   0  0  0  0  0  0  0  0  0  0  0  0
  -17.1601   35.4431   41.3865 C   0  0  0  0  0  0  0  0  0  0  0  0
  -16.2705   34.6495   40.0714 S   0  0  1  0  0  0  0  0  0  0  0  0
  -15.0756   33.8842   40.7503 N   0  0  0  0  0  0  0  0  0  0  0  0
  -15.8062   35.7189   39.2363 O   0  0  0  0  0  0  0  0  0  0  0  0
  -19.0186   37.3389   44.6665 N   0  0  0  0  0  0  0  0  0  0  0  0
  -20.2098   40.0645   46.7944 S   0  0  0  0  0  0  0  0  0  0  0  0
  -19.4024   37.9096   42.1097 H   0  0  0  0  0  0  0  0  0  0  0  0
  -16.2214   34.1820   42.8432 H   0  0  0  0  0  0  0  0  0  0  0  0
  -20.9396   37.7766   43.9924 H   0  0  0  0  0  0  0  0  0  0  0  0
  -19.7821   39.1751   44.0910 H   0  0  0  0  0  0  0  0  0  0  0  0
  -21.4757   40.4381   48.8821 H   0  0  0  0  0  0  0  0  0  0  0  0
  -22.8010   38.2738   48.4309 H   0  0  0  0  0  0  0  0  0  0  0  0
  -22.0762   37.0458   46.2397 H   0  0  0  0  0  0  0  0  0  0  0  0
  -15.1677   33.9432   41.7745 H   0  0  0  0  0  0  0  0  0  0  0  0
  -15.0919   32.8959   40.4605 H   0  0  0  0  0  0  0  0  0  0  0  0
  -18.6244   37.1631   45.6017 H   0  0  0  0  0  0  0  0  0  0  0  0
  1  6  1  0
  1 15  1  0
  2  3  2  0
  2 16  1  0
  2 18  1  0
  3  4  1  0
  4  5  2  0
  4 22  1  0
  5  6  1  0
  5  7  1  0
  6 17  2  0
  7 18  2  0
  8 10  1  0
  8 22  1  0
  9 19  2  0
 10 14  2  0
 10 23  1  0
 11 12  2  0
 11 23  1  0
 12 14  1  0
 13 15  2  0
 13 17  1  0
 18 19  1  0
 19 20  1  1
 19 21  2  0
  3 24  1  0
  7 25  1  0
  8 26  1  0
  8 27  1  0
 11 28  1  0
 12 29  1  0
 14 30  1  0
 20 31  1  0
 20 32  1  0
 22 33  1  0
M  CHG  1   1  -1
M  END
>  <filename_input>  (6) 
7ZL5_IWE_docked.sdf

>  <pdb_id>  (6) 
7ZL5_IWE

>  <pose_rank>  (6) 
5

>  <num_atoms_heavy>  (6) 
23

>  <num_torsions>  (6) 
5

>  <pose>  (6) 
[-18.060599320229382, 36.49591459217026, 41.210274623438636, -0.036749482834974416, -0.2132012560097619, -0.10070429857789505, 0.20009469537549493, 6.263748287355462, 0.13674749389383636, 7.971261948494538, 0.5632519405669755]

>  <energy>  (6) 
-947.5560299430089

>  <inter_energy>  (6) 
-962.9655396943634

>  <intra_energy>  (6) 
20.983715622680975

>  <rmsd>  (6) 
1.74164

>  <sdf_rank>  (6) 
0

$$$$

     RDKit          3D

 33 35  0  0  0  0  0  0  0  0999 V2000
  -16.7639   34.6928   45.7787 N   0  0  0  0  0  0  0  0  0  0  0  0
  -18.0043   36.5881   41.1317 C   0  0  0  0  0  0  0  0  0  0  0  0
  -18.4731   37.0941   42.3266 C   0  0  0  0  0  0  0  0  0  0  0  0
  -17.9264   36.6906   43.5380 C   0  0  0  0  0  0  0  0  0  0  0  0
  -16.8731   35.7483   43.5286 C   0  0  0  0  0  0  0  0  0  0  0  0
  -16.1787   35.3278   44.7663 C   0  0  0  0  0  0  0  0  0  0  0  0
  -16.4417   35.2326   42.3051 C   0  0  0  0  0  0  0  0  0  0  0  0
  -19.6440   37.9180   44.9303 C   0  0  0  0  0  0  0  0  0  0  0  0
  -17.3480   34.2694   38.9257 O   0  0  0  0  0  0  0  0  0  0  0  0
  -20.7571   36.9394   45.0968 C   0  0  0  0  0  0  0  0  0  0  0  0
  -22.7747   35.5259   44.8204 C   0  0  0  0  0  0  0  0  0  0  0  0
  -21.9143   35.0943   45.7677 C   0  0  0  0  0  0  0  0  0  0  0  0
  -14.5943   34.7527   46.1291 N   0  0  0  0  0  0  0  0  0  0  0  0
  -20.7767   35.9114   45.9253 C   0  0  0  0  0  0  0  0  0  0  0  0
  -15.7635   34.3642   46.5855 N   0  0  0  0  0  0  0  0  0  0  0  0
  -18.8922   37.0277   39.7118 Cl  0  0  0  0  0  0  0  0  0  0  0  0
  -14.8309   35.3492   44.9675 N   0  0  0  0  0  0  0  0  0  0  0  0
  -16.9784   35.6412   41.0958 C   0  0  0  0  0  0  0  0  0  0  0  0
  -16.2787   34.9720   39.6081 S   0  0  1  0  0  0  0  0  0  0  0  0
  -15.1834   33.9396   40.0650 N   0  0  0  0  0  0  0  0  0  0  0  0
  -15.6967   36.0945   38.9315 O   0  0  0  0  0  0  0  0  0  0  0  0
  -18.3630   37.2680   44.7349 N   0  0  0  0  0  0  0  0  0  0  0  0
  -22.2029   36.9264   44.1110 S   0  0  0  0  0  0  0  0  0  0  0  0
  -19.2922   37.8282   42.3198 H   0  0  0  0  0  0  0  0  0  0  0  0
  -15.6457   34.4734   42.3015 H   0  0  0  0  0  0  0  0  0  0  0  0
  -19.8568   38.5500   44.0555 H   0  0  0  0  0  0  0  0  0  0  0  0
  -19.5807   38.5148   45.8522 H   0  0  0  0  0  0  0  0  0  0  0  0
  -23.7178   35.0265   44.5539 H   0  0  0  0  0  0  0  0  0  0  0  0
  -22.0861   34.1856   46.3634 H   0  0  0  0  0  0  0  0  0  0  0  0
  -19.9856   35.7130   46.6634 H   0  0  0  0  0  0  0  0  0  0  0  0
  -15.1496   33.9077   41.0939 H   0  0  0  0  0  0  0  0  0  0  0  0
  -15.4186   33.0056   39.7001 H   0  0  0  0  0  0  0  0  0  0  0  0
  -17.7236   37.2283   45.5415 H   0  0  0  0  0  0  0  0  0  0  0  0
  1  6  1  0
  1 15  1  0
  2  3  2  0
  2 16  1  0
  2 18  1  0
  3  4  1  0
  4  5  2  0
  4 22  1  0
  5  6  1  0
  5  7  1  0
  6 17  2  0
  7 18  2  0
  8 10  1  0
  8 22  1  0
  9 19  2  0
 10 14  2  0
 10 23  1  0
 11 12  2  0
 11 23  1  0
 12 14  1  0
 13 15  2  0
 13 17  1  0
 18 19  1  0
 19 20  1  1
 19 21  2  0
  3 24  1  0
  7 25  1  0
  8 26  1  0
  8 27  1  0
 11 28  1  0
 12 29  1  0
 14 30  1  0
 20 31  1  0
 20 32  1  0
 22 33  1  0
M  CHG  1   1  -1
M  END
>  <filename_input>  (7) 
7ZL5_IWE_docked.sdf

>  <pdb_id>  (7) 
7ZL5_IWE

>  <pose_rank>  (7) 
6

>  <num_atoms_heavy>  (7) 
23

>  <num_torsions>  (7) 
5

>  <pose>  (7) 
[-18.004326778523993, 36.58807901354335, 41.13172094289086, 2.284782517875488, 5.109352865519326, -2.7987847652896707, -2.5312031499846426, 0.30649910821947995, 0.26966232493690406, 0.06544985168945544, 3.0070176506787045]

>  <energy>  (7) 
-962.7537912664512

>  <inter_energy>  (7) 
-975.683960162845

>  <intra_energy>  (7) 
7.895383842193345

>  <rmsd>  (7) 
1.12185

>  <sdf_rank>  (7) 
0

$$$$

     RDKit          3D

 33 35  0  0  0  0  0  0  0  0999 V2000
  -15.7730   35.2120   45.7625 N   0  0  0  0  0  0  0  0  0  0  0  0
  -17.9604   36.5484   41.3653 C   0  0  0  0  0  0  0  0  0  0  0  0
  -18.5519   37.0852   42.4903 C   0  0  0  0  0  0  0  0  0  0  0  0
  -18.2723   36.5825   43.7545 C   0  0  0  0  0  0  0  0  0  0  0  0
  -17.3641   35.5061   43.8728 C   0  0  0  0  0  0  0  0  0  0  0  0
  -16.9468   34.9658   45.1861 C   0  0  0  0  0  0  0  0  0  0  0  0
  -16.8056   34.9655   42.7130 C   0  0  0  0  0  0  0  0  0  0  0  0
  -20.0058   38.0241   44.8998 C   0  0  0  0  0  0  0  0  0  0  0  0
  -17.1416   33.7843   39.4841 O   0  0  0  0  0  0  0  0  0  0  0  0
  -21.2588   37.2359   45.0814 C   0  0  0  0  0  0  0  0  0  0  0  0
  -23.4733   36.3730   45.7858 C   0  0  0  0  0  0  0  0  0  0  0  0
  -23.0110   35.8507   44.6293 C   0  0  0  0  0  0  0  0  0  0  0  0
  -17.0558   34.1309   47.1835 N   0  0  0  0  0  0  0  0  0  0  0  0
  -21.7461   36.3388   44.2441 C   0  0  0  0  0  0  0  0  0  0  0  0
  -15.8823   34.6835   46.9743 N   0  0  0  0  0  0  0  0  0  0  0  0
  -18.5340   37.1383   39.8418 Cl  0  0  0  0  0  0  0  0  0  0  0  0
  -17.7541   34.3144   46.0701 N   0  0  0  0  0  0  0  0  0  0  0  0
  -17.0752   35.4718   41.4528 C   0  0  0  0  0  0  0  0  0  0  0  0
  -16.2305   34.7490   40.0692 S   0  0  1  0  0  0  0  0  0  0  0  0
  -14.9828   33.9965   40.6620 N   0  0  0  0  0  0  0  0  0  0  0  0
  -15.8378   35.8587   39.2502 O   0  0  0  0  0  0  0  0  0  0  0  0
  -18.8233   37.1855   44.8900 N   0  0  0  0  0  0  0  0  0  0  0  0
  -22.3743   37.4658   46.4100 S   0  0  0  0  0  0  0  0  0  0  0  0
  -19.2556   37.9240   42.3844 H   0  0  0  0  0  0  0  0  0  0  0  0
  -16.1261   34.1053   42.8038 H   0  0  0  0  0  0  0  0  0  0  0  0
  -20.0637   38.5647   43.9435 H   0  0  0  0  0  0  0  0  0  0  0  0
  -19.9189   38.7174   45.7494 H   0  0  0  0  0  0  0  0  0  0  0  0
  -24.4364   36.1155   46.2507 H   0  0  0  0  0  0  0  0  0  0  0  0
  -23.5719   35.1101   44.0403 H   0  0  0  0  0  0  0  0  0  0  0  0
  -21.2185   36.0062   43.3380 H   0  0  0  0  0  0  0  0  0  0  0  0
  -15.0239   34.0212   41.6908 H   0  0  0  0  0  0  0  0  0  0  0  0
  -14.9882   33.0176   40.3416 H   0  0  0  0  0  0  0  0  0  0  0  0
  -18.3515   37.0207   45.7906 H   0  0  0  0  0  0  0  0  0  0  0  0
  1  6  1  0
  1 15  1  0
  2  3  2  0
  2 16  1  0
  2 18  1  0
  3  4  1  0
  4  5  2  0
  4 22  1  0
  5  6  1  0
  5  7  1  0
  6 17  2  0
  7 18  2  0
  8 10  1  0
  8 22  1  0
  9 19  2  0
 10 14  2  0
 10 23  1  0
 11 12  2  0
 11 23  1  0
 12 14  1  0
 13 15  2  0
 13 17  1  0
 18 19  1  0
 19 20  1  1
 19 21  2  0
  3 24  1  0
  7 25  1  0
  8 26  1  0
  8 27  1  0
 11 28  1  0
 12 29  1  0
 14 30  1  0
 20 31  1  0
 20 32  1  0
 22 33  1  0
M  CHG  1   1  -1
M  END
>  <filename_input>  (8) 
7ZL5_IWE_docked.sdf

>  <pdb_id>  (8) 
7ZL5_IWE

>  <pose_rank>  (8) 
7

>  <num_atoms_heavy>  (8) 
23

>  <num_torsions>  (8) 
5

>  <pose>  (8) 
[-17.960429341878324, 36.54844880062997, 41.36525039120576, 0.02339513323814891, -0.18604810585953138, -0.12411855303927778, 0.8489613937304987, 6.203823976912164, 0.24358411751542594, 6.541298349866077, 1.0048750463386198]

>  <energy>  (8) 
-1039.9650390078066

>  <inter_energy>  (8) 
-1046.2606784817194

>  <intra_energy>  (8) 
11.966466201699784

>  <rmsd>  (8) 
0.926995

>  <sdf_rank>  (8) 
0

$$$$

     RDKit          3D

 33 35  0  0  0  0  0  0  0  0999 V2000
  -15.2880   34.9729   44.8648 N   0  0  0  0  0  0  0  0  0  0  0  0
  -18.2475   36.5177   41.0248 C   0  0  0  0  0  0  0  0  0  0  0  0
  -18.6606   36.9877   42.2544 C   0  0  0  0  0  0  0  0  0  0  0  0
  -18.1621   36.4454   43.4319 C   0  0  0  0  0  0  0  0  0  0  0  0
  -17.2162   35.3984   43.3515 C   0  0  0  0  0  0  0  0  0  0  0  0
  -16.5727   34.8215   44.5532 C   0  0  0  0  0  0  0  0  0  0  0  0
  -16.8412   34.9248   42.0928 C   0  0  0  0  0  0  0  0  0  0  0  0
  -19.5269   38.0225   44.8620 C   0  0  0  0  0  0  0  0  0  0  0  0
  -15.2857   34.6011   39.5780 O   0  0  0  0  0  0  0  0  0  0  0  0
  -20.8932   37.5874   44.4518 C   0  0  0  0  0  0  0  0  0  0  0  0
  -23.0637   36.4201   44.1848 C   0  0  0  0  0  0  0  0  0  0  0  0
  -23.0404   37.6780   43.6937 C   0  0  0  0  0  0  0  0  0  0  0  0
  -16.3197   33.9891   46.5385 N   0  0  0  0  0  0  0  0  0  0  0  0
  -21.7985   38.3284   43.8396 C   0  0  0  0  0  0  0  0  0  0  0  0
  -15.1781   34.4494   46.0786 N   0  0  0  0  0  0  0  0  0  0  0  0
  -19.0810   37.1469   39.6438 Cl  0  0  0  0  0  0  0  0  0  0  0  0
  -17.2220   34.2313   45.5961 N   0  0  0  0  0  0  0  0  0  0  0  0
  -17.3293   35.4709   40.9178 C   0  0  0  0  0  0  0  0  0  0  0  0
  -16.7036   34.8345   39.3835 S   0  0  1  0  0  0  0  0  0  0  0  0
  -16.9041   35.9769   38.3209 N   0  0  0  0  0  0  0  0  0  0  0  0
  -17.5209   33.6928   39.0918 O   0  0  0  0  0  0  0  0  0  0  0  0
  -18.5356   36.9826   44.6683 N   0  0  0  0  0  0  0  0  0  0  0  0
  -21.5759   36.0217   44.8324 S   0  0  0  0  0  0  0  0  0  0  0  0
  -19.3960   37.8043   42.3029 H   0  0  0  0  0  0  0  0  0  0  0  0
  -16.1314   34.0866   42.0324 H   0  0  0  0  0  0  0  0  0  0  0  0
  -19.2406   38.8997   44.2633 H   0  0  0  0  0  0  0  0  0  0  0  0
  -19.5584   38.2608   45.9354 H   0  0  0  0  0  0  0  0  0  0  0  0
  -23.9378   35.7528   44.1617 H   0  0  0  0  0  0  0  0  0  0  0  0
  -23.9133   38.1527   43.2218 H   0  0  0  0  0  0  0  0  0  0  0  0
  -21.6033   39.3495   43.4801 H   0  0  0  0  0  0  0  0  0  0  0  0
  -17.0612   36.8723   38.8051 H   0  0  0  0  0  0  0  0  0  0  0  0
  -16.0628   36.0486   37.7310 H   0  0  0  0  0  0  0  0  0  0  0  0
  -18.0694   36.6097   45.5076 H   0  0  0  0  0  0  0  0  0  0  0  0
  1  6  1  0
  1 15  1  0
  2  3  2  0
  2 16  1  0
  2 18  1  0
  3  4  1  0
  4  5  2  0
  4 22  1  0
  5  6  1  0
  5  7  1  0
  6 17  2  0
  7 18  2  0
  8 10  1  0
  8 22  1  0
  9 19  2  0
 10 14  2  0
 10 23  1  0
 11 12  2  0
 11 23  1  0
 12 14  1  0
 13 15  2  0
 13 17  1  0
 18 19  1  0
 19 20  1  6
 19 21  2  0
  3 24  1  0
  7 25  1  0
  8 26  1  0
  8 27  1  0
 11 28  1  0
 12 29  1  0
 14 30  1  0
 20 31  1  0
 20 32  1  0
 22 33  1  0
M  CHG  1   1  -1
M  END
>  <filename_input>  (9) 
7ZL5_IWE_docked.sdf

>  <pdb_id>  (9) 
7ZL5_IWE

>  <pose_rank>  (9) 
8

>  <num_atoms_heavy>  (9) 
23

>  <num_torsions>  (9) 
5

>  <pose>  (9) 
[-18.24746744513143, 36.517719639795466, 41.0247919455815, -3.1431379444686525, 0.9807751583059136, 5.216127335528758, 0.719343364908193, -2.467622276865072, -37.72486976241055, -0.17048561938636875, -0.34178607168823244]

>  <energy>  (9) 
-868.2131627110889

>  <inter_energy>  (9) 
-872.7295380475933

>  <intra_energy>  (9) 
36.42760017583334

>  <rmsd>  (9) 
1.28773

>  <sdf_rank>  (9) 
0

$$$$

     RDKit          3D

 33 35  0  0  0  0  0  0  0  0999 V2000
  -18.3640   36.5690   41.6588 N   0  0  0  0  0  0  0  0  0  0  0  0
  -15.5020   35.2609   45.7504 C   0  0  0  0  0  0  0  0  0  0  0  0
  -16.6973   35.9458   45.6749 C   0  0  0  0  0  0  0  0  0  0  0  0
  -17.3323   36.1444   44.4557 C   0  0  0  0  0  0  0  0  0  0  0  0
  -16.7325   35.6287   43.2845 C   0  0  0  0  0  0  0  0  0  0  0  0
  -17.3820   35.7224   41.9578 C   0  0  0  0  0  0  0  0  0  0  0  0
  -15.5079   34.9667   43.3904 C   0  0  0  0  0  0  0  0  0  0  0  0
  -19.5143   36.8674   45.5098 C   0  0  0  0  0  0  0  0  0  0  0  0
  -13.2731   33.1969   45.9143 O   0  0  0  0  0  0  0  0  0  0  0  0
  -20.9137   36.5603   45.0950 C   0  0  0  0  0  0  0  0  0  0  0  0
  -23.3106   35.9348   45.0064 C   0  0  0  0  0  0  0  0  0  0  0  0
  -22.8677   36.6091   43.9233 C   0  0  0  0  0  0  0  0  0  0  0  0
  -17.7000   35.5642   39.8195 N   0  0  0  0  0  0  0  0  0  0  0  0
  -21.5010   36.9494   43.9782 C   0  0  0  0  0  0  0  0  0  0  0  0
  -18.5271   36.4372   40.3490 N   0  0  0  0  0  0  0  0  0  0  0  0
  -14.7234   35.2454   47.2968 Cl  0  0  0  0  0  0  0  0  0  0  0  0
  -16.9516   35.1122   40.8176 N   0  0  0  0  0  0  0  0  0  0  0  0
  -14.8784   34.7588   44.6061 C   0  0  0  0  0  0  0  0  0  0  0  0
  -13.3689   33.8249   44.6107 S   0  0  1  0  0  0  0  0  0  0  0  0
  -12.2058   34.8714   44.4482 N   0  0  0  0  0  0  0  0  0  0  0  0
  -13.4625   32.9584   43.4719 O   0  0  0  0  0  0  0  0  0  0  0  0
  -18.5793   36.7762   44.4057 N   0  0  0  0  0  0  0  0  0  0  0  0
  -22.0684   35.7146   46.1018 S   0  0  0  0  0  0  0  0  0  0  0  0
  -17.1544   36.3405   46.5943 H   0  0  0  0  0  0  0  0  0  0  0  0
  -15.0251   34.5965   42.4740 H   0  0  0  0  0  0  0  0  0  0  0  0
  -19.4823   37.8889   45.9166 H   0  0  0  0  0  0  0  0  0  0  0  0
  -19.2168   36.1243   46.2642 H   0  0  0  0  0  0  0  0  0  0  0  0
  -24.3426   35.5809   45.1473 H   0  0  0  0  0  0  0  0  0  0  0  0
  -23.5160   36.8696   43.0737 H   0  0  0  0  0  0  0  0  0  0  0  0
  -20.9769   37.4846   43.1727 H   0  0  0  0  0  0  0  0  0  0  0  0
  -11.8774   35.1669   45.3786 H   0  0  0  0  0  0  0  0  0  0  0  0
  -11.4267   34.4410   43.9298 H   0  0  0  0  0  0  0  0  0  0  0  0
  -18.8550   37.2111   43.5137 H   0  0  0  0  0  0  0  0  0  0  0  0
  1  6  1  0
  1 15  1  0
  2  3  2  0
  2 16  1  0
  2 18  1  0
  3  4  1  0
  4  5  2  0
  4 22  1  0
  5  6  1  0
  5  7  1  0
  6 17  2  0
  7 18  2  0
  8 10  1  0
  8 22  1  0
  9 19  2  0
 10 14  2  0
 10 23  1  0
 11 12  2  0
 11 23  1  0
 12 14  1  0
 13 15  2  0
 13 17  1  0
 18 19  1  0
 19 20  1  6
 19 21  2  0
  3 24  1  0
  7 25  1  0
  8 26  1  0
  8 27  1  0
 11 28  1  0
 12 29  1  0
 14 30  1  0
 20 31  1  0
 20 32  1  0
 22 33  1  0
M  CHG  1   1  -1
M  END
>  <filename_input>  (10) 
7ZL5_IWE_docked.sdf

>  <pdb_id>  (10) 
7ZL5_IWE

>  <pose_rank>  (10) 
9

>  <num_atoms_heavy>  (10) 
23

>  <num_torsions>  (10) 
5

>  <pose>  (10) 
[-15.501969635855058, 35.260906062634675, 45.75037915562418, -2.24086545070072, 1.828298475037324, 1.5843433064083694, -3.305651277941281, 1.8405008489965178, -0.5132102159501875, 2.6376290697111364, 1.4167828580344508]

>  <energy>  (10) 
-560.712099764473

>  <inter_energy>  (10) 
-602.1482654397915

>  <intra_energy>  (10) 
33.09099749708405

>  <rmsd>  (10) 
4.44467

>  <sdf_rank>  (10) 
0

$$$$

     RDKit          3D

 33 35  0  0  0  0  0  0  0  0999 V2000
  -16.7896   36.7476   51.6887 N   0  0  0  0  0  0  0  0  0  0  0  0
  -19.8131   37.2275   47.6142 C   0  0  0  0  0  0  0  0  0  0  0  0
  -20.2322   37.7691   48.8119 C   0  0  0  0  0  0  0  0  0  0  0  0
  -19.6343   37.4029   50.0109 C   0  0  0  0  0  0  0  0  0  0  0  0
  -18.5803   36.4616   49.9856 C   0  0  0  0  0  0  0  0  0  0  0  0
  -17.8337   36.0793   51.2051 C   0  0  0  0  0  0  0  0  0  0  0  0
  -18.1996   35.9095   48.7611 C   0  0  0  0  0  0  0  0  0  0  0  0
  -21.3911   38.2289   51.6315 C   0  0  0  0  0  0  0  0  0  0  0  0
  -18.8436   34.3082   45.8804 O   0  0  0  0  0  0  0  0  0  0  0  0
  -21.9111   37.1010   52.4572 C   0  0  0  0  0  0  0  0  0  0  0  0
  -23.1458   35.1432   53.3445 C   0  0  0  0  0  0  0  0  0  0  0  0
  -21.9820   35.4050   53.9777 C   0  0  0  0  0  0  0  0  0  0  0  0
  -17.3723   35.1909   53.1277 N   0  0  0  0  0  0  0  0  0  0  0  0
  -21.2938   36.5271   53.4735 C   0  0  0  0  0  0  0  0  0  0  0  0
  -16.5405   36.1714   52.8573 N   0  0  0  0  0  0  0  0  0  0  0  0
  -20.7607   37.6232   46.2202 Cl  0  0  0  0  0  0  0  0  0  0  0  0
  -18.2129   35.1266   52.1029 N   0  0  0  0  0  0  0  0  0  0  0  0
  -18.7876   36.2808   47.5637 C   0  0  0  0  0  0  0  0  0  0  0  0
  -18.1496   35.5675   46.0688 S   0  0  1  0  0  0  0  0  0  0  0  0
  -16.6241   35.2889   46.3326 N   0  0  0  0  0  0  0  0  0  0  0  0
  -18.3367   36.5745   45.0651 O   0  0  0  0  0  0  0  0  0  0  0  0
  -20.0214   38.0159   51.2071 N   0  0  0  0  0  0  0  0  0  0  0  0
  -23.4085   36.2575   52.1276 S   0  0  0  0  0  0  0  0  0  0  0  0
  -21.0524   38.5020   48.8173 H   0  0  0  0  0  0  0  0  0  0  0  0
  -17.4029   35.1512   48.7470 H   0  0  0  0  0  0  0  0  0  0  0  0
  -22.0252   38.3353   50.7389 H   0  0  0  0  0  0  0  0  0  0  0  0
  -21.4133   39.1372   52.2515 H   0  0  0  0  0  0  0  0  0  0  0  0
  -23.8243   34.3143   53.5945 H   0  0  0  0  0  0  0  0  0  0  0  0
  -21.6046   34.7966   54.8128 H   0  0  0  0  0  0  0  0  0  0  0  0
  -20.3396   36.8879   53.8850 H   0  0  0  0  0  0  0  0  0  0  0  0
  -16.4513   35.2574   47.3475 H   0  0  0  0  0  0  0  0  0  0  0  0
  -16.3621   34.3862   45.9114 H   0  0  0  0  0  0  0  0  0  0  0  0
  -19.2739   38.3419   51.8363 H   0  0  0  0  0  0  0  0  0  0  0  0
  1  6  1  0
  1 15  1  0
  2  3  2  0
  2 16  1  0
  2 18  1  0
  3  4  1  0
  4  5  2  0
  4 22  1  0
  5  6  1  0
  5  7  1  0
  6 17  2  0
  7 18  2  0
  8 10  1  0
  8 22  1  0
  9 19  2  0
 10 14  2  0
 10 23  1  0
 11 12  2  0
 11 23  1  0
 12 14  1  0
 13 15  2  0
 13 17  1  0
 18 19  1  0
 19 20  1  1
 19 21  2  0
  3 24  1  0
  7 25  1  0
  8 26  1  0
  8 27  1  0
 11 28  1  0
 12 29  1  0
 14 30  1  0
 20 31  1  0
 20 32  1  0
 22 33  1  0
M  CHG  1   1  -1
M  END
>  <filename_input>  (11) 
7ZL5_IWE_docked.sdf

>  <pdb_id>  (11) 
7ZL5_IWE

>  <pose_rank>  (11) 
10

>  <num_atoms_heavy>  (11) 
23

>  <num_torsions>  (11) 
5

>  <pose>  (11) 
[-19.813059553740953, 37.227495660136576, 47.61415320945777, 5.2460013345127, -2.8628548353067256, -1.7824328204841913, 1.1636566812288194, -0.27298048982450596, -5.595009375103529, 0.30642205789335075, -3.3275232998458177]

>  <energy>  (11) 
-149.86404903607914

>  <inter_energy>  (11) 
-167.2223422680958

>  <intra_energy>  (11) 
11.945159325926733

>  <rmsd>  (11) 
6.63636

>  <sdf_rank>  (11) 
0

$$$$

     RDKit          3D

 33 35  0  0  0  0  0  0  0  0999 V2000
  -17.7999   38.6365   42.1220 N   0  0  0  0  0  0  0  0  0  0  0  0
  -20.2105   35.7584   45.5572 C   0  0  0  0  0  0  0  0  0  0  0  0
  -19.1430   35.1271   44.9529 C   0  0  0  0  0  0  0  0  0  0  0  0
  -18.5661   35.6429   43.7995 C   0  0  0  0  0  0  0  0  0  0  0  0
  -19.0915   36.8348   43.2508 C   0  0  0  0  0  0  0  0  0  0  0  0
  -18.4850   37.4968   42.0741 C   0  0  0  0  0  0  0  0  0  0  0  0
  -20.1912   37.4331   43.8688 C   0  0  0  0  0  0  0  0  0  0  0  0
  -16.2041   35.7095   42.8987 C   0  0  0  0  0  0  0  0  0  0  0  0
  -23.1219   36.8622   46.0970 O   0  0  0  0  0  0  0  0  0  0  0  0
  -15.0531   35.2449   43.7256 C   0  0  0  0  0  0  0  0  0  0  0  0
  -12.8266   34.5661   44.5780 C   0  0  0  0  0  0  0  0  0  0  0  0
  -13.7331   34.8445   45.5396 C   0  0  0  0  0  0  0  0  0  0  0  0
  -17.6357   37.7866   40.1010 N   0  0  0  0  0  0  0  0  0  0  0  0
  -14.9990   35.2176   45.0446 C   0  0  0  0  0  0  0  0  0  0  0  0
  -17.3034   38.7756   40.8998 N   0  0  0  0  0  0  0  0  0  0  0  0
  -20.9539   34.9162   46.8747 Cl  0  0  0  0  0  0  0  0  0  0  0  0
  -18.3690   36.9542   40.8293 N   0  0  0  0  0  0  0  0  0  0  0  0
  -20.7611   36.9260   45.0244 C   0  0  0  0  0  0  0  0  0  0  0  0
  -22.0994   37.8328   45.7575 S   0  0  1  0  0  0  0  0  0  0  0  0
  -22.6428   38.7940   44.6372 N   0  0  0  0  0  0  0  0  0  0  0  0
  -21.5064   38.5643   46.8390 O   0  0  0  0  0  0  0  0  0  0  0  0
  -17.4387   35.0313   43.2415 N   0  0  0  0  0  0  0  0  0  0  0  0
  -13.5066   34.7615   43.0645 S   0  0  0  0  0  0  0  0  0  0  0  0
  -18.7425   34.2010   45.3912 H   0  0  0  0  0  0  0  0  0  0  0  0
  -20.6210   38.3413   43.4209 H   0  0  0  0  0  0  0  0  0  0  0  0
  -16.3389   36.7898   43.0558 H   0  0  0  0  0  0  0  0  0  0  0  0
  -15.9762   35.4810   41.8471 H   0  0  0  0  0  0  0  0  0  0  0  0
  -11.7882   34.2549   44.7648 H   0  0  0  0  0  0  0  0  0  0  0  0
  -13.5039   34.7853   46.6138 H   0  0  0  0  0  0  0  0  0  0  0  0
  -15.8548   35.4612   45.6913 H   0  0  0  0  0  0  0  0  0  0  0  0
  -23.1018   39.6059   45.0745 H   0  0  0  0  0  0  0  0  0  0  0  0
  -21.8592   39.1167   44.0519 H   0  0  0  0  0  0  0  0  0  0  0  0
  -17.4897   34.0188   43.0598 H   0  0  0  0  0  0  0  0  0  0  0  0
  1  6  1  0
  1 15  1  0
  2  3  2  0
  2 16  1  0
  2 18  1  0
  3  4  1  0
  4  5  2  0
  4 22  1  0
  5  6  1  0
  5  7  1  0
  6 17  2  0
  7 18  2  0
  8 10  1  0
  8 22  1  0
  9 19  2  0
 10 14  2  0
 10 23  1  0
 11 12  2  0
 11 23  1  0
 12 14  1  0
 13 15  2  0
 13 17  1  0
 18 19  1  0
 19 20  1  6
 19 21  2  0
  3 24  1  0
  7 25  1  0
  8 26  1  0
  8 27  1  0
 11 28  1  0
 12 29  1  0
 14 30  1  0
 20 31  1  0
 20 32  1  0
 22 33  1  0
M  CHG  1   1  -1
M  END
>  <filename_input>  (12) 
7ZL5_IWE_docked.sdf

>  <pdb_id>  (12) 
7ZL5_IWE

>  <pose_rank>  (12) 
11

>  <num_atoms_heavy>  (12) 
23

>  <num_torsions>  (12) 
5

>  <pose>  (12) 
[-20.21050121382624, 35.75843232784936, 45.55722243292792, 1.9766291477470408, 1.5966406392092343, 0.6449506827534193, 0.7674008426002409, 0.5696713164682767, -14.927898829384686, -11.851364670216576, 1.1839815295268292]

>  <energy>  (12) 
-552.7243335091144

>  <inter_energy>  (12) 
-586.9473653445482

>  <intra_energy>  (12) 
38.47840782254798

>  <rmsd>  (12) 
6.86179

>  <sdf_rank>  (12) 
0

$$$$

     RDKit          3D

 33 35  0  0  0  0  0  0  0  0999 V2000
  -14.7849   35.2782   45.2540 N   0  0  0  0  0  0  0  0  0  0  0  0
  -17.9984   36.5075   41.5069 C   0  0  0  0  0  0  0  0  0  0  0  0
  -18.4366   36.9910   42.7226 C   0  0  0  0  0  0  0  0  0  0  0  0
  -17.8648   36.5593   43.9124 C   0  0  0  0  0  0  0  0  0  0  0  0
  -16.8177   35.6115   43.8592 C   0  0  0  0  0  0  0  0  0  0  0  0
  -16.0978   35.1613   45.0716 C   0  0  0  0  0  0  0  0  0  0  0  0
  -16.4176   35.1191   42.6156 C   0  0  0  0  0  0  0  0  0  0  0  0
  -19.4662   37.9089   45.3298 C   0  0  0  0  0  0  0  0  0  0  0  0
  -15.2624   33.9892   40.2764 O   0  0  0  0  0  0  0  0  0  0  0  0
  -20.7118   37.0945   45.2311 C   0  0  0  0  0  0  0  0  0  0  0  0
  -22.5966   35.5312   45.6156 C   0  0  0  0  0  0  0  0  0  0  0  0
  -22.8260   36.4610   44.6635 C   0  0  0  0  0  0  0  0  0  0  0  0
  -15.7088   34.5836   47.1242 N   0  0  0  0  0  0  0  0  0  0  0  0
  -21.7438   37.3371   44.4441 C   0  0  0  0  0  0  0  0  0  0  0  0
  -14.5924   34.9131   46.5147 N   0  0  0  0  0  0  0  0  0  0  0  0
  -18.9159   36.9817   40.1173 Cl  0  0  0  0  0  0  0  0  0  0  0  0
  -16.6787   34.7515   46.2343 N   0  0  0  0  0  0  0  0  0  0  0  0
  -16.9794   35.5559   41.4278 C   0  0  0  0  0  0  0  0  0  0  0  0
  -16.3179   34.9140   39.9108 S   0  0  1  0  0  0  0  0  0  0  0  0
  -15.6961   36.1421   39.1496 N   0  0  0  0  0  0  0  0  0  0  0  0
  -17.4469   34.3748   39.2098 O   0  0  0  0  0  0  0  0  0  0  0  0
  -18.2704   37.1140   45.1308 N   0  0  0  0  0  0  0  0  0  0  0  0
  -21.0644   35.7196   46.2546 S   0  0  0  0  0  0  0  0  0  0  0  0
  -19.2512   37.7297   42.7498 H   0  0  0  0  0  0  0  0  0  0  0  0
  -15.6265   34.3557   42.5780 H   0  0  0  0  0  0  0  0  0  0  0  0
  -19.4979   38.6976   44.5637 H   0  0  0  0  0  0  0  0  0  0  0  0
  -19.4222   38.3339   46.3434 H   0  0  0  0  0  0  0  0  0  0  0  0
  -23.3163   34.7594   45.9263 H   0  0  0  0  0  0  0  0  0  0  0  0
  -23.7732   36.5286   44.1083 H   0  0  0  0  0  0  0  0  0  0  0  0
  -21.7577   38.1412   43.6936 H   0  0  0  0  0  0  0  0  0  0  0  0
  -15.3481   36.8294   39.8333 H   0  0  0  0  0  0  0  0  0  0  0  0
  -14.9162   35.8207   38.5586 H   0  0  0  0  0  0  0  0  0  0  0  0
  -17.6719   36.9441   45.9517 H   0  0  0  0  0  0  0  0  0  0  0  0
  1  6  1  0
  1 15  1  0
  2  3  2  0
  2 16  1  0
  2 18  1  0
  3  4  1  0
  4  5  2  0
  4 22  1  0
  5  6  1  0
  5  7  1  0
  6 17  2  0
  7 18  2  0
  8 10  1  0
  8 22  1  0
  9 19  2  0
 10 14  2  0
 10 23  1  0
 11 12  2  0
 11 23  1  0
 12 14  1  0
 13 15  2  0
 13 17  1  0
 18 19  1  0
 19 20  1  6
 19 21  2  0
  3 24  1  0
  7 25  1  0
  8 26  1  0
  8 27  1  0
 11 28  1  0
 12 29  1  0
 14 30  1  0
 20 31  1  0
 20 32  1  0
 22 33  1  0
M  CHG  1   1  -1
M  END
>  <filename_input>  (13) 
7ZL5_IWE_docked.sdf

>  <pdb_id>  (13) 
7ZL5_IWE

>  <pose_rank>  (13) 
12

>  <num_atoms_heavy>  (13) 
23

>  <num_torsions>  (13) 
5

>  <pose>  (13) 
[-17.998427434021515, 36.507481325351904, 41.50694068807029, 5.625883277994844, 1.003406204044938, 2.642806356209789, 0.530017446780111, -1.7709262790856959, -37.56968169628443, -0.0579827263170912, -0.07000188778645687]

>  <energy>  (13) 
-944.8427633595909

>  <inter_energy>  (13) 
-963.5816831317925

>  <intra_energy>  (13) 
18.816482087861317

>  <rmsd>  (13) 
0.827901

>  <sdf_rank>  (13) 
0

$$$$

     RDKit          3D

 33 35  0  0  0  0  0  0  0  0999 V2000
  -20.7296   38.2625   47.2404 N   0  0  0  0  0  0  0  0  0  0  0  0
  -16.6145   35.3349   47.8535 C   0  0  0  0  0  0  0  0  0  0  0  0
  -16.7002   35.7541   46.5418 C   0  0  0  0  0  0  0  0  0  0  0  0
  -17.8485   36.3700   46.0611 C   0  0  0  0  0  0  0  0  0  0  0  0
  -18.9357   36.5648   46.9428 C   0  0  0  0  0  0  0  0  0  0  0  0
  -20.1626   37.2861   46.5364 C   0  0  0  0  0  0  0  0  0  0  0  0
  -18.8292   36.1024   48.2558 C   0  0  0  0  0  0  0  0  0  0  0  0
  -18.0221   36.0362   43.5604 C   0  0  0  0  0  0  0  0  0  0  0  0
  -18.5306   33.8954   50.5947 O   0  0  0  0  0  0  0  0  0  0  0  0
  -18.1070   36.8534   42.3157 C   0  0  0  0  0  0  0  0  0  0  0  0
  -17.8710   37.7772   40.0275 C   0  0  0  0  0  0  0  0  0  0  0  0
  -18.9236   38.2619   40.7210 C   0  0  0  0  0  0  0  0  0  0  0  0
  -21.7367   38.1066   45.2923 N   0  0  0  0  0  0  0  0  0  0  0  0
  -19.0418   37.7395   42.0248 C   0  0  0  0  0  0  0  0  0  0  0  0
  -21.6840   38.7310   46.4472 N   0  0  0  0  0  0  0  0  0  0  0  0
  -15.2082   34.4171   48.2750 Cl  0  0  0  0  0  0  0  0  0  0  0  0
  -20.7690   37.1990   45.3189 N   0  0  0  0  0  0  0  0  0  0  0  0
  -17.6815   35.4973   48.7397 C   0  0  0  0  0  0  0  0  0  0  0  0
  -17.6455   35.0354   50.4531 S   0  0  1  0  0  0  0  0  0  0  0  0
  -18.2358   36.2571   51.2488 N   0  0  0  0  0  0  0  0  0  0  0  0
  -16.2588   34.8289   50.7550 O   0  0  0  0  0  0  0  0  0  0  0  0
  -17.8914   36.8548   44.7497 N   0  0  0  0  0  0  0  0  0  0  0  0
  -17.0205   36.6782   40.9552 S   0  0  0  0  0  0  0  0  0  0  0  0
  -15.8460   35.5980   45.8665 H   0  0  0  0  0  0  0  0  0  0  0  0
  -19.6891   36.2232   48.9312 H   0  0  0  0  0  0  0  0  0  0  0  0
  -18.9352   35.4291   43.6477 H   0  0  0  0  0  0  0  0  0  0  0  0
  -17.1244   35.4047   43.4870 H   0  0  0  0  0  0  0  0  0  0  0  0
  -17.6105   38.0650   38.9983 H   0  0  0  0  0  0  0  0  0  0  0  0
  -19.6263   38.9990   40.3053 H   0  0  0  0  0  0  0  0  0  0  0  0
  -19.8324   38.0394   42.7284 H   0  0  0  0  0  0  0  0  0  0  0  0
  -18.1509   36.0815   52.2602 H   0  0  0  0  0  0  0  0  0  0  0  0
  -17.7142   37.1108   51.0037 H   0  0  0  0  0  0  0  0  0  0  0  0
  -17.8249   37.8743   44.6186 H   0  0  0  0  0  0  0  0  0  0  0  0
  1  6  1  0
  1 15  1  0
  2  3  2  0
  2 16  1  0
  2 18  1  0
  3  4  1  0
  4  5  2  0
  4 22  1  0
  5  6  1  0
  5  7  1  0
  6 17  2  0
  7 18  2  0
  8 10  1  0
  8 22  1  0
  9 19  2  0
 10 14  2  0
 10 23  1  0
 11 12  2  0
 11 23  1  0
 12 14  1  0
 13 15  2  0
 13 17  1  0
 18 19  1  0
 19 20  1  1
 19 21  2  0
  3 24  1  0
  7 25  1  0
  8 26  1  0
  8 27  1  0
 11 28  1  0
 12 29  1  0
 14 30  1  0
 20 31  1  0
 20 32  1  0
 22 33  1  0
M  CHG  1   1  -1
M  END
>  <filename_input>  (14) 
7ZL5_IWE_docked.sdf

>  <pdb_id>  (14) 
7ZL5_IWE

>  <pose_rank>  (14) 
13

>  <num_atoms_heavy>  (14) 
23

>  <num_torsions>  (14) 
5

>  <pose>  (14) 
[-16.614477301206552, 35.334929287640364, 47.85349689265014, 1.8689573214278772, 3.340654127190573, 0.15405057869465089, 0.3661195131870455, -0.5272550839628515, 1.1804391561516663, -4.48225599494874, 1.0622917825625695]

>  <energy>  (14) 
-401.3811053615553

>  <inter_energy>  (14) 
-438.73545531038064

>  <intra_energy>  (14) 
32.263957204311836

>  <rmsd>  (14) 
6.9861

>  <sdf_rank>  (14) 
0

$$$$

     RDKit          3D

 33 35  0  0  0  0  0  0  0  0999 V2000
  -17.6883   34.7903   45.9951 N   0  0  0  0  0  0  0  0  0  0  0  0
  -18.2560   36.5533   41.1700 C   0  0  0  0  0  0  0  0  0  0  0  0
  -18.8513   37.1612   42.2560 C   0  0  0  0  0  0  0  0  0  0  0  0
  -18.4905   36.8207   43.5533 C   0  0  0  0  0  0  0  0  0  0  0  0
  -17.4950   35.8362   43.7462 C   0  0  0  0  0  0  0  0  0  0  0  0
  -16.9923   35.4742   45.0904 C   0  0  0  0  0  0  0  0  0  0  0  0
  -16.9333   35.2182   42.6273 C   0  0  0  0  0  0  0  0  0  0  0  0
  -20.4048   38.0129   44.6975 C   0  0  0  0  0  0  0  0  0  0  0  0
  -17.3112   33.7208   39.5079 O   0  0  0  0  0  0  0  0  0  0  0  0
  -21.1994   37.3992   45.8004 C   0  0  0  0  0  0  0  0  0  0  0  0
  -22.7158   36.0084   47.1826 C   0  0  0  0  0  0  0  0  0  0  0  0
  -21.8121   36.7219   47.8883 C   0  0  0  0  0  0  0  0  0  0  0  0
  -15.6247   35.0336   46.7134 N   0  0  0  0  0  0  0  0  0  0  0  0
  -20.9628   37.5184   47.0940 C   0  0  0  0  0  0  0  0  0  0  0  0
  -16.8185   34.5466   46.9665 N   0  0  0  0  0  0  0  0  0  0  0  0
  -18.9253   36.9298   39.6182 Cl  0  0  0  0  0  0  0  0  0  0  0  0
  -15.7062   35.6096   45.5207 N   0  0  0  0  0  0  0  0  0  0  0  0
  -17.2844   35.5635   41.3332 C   0  0  0  0  0  0  0  0  0  0  0  0
  -16.4302   34.7626   39.9992 S   0  0  1  0  0  0  0  0  0  0  0  0
  -15.1475   34.1072   40.6311 N   0  0  0  0  0  0  0  0  0  0  0  0
  -16.0903   35.8162   39.0875 O   0  0  0  0  0  0  0  0  0  0  0  0
  -19.0506   37.4986   44.6412 N   0  0  0  0  0  0  0  0  0  0  0  0
  -22.5352   36.2975   45.5470 S   0  0  0  0  0  0  0  0  0  0  0  0
  -19.6236   37.9272   42.0920 H   0  0  0  0  0  0  0  0  0  0  0  0
  -16.1840   34.4274   42.7796 H   0  0  0  0  0  0  0  0  0  0  0  0
  -20.9042   37.7993   43.7409 H   0  0  0  0  0  0  0  0  0  0  0  0
  -20.3456   39.0947   44.8878 H   0  0  0  0  0  0  0  0  0  0  0  0
  -23.4644   35.3328   47.6222 H   0  0  0  0  0  0  0  0  0  0  0  0
  -21.7447   36.6847   48.9856 H   0  0  0  0  0  0  0  0  0  0  0  0
  -20.1823   38.1728   47.5094 H   0  0  0  0  0  0  0  0  0  0  0  0
  -15.2148   34.1417   41.6583 H   0  0  0  0  0  0  0  0  0  0  0  0
  -15.0764   33.1265   40.3243 H   0  0  0  0  0  0  0  0  0  0  0  0
  -18.4535   37.6438   45.4678 H   0  0  0  0  0  0  0  0  0  0  0  0
  1  6  1  0
  1 15  1  0
  2  3  2  0
  2 16  1  0
  2 18  1  0
  3  4  1  0
  4  5  2  0
  4 22  1  0
  5  6  1  0
  5  7  1  0
  6 17  2  0
  7 18  2  0
  8 10  1  0
  8 22  1  0
  9 19  2  0
 10 14  2  0
 10 23  1  0
 11 12  2  0
 11 23  1  0
 12 14  1  0
 13 15  2  0
 13 17  1  0
 18 19  1  0
 19 20  1  1
 19 21  2  0
  3 24  1  0
  7 25  1  0
  8 26  1  0
  8 27  1  0
 11 28  1  0
 12 29  1  0
 14 30  1  0
 20 31  1  0
 20 32  1  0
 22 33  1  0
M  CHG  1   1  -1
M  END
>  <filename_input>  (15) 
7ZL5_IWE_docked.sdf

>  <pdb_id>  (15) 
7ZL5_IWE

>  <pose_rank>  (15) 
14

>  <num_atoms_heavy>  (15) 
23

>  <num_torsions>  (15) 
5

>  <pose>  (15) 
[-18.255994056370888, 36.55329801363203, 41.169970910236565, -2.84905951222603, -5.64701055880045, -1.310547053854855, -2.380391836911528, -0.025306783608515303, 0.46862992760887434, 0.7921867760263038, 3.253300830019352]

>  <energy>  (15) 
-954.3863953626795

>  <inter_energy>  (15) 
-974.8248679552262

>  <intra_energy>  (15) 
7.350539269622626

>  <rmsd>  (15) 
1.265

>  <sdf_rank>  (15) 
0

$$$$

     RDKit          3D

 33 35  0  0  0  0  0  0  0  0999 V2000
  -17.4960   37.2168   41.9749 N   0  0  0  0  0  0  0  0  0  0  0  0
  -17.4091   35.0140   46.6290 C   0  0  0  0  0  0  0  0  0  0  0  0
  -17.3713   34.4615   45.3654 C   0  0  0  0  0  0  0  0  0  0  0  0
  -17.4791   35.2580   44.2327 C   0  0  0  0  0  0  0  0  0  0  0  0
  -17.6270   36.6542   44.3946 C   0  0  0  0  0  0  0  0  0  0  0  0
  -17.6647   37.5831   43.2429 C   0  0  0  0  0  0  0  0  0  0  0  0
  -17.6920   37.1792   45.6867 C   0  0  0  0  0  0  0  0  0  0  0  0
  -16.1403   34.1715   42.3828 C   0  0  0  0  0  0  0  0  0  0  0  0
  -16.3649   36.7976   49.0746 O   0  0  0  0  0  0  0  0  0  0  0  0
  -14.9841   34.2749   43.3192 C   0  0  0  0  0  0  0  0  0  0  0  0
  -12.8652   33.9529   44.5648 C   0  0  0  0  0  0  0  0  0  0  0  0
  -13.4242   35.1728   44.7170 C   0  0  0  0  0  0  0  0  0  0  0  0
  -18.1055   39.3283   42.0353 N   0  0  0  0  0  0  0  0  0  0  0  0
  -14.6345   35.3415   44.0146 C   0  0  0  0  0  0  0  0  0  0  0  0
  -17.7708   38.3099   41.2755 N   0  0  0  0  0  0  0  0  0  0  0  0
  -17.4536   33.8988   47.9527 Cl  0  0  0  0  0  0  0  0  0  0  0  0
  -18.0636   38.8857   43.2856 N   0  0  0  0  0  0  0  0  0  0  0  0
  -17.5745   36.3880   46.8170 C   0  0  0  0  0  0  0  0  0  0  0  0
  -17.5857   37.1928   48.3990 S   0  0  1  0  0  0  0  0  0  0  0  0
  -18.8242   36.6134   49.1766 N   0  0  0  0  0  0  0  0  0  0  0  0
  -17.7504   38.5872   48.1073 O   0  0  0  0  0  0  0  0  0  0  0  0
  -17.3649   34.6907   42.9592 N   0  0  0  0  0  0  0  0  0  0  0  0
  -13.8057   33.0040   43.5614 S   0  0  0  0  0  0  0  0  0  0  0  0
  -17.2540   33.3735   45.2533 H   0  0  0  0  0  0  0  0  0  0  0  0
  -17.8422   38.2617   45.8114 H   0  0  0  0  0  0  0  0  0  0  0  0
  -15.9090   34.7421   41.4712 H   0  0  0  0  0  0  0  0  0  0  0  0
  -16.2988   33.1058   42.1611 H   0  0  0  0  0  0  0  0  0  0  0  0
  -11.9245   33.6299   45.0345 H   0  0  0  0  0  0  0  0  0  0  0  0
  -12.9748   35.9645   45.3344 H   0  0  0  0  0  0  0  0  0  0  0  0
  -15.2276   36.2675   44.0429 H   0  0  0  0  0  0  0  0  0  0  0  0
  -18.6597   36.6904   50.1904 H   0  0  0  0  0  0  0  0  0  0  0  0
  -19.6683   37.1470   48.9242 H   0  0  0  0  0  0  0  0  0  0  0  0
  -18.2187   34.6377   42.3855 H   0  0  0  0  0  0  0  0  0  0  0  0
  1  6  1  0
  1 15  1  0
  2  3  2  0
  2 16  1  0
  2 18  1  0
  3  4  1  0
  4  5  2  0
  4 22  1  0
  5  6  1  0
  5  7  1  0
  6 17  2  0
  7 18  2  0
  8 10  1  0
  8 22  1  0
  9 19  2  0
 10 14  2  0
 10 23  1  0
 11 12  2  0
 11 23  1  0
 12 14  1  0
 13 15  2  0
 13 17  1  0
 18 19  1  0
 19 20  1  1
 19 21  2  0
  3 24  1  0
  7 25  1  0
  8 26  1  0
  8 27  1  0
 11 28  1  0
 12 29  1  0
 14 30  1  0
 20 31  1  0
 20 32  1  0
 22 33  1  0
M  CHG  1   1  -1
M  END
>  <filename_input>  (16) 
7ZL5_IWE_docked.sdf

>  <pdb_id>  (16) 
7ZL5_IWE

>  <pose_rank>  (16) 
15

>  <num_atoms_heavy>  (16) 
23

>  <num_torsions>  (16) 
5

>  <pose>  (16) 
[-17.40914431609493, 35.01403411923935, 46.629041868547205, 2.896672234546373, 1.4725686040954966, -0.06940729907958476, 2.5876571805897584, 2.335925845030111, -1.3583031121183817, 5.016982818179315, -4.988474393499592]

>  <energy>  (16) 
-367.05208857804837

>  <inter_energy>  (16) 
-454.045840623158

>  <intra_energy>  (16) 
90.65227162998822

>  <rmsd>  (16) 
6.91164

>  <sdf_rank>  (16) 
0

$$$$

     RDKit          3D

 33 35  0  0  0  0  0  0  0  0999 V2000
  -21.4215   35.8905   45.0647 N   0  0  0  0  0  0  0  0  0  0  0  0
  -16.7857   35.0381   47.1280 C   0  0  0  0  0  0  0  0  0  0  0  0
  -16.7864   34.8774   45.7577 C   0  0  0  0  0  0  0  0  0  0  0  0
  -17.8816   35.2585   44.9932 C   0  0  0  0  0  0  0  0  0  0  0  0
  -19.0033   35.8199   45.6445 C   0  0  0  0  0  0  0  0  0  0  0  0
  -20.1763   36.3291   44.8990 C   0  0  0  0  0  0  0  0  0  0  0  0
  -18.9837   35.9414   47.0352 C   0  0  0  0  0  0  0  0  0  0  0  0
  -16.6873   34.7238   42.8293 C   0  0  0  0  0  0  0  0  0  0  0  0
  -17.8827   34.5611   50.1869 O   0  0  0  0  0  0  0  0  0  0  0  0
  -16.8427   35.0015   41.3722 C   0  0  0  0  0  0  0  0  0  0  0  0
  -17.0967   36.0490   39.1399 C   0  0  0  0  0  0  0  0  0  0  0  0
  -16.6991   34.7587   39.1108 C   0  0  0  0  0  0  0  0  0  0  0  0
  -21.4505   37.6448   43.7399 N   0  0  0  0  0  0  0  0  0  0  0  0
  -16.5694   34.1690   40.3844 C   0  0  0  0  0  0  0  0  0  0  0  0
  -22.1628   36.7174   44.3392 N   0  0  0  0  0  0  0  0  0  0  0  0
  -15.4428   34.3532   47.9797 Cl  0  0  0  0  0  0  0  0  0  0  0  0
  -20.1903   37.4300   44.0956 N   0  0  0  0  0  0  0  0  0  0  0  0
  -17.8888   35.5715   47.7980 C   0  0  0  0  0  0  0  0  0  0  0  0
  -17.9599   35.8606   49.5478 S   0  0  1  0  0  0  0  0  0  0  0  0
  -19.3699   36.4984   49.8296 N   0  0  0  0  0  0  0  0  0  0  0  0
  -16.8982   36.7864   49.8167 O   0  0  0  0  0  0  0  0  0  0  0  0
  -17.8370   35.1570   43.5989 N   0  0  0  0  0  0  0  0  0  0  0  0
  -17.3106   36.5555   40.7177 S   0  0  0  0  0  0  0  0  0  0  0  0
  -15.9062   34.4408   45.2631 H   0  0  0  0  0  0  0  0  0  0  0  0
  -19.8710   36.3461   47.5440 H   0  0  0  0  0  0  0  0  0  0  0  0
  -16.5550   33.6410   42.9706 H   0  0  0  0  0  0  0  0  0  0  0  0
  -15.8123   35.2863   43.1870 H   0  0  0  0  0  0  0  0  0  0  0  0
  -17.2570   36.6772   38.2513 H   0  0  0  0  0  0  0  0  0  0  0  0
  -16.4945   34.2161   38.1760 H   0  0  0  0  0  0  0  0  0  0  0  0
  -16.2709   33.1217   40.5397 H   0  0  0  0  0  0  0  0  0  0  0  0
  -19.5191   36.5660   50.8465 H   0  0  0  0  0  0  0  0  0  0  0  0
  -19.4102   37.4398   49.4134 H   0  0  0  0  0  0  0  0  0  0  0  0
  -18.6885   35.4100   43.0775 H   0  0  0  0  0  0  0  0  0  0  0  0
  1  6  1  0
  1 15  1  0
  2  3  2  0
  2 16  1  0
  2 18  1  0
  3  4  1  0
  4  5  2  0
  4 22  1  0
  5  6  1  0
  5  7  1  0
  6 17  2  0
  7 18  2  0
  8 10  1  0
  8 22  1  0
  9 19  2  0
 10 14  2  0
 10 23  1  0
 11 12  2  0
 11 23  1  0
 12 14  1  0
 13 15  2  0
 13 17  1  0
 18 19  1  0
 19 20  1  6
 19 21  2  0
  3 24  1  0
  7 25  1  0
  8 26  1  0
  8 27  1  0
 11 28  1  0
 12 29  1  0
 14 30  1  0
 20 31  1  0
 20 32  1  0
 22 33  1  0
M  CHG  1   1  -1
M  END
>  <filename_input>  (17) 
7ZL5_IWE_docked.sdf

>  <pdb_id>  (17) 
7ZL5_IWE

>  <pose_rank>  (17) 
16

>  <num_atoms_heavy>  (17) 
23

>  <num_torsions>  (17) 
5

>  <pose>  (17) 
[-16.785660864322786, 35.03809087072198, 47.12799423613755, -1.4790110350931949, -2.261675413944983, 0.3286083903265496, -1.5056379916495786, 0.2666438182100379, -0.17803497679314337, 2.0703223916339697, -0.22154265727432154]

>  <energy>  (17) 
-536.2126036415124

>  <inter_energy>  (17) 
-534.1632303685769

>  <intra_energy>  (17) 
4.219465249733643

>  <rmsd>  (17) 
7.06955

>  <sdf_rank>  (17) 
0

$$$$

     RDKit          3D

 33 35  0  0  0  0  0  0  0  0999 V2000
  -17.8015   34.8522   45.6975 N   0  0  0  0  0  0  0  0  0  0  0  0
  -18.7965   37.2092   41.2090 C   0  0  0  0  0  0  0  0  0  0  0  0
  -19.0514   37.6368   42.4958 C   0  0  0  0  0  0  0  0  0  0  0  0
  -18.5994   36.9144   43.5925 C   0  0  0  0  0  0  0  0  0  0  0  0
  -17.8667   35.7266   43.3694 C   0  0  0  0  0  0  0  0  0  0  0  0
  -17.2774   34.9423   44.4778 C   0  0  0  0  0  0  0  0  0  0  0  0
  -17.6514   35.3047   42.0560 C   0  0  0  0  0  0  0  0  0  0  0  0
  -19.8491   38.3242   45.2794 C   0  0  0  0  0  0  0  0  0  0  0  0
  -16.8719   34.2353   39.5396 O   0  0  0  0  0  0  0  0  0  0  0  0
  -20.9800   37.6409   45.9712 C   0  0  0  0  0  0  0  0  0  0  0  0
  -22.5127   36.6033   47.6201 C   0  0  0  0  0  0  0  0  0  0  0  0
  -23.0877   36.9104   46.4374 C   0  0  0  0  0  0  0  0  0  0  0  0
  -16.1168   33.4488   45.5365 N   0  0  0  0  0  0  0  0  0  0  0  0
  -22.2051   37.4886   45.5028 C   0  0  0  0  0  0  0  0  0  0  0  0
  -17.0624   33.9354   46.3081 N   0  0  0  0  0  0  0  0  0  0  0  0
  -19.5722   38.0942   39.9390 Cl  0  0  0  0  0  0  0  0  0  0  0  0
  -16.2459   34.0587   44.3651 N   0  0  0  0  0  0  0  0  0  0  0  0
  -18.0924   36.0289   40.9613 C   0  0  0  0  0  0  0  0  0  0  0  0
  -17.6753   35.4267   39.3445 S   0  0  1  0  0  0  0  0  0  0  0  0
  -16.7964   36.5455   38.6735 N   0  0  0  0  0  0  0  0  0  0  0  0
  -18.9309   35.2664   38.6705 O   0  0  0  0  0  0  0  0  0  0  0  0
  -18.8028   37.4002   44.8884 N   0  0  0  0  0  0  0  0  0  0  0  0
  -20.8950   37.0209   47.6054 S   0  0  0  0  0  0  0  0  0  0  0  0
  -19.6214   38.5640   42.6555 H   0  0  0  0  0  0  0  0  0  0  0  0
  -17.1113   34.3619   41.8845 H   0  0  0  0  0  0  0  0  0  0  0  0
  -20.2354   38.8228   44.3782 H   0  0  0  0  0  0  0  0  0  0  0  0
  -19.4124   39.0477   45.9836 H   0  0  0  0  0  0  0  0  0  0  0  0
  -23.0351   36.1437   48.4721 H   0  0  0  0  0  0  0  0  0  0  0  0
  -24.1506   36.7257   46.2225 H   0  0  0  0  0  0  0  0  0  0  0  0
  -22.5063   37.7830   44.4866 H   0  0  0  0  0  0  0  0  0  0  0  0
  -16.3486   37.1154   39.4054 H   0  0  0  0  0  0  0  0  0  0  0  0
  -16.0712   36.1072   38.0879 H   0  0  0  0  0  0  0  0  0  0  0  0
  -18.1579   37.0756   45.6230 H   0  0  0  0  0  0  0  0  0  0  0  0
  1  6  1  0
  1 15  1  0
  2  3  2  0
  2 16  1  0
  2 18  1  0
  3  4  1  0
  4  5  2  0
  4 22  1  0
  5  6  1  0
  5  7  1  0
  6 17  2  0
  7 18  2  0
  8 10  1  0
  8 22  1  0
  9 19  2  0
 10 14  2  0
 10 23  1  0
 11 12  2  0
 11 23  1  0
 12 14  1  0
 13 15  2  0
 13 17  1  0
 18 19  1  0
 19 20  1  6
 19 21  2  0
  3 24  1  0
  7 25  1  0
  8 26  1  0
  8 27  1  0
 11 28  1  0
 12 29  1  0
 14 30  1  0
 20 31  1  0
 20 32  1  0
 22 33  1  0
M  CHG  1   1  -1
M  END
>  <filename_input>  (18) 
7ZL5_IWE_docked.sdf

>  <pdb_id>  (18) 
7ZL5_IWE

>  <pose_rank>  (18) 
17

>  <num_atoms_heavy>  (18) 
23

>  <num_torsions>  (18) 
5

>  <pose>  (18) 
[-18.79650595384188, 37.20923570185623, 41.2090281397663, -2.570100921954571, -0.7746421182661986, 5.330347476331002, 3.2045554560242255, -1.8109511217063101, -37.40462165646183, 0.4963315415594489, 0.18067674593298833]

>  <energy>  (18) 
-675.9702120436955

>  <inter_energy>  (18) 
-683.0373580316107

>  <intra_energy>  (18) 
20.989762886885316

>  <rmsd>  (18) 
1.66407

>  <sdf_rank>  (18) 
0

$$$$

     RDKit          3D

 33 35  0  0  0  0  0  0  0  0999 V2000
  -21.6114   36.6414   46.0940 N   0  0  0  0  0  0  0  0  0  0  0  0
  -16.6901   35.3842   45.5673 C   0  0  0  0  0  0  0  0  0  0  0  0
  -17.1141   35.8259   44.3310 C   0  0  0  0  0  0  0  0  0  0  0  0
  -18.4253   36.2373   44.1292 C   0  0  0  0  0  0  0  0  0  0  0  0
  -19.3254   36.1985   45.2182 C   0  0  0  0  0  0  0  0  0  0  0  0
  -20.7152   36.6963   45.1119 C   0  0  0  0  0  0  0  0  0  0  0  0
  -18.8736   35.7179   46.4487 C   0  0  0  0  0  0  0  0  0  0  0  0
  -17.9406   37.4010   41.9371 C   0  0  0  0  0  0  0  0  0  0  0  0
  -17.1110   33.3601   48.2953 O   0  0  0  0  0  0  0  0  0  0  0  0
  -17.3541   36.4399   40.9590 C   0  0  0  0  0  0  0  0  0  0  0  0
  -16.0890   35.3457   39.1295 C   0  0  0  0  0  0  0  0  0  0  0  0
  -16.5813   34.4954   40.0560 C   0  0  0  0  0  0  0  0  0  0  0  0
  -22.4396   37.8212   44.4340 N   0  0  0  0  0  0  0  0  0  0  0  0
  -17.3091   35.1263   41.0851 C   0  0  0  0  0  0  0  0  0  0  0  0
  -22.6455   37.3353   45.6373 N   0  0  0  0  0  0  0  0  0  0  0  0
  -15.0904   34.7256   45.6392 Cl  0  0  0  0  0  0  0  0  0  0  0  0
  -21.2150   37.4448   44.0884 N   0  0  0  0  0  0  0  0  0  0  0  0
  -17.5642   35.3171   46.6544 C   0  0  0  0  0  0  0  0  0  0  0  0
  -17.0982   34.8102   48.2903 S   0  0  1  0  0  0  0  0  0  0  0  0
  -18.2219   35.3459   49.2518 N   0  0  0  0  0  0  0  0  0  0  0  0
  -15.8410   35.4544   48.5369 O   0  0  0  0  0  0  0  0  0  0  0  0
  -18.8194   36.7513   42.8895 N   0  0  0  0  0  0  0  0  0  0  0  0
  -16.5036   36.9196   39.5068 S   0  0  0  0  0  0  0  0  0  0  0  0
  -16.4029   35.8528   43.4923 H   0  0  0  0  0  0  0  0  0  0  0  0
  -19.5842   35.6555   47.2860 H   0  0  0  0  0  0  0  0  0  0  0  0
  -17.1224   37.8892   42.4869 H   0  0  0  0  0  0  0  0  0  0  0  0
  -18.5383   38.1319   41.3727 H   0  0  0  0  0  0  0  0  0  0  0  0
  -15.4988   35.0448   38.2513 H   0  0  0  0  0  0  0  0  0  0  0  0
  -16.4279   33.4071   40.0115 H   0  0  0  0  0  0  0  0  0  0  0  0
  -17.7907   34.5799   41.9095 H   0  0  0  0  0  0  0  0  0  0  0  0
  -17.9314   35.2074   50.2303 H   0  0  0  0  0  0  0  0  0  0  0  0
  -18.3732   36.3496   49.0774 H   0  0  0  0  0  0  0  0  0  0  0  0
  -19.8128   36.6611   42.6329 H   0  0  0  0  0  0  0  0  0  0  0  0
  1  6  1  0
  1 15  1  0
  2  3  2  0
  2 16  1  0
  2 18  1  0
  3  4  1  0
  4  5  2  0
  4 22  1  0
  5  6  1  0
  5  7  1  0
  6 17  2  0
  7 18  2  0
  8 10  1  0
  8 22  1  0
  9 19  2  0
 10 14  2  0
 10 23  1  0
 11 12  2  0
 11 23  1  0
 12 14  1  0
 13 15  2  0
 13 17  1  0
 18 19  1  0
 19 20  1  1
 19 21  2  0
  3 24  1  0
  7 25  1  0
  8 26  1  0
  8 27  1  0
 11 28  1  0
 12 29  1  0
 14 30  1  0
 20 31  1  0
 20 32  1  0
 22 33  1  0
M  CHG  1   1  -1
M  END
>  <filename_input>  (19) 
7ZL5_IWE_docked.sdf

>  <pdb_id>  (19) 
7ZL5_IWE

>  <pose_rank>  (19) 
18

>  <num_atoms_heavy>  (19) 
23

>  <num_torsions>  (19) 
5

>  <pose>  (19) 
[-16.690065332778286, 35.38415725980846, 45.56733957994747, 1.6839730663805474, 3.6694418169150125, -0.07773636412234919, -0.5296510122250133, -0.03713190126555978, -0.584426780591135, 0.2999106310395105, 1.8342852922956294]

>  <energy>  (19) 
-548.7567642468379

>  <inter_energy>  (19) 
-575.7282487633921

>  <intra_energy>  (19) 
40.96253956381493

>  <rmsd>  (19) 
6.57039

>  <sdf_rank>  (19) 
0

$$$$

     RDKit          3D

 33 35  0  0  0  0  0  0  0  0999 V2000
  -21.9645   37.5988   44.4792 N   0  0  0  0  0  0  0  0  0  0  0  0
  -18.3922   39.2294   47.7505 C   0  0  0  0  0  0  0  0  0  0  0  0
  -18.1326   38.4011   46.6781 C   0  0  0  0  0  0  0  0  0  0  0  0
  -19.1622   37.7480   46.0128 C   0  0  0  0  0  0  0  0  0  0  0  0
  -20.4904   37.9477   46.4525 C   0  0  0  0  0  0  0  0  0  0  0  0
  -21.6519   37.3578   45.7499 C   0  0  0  0  0  0  0  0  0  0  0  0
  -20.7174   38.7680   47.5592 C   0  0  0  0  0  0  0  0  0  0  0  0
  -18.6747   37.4875   43.5451 C   0  0  0  0  0  0  0  0  0  0  0  0
  -21.5730   40.6294   49.5406 O   0  0  0  0  0  0  0  0  0  0  0  0
  -17.6943   36.6718   42.7719 C   0  0  0  0  0  0  0  0  0  0  0  0
  -16.0776   35.8006   41.1069 C   0  0  0  0  0  0  0  0  0  0  0  0
  -16.0476   35.1687   42.3001 C   0  0  0  0  0  0  0  0  0  0  0  0
  -23.2657   36.0013   45.2460 N   0  0  0  0  0  0  0  0  0  0  0  0
  -16.9787   35.6636   43.2354 C   0  0  0  0  0  0  0  0  0  0  0  0
  -22.9530   36.7543   44.2157 N   0  0  0  0  0  0  0  0  0  0  0  0
  -17.0126   39.8318   48.6058 Cl  0  0  0  0  0  0  0  0  0  0  0  0
  -22.4411   36.3530   46.2244 N   0  0  0  0  0  0  0  0  0  0  0  0
  -19.6933   39.4279   48.2174 C   0  0  0  0  0  0  0  0  0  0  0  0
  -20.1278   40.5105   49.5552 S   0  0  1  0  0  0  0  0  0  0  0  0
  -19.4854   41.9057   49.2163 N   0  0  0  0  0  0  0  0  0  0  0  0
  -19.5311   39.9232   50.7196 O   0  0  0  0  0  0  0  0  0  0  0  0
  -18.8889   36.9707   44.8825 N   0  0  0  0  0  0  0  0  0  0  0  0
  -17.2356   37.0050   41.1164 S   0  0  0  0  0  0  0  0  0  0  0  0
  -17.0944   38.2557   46.3449 H   0  0  0  0  0  0  0  0  0  0  0  0
  -21.7481   38.8947   47.9219 H   0  0  0  0  0  0  0  0  0  0  0  0
  -18.2960   38.5175   43.6206 H   0  0  0  0  0  0  0  0  0  0  0  0
  -19.6365   37.4504   43.0126 H   0  0  0  0  0  0  0  0  0  0  0  0
  -15.4316   35.5570   40.2506 H   0  0  0  0  0  0  0  0  0  0  0  0
  -15.3576   34.3413   42.5223 H   0  0  0  0  0  0  0  0  0  0  0  0
  -17.0972   35.2516   44.2485 H   0  0  0  0  0  0  0  0  0  0  0  0
  -19.2576   42.4003   50.0906 H   0  0  0  0  0  0  0  0  0  0  0  0
  -18.6250   41.7634   48.6682 H   0  0  0  0  0  0  0  0  0  0  0  0
  -18.8357   35.9500   45.0105 H   0  0  0  0  0  0  0  0  0  0  0  0
  1  6  1  0
  1 15  1  0
  2  3  2  0
  2 16  1  0
  2 18  1  0
  3  4  1  0
  4  5  2  0
  4 22  1  0
  5  6  1  0
  5  7  1  0
  6 17  2  0
  7 18  2  0
  8 10  1  0
  8 22  1  0
  9 19  2  0
 10 14  2  0
 10 23  1  0
 11 12  2  0
 11 23  1  0
 12 14  1  0
 13 15  2  0
 13 17  1  0
 18 19  1  0
 19 20  1  6
 19 21  2  0
  3 24  1  0
  7 25  1  0
  8 26  1  0
  8 27  1  0
 11 28  1  0
 12 29  1  0
 14 30  1  0
 20 31  1  0
 20 32  1  0
 22 33  1  0
M  CHG  1   1  -1
M  END
>  <filename_input>  (20) 
7ZL5_IWE_docked.sdf

>  <pdb_id>  (20) 
7ZL5_IWE

>  <pose_rank>  (20) 
19

>  <num_atoms_heavy>  (20) 
23

>  <num_torsions>  (20) 
5

>  <pose>  (20) 
[-18.392186041453048, 39.22938150954948, 47.75049736401697, -1.0437620795068998, -2.6543598863361297, 1.2262750026923783, 7.893870451775259, 16.91217152600498, 42.46060254064133, 13.83762764523542, -4.260407719019251]

>  <energy>  (20) 
-401.2786745972256

>  <inter_energy>  (20) 
-413.85405160074583

>  <intra_energy>  (20) 
12.579342306498324

>  <rmsd>  (20) 
7.77218

>  <sdf_rank>  (20) 
0

$$$$

     RDKit          3D

 33 35  0  0  0  0  0  0  0  0999 V2000
  -13.5851   34.7670   43.5418 N   0  0  0  0  0  0  0  0  0  0  0  0
  -18.1673   36.6100   42.2911 C   0  0  0  0  0  0  0  0  0  0  0  0
  -18.0196   36.7935   43.6506 C   0  0  0  0  0  0  0  0  0  0  0  0
  -16.9146   36.2898   44.3246 C   0  0  0  0  0  0  0  0  0  0  0  0
  -15.9348   35.5828   43.5914 C   0  0  0  0  0  0  0  0  0  0  0  0
  -14.6877   35.0859   44.2149 C   0  0  0  0  0  0  0  0  0  0  0  0
  -16.1282   35.3880   42.2225 C   0  0  0  0  0  0  0  0  0  0  0  0
  -17.7870   36.9920   46.5920 C   0  0  0  0  0  0  0  0  0  0  0  0
  -18.6658   35.9539   39.3916 O   0  0  0  0  0  0  0  0  0  0  0  0
  -17.4784   36.6729   48.0158 C   0  0  0  0  0  0  0  0  0  0  0  0
  -17.1941   36.7063   50.4781 C   0  0  0  0  0  0  0  0  0  0  0  0
  -17.1369   35.4758   49.9247 C   0  0  0  0  0  0  0  0  0  0  0  0
  -13.1526   34.7023   45.6964 N   0  0  0  0  0  0  0  0  0  0  0  0
  -17.2875   35.4689   48.5232 C   0  0  0  0  0  0  0  0  0  0  0  0
  -12.6781   34.5379   44.4822 N   0  0  0  0  0  0  0  0  0  0  0  0
  -19.6736   37.1213   41.6075 Cl  0  0  0  0  0  0  0  0  0  0  0  0
  -14.4198   35.0684   45.5511 N   0  0  0  0  0  0  0  0  0  0  0  0
  -17.2240   35.8981   41.5470 C   0  0  0  0  0  0  0  0  0  0  0  0
  -17.3043   35.6540   39.7907 S   0  0  1  0  0  0  0  0  0  0  0  0
  -17.0126   34.1277   39.5467 N   0  0  0  0  0  0  0  0  0  0  0  0
  -16.2662   36.4829   39.2506 O   0  0  0  0  0  0  0  0  0  0  0  0
  -16.7437   36.5479   45.6887 N   0  0  0  0  0  0  0  0  0  0  0  0
  -17.4370   37.8635   49.2976 S   0  0  0  0  0  0  0  0  0  0  0  0
  -18.7887   37.3472   44.2091 H   0  0  0  0  0  0  0  0  0  0  0  0
  -15.3823   34.8076   41.6597 H   0  0  0  0  0  0  0  0  0  0  0  0
  -18.7291   36.4964   46.3148 H   0  0  0  0  0  0  0  0  0  0  0  0
  -17.8660   38.0855   46.5023 H   0  0  0  0  0  0  0  0  0  0  0  0
  -17.0950   36.9169   51.5532 H   0  0  0  0  0  0  0  0  0  0  0  0
  -16.9861   34.5601   50.5152 H   0  0  0  0  0  0  0  0  0  0  0  0
  -17.2498   34.5537   47.9142 H   0  0  0  0  0  0  0  0  0  0  0  0
  -16.9206   33.6466   40.4528 H   0  0  0  0  0  0  0  0  0  0  0  0
  -17.7891   33.7106   39.0138 H   0  0  0  0  0  0  0  0  0  0  0  0
  -15.8018   36.4117   46.0827 H   0  0  0  0  0  0  0  0  0  0  0  0
  1  6  1  0
  1 15  1  0
  2  3  2  0
  2 16  1  0
  2 18  1  0
  3  4  1  0
  4  5  2  0
  4 22  1  0
  5  6  1  0
  5  7  1  0
  6 17  2  0
  7 18  2  0
  8 10  1  0
  8 22  1  0
  9 19  2  0
 10 14  2  0
 10 23  1  0
 11 12  2  0
 11 23  1  0
 12 14  1  0
 13 15  2  0
 13 17  1  0
 18 19  1  0
 19 20  1  1
 19 21  2  0
  3 24  1  0
  7 25  1  0
  8 26  1  0
  8 27  1  0
 11 28  1  0
 12 29  1  0
 14 30  1  0
 20 31  1  0
 20 32  1  0
 22 33  1  0
M  CHG  1   1  -1
M  END
>  <filename_input>  (21) 
7ZL5_IWE_docked.sdf

>  <pdb_id>  (21) 
7ZL5_IWE

>  <pose_rank>  (21) 
20

>  <num_atoms_heavy>  (21) 
23

>  <num_torsions>  (21) 
5

>  <pose>  (21) 
[-18.167291552696977, 36.609978435181304, 42.29113497685781, 0.22281640974599115, 0.4849582290393025, 0.15281446063806403, -0.13906326945654912, 7.386970053507171, 0.18526505996772033, 7.739667792542913, 1.0770056571337585]

>  <energy>  (21) 
-710.3328358588716

>  <inter_energy>  (21) 
-740.5280710024302

>  <intra_energy>  (21) 
40.46582274412599

>  <rmsd>  (21) 
3.34314

>  <sdf_rank>  (21) 
0

$$$$

     RDKit          3D

 33 35  0  0  0  0  0  0  0  0999 V2000
  -22.4003   37.8510   44.8102 N   0  0  0  0  0  0  0  0  0  0  0  0
  -18.8110   37.2275   48.3816 C   0  0  0  0  0  0  0  0  0  0  0  0
  -18.4959   37.1302   47.0419 C   0  0  0  0  0  0  0  0  0  0  0  0
  -19.4884   36.9721   46.0831 C   0  0  0  0  0  0  0  0  0  0  0  0
  -20.8367   36.9142   46.5031 C   0  0  0  0  0  0  0  0  0  0  0  0
  -21.9600   36.8313   45.5429 C   0  0  0  0  0  0  0  0  0  0  0  0
  -21.1205   36.9852   47.8683 C   0  0  0  0  0  0  0  0  0  0  0  0
  -18.5035   35.8499   44.0422 C   0  0  0  0  0  0  0  0  0  0  0  0
  -20.0241   38.5323   51.0187 O   0  0  0  0  0  0  0  0  0  0  0  0
  -18.1274   36.1951   42.6408 C   0  0  0  0  0  0  0  0  0  0  0  0
  -17.4395   37.3336   40.5491 C   0  0  0  0  0  0  0  0  0  0  0  0
  -17.3242   35.9884   40.5182 C   0  0  0  0  0  0  0  0  0  0  0  0
  -23.4120   36.0112   44.1582 N   0  0  0  0  0  0  0  0  0  0  0  0
  -17.7292   35.3499   41.7078 C   0  0  0  0  0  0  0  0  0  0  0  0
  -23.2843   37.3073   43.9840 N   0  0  0  0  0  0  0  0  0  0  0  0
  -17.4765   37.2327   49.4847 Cl  0  0  0  0  0  0  0  0  0  0  0  0
  -22.5681   35.6841   45.1286 N   0  0  0  0  0  0  0  0  0  0  0  0
  -20.1333   37.1531   48.8246 C   0  0  0  0  0  0  0  0  0  0  0  0
  -20.6374   37.3171   50.5186 S   0  0  1  0  0  0  0  0  0  0  0  0
  -20.0350   36.0776   51.2770 N   0  0  0  0  0  0  0  0  0  0  0  0
  -22.0704   37.2719   50.4878 O   0  0  0  0  0  0  0  0  0  0  0  0
  -19.1578   36.9492   44.7242 N   0  0  0  0  0  0  0  0  0  0  0  0
  -18.0366   37.8317   42.0279 S   0  0  0  0  0  0  0  0  0  0  0  0
  -17.4427   37.1786   46.7282 H   0  0  0  0  0  0  0  0  0  0  0  0
  -22.1673   36.9049   48.1964 H   0  0  0  0  0  0  0  0  0  0  0  0
  -19.1876   34.9887   44.0227 H   0  0  0  0  0  0  0  0  0  0  0  0
  -17.5788   35.6170   44.5906 H   0  0  0  0  0  0  0  0  0  0  0  0
  -17.1775   38.0057   39.7187 H   0  0  0  0  0  0  0  0  0  0  0  0
  -16.9476   35.4396   39.6424 H   0  0  0  0  0  0  0  0  0  0  0  0
  -17.7150   34.2586   41.8449 H   0  0  0  0  0  0  0  0  0  0  0  0
  -20.1081   36.2281   52.2933 H   0  0  0  0  0  0  0  0  0  0  0  0
  -20.5576   35.2289   51.0171 H   0  0  0  0  0  0  0  0  0  0  0  0
  -19.3983   37.7791   44.1636 H   0  0  0  0  0  0  0  0  0  0  0  0
  1  6  1  0
  1 15  1  0
  2  3  2  0
  2 16  1  0
  2 18  1  0
  3  4  1  0
  4  5  2  0
  4 22  1  0
  5  6  1  0
  5  7  1  0
  6 17  2  0
  7 18  2  0
  8 10  1  0
  8 22  1  0
  9 19  2  0
 10 14  2  0
 10 23  1  0
 11 12  2  0
 11 23  1  0
 12 14  1  0
 13 15  2  0
 13 17  1  0
 18 19  1  0
 19 20  1  1
 19 21  2  0
  3 24  1  0
  7 25  1  0
  8 26  1  0
  8 27  1  0
 11 28  1  0
 12 29  1  0
 14 30  1  0
 20 31  1  0
 20 32  1  0
 22 33  1  0
M  CHG  1   1  -1
M  END
>  <filename_input>  (22) 
7ZL5_IWE_docked.sdf

>  <pdb_id>  (22) 
7ZL5_IWE

>  <pose_rank>  (22) 
21

>  <num_atoms_heavy>  (22) 
23

>  <num_torsions>  (22) 
5

>  <pose>  (22) 
[-18.810978257783614, 37.227528791029435, 48.381564896722885, -0.9657221677701794, -2.7620215089669258, 0.3619433131221198, 1.3436696109472352, 2.2869298878408433, 32.56769275622958, 20.831415745193198, -0.7999177286213859]

>  <energy>  (22) 
-448.3235499146328

>  <inter_energy>  (22) 
-456.2690430039876

>  <intra_energy>  (22) 
5.75818956820969

>  <rmsd>  (22) 
7.72576

>  <sdf_rank>  (22) 
0

$$$$

     RDKit          3D

 33 35  0  0  0  0  0  0  0  0999 V2000
  -15.8689   34.0393   44.8227 N   0  0  0  0  0  0  0  0  0  0  0  0
  -18.6305   35.6390   48.7964 C   0  0  0  0  0  0  0  0  0  0  0  0
  -19.2648   35.4453   47.5866 C   0  0  0  0  0  0  0  0  0  0  0  0
  -18.5387   35.3321   46.4080 C   0  0  0  0  0  0  0  0  0  0  0  0
  -17.1291   35.4166   46.4669 C   0  0  0  0  0  0  0  0  0  0  0  0
  -16.2759   35.2233   45.2729 C   0  0  0  0  0  0  0  0  0  0  0  0
  -16.5190   35.6432   47.7021 C   0  0  0  0  0  0  0  0  0  0  0  0
  -19.8348   36.0529   44.3597 C   0  0  0  0  0  0  0  0  0  0  0  0
  -17.2064   36.6606   51.3064 O   0  0  0  0  0  0  0  0  0  0  0  0
  -21.2932   36.1797   44.6450 C   0  0  0  0  0  0  0  0  0  0  0  0
  -23.6971   36.7844   44.6462 C   0  0  0  0  0  0  0  0  0  0  0  0
  -23.4042   35.6529   45.3228 C   0  0  0  0  0  0  0  0  0  0  0  0
  -15.3092   35.5896   43.3677 N   0  0  0  0  0  0  0  0  0  0  0  0
  -22.0335   35.3246   45.3263 C   0  0  0  0  0  0  0  0  0  0  0  0
  -15.2830   34.3097   43.6637 N   0  0  0  0  0  0  0  0  0  0  0  0
  -19.6540   35.9507   50.1576 Cl  0  0  0  0  0  0  0  0  0  0  0  0
  -15.9506   36.1860   44.3646 N   0  0  0  0  0  0  0  0  0  0  0  0
  -17.2406   35.7461   48.8794 C   0  0  0  0  0  0  0  0  0  0  0  0
  -16.3356   35.9459   50.3932 S   0  0  1  0  0  0  0  0  0  0  0  0
  -15.0926   36.8449   50.0453 N   0  0  0  0  0  0  0  0  0  0  0  0
  -15.9395   34.6199   50.7693 O   0  0  0  0  0  0  0  0  0  0  0  0
  -19.1923   35.0625   45.2011 N   0  0  0  0  0  0  0  0  0  0  0  0
  -22.3073   37.4541   44.0048 S   0  0  0  0  0  0  0  0  0  0  0  0
  -20.3624   35.3795   47.5549 H   0  0  0  0  0  0  0  0  0  0  0  0
  -15.4243   35.7436   47.7414 H   0  0  0  0  0  0  0  0  0  0  0  0
  -19.7045   35.7607   43.3072 H   0  0  0  0  0  0  0  0  0  0  0  0
  -19.3658   37.0259   44.5682 H   0  0  0  0  0  0  0  0  0  0  0  0
  -24.7072   37.2052   44.5334 H   0  0  0  0  0  0  0  0  0  0  0  0
  -24.1676   35.0418   45.8265 H   0  0  0  0  0  0  0  0  0  0  0  0
  -21.6223   34.4454   45.8439 H   0  0  0  0  0  0  0  0  0  0  0  0
  -14.6473   37.1670   50.9164 H   0  0  0  0  0  0  0  0  0  0  0  0
  -14.4155   36.2967   49.4958 H   0  0  0  0  0  0  0  0  0  0  0  0
  -19.2193   34.0826   44.8851 H   0  0  0  0  0  0  0  0  0  0  0  0
  1  6  1  0
  1 15  1  0
  2  3  2  0
  2 16  1  0
  2 18  1  0
  3  4  1  0
  4  5  2  0
  4 22  1  0
  5  6  1  0
  5  7  1  0
  6 17  2  0
  7 18  2  0
  8 10  1  0
  8 22  1  0
  9 19  2  0
 10 14  2  0
 10 23  1  0
 11 12  2  0
 11 23  1  0
 12 14  1  0
 13 15  2  0
 13 17  1  0
 18 19  1  0
 19 20  1  6
 19 21  2  0
  3 24  1  0
  7 25  1  0
  8 26  1  0
  8 27  1  0
 11 28  1  0
 12 29  1  0
 14 30  1  0
 20 31  1  0
 20 32  1  0
 22 33  1  0
M  CHG  1   1  -1
M  END
>  <filename_input>  (23) 
7ZL5_IWE_docked.sdf

>  <pdb_id>  (23) 
7ZL5_IWE

>  <pose_rank>  (23) 
22

>  <num_atoms_heavy>  (23) 
23

>  <num_torsions>  (23) 
5

>  <pose>  (23) 
[-18.630497285396597, 35.63897210323375, 48.79636180493271, -3.014425656300644, 1.0728246352406647, -0.06298111268240075, 1.172850277664037, 0.8780864549466912, 1.3205789876771588, 3.3478745915025363, -4.422416354834628]

>  <energy>  (23) 
-462.91974932745484

>  <inter_energy>  (23) 
-470.12070259399906

>  <intra_energy>  (23) 
18.18277773920804

>  <rmsd>  (23) 
5.89922

>  <sdf_rank>  (23) 
0

$$$$

     RDKit          3D

 33 35  0  0  0  0  0  0  0  0999 V2000
  -15.5306   35.6185   48.4649 N   0  0  0  0  0  0  0  0  0  0  0  0
  -18.7139   36.3719   44.5615 C   0  0  0  0  0  0  0  0  0  0  0  0
  -19.2648   36.4115   45.8258 C   0  0  0  0  0  0  0  0  0  0  0  0
  -18.5748   35.9121   46.9229 C   0  0  0  0  0  0  0  0  0  0  0  0
  -17.2889   35.3604   46.7240 C   0  0  0  0  0  0  0  0  0  0  0  0
  -16.4519   34.8832   47.8476 C   0  0  0  0  0  0  0  0  0  0  0  0
  -16.7718   35.3075   45.4282 C   0  0  0  0  0  0  0  0  0  0  0  0
  -20.4111   35.5191   48.6166 C   0  0  0  0  0  0  0  0  0  0  0  0
  -17.3218   36.7296   41.9115 O   0  0  0  0  0  0  0  0  0  0  0  0
  -20.3248   34.6574   49.8308 C   0  0  0  0  0  0  0  0  0  0  0  0
  -20.6535   33.5738   52.0359 C   0  0  0  0  0  0  0  0  0  0  0  0
  -19.9266   32.8487   51.1587 C   0  0  0  0  0  0  0  0  0  0  0  0
  -15.7854   33.7266   49.5554 N   0  0  0  0  0  0  0  0  0  0  0  0
  -19.7353   33.4788   49.9125 C   0  0  0  0  0  0  0  0  0  0  0  0
  -15.1499   34.8751   49.4953 N   0  0  0  0  0  0  0  0  0  0  0  0
  -19.7483   36.8524   43.2589 Cl  0  0  0  0  0  0  0  0  0  0  0  0
  -16.6296   33.7178   48.5317 N   0  0  0  0  0  0  0  0  0  0  0  0
  -17.4538   35.8141   44.3348 C   0  0  0  0  0  0  0  0  0  0  0  0
  -16.6455   35.7634   42.7554 S   0  0  1  0  0  0  0  0  0  0  0  0
  -16.8841   34.3161   42.1873 N   0  0  0  0  0  0  0  0  0  0  0  0
  -15.2592   35.9979   43.0378 O   0  0  0  0  0  0  0  0  0  0  0  0
  -19.1163   36.0268   48.2075 N   0  0  0  0  0  0  0  0  0  0  0  0
  -21.1141   35.0254   51.3487 S   0  0  0  0  0  0  0  0  0  0  0  0
  -20.2658   36.8453   45.9672 H   0  0  0  0  0  0  0  0  0  0  0  0
  -15.7858   34.8462   45.2700 H   0  0  0  0  0  0  0  0  0  0  0  0
  -20.8351   34.9269   47.7922 H   0  0  0  0  0  0  0  0  0  0  0  0
  -21.0482   36.3818   48.8614 H   0  0  0  0  0  0  0  0  0  0  0  0
  -20.9065   33.2542   53.0576 H   0  0  0  0  0  0  0  0  0  0  0  0
  -19.5198   31.8545   51.3957 H   0  0  0  0  0  0  0  0  0  0  0  0
  -19.1540   33.0339   49.0914 H   0  0  0  0  0  0  0  0  0  0  0  0
  -16.9933   33.6542   42.9689 H   0  0  0  0  0  0  0  0  0  0  0  0
  -17.7375   34.3101   41.6105 H   0  0  0  0  0  0  0  0  0  0  0  0
  -18.5502   36.5104   48.9193 H   0  0  0  0  0  0  0  0  0  0  0  0
  1  6  1  0
  1 15  1  0
  2  3  2  0
  2 16  1  0
  2 18  1  0
  3  4  1  0
  4  5  2  0
  4 22  1  0
  5  6  1  0
  5  7  1  0
  6 17  2  0
  7 18  2  0
  8 10  1  0
  8 22  1  0
  9 19  2  0
 10 14  2  0
 10 23  1  0
 11 12  2  0
 11 23  1  0
 12 14  1  0
 13 15  2  0
 13 17  1  0
 18 19  1  0
 19 20  1  6
 19 21  2  0
  3 24  1  0
  7 25  1  0
  8 26  1  0
  8 27  1  0
 11 28  1  0
 12 29  1  0
 14 30  1  0
 20 31  1  0
 20 32  1  0
 22 33  1  0
M  CHG  1   1  -1
M  END
>  <filename_input>  (24) 
7ZL5_IWE_docked.sdf

>  <pdb_id>  (24) 
7ZL5_IWE

>  <pose_rank>  (24) 
23

>  <num_atoms_heavy>  (24) 
23

>  <num_torsions>  (24) 
5

>  <pose>  (24) 
[-18.713913460130605, 36.371897849501245, 44.561541347541635, 0.24087475572494105, -0.021071584242535486, 0.31629869627487317, 1.0133201656727613, 7.979318575560075, 0.8644986715574557, 7.21620083799286, 0.9642706284720557]

>  <energy>  (24) 
-431.626010153805

>  <inter_energy>  (24) 
-450.99273388546754

>  <intra_energy>  (24) 
19.296696416546887

>  <rmsd>  (24) 
4.06847

>  <sdf_rank>  (24) 
0

$$$$

     RDKit          3D

 33 35  0  0  0  0  0  0  0  0999 V2000
  -18.1793   37.4263   47.0909 N   0  0  0  0  0  0  0  0  0  0  0  0
  -20.0691   33.8224   50.1510 C   0  0  0  0  0  0  0  0  0  0  0  0
  -20.9389   34.3277   49.2067 C   0  0  0  0  0  0  0  0  0  0  0  0
  -20.6573   35.5103   48.5349 C   0  0  0  0  0  0  0  0  0  0  0  0
  -19.4563   36.1928   48.8335 C   0  0  0  0  0  0  0  0  0  0  0  0
  -19.0393   37.4126   48.1061 C   0  0  0  0  0  0  0  0  0  0  0  0
  -18.6117   35.6715   49.8155 C   0  0  0  0  0  0  0  0  0  0  0  0
  -22.1526   35.1353   46.5303 C   0  0  0  0  0  0  0  0  0  0  0  0
  -16.6281   34.8816   51.6938 O   0  0  0  0  0  0  0  0  0  0  0  0
  -22.4298   35.8753   45.2654 C   0  0  0  0  0  0  0  0  0  0  0  0
  -23.2195   36.6017   43.0308 C   0  0  0  0  0  0  0  0  0  0  0  0
  -22.7510   37.5998   43.8106 C   0  0  0  0  0  0  0  0  0  0  0  0
  -19.0634   39.4276   47.3076 N   0  0  0  0  0  0  0  0  0  0  0  0
  -22.2933   37.1746   45.0741 C   0  0  0  0  0  0  0  0  0  0  0  0
  -18.2230   38.6721   46.6373 N   0  0  0  0  0  0  0  0  0  0  0  0
  -20.6235   32.4483   51.0466 Cl  0  0  0  0  0  0  0  0  0  0  0  0
  -19.6068   38.6454   48.2316 N   0  0  0  0  0  0  0  0  0  0  0  0
  -18.8857   34.4874   50.4789 C   0  0  0  0  0  0  0  0  0  0  0  0
  -17.6851   33.8901   51.6419 S   0  0  1  0  0  0  0  0  0  0  0  0
  -17.1179   32.5529   51.0382 N   0  0  0  0  0  0  0  0  0  0  0  0
  -18.4209   33.6538   52.8499 O   0  0  0  0  0  0  0  0  0  0  0  0
  -21.5135   35.9698   47.5286 N   0  0  0  0  0  0  0  0  0  0  0  0
  -23.1115   35.1393   43.8315 S   0  0  0  0  0  0  0  0  0  0  0  0
  -21.8695   33.7858   48.9825 H   0  0  0  0  0  0  0  0  0  0  0  0
  -17.6945   36.2220   50.0716 H   0  0  0  0  0  0  0  0  0  0  0  0
  -23.1040   34.7626   46.9376 H   0  0  0  0  0  0  0  0  0  0  0  0
  -21.4656   34.3096   46.2928 H   0  0  0  0  0  0  0  0  0  0  0  0
  -23.6160   36.7329   42.0131 H   0  0  0  0  0  0  0  0  0  0  0  0
  -22.7285   38.6513   43.4883 H   0  0  0  0  0  0  0  0  0  0  0  0
  -21.8659   37.8559   45.8245 H   0  0  0  0  0  0  0  0  0  0  0  0
  -16.8485   31.9179   51.8031 H   0  0  0  0  0  0  0  0  0  0  0  0
  -17.8411   32.1042   50.4580 H   0  0  0  0  0  0  0  0  0  0  0  0
  -21.7049   36.9812   47.4942 H   0  0  0  0  0  0  0  0  0  0  0  0
  1  6  1  0
  1 15  1  0
  2  3  2  0
  2 16  1  0
  2 18  1  0
  3  4  1  0
  4  5  2  0
  4 22  1  0
  5  6  1  0
  5  7  1  0
  6 17  2  0
  7 18  2  0
  8 10  1  0
  8 22  1  0
  9 19  2  0
 10 14  2  0
 10 23  1  0
 11 12  2  0
 11 23  1  0
 12 14  1  0
 13 15  2  0
 13 17  1  0
 18 19  1  0
 19 20  1  6
 19 21  2  0
  3 24  1  0
  7 25  1  0
  8 26  1  0
  8 27  1  0
 11 28  1  0
 12 29  1  0
 14 30  1  0
 20 31  1  0
 20 32  1  0
 22 33  1  0
M  CHG  1   1  -1
M  END
>  <filename_input>  (25) 
7ZL5_IWE_docked.sdf

>  <pdb_id>  (25) 
7ZL5_IWE

>  <pose_rank>  (25) 
24

>  <num_atoms_heavy>  (25) 
23

>  <num_torsions>  (25) 
5

>  <pose>  (25) 
[-20.069135667923803, 33.82240469061634, 50.15100263605041, 3.8607470538604076, -0.21503509732339326, -0.7746477086177532, 0.9496165140095411, -1.7329214126960257, -0.8372309946231453, 2.3395825892461604, 1.983024942868016]

>  <energy>  (25) 
-329.4892252664667

>  <inter_energy>  (25) 
-333.4567299921659

>  <intra_energy>  (25) 
6.998844029406917

>  <rmsd>  (25) 
7.31503

>  <sdf_rank>  (25) 
0

$$$$

     RDKit          3D

 33 35  0  0  0  0  0  0  0  0999 V2000
  -14.8740   34.7450   45.3570 N   0  0  0  0  0  0  0  0  0  0  0  0
  -18.0170   36.4960   41.7540 C   0  0  0  0  0  0  0  0  0  0  0  0
  -18.4550   36.9960   42.9630 C   0  0  0  0  0  0  0  0  0  0  0  0
  -17.8880   36.5750   44.1590 C   0  0  0  0  0  0  0  0  0  0  0  0
  -16.8460   35.6210   44.1190 C   0  0  0  0  0  0  0  0  0  0  0  0
  -16.1310   35.1810   45.3380 C   0  0  0  0  0  0  0  0  0  0  0  0
  -16.4460   35.1120   42.8820 C   0  0  0  0  0  0  0  0  0  0  0  0
  -19.3970   38.0720   45.5290 C   0  0  0  0  0  0  0  0  0  0  0  0
  -17.2750   33.8610   39.7280 O   0  0  0  0  0  0  0  0  0  0  0  0
  -20.7230   37.3980   45.4200 C   0  0  0  0  0  0  0  0  0  0  0  0
  -22.7950   36.0950   45.8120 C   0  0  0  0  0  0  0  0  0  0  0  0
  -22.8660   36.9620   44.7790 C   0  0  0  0  0  0  0  0  0  0  0  0
  -15.5880   34.9620   47.4250 N   0  0  0  0  0  0  0  0  0  0  0  0
  -21.6790   37.6890   44.5570 C   0  0  0  0  0  0  0  0  0  0  0  0
  -14.5860   34.6220   46.6460 N   0  0  0  0  0  0  0  0  0  0  0  0
  -18.9290   36.9590   40.3570 Cl  0  0  0  0  0  0  0  0  0  0  0  0
  -16.5720   35.3380   46.6180 N   0  0  0  0  0  0  0  0  0  0  0  0
  -17.0030   35.5380   41.6880 C   0  0  0  0  0  0  0  0  0  0  0  0
  -16.3420   34.8750   40.1800 S   0  0  1  0  0  0  0  0  0  0  0  0
  -14.9760   34.1950   40.5620 N   0  0  0  0  0  0  0  0  0  0  0  0
  -16.1460   36.0110   39.3270 O   0  0  0  0  0  0  0  0  0  0  0  0
  -18.2930   37.1460   45.3700 N   0  0  0  0  0  0  0  0  0  0  0  0
  -21.2850   36.1620   46.5240 S   0  0  0  0  0  0  0  0  0  0  0  0
  -19.2656   37.7394   42.9800 H   0  0  0  0  0  0  0  0  0  0  0  0
  -15.6590   34.3439   42.8549 H   0  0  0  0  0  0  0  0  0  0  0  0
  -19.3270   38.8430   44.7475 H   0  0  0  0  0  0  0  0  0  0  0  0
  -19.3250   38.5110   46.5350 H   0  0  0  0  0  0  0  0  0  0  0  0
  -23.6148   35.4381   46.1383 H   0  0  0  0  0  0  0  0  0  0  0  0
  -23.7699   37.0895   44.1653 H   0  0  0  0  0  0  0  0  0  0  0  0
  -21.5611   38.4240   43.7472 H   0  0  0  0  0  0  0  0  0  0  0  0
  -14.8890   34.1517   41.5874 H   0  0  0  0  0  0  0  0  0  0  0  0
  -14.9471   33.2412   40.1744 H   0  0  0  0  0  0  0  0  0  0  0  0
  -17.7649   36.8881   46.2159 H   0  0  0  0  0  0  0  0  0  0  0  0
  1  6  1  0
  1 15  1  0
  2  3  2  0
  2 16  1  0
  2 18  1  0
  3  4  1  0
  4  5  2  0
  4 22  1  0
  5  6  1  0
  5  7  1  0
  6 17  2  0
  7 18  2  0
  8 10  1  0
  8 22  1  0
  9 19  2  0
 10 14  2  0
 10 23  1  0
 11 12  2  0
 11 23  1  0
 12 14  1  0
 13 15  2  0
 13 17  1  0
 18 19  1  0
 19 20  1  1
 19 21  2  0
  3 24  1  0
  7 25  1  0
  8 26  1  0
  8 27  1  0
 11 28  1  0
 12 29  1  0
 14 30  1  0
 20 31  1  0
 20 32  1  0
 22 33  1  0
M  CHG  1   1  -1
M  END
>  <filename_input>  (26) 
7ZL5_IWE_docked.sdf

>  <pdb_id>  (26) 
7ZL5_IWE

>  <pose_rank>  (26) 
25

>  <num_atoms_heavy>  (26) 
23

>  <num_torsions>  (26) 
5

>  <pose>  (26) 
[-18.017, 36.496, 41.754, 1e-06, 1e-06, 1e-06, 0.0, 0.0, 0.0, 0.0, 0.0]

>  <energy>  (26) 
-957.3816260921744

>  <inter_energy>  (26) 
-986.9441178459915

>  <intra_energy>  (26) 
30.257339601747447

>  <rmsd>  (26) 
0.0

>  <sdf_rank>  (26) 
0

$$$$
