
     RDKit          3D

 28 28  0  0  0  0  0  0  0  0999 V2000
   16.4151   10.4541   35.6572 C   0  0  0  0  0  0  0  0  0  0  0  0
   14.6571    8.5436   34.6117 C   0  0  0  0  0  0  0  0  0  0  0  0
   16.9073    9.3007   35.0524 C   0  0  0  0  0  0  0  0  0  0  0  0
   14.2083    6.6031   32.9819 C   0  0  0  0  0  0  0  0  0  0  0  0
   18.0817   14.3742   37.9457 C   0  0  0  0  0  0  0  0  0  0  0  0
   18.3696   13.5854   36.6719 C   0  0  1  0  0  0  0  0  0  0  0  0
   17.1480   12.7750   36.2644 C   0  0  0  0  0  0  0  0  0  0  0  0
   15.0385   10.6291   35.7550 C   0  0  0  0  0  0  0  0  0  0  0  0
   14.1736    9.6842   35.2333 C   0  0  0  0  0  0  0  0  0  0  0  0
   16.0383    8.3591   34.5332 C   0  0  0  0  0  0  0  0  0  0  0  0
   13.7225    7.5349   34.0455 C   0  0  0  0  0  0  0  0  0  0  0  0
   17.3466   11.4377   36.0986 N   0  0  0  0  0  0  0  0  0  0  0  0
   16.0656   13.3459   36.1060 O   0  0  0  0  0  0  0  0  0  0  0  0
   12.5722    7.4550   34.4602 O   0  0  0  0  0  0  0  0  0  0  0  0
   18.9991   14.7005   35.3644 S   0  0  0  0  0  0  0  0  0  0  0  0
   17.9932    9.1377   34.9874 H   0  0  0  0  0  0  0  0  0  0  0  0
   14.6686    5.7204   33.4500 H   0  0  0  0  0  0  0  0  0  0  0  0
   13.3606    6.2864   32.3566 H   0  0  0  0  0  0  0  0  0  0  0  0
   14.9533    7.1169   32.3566 H   0  0  0  0  0  0  0  0  0  0  0  0
   18.3094   13.7504   38.8227 H   0  0  0  0  0  0  0  0  0  0  0  0
   18.7077   15.2785   37.9665 H   0  0  0  0  0  0  0  0  0  0  0  0
   17.0203   14.6626   37.9665 H   0  0  0  0  0  0  0  0  0  0  0  0
   19.1692   12.8522   36.8538 H   0  0  0  0  0  0  0  0  0  0  0  0
   14.6353   11.5247   36.2503 H   0  0  0  0  0  0  0  0  0  0  0  0
   13.0876    9.8400   35.3128 H   0  0  0  0  0  0  0  0  0  0  0  0
   16.4398    7.4546   34.0529 H   0  0  0  0  0  0  0  0  0  0  0  0
   18.2916   11.0933   36.3208 H   0  0  0  0  0  0  0  0  0  0  0  0
   19.6099   15.7823   35.9420 H   0  0  0  0  0  0  0  0  0  0  0  0
  1  3  2  0
  1  8  1  0
  1 12  1  0
  2  9  1  0
  2 10  2  0
  2 11  1  0
  3 10  1  0
  4 11  1  0
  6  5  1  0
  6  7  1  0
  6 15  1  0
  7 12  1  0
  7 13  2  0
  8  9  2  0
 11 14  2  0
  3 16  1  0
  4 17  1  0
  4 18  1  0
  4 19  1  0
  5 20  1  0
  5 21  1  0
  5 22  1  0
  6 23  1  1
  8 24  1  0
  9 25  1  0
 10 26  1  0
 12 27  1  0
 15 28  1  0
M  END
>  <filename_input>  (1) 
7ZOC_T8E_docked.sdf

>  <pdb_id>  (1) 
7ZOC_T8E

>  <pose_rank>  (1) 
0

>  <num_atoms_heavy>  (1) 
15

>  <num_torsions>  (1) 
3

>  <pose>  (1) 
[16.415126092256603, 10.454075748648984, 35.65715584086607, 4.734108769880811, 3.8497620117091342, 0.8900930751051913, -0.17236167612220948, -0.06589688111341453, 0.239517322511762]

>  <energy>  (1) 
-768.6201667186878

>  <inter_energy>  (1) 
-781.8551950003352

>  <intra_energy>  (1) 
13.643402726122462

>  <rmsd>  (1) 
0.307309

>  <sdf_rank>  (1) 
0

$$$$

     RDKit          3D

 28 28  0  0  0  0  0  0  0  0999 V2000
   15.8446   10.5952   35.1865 C   0  0  0  0  0  0  0  0  0  0  0  0
   17.2063   12.6408   36.5262 C   0  0  0  0  0  0  0  0  0  0  0  0
   17.1992   10.4643   35.4804 C   0  0  0  0  0  0  0  0  0  0  0  0
   18.4382   14.8999   36.4821 C   0  0  0  0  0  0  0  0  0  0  0  0
   14.8220    7.2719   33.0311 C   0  0  0  0  0  0  0  0  0  0  0  0
   13.9366    7.4065   34.2664 C   0  0  1  0  0  0  0  0  0  0  0  0
   14.4717    8.4957   35.1842 C   0  0  0  0  0  0  0  0  0  0  0  0
   15.1866   11.7668   35.5469 C   0  0  0  0  0  0  0  0  0  0  0  0
   15.8627   12.7733   36.2123 C   0  0  0  0  0  0  0  0  0  0  0  0
   17.8702   11.4738   36.1452 C   0  0  0  0  0  0  0  0  0  0  0  0
   17.9261   13.7230   37.2490 C   0  0  0  0  0  0  0  0  0  0  0  0
   15.1738    9.4943   34.5798 N   0  0  0  0  0  0  0  0  0  0  0  0
   14.2544    8.4290   36.3970 O   0  0  0  0  0  0  0  0  0  0  0  0
   18.0805   13.6604   38.4629 O   0  0  0  0  0  0  0  0  0  0  0  0
   12.1894    7.6346   33.7722 S   0  0  0  0  0  0  0  0  0  0  0  0
   17.7383    9.5531   35.1820 H   0  0  0  0  0  0  0  0  0  0  0  0
   18.7760   15.6763   37.1843 H   0  0  0  0  0  0  0  0  0  0  0  0
   19.2812   14.5863   35.8489 H   0  0  0  0  0  0  0  0  0  0  0  0
   17.6341   15.3030   35.8489 H   0  0  0  0  0  0  0  0  0  0  0  0
   15.8649    7.1135   33.3430 H   0  0  0  0  0  0  0  0  0  0  0  0
   14.4847    6.4147   32.4299 H   0  0  0  0  0  0  0  0  0  0  0  0
   14.7546    8.1906   32.4299 H   0  0  0  0  0  0  0  0  0  0  0  0
   13.9648    6.4775   34.8548 H   0  0  0  0  0  0  0  0  0  0  0  0
   14.1220   11.8934   35.3011 H   0  0  0  0  0  0  0  0  0  0  0  0
   15.3270   13.6911   36.4963 H   0  0  0  0  0  0  0  0  0  0  0  0
   18.9392   11.3560   36.3764 H   0  0  0  0  0  0  0  0  0  0  0  0
   15.2265    9.4476   33.5522 H   0  0  0  0  0  0  0  0  0  0  0  0
   11.4075    7.7368   34.8925 H   0  0  0  0  0  0  0  0  0  0  0  0
  1  3  2  0
  1  8  1  0
  1 12  1  0
  2  9  1  0
  2 10  2  0
  2 11  1  0
  3 10  1  0
  4 11  1  0
  6  5  1  0
  6  7  1  0
  6 15  1  0
  7 12  1  0
  7 13  2  0
  8  9  2  0
 11 14  2  0
  3 16  1  0
  4 17  1  0
  4 18  1  0
  4 19  1  0
  5 20  1  0
  5 21  1  0
  5 22  1  0
  6 23  1  1
  8 24  1  0
  9 25  1  0
 10 26  1  0
 12 27  1  0
 15 28  1  0
M  END
>  <filename_input>  (2) 
7ZOC_T8E_docked.sdf

>  <pdb_id>  (2) 
7ZOC_T8E

>  <pose_rank>  (2) 
1

>  <num_atoms_heavy>  (2) 
15

>  <num_torsions>  (2) 
3

>  <pose>  (2) 
[15.844615165658988, 10.59517037371413, 35.18651238383602, -2.524937398294448, 1.6387076935140048, 0.6674268139392447, 1.9273685801705862, -7.411022258814722, -3.3765918091523393]

>  <energy>  (2) 
-549.8063895798426

>  <inter_energy>  (2) 
-531.5575084307308

>  <intra_energy>  (2) 
0.030274409168726764

>  <rmsd>  (2) 
6.44217

>  <sdf_rank>  (2) 
0

$$$$

     RDKit          3D

 28 28  0  0  0  0  0  0  0  0999 V2000
   15.9780   10.6900   35.4161 C   0  0  0  0  0  0  0  0  0  0  0  0
   14.5930    8.4381   34.4974 C   0  0  0  0  0  0  0  0  0  0  0  0
   16.6727    9.5582   34.9984 C   0  0  0  0  0  0  0  0  0  0  0  0
   12.3674    7.3045   33.8768 C   0  0  0  0  0  0  0  0  0  0  0  0
   16.6509   15.1805   36.7430 C   0  0  0  0  0  0  0  0  0  0  0  0
   17.4348   13.8862   36.9383 C   0  0  1  0  0  0  0  0  0  0  0  0
   16.5051   12.6855   36.8419 C   0  0  0  0  0  0  0  0  0  0  0  0
   14.5871   10.6743   35.3927 C   0  0  0  0  0  0  0  0  0  0  0  0
   13.9070    9.5607   34.9341 C   0  0  0  0  0  0  0  0  0  0  0  0
   15.9878    8.4475   34.5415 C   0  0  0  0  0  0  0  0  0  0  0  0
   13.8566    7.2466   33.9978 C   0  0  0  0  0  0  0  0  0  0  0  0
   16.7257   11.8421   35.7952 N   0  0  0  0  0  0  0  0  0  0  0  0
   15.6198   12.5333   37.6878 O   0  0  0  0  0  0  0  0  0  0  0  0
   14.4654    6.2350   33.6699 O   0  0  0  0  0  0  0  0  0  0  0  0
   18.8571   13.8268   35.7883 S   0  0  0  0  0  0  0  0  0  0  0  0
   17.7721    9.5475   35.0320 H   0  0  0  0  0  0  0  0  0  0  0  0
   11.9184    7.3220   34.8808 H   0  0  0  0  0  0  0  0  0  0  0  0
   12.0791    8.2146   33.3303 H   0  0  0  0  0  0  0  0  0  0  0  0
   12.0092    6.4196   33.3303 H   0  0  0  0  0  0  0  0  0  0  0  0
   16.3938   15.6052   37.7246 H   0  0  0  0  0  0  0  0  0  0  0  0
   17.2652   15.9001   36.1818 H   0  0  0  0  0  0  0  0  0  0  0  0
   15.7287   14.9696   36.1818 H   0  0  0  0  0  0  0  0  0  0  0  0
   17.8639   13.8531   37.9507 H   0  0  0  0  0  0  0  0  0  0  0  0
   14.0246   11.5531   35.7410 H   0  0  0  0  0  0  0  0  0  0  0  0
   12.8072    9.5659   34.9156 H   0  0  0  0  0  0  0  0  0  0  0  0
   16.5485    7.5614   34.2090 H   0  0  0  0  0  0  0  0  0  0  0  0
   17.5371   12.0659   35.2016 H   0  0  0  0  0  0  0  0  0  0  0  0
   20.0230   13.7781   36.5060 H   0  0  0  0  0  0  0  0  0  0  0  0
  1  3  2  0
  1  8  1  0
  1 12  1  0
  2  9  1  0
  2 10  2  0
  2 11  1  0
  3 10  1  0
  4 11  1  0
  6  5  1  0
  6  7  1  0
  6 15  1  0
  7 12  1  0
  7 13  2  0
  8  9  2  0
 11 14  2  0
  3 16  1  0
  4 17  1  0
  4 18  1  0
  4 19  1  0
  5 20  1  0
  5 21  1  0
  5 22  1  0
  6 23  1  1
  8 24  1  0
  9 25  1  0
 10 26  1  0
 12 27  1  0
 15 28  1  0
M  END
>  <filename_input>  (3) 
7ZOC_T8E_docked.sdf

>  <pdb_id>  (3) 
7ZOC_T8E

>  <pose_rank>  (3) 
2

>  <num_atoms_heavy>  (3) 
15

>  <num_torsions>  (3) 
3

>  <pose>  (3) 
[15.977968181851535, 10.690035488253935, 35.41614247642959, 4.257411763675167, 3.3320739751143083, -2.589670651505675, 3.429348680179709, 7.37977719402022, -1.8512442493459438]

>  <energy>  (3) 
-652.3028422760101

>  <inter_energy>  (3) 
-653.5561580295802

>  <intra_energy>  (3) 
6.6566978822076885

>  <rmsd>  (3) 
1.29332

>  <sdf_rank>  (3) 
0

$$$$

     RDKit          3D

 28 28  0  0  0  0  0  0  0  0999 V2000
   16.3934   10.4756   35.7425 C   0  0  0  0  0  0  0  0  0  0  0  0
   14.5894    8.6375   34.6469 C   0  0  0  0  0  0  0  0  0  0  0  0
   16.8557    9.3922   35.0003 C   0  0  0  0  0  0  0  0  0  0  0  0
   12.2467    7.5726   34.6155 C   0  0  0  0  0  0  0  0  0  0  0  0
   19.2301   14.0114   35.5766 C   0  0  0  0  0  0  0  0  0  0  0  0
   18.4226   13.5494   36.7859 C   0  0  1  0  0  0  0  0  0  0  0  0
   17.1901   12.7791   36.3356 C   0  0  0  0  0  0  0  0  0  0  0  0
   15.0250   10.6154   35.9507 C   0  0  0  0  0  0  0  0  0  0  0  0
   14.1370    9.7068   35.4040 C   0  0  0  0  0  0  0  0  0  0  0  0
   15.9637    8.4866   34.4566 C   0  0  0  0  0  0  0  0  0  0  0  0
   13.6294    7.6681   34.0548 C   0  0  0  0  0  0  0  0  0  0  0  0
   17.3417   11.4313   36.2085 N   0  0  0  0  0  0  0  0  0  0  0  0
   16.1411   13.3888   36.1112 O   0  0  0  0  0  0  0  0  0  0  0  0
   13.9618    6.9693   33.1047 O   0  0  0  0  0  0  0  0  0  0  0  0
   19.4949   12.6324   37.9513 S   0  0  0  0  0  0  0  0  0  0  0  0
   17.9362    9.2560   34.8458 H   0  0  0  0  0  0  0  0  0  0  0  0
   12.2955    7.5760   35.7144 H   0  0  0  0  0  0  0  0  0  0  0  0
   11.6517    8.4318   34.2722 H   0  0  0  0  0  0  0  0  0  0  0  0
   11.7754    6.6398   34.2722 H   0  0  0  0  0  0  0  0  0  0  0  0
   20.1376   14.5306   35.9183 H   0  0  0  0  0  0  0  0  0  0  0  0
   19.5134   13.1388   34.9698 H   0  0  0  0  0  0  0  0  0  0  0  0
   18.6214   14.6979   34.9698 H   0  0  0  0  0  0  0  0  0  0  0  0
   18.0457   14.4194   37.3436 H   0  0  0  0  0  0  0  0  0  0  0  0
   14.6468   11.4539   36.5540 H   0  0  0  0  0  0  0  0  0  0  0  0
   13.0575    9.8345   35.5722 H   0  0  0  0  0  0  0  0  0  0  0  0
   16.3413    7.6378   33.8676 H   0  0  0  0  0  0  0  0  0  0  0  0
   18.2597   11.0549   36.4848 H   0  0  0  0  0  0  0  0  0  0  0  0
   19.1374   12.9382   39.2380 H   0  0  0  0  0  0  0  0  0  0  0  0
  1  3  2  0
  1  8  1  0
  1 12  1  0
  2  9  1  0
  2 10  2  0
  2 11  1  0
  3 10  1  0
  4 11  1  0
  6  5  1  0
  6  7  1  0
  6 15  1  0
  7 12  1  0
  7 13  2  0
  8  9  2  0
 11 14  2  0
  3 16  1  0
  4 17  1  0
  4 18  1  0
  4 19  1  0
  5 20  1  0
  5 21  1  0
  5 22  1  0
  6 23  1  1
  8 24  1  0
  9 25  1  0
 10 26  1  0
 12 27  1  0
 15 28  1  0
M  END
>  <filename_input>  (4) 
7ZOC_T8E_docked.sdf

>  <pdb_id>  (4) 
7ZOC_T8E

>  <pose_rank>  (4) 
3

>  <num_atoms_heavy>  (4) 
15

>  <num_torsions>  (4) 
3

>  <pose>  (4) 
[16.393372036919192, 10.475596817205249, 35.742455110521995, 4.226183033786471, -4.000799067944169, -2.381660042875525, 3.010006411638146, 6.042386185085674, -2.2725111176441875]

>  <energy>  (4) 
-670.7042726600049

>  <inter_energy>  (4) 
-679.8915259017842

>  <intra_energy>  (4) 
11.022030910752745

>  <rmsd>  (4) 
1.3988

>  <sdf_rank>  (4) 
0

$$$$

     RDKit          3D

 28 28  0  0  0  0  0  0  0  0999 V2000
   17.7971   13.3452   37.1116 C   0  0  0  0  0  0  0  0  0  0  0  0
   16.1246   11.1808   36.5188 C   0  0  0  0  0  0  0  0  0  0  0  0
   18.3043   12.2186   36.4699 C   0  0  0  0  0  0  0  0  0  0  0  0
   14.5850    9.2741   37.3046 C   0  0  0  0  0  0  0  0  0  0  0  0
   21.1173   16.8573   35.8059 C   0  0  0  0  0  0  0  0  0  0  0  0
   20.3049   16.2322   36.9360 C   0  0  1  0  0  0  0  0  0  0  0  0
   19.4018   15.1345   36.3933 C   0  0  0  0  0  0  0  0  0  0  0  0
   16.4542   13.3671   37.4745 C   0  0  0  0  0  0  0  0  0  0  0  0
   15.6306   12.2969   37.1758 C   0  0  0  0  0  0  0  0  0  0  0  0
   17.4767   11.1513   36.1744 C   0  0  0  0  0  0  0  0  0  0  0  0
   15.2324   10.0363   36.1931 C   0  0  0  0  0  0  0  0  0  0  0  0
   18.6652   14.4562   37.3168 N   0  0  0  0  0  0  0  0  0  0  0  0
   19.3773   14.9128   35.1798 O   0  0  0  0  0  0  0  0  0  0  0  0
   15.0145    9.7337   35.0259 O   0  0  0  0  0  0  0  0  0  0  0  0
   21.4126   15.6907   38.2885 S   0  0  0  0  0  0  0  0  0  0  0  0
   19.3690   12.1775   36.1966 H   0  0  0  0  0  0  0  0  0  0  0  0
   14.9253    9.6748   38.2708 H   0  0  0  0  0  0  0  0  0  0  0  0
   13.4921    9.3749   37.2303 H   0  0  0  0  0  0  0  0  0  0  0  0
   14.8612    8.2120   37.2303 H   0  0  0  0  0  0  0  0  0  0  0  0
   21.9213   17.4760   36.2311 H   0  0  0  0  0  0  0  0  0  0  0  0
   21.5559   16.0615   35.1859 H   0  0  0  0  0  0  0  0  0  0  0  0
   20.4604   17.4851   35.1859 H   0  0  0  0  0  0  0  0  0  0  0  0
   19.6331   16.9824   37.3785 H   0  0  0  0  0  0  0  0  0  0  0  0
   16.0449   14.2412   38.0022 H   0  0  0  0  0  0  0  0  0  0  0  0
   14.5695   12.3318   37.4636 H   0  0  0  0  0  0  0  0  0  0  0  0
   17.8884   10.2693   35.6621 H   0  0  0  0  0  0  0  0  0  0  0  0
   18.7462   14.7892   38.2881 H   0  0  0  0  0  0  0  0  0  0  0  0
   20.8314   15.9748   39.4961 H   0  0  0  0  0  0  0  0  0  0  0  0
  1  3  2  0
  1  8  1  0
  1 12  1  0
  2  9  1  0
  2 10  2  0
  2 11  1  0
  3 10  1  0
  4 11  1  0
  6  5  1  0
  6  7  1  0
  6 15  1  0
  7 12  1  0
  7 13  2  0
  8  9  2  0
 11 14  2  0
  3 16  1  0
  4 17  1  0
  4 18  1  0
  4 19  1  0
  5 20  1  0
  5 21  1  0
  5 22  1  0
  6 23  1  1
  8 24  1  0
  9 25  1  0
 10 26  1  0
 12 27  1  0
 15 28  1  0
M  END
>  <filename_input>  (5) 
7ZOC_T8E_docked.sdf

>  <pdb_id>  (5) 
7ZOC_T8E

>  <pose_rank>  (5) 
4

>  <num_atoms_heavy>  (5) 
15

>  <num_torsions>  (5) 
3

>  <pose>  (5) 
[17.797071464034758, 13.345214123590239, 37.11163005976841, 3.9268201706978916, -3.324184194411484, -3.213056778944458, 2.260585737012632, 4.470747811588021, -0.7676284864766011]

>  <energy>  (5) 
-352.0508331363879

>  <inter_energy>  (5) 
-356.4909737809859

>  <intra_energy>  (5) 
5.444495551860658

>  <rmsd>  (5) 
3.66866

>  <sdf_rank>  (5) 
0

$$$$

     RDKit          3D

 28 28  0  0  0  0  0  0  0  0999 V2000
   13.3060    8.7057   37.6319 C   0  0  0  0  0  0  0  0  0  0  0  0
   12.5271    8.7840   40.3190 C   0  0  0  0  0  0  0  0  0  0  0  0
   14.0634    9.4094   38.5642 C   0  0  0  0  0  0  0  0  0  0  0  0
   12.6086    9.9228   42.6255 C   0  0  0  0  0  0  0  0  0  0  0  0
   13.7525    6.8059   33.2204 C   0  0  0  0  0  0  0  0  0  0  0  0
   13.9275    8.1638   33.8936 C   0  0  1  0  0  0  0  0  0  0  0  0
   13.1129    8.2265   35.1771 C   0  0  0  0  0  0  0  0  0  0  0  0
   12.1452    8.0643   38.0523 C   0  0  0  0  0  0  0  0  0  0  0  0
   11.7664    8.1024   39.3819 C   0  0  0  0  0  0  0  0  0  0  0  0
   13.6798    9.4448   39.8920 C   0  0  0  0  0  0  0  0  0  0  0  0
   12.1192    8.8149   41.7488 C   0  0  0  0  0  0  0  0  0  0  0  0
   13.7862    8.6227   36.2930 N   0  0  0  0  0  0  0  0  0  0  0  0
   11.9168    7.9246   35.1527 O   0  0  0  0  0  0  0  0  0  0  0  0
   11.3739    7.9526   42.1988 O   0  0  0  0  0  0  0  0  0  0  0  0
   15.7054    8.5367   34.1156 S   0  0  0  0  0  0  0  0  0  0  0  0
   14.9718    9.9400   38.2428 H   0  0  0  0  0  0  0  0  0  0  0  0
   12.4829    9.6382   43.6806 H   0  0  0  0  0  0  0  0  0  0  0  0
   13.6731   10.1096   42.4204 H   0  0  0  0  0  0  0  0  0  0  0  0
   12.0300   10.8355   42.4204 H   0  0  0  0  0  0  0  0  0  0  0  0
   13.6519    6.0257   33.9893 H   0  0  0  0  0  0  0  0  0  0  0  0
   12.8489    6.8213   32.5933 H   0  0  0  0  0  0  0  0  0  0  0  0
   14.6304    6.5916   32.5933 H   0  0  0  0  0  0  0  0  0  0  0  0
   13.5308    8.9604   33.2469 H   0  0  0  0  0  0  0  0  0  0  0  0
   11.5248    7.5234   37.3225 H   0  0  0  0  0  0  0  0  0  0  0  0
   10.8493    7.5849   39.7000 H   0  0  0  0  0  0  0  0  0  0  0  0
   14.2899    9.9998   40.6199 H   0  0  0  0  0  0  0  0  0  0  0  0
   14.7685    8.8976   36.1506 H   0  0  0  0  0  0  0  0  0  0  0  0
   15.9957    8.5976   35.4531 H   0  0  0  0  0  0  0  0  0  0  0  0
  1  3  2  0
  1  8  1  0
  1 12  1  0
  2  9  1  0
  2 10  2  0
  2 11  1  0
  3 10  1  0
  4 11  1  0
  6  5  1  0
  6  7  1  0
  6 15  1  0
  7 12  1  0
  7 13  2  0
  8  9  2  0
 11 14  2  0
  3 16  1  0
  4 17  1  0
  4 18  1  0
  4 19  1  0
  5 20  1  0
  5 21  1  0
  5 22  1  0
  6 23  1  6
  8 24  1  0
  9 25  1  0
 10 26  1  0
 12 27  1  0
 15 28  1  0
M  END
>  <filename_input>  (6) 
7ZOC_T8E_docked.sdf

>  <pdb_id>  (6) 
7ZOC_T8E

>  <pose_rank>  (6) 
5

>  <num_atoms_heavy>  (6) 
15

>  <num_torsions>  (6) 
3

>  <pose>  (6) 
[13.305980032079887, 8.705658441944177, 37.631874845994695, 3.5078269374465902, 0.5965452031139686, -1.2577939184264846, 0.6114338249556456, 0.6228675833845884, -1.6176427004416323]

>  <energy>  (6) 
-308.19699198720787

>  <inter_energy>  (6) 
-314.7194185341577

>  <intra_energy>  (6) 
14.203370781440182

>  <rmsd>  (6) 
6.92444

>  <sdf_rank>  (6) 
0

$$$$

     RDKit          3D

 28 28  0  0  0  0  0  0  0  0999 V2000
   19.0722   14.2906   38.4991 C   0  0  0  0  0  0  0  0  0  0  0  0
   18.9863   12.4543   40.6096 C   0  0  0  0  0  0  0  0  0  0  0  0
   20.2256   13.6190   38.8955 C   0  0  0  0  0  0  0  0  0  0  0  0
   17.7335   11.4266   42.6090 C   0  0  0  0  0  0  0  0  0  0  0  0
   20.8087   15.9264   34.3404 C   0  0  0  0  0  0  0  0  0  0  0  0
   19.4800   15.9804   35.0884 C   0  0  1  0  0  0  0  0  0  0  0  0
   19.3760   14.8189   36.0658 C   0  0  0  0  0  0  0  0  0  0  0  0
   17.8847   14.0528   39.1837 C   0  0  0  0  0  0  0  0  0  0  0  0
   17.8461   13.1415   40.2234 C   0  0  0  0  0  0  0  0  0  0  0  0
   20.1815   12.7095   39.9358 C   0  0  0  0  0  0  0  0  0  0  0  0
   18.9371   11.4696   41.7230 C   0  0  0  0  0  0  0  0  0  0  0  0
   19.1453   15.1517   37.3664 N   0  0  0  0  0  0  0  0  0  0  0  0
   19.5022   13.6635   35.6516 O   0  0  0  0  0  0  0  0  0  0  0  0
   19.8644   10.6884   41.9002 O   0  0  0  0  0  0  0  0  0  0  0  0
   19.2501   17.6267   35.8540 S   0  0  0  0  0  0  0  0  0  0  0  0
   21.1768   13.8130   38.3782 H   0  0  0  0  0  0  0  0  0  0  0  0
   18.0525   11.4380   43.6617 H   0  0  0  0  0  0  0  0  0  0  0  0
   17.0993   12.3027   42.4086 H   0  0  0  0  0  0  0  0  0  0  0  0
   17.1633   10.5075   42.4086 H   0  0  0  0  0  0  0  0  0  0  0  0
   21.6361   15.8928   35.0646 H   0  0  0  0  0  0  0  0  0  0  0  0
   20.8376   15.0264   33.7087 H   0  0  0  0  0  0  0  0  0  0  0  0
   20.9105   16.8212   33.7087 H   0  0  0  0  0  0  0  0  0  0  0  0
   18.6443   15.8559   34.3841 H   0  0  0  0  0  0  0  0  0  0  0  0
   16.9706   14.5929   38.8963 H   0  0  0  0  0  0  0  0  0  0  0  0
   16.8981   12.9596   40.7509 H   0  0  0  0  0  0  0  0  0  0  0  0
   21.0986   12.1814   40.2358 H   0  0  0  0  0  0  0  0  0  0  0  0
   19.0057   16.1546   37.5552 H   0  0  0  0  0  0  0  0  0  0  0  0
   19.2674   17.5023   37.2183 H   0  0  0  0  0  0  0  0  0  0  0  0
  1  3  2  0
  1  8  1  0
  1 12  1  0
  2  9  1  0
  2 10  2  0
  2 11  1  0
  3 10  1  0
  4 11  1  0
  6  5  1  0
  6  7  1  0
  6 15  1  0
  7 12  1  0
  7 13  2  0
  8  9  2  0
 11 14  2  0
  3 16  1  0
  4 17  1  0
  4 18  1  0
  4 19  1  0
  5 20  1  0
  5 21  1  0
  5 22  1  0
  6 23  1  6
  8 24  1  0
  9 25  1  0
 10 26  1  0
 12 27  1  0
 15 28  1  0
M  END
>  <filename_input>  (7) 
7ZOC_T8E_docked.sdf

>  <pdb_id>  (7) 
7ZOC_T8E

>  <pose_rank>  (7) 
6

>  <num_atoms_heavy>  (7) 
15

>  <num_torsions>  (7) 
3

>  <pose>  (7) 
[19.07222059774225, 14.290566340934944, 38.49914302488409, -1.2804020615060152, 0.25023012154734486, 0.687962121114585, 3.1321487824763605, 4.671723292823384, -1.6952958227187727]

>  <energy>  (7) 
-308.8686389662598

>  <inter_energy>  (7) 
-302.5876688436796

>  <intra_energy>  (7) 
2.288513337815743

>  <rmsd>  (7) 
6.881

>  <sdf_rank>  (7) 
0

$$$$

     RDKit          3D

 28 28  0  0  0  0  0  0  0  0999 V2000
   18.9330   14.0744   37.5943 C   0  0  0  0  0  0  0  0  0  0  0  0
   17.6522   11.6241   38.0292 C   0  0  0  0  0  0  0  0  0  0  0  0
   19.5883   12.8782   37.3152 C   0  0  0  0  0  0  0  0  0  0  0  0
   15.7230   10.2822   39.0782 C   0  0  0  0  0  0  0  0  0  0  0  0
   21.3819   17.1815   34.8064 C   0  0  0  0  0  0  0  0  0  0  0  0
   20.4823   17.2102   36.0384 C   0  0  1  0  0  0  0  0  0  0  0  0
   19.6145   15.9614   36.0886 C   0  0  0  0  0  0  0  0  0  0  0  0
   17.6435   14.0313   38.1147 C   0  0  0  0  0  0  0  0  0  0  0  0
   17.0131   12.8182   38.3243 C   0  0  0  0  0  0  0  0  0  0  0  0
   18.9536   11.6683   37.5271 C   0  0  0  0  0  0  0  0  0  0  0  0
   16.9665   10.3229   38.2490 C   0  0  0  0  0  0  0  0  0  0  0  0
   19.5918   15.2974   37.2777 N   0  0  0  0  0  0  0  0  0  0  0  0
   18.9901   15.6149   35.0823 O   0  0  0  0  0  0  0  0  0  0  0  0
   17.4047    9.2982   37.7396 O   0  0  0  0  0  0  0  0  0  0  0  0
   21.4812   17.4895   37.5462 S   0  0  0  0  0  0  0  0  0  0  0  0
   20.6162   12.8957   36.9241 H   0  0  0  0  0  0  0  0  0  0  0  0
   15.9929   10.2910   40.1445 H   0  0  0  0  0  0  0  0  0  0  0  0
   15.1012   11.1604   38.8500 H   0  0  0  0  0  0  0  0  0  0  0  0
   15.1600    9.3651   38.8500 H   0  0  0  0  0  0  0  0  0  0  0  0
   22.4351   17.1478   35.1221 H   0  0  0  0  0  0  0  0  0  0  0  0
   21.1509   16.2902   34.2044 H   0  0  0  0  0  0  0  0  0  0  0  0
   21.2083   18.0856   34.2044 H   0  0  0  0  0  0  0  0  0  0  0  0
   19.7847   18.0585   35.9774 H   0  0  0  0  0  0  0  0  0  0  0  0
   17.1220   14.9679   38.3612 H   0  0  0  0  0  0  0  0  0  0  0  0
   15.9910   12.8007   38.7304 H   0  0  0  0  0  0  0  0  0  0  0  0
   19.4803   10.7303   37.2975 H   0  0  0  0  0  0  0  0  0  0  0  0
   20.1184   15.7357   38.0467 H   0  0  0  0  0  0  0  0  0  0  0  0
   20.7056   17.2726   38.6544 H   0  0  0  0  0  0  0  0  0  0  0  0
  1  3  2  0
  1  8  1  0
  1 12  1  0
  2  9  1  0
  2 10  2  0
  2 11  1  0
  3 10  1  0
  4 11  1  0
  6  5  1  0
  6  7  1  0
  6 15  1  0
  7 12  1  0
  7 13  2  0
  8  9  2  0
 11 14  2  0
  3 16  1  0
  4 17  1  0
  4 18  1  0
  4 19  1  0
  5 20  1  0
  5 21  1  0
  5 22  1  0
  6 23  1  6
  8 24  1  0
  9 25  1  0
 10 26  1  0
 12 27  1  0
 15 28  1  0
M  END
>  <filename_input>  (8) 
7ZOC_T8E_docked.sdf

>  <pdb_id>  (8) 
7ZOC_T8E

>  <pose_rank>  (8) 
7

>  <num_atoms_heavy>  (8) 
15

>  <num_torsions>  (8) 
3

>  <pose>  (8) 
[18.93295788811238, 14.074412483365055, 37.594289750912274, -0.5096584737366341, 0.2426888215042422, 0.27229798454199383, 3.1048896998390183, 5.006017720237814, -1.5735401623480392]

>  <energy>  (8) 
-303.3903728973443

>  <inter_energy>  (8) 
-301.3567565277417

>  <intra_energy>  (8) 
0.00931169028832029

>  <rmsd>  (8) 
5.11653

>  <sdf_rank>  (8) 
0

$$$$

     RDKit          3D

 28 28  0  0  0  0  0  0  0  0999 V2000
   18.0788   12.5311   39.9204 C   0  0  0  0  0  0  0  0  0  0  0  0
   19.3452   14.1519   38.0223 C   0  0  0  0  0  0  0  0  0  0  0  0
   19.4105   12.3086   39.5808 C   0  0  0  0  0  0  0  0  0  0  0  0
   19.9493   14.6619   35.5732 C   0  0  0  0  0  0  0  0  0  0  0  0
   15.8812   10.1173   42.3491 C   0  0  0  0  0  0  0  0  0  0  0  0
   17.0316   10.7376   43.1362 C   0  0  1  0  0  0  0  0  0  0  0  0
   17.7495   11.7792   42.2908 C   0  0  0  0  0  0  0  0  0  0  0  0
   17.3826   13.5539   39.2844 C   0  0  0  0  0  0  0  0  0  0  0  0
   18.0137   14.3549   38.3500 C   0  0  0  0  0  0  0  0  0  0  0  0
   20.0363   13.1119   38.6456 C   0  0  0  0  0  0  0  0  0  0  0  0
   20.0208   15.0214   37.0227 C   0  0  0  0  0  0  0  0  0  0  0  0
   17.5011   11.7363   40.9522 N   0  0  0  0  0  0  0  0  0  0  0  0
   18.5021   12.5906   42.8365 O   0  0  0  0  0  0  0  0  0  0  0  0
   20.6130   16.0324   37.3813 O   0  0  0  0  0  0  0  0  0  0  0  0
   16.4317   11.3644   44.7476 S   0  0  0  0  0  0  0  0  0  0  0  0
   19.9677   11.4895   40.0590 H   0  0  0  0  0  0  0  0  0  0  0  0
   19.7354   13.5877   35.4720 H   0  0  0  0  0  0  0  0  0  0  0  0
   19.1490   15.2422   35.0906 H   0  0  0  0  0  0  0  0  0  0  0  0
   20.9107   14.8914   35.0906 H   0  0  0  0  0  0  0  0  0  0  0  0
   15.1337    9.7143   43.0483 H   0  0  0  0  0  0  0  0  0  0  0  0
   15.4139   10.8857   41.7157 H   0  0  0  0  0  0  0  0  0  0  0  0
   16.2664    9.3046   41.7157 H   0  0  0  0  0  0  0  0  0  0  0  0
   17.7847    9.9713   43.3721 H   0  0  0  0  0  0  0  0  0  0  0  0
   16.3236   13.7268   39.5262 H   0  0  0  0  0  0  0  0  0  0  0  0
   17.4516   15.1637   37.8603 H   0  0  0  0  0  0  0  0  0  0  0  0
   21.0905   12.9293   38.3900 H   0  0  0  0  0  0  0  0  0  0  0  0
   16.8065   11.0399   40.6467 H   0  0  0  0  0  0  0  0  0  0  0  0
   17.0683   10.6992   45.7620 H   0  0  0  0  0  0  0  0  0  0  0  0
  1  3  2  0
  1  8  1  0
  1 12  1  0
  2  9  1  0
  2 10  2  0
  2 11  1  0
  3 10  1  0
  4 11  1  0
  6  5  1  0
  6  7  1  0
  6 15  1  0
  7 12  1  0
  7 13  2  0
  8  9  2  0
 11 14  2  0
  3 16  1  0
  4 17  1  0
  4 18  1  0
  4 19  1  0
  5 20  1  0
  5 21  1  0
  5 22  1  0
  6 23  1  1
  8 24  1  0
  9 25  1  0
 10 26  1  0
 12 27  1  0
 15 28  1  0
M  END
>  <filename_input>  (9) 
7ZOC_T8E_docked.sdf

>  <pdb_id>  (9) 
7ZOC_T8E

>  <pose_rank>  (9) 
8

>  <num_atoms_heavy>  (9) 
15

>  <num_torsions>  (9) 
3

>  <pose>  (9) 
[18.078817803280362, 12.531060658922993, 39.92040603943992, 1.4511519288690058, -1.3452540067781729, -0.25406161747150724, 1.8232304718618728, 4.7600362301833785, -4.1418247629754426]

>  <energy>  (9) 
-288.31458999255744

>  <inter_energy>  (9) 
-291.1518113021769

>  <intra_energy>  (9) 
1.2998008322463304

>  <rmsd>  (9) 
7.71324

>  <sdf_rank>  (9) 
0

$$$$

     RDKit          3D

 28 28  0  0  0  0  0  0  0  0999 V2000
   16.2100   11.1678   35.8188 C   0  0  0  0  0  0  0  0  0  0  0  0
   14.4341    9.1423   35.0590 C   0  0  0  0  0  0  0  0  0  0  0  0
   16.6505   10.1005   35.0409 C   0  0  0  0  0  0  0  0  0  0  0  0
   12.1866    7.9276   35.3687 C   0  0  0  0  0  0  0  0  0  0  0  0
   18.3399   14.2990   38.2005 C   0  0  0  0  0  0  0  0  0  0  0  0
   18.9811   13.4901   37.0768 C   0  0  1  0  0  0  0  0  0  0  0  0
   18.2450   12.1719   36.8879 C   0  0  0  0  0  0  0  0  0  0  0  0
   14.8818   11.1980   36.2318 C   0  0  0  0  0  0  0  0  0  0  0  0
   14.0069   10.1970   35.8505 C   0  0  0  0  0  0  0  0  0  0  0  0
   15.7718    9.1022   34.6631 C   0  0  0  0  0  0  0  0  0  0  0  0
   13.4870    8.0729   34.6454 C   0  0  0  0  0  0  0  0  0  0  0  0
   17.1278   12.2179   36.1099 N   0  0  0  0  0  0  0  0  0  0  0  0
   18.6772   11.1517   37.4309 O   0  0  0  0  0  0  0  0  0  0  0  0
   13.7608    7.3315   33.7090 O   0  0  0  0  0  0  0  0  0  0  0  0
   19.1054   14.5031   35.5578 S   0  0  0  0  0  0  0  0  0  0  0  0
   17.7031   10.0513   34.7251 H   0  0  0  0  0  0  0  0  0  0  0  0
   12.3662    7.9477   36.4538 H   0  0  0  0  0  0  0  0  0  0  0  0
   11.5186    8.7567   35.0923 H   0  0  0  0  0  0  0  0  0  0  0  0
   11.7181    6.9715   35.0923 H   0  0  0  0  0  0  0  0  0  0  0  0
   18.6603   13.8948   39.1721 H   0  0  0  0  0  0  0  0  0  0  0  0
   18.6525   15.3505   38.1197 H   0  0  0  0  0  0  0  0  0  0  0  0
   17.2448   14.2348   38.1197 H   0  0  0  0  0  0  0  0  0  0  0  0
   20.0134   13.2217   37.3457 H   0  0  0  0  0  0  0  0  0  0  0  0
   14.5253   12.0234   36.8655 H   0  0  0  0  0  0  0  0  0  0  0  0
   12.9582   10.2383   36.1798 H   0  0  0  0  0  0  0  0  0  0  0  0
   16.1310    8.2671   34.0438 H   0  0  0  0  0  0  0  0  0  0  0  0
   16.9199   13.1288   35.6764 H   0  0  0  0  0  0  0  0  0  0  0  0
   19.2670   15.8201   35.8991 H   0  0  0  0  0  0  0  0  0  0  0  0
  1  3  2  0
  1  8  1  0
  1 12  1  0
  2  9  1  0
  2 10  2  0
  2 11  1  0
  3 10  1  0
  4 11  1  0
  6  5  1  0
  6  7  1  0
  6 15  1  0
  7 12  1  0
  7 13  2  0
  8  9  2  0
 11 14  2  0
  3 16  1  0
  4 17  1  0
  4 18  1  0
  4 19  1  0
  5 20  1  0
  5 21  1  0
  5 22  1  0
  6 23  1  1
  8 24  1  0
  9 25  1  0
 10 26  1  0
 12 27  1  0
 15 28  1  0
M  END
>  <filename_input>  (10) 
7ZOC_T8E_docked.sdf

>  <pdb_id>  (10) 
7ZOC_T8E

>  <pose_rank>  (10) 
9

>  <num_atoms_heavy>  (10) 
15

>  <num_torsions>  (10) 
3

>  <pose>  (10) 
[16.209982784093196, 11.16776970567234, 35.81876849285496, 0.9719290837346733, -5.232074534893414, -2.9971716696690396, 3.0660442377934842, 2.3375862211623155, -2.4016666717768986]

>  <energy>  (10) 
-602.503175228484

>  <inter_energy>  (10) 
-606.4515676153483

>  <intra_energy>  (10) 
2.6057772417807166

>  <rmsd>  (10) 
1.46866

>  <sdf_rank>  (10) 
0

$$$$

     RDKit          3D

 28 28  0  0  0  0  0  0  0  0999 V2000
   20.9660   14.7985   39.8380 C   0  0  0  0  0  0  0  0  0  0  0  0
   21.3474   13.4179   42.2426 C   0  0  0  0  0  0  0  0  0  0  0  0
   21.8910   13.7609   39.9150 C   0  0  0  0  0  0  0  0  0  0  0  0
   21.0697   13.2885   44.7978 C   0  0  0  0  0  0  0  0  0  0  0  0
   19.6507   14.9858   35.1695 C   0  0  0  0  0  0  0  0  0  0  0  0
   19.8429   15.9254   36.3561 C   0  0  1  0  0  0  0  0  0  0  0  0
   19.7671   15.1493   37.6627 C   0  0  0  0  0  0  0  0  0  0  0  0
   20.2540   15.1531   40.9794 C   0  0  0  0  0  0  0  0  0  0  0  0
   20.4430   14.4654   42.1645 C   0  0  0  0  0  0  0  0  0  0  0  0
   22.0763   13.0771   41.1023 C   0  0  0  0  0  0  0  0  0  0  0  0
   21.5405   12.6767   43.5174 C   0  0  0  0  0  0  0  0  0  0  0  0
   20.7445   15.4159   38.5732 N   0  0  0  0  0  0  0  0  0  0  0  0
   18.8538   14.3376   37.8348 O   0  0  0  0  0  0  0  0  0  0  0  0
   22.0620   11.5679   43.5160 O   0  0  0  0  0  0  0  0  0  0  0  0
   21.3787   16.8993   36.1513 S   0  0  0  0  0  0  0  0  0  0  0  0
   22.4774   13.4836   39.0266 H   0  0  0  0  0  0  0  0  0  0  0  0
   21.4959   12.7347   45.6473 H   0  0  0  0  0  0  0  0  0  0  0  0
   21.3951   14.3382   44.8441 H   0  0  0  0  0  0  0  0  0  0  0  0
   19.9716   13.2427   44.8441 H   0  0  0  0  0  0  0  0  0  0  0  0
   19.4429   13.9698   35.5362 H   0  0  0  0  0  0  0  0  0  0  0  0
   18.8054   15.3351   34.5584 H   0  0  0  0  0  0  0  0  0  0  0  0
   20.5653   14.9751   34.5584 H   0  0  0  0  0  0  0  0  0  0  0  0
   19.0237   16.6586   36.3944 H   0  0  0  0  0  0  0  0  0  0  0  0
   19.5363   15.9857   40.9392 H   0  0  0  0  0  0  0  0  0  0  0  0
   19.8678   14.7535   43.0568 H   0  0  0  0  0  0  0  0  0  0  0  0
   22.8063   12.2556   41.1486 H   0  0  0  0  0  0  0  0  0  0  0  0
   21.4087   16.1593   38.3141 H   0  0  0  0  0  0  0  0  0  0  0  0
   21.8841   17.2197   37.3837 H   0  0  0  0  0  0  0  0  0  0  0  0
  1  3  2  0
  1  8  1  0
  1 12  1  0
  2  9  1  0
  2 10  2  0
  2 11  1  0
  3 10  1  0
  4 11  1  0
  6  5  1  0
  6  7  1  0
  6 15  1  0
  7 12  1  0
  7 13  2  0
  8  9  2  0
 11 14  2  0
  3 16  1  0
  4 17  1  0
  4 18  1  0
  4 19  1  0
  5 20  1  0
  5 21  1  0
  5 22  1  0
  6 23  1  1
  8 24  1  0
  9 25  1  0
 10 26  1  0
 12 27  1  0
 15 28  1  0
M  END
>  <filename_input>  (11) 
7ZOC_T8E_docked.sdf

>  <pdb_id>  (11) 
7ZOC_T8E

>  <pose_rank>  (11) 
10

>  <num_atoms_heavy>  (11) 
15

>  <num_torsions>  (11) 
3

>  <pose>  (11) 
[20.965985175514128, 14.798503633430265, 39.83801651626014, -1.2107601495315627, 0.9623527869183611, 0.6303799783361912, 3.048002221497387, 5.197313685979446, -1.533141824891629]

>  <energy>  (11) 
-229.90389733054377

>  <inter_energy>  (11) 
-224.20557500524595

>  <intra_energy>  (11) 
0.11708326658834195

>  <rmsd>  (11) 
8.94699

>  <sdf_rank>  (11) 
0

$$$$

     RDKit          3D

 28 28  0  0  0  0  0  0  0  0999 V2000
   19.1086   14.6204   38.4377 C   0  0  0  0  0  0  0  0  0  0  0  0
   20.5419   16.6924   37.2188 C   0  0  0  0  0  0  0  0  0  0  0  0
   20.3724   14.9717   38.9043 C   0  0  0  0  0  0  0  0  0  0  0  0
   20.7318   18.4673   35.3650 C   0  0  0  0  0  0  0  0  0  0  0  0
   18.1465   11.5009   42.2118 C   0  0  0  0  0  0  0  0  0  0  0  0
   17.6512   12.0587   40.8808 C   0  0  1  0  0  0  0  0  0  0  0  0
   18.5254   13.2224   40.4373 C   0  0  0  0  0  0  0  0  0  0  0  0
   18.5818   15.2980   37.3429 C   0  0  0  0  0  0  0  0  0  0  0  0
   19.2920   16.3240   36.7462 C   0  0  0  0  0  0  0  0  0  0  0  0
   21.0783   15.9976   38.3038 C   0  0  0  0  0  0  0  0  0  0  0  0
   21.2976   17.8017   36.5783 C   0  0  0  0  0  0  0  0  0  0  0  0
   18.3812   13.6178   39.1417 N   0  0  0  0  0  0  0  0  0  0  0  0
   19.3026   13.7402   41.2438 O   0  0  0  0  0  0  0  0  0  0  0  0
   22.3629   18.1793   37.0516 O   0  0  0  0  0  0  0  0  0  0  0  0
   17.5072   10.7164   39.6452 S   0  0  0  0  0  0  0  0  0  0  0  0
   20.8115   14.4302   39.7552 H   0  0  0  0  0  0  0  0  0  0  0  0
   20.0480   19.2719   35.6734 H   0  0  0  0  0  0  0  0  0  0  0  0
   21.5500   18.8916   34.7644 H   0  0  0  0  0  0  0  0  0  0  0  0
   20.1813   17.7283   34.7644 H   0  0  0  0  0  0  0  0  0  0  0  0
   17.6648   12.0434   43.0387 H   0  0  0  0  0  0  0  0  0  0  0  0
   17.8942   10.4323   42.2781 H   0  0  0  0  0  0  0  0  0  0  0  0
   19.2375   11.6249   42.2781 H   0  0  0  0  0  0  0  0  0  0  0  0
   16.6383   12.4714   40.9973 H   0  0  0  0  0  0  0  0  0  0  0  0
   17.5940   15.0161   36.9492 H   0  0  0  0  0  0  0  0  0  0  0  0
   18.8592   16.8545   35.8853 H   0  0  0  0  0  0  0  0  0  0  0  0
   22.0736   16.2692   38.6854 H   0  0  0  0  0  0  0  0  0  0  0  0
   17.6528   13.1291   38.6017 H   0  0  0  0  0  0  0  0  0  0  0  0
   17.3782    9.5144   40.2898 H   0  0  0  0  0  0  0  0  0  0  0  0
  1  3  2  0
  1  8  1  0
  1 12  1  0
  2  9  1  0
  2 10  2  0
  2 11  1  0
  3 10  1  0
  4 11  1  0
  6  5  1  0
  6  7  1  0
  6 15  1  0
  7 12  1  0
  7 13  2  0
  8  9  2  0
 11 14  2  0
  3 16  1  0
  4 17  1  0
  4 18  1  0
  4 19  1  0
  5 20  1  0
  5 21  1  0
  5 22  1  0
  6 23  1  1
  8 24  1  0
  9 25  1  0
 10 26  1  0
 12 27  1  0
 15 28  1  0
M  END
>  <filename_input>  (12) 
7ZOC_T8E_docked.sdf

>  <pdb_id>  (12) 
7ZOC_T8E

>  <pose_rank>  (12) 
11

>  <num_atoms_heavy>  (12) 
15

>  <num_torsions>  (12) 
3

>  <pose>  (12) 
[19.108588466338755, 14.620383469489491, 38.43770107163929, -7.705722635509599, 6.287264191741553, -2.3636366343113875, 3.290502408773981, 3.9177813311180443, -0.9628845341108662]

>  <energy>  (12) 
-256.2360611345804

>  <inter_energy>  (12) 
-269.87011275024526

>  <intra_energy>  (12) 
16.78380156691076

>  <rmsd>  (12) 
8.58415

>  <sdf_rank>  (12) 
0

$$$$

     RDKit          3D

 28 28  0  0  0  0  0  0  0  0999 V2000
   22.0949    5.5687   27.8643 C   0  0  0  0  0  0  0  0  0  0  0  0
   23.1993    7.9608   26.9200 C   0  0  0  0  0  0  0  0  0  0  0  0
   23.4757    5.7449   27.8390 C   0  0  0  0  0  0  0  0  0  0  0  0
   23.0753   10.5227   26.7100 C   0  0  0  0  0  0  0  0  0  0  0  0
   19.1819    2.7697   29.6713 C   0  0  0  0  0  0  0  0  0  0  0  0
   20.3037    2.3030   28.7484 C   0  0  1  0  0  0  0  0  0  0  0  0
   20.7604    3.4446   27.8522 C   0  0  0  0  0  0  0  0  0  0  0  0
   21.2762    6.5889   27.3907 C   0  0  0  0  0  0  0  0  0  0  0  0
   21.8263    7.7708   26.9288 C   0  0  0  0  0  0  0  0  0  0  0  0
   24.0203    6.9282   27.3756 C   0  0  0  0  0  0  0  0  0  0  0  0
   23.7848    9.2369   26.4297 C   0  0  0  0  0  0  0  0  0  0  0  0
   21.5755    4.3694   28.4317 N   0  0  0  0  0  0  0  0  0  0  0  0
   20.3839    3.4827   26.6778 O   0  0  0  0  0  0  0  0  0  0  0  0
   24.8475    9.2364   25.8197 O   0  0  0  0  0  0  0  0  0  0  0  0
   21.6472    1.5323   29.7232 S   0  0  0  0  0  0  0  0  0  0  0  0
   24.1367    4.9386   28.1895 H   0  0  0  0  0  0  0  0  0  0  0  0
   22.9952   10.6678   27.7975 H   0  0  0  0  0  0  0  0  0  0  0  0
   23.6407   11.3571   26.2694 H   0  0  0  0  0  0  0  0  0  0  0  0
   22.0679   10.4893   26.2694 H   0  0  0  0  0  0  0  0  0  0  0  0
   19.4916    2.6409   30.7190 H   0  0  0  0  0  0  0  0  0  0  0  0
   18.9678    3.8316   29.4802 H   0  0  0  0  0  0  0  0  0  0  0  0
   18.2778    2.1731   29.4802 H   0  0  0  0  0  0  0  0  0  0  0  0
   19.9345    1.5188   28.0711 H   0  0  0  0  0  0  0  0  0  0  0  0
   20.1844    6.4547   27.3837 H   0  0  0  0  0  0  0  0  0  0  0  0
   21.1654    8.5707   26.5635 H   0  0  0  0  0  0  0  0  0  0  0  0
   25.1126    7.0572   27.3659 H   0  0  0  0  0  0  0  0  0  0  0  0
   21.8518    4.1770   29.4051 H   0  0  0  0  0  0  0  0  0  0  0  0
   21.3856    1.6823   31.0597 H   0  0  0  0  0  0  0  0  0  0  0  0
  1  3  2  0
  1  8  1  0
  1 12  1  0
  2  9  1  0
  2 10  2  0
  2 11  1  0
  3 10  1  0
  4 11  1  0
  6  5  1  0
  6  7  1  0
  6 15  1  0
  7 12  1  0
  7 13  2  0
  8  9  2  0
 11 14  2  0
  3 16  1  0
  4 17  1  0
  4 18  1  0
  4 19  1  0
  5 20  1  0
  5 21  1  0
  5 22  1  0
  6 23  1  6
  8 24  1  0
  9 25  1  0
 10 26  1  0
 12 27  1  0
 15 28  1  0
M  END
>  <filename_input>  (13) 
7ZOC_T8E_docked.sdf

>  <pdb_id>  (13) 
7ZOC_T8E

>  <pose_rank>  (13) 
12

>  <num_atoms_heavy>  (13) 
15

>  <num_torsions>  (13) 
3

>  <pose>  (13) 
[22.09488015348377, 5.568671023911942, 27.86430039174311, 1.9538131450941447, -1.3360618862351248, -0.15388709172142112, -2.29248378196982, 1.3719959387327083, -2.501690057693648]

>  <energy>  (13) 
-148.8396463905111

>  <inter_energy>  (13) 
-133.75513915541367

>  <intra_energy>  (13) 
2.5316170326124046

>  <rmsd>  (13) 
12.4566

>  <sdf_rank>  (13) 
0

$$$$

     RDKit          3D

 28 28  0  0  0  0  0  0  0  0999 V2000
    9.6596   17.4239   39.4830 C   0  0  0  0  0  0  0  0  0  0  0  0
   10.4372   17.6487   42.1623 C   0  0  0  0  0  0  0  0  0  0  0  0
    9.8314   18.6776   40.0634 C   0  0  0  0  0  0  0  0  0  0  0  0
   10.0359   17.1239   44.6496 C   0  0  0  0  0  0  0  0  0  0  0  0
    8.6224   18.3550   35.3709 C   0  0  0  0  0  0  0  0  0  0  0  0
    8.1297   17.0522   35.9936 C   0  0  1  0  0  0  0  0  0  0  0  0
    8.1316   17.1580   37.5115 C   0  0  0  0  0  0  0  0  0  0  0  0
    9.8564   16.2878   40.2616 C   0  0  0  0  0  0  0  0  0  0  0  0
   10.2445   16.4038   41.5840 C   0  0  0  0  0  0  0  0  0  0  0  0
   10.2189   18.7877   41.3860 C   0  0  0  0  0  0  0  0  0  0  0  0
   10.8624   17.7671   43.5825 C   0  0  0  0  0  0  0  0  0  0  0  0
    9.3463   17.3574   38.0947 N   0  0  0  0  0  0  0  0  0  0  0  0
    7.0674   17.0606   38.1284 O   0  0  0  0  0  0  0  0  0  0  0  0
   11.8897   18.3684   43.8731 O   0  0  0  0  0  0  0  0  0  0  0  0
    6.5133   16.5790   35.2776 S   0  0  0  0  0  0  0  0  0  0  0  0
    9.6580   19.5853   39.4667 H   0  0  0  0  0  0  0  0  0  0  0  0
   10.4174   17.4208   45.6377 H   0  0  0  0  0  0  0  0  0  0  0  0
    8.9896   17.4476   44.5480 H   0  0  0  0  0  0  0  0  0  0  0  0
   10.0928   16.0301   44.5480 H   0  0  0  0  0  0  0  0  0  0  0  0
    8.8906   19.0640   36.1680 H   0  0  0  0  0  0  0  0  0  0  0  0
    9.5060   18.1524   34.7478 H   0  0  0  0  0  0  0  0  0  0  0  0
    7.8259   18.7879   34.7478 H   0  0  0  0  0  0  0  0  0  0  0  0
    8.8199   16.2314   35.7490 H   0  0  0  0  0  0  0  0  0  0  0  0
    9.7023   15.2911   39.8226 H   0  0  0  0  0  0  0  0  0  0  0  0
   10.4023   15.4960   42.1849 H   0  0  0  0  0  0  0  0  0  0  0  0
   10.3566   19.7841   41.8313 H   0  0  0  0  0  0  0  0  0  0  0  0
   10.1402   17.4754   37.4492 H   0  0  0  0  0  0  0  0  0  0  0  0
    5.6250   16.3189   36.2876 H   0  0  0  0  0  0  0  0  0  0  0  0
  1  3  2  0
  1  8  1  0
  1 12  1  0
  2  9  1  0
  2 10  2  0
  2 11  1  0
  3 10  1  0
  4 11  1  0
  6  5  1  0
  6  7  1  0
  6 15  1  0
  7 12  1  0
  7 13  2  0
  8  9  2  0
 11 14  2  0
  3 16  1  0
  4 17  1  0
  4 18  1  0
  4 19  1  0
  5 20  1  0
  5 21  1  0
  5 22  1  0
  6 23  1  1
  8 24  1  0
  9 25  1  0
 10 26  1  0
 12 27  1  0
 15 28  1  0
M  END
>  <filename_input>  (14) 
7ZOC_T8E_docked.sdf

>  <pdb_id>  (14) 
7ZOC_T8E

>  <pose_rank>  (14) 
13

>  <num_atoms_heavy>  (14) 
15

>  <num_torsions>  (14) 
3

>  <pose>  (14) 
[9.659643291732282, 17.42387884963921, 39.48302120623523, 2.060677343311758, 1.528420930297299, -2.2542648868331416, 2.3677689609316777, 1.7666928918419846, 1.333855718846459]

>  <energy>  (14) 
-148.11219934542387

>  <inter_energy>  (14) 
-134.98388874776765

>  <intra_energy>  (14) 
0.0006949665433222672

>  <rmsd>  (14) 
12.1507

>  <sdf_rank>  (14) 
0

$$$$

     RDKit          3D

 28 28  0  0  0  0  0  0  0  0999 V2000
   20.6061    4.4656   26.2137 C   0  0  0  0  0  0  0  0  0  0  0  0
   21.6126    7.0750   26.3224 C   0  0  0  0  0  0  0  0  0  0  0  0
   21.8133    4.7284   26.8553 C   0  0  0  0  0  0  0  0  0  0  0  0
   21.7409    9.3432   27.5315 C   0  0  0  0  0  0  0  0  0  0  0  0
   19.0567    0.7272   25.5434 C   0  0  0  0  0  0  0  0  0  0  0  0
   19.0004    1.0866   27.0252 C   0  0  1  0  0  0  0  0  0  0  0  0
   19.3271    2.5592   27.2247 C   0  0  0  0  0  0  0  0  0  0  0  0
   19.9223    5.5148   25.6077 C   0  0  0  0  0  0  0  0  0  0  0  0
   20.4216    6.8033   25.6674 C   0  0  0  0  0  0  0  0  0  0  0  0
   22.3081    6.0181   26.9116 C   0  0  0  0  0  0  0  0  0  0  0  0
   22.1405    8.4636   26.3904 C   0  0  0  0  0  0  0  0  0  0  0  0
   20.0911    3.1379   26.2568 N   0  0  0  0  0  0  0  0  0  0  0  0
   18.9006    3.1461   28.2228 O   0  0  0  0  0  0  0  0  0  0  0  0
   22.9105    8.8761   25.5310 O   0  0  0  0  0  0  0  0  0  0  0  0
   17.3975    0.5709   27.7421 S   0  0  0  0  0  0  0  0  0  0  0  0
   22.3765    3.9056   27.3200 H   0  0  0  0  0  0  0  0  0  0  0  0
   21.9703    8.8382   28.4814 H   0  0  0  0  0  0  0  0  0  0  0  0
   22.2969   10.2907   27.4763 H   0  0  0  0  0  0  0  0  0  0  0  0
   20.6615    9.5477   27.4763 H   0  0  0  0  0  0  0  0  0  0  0  0
   19.2258   -0.3543   25.4346 H   0  0  0  0  0  0  0  0  0  0  0  0
   18.1050    0.9996   25.0637 H   0  0  0  0  0  0  0  0  0  0  0  0
   19.8797    1.2772   25.0637 H   0  0  0  0  0  0  0  0  0  0  0  0
   19.7713    0.5303   27.5786 H   0  0  0  0  0  0  0  0  0  0  0  0
   18.9787    5.3184   25.0777 H   0  0  0  0  0  0  0  0  0  0  0  0
   19.8661    7.6233   25.1889 H   0  0  0  0  0  0  0  0  0  0  0  0
   23.2604    6.2135   27.4263 H   0  0  0  0  0  0  0  0  0  0  0  0
   20.3267    2.5387   25.4528 H   0  0  0  0  0  0  0  0  0  0  0  0
   17.4793    0.5972   29.1094 H   0  0  0  0  0  0  0  0  0  0  0  0
  1  3  2  0
  1  8  1  0
  1 12  1  0
  2  9  1  0
  2 10  2  0
  2 11  1  0
  3 10  1  0
  4 11  1  0
  6  5  1  0
  6  7  1  0
  6 15  1  0
  7 12  1  0
  7 13  2  0
  8  9  2  0
 11 14  2  0
  3 16  1  0
  4 17  1  0
  4 18  1  0
  4 19  1  0
  5 20  1  0
  5 21  1  0
  5 22  1  0
  6 23  1  1
  8 24  1  0
  9 25  1  0
 10 26  1  0
 12 27  1  0
 15 28  1  0
M  END
>  <filename_input>  (15) 
7ZOC_T8E_docked.sdf

>  <pdb_id>  (15) 
7ZOC_T8E

>  <pose_rank>  (15) 
14

>  <num_atoms_heavy>  (15) 
15

>  <num_torsions>  (15) 
3

>  <pose>  (15) 
[20.606066894766798, 4.465649469199383, 26.213679404845266, -2.8892427055876277, 1.9026826554302843, -0.29752059035172257, -1.3637521560878865, -1.2727654784302722, 1.9841253685176239]

>  <energy>  (15) 
-123.59376161728312

>  <inter_energy>  (15) 
-129.21561365927937

>  <intra_energy>  (15) 
0.006085266596099922

>  <rmsd>  (15) 
13.02

>  <sdf_rank>  (15) 
0

$$$$

     RDKit          3D

 28 28  0  0  0  0  0  0  0  0999 V2000
   11.8424   15.0782   27.1538 C   0  0  0  0  0  0  0  0  0  0  0  0
   14.4515   14.3967   26.4045 C   0  0  0  0  0  0  0  0  0  0  0  0
   12.6797   16.0283   26.5753 C   0  0  0  0  0  0  0  0  0  0  0  0
   16.9419   15.0127   26.2004 C   0  0  0  0  0  0  0  0  0  0  0  0
    8.1657   17.6077   28.9213 C   0  0  0  0  0  0  0  0  0  0  0  0
    8.4755   16.1418   28.6328 C   0  0  1  0  0  0  0  0  0  0  0  0
    9.9797   15.9136   28.6115 C   0  0  0  0  0  0  0  0  0  0  0  0
   12.3309   13.7946   27.3752 C   0  0  0  0  0  0  0  0  0  0  0  0
   13.6196   13.4612   26.9996 C   0  0  0  0  0  0  0  0  0  0  0  0
   13.9672   15.6899   26.2023 C   0  0  0  0  0  0  0  0  0  0  0  0
   15.8336   14.0304   25.9953 C   0  0  0  0  0  0  0  0  0  0  0  0
   10.4964   15.4467   27.4408 N   0  0  0  0  0  0  0  0  0  0  0  0
   10.6446   16.1525   29.6231 O   0  0  0  0  0  0  0  0  0  0  0  0
   16.0650   12.9277   25.5136 O   0  0  0  0  0  0  0  0  0  0  0  0
    7.5702   15.0611   29.7996 S   0  0  0  0  0  0  0  0  0  0  0  0
   12.3150   17.0535   26.4142 H   0  0  0  0  0  0  0  0  0  0  0  0
   17.1073   15.1593   27.2780 H   0  0  0  0  0  0  0  0  0  0  0  0
   17.8627   14.6287   25.7370 H   0  0  0  0  0  0  0  0  0  0  0  0
   16.6712   15.9729   25.7370 H   0  0  0  0  0  0  0  0  0  0  0  0
    8.1318   17.7681   30.0090 H   0  0  0  0  0  0  0  0  0  0  0  0
    8.9498   18.2416   28.4814 H   0  0  0  0  0  0  0  0  0  0  0  0
    7.1923   17.8702   28.4814 H   0  0  0  0  0  0  0  0  0  0  0  0
    8.1163   15.8699   27.6292 H   0  0  0  0  0  0  0  0  0  0  0  0
   11.6882   13.0399   27.8521 H   0  0  0  0  0  0  0  0  0  0  0  0
   13.9893   12.4403   27.1756 H   0  0  0  0  0  0  0  0  0  0  0  0
   14.6171   16.4482   25.7412 H   0  0  0  0  0  0  0  0  0  0  0  0
    9.8283   15.3474   26.6633 H   0  0  0  0  0  0  0  0  0  0  0  0
    7.8731   15.4227   31.0858 H   0  0  0  0  0  0  0  0  0  0  0  0
  1  3  2  0
  1  8  1  0
  1 12  1  0
  2  9  1  0
  2 10  2  0
  2 11  1  0
  3 10  1  0
  4 11  1  0
  6  5  1  0
  6  7  1  0
  6 15  1  0
  7 12  1  0
  7 13  2  0
  8  9  2  0
 11 14  2  0
  3 16  1  0
  4 17  1  0
  4 18  1  0
  4 19  1  0
  5 20  1  0
  5 21  1  0
  5 22  1  0
  6 23  1  6
  8 24  1  0
  9 25  1  0
 10 26  1  0
 12 27  1  0
 15 28  1  0
M  END
>  <filename_input>  (16) 
7ZOC_T8E_docked.sdf

>  <pdb_id>  (16) 
7ZOC_T8E

>  <pose_rank>  (16) 
15

>  <num_atoms_heavy>  (16) 
15

>  <num_torsions>  (16) 
3

>  <pose>  (16) 
[11.842434144953097, 15.078235332908237, 27.15379964029531, -0.1185714094208781, -0.14119439739373388, 2.0544780402730494, 0.8983658750263578, -4.415504293925439, 0.3350517892812301]

>  <energy>  (16) 
-143.67448329218902

>  <inter_energy>  (16) 
-132.69887264469708

>  <intra_energy>  (16) 
0.0

>  <rmsd>  (16) 
11.2853

>  <sdf_rank>  (16) 
0

$$$$

     RDKit          3D

 28 28  0  0  0  0  0  0  0  0999 V2000
    9.7228   16.5289   28.8058 C   0  0  0  0  0  0  0  0  0  0  0  0
   11.5406   15.1095   27.2200 C   0  0  0  0  0  0  0  0  0  0  0  0
   10.8492   15.9438   29.3779 C   0  0  0  0  0  0  0  0  0  0  0  0
   12.0150   13.2930   25.4597 C   0  0  0  0  0  0  0  0  0  0  0  0
    8.6234   19.7295   32.0266 C   0  0  0  0  0  0  0  0  0  0  0  0
    7.8648   19.2103   30.8088 C   0  0  1  0  0  0  0  0  0  0  0  0
    8.8372   18.6677   29.7720 C   0  0  0  0  0  0  0  0  0  0  0  0
    9.5034   16.3757   27.4405 C   0  0  0  0  0  0  0  0  0  0  0  0
   10.4065   15.6768   26.6602 C   0  0  0  0  0  0  0  0  0  0  0  0
   11.7484   15.2458   28.5933 C   0  0  0  0  0  0  0  0  0  0  0  0
   12.5123   14.3659   26.3746 C   0  0  0  0  0  0  0  0  0  0  0  0
    8.8710   17.3127   29.6363 N   0  0  0  0  0  0  0  0  0  0  0  0
    9.5314   19.4530   29.1209 O   0  0  0  0  0  0  0  0  0  0  0  0
   13.7052   14.6432   26.4128 O   0  0  0  0  0  0  0  0  0  0  0  0
    6.5774   18.0166   31.3255 S   0  0  0  0  0  0  0  0  0  0  0  0
   11.0246   16.0375   30.4598 H   0  0  0  0  0  0  0  0  0  0  0  0
   11.6263   12.4541   26.0557 H   0  0  0  0  0  0  0  0  0  0  0  0
   11.2116   13.6954   24.8252 H   0  0  0  0  0  0  0  0  0  0  0  0
   12.8414   12.9401   24.8252 H   0  0  0  0  0  0  0  0  0  0  0  0
    8.1226   19.3867   32.9440 H   0  0  0  0  0  0  0  0  0  0  0  0
    9.6545   19.3468   32.0068 H   0  0  0  0  0  0  0  0  0  0  0  0
    8.6400   20.8292   32.0068 H   0  0  0  0  0  0  0  0  0  0  0  0
    7.3302   20.0358   30.3161 H   0  0  0  0  0  0  0  0  0  0  0  0
    8.6060   16.8132   26.9788 H   0  0  0  0  0  0  0  0  0  0  0  0
   10.2224   15.5699   25.5810 H   0  0  0  0  0  0  0  0  0  0  0  0
   12.6374   14.7929   29.0565 H   0  0  0  0  0  0  0  0  0  0  0  0
    8.1937   16.7874   30.2075 H   0  0  0  0  0  0  0  0  0  0  0  0
    6.5236   17.9667   32.6936 H   0  0  0  0  0  0  0  0  0  0  0  0
  1  3  2  0
  1  8  1  0
  1 12  1  0
  2  9  1  0
  2 10  2  0
  2 11  1  0
  3 10  1  0
  4 11  1  0
  6  5  1  0
  6  7  1  0
  6 15  1  0
  7 12  1  0
  7 13  2  0
  8  9  2  0
 11 14  2  0
  3 16  1  0
  4 17  1  0
  4 18  1  0
  4 19  1  0
  5 20  1  0
  5 21  1  0
  5 22  1  0
  6 23  1  6
  8 24  1  0
  9 25  1  0
 10 26  1  0
 12 27  1  0
 15 28  1  0
M  END
>  <filename_input>  (17) 
7ZOC_T8E_docked.sdf

>  <pdb_id>  (17) 
7ZOC_T8E

>  <pose_rank>  (17) 
16

>  <num_atoms_heavy>  (17) 
15

>  <num_torsions>  (17) 
3

>  <pose>  (17) 
[9.722825174686017, 16.528850585682576, 28.805758455744996, -0.7029906855050356, 4.4172887966599435, -1.3273020520039618, -3.81606739755697, -1.0431369904629506, -1.9843242043714973]

>  <energy>  (17) 
-98.04843295390098

>  <inter_energy>  (17) 
-99.14861815497711

>  <intra_energy>  (17) 
0.2637700158556946

>  <rmsd>  (17) 
11.663

>  <sdf_rank>  (17) 
0

$$$$

     RDKit          3D

 28 28  0  0  0  0  0  0  0  0999 V2000
   11.0034   17.5623   28.7468 C   0  0  0  0  0  0  0  0  0  0  0  0
   13.1694   19.0327   27.7570 C   0  0  0  0  0  0  0  0  0  0  0  0
   12.2295   17.5401   29.4060 C   0  0  0  0  0  0  0  0  0  0  0  0
   14.3441   20.2097   25.7928 C   0  0  0  0  0  0  0  0  0  0  0  0
    7.7172   13.8561   29.3434 C   0  0  0  0  0  0  0  0  0  0  0  0
    8.0530   15.3068   29.6757 C   0  0  1  0  0  0  0  0  0  0  0  0
    9.2483   15.7735   28.8580 C   0  0  0  0  0  0  0  0  0  0  0  0
   10.8800   18.3058   27.5774 C   0  0  0  0  0  0  0  0  0  0  0  0
   11.9519   19.0341   27.0942 C   0  0  0  0  0  0  0  0  0  0  0  0
   13.2979   18.2694   28.9183 C   0  0  0  0  0  0  0  0  0  0  0  0
   14.3162   19.8241   27.2371 C   0  0  0  0  0  0  0  0  0  0  0  0
    9.9065   16.8673   29.3331 N   0  0  0  0  0  0  0  0  0  0  0  0
    9.5589   15.1614   27.8326 O   0  0  0  0  0  0  0  0  0  0  0  0
   15.2187   20.1734   27.9887 O   0  0  0  0  0  0  0  0  0  0  0  0
    6.5661   16.3586   29.4966 S   0  0  0  0  0  0  0  0  0  0  0  0
   12.3487   16.9391   30.3196 H   0  0  0  0  0  0  0  0  0  0  0  0
   14.4232   21.3035   25.7068 H   0  0  0  0  0  0  0  0  0  0  0  0
   15.2106   19.7399   25.3045 H   0  0  0  0  0  0  0  0  0  0  0  0
   13.4190   19.8695   25.3045 H   0  0  0  0  0  0  0  0  0  0  0  0
    7.5856   13.2873   30.2757 H   0  0  0  0  0  0  0  0  0  0  0  0
    6.7870   13.8200   28.7574 H   0  0  0  0  0  0  0  0  0  0  0  0
    8.5370   13.4149   28.7574 H   0  0  0  0  0  0  0  0  0  0  0  0
    8.3579   15.3926   30.7291 H   0  0  0  0  0  0  0  0  0  0  0  0
    9.9238   18.3145   27.0337 H   0  0  0  0  0  0  0  0  0  0  0  0
   11.8368   19.6221   26.1718 H   0  0  0  0  0  0  0  0  0  0  0  0
   14.2598   18.2479   29.4514 H   0  0  0  0  0  0  0  0  0  0  0  0
    9.5677   17.2398   30.2317 H   0  0  0  0  0  0  0  0  0  0  0  0
    6.0918   16.6941   30.7373 H   0  0  0  0  0  0  0  0  0  0  0  0
  1  3  2  0
  1  8  1  0
  1 12  1  0
  2  9  1  0
  2 10  2  0
  2 11  1  0
  3 10  1  0
  4 11  1  0
  6  5  1  0
  6  7  1  0
  6 15  1  0
  7 12  1  0
  7 13  2  0
  8  9  2  0
 11 14  2  0
  3 16  1  0
  4 17  1  0
  4 18  1  0
  4 19  1  0
  5 20  1  0
  5 21  1  0
  5 22  1  0
  6 23  1  1
  8 24  1  0
  9 25  1  0
 10 26  1  0
 12 27  1  0
 15 28  1  0
M  END
>  <filename_input>  (18) 
7ZOC_T8E_docked.sdf

>  <pdb_id>  (18) 
7ZOC_T8E

>  <pose_rank>  (18) 
17

>  <num_atoms_heavy>  (18) 
15

>  <num_torsions>  (18) 
3

>  <pose>  (18) 
[11.00339151332381, 17.562270427631198, 28.74678965035056, -2.4357476043831485, 2.942348150685062, -0.9048504249601139, 2.966475494471828, 1.527047490609975, -0.37532139337046533]

>  <energy>  (18) 
-113.53039434290781

>  <inter_energy>  (18) 
-109.25972810479972

>  <intra_energy>  (18) 
0.9705137853823682

>  <rmsd>  (18) 
12.796

>  <sdf_rank>  (18) 
0

$$$$

     RDKit          3D

 28 28  0  0  0  0  0  0  0  0999 V2000
   10.1237   17.2255   40.4575 C   0  0  0  0  0  0  0  0  0  0  0  0
   10.1902   16.0750   43.0080 C   0  0  0  0  0  0  0  0  0  0  0  0
    9.9533   15.8528   40.6153 C   0  0  0  0  0  0  0  0  0  0  0  0
   10.9591   14.1885   44.5806 C   0  0  0  0  0  0  0  0  0  0  0  0
    8.2962   20.1286   36.8785 C   0  0  0  0  0  0  0  0  0  0  0  0
    9.0723   18.8436   37.1513 C   0  0  1  0  0  0  0  0  0  0  0  0
    8.9386   18.4456   38.6137 C   0  0  0  0  0  0  0  0  0  0  0  0
   10.3516   18.0104   41.5832 C   0  0  0  0  0  0  0  0  0  0  0  0
   10.3796   17.4381   42.8420 C   0  0  0  0  0  0  0  0  0  0  0  0
    9.9828   15.2858   41.8759 C   0  0  0  0  0  0  0  0  0  0  0  0
   10.2133   15.4663   44.3647 C   0  0  0  0  0  0  0  0  0  0  0  0
    9.9977   17.7777   39.1501 N   0  0  0  0  0  0  0  0  0  0  0  0
    7.9096   18.7347   39.2302 O   0  0  0  0  0  0  0  0  0  0  0  0
    9.6440   16.0164   45.3000 O   0  0  0  0  0  0  0  0  0  0  0  0
    8.5716   17.5380   35.9707 S   0  0  0  0  0  0  0  0  0  0  0  0
    9.7943   15.2161   39.7325 H   0  0  0  0  0  0  0  0  0  0  0  0
   11.0665   14.0045   45.6598 H   0  0  0  0  0  0  0  0  0  0  0  0
   10.4040   13.3578   44.1204 H   0  0  0  0  0  0  0  0  0  0  0  0
   11.9554   14.2632   44.1204 H   0  0  0  0  0  0  0  0  0  0  0  0
    8.0139   20.5961   37.8333 H   0  0  0  0  0  0  0  0  0  0  0  0
    8.9265   20.8224   36.3028 H   0  0  0  0  0  0  0  0  0  0  0  0
    7.3889   19.8938   36.3028 H   0  0  0  0  0  0  0  0  0  0  0  0
   10.1467   19.0076   36.9817 H   0  0  0  0  0  0  0  0  0  0  0  0
   10.5105   19.0932   41.4715 H   0  0  0  0  0  0  0  0  0  0  0  0
   10.5546   18.0730   43.7231 H   0  0  0  0  0  0  0  0  0  0  0  0
    9.8413   14.2007   41.9877 H   0  0  0  0  0  0  0  0  0  0  0  0
   10.8119   17.6564   38.5311 H   0  0  0  0  0  0  0  0  0  0  0  0
    8.1482   16.4342   36.6630 H   0  0  0  0  0  0  0  0  0  0  0  0
  1  3  2  0
  1  8  1  0
  1 12  1  0
  2  9  1  0
  2 10  2  0
  2 11  1  0
  3 10  1  0
  4 11  1  0
  6  5  1  0
  6  7  1  0
  6 15  1  0
  7 12  1  0
  7 13  2  0
  8  9  2  0
 11 14  2  0
  3 16  1  0
  4 17  1  0
  4 18  1  0
  4 19  1  0
  5 20  1  0
  5 21  1  0
  5 22  1  0
  6 23  1  6
  8 24  1  0
  9 25  1  0
 10 26  1  0
 12 27  1  0
 15 28  1  0
M  END
>  <filename_input>  (19) 
7ZOC_T8E_docked.sdf

>  <pdb_id>  (19) 
7ZOC_T8E

>  <pose_rank>  (19) 
18

>  <num_atoms_heavy>  (19) 
15

>  <num_torsions>  (19) 
3

>  <pose>  (19) 
[10.123729982111875, 17.225504118265285, 40.45746040599168, 1.7177671575084739, -4.093757660934673, -0.10173218147247229, 0.978363583040069, -0.9904535829631724, -0.18730274988221998]

>  <energy>  (19) 
-132.94148355258548

>  <inter_energy>  (19) 
-123.1089812357521

>  <intra_energy>  (19) 
0.5251127659026995

>  <rmsd>  (19) 
11.7587

>  <sdf_rank>  (19) 
0

$$$$

     RDKit          3D

 28 28  0  0  0  0  0  0  0  0999 V2000
    8.6545   17.2048   38.1103 C   0  0  0  0  0  0  0  0  0  0  0  0
    7.9362   17.8236   35.4770 C   0  0  0  0  0  0  0  0  0  0  0  0
    9.6075   17.6810   37.2140 C   0  0  0  0  0  0  0  0  0  0  0  0
    6.4687   17.3809   33.4097 C   0  0  0  0  0  0  0  0  0  0  0  0
   10.8706   16.1576   41.5319 C   0  0  0  0  0  0  0  0  0  0  0  0
    9.9192   17.3352   41.7212 C   0  0  1  0  0  0  0  0  0  0  0  0
    9.4947   17.8942   40.3712 C   0  0  0  0  0  0  0  0  0  0  0  0
    7.3481   17.0187   37.6698 C   0  0  0  0  0  0  0  0  0  0  0  0
    6.9969   17.3296   36.3686 C   0  0  0  0  0  0  0  0  0  0  0  0
    9.2510   17.9897   35.9143 C   0  0  0  0  0  0  0  0  0  0  0  0
    7.5510   18.1638   34.0814 C   0  0  0  0  0  0  0  0  0  0  0  0
    9.0469   16.9839   39.4621 N   0  0  0  0  0  0  0  0  0  0  0  0
    9.5728   19.1081   40.1647 O   0  0  0  0  0  0  0  0  0  0  0  0
    8.1009   19.0887   33.4953 O   0  0  0  0  0  0  0  0  0  0  0  0
    8.5251   16.8558   42.8056 S   0  0  0  0  0  0  0  0  0  0  0  0
   10.6493   17.8124   37.5415 H   0  0  0  0  0  0  0  0  0  0  0  0
    5.8258   16.9158   34.1715 H   0  0  0  0  0  0  0  0  0  0  0  0
    5.8656   18.0531   32.7817 H   0  0  0  0  0  0  0  0  0  0  0  0
    6.9184   16.5977   32.7817 H   0  0  0  0  0  0  0  0  0  0  0  0
   11.1801   15.7745   42.5155 H   0  0  0  0  0  0  0  0  0  0  0  0
   10.3602   15.3602   40.9719 H   0  0  0  0  0  0  0  0  0  0  0  0
   11.7575   16.4890   40.9719 H   0  0  0  0  0  0  0  0  0  0  0  0
   10.4344   18.1581   42.2383 H   0  0  0  0  0  0  0  0  0  0  0  0
    6.5897   16.6217   38.3606 H   0  0  0  0  0  0  0  0  0  0  0  0
    5.9584   17.1830   36.0370 H   0  0  0  0  0  0  0  0  0  0  0  0
   10.0122   18.3704   35.2174 H   0  0  0  0  0  0  0  0  0  0  0  0
    8.9838   16.0111   39.7946 H   0  0  0  0  0  0  0  0  0  0  0  0
    8.9009   16.9851   44.1166 H   0  0  0  0  0  0  0  0  0  0  0  0
  1  3  2  0
  1  8  1  0
  1 12  1  0
  2  9  1  0
  2 10  2  0
  2 11  1  0
  3 10  1  0
  4 11  1  0
  6  5  1  0
  6  7  1  0
  6 15  1  0
  7 12  1  0
  7 13  2  0
  8  9  2  0
 11 14  2  0
  3 16  1  0
  4 17  1  0
  4 18  1  0
  4 19  1  0
  5 20  1  0
  5 21  1  0
  5 22  1  0
  6 23  1  1
  8 24  1  0
  9 25  1  0
 10 26  1  0
 12 27  1  0
 15 28  1  0
M  END
>  <filename_input>  (20) 
7ZOC_T8E_docked.sdf

>  <pdb_id>  (20) 
7ZOC_T8E

>  <pose_rank>  (20) 
19

>  <num_atoms_heavy>  (20) 
15

>  <num_torsions>  (20) 
3

>  <pose>  (20) 
[8.654546511610008, 17.20478884206871, 38.11032356973058, 1.313316933372983, -0.3815664291863882, 0.3134921385034609, 2.7971337903319715, -1.671843727333676, 3.2889102850106147]

>  <energy>  (20) 
-132.36294391139432

>  <inter_energy>  (20) 
-134.38995418207645

>  <intra_energy>  (20) 
3.1129601201574317

>  <rmsd>  (20) 
11.2951

>  <sdf_rank>  (20) 
0

$$$$

     RDKit          3D

 28 28  0  0  0  0  0  0  0  0999 V2000
    9.2653   17.1334   28.8846 C   0  0  0  0  0  0  0  0  0  0  0  0
    8.2875   18.9545   30.7716 C   0  0  0  0  0  0  0  0  0  0  0  0
    9.8115   18.4105   28.9794 C   0  0  0  0  0  0  0  0  0  0  0  0
    8.5779   20.1772   33.0175 C   0  0  0  0  0  0  0  0  0  0  0  0
   12.5493   15.1463   26.4078 C   0  0  0  0  0  0  0  0  0  0  0  0
   11.3003   14.4973   26.9965 C   0  0  1  0  0  0  0  0  0  0  0  0
   10.8170   15.2825   28.2069 C   0  0  0  0  0  0  0  0  0  0  0  0
    8.2118   16.7866   29.7245 C   0  0  0  0  0  0  0  0  0  0  0  0
    7.7346   17.6885   30.6581 C   0  0  0  0  0  0  0  0  0  0  0  0
    9.3302   19.3083   29.9141 C   0  0  0  0  0  0  0  0  0  0  0  0
    7.7756   19.9173   31.7829 C   0  0  0  0  0  0  0  0  0  0  0  0
    9.8508   16.2126   27.9684 N   0  0  0  0  0  0  0  0  0  0  0  0
   11.3060   15.0510   29.3159 O   0  0  0  0  0  0  0  0  0  0  0  0
    6.7173   20.5063   31.5969 O   0  0  0  0  0  0  0  0  0  0  0  0
   10.0323   14.2684   25.6969 S   0  0  0  0  0  0  0  0  0  0  0  0
   10.6302   18.7067   28.3071 H   0  0  0  0  0  0  0  0  0  0  0  0
    7.9599   19.9770   33.9052 H   0  0  0  0  0  0  0  0  0  0  0  0
    9.4587   19.5183   33.0278 H   0  0  0  0  0  0  0  0  0  0  0  0
    8.9053   21.2273   33.0278 H   0  0  0  0  0  0  0  0  0  0  0  0
   13.2045   15.4869   27.2231 H   0  0  0  0  0  0  0  0  0  0  0  0
   13.0860   14.4131   25.7879 H   0  0  0  0  0  0  0  0  0  0  0  0
   12.2577   16.0070   25.7879 H   0  0  0  0  0  0  0  0  0  0  0  0
   11.5372   13.4892   27.3676 H   0  0  0  0  0  0  0  0  0  0  0  0
    7.7555   15.7889   29.6454 H   0  0  0  0  0  0  0  0  0  0  0  0
    6.9052   17.3973   31.3194 H   0  0  0  0  0  0  0  0  0  0  0  0
    9.7739   20.3125   29.9826 H   0  0  0  0  0  0  0  0  0  0  0  0
    9.4982   16.2558   27.0016 H   0  0  0  0  0  0  0  0  0  0  0  0
    8.8132   14.0483   26.2820 H   0  0  0  0  0  0  0  0  0  0  0  0
  1  3  2  0
  1  8  1  0
  1 12  1  0
  2  9  1  0
  2 10  2  0
  2 11  1  0
  3 10  1  0
  4 11  1  0
  6  5  1  0
  6  7  1  0
  6 15  1  0
  7 12  1  0
  7 13  2  0
  8  9  2  0
 11 14  2  0
  3 16  1  0
  4 17  1  0
  4 18  1  0
  4 19  1  0
  5 20  1  0
  5 21  1  0
  5 22  1  0
  6 23  1  1
  8 24  1  0
  9 25  1  0
 10 26  1  0
 12 27  1  0
 15 28  1  0
M  END
>  <filename_input>  (21) 
7ZOC_T8E_docked.sdf

>  <pdb_id>  (21) 
7ZOC_T8E

>  <pose_rank>  (21) 
20

>  <num_atoms_heavy>  (21) 
15

>  <num_torsions>  (21) 
3

>  <pose>  (21) 
[9.26532777883208, 17.13335524915196, 28.884629152724614, 2.7247178334722046, 0.3026608584271143, -1.1311761483953564, -1.102246163531511, -1.1318450232916162, -2.206169743220766]

>  <energy>  (21) 
-129.01067052955662

>  <inter_energy>  (21) 
-115.86156928738141

>  <intra_energy>  (21) 
0.02494860769954247

>  <rmsd>  (21) 
12.6793

>  <sdf_rank>  (21) 
0

$$$$

     RDKit          3D

 28 28  0  0  0  0  0  0  0  0999 V2000
   10.6386   15.5975   28.0297 C   0  0  0  0  0  0  0  0  0  0  0  0
    8.8776   13.7625   26.8613 C   0  0  0  0  0  0  0  0  0  0  0  0
   11.1287   14.4790   27.3610 C   0  0  0  0  0  0  0  0  0  0  0  0
    6.4787   12.8943   26.5232 C   0  0  0  0  0  0  0  0  0  0  0  0
   12.5124   18.9771   30.1873 C   0  0  0  0  0  0  0  0  0  0  0  0
   12.9448   18.5581   28.7854 C   0  0  1  0  0  0  0  0  0  0  0  0
   11.8192   17.8101   28.0864 C   0  0  0  0  0  0  0  0  0  0  0  0
    9.2623   15.7745   28.1286 C   0  0  0  0  0  0  0  0  0  0  0  0
    8.3959   14.8672   27.5462 C   0  0  0  0  0  0  0  0  0  0  0  0
   10.2582   13.5750   26.7812 C   0  0  0  0  0  0  0  0  0  0  0  0
    7.9414   12.7946   26.2301 C   0  0  0  0  0  0  0  0  0  0  0  0
   11.5724   16.5477   28.5348 N   0  0  0  0  0  0  0  0  0  0  0  0
   11.1995   18.3610   27.1727 O   0  0  0  0  0  0  0  0  0  0  0  0
    8.3620   11.9370   25.4626 O   0  0  0  0  0  0  0  0  0  0  0  0
   13.5729   20.0046   27.8569 S   0  0  0  0  0  0  0  0  0  0  0  0
   12.2142   14.3138   27.2936 H   0  0  0  0  0  0  0  0  0  0  0  0
    6.3227   12.9049   27.6120 H   0  0  0  0  0  0  0  0  0  0  0  0
    6.0796   13.8217   26.0865 H   0  0  0  0  0  0  0  0  0  0  0  0
    5.9575   12.0296   26.0865 H   0  0  0  0  0  0  0  0  0  0  0  0
   13.0928   18.4147   30.9335 H   0  0  0  0  0  0  0  0  0  0  0  0
   12.6913   20.0544   30.3195 H   0  0  0  0  0  0  0  0  0  0  0  0
   11.4413   18.7644   30.3195 H   0  0  0  0  0  0  0  0  0  0  0  0
   13.7845   17.8499   28.8446 H   0  0  0  0  0  0  0  0  0  0  0  0
    8.8605   16.6415   28.6734 H   0  0  0  0  0  0  0  0  0  0  0  0
    7.3103   15.0244   27.6275 H   0  0  0  0  0  0  0  0  0  0  0  0
   10.6582   12.6981   26.2508 H   0  0  0  0  0  0  0  0  0  0  0  0
   12.1327   16.2408   29.3427 H   0  0  0  0  0  0  0  0  0  0  0  0
   13.9907   20.9667   28.7382 H   0  0  0  0  0  0  0  0  0  0  0  0
  1  3  2  0
  1  8  1  0
  1 12  1  0
  2  9  1  0
  2 10  2  0
  2 11  1  0
  3 10  1  0
  4 11  1  0
  6  5  1  0
  6  7  1  0
  6 15  1  0
  7 12  1  0
  7 13  2  0
  8  9  2  0
 11 14  2  0
  3 16  1  0
  4 17  1  0
  4 18  1  0
  4 19  1  0
  5 20  1  0
  5 21  1  0
  5 22  1  0
  6 23  1  1
  8 24  1  0
  9 25  1  0
 10 26  1  0
 12 27  1  0
 15 28  1  0
M  END
>  <filename_input>  (22) 
7ZOC_T8E_docked.sdf

>  <pdb_id>  (22) 
7ZOC_T8E

>  <pose_rank>  (22) 
21

>  <num_atoms_heavy>  (22) 
15

>  <num_torsions>  (22) 
3

>  <pose>  (22) 
[10.638636137123717, 15.597469904171712, 28.029721098078898, -2.2077421437058584, -5.698363792178687, -1.8025299248209152, -3.102359017514733, -0.8555216366532445, 1.155052796704004]

>  <energy>  (22) 
-97.50474761171414

>  <inter_energy>  (22) 
-103.19893149813208

>  <intra_energy>  (22) 
1.5872536995771949

>  <rmsd>  (22) 
11.178

>  <sdf_rank>  (22) 
0

$$$$

     RDKit          3D

 28 28  0  0  0  0  0  0  0  0999 V2000
   18.8432    3.7866   42.3247 C   0  0  0  0  0  0  0  0  0  0  0  0
   17.4131    5.7301   43.7428 C   0  0  0  0  0  0  0  0  0  0  0  0
   17.5023    3.5839   42.6397 C   0  0  0  0  0  0  0  0  0  0  0  0
   15.1654    6.8380   44.3290 C   0  0  0  0  0  0  0  0  0  0  0  0
   19.4214    0.7015   39.1388 C   0  0  0  0  0  0  0  0  0  0  0  0
   20.5143    1.6492   39.6240 C   0  0  1  0  0  0  0  0  0  0  0  0
   19.8976    2.9026   40.2272 C   0  0  0  0  0  0  0  0  0  0  0  0
   19.4655    4.9571   42.7468 C   0  0  0  0  0  0  0  0  0  0  0  0
   18.7537    5.9165   43.4439 C   0  0  0  0  0  0  0  0  0  0  0  0
   16.7957    4.5460   43.3373 C   0  0  0  0  0  0  0  0  0  0  0  0
   16.6507    6.7687   44.4856 C   0  0  0  0  0  0  0  0  0  0  0  0
   19.5072    2.8090   41.5289 N   0  0  0  0  0  0  0  0  0  0  0  0
   19.7805    3.9162   39.5335 O   0  0  0  0  0  0  0  0  0  0  0  0
   17.2312    7.5466   45.2335 O   0  0  0  0  0  0  0  0  0  0  0  0
   21.6667    0.7693   40.7406 S   0  0  0  0  0  0  0  0  0  0  0  0
   17.0025    2.6536   42.3320 H   0  0  0  0  0  0  0  0  0  0  0  0
   14.6926    6.8600   45.3219 H   0  0  0  0  0  0  0  0  0  0  0  0
   14.8972    7.7496   43.7748 H   0  0  0  0  0  0  0  0  0  0  0  0
   14.8136    5.9552   43.7748 H   0  0  0  0  0  0  0  0  0  0  0  0
   18.9097    0.2577   40.0055 H   0  0  0  0  0  0  0  0  0  0  0  0
   18.6949    1.2602   38.5306 H   0  0  0  0  0  0  0  0  0  0  0  0
   19.8718   -0.0968   38.5306 H   0  0  0  0  0  0  0  0  0  0  0  0
   21.1216    1.9929   38.7736 H   0  0  0  0  0  0  0  0  0  0  0  0
   20.5304    5.1206   42.5247 H   0  0  0  0  0  0  0  0  0  0  0  0
   19.2582    6.8396   43.7653 H   0  0  0  0  0  0  0  0  0  0  0  0
   15.7353    4.3763   43.5752 H   0  0  0  0  0  0  0  0  0  0  0  0
   19.7193    1.9169   41.9981 H   0  0  0  0  0  0  0  0  0  0  0  0
   21.3279    1.0280   42.0426 H   0  0  0  0  0  0  0  0  0  0  0  0
  1  3  2  0
  1  8  1  0
  1 12  1  0
  2  9  1  0
  2 10  2  0
  2 11  1  0
  3 10  1  0
  4 11  1  0
  6  5  1  0
  6  7  1  0
  6 15  1  0
  7 12  1  0
  7 13  2  0
  8  9  2  0
 11 14  2  0
  3 16  1  0
  4 17  1  0
  4 18  1  0
  4 19  1  0
  5 20  1  0
  5 21  1  0
  5 22  1  0
  6 23  1  6
  8 24  1  0
  9 25  1  0
 10 26  1  0
 12 27  1  0
 15 28  1  0
M  END
>  <filename_input>  (23) 
7ZOC_T8E_docked.sdf

>  <pdb_id>  (23) 
7ZOC_T8E

>  <pose_rank>  (23) 
22

>  <num_atoms_heavy>  (23) 
15

>  <num_torsions>  (23) 
3

>  <pose>  (23) 
[18.843223432345667, 3.7865896911401506, 42.32472793762381, 0.8828925485868057, -2.420759597117165, 3.5333899935123325, -0.2171211548244267, -0.8866621073539447, 3.878889401848085]

>  <energy>  (23) 
-122.17673982092069

>  <inter_energy>  (23) 
-117.58128872364843

>  <intra_energy>  (23) 
1.2936502403229921

>  <rmsd>  (23) 
11.0635

>  <sdf_rank>  (23) 
0

$$$$

     RDKit          3D

 28 28  0  0  0  0  0  0  0  0999 V2000
   11.7872   16.2073   27.2928 C   0  0  0  0  0  0  0  0  0  0  0  0
    9.5799   14.9196   28.4342 C   0  0  0  0  0  0  0  0  0  0  0  0
   11.7268   15.9998   28.6681 C   0  0  0  0  0  0  0  0  0  0  0  0
    8.2174   14.2743   30.5199 C   0  0  0  0  0  0  0  0  0  0  0  0
   16.0362   18.1981   27.0636 C   0  0  0  0  0  0  0  0  0  0  0  0
   14.7635   18.3729   26.2404 C   0  0  1  0  0  0  0  0  0  0  0  0
   13.5442   17.9830   27.0629 C   0  0  0  0  0  0  0  0  0  0  0  0
   10.7239   15.7872   26.5002 C   0  0  0  0  0  0  0  0  0  0  0  0
    9.6370   15.1477   27.0682 C   0  0  0  0  0  0  0  0  0  0  0  0
   10.6377   15.3605   29.2307 C   0  0  0  0  0  0  0  0  0  0  0  0
    8.4123   14.2243   29.0384 C   0  0  0  0  0  0  0  0  0  0  0  0
   12.9672   16.7902   26.7470 N   0  0  0  0  0  0  0  0  0  0  0  0
   13.1432   18.7400   27.9509 O   0  0  0  0  0  0  0  0  0  0  0  0
    7.6078   13.6334   28.3277 O   0  0  0  0  0  0  0  0  0  0  0  0
   14.6871   20.0628   25.5423 S   0  0  0  0  0  0  0  0  0  0  0  0
   12.5499   16.3462   29.3104 H   0  0  0  0  0  0  0  0  0  0  0  0
    9.1649   14.0311   31.0229 H   0  0  0  0  0  0  0  0  0  0  0  0
    7.8951   15.2842   30.8134 H   0  0  0  0  0  0  0  0  0  0  0  0
    7.4486   13.5443   30.8134 H   0  0  0  0  0  0  0  0  0  0  0  0
   15.7877   18.2323   28.1346 H   0  0  0  0  0  0  0  0  0  0  0  0
   16.4970   17.2283   26.8248 H   0  0  0  0  0  0  0  0  0  0  0  0
   16.7413   19.0079   26.8248 H   0  0  0  0  0  0  0  0  0  0  0  0
   14.7745   17.6904   25.3778 H   0  0  0  0  0  0  0  0  0  0  0  0
   10.7477   15.9648   25.4149 H   0  0  0  0  0  0  0  0  0  0  0  0
    8.8068   14.8157   26.4274 H   0  0  0  0  0  0  0  0  0  0  0  0
   10.6044   15.1977   30.3181 H   0  0  0  0  0  0  0  0  0  0  0  0
   13.4454   16.2388   26.0202 H   0  0  0  0  0  0  0  0  0  0  0  0
   14.6458   20.9767   26.5621 H   0  0  0  0  0  0  0  0  0  0  0  0
  1  3  2  0
  1  8  1  0
  1 12  1  0
  2  9  1  0
  2 10  2  0
  2 11  1  0
  3 10  1  0
  4 11  1  0
  6  5  1  0
  6  7  1  0
  6 15  1  0
  7 12  1  0
  7 13  2  0
  8  9  2  0
 11 14  2  0
  3 16  1  0
  4 17  1  0
  4 18  1  0
  4 19  1  0
  5 20  1  0
  5 21  1  0
  5 22  1  0
  6 23  1  6
  8 24  1  0
  9 25  1  0
 10 26  1  0
 12 27  1  0
 15 28  1  0
M  END
>  <filename_input>  (24) 
7ZOC_T8E_docked.sdf

>  <pdb_id>  (24) 
7ZOC_T8E

>  <pose_rank>  (24) 
23

>  <num_atoms_heavy>  (24) 
15

>  <num_torsions>  (24) 
3

>  <pose>  (24) 
[11.78724846429957, 16.20733699658465, 27.292783303178105, 3.9578316619024076, 1.5826019025709879, 0.32103103544743467, 0.46116241124852786, -3.7590637193480907, 0.5806466013825283]

>  <energy>  (24) 
-111.35090338997449

>  <inter_energy>  (24) 
-117.18040397930191

>  <intra_energy>  (24) 
5.626087046334213

>  <rmsd>  (24) 
11.0929

>  <sdf_rank>  (24) 
0

$$$$

     RDKit          3D

 28 28  0  0  0  0  0  0  0  0999 V2000
   22.9341    6.2864   27.3362 C   0  0  0  0  0  0  0  0  0  0  0  0
   21.1836    8.2200   26.3211 C   0  0  0  0  0  0  0  0  0  0  0  0
   22.1742    7.0708   28.1996 C   0  0  0  0  0  0  0  0  0  0  0  0
   18.8210    8.8593   25.5258 C   0  0  0  0  0  0  0  0  0  0  0  0
   25.6195    3.0357   28.0119 C   0  0  0  0  0  0  0  0  0  0  0  0
   24.4607    3.1909   28.9922 C   0  0  1  0  0  0  0  0  0  0  0  0
   23.3609    4.0454   28.3797 C   0  0  0  0  0  0  0  0  0  0  0  0
   22.8276    6.4958   25.9650 C   0  0  0  0  0  0  0  0  0  0  0  0
   21.9582    7.4497   25.4678 C   0  0  0  0  0  0  0  0  0  0  0  0
   21.3073    8.0234   27.6972 C   0  0  0  0  0  0  0  0  0  0  0  0
   20.2446    9.2386   25.7804 C   0  0  0  0  0  0  0  0  0  0  0  0
   23.7473    5.2580   27.8940 N   0  0  0  0  0  0  0  0  0  0  0  0
   22.2039    3.6175   28.3512 O   0  0  0  0  0  0  0  0  0  0  0  0
   20.6287   10.3821   25.5647 O   0  0  0  0  0  0  0  0  0  0  0  0
   23.8980    1.5492   29.5733 S   0  0  0  0  0  0  0  0  0  0  0  0
   22.2641    6.9320   29.2871 H   0  0  0  0  0  0  0  0  0  0  0  0
   18.3012    8.7208   26.4853 H   0  0  0  0  0  0  0  0  0  0  0  0
   18.3259    9.6569   24.9524 H   0  0  0  0  0  0  0  0  0  0  0  0
   18.7885    7.9211   24.9524 H   0  0  0  0  0  0  0  0  0  0  0  0
   26.5584    2.9100   28.5710 H   0  0  0  0  0  0  0  0  0  0  0  0
   25.4485    2.1524   27.3789 H   0  0  0  0  0  0  0  0  0  0  0  0
   25.6869    3.9329   27.3789 H   0  0  0  0  0  0  0  0  0  0  0  0
   24.7951    3.7305   29.8905 H   0  0  0  0  0  0  0  0  0  0  0  0
   23.4386    5.8990   25.2718 H   0  0  0  0  0  0  0  0  0  0  0  0
   21.8805    7.5992   24.3807 H   0  0  0  0  0  0  0  0  0  0  0  0
   20.7083    8.6330   28.3898 H   0  0  0  0  0  0  0  0  0  0  0  0
   24.7570    5.4570   27.9355 H   0  0  0  0  0  0  0  0  0  0  0  0
   23.8905    1.5276   30.9431 H   0  0  0  0  0  0  0  0  0  0  0  0
  1  3  2  0
  1  8  1  0
  1 12  1  0
  2  9  1  0
  2 10  2  0
  2 11  1  0
  3 10  1  0
  4 11  1  0
  6  5  1  0
  6  7  1  0
  6 15  1  0
  7 12  1  0
  7 13  2  0
  8  9  2  0
 11 14  2  0
  3 16  1  0
  4 17  1  0
  4 18  1  0
  4 19  1  0
  5 20  1  0
  5 21  1  0
  5 22  1  0
  6 23  1  1
  8 24  1  0
  9 25  1  0
 10 26  1  0
 12 27  1  0
 15 28  1  0
M  END
>  <filename_input>  (25) 
7ZOC_T8E_docked.sdf

>  <pdb_id>  (25) 
7ZOC_T8E

>  <pose_rank>  (25) 
24

>  <num_atoms_heavy>  (25) 
15

>  <num_torsions>  (25) 
3

>  <pose>  (25) 
[22.93412161796913, 6.2863511215667485, 27.336178453328856, -2.2237394927721392, 0.06373889718595335, -1.76891427533625, -1.3104395686548551, -1.4395120887582495, 1.4964532124301377]

>  <energy>  (25) 
-110.60712948772537

>  <inter_energy>  (25) 
-108.8061824279305

>  <intra_energy>  (25) 
0.6154133046909326

>  <rmsd>  (25) 
12.2509

>  <sdf_rank>  (25) 
0

$$$$

     RDKit          3D

 28 28  0  0  0  0  0  0  0  0999 V2000
   16.6700   10.3900   35.6750 C   0  0  0  0  0  0  0  0  0  0  0  0
   14.8660    8.5450   34.5910 C   0  0  0  0  0  0  0  0  0  0  0  0
   17.1320    9.3050   34.9350 C   0  0  0  0  0  0  0  0  0  0  0  0
   14.3880    6.5950   32.9810 C   0  0  0  0  0  0  0  0  0  0  0  0
   18.3580   14.3190   38.0920 C   0  0  0  0  0  0  0  0  0  0  0  0
   18.6380   13.4480   36.8710 C   0  0  1  0  0  0  0  0  0  0  0  0
   17.4010   12.6430   36.5010 C   0  0  0  0  0  0  0  0  0  0  0  0
   15.3020   10.5280   35.8870 C   0  0  0  0  0  0  0  0  0  0  0  0
   14.4140    9.6160   35.3460 C   0  0  0  0  0  0  0  0  0  0  0  0
   16.2400    8.3960   34.3970 C   0  0  0  0  0  0  0  0  0  0  0  0
   13.9060    7.5720   34.0050 C   0  0  0  0  0  0  0  0  0  0  0  0
   17.6180   11.3490   36.1350 N   0  0  0  0  0  0  0  0  0  0  0  0
   16.2910   13.1800   36.5460 O   0  0  0  0  0  0  0  0  0  0  0  0
   12.7370    7.5580   34.3720 O   0  0  0  0  0  0  0  0  0  0  0  0
   19.3050   14.4670   35.5050 S   0  0  0  0  0  0  0  0  0  0  0  0
   18.2123    9.1703   34.7776 H   0  0  0  0  0  0  0  0  0  0  0  0
   14.8205    5.7184   33.4855 H   0  0  0  0  0  0  0  0  0  0  0  0
   13.5436    6.2765   32.3520 H   0  0  0  0  0  0  0  0  0  0  0  0
   15.1545    7.0713   32.3520 H   0  0  0  0  0  0  0  0  0  0  0  0
   18.5447   13.7382   39.0073 H   0  0  0  0  0  0  0  0  0  0  0  0
   19.0188   15.1983   38.0745 H   0  0  0  0  0  0  0  0  0  0  0  0
   17.3087   14.6485   38.0745 H   0  0  0  0  0  0  0  0  0  0  0  0
   19.4184   12.7089   37.1048 H   0  0  0  0  0  0  0  0  0  0  0  0
   14.9242   11.3678   36.4887 H   0  0  0  0  0  0  0  0  0  0  0  0
   13.3348    9.7423   35.5172 H   0  0  0  0  0  0  0  0  0  0  0  0
   16.6174    7.5460   33.8096 H   0  0  0  0  0  0  0  0  0  0  0  0
   18.5926   11.0218   36.1990 H   0  0  0  0  0  0  0  0  0  0  0  0
   19.9994   15.5279   36.0237 H   0  0  0  0  0  0  0  0  0  0  0  0
  1  3  2  0
  1  8  1  0
  1 12  1  0
  2  9  1  0
  2 10  2  0
  2 11  1  0
  3 10  1  0
  4 11  1  0
  6  5  1  0
  6  7  1  0
  6 15  1  0
  7 12  1  0
  7 13  2  0
  8  9  2  0
 11 14  2  0
  3 16  1  0
  4 17  1  0
  4 18  1  0
  4 19  1  0
  5 20  1  0
  5 21  1  0
  5 22  1  0
  6 23  1  1
  8 24  1  0
  9 25  1  0
 10 26  1  0
 12 27  1  0
 15 28  1  0
M  END
>  <filename_input>  (26) 
7ZOC_T8E_docked.sdf

>  <pdb_id>  (26) 
7ZOC_T8E

>  <pose_rank>  (26) 
25

>  <num_atoms_heavy>  (26) 
15

>  <num_torsions>  (26) 
3

>  <pose>  (26) 
[16.67, 10.39, 35.675, 1e-06, 1e-06, 1e-06, 0.0, 0.0, 0.0]

>  <energy>  (26) 
-697.7352128328421

>  <inter_energy>  (26) 
-720.4462096716398

>  <intra_energy>  (26) 
14.444280454078443

>  <rmsd>  (26) 
0.0

>  <sdf_rank>  (26) 
0

$$$$
