
     RDKit          3D

 24 23  0  0  0  0  0  0  0  0999 V2000
  -37.7763   25.4880    4.8473 N   0  0  1  0  0  0  0  0  0  0  0  0
  -39.0401   25.1710    5.5152 C   0  0  0  0  0  0  0  0  0  0  0  0
  -38.7848   24.7592    6.9474 C   0  0  0  0  0  0  0  0  0  0  0  0
  -39.0735   25.5564    7.8784 O   0  0  0  0  0  0  0  0  0  0  0  0
  -38.3473   23.6001    7.1324 O   0  0  0  0  0  0  0  0  0  0  0  0
  -37.4875   24.4873    3.8155 C   0  0  0  0  0  0  0  0  0  0  0  0
  -35.9776   24.2716    3.8784 C   0  0  0  0  0  0  0  0  0  0  0  0
  -35.4275   24.1968    2.5485 O   0  0  0  0  0  0  0  0  0  0  0  0
  -37.8231   26.8479    4.2712 C   0  0  0  0  0  0  0  0  0  0  0  0
  -38.7116   27.7248    5.1496 C   0  0  0  0  0  0  0  0  0  0  0  0
  -38.7668   29.0660    4.6273 O   0  0  0  0  0  0  0  0  0  0  0  0
  -37.0160   25.4648    5.5418 H   0  0  0  0  0  0  0  0  0  0  0  0
  -39.6903   26.0582    5.5025 H   0  0  0  0  0  0  0  0  0  0  0  0
  -39.5281   24.3403    4.9844 H   0  0  0  0  0  0  0  0  0  0  0  0
  -38.0204   23.5489    4.0284 H   0  0  0  0  0  0  0  0  0  0  0  0
  -37.8143   24.8185    2.8187 H   0  0  0  0  0  0  0  0  0  0  0  0
  -35.5131   25.1111    4.4165 H   0  0  0  0  0  0  0  0  0  0  0  0
  -35.7724   23.3275    4.4042 H   0  0  0  0  0  0  0  0  0  0  0  0
  -34.4481   24.0635    2.6035 H   0  0  0  0  0  0  0  0  0  0  0  0
  -36.8076   27.2692    4.2355 H   0  0  0  0  0  0  0  0  0  0  0  0
  -38.2309   26.8071    3.2504 H   0  0  0  0  0  0  0  0  0  0  0  0
  -39.7273   27.3030    5.1733 H   0  0  0  0  0  0  0  0  0  0  0  0
  -38.2910   27.7546    6.1656 H   0  0  0  0  0  0  0  0  0  0  0  0
  -38.7933   29.7115    5.3774 H   0  0  0  0  0  0  0  0  0  0  0  0
  1  2  1  0
  1  6  1  0
  1  9  1  0
  2  3  1  0
  3  4  2  0
  3  5  1  0
  6  7  1  0
  7  8  1  0
  9 10  1  0
 10 11  1  0
  1 12  1  1
  2 13  1  0
  2 14  1  0
  6 15  1  0
  6 16  1  0
  7 17  1  0
  7 18  1  0
  8 19  1  0
  9 20  1  0
  9 21  1  0
 10 22  1  0
 10 23  1  0
 11 24  1  0
M  CHG  2   1   1   5  -1
M  END
>  <filename_input>  (1) 
7ZTL_BCN_docked.sdf

>  <pdb_id>  (1) 
7ZTL_BCN

>  <pose_rank>  (1) 
0

>  <num_atoms_heavy>  (1) 
11

>  <num_torsions>  (1) 
6

>  <pose>  (1) 
[-37.77627171230844, 25.48796622758989, 4.847268665618011, 0.7766530266442659, -0.3602995205336961, -1.1141637361154317, -0.6210441327778443, 2.2569290871705765, 13.124217437455139, 15.565872000020972, -7.164662692827674, -4.083439873679221]

>  <energy>  (1) 
-369.86117979185315

>  <inter_energy>  (1) 
-355.8379754951524

>  <intra_energy>  (1) 
3.676227309722237

>  <rmsd>  (1) 
2.1437

>  <sdf_rank>  (1) 
0

$$$$

     RDKit          3D

 24 23  0  0  0  0  0  0  0  0999 V2000
  -37.8997   25.6424    4.8321 N   0  0  1  0  0  0  0  0  0  0  0  0
  -38.3672   25.8467    6.2045 C   0  0  0  0  0  0  0  0  0  0  0  0
  -39.0450   24.5960    6.7168 C   0  0  0  0  0  0  0  0  0  0  0  0
  -38.5586   23.9947    7.7105 O   0  0  0  0  0  0  0  0  0  0  0  0
  -40.1083   24.2565    6.1482 O   0  0  0  0  0  0  0  0  0  0  0  0
  -37.8058   26.9290    4.1355 C   0  0  0  0  0  0  0  0  0  0  0  0
  -39.0788   27.6824    4.5129 C   0  0  0  0  0  0  0  0  0  0  0  0
  -38.7653   29.0392    4.8838 O   0  0  0  0  0  0  0  0  0  0  0  0
  -36.6000   24.9393    4.8282 C   0  0  0  0  0  0  0  0  0  0  0  0
  -35.7132   25.5491    3.7456 C   0  0  0  0  0  0  0  0  0  0  0  0
  -35.1213   24.5129    2.9390 O   0  0  0  0  0  0  0  0  0  0  0  0
  -38.5797   25.0527    4.3314 H   0  0  0  0  0  0  0  0  0  0  0  0
  -37.5084   26.0848    6.8493 H   0  0  0  0  0  0  0  0  0  0  0  0
  -39.0886   26.6771    6.2181 H   0  0  0  0  0  0  0  0  0  0  0  0
  -36.9162   27.4838    4.4684 H   0  0  0  0  0  0  0  0  0  0  0  0
  -37.7112   26.8012    3.0471 H   0  0  0  0  0  0  0  0  0  0  0  0
  -39.7643   27.6904    3.6527 H   0  0  0  0  0  0  0  0  0  0  0  0
  -39.5531   27.1781    5.3678 H   0  0  0  0  0  0  0  0  0  0  0  0
  -38.7476   29.1159    5.8706 H   0  0  0  0  0  0  0  0  0  0  0  0
  -36.1159   25.0521    5.8094 H   0  0  0  0  0  0  0  0  0  0  0  0
  -36.7549   23.8694    4.6252 H   0  0  0  0  0  0  0  0  0  0  0  0
  -36.3219   26.2040    3.1048 H   0  0  0  0  0  0  0  0  0  0  0  0
  -34.9115   26.1293    4.2259 H   0  0  0  0  0  0  0  0  0  0  0  0
  -34.7264   23.8216    3.5276 H   0  0  0  0  0  0  0  0  0  0  0  0
  1  2  1  0
  1  6  1  0
  1  9  1  0
  2  3  1  0
  3  4  2  0
  3  5  1  0
  6  7  1  0
  7  8  1  0
  9 10  1  0
 10 11  1  0
  1 12  1  6
  2 13  1  0
  2 14  1  0
  6 15  1  0
  6 16  1  0
  7 17  1  0
  7 18  1  0
  8 19  1  0
  9 20  1  0
  9 21  1  0
 10 22  1  0
 10 23  1  0
 11 24  1  0
M  CHG  2   1   1   5  -1
M  END
>  <filename_input>  (2) 
7ZTL_BCN_docked.sdf

>  <pdb_id>  (2) 
7ZTL_BCN

>  <pose_rank>  (2) 
1

>  <num_atoms_heavy>  (2) 
11

>  <num_torsions>  (2) 
6

>  <pose>  (2) 
[-37.899693901992876, 25.642392210394213, 4.832064430909792, 1.339063978676667, 0.36713527966817394, -3.5582825406792797, 0.12617454113907312, -3.8261901248512227, 8.55957866165533, 1.4552216942351874, 2.398798468979829, 3.0520370885898473]

>  <energy>  (2) 
-419.55893026742314

>  <inter_energy>  (2) 
-415.4149626149453

>  <intra_energy>  (2) 
0.45035770605731934

>  <rmsd>  (2) 
2.12504

>  <sdf_rank>  (2) 
0

$$$$

     RDKit          3D

 24 23  0  0  0  0  0  0  0  0999 V2000
  -37.3904   26.1328    4.6028 N   0  0  1  0  0  0  0  0  0  0  0  0
  -36.7208   25.2373    3.6575 C   0  0  0  0  0  0  0  0  0  0  0  0
  -35.2292   25.2378    3.9051 C   0  0  0  0  0  0  0  0  0  0  0  0
  -34.4420   25.3071    2.9247 O   0  0  0  0  0  0  0  0  0  0  0  0
  -34.8551   25.2297    5.1006 O   0  0  0  0  0  0  0  0  0  0  0  0
  -37.8951   27.3177    3.9023 C   0  0  0  0  0  0  0  0  0  0  0  0
  -38.8256   28.0054    4.8982 C   0  0  0  0  0  0  0  0  0  0  0  0
  -39.0856   29.3613    4.4850 O   0  0  0  0  0  0  0  0  0  0  0  0
  -38.4817   25.4233    5.3023 C   0  0  0  0  0  0  0  0  0  0  0  0
  -37.8951   24.2230    6.0408 C   0  0  0  0  0  0  0  0  0  0  0  0
  -38.9473   23.4187    6.6070 O   0  0  0  0  0  0  0  0  0  0  0  0
  -36.7092   26.4417    5.3108 H   0  0  0  0  0  0  0  0  0  0  0  0
  -37.1101   24.2166    3.7858 H   0  0  0  0  0  0  0  0  0  0  0  0
  -36.9147   25.5871    2.6328 H   0  0  0  0  0  0  0  0  0  0  0  0
  -37.0654   27.9848    3.6256 H   0  0  0  0  0  0  0  0  0  0  0  0
  -38.4145   27.0536    2.9693 H   0  0  0  0  0  0  0  0  0  0  0  0
  -39.7755   27.4529    4.9486 H   0  0  0  0  0  0  0  0  0  0  0  0
  -38.3445   28.0186    5.8873 H   0  0  0  0  0  0  0  0  0  0  0  0
  -39.1956   29.9346    5.2846 H   0  0  0  0  0  0  0  0  0  0  0  0
  -38.9615   26.1021    6.0228 H   0  0  0  0  0  0  0  0  0  0  0  0
  -39.2329   25.0832    4.5743 H   0  0  0  0  0  0  0  0  0  0  0  0
  -37.3122   23.6128    5.3351 H   0  0  0  0  0  0  0  0  0  0  0  0
  -37.2468   24.5852    6.8522 H   0  0  0  0  0  0  0  0  0  0  0  0
  -38.8969   23.4573    7.5949 H   0  0  0  0  0  0  0  0  0  0  0  0
  1  2  1  0
  1  6  1  0
  1  9  1  0
  2  3  1  0
  3  4  2  0
  3  5  1  0
  6  7  1  0
  7  8  1  0
  9 10  1  0
 10 11  1  0
  1 12  1  1
  2 13  1  0
  2 14  1  0
  6 15  1  0
  6 16  1  0
  7 17  1  0
  7 18  1  0
  8 19  1  0
  9 20  1  0
  9 21  1  0
 10 22  1  0
 10 23  1  0
 11 24  1  0
M  CHG  2   1   1   5  -1
M  END
>  <filename_input>  (3) 
7ZTL_BCN_docked.sdf

>  <pdb_id>  (3) 
7ZTL_BCN

>  <pose_rank>  (3) 
2

>  <num_atoms_heavy>  (3) 
11

>  <num_torsions>  (3) 
6

>  <pose>  (3) 
[-37.39044495210739, 26.13280775985254, 4.602758514370748, -3.0471454208487256, -2.641159575206151, -0.7766378974309694, -0.6573561718152491, -1.966345757151345, 5.962601547523072, 1.9756524389426036, -0.40777908061755513, -3.9543496860342957]

>  <energy>  (3) 
-416.12486061415194

>  <inter_energy>  (3) 
-408.9599306574276

>  <intra_energy>  (3) 
3.748311351756732

>  <rmsd>  (3) 
3.74863

>  <sdf_rank>  (3) 
0

$$$$

     RDKit          3D

 24 23  0  0  0  0  0  0  0  0999 V2000
  -37.4176   26.2545    4.9776 N   0  0  1  0  0  0  0  0  0  0  0  0
  -38.7641   26.8295    4.9737 C   0  0  0  0  0  0  0  0  0  0  0  0
  -38.7483   28.2003    5.6114 C   0  0  0  0  0  0  0  0  0  0  0  0
  -38.1754   28.3567    6.7217 O   0  0  0  0  0  0  0  0  0  0  0  0
  -39.2650   29.1343    4.9557 O   0  0  0  0  0  0  0  0  0  0  0  0
  -37.4103   24.9950    5.7279 C   0  0  0  0  0  0  0  0  0  0  0  0
  -38.8775   24.5899    5.8444 C   0  0  0  0  0  0  0  0  0  0  0  0
  -39.1875   24.2196    7.2021 O   0  0  0  0  0  0  0  0  0  0  0  0
  -36.9379   26.0526    3.5946 C   0  0  0  0  0  0  0  0  0  0  0  0
  -35.5961   25.3262    3.6396 C   0  0  0  0  0  0  0  0  0  0  0  0
  -34.5640   26.1412    3.0520 O   0  0  0  0  0  0  0  0  0  0  0  0
  -36.7748   26.9114    5.4425 H   0  0  0  0  0  0  0  0  0  0  0  0
  -39.1196   26.9154    3.9363 H   0  0  0  0  0  0  0  0  0  0  0  0
  -39.4359   26.1743    5.5477 H   0  0  0  0  0  0  0  0  0  0  0  0
  -36.8398   24.2264    5.1858 H   0  0  0  0  0  0  0  0  0  0  0  0
  -36.9351   25.1065    6.7137 H   0  0  0  0  0  0  0  0  0  0  0  0
  -39.5127   25.4366    5.5451 H   0  0  0  0  0  0  0  0  0  0  0  0
  -39.0642   23.7281    5.1868 H   0  0  0  0  0  0  0  0  0  0  0  0
  -38.6940   24.8091    7.8258 H   0  0  0  0  0  0  0  0  0  0  0  0
  -37.6669   25.4480    3.0351 H   0  0  0  0  0  0  0  0  0  0  0  0
  -36.8193   27.0253    3.0948 H   0  0  0  0  0  0  0  0  0  0  0  0
  -35.3356   25.1105    4.6864 H   0  0  0  0  0  0  0  0  0  0  0  0
  -35.6784   24.3889    3.0698 H   0  0  0  0  0  0  0  0  0  0  0  0
  -34.0287   26.5639    3.7695 H   0  0  0  0  0  0  0  0  0  0  0  0
  1  2  1  0
  1  6  1  0
  1  9  1  0
  2  3  1  0
  3  4  2  0
  3  5  1  0
  6  7  1  0
  7  8  1  0
  9 10  1  0
 10 11  1  0
  1 12  1  1
  2 13  1  0
  2 14  1  0
  6 15  1  0
  6 16  1  0
  7 17  1  0
  7 18  1  0
  8 19  1  0
  9 20  1  0
  9 21  1  0
 10 22  1  0
 10 23  1  0
 11 24  1  0
M  CHG  2   1   1   5  -1
M  END
>  <filename_input>  (4) 
7ZTL_BCN_docked.sdf

>  <pdb_id>  (4) 
7ZTL_BCN

>  <pose_rank>  (4) 
3

>  <num_atoms_heavy>  (4) 
11

>  <num_torsions>  (4) 
6

>  <pose>  (4) 
[-37.417581503739825, 26.254500596018513, 4.977570807939412, 0.8554091771395204, 4.061561177011873, 2.3491196332163296, -0.4750468060261352, -0.4464488380643636, 9.605713563643695, 3.090617954930871, 1.802606425201223, -2.998543719318055]

>  <energy>  (4) 
-414.3454597763471

>  <inter_energy>  (4) 
-397.54156175150206

>  <intra_energy>  (4) 
1.5797127030139417

>  <rmsd>  (4) 
2.56853

>  <sdf_rank>  (4) 
0

$$$$

     RDKit          3D

 24 23  0  0  0  0  0  0  0  0999 V2000
  -38.2173   24.9894    5.3279 N   0  0  1  0  0  0  0  0  0  0  0  0
  -36.8246   25.4403    5.3615 C   0  0  0  0  0  0  0  0  0  0  0  0
  -35.9990   24.6599    4.3639 C   0  0  0  0  0  0  0  0  0  0  0  0
  -34.7477   24.8008    4.3556 O   0  0  0  0  0  0  0  0  0  0  0  0
  -36.6151   23.8554    3.6273 O   0  0  0  0  0  0  0  0  0  0  0  0
  -38.4706   24.0554    6.4292 C   0  0  0  0  0  0  0  0  0  0  0  0
  -39.4287   24.7892    7.3641 C   0  0  0  0  0  0  0  0  0  0  0  0
  -38.7724   25.1004    8.6087 O   0  0  0  0  0  0  0  0  0  0  0  0
  -39.1362   26.1449    5.3884 C   0  0  0  0  0  0  0  0  0  0  0  0
  -38.3907   27.3923    4.9209 C   0  0  0  0  0  0  0  0  0  0  0  0
  -38.5479   28.4586    5.8764 O   0  0  0  0  0  0  0  0  0  0  0  0
  -38.3877   24.4960    4.4400 H   0  0  0  0  0  0  0  0  0  0  0  0
  -36.7830   26.5103    5.1097 H   0  0  0  0  0  0  0  0  0  0  0  0
  -36.4183   25.2759    6.3704 H   0  0  0  0  0  0  0  0  0  0  0  0
  -38.9319   23.1307    6.0523 H   0  0  0  0  0  0  0  0  0  0  0  0
  -37.5421   23.7612    6.9405 H   0  0  0  0  0  0  0  0  0  0  0  0
  -39.7597   25.7225    6.8850 H   0  0  0  0  0  0  0  0  0  0  0  0
  -40.2950   24.1428    7.5681 H   0  0  0  0  0  0  0  0  0  0  0  0
  -39.3505   24.8263    9.3642 H   0  0  0  0  0  0  0  0  0  0  0  0
  -40.0010   25.9640    4.7331 H   0  0  0  0  0  0  0  0  0  0  0  0
  -39.4908   26.2865    6.4200 H   0  0  0  0  0  0  0  0  0  0  0  0
  -37.3216   27.1567    4.8134 H   0  0  0  0  0  0  0  0  0  0  0  0
  -38.8057   27.7150    3.9547 H   0  0  0  0  0  0  0  0  0  0  0  0
  -38.4936   28.0904    6.7938 H   0  0  0  0  0  0  0  0  0  0  0  0
  1  2  1  0
  1  6  1  0
  1  9  1  0
  2  3  1  0
  3  4  2  0
  3  5  1  0
  6  7  1  0
  7  8  1  0
  9 10  1  0
 10 11  1  0
  1 12  1  6
  2 13  1  0
  2 14  1  0
  6 15  1  0
  6 16  1  0
  7 17  1  0
  7 18  1  0
  8 19  1  0
  9 20  1  0
  9 21  1  0
 10 22  1  0
 10 23  1  0
 11 24  1  0
M  CHG  2   1   1   5  -1
M  END
>  <filename_input>  (5) 
7ZTL_BCN_docked.sdf

>  <pdb_id>  (5) 
7ZTL_BCN

>  <pose_rank>  (5) 
4

>  <num_atoms_heavy>  (5) 
11

>  <num_torsions>  (5) 
6

>  <pose>  (5) 
[-38.21725259210822, 24.989394067752965, 5.327928556323746, 2.663569639459784, -2.038523715744875, 2.082641216746706, -25.97369675184457, -2.5993000123459042, 4.997582703320405, -2.8385575022928475, -7.335635176520065, -3.1846421327688246]

>  <energy>  (5) 
-314.1176171965013

>  <inter_energy>  (5) 
-308.5624934413945

>  <intra_energy>  (5) 
3.679695299496779

>  <rmsd>  (5) 
3.93529

>  <sdf_rank>  (5) 
0

$$$$

     RDKit          3D

 24 23  0  0  0  0  0  0  0  0999 V2000
  -36.9620   25.2877    3.6978 N   0  0  1  0  0  0  0  0  0  0  0  0
  -35.8665   25.9978    4.3607 C   0  0  0  0  0  0  0  0  0  0  0  0
  -34.5469   25.3276    4.0512 C   0  0  0  0  0  0  0  0  0  0  0  0
  -34.0264   25.4870    2.9157 O   0  0  0  0  0  0  0  0  0  0  0  0
  -34.0063   24.6877    4.9825 O   0  0  0  0  0  0  0  0  0  0  0  0
  -38.2314   25.9786    3.9440 C   0  0  0  0  0  0  0  0  0  0  0  0
  -38.3697   26.0327    5.4633 C   0  0  0  0  0  0  0  0  0  0  0  0
  -37.6307   24.9550    6.0711 O   0  0  0  0  0  0  0  0  0  0  0  0
  -36.6959   25.1637    2.2496 C   0  0  0  0  0  0  0  0  0  0  0  0
  -36.3253   23.7159    1.9389 C   0  0  0  0  0  0  0  0  0  0  0  0
  -36.9121   22.8281    2.9096 O   0  0  0  0  0  0  0  0  0  0  0  0
  -37.0299   24.3375    4.0893 H   0  0  0  0  0  0  0  0  0  0  0  0
  -35.8385   27.0377    4.0032 H   0  0  0  0  0  0  0  0  0  0  0  0
  -36.0323   25.9788    5.4480 H   0  0  0  0  0  0  0  0  0  0  0  0
  -38.2058   26.9944    3.5226 H   0  0  0  0  0  0  0  0  0  0  0  0
  -39.0795   25.4607    3.4722 H   0  0  0  0  0  0  0  0  0  0  0  0
  -37.9780   26.9931    5.8295 H   0  0  0  0  0  0  0  0  0  0  0  0
  -39.4323   25.9330    5.7298 H   0  0  0  0  0  0  0  0  0  0  0  0
  -37.6842   25.0330    7.0566 H   0  0  0  0  0  0  0  0  0  0  0  0
  -37.5961   25.4445    1.6831 H   0  0  0  0  0  0  0  0  0  0  0  0
  -35.8692   25.8305    1.9634 H   0  0  0  0  0  0  0  0  0  0  0  0
  -36.6962   23.4537    0.9371 H   0  0  0  0  0  0  0  0  0  0  0  0
  -35.2308   23.6119    1.9758 H   0  0  0  0  0  0  0  0  0  0  0  0
  -36.6997   23.1495    3.8216 H   0  0  0  0  0  0  0  0  0  0  0  0
  1  2  1  0
  1  6  1  0
  1  9  1  0
  2  3  1  0
  3  4  2  0
  3  5  1  0
  6  7  1  0
  7  8  1  0
  9 10  1  0
 10 11  1  0
  1 12  1  1
  2 13  1  0
  2 14  1  0
  6 15  1  0
  6 16  1  0
  7 17  1  0
  7 18  1  0
  8 19  1  0
  9 20  1  0
  9 21  1  0
 10 22  1  0
 10 23  1  0
 11 24  1  0
M  CHG  2   1   1   5  -1
M  END
>  <filename_input>  (6) 
7ZTL_BCN_docked.sdf

>  <pdb_id>  (6) 
7ZTL_BCN

>  <pose_rank>  (6) 
5

>  <num_atoms_heavy>  (6) 
11

>  <num_torsions>  (6) 
6

>  <pose>  (6) 
[-36.9619645469539, 25.28773603875592, 3.6977920622192997, -1.1276602629431127, -0.3617844431716185, -2.8755415292139777, 6.9001880923140275, -4.565157425976652, -4.246257518737362, 4.956223686481402, 0.4287446298144808, 5.815384706364054]

>  <energy>  (6) 
-290.7034358900996

>  <inter_energy>  (6) 
-345.4852564297711

>  <intra_energy>  (6) 
66.24953243104302

>  <rmsd>  (6) 
3.70924

>  <sdf_rank>  (6) 
0

$$$$

     RDKit          3D

 24 23  0  0  0  0  0  0  0  0999 V2000
  -36.7905   25.8885    4.1969 N   0  0  1  0  0  0  0  0  0  0  0  0
  -35.9066   24.8147    4.6545 C   0  0  0  0  0  0  0  0  0  0  0  0
  -34.4682   25.2807    4.6400 C   0  0  0  0  0  0  0  0  0  0  0  0
  -34.1200   26.1795    3.8298 O   0  0  0  0  0  0  0  0  0  0  0  0
  -33.7029   24.7776    5.4947 O   0  0  0  0  0  0  0  0  0  0  0  0
  -37.5075   25.4696    2.9887 C   0  0  0  0  0  0  0  0  0  0  0  0
  -36.4793   24.7069    2.1571 C   0  0  0  0  0  0  0  0  0  0  0  0
  -37.0995   23.5813    1.5051 O   0  0  0  0  0  0  0  0  0  0  0  0
  -37.7328   26.2739    5.2679 C   0  0  0  0  0  0  0  0  0  0  0  0
  -38.1213   27.7380    5.0790 C   0  0  0  0  0  0  0  0  0  0  0  0
  -38.6088   28.2917    6.3161 O   0  0  0  0  0  0  0  0  0  0  0  0
  -36.2208   26.7145    3.9646 H   0  0  0  0  0  0  0  0  0  0  0  0
  -36.1849   24.5267    5.6790 H   0  0  0  0  0  0  0  0  0  0  0  0
  -36.0111   23.9519    3.9803 H   0  0  0  0  0  0  0  0  0  0  0  0
  -38.3537   24.8169    3.2491 H   0  0  0  0  0  0  0  0  0  0  0  0
  -37.9252   26.3270    2.4405 H   0  0  0  0  0  0  0  0  0  0  0  0
  -36.0568   25.3796    1.3962 H   0  0  0  0  0  0  0  0  0  0  0  0
  -35.6821   24.3413    2.8211 H   0  0  0  0  0  0  0  0  0  0  0  0
  -37.4453   22.9537    2.1881 H   0  0  0  0  0  0  0  0  0  0  0  0
  -38.6322   25.6429    5.2136 H   0  0  0  0  0  0  0  0  0  0  0  0
  -37.2574   26.1375    6.2504 H   0  0  0  0  0  0  0  0  0  0  0  0
  -37.2397   28.3074    4.7496 H   0  0  0  0  0  0  0  0  0  0  0  0
  -38.9167   27.8014    4.3218 H   0  0  0  0  0  0  0  0  0  0  0  0
  -38.1907   27.8168    7.0776 H   0  0  0  0  0  0  0  0  0  0  0  0
  1  2  1  0
  1  6  1  0
  1  9  1  0
  2  3  1  0
  3  4  2  0
  3  5  1  0
  6  7  1  0
  7  8  1  0
  9 10  1  0
 10 11  1  0
  1 12  1  6
  2 13  1  0
  2 14  1  0
  6 15  1  0
  6 16  1  0
  7 17  1  0
  7 18  1  0
  8 19  1  0
  9 20  1  0
  9 21  1  0
 10 22  1  0
 10 23  1  0
 11 24  1  0
M  CHG  2   1   1   5  -1
M  END
>  <filename_input>  (7) 
7ZTL_BCN_docked.sdf

>  <pdb_id>  (7) 
7ZTL_BCN

>  <pose_rank>  (7) 
6

>  <num_atoms_heavy>  (7) 
11

>  <num_torsions>  (7) 
6

>  <pose>  (7) 
[-36.790528147065565, 25.888510858021966, 4.196885232896009, -1.3163180902745162, -4.3565297488456585, 1.3426078257569263, -0.49801932738814164, 6.206793214418069, 2.3358468869138855, 1.6017540646156796, 1.2159276063410016, 2.5860514337287994]

>  <energy>  (7) 
-352.4961187725447

>  <inter_energy>  (7) 
-361.6857561860705

>  <intra_energy>  (7) 
13.020208865583129

>  <rmsd>  (7) 
3.30198

>  <sdf_rank>  (7) 
0

$$$$

     RDKit          3D

 24 23  0  0  0  0  0  0  0  0999 V2000
  -37.8059   25.3639    4.7345 N   0  0  1  0  0  0  0  0  0  0  0  0
  -37.4077   26.7031    5.1724 C   0  0  0  0  0  0  0  0  0  0  0  0
  -38.6197   27.4870    5.6228 C   0  0  0  0  0  0  0  0  0  0  0  0
  -39.2049   27.1583    6.6882 O   0  0  0  0  0  0  0  0  0  0  0  0
  -38.9427   28.4771    4.9266 O   0  0  0  0  0  0  0  0  0  0  0  0
  -37.1625   25.0397    3.4577 C   0  0  0  0  0  0  0  0  0  0  0  0
  -35.7477   24.5977    3.8232 C   0  0  0  0  0  0  0  0  0  0  0  0
  -35.3192   23.5278    2.9582 O   0  0  0  0  0  0  0  0  0  0  0  0
  -37.4722   24.3618    5.7679 C   0  0  0  0  0  0  0  0  0  0  0  0
  -38.6812   23.4551    5.9836 C   0  0  0  0  0  0  0  0  0  0  0  0
  -39.8760   24.2423    6.1486 O   0  0  0  0  0  0  0  0  0  0  0  0
  -38.8264   25.3471    4.5956 H   0  0  0  0  0  0  0  0  0  0  0  0
  -36.6995   26.6161    6.0096 H   0  0  0  0  0  0  0  0  0  0  0  0
  -36.9323   27.2291    4.3314 H   0  0  0  0  0  0  0  0  0  0  0  0
  -37.7015   24.2266    2.9496 H   0  0  0  0  0  0  0  0  0  0  0  0
  -37.1601   25.8976    2.7691 H   0  0  0  0  0  0  0  0  0  0  0  0
  -35.0613   25.4502    3.7134 H   0  0  0  0  0  0  0  0  0  0  0  0
  -35.7418   24.2409    4.8638 H   0  0  0  0  0  0  0  0  0  0  0  0
  -35.0128   22.7626    3.5066 H   0  0  0  0  0  0  0  0  0  0  0  0
  -36.6135   23.7600    5.4355 H   0  0  0  0  0  0  0  0  0  0  0  0
  -37.2127   24.8683    6.7092 H   0  0  0  0  0  0  0  0  0  0  0  0
  -38.7994   22.7951    5.1116 H   0  0  0  0  0  0  0  0  0  0  0  0
  -38.5203   22.8559    6.8920 H   0  0  0  0  0  0  0  0  0  0  0  0
  -40.0605   24.3638    7.1136 H   0  0  0  0  0  0  0  0  0  0  0  0
  1  2  1  0
  1  6  1  0
  1  9  1  0
  2  3  1  0
  3  4  2  0
  3  5  1  0
  6  7  1  0
  7  8  1  0
  9 10  1  0
 10 11  1  0
  1 12  1  6
  2 13  1  0
  2 14  1  0
  6 15  1  0
  6 16  1  0
  7 17  1  0
  7 18  1  0
  8 19  1  0
  9 20  1  0
  9 21  1  0
 10 22  1  0
 10 23  1  0
 11 24  1  0
M  CHG  2   1   1   5  -1
M  END
>  <filename_input>  (8) 
7ZTL_BCN_docked.sdf

>  <pdb_id>  (8) 
7ZTL_BCN

>  <pose_rank>  (8) 
7

>  <num_atoms_heavy>  (8) 
11

>  <num_torsions>  (8) 
6

>  <pose>  (8) 
[-37.80593652047862, 25.36387540341964, 4.73453182444741, -1.099209172803432, 1.175928850241848, 1.3971099948251047, -6.526593375030734, 1.6225768573508146, -1.8408242458148294, 1.6217362684223084, 0.8826752343770496, -1.7711969369363882]

>  <energy>  (8) 
-334.86192939809393

>  <inter_energy>  (8) 
-341.1406219812487

>  <intra_energy>  (8) 
5.089124685153397

>  <rmsd>  (8) 
2.7304

>  <sdf_rank>  (8) 
0

$$$$

     RDKit          3D

 24 23  0  0  0  0  0  0  0  0999 V2000
  -38.2259   25.8409    6.1600 N   0  0  1  0  0  0  0  0  0  0  0  0
  -37.5069   26.7606    7.0437 C   0  0  0  0  0  0  0  0  0  0  0  0
  -37.9743   26.5856    8.4710 C   0  0  0  0  0  0  0  0  0  0  0  0
  -39.0731   26.0124    8.6935 O   0  0  0  0  0  0  0  0  0  0  0  0
  -37.1962   26.9758    9.3719 O   0  0  0  0  0  0  0  0  0  0  0  0
  -38.8256   26.5799    5.0449 C   0  0  0  0  0  0  0  0  0  0  0  0
  -38.6579   28.0539    5.4053 C   0  0  0  0  0  0  0  0  0  0  0  0
  -38.5912   28.8562    4.2100 O   0  0  0  0  0  0  0  0  0  0  0  0
  -37.3203   24.7811    5.6699 C   0  0  0  0  0  0  0  0  0  0  0  0
  -36.4299   25.3615    4.5743 C   0  0  0  0  0  0  0  0  0  0  0  0
  -35.0430   25.2648    4.9508 O   0  0  0  0  0  0  0  0  0  0  0  0
  -38.9829   25.3887    6.6923 H   0  0  0  0  0  0  0  0  0  0  0  0
  -36.4285   26.5512    6.9863 H   0  0  0  0  0  0  0  0  0  0  0  0
  -37.7063   27.7943    6.7249 H   0  0  0  0  0  0  0  0  0  0  0  0
  -38.3026   26.3509    4.1047 H   0  0  0  0  0  0  0  0  0  0  0  0
  -39.8815   26.3111    4.8941 H   0  0  0  0  0  0  0  0  0  0  0  0
  -39.5153   28.3787    6.0130 H   0  0  0  0  0  0  0  0  0  0  0  0
  -37.7244   28.1795    5.9733 H   0  0  0  0  0  0  0  0  0  0  0  0
  -38.5118   29.8114    4.4578 H   0  0  0  0  0  0  0  0  0  0  0  0
  -36.6960   24.4160    6.4988 H   0  0  0  0  0  0  0  0  0  0  0  0
  -37.9090   23.9433    5.2679 H   0  0  0  0  0  0  0  0  0  0  0  0
  -36.5920   24.8021    3.6411 H   0  0  0  0  0  0  0  0  0  0  0  0
  -36.6872   26.4211    4.4293 H   0  0  0  0  0  0  0  0  0  0  0  0
  -34.9686   25.2596    5.9379 H   0  0  0  0  0  0  0  0  0  0  0  0
  1  2  1  0
  1  6  1  0
  1  9  1  0
  2  3  1  0
  3  4  2  0
  3  5  1  0
  6  7  1  0
  7  8  1  0
  9 10  1  0
 10 11  1  0
  1 12  1  1
  2 13  1  0
  2 14  1  0
  6 15  1  0
  6 16  1  0
  7 17  1  0
  7 18  1  0
  8 19  1  0
  9 20  1  0
  9 21  1  0
 10 22  1  0
 10 23  1  0
 11 24  1  0
M  CHG  2   1   1   5  -1
M  END
>  <filename_input>  (9) 
7ZTL_BCN_docked.sdf

>  <pdb_id>  (9) 
7ZTL_BCN

>  <pose_rank>  (9) 
8

>  <num_atoms_heavy>  (9) 
11

>  <num_torsions>  (9) 
6

>  <pose>  (9) 
[-38.22589489554344, 25.840862152609525, 6.159976521586131, 0.08143760562090532, -1.3058441086205994, -3.511039901776939, -0.3565378336152908, 0.08149474523387931, -3.419090107138752, -4.505254302314834, 3.5088501638865686, -5.12315239305561]

>  <energy>  (9) 
-392.91134181044606

>  <inter_energy>  (9) 
-392.25788559638386

>  <intra_energy>  (9) 
4.6608016044465375

>  <rmsd>  (9) 
1.66469

>  <sdf_rank>  (9) 
0

$$$$

     RDKit          3D

 24 23  0  0  0  0  0  0  0  0999 V2000
  -38.2915   26.1714    5.6256 N   0  0  1  0  0  0  0  0  0  0  0  0
  -38.9575   26.0131    6.9199 C   0  0  0  0  0  0  0  0  0  0  0  0
  -38.5784   27.1478    7.8444 C   0  0  0  0  0  0  0  0  0  0  0  0
  -37.3627   27.4391    7.9958 O   0  0  0  0  0  0  0  0  0  0  0  0
  -39.5192   27.7854    8.3713 O   0  0  0  0  0  0  0  0  0  0  0  0
  -37.7744   24.8795    5.1642 C   0  0  0  0  0  0  0  0  0  0  0  0
  -36.3539   25.1654    4.6837 C   0  0  0  0  0  0  0  0  0  0  0  0
  -35.8755   24.0804    3.8647 O   0  0  0  0  0  0  0  0  0  0  0  0
  -39.2188   26.7574    4.6355 C   0  0  0  0  0  0  0  0  0  0  0  0
  -38.5786   28.0094    4.0415 C   0  0  0  0  0  0  0  0  0  0  0  0
  -39.2305   29.1923    4.5419 O   0  0  0  0  0  0  0  0  0  0  0  0
  -37.4967   26.8172    5.7353 H   0  0  0  0  0  0  0  0  0  0  0  0
  -40.0473   26.0148    6.7704 H   0  0  0  0  0  0  0  0  0  0  0  0
  -38.6420   25.0611    7.3718 H   0  0  0  0  0  0  0  0  0  0  0  0
  -37.7634   24.1517    5.9890 H   0  0  0  0  0  0  0  0  0  0  0  0
  -38.3985   24.4474    4.3681 H   0  0  0  0  0  0  0  0  0  0  0  0
  -36.3502   26.0941    4.0942 H   0  0  0  0  0  0  0  0  0  0  0  0
  -35.6948   25.2716    5.5579 H   0  0  0  0  0  0  0  0  0  0  0  0
  -35.5519   23.3467    4.4452 H   0  0  0  0  0  0  0  0  0  0  0  0
  -39.4151   26.0279    3.8360 H   0  0  0  0  0  0  0  0  0  0  0  0
  -40.1691   27.0196    5.1235 H   0  0  0  0  0  0  0  0  0  0  0  0
  -37.5141   28.0380    4.3175 H   0  0  0  0  0  0  0  0  0  0  0  0
  -38.6845   27.9795    2.9470 H   0  0  0  0  0  0  0  0  0  0  0  0
  -39.2234   29.1793    5.5318 H   0  0  0  0  0  0  0  0  0  0  0  0
  1  2  1  0
  1  6  1  0
  1  9  1  0
  2  3  1  0
  3  4  2  0
  3  5  1  0
  6  7  1  0
  7  8  1  0
  9 10  1  0
 10 11  1  0
  1 12  1  1
  2 13  1  0
  2 14  1  0
  6 15  1  0
  6 16  1  0
  7 17  1  0
  7 18  1  0
  8 19  1  0
  9 20  1  0
  9 21  1  0
 10 22  1  0
 10 23  1  0
 11 24  1  0
M  CHG  2   1   1   5  -1
M  END
>  <filename_input>  (10) 
7ZTL_BCN_docked.sdf

>  <pdb_id>  (10) 
7ZTL_BCN

>  <pose_rank>  (10) 
9

>  <num_atoms_heavy>  (10) 
11

>  <num_torsions>  (10) 
6

>  <pose>  (10) 
[-38.291547682239774, 26.17141948004538, 5.625550501840208, -0.33128818900164547, 0.9578175083793375, 5.545563415834123, -0.17974329819831797, -0.46931668275803234, 0.6944618346976441, -3.7367703920754973, 0.7475896092764894, 3.4810632900854386]

>  <energy>  (10) 
-388.15926358553287

>  <inter_energy>  (10) 
-371.8871764655456

>  <intra_energy>  (10) 
0.5272568817737917

>  <rmsd>  (10) 
1.83789

>  <sdf_rank>  (10) 
0

$$$$

     RDKit          3D

 24 23  0  0  0  0  0  0  0  0999 V2000
  -37.2341   24.8250    3.2997 N   0  0  1  0  0  0  0  0  0  0  0  0
  -35.8753   24.5582    2.8240 C   0  0  0  0  0  0  0  0  0  0  0  0
  -34.8627   25.1628    3.7701 C   0  0  0  0  0  0  0  0  0  0  0  0
  -34.6476   24.6071    4.8794 O   0  0  0  0  0  0  0  0  0  0  0  0
  -34.2389   26.1694    3.3618 O   0  0  0  0  0  0  0  0  0  0  0  0
  -37.7038   23.7126    4.1311 C   0  0  0  0  0  0  0  0  0  0  0  0
  -38.3270   24.3675    5.3612 C   0  0  0  0  0  0  0  0  0  0  0  0
  -39.0311   23.3861    6.1473 O   0  0  0  0  0  0  0  0  0  0  0  0
  -37.2800   26.1012    4.0432 C   0  0  0  0  0  0  0  0  0  0  0  0
  -38.3774   26.9793    3.4474 C   0  0  0  0  0  0  0  0  0  0  0  0
  -38.6023   28.1344    4.2780 O   0  0  0  0  0  0  0  0  0  0  0  0
  -37.8622   24.9093    2.4877 H   0  0  0  0  0  0  0  0  0  0  0  0
  -35.7168   23.4711    2.7683 H   0  0  0  0  0  0  0  0  0  0  0  0
  -35.7490   25.0076    1.8279 H   0  0  0  0  0  0  0  0  0  0  0  0
  -38.4533   23.1164    3.5901 H   0  0  0  0  0  0  0  0  0  0  0  0
  -36.8868   23.0269    4.4000 H   0  0  0  0  0  0  0  0  0  0  0  0
  -37.5329   24.8206    5.9728 H   0  0  0  0  0  0  0  0  0  0  0  0
  -39.0377   25.1407    5.0338 H   0  0  0  0  0  0  0  0  0  0  0  0
  -38.8955   23.5751    7.1096 H   0  0  0  0  0  0  0  0  0  0  0  0
  -37.4992   25.9038    5.1029 H   0  0  0  0  0  0  0  0  0  0  0  0
  -36.3094   26.6131    3.9666 H   0  0  0  0  0  0  0  0  0  0  0  0
  -38.0727   27.3088    2.4431 H   0  0  0  0  0  0  0  0  0  0  0  0
  -39.3081   26.3960    3.3876 H   0  0  0  0  0  0  0  0  0  0  0  0
  -38.5510   27.8707    5.2308 H   0  0  0  0  0  0  0  0  0  0  0  0
  1  2  1  0
  1  6  1  0
  1  9  1  0
  2  3  1  0
  3  4  2  0
  3  5  1  0
  6  7  1  0
  7  8  1  0
  9 10  1  0
 10 11  1  0
  1 12  1  6
  2 13  1  0
  2 14  1  0
  6 15  1  0
  6 16  1  0
  7 17  1  0
  7 18  1  0
  8 19  1  0
  9 20  1  0
  9 21  1  0
 10 22  1  0
 10 23  1  0
 11 24  1  0
M  CHG  2   1   1   5  -1
M  END
>  <filename_input>  (11) 
7ZTL_BCN_docked.sdf

>  <pdb_id>  (11) 
7ZTL_BCN

>  <pose_rank>  (11) 
10

>  <num_atoms_heavy>  (11) 
11

>  <num_torsions>  (11) 
6

>  <pose>  (11) 
[-37.23407558589371, 24.82503017947437, 3.299708720591649, 1.7529910101003414, -2.93021076972268, 1.3406099555663766, 2.087491546537505, 1.7057496896611184, -0.9091280982947124, 2.0881260687568983, 0.77785345745134, -4.235238764421068]

>  <energy>  (11) 
-334.1254372860775

>  <inter_energy>  (11) 
-361.0380940352869

>  <intra_energy>  (11) 
26.042226564266016

>  <rmsd>  (11) 
3.81218

>  <sdf_rank>  (11) 
0

$$$$

     RDKit          3D

 24 23  0  0  0  0  0  0  0  0999 V2000
  -38.0881   25.5823    6.4551 N   0  0  1  0  0  0  0  0  0  0  0  0
  -37.8773   24.4073    5.6072 C   0  0  0  0  0  0  0  0  0  0  0  0
  -36.6788   24.6192    4.7101 C   0  0  0  0  0  0  0  0  0  0  0  0
  -36.8082   24.4781    3.4655 O   0  0  0  0  0  0  0  0  0  0  0  0
  -35.6177   24.9897    5.2633 O   0  0  0  0  0  0  0  0  0  0  0  0
  -39.3681   26.2170    6.1263 C   0  0  0  0  0  0  0  0  0  0  0  0
  -39.1951   26.7564    4.7087 C   0  0  0  0  0  0  0  0  0  0  0  0
  -38.5246   28.0317    4.7375 O   0  0  0  0  0  0  0  0  0  0  0  0
  -38.0322   25.2060    7.8829 C   0  0  0  0  0  0  0  0  0  0  0  0
  -39.3769   25.5271    8.5302 C   0  0  0  0  0  0  0  0  0  0  0  0
  -39.3297   25.2597    9.9447 O   0  0  0  0  0  0  0  0  0  0  0  0
  -37.3351   26.2623    6.2776 H   0  0  0  0  0  0  0  0  0  0  0  0
  -37.7040   23.5267    6.2432 H   0  0  0  0  0  0  0  0  0  0  0  0
  -38.7695   24.2502    4.9832 H   0  0  0  0  0  0  0  0  0  0  0  0
  -40.1843   25.4805    6.1618 H   0  0  0  0  0  0  0  0  0  0  0  0
  -39.6276   27.0128    6.8401 H   0  0  0  0  0  0  0  0  0  0  0  0
  -38.5969   26.0451    4.1203 H   0  0  0  0  0  0  0  0  0  0  0  0
  -40.1870   26.8838    4.2507 H   0  0  0  0  0  0  0  0  0  0  0  0
  -38.3797   28.3072    5.6773 H   0  0  0  0  0  0  0  0  0  0  0  0
  -37.8261   24.1293    7.9735 H   0  0  0  0  0  0  0  0  0  0  0  0
  -37.2318   25.7682    8.3862 H   0  0  0  0  0  0  0  0  0  0  0  0
  -39.6118   26.5896    8.3697 H   0  0  0  0  0  0  0  0  0  0  0  0
  -40.1528   24.8953    8.0733 H   0  0  0  0  0  0  0  0  0  0  0  0
  -39.4782   26.1012   10.4447 H   0  0  0  0  0  0  0  0  0  0  0  0
  1  2  1  0
  1  6  1  0
  1  9  1  0
  2  3  1  0
  3  4  2  0
  3  5  1  0
  6  7  1  0
  7  8  1  0
  9 10  1  0
 10 11  1  0
  1 12  1  1
  2 13  1  0
  2 14  1  0
  6 15  1  0
  6 16  1  0
  7 17  1  0
  7 18  1  0
  8 19  1  0
  9 20  1  0
  9 21  1  0
 10 22  1  0
 10 23  1  0
 11 24  1  0
M  CHG  2   1   1   5  -1
M  END
>  <filename_input>  (12) 
7ZTL_BCN_docked.sdf

>  <pdb_id>  (12) 
7ZTL_BCN

>  <pose_rank>  (12) 
11

>  <num_atoms_heavy>  (12) 
11

>  <num_torsions>  (12) 
6

>  <pose>  (12) 
[-38.08811527776699, 25.582296634744292, 6.45509685866859, -1.8089441515618299, -3.2096610249167825, 0.645191111872101, -0.5580664579746784, -1.7929233382117917, -4.408366376200325, 3.9628666130077055, 2.771531077931169, 2.282629570926727]

>  <energy>  (12) 
-328.82221854137

>  <inter_energy>  (12) 
-328.8455239214691

>  <intra_energy>  (12) 
7.649510972227203

>  <rmsd>  (12) 
4.07603

>  <sdf_rank>  (12) 
0

$$$$

     RDKit          3D

 24 23  0  0  0  0  0  0  0  0999 V2000
  -37.8932   25.8671    5.1375 N   0  0  1  0  0  0  0  0  0  0  0  0
  -37.6965   26.5464    6.4196 C   0  0  0  0  0  0  0  0  0  0  0  0
  -38.3518   25.7605    7.5327 C   0  0  0  0  0  0  0  0  0  0  0  0
  -39.5803   25.4944    7.4584 O   0  0  0  0  0  0  0  0  0  0  0  0
  -37.6058   25.3588    8.4554 O   0  0  0  0  0  0  0  0  0  0  0  0
  -38.8239   26.6308    4.3009 C   0  0  0  0  0  0  0  0  0  0  0  0
  -38.8757   28.0221    4.9270 C   0  0  0  0  0  0  0  0  0  0  0  0
  -38.2907   28.9929    4.0370 O   0  0  0  0  0  0  0  0  0  0  0  0
  -36.5988   25.6724    4.4519 C   0  0  0  0  0  0  0  0  0  0  0  0
  -36.5896   24.2924    3.7992 C   0  0  0  0  0  0  0  0  0  0  0  0
  -37.7714   23.5555    4.1666 O   0  0  0  0  0  0  0  0  0  0  0  0
  -38.3022   24.9378    5.3106 H   0  0  0  0  0  0  0  0  0  0  0  0
  -36.6190   26.6345    6.6225 H   0  0  0  0  0  0  0  0  0  0  0  0
  -38.1522   27.5463    6.3697 H   0  0  0  0  0  0  0  0  0  0  0  0
  -38.4551   26.6871    3.2660 H   0  0  0  0  0  0  0  0  0  0  0  0
  -39.8180   26.1619    4.2583 H   0  0  0  0  0  0  0  0  0  0  0  0
  -39.9238   28.2936    5.1219 H   0  0  0  0  0  0  0  0  0  0  0  0
  -38.3078   28.0121    5.8690 H   0  0  0  0  0  0  0  0  0  0  0  0
  -37.8592   29.7089    4.5674 H   0  0  0  0  0  0  0  0  0  0  0  0
  -36.4685   26.4465    3.6813 H   0  0  0  0  0  0  0  0  0  0  0  0
  -35.7764   25.7472    5.1786 H   0  0  0  0  0  0  0  0  0  0  0  0
  -36.5603   24.4088    2.7058 H   0  0  0  0  0  0  0  0  0  0  0  0
  -35.7030   23.7403    4.1444 H   0  0  0  0  0  0  0  0  0  0  0  0
  -37.8401   23.5126    5.1533 H   0  0  0  0  0  0  0  0  0  0  0  0
  1  2  1  0
  1  6  1  0
  1  9  1  0
  2  3  1  0
  3  4  2  0
  3  5  1  0
  6  7  1  0
  7  8  1  0
  9 10  1  0
 10 11  1  0
  1 12  1  1
  2 13  1  0
  2 14  1  0
  6 15  1  0
  6 16  1  0
  7 17  1  0
  7 18  1  0
  8 19  1  0
  9 20  1  0
  9 21  1  0
 10 22  1  0
 10 23  1  0
 11 24  1  0
M  CHG  2   1   1   5  -1
M  END
>  <filename_input>  (13) 
7ZTL_BCN_docked.sdf

>  <pdb_id>  (13) 
7ZTL_BCN

>  <pose_rank>  (13) 
12

>  <num_atoms_heavy>  (13) 
11

>  <num_torsions>  (13) 
6

>  <pose>  (13) 
[-37.89317974323932, 25.867131455950744, 5.137463136994835, -0.22643041753286233, 0.3199961111716154, 2.979253963596294, 5.623580251571324, -0.5869158802035472, -2.952576650653011, 1.092591522853736, -5.275112356025686, 5.2483076923173435]

>  <energy>  (13) 
-373.43421734436765

>  <inter_energy>  (13) 
-383.1987616840953

>  <intra_energy>  (13) 
7.797565576499071

>  <rmsd>  (13) 
2.01487

>  <sdf_rank>  (13) 
0

$$$$

     RDKit          3D

 24 23  0  0  0  0  0  0  0  0999 V2000
  -36.6776   25.4786    5.2995 N   0  0  1  0  0  0  0  0  0  0  0  0
  -37.3420   24.8930    6.4655 C   0  0  0  0  0  0  0  0  0  0  0  0
  -38.1683   25.9408    7.1764 C   0  0  0  0  0  0  0  0  0  0  0  0
  -37.6144   27.0024    7.5659 O   0  0  0  0  0  0  0  0  0  0  0  0
  -39.3954   25.7137    7.2859 O   0  0  0  0  0  0  0  0  0  0  0  0
  -35.4493   24.7381    4.9955 C   0  0  0  0  0  0  0  0  0  0  0  0
  -35.4635   24.5437    3.4814 C   0  0  0  0  0  0  0  0  0  0  0  0
  -35.7551   23.1703    3.1565 O   0  0  0  0  0  0  0  0  0  0  0  0
  -37.5908   25.4940    4.1379 C   0  0  0  0  0  0  0  0  0  0  0  0
  -38.6505   26.5703    4.3586 C   0  0  0  0  0  0  0  0  0  0  0  0
  -39.8336   26.2746    3.5920 O   0  0  0  0  0  0  0  0  0  0  0  0
  -36.4226   26.4532    5.5143 H   0  0  0  0  0  0  0  0  0  0  0  0
  -37.9986   24.0741    6.1364 H   0  0  0  0  0  0  0  0  0  0  0  0
  -36.5788   24.5074    7.1575 H   0  0  0  0  0  0  0  0  0  0  0  0
  -34.5648   25.3158    5.3019 H   0  0  0  0  0  0  0  0  0  0  0  0
  -35.4038   23.7793    5.5327 H   0  0  0  0  0  0  0  0  0  0  0  0
  -36.2338   25.1926    3.0393 H   0  0  0  0  0  0  0  0  0  0  0  0
  -34.4741   24.8047    3.0777 H   0  0  0  0  0  0  0  0  0  0  0  0
  -35.8655   22.6500    3.9915 H   0  0  0  0  0  0  0  0  0  0  0  0
  -37.0218   25.7176    3.2235 H   0  0  0  0  0  0  0  0  0  0  0  0
  -38.0734   24.5115    4.0293 H   0  0  0  0  0  0  0  0  0  0  0  0
  -38.9110   26.6091    5.4266 H   0  0  0  0  0  0  0  0  0  0  0  0
  -38.2472   27.5404    4.0325 H   0  0  0  0  0  0  0  0  0  0  0  0
  -40.5865   26.0864    4.2066 H   0  0  0  0  0  0  0  0  0  0  0  0
  1  2  1  0
  1  6  1  0
  1  9  1  0
  2  3  1  0
  3  4  2  0
  3  5  1  0
  6  7  1  0
  7  8  1  0
  9 10  1  0
 10 11  1  0
  1 12  1  1
  2 13  1  0
  2 14  1  0
  6 15  1  0
  6 16  1  0
  7 17  1  0
  7 18  1  0
  8 19  1  0
  9 20  1  0
  9 21  1  0
 10 22  1  0
 10 23  1  0
 11 24  1  0
M  CHG  2   1   1   5  -1
M  END
>  <filename_input>  (14) 
7ZTL_BCN_docked.sdf

>  <pdb_id>  (14) 
7ZTL_BCN

>  <pose_rank>  (14) 
13

>  <num_atoms_heavy>  (14) 
11

>  <num_torsions>  (14) 
6

>  <pose>  (14) 
[-36.67756877043635, 25.478597225540565, 5.299507498269594, -2.680793518929552, 5.335469393771246, 0.4887470275701815, 0.09972360735592073, -0.5725505589365163, -7.167836727413244, -2.7518092496650395, -0.1648076095027597, -3.6537971916241805]

>  <energy>  (14) 
-294.4135958927003

>  <inter_energy>  (14) 
-324.15751375746277

>  <intra_energy>  (14) 
37.3444893040646

>  <rmsd>  (14) 
1.68508

>  <sdf_rank>  (14) 
0

$$$$

     RDKit          3D

 24 23  0  0  0  0  0  0  0  0999 V2000
  -37.1232   25.8599    3.4101 N   0  0  1  0  0  0  0  0  0  0  0  0
  -37.7501   25.5642    4.6998 C   0  0  0  0  0  0  0  0  0  0  0  0
  -38.2710   26.8357    5.3308 C   0  0  0  0  0  0  0  0  0  0  0  0
  -38.5879   26.8336    6.5495 O   0  0  0  0  0  0  0  0  0  0  0  0
  -38.3012   27.8556    4.6041 O   0  0  0  0  0  0  0  0  0  0  0  0
  -35.6976   26.1464    3.5974 C   0  0  0  0  0  0  0  0  0  0  0  0
  -34.9938   24.8021    3.4306 C   0  0  0  0  0  0  0  0  0  0  0  0
  -34.3428   24.4229    4.6590 O   0  0  0  0  0  0  0  0  0  0  0  0
  -37.3211   24.7374    2.4698 C   0  0  0  0  0  0  0  0  0  0  0  0
  -36.8300   23.4507    3.1281 C   0  0  0  0  0  0  0  0  0  0  0  0
  -36.2239   22.5855    2.1489 O   0  0  0  0  0  0  0  0  0  0  0  0
  -37.5700   26.6947    3.0046 H   0  0  0  0  0  0  0  0  0  0  0  0
  -38.5860   24.8660    4.5459 H   0  0  0  0  0  0  0  0  0  0  0  0
  -37.0017   25.1126    5.3676 H   0  0  0  0  0  0  0  0  0  0  0  0
  -35.3454   26.8627    2.8405 H   0  0  0  0  0  0  0  0  0  0  0  0
  -35.4946   26.5976    4.5798 H   0  0  0  0  0  0  0  0  0  0  0  0
  -35.7350   24.0353    3.1610 H   0  0  0  0  0  0  0  0  0  0  0  0
  -34.2373   24.8901    2.6369 H   0  0  0  0  0  0  0  0  0  0  0  0
  -34.8812   24.7365    5.4283 H   0  0  0  0  0  0  0  0  0  0  0  0
  -38.3897   24.6434    2.2263 H   0  0  0  0  0  0  0  0  0  0  0  0
  -36.7568   24.9221    1.5438 H   0  0  0  0  0  0  0  0  0  0  0  0
  -36.0878   23.6994    3.9009 H   0  0  0  0  0  0  0  0  0  0  0  0
  -37.6876   22.9316    3.5809 H   0  0  0  0  0  0  0  0  0  0  0  0
  -35.7210   21.8676    2.6091 H   0  0  0  0  0  0  0  0  0  0  0  0
  1  2  1  0
  1  6  1  0
  1  9  1  0
  2  3  1  0
  3  4  2  0
  3  5  1  0
  6  7  1  0
  7  8  1  0
  9 10  1  0
 10 11  1  0
  1 12  1  6
  2 13  1  0
  2 14  1  0
  6 15  1  0
  6 16  1  0
  7 17  1  0
  7 18  1  0
  8 19  1  0
  9 20  1  0
  9 21  1  0
 10 22  1  0
 10 23  1  0
 11 24  1  0
M  CHG  2   1   1   5  -1
M  END
>  <filename_input>  (15) 
7ZTL_BCN_docked.sdf

>  <pdb_id>  (15) 
7ZTL_BCN

>  <pose_rank>  (15) 
14

>  <num_atoms_heavy>  (15) 
11

>  <num_torsions>  (15) 
6

>  <pose>  (15) 
[-37.12315971340612, 25.85994157137725, 3.410104451389659, 2.041139506059207, 2.3160781998955517, -4.303869000018952, -1.004840683156421, -2.4823580794473137, 4.6356859411548825, -2.9165613403776005, -2.373625848302192, 2.836816318515305]

>  <energy>  (15) 
-245.52718437025504

>  <inter_energy>  (15) 
-335.99772383398636

>  <intra_energy>  (15) 
96.19304873072464

>  <rmsd>  (15) 
2.99573

>  <sdf_rank>  (15) 
0

$$$$

     RDKit          3D

 24 23  0  0  0  0  0  0  0  0999 V2000
  -38.3203   26.0430    5.8136 N   0  0  1  0  0  0  0  0  0  0  0  0
  -37.4468   26.1345    4.6421 C   0  0  0  0  0  0  0  0  0  0  0  0
  -36.2498   25.2262    4.8112 C   0  0  0  0  0  0  0  0  0  0  0  0
  -35.6756   24.7671    3.7889 O   0  0  0  0  0  0  0  0  0  0  0  0
  -35.8530   25.0269    5.9825 O   0  0  0  0  0  0  0  0  0  0  0  0
  -38.8677   27.3639    6.1376 C   0  0  0  0  0  0  0  0  0  0  0  0
  -37.7723   28.0665    6.9355 C   0  0  0  0  0  0  0  0  0  0  0  0
  -38.2197   28.3216    8.2814 O   0  0  0  0  0  0  0  0  0  0  0  0
  -39.4005   25.0628    5.5775 C   0  0  0  0  0  0  0  0  0  0  0  0
  -39.7074   24.3426    6.8881 C   0  0  0  0  0  0  0  0  0  0  0  0
  -39.6060   22.9166    6.7129 O   0  0  0  0  0  0  0  0  0  0  0  0
  -37.7670   25.7161    6.6186 H   0  0  0  0  0  0  0  0  0  0  0  0
  -38.0083   25.8326    3.7457 H   0  0  0  0  0  0  0  0  0  0  0  0
  -37.0977   27.1721    4.5348 H   0  0  0  0  0  0  0  0  0  0  0  0
  -39.0945   27.9235    5.2182 H   0  0  0  0  0  0  0  0  0  0  0  0
  -39.8074   27.2915    6.7049 H   0  0  0  0  0  0  0  0  0  0  0  0
  -36.8779   27.4267    6.9655 H   0  0  0  0  0  0  0  0  0  0  0  0
  -37.5341   29.0243    6.4499 H   0  0  0  0  0  0  0  0  0  0  0  0
  -37.5649   27.9483    8.9233 H   0  0  0  0  0  0  0  0  0  0  0  0
  -40.3016   25.5842    5.2225 H   0  0  0  0  0  0  0  0  0  0  0  0
  -39.0839   24.3344    4.8165 H   0  0  0  0  0  0  0  0  0  0  0  0
  -38.9891   24.6655    7.6560 H   0  0  0  0  0  0  0  0  0  0  0  0
  -40.7322   24.5918    7.2006 H   0  0  0  0  0  0  0  0  0  0  0  0
  -39.5747   22.4766    7.5992 H   0  0  0  0  0  0  0  0  0  0  0  0
  1  2  1  0
  1  6  1  0
  1  9  1  0
  2  3  1  0
  3  4  2  0
  3  5  1  0
  6  7  1  0
  7  8  1  0
  9 10  1  0
 10 11  1  0
  1 12  1  1
  2 13  1  0
  2 14  1  0
  6 15  1  0
  6 16  1  0
  7 17  1  0
  7 18  1  0
  8 19  1  0
  9 20  1  0
  9 21  1  0
 10 22  1  0
 10 23  1  0
 11 24  1  0
M  CHG  2   1   1   5  -1
M  END
>  <filename_input>  (16) 
7ZTL_BCN_docked.sdf

>  <pdb_id>  (16) 
7ZTL_BCN

>  <pose_rank>  (16) 
15

>  <num_atoms_heavy>  (16) 
11

>  <num_torsions>  (16) 
6

>  <pose>  (16) 
[-38.32027606023784, 26.042999980321525, 5.813631973685402, 2.123462859928361, 1.212938300126, 1.251328404765031, -0.09788998456780651, 3.0743537740469415, 1.6081386179113804, -2.8981641974256527, 1.0882636633625529, -3.1149461677486436]

>  <energy>  (16) 
-371.92252095039754

>  <inter_energy>  (16) 
-365.4680814840083

>  <intra_energy>  (16) 
0.02579264864857507

>  <rmsd>  (16) 
4.06312

>  <sdf_rank>  (16) 
0

$$$$

     RDKit          3D

 24 23  0  0  0  0  0  0  0  0999 V2000
  -38.9759   26.1385    6.4000 N   0  0  1  0  0  0  0  0  0  0  0  0
  -40.2713   25.5239    6.1030 C   0  0  0  0  0  0  0  0  0  0  0  0
  -40.2905   24.0896    6.5812 C   0  0  0  0  0  0  0  0  0  0  0  0
  -40.8769   23.2170    5.8881 O   0  0  0  0  0  0  0  0  0  0  0  0
  -39.6568   23.8359    7.6315 O   0  0  0  0  0  0  0  0  0  0  0  0
  -38.2433   26.3945    5.1562 C   0  0  0  0  0  0  0  0  0  0  0  0
  -37.3849   25.1518    4.9342 C   0  0  0  0  0  0  0  0  0  0  0  0
  -36.9816   24.5904    6.1987 O   0  0  0  0  0  0  0  0  0  0  0  0
  -39.1600   27.3832    7.1748 C   0  0  0  0  0  0  0  0  0  0  0  0
  -38.6356   27.1639    8.5915 C   0  0  0  0  0  0  0  0  0  0  0  0
  -37.7280   26.0460    8.6234 O   0  0  0  0  0  0  0  0  0  0  0  0
  -38.4209   25.4879    6.9741 H   0  0  0  0  0  0  0  0  0  0  0  0
  -41.0664   26.0876    6.6128 H   0  0  0  0  0  0  0  0  0  0  0  0
  -40.4362   25.5420    5.0156 H   0  0  0  0  0  0  0  0  0  0  0  0
  -38.9424   26.5351    4.3187 H   0  0  0  0  0  0  0  0  0  0  0  0
  -37.6347   27.3087    5.2183 H   0  0  0  0  0  0  0  0  0  0  0  0
  -37.9663   24.4045    4.3742 H   0  0  0  0  0  0  0  0  0  0  0  0
  -36.4869   25.4340    4.3651 H   0  0  0  0  0  0  0  0  0  0  0  0
  -37.3671   25.1270    6.9359 H   0  0  0  0  0  0  0  0  0  0  0  0
  -38.6021   28.2020    6.6968 H   0  0  0  0  0  0  0  0  0  0  0  0
  -40.2272   27.6477    7.2084 H   0  0  0  0  0  0  0  0  0  0  0  0
  -38.1079   28.0689    8.9268 H   0  0  0  0  0  0  0  0  0  0  0  0
  -39.4851   26.9530    9.2578 H   0  0  0  0  0  0  0  0  0  0  0  0
  -37.5330   25.8059    9.5638 H   0  0  0  0  0  0  0  0  0  0  0  0
  1  2  1  0
  1  6  1  0
  1  9  1  0
  2  3  1  0
  3  4  2  0
  3  5  1  0
  6  7  1  0
  7  8  1  0
  9 10  1  0
 10 11  1  0
  1 12  1  1
  2 13  1  0
  2 14  1  0
  6 15  1  0
  6 16  1  0
  7 17  1  0
  7 18  1  0
  8 19  1  0
  9 20  1  0
  9 21  1  0
 10 22  1  0
 10 23  1  0
 11 24  1  0
M  CHG  2   1   1   5  -1
M  END
>  <filename_input>  (17) 
7ZTL_BCN_docked.sdf

>  <pdb_id>  (17) 
7ZTL_BCN

>  <pose_rank>  (17) 
16

>  <num_atoms_heavy>  (17) 
11

>  <num_torsions>  (17) 
6

>  <pose>  (17) 
[-38.975936118471814, 26.138522352893126, 6.4000072095119975, 1.8295196467066477, -0.035933433087744465, -1.0704666608905709, -0.6298650128044168, 4.2059915295576085, 1.4257600870158262, -1.447642695057172, -12.064375367840213, -0.5781177989550828]

>  <energy>  (17) 
-246.7265031131399

>  <inter_energy>  (17) 
-251.9215879053449

>  <intra_energy>  (17) 
17.13890329348444

>  <rmsd>  (17) 
3.80778

>  <sdf_rank>  (17) 
0

$$$$

     RDKit          3D

 24 23  0  0  0  0  0  0  0  0999 V2000
  -37.2435   25.5402    5.1398 N   0  0  1  0  0  0  0  0  0  0  0  0
  -37.8168   26.5876    5.9872 C   0  0  0  0  0  0  0  0  0  0  0  0
  -39.2109   26.1998    6.4256 C   0  0  0  0  0  0  0  0  0  0  0  0
  -39.7307   26.7829    7.4132 O   0  0  0  0  0  0  0  0  0  0  0  0
  -39.8046   25.3446    5.7289 O   0  0  0  0  0  0  0  0  0  0  0  0
  -36.8982   26.0893    3.8251 C   0  0  0  0  0  0  0  0  0  0  0  0
  -37.7240   25.2838    2.8253 C   0  0  0  0  0  0  0  0  0  0  0  0
  -37.1118   24.0005    2.5904 O   0  0  0  0  0  0  0  0  0  0  0  0
  -36.0623   24.9371    5.7913 C   0  0  0  0  0  0  0  0  0  0  0  0
  -34.8483   25.1297    4.8861 C   0  0  0  0  0  0  0  0  0  0  0  0
  -33.6692   24.5797    5.5040 O   0  0  0  0  0  0  0  0  0  0  0  0
  -37.9445   24.7975    5.0059 H   0  0  0  0  0  0  0  0  0  0  0  0
  -37.1818   26.7249    6.8749 H   0  0  0  0  0  0  0  0  0  0  0  0
  -37.8685   27.5250    5.4139 H   0  0  0  0  0  0  0  0  0  0  0  0
  -37.1610   27.1561    3.7715 H   0  0  0  0  0  0  0  0  0  0  0  0
  -35.8199   26.0176    3.6199 H   0  0  0  0  0  0  0  0  0  0  0  0
  -38.7367   25.1345    3.2279 H   0  0  0  0  0  0  0  0  0  0  0  0
  -37.7740   25.8358    1.8751 H   0  0  0  0  0  0  0  0  0  0  0  0
  -36.9061   23.5694    3.4575 H   0  0  0  0  0  0  0  0  0  0  0  0
  -35.8832   25.4281    6.7592 H   0  0  0  0  0  0  0  0  0  0  0  0
  -36.2360   23.8641    5.9598 H   0  0  0  0  0  0  0  0  0  0  0  0
  -35.0264   24.6204    3.9276 H   0  0  0  0  0  0  0  0  0  0  0  0
  -34.6947   26.2061    4.7193 H   0  0  0  0  0  0  0  0  0  0  0  0
  -33.7619   24.6229    6.4887 H   0  0  0  0  0  0  0  0  0  0  0  0
  1  2  1  0
  1  6  1  0
  1  9  1  0
  2  3  1  0
  3  4  2  0
  3  5  1  0
  6  7  1  0
  7  8  1  0
  9 10  1  0
 10 11  1  0
  1 12  1  6
  2 13  1  0
  2 14  1  0
  6 15  1  0
  6 16  1  0
  7 17  1  0
  7 18  1  0
  8 19  1  0
  9 20  1  0
  9 21  1  0
 10 22  1  0
 10 23  1  0
 11 24  1  0
M  CHG  2   1   1   5  -1
M  END
>  <filename_input>  (18) 
7ZTL_BCN_docked.sdf

>  <pdb_id>  (18) 
7ZTL_BCN

>  <pose_rank>  (18) 
17

>  <num_atoms_heavy>  (18) 
11

>  <num_torsions>  (18) 
6

>  <pose>  (18) 
[-37.2435250227202, 25.540203809900106, 5.139788437473081, 1.825825344161208, -0.7463747292821404, -3.0394515925175902, -0.46155579087261933, -3.055608471509189, 0.9400976874235842, 4.0298097324593645, -9.824887046297635, -4.092894590485692]

>  <energy>  (18) 
-364.33836990957906

>  <inter_energy>  (18) 
-344.1307298249607

>  <intra_energy>  (18) 
3.4340704769734898

>  <rmsd>  (18) 
2.53121

>  <sdf_rank>  (18) 
0

$$$$

     RDKit          3D

 24 23  0  0  0  0  0  0  0  0999 V2000
  -38.1782   25.6390    5.1995 N   0  0  1  0  0  0  0  0  0  0  0  0
  -37.7526   26.7965    5.9887 C   0  0  0  0  0  0  0  0  0  0  0  0
  -37.8619   26.4903    7.4653 C   0  0  0  0  0  0  0  0  0  0  0  0
  -38.8512   26.9236    8.1127 O   0  0  0  0  0  0  0  0  0  0  0  0
  -36.9736   25.7566    7.9572 O   0  0  0  0  0  0  0  0  0  0  0  0
  -37.0291   24.7744    4.9141 C   0  0  0  0  0  0  0  0  0  0  0  0
  -36.6414   25.0872    3.4711 C   0  0  0  0  0  0  0  0  0  0  0  0
  -35.3713   24.4852    3.1531 O   0  0  0  0  0  0  0  0  0  0  0  0
  -39.2415   24.8947    5.9058 C   0  0  0  0  0  0  0  0  0  0  0  0
  -38.8398   23.4245    5.9920 C   0  0  0  0  0  0  0  0  0  0  0  0
  -39.8094   22.6832    6.7569 O   0  0  0  0  0  0  0  0  0  0  0  0
  -38.5649   25.9689    4.3036 H   0  0  0  0  0  0  0  0  0  0  0  0
  -36.7079   27.0387    5.7441 H   0  0  0  0  0  0  0  0  0  0  0  0
  -38.4021   27.6518    5.7504 H   0  0  0  0  0  0  0  0  0  0  0  0
  -36.1962   25.0026    5.5954 H   0  0  0  0  0  0  0  0  0  0  0  0
  -37.2706   23.7104    5.0535 H   0  0  0  0  0  0  0  0  0  0  0  0
  -37.4114   24.6890    2.7939 H   0  0  0  0  0  0  0  0  0  0  0  0
  -36.5610   26.1776    3.3503 H   0  0  0  0  0  0  0  0  0  0  0  0
  -34.8943   24.2592    3.9907 H   0  0  0  0  0  0  0  0  0  0  0  0
  -39.3679   25.3033    6.9192 H   0  0  0  0  0  0  0  0  0  0  0  0
  -40.1911   24.9909    5.3589 H   0  0  0  0  0  0  0  0  0  0  0  0
  -38.7812   23.0046    4.9769 H   0  0  0  0  0  0  0  0  0  0  0  0
  -37.8612   23.3504    6.4887 H   0  0  0  0  0  0  0  0  0  0  0  0
  -39.6378   22.8144    7.7230 H   0  0  0  0  0  0  0  0  0  0  0  0
  1  2  1  0
  1  6  1  0
  1  9  1  0
  2  3  1  0
  3  4  2  0
  3  5  1  0
  6  7  1  0
  7  8  1  0
  9 10  1  0
 10 11  1  0
  1 12  1  6
  2 13  1  0
  2 14  1  0
  6 15  1  0
  6 16  1  0
  7 17  1  0
  7 18  1  0
  8 19  1  0
  9 20  1  0
  9 21  1  0
 10 22  1  0
 10 23  1  0
 11 24  1  0
M  CHG  2   1   1   5  -1
M  END
>  <filename_input>  (19) 
7ZTL_BCN_docked.sdf

>  <pdb_id>  (19) 
7ZTL_BCN

>  <pose_rank>  (19) 
18

>  <num_atoms_heavy>  (19) 
11

>  <num_torsions>  (19) 
6

>  <pose>  (19) 
[-38.178222909064424, 25.638975961983633, 5.199478640716869, 4.082121617178752, -2.3463701863166238, -1.1864991294515141, 8.411278311098787, -1.3551090155710017, 1.2616095985389002, -4.210390649551488, -9.94786895247698, 2.143012584813469]

>  <energy>  (19) 
-348.94501500224726

>  <inter_energy>  (19) 
-350.8495217723946

>  <intra_energy>  (19) 
22.371524196100175

>  <rmsd>  (19) 
2.71525

>  <sdf_rank>  (19) 
0

$$$$

     RDKit          3D

 24 23  0  0  0  0  0  0  0  0999 V2000
  -37.6362   26.7241    7.3009 N   0  0  1  0  0  0  0  0  0  0  0  0
  -38.8321   25.9114    7.0698 C   0  0  0  0  0  0  0  0  0  0  0  0
  -38.4436   24.5508    6.5368 C   0  0  0  0  0  0  0  0  0  0  0  0
  -38.9001   23.5178    7.0937 O   0  0  0  0  0  0  0  0  0  0  0  0
  -37.7226   24.5302    5.5127 O   0  0  0  0  0  0  0  0  0  0  0  0
  -37.8632   28.0965    6.8379 C   0  0  0  0  0  0  0  0  0  0  0  0
  -38.9112   27.9785    5.7342 C   0  0  0  0  0  0  0  0  0  0  0  0
  -38.6927   28.9865    4.7277 O   0  0  0  0  0  0  0  0  0  0  0  0
  -37.2633   26.6998    8.7305 C   0  0  0  0  0  0  0  0  0  0  0  0
  -37.9461   27.8676    9.4378 C   0  0  0  0  0  0  0  0  0  0  0  0
  -38.9963   27.3882   10.2991 O   0  0  0  0  0  0  0  0  0  0  0  0
  -36.8528   26.3269    6.7629 H   0  0  0  0  0  0  0  0  0  0  0  0
  -39.3766   25.7885    8.0176 H   0  0  0  0  0  0  0  0  0  0  0  0
  -39.4723   26.4167    6.3316 H   0  0  0  0  0  0  0  0  0  0  0  0
  -38.2379   28.7239    7.6601 H   0  0  0  0  0  0  0  0  0  0  0  0
  -36.9368   28.5669    6.4766 H   0  0  0  0  0  0  0  0  0  0  0  0
  -38.8409   26.9828    5.2719 H   0  0  0  0  0  0  0  0  0  0  0  0
  -39.9101   28.1207    6.1723 H   0  0  0  0  0  0  0  0  0  0  0  0
  -38.5046   29.8544    5.1652 H   0  0  0  0  0  0  0  0  0  0  0  0
  -37.5911   25.7517    9.1819 H   0  0  0  0  0  0  0  0  0  0  0  0
  -36.1716   26.7878    8.8331 H   0  0  0  0  0  0  0  0  0  0  0  0
  -37.2031   28.4110   10.0400 H   0  0  0  0  0  0  0  0  0  0  0  0
  -38.3823   28.5370    8.6817 H   0  0  0  0  0  0  0  0  0  0  0  0
  -38.7292   27.5101   11.2445 H   0  0  0  0  0  0  0  0  0  0  0  0
  1  2  1  0
  1  6  1  0
  1  9  1  0
  2  3  1  0
  3  4  2  0
  3  5  1  0
  6  7  1  0
  7  8  1  0
  9 10  1  0
 10 11  1  0
  1 12  1  6
  2 13  1  0
  2 14  1  0
  6 15  1  0
  6 16  1  0
  7 17  1  0
  7 18  1  0
  8 19  1  0
  9 20  1  0
  9 21  1  0
 10 22  1  0
 10 23  1  0
 11 24  1  0
M  CHG  2   1   1   5  -1
M  END
>  <filename_input>  (20) 
7ZTL_BCN_docked.sdf

>  <pdb_id>  (20) 
7ZTL_BCN

>  <pose_rank>  (20) 
19

>  <num_atoms_heavy>  (20) 
11

>  <num_torsions>  (20) 
6

>  <pose>  (20) 
[-37.636244108593736, 26.724100780689948, 7.300904792215785, 2.1007229388297137, 1.3779789000247094, -1.48366254092164, 6.112762281168947, 2.649932506947958, -3.717563317784318, 2.8330116490166337, 3.253511877596003, -5.310985782350782]

>  <energy>  (20) 
-341.77920120184655

>  <inter_energy>  (20) 
-342.7265037306109

>  <intra_energy>  (20) 
1.9163980838529093

>  <rmsd>  (20) 
4.04902

>  <sdf_rank>  (20) 
0

$$$$

     RDKit          3D

 24 23  0  0  0  0  0  0  0  0999 V2000
  -37.0952   25.3107    4.4676 N   0  0  1  0  0  0  0  0  0  0  0  0
  -35.9761   25.1543    5.3988 C   0  0  0  0  0  0  0  0  0  0  0  0
  -34.8276   24.4429    4.7199 C   0  0  0  0  0  0  0  0  0  0  0  0
  -35.0638   23.4308    4.0089 O   0  0  0  0  0  0  0  0  0  0  0  0
  -33.6896   24.9479    4.8580 O   0  0  0  0  0  0  0  0  0  0  0  0
  -38.3151   25.6614    5.2012 C   0  0  0  0  0  0  0  0  0  0  0  0
  -37.8381   26.1087    6.5807 C   0  0  0  0  0  0  0  0  0  0  0  0
  -38.9186   26.0350    7.5314 O   0  0  0  0  0  0  0  0  0  0  0  0
  -36.7781   26.3291    3.4450 C   0  0  0  0  0  0  0  0  0  0  0  0
  -36.5831   25.6332    2.1004 C   0  0  0  0  0  0  0  0  0  0  0  0
  -37.0274   24.2650    2.1742 O   0  0  0  0  0  0  0  0  0  0  0  0
  -37.2551   24.4157    3.9836 H   0  0  0  0  0  0  0  0  0  0  0  0
  -35.6413   26.1468    5.7344 H   0  0  0  0  0  0  0  0  0  0  0  0
  -36.3078   24.5582    6.2617 H   0  0  0  0  0  0  0  0  0  0  0  0
  -38.8488   26.4786    4.6939 H   0  0  0  0  0  0  0  0  0  0  0  0
  -39.0153   24.8153    5.2628 H   0  0  0  0  0  0  0  0  0  0  0  0
  -37.0184   25.4538    6.9113 H   0  0  0  0  0  0  0  0  0  0  0  0
  -37.4869   27.1493    6.5180 H   0  0  0  0  0  0  0  0  0  0  0  0
  -38.5517   26.0600    8.4505 H   0  0  0  0  0  0  0  0  0  0  0  0
  -37.6062   27.0495    3.3716 H   0  0  0  0  0  0  0  0  0  0  0  0
  -35.8594   26.8655    3.7245 H   0  0  0  0  0  0  0  0  0  0  0  0
  -37.1646   26.1621    1.3308 H   0  0  0  0  0  0  0  0  0  0  0  0
  -35.5138   25.6478    1.8428 H   0  0  0  0  0  0  0  0  0  0  0  0
  -37.1144   23.9971    3.1233 H   0  0  0  0  0  0  0  0  0  0  0  0
  1  2  1  0
  1  6  1  0
  1  9  1  0
  2  3  1  0
  3  4  2  0
  3  5  1  0
  6  7  1  0
  7  8  1  0
  9 10  1  0
 10 11  1  0
  1 12  1  6
  2 13  1  0
  2 14  1  0
  6 15  1  0
  6 16  1  0
  7 17  1  0
  7 18  1  0
  8 19  1  0
  9 20  1  0
  9 21  1  0
 10 22  1  0
 10 23  1  0
 11 24  1  0
M  CHG  2   1   1   5  -1
M  END
>  <filename_input>  (21) 
7ZTL_BCN_docked.sdf

>  <pdb_id>  (21) 
7ZTL_BCN

>  <pose_rank>  (21) 
20

>  <num_atoms_heavy>  (21) 
11

>  <num_torsions>  (21) 
6

>  <pose>  (21) 
[-37.0952134672748, 25.310731823061474, 4.4676178812383665, 1.1083397307924074, -1.0516206329178626, 3.0343744983802514, 6.585756646371703, -0.3714638839527719, -2.9712799141684254, 2.6089104680552, -5.802925427921924, 5.558268345750648]

>  <energy>  (21) 
-322.0339679364774

>  <inter_energy>  (21) 
-353.44407135189533

>  <intra_energy>  (21) 
21.70774030658222

>  <rmsd>  (21) 
3.46311

>  <sdf_rank>  (21) 
0

$$$$

     RDKit          3D

 24 23  0  0  0  0  0  0  0  0999 V2000
  -38.8204   25.8641    8.1160 N   0  0  1  0  0  0  0  0  0  0  0  0
  -38.4527   26.1566    6.7292 C   0  0  0  0  0  0  0  0  0  0  0  0
  -37.3903   25.1904    6.2559 C   0  0  0  0  0  0  0  0  0  0  0  0
  -37.7173   24.2354    5.5032 O   0  0  0  0  0  0  0  0  0  0  0  0
  -36.2106   25.4360    6.5985 O   0  0  0  0  0  0  0  0  0  0  0  0
  -39.1181   27.1089    8.8309 C   0  0  0  0  0  0  0  0  0  0  0  0
  -37.7616   27.7668    9.0712 C   0  0  0  0  0  0  0  0  0  0  0  0
  -37.4422   27.7547   10.4764 O   0  0  0  0  0  0  0  0  0  0  0  0
  -39.9698   24.9367    8.1613 C   0  0  0  0  0  0  0  0  0  0  0  0
  -40.9664   25.4377    9.2034 C   0  0  0  0  0  0  0  0  0  0  0  0
  -41.3245   24.3749   10.1072 O   0  0  0  0  0  0  0  0  0  0  0  0
  -38.0253   25.4053    8.5831 H   0  0  0  0  0  0  0  0  0  0  0  0
  -39.3423   26.0603    6.0894 H   0  0  0  0  0  0  0  0  0  0  0  0
  -38.0575   27.1815    6.6711 H   0  0  0  0  0  0  0  0  0  0  0  0
  -39.7600   27.7606    8.2199 H   0  0  0  0  0  0  0  0  0  0  0  0
  -39.6576   26.9238    9.7715 H   0  0  0  0  0  0  0  0  0  0  0  0
  -36.9874   27.2147    8.5182 H   0  0  0  0  0  0  0  0  0  0  0  0
  -37.8026   28.8092    8.7224 H   0  0  0  0  0  0  0  0  0  0  0  0
  -38.2785   27.7864   11.0052 H   0  0  0  0  0  0  0  0  0  0  0  0
  -40.4542   24.9000    7.1744 H   0  0  0  0  0  0  0  0  0  0  0  0
  -39.6248   23.9272    8.4296 H   0  0  0  0  0  0  0  0  0  0  0  0
  -40.5113   26.2608    9.7739 H   0  0  0  0  0  0  0  0  0  0  0  0
  -41.8731   25.7900    8.6898 H   0  0  0  0  0  0  0  0  0  0  0  0
  -41.2195   24.6865   11.0411 H   0  0  0  0  0  0  0  0  0  0  0  0
  1  2  1  0
  1  6  1  0
  1  9  1  0
  2  3  1  0
  3  4  2  0
  3  5  1  0
  6  7  1  0
  7  8  1  0
  9 10  1  0
 10 11  1  0
  1 12  1  1
  2 13  1  0
  2 14  1  0
  6 15  1  0
  6 16  1  0
  7 17  1  0
  7 18  1  0
  8 19  1  0
  9 20  1  0
  9 21  1  0
 10 22  1  0
 10 23  1  0
 11 24  1  0
M  CHG  2   1   1   5  -1
M  END
>  <filename_input>  (22) 
7ZTL_BCN_docked.sdf

>  <pdb_id>  (22) 
7ZTL_BCN

>  <pose_rank>  (22) 
21

>  <num_atoms_heavy>  (22) 
11

>  <num_torsions>  (22) 
6

>  <pose>  (22) 
[-38.82037650407287, 25.864126777122365, 8.115955544521318, -2.762900484080625, -1.335649842093431, -1.0437056794364008, 37.65013505911329, -4.08762247393281, 20.594824054271914, 3.4554937322699204, 15.04842162363471, 28.22860271055262]

>  <energy>  (22) 
-309.9754695376625

>  <inter_energy>  (22) 
-316.64472272856966

>  <intra_energy>  (22) 
0.06333218613907943

>  <rmsd>  (22) 
4.99501

>  <sdf_rank>  (22) 
0

$$$$

     RDKit          3D

 24 23  0  0  0  0  0  0  0  0999 V2000
  -35.9744   25.7117    4.5093 N   0  0  1  0  0  0  0  0  0  0  0  0
  -36.4510   25.3524    5.8463 C   0  0  0  0  0  0  0  0  0  0  0  0
  -37.8946   25.7690    6.0154 C   0  0  0  0  0  0  0  0  0  0  0  0
  -38.1703   26.7478    6.7581 O   0  0  0  0  0  0  0  0  0  0  0  0
  -38.7460   25.1406    5.3451 O   0  0  0  0  0  0  0  0  0  0  0  0
  -35.3079   24.5636    3.8872 C   0  0  0  0  0  0  0  0  0  0  0  0
  -36.4163   23.7978    3.1694 C   0  0  0  0  0  0  0  0  0  0  0  0
  -35.8507   22.8693    2.2235 O   0  0  0  0  0  0  0  0  0  0  0  0
  -37.0939   26.1938    3.6739 C   0  0  0  0  0  0  0  0  0  0  0  0
  -36.5375   27.1038    2.5819 C   0  0  0  0  0  0  0  0  0  0  0  0
  -35.2093   27.5440    2.9237 O   0  0  0  0  0  0  0  0  0  0  0  0
  -35.2898   26.4767    4.5927 H   0  0  0  0  0  0  0  0  0  0  0  0
  -36.3688   24.2638    5.9810 H   0  0  0  0  0  0  0  0  0  0  0  0
  -35.8373   25.8711    6.5975 H   0  0  0  0  0  0  0  0  0  0  0  0
  -34.5460   24.9022    3.1697 H   0  0  0  0  0  0  0  0  0  0  0  0
  -34.7895   23.9379    4.6286 H   0  0  0  0  0  0  0  0  0  0  0  0
  -37.0127   23.2439    3.9094 H   0  0  0  0  0  0  0  0  0  0  0  0
  -37.0548   24.5133    2.6305 H   0  0  0  0  0  0  0  0  0  0  0  0
  -35.4024   22.1335    2.7112 H   0  0  0  0  0  0  0  0  0  0  0  0
  -37.6078   25.3366    3.2143 H   0  0  0  0  0  0  0  0  0  0  0  0
  -37.8104   26.7510    4.2952 H   0  0  0  0  0  0  0  0  0  0  0  0
  -36.5026   26.5504    1.6318 H   0  0  0  0  0  0  0  0  0  0  0  0
  -37.1906   27.9834    2.4832 H   0  0  0  0  0  0  0  0  0  0  0  0
  -35.1153   27.5751    3.9087 H   0  0  0  0  0  0  0  0  0  0  0  0
  1  2  1  0
  1  6  1  0
  1  9  1  0
  2  3  1  0
  3  4  2  0
  3  5  1  0
  6  7  1  0
  7  8  1  0
  9 10  1  0
 10 11  1  0
  1 12  1  1
  2 13  1  0
  2 14  1  0
  6 15  1  0
  6 16  1  0
  7 17  1  0
  7 18  1  0
  8 19  1  0
  9 20  1  0
  9 21  1  0
 10 22  1  0
 10 23  1  0
 11 24  1  0
M  CHG  2   1   1   5  -1
M  END
>  <filename_input>  (23) 
7ZTL_BCN_docked.sdf

>  <pdb_id>  (23) 
7ZTL_BCN

>  <pose_rank>  (23) 
22

>  <num_atoms_heavy>  (23) 
11

>  <num_torsions>  (23) 
6

>  <pose>  (23) 
[-35.97442718353524, 25.711691499487916, 4.50927487037242, -1.0521474510168607, -0.29697728522712336, 5.701056028980486, 7.70491981116588, -1.4791028077342647, -1.6981038687262613, 1.9836553172945177, -5.010281978140777, 5.047190144348456]

>  <energy>  (23) 
-229.48069804237306

>  <inter_energy>  (23) 
-280.25085338961054

>  <intra_energy>  (23) 
46.9340538481346

>  <rmsd>  (23) 
2.44683

>  <sdf_rank>  (23) 
0

$$$$

     RDKit          3D

 24 23  0  0  0  0  0  0  0  0999 V2000
  -38.4886   26.6307    8.4525 N   0  0  1  0  0  0  0  0  0  0  0  0
  -39.5863   25.8407    7.8913 C   0  0  0  0  0  0  0  0  0  0  0  0
  -39.1258   25.1182    6.6455 C   0  0  0  0  0  0  0  0  0  0  0  0
  -39.4886   25.5434    5.5171 O   0  0  0  0  0  0  0  0  0  0  0  0
  -38.3439   24.1532    6.8087 O   0  0  0  0  0  0  0  0  0  0  0  0
  -37.5447   25.7545    9.1529 C   0  0  0  0  0  0  0  0  0  0  0  0
  -37.7037   26.0959   10.6323 C   0  0  0  0  0  0  0  0  0  0  0  0
  -38.5641   25.1363   11.2770 O   0  0  0  0  0  0  0  0  0  0  0  0
  -37.8107   27.4015    7.3896 C   0  0  0  0  0  0  0  0  0  0  0  0
  -38.7560   28.4922    6.8926 C   0  0  0  0  0  0  0  0  0  0  0  0
  -38.6582   28.6276    5.4620 O   0  0  0  0  0  0  0  0  0  0  0  0
  -38.8732   27.3013    9.1331 H   0  0  0  0  0  0  0  0  0  0  0  0
  -39.9211   25.1036    8.6360 H   0  0  0  0  0  0  0  0  0  0  0  0
  -40.4160   26.5139    7.6299 H   0  0  0  0  0  0  0  0  0  0  0  0
  -37.7921   24.6980    8.9721 H   0  0  0  0  0  0  0  0  0  0  0  0
  -36.5115   25.9022    8.8057 H   0  0  0  0  0  0  0  0  0  0  0  0
  -36.7161   26.0807   11.1164 H   0  0  0  0  0  0  0  0  0  0  0  0
  -38.1522   27.0963   10.7226 H   0  0  0  0  0  0  0  0  0  0  0  0
  -38.4823   25.2275   12.2594 H   0  0  0  0  0  0  0  0  0  0  0  0
  -36.8959   27.8607    7.7924 H   0  0  0  0  0  0  0  0  0  0  0  0
  -37.5411   26.7337    6.5582 H   0  0  0  0  0  0  0  0  0  0  0  0
  -39.7890   28.2268    7.1618 H   0  0  0  0  0  0  0  0  0  0  0  0
  -38.4768   29.4473    7.3614 H   0  0  0  0  0  0  0  0  0  0  0  0
  -38.0930   29.4102    5.2425 H   0  0  0  0  0  0  0  0  0  0  0  0
  1  2  1  0
  1  6  1  0
  1  9  1  0
  2  3  1  0
  3  4  2  0
  3  5  1  0
  6  7  1  0
  7  8  1  0
  9 10  1  0
 10 11  1  0
  1 12  1  1
  2 13  1  0
  2 14  1  0
  6 15  1  0
  6 16  1  0
  7 17  1  0
  7 18  1  0
  8 19  1  0
  9 20  1  0
  9 21  1  0
 10 22  1  0
 10 23  1  0
 11 24  1  0
M  CHG  2   1   1   5  -1
M  END
>  <filename_input>  (24) 
7ZTL_BCN_docked.sdf

>  <pdb_id>  (24) 
7ZTL_BCN

>  <pose_rank>  (24) 
23

>  <num_atoms_heavy>  (24) 
11

>  <num_torsions>  (24) 
6

>  <pose>  (24) 
[-38.48862769438894, 26.630684890105442, 8.452480756750221, -2.0520981135348397, 4.175414463546054, 0.04923249769578571, -10.191789667766887, 4.857435825569866, 1.1001592078520233, 0.8411967472139901, -25.363591982124863, 2.9065923594081076]

>  <energy>  (24) 
-301.86702578904186

>  <inter_energy>  (24) 
-310.9909620418162

>  <intra_energy>  (24) 
29.514246206440376

>  <rmsd>  (24) 
4.54079

>  <sdf_rank>  (24) 
0

$$$$

     RDKit          3D

 24 23  0  0  0  0  0  0  0  0999 V2000
  -38.8498   25.7215    8.2658 N   0  0  1  0  0  0  0  0  0  0  0  0
  -38.8230   24.8884    7.0621 C   0  0  0  0  0  0  0  0  0  0  0  0
  -38.0885   25.6018    5.9496 C   0  0  0  0  0  0  0  0  0  0  0  0
  -38.2321   26.8456    5.8151 O   0  0  0  0  0  0  0  0  0  0  0  0
  -37.3157   24.9092    5.2480 O   0  0  0  0  0  0  0  0  0  0  0  0
  -40.0135   25.3791    9.0891 C   0  0  0  0  0  0  0  0  0  0  0  0
  -41.2266   25.6817    8.2132 C   0  0  0  0  0  0  0  0  0  0  0  0
  -41.7645   26.9792    8.5354 O   0  0  0  0  0  0  0  0  0  0  0  0
  -37.5941   25.5671    9.0292 C   0  0  0  0  0  0  0  0  0  0  0  0
  -37.5821   26.5828   10.1687 C   0  0  0  0  0  0  0  0  0  0  0  0
  -37.1810   27.8779    9.6825 O   0  0  0  0  0  0  0  0  0  0  0  0
  -38.9307   26.7097    7.9868 H   0  0  0  0  0  0  0  0  0  0  0  0
  -38.3105   23.9414    7.2869 H   0  0  0  0  0  0  0  0  0  0  0  0
  -39.8559   24.6893    6.7403 H   0  0  0  0  0  0  0  0  0  0  0  0
  -39.9919   24.3141    9.3635 H   0  0  0  0  0  0  0  0  0  0  0  0
  -40.0334   25.9487   10.0299 H   0  0  0  0  0  0  0  0  0  0  0  0
  -40.9236   25.6668    7.1559 H   0  0  0  0  0  0  0  0  0  0  0  0
  -41.9983   24.9192    8.3947 H   0  0  0  0  0  0  0  0  0  0  0  0
  -41.8078   27.0836    9.5190 H   0  0  0  0  0  0  0  0  0  0  0  0
  -37.5348   24.5488    9.4411 H   0  0  0  0  0  0  0  0  0  0  0  0
  -36.7317   25.7376    8.3680 H   0  0  0  0  0  0  0  0  0  0  0  0
  -38.5910   26.6544   10.6011 H   0  0  0  0  0  0  0  0  0  0  0  0
  -36.8654   26.2514   10.9346 H   0  0  0  0  0  0  0  0  0  0  0  0
  -36.9959   28.4756   10.4498 H   0  0  0  0  0  0  0  0  0  0  0  0
  1  2  1  0
  1  6  1  0
  1  9  1  0
  2  3  1  0
  3  4  2  0
  3  5  1  0
  6  7  1  0
  7  8  1  0
  9 10  1  0
 10 11  1  0
  1 12  1  6
  2 13  1  0
  2 14  1  0
  6 15  1  0
  6 16  1  0
  7 17  1  0
  7 18  1  0
  8 19  1  0
  9 20  1  0
  9 21  1  0
 10 22  1  0
 10 23  1  0
 11 24  1  0
M  CHG  2   1   1   5  -1
M  END
>  <filename_input>  (25) 
7ZTL_BCN_docked.sdf

>  <pdb_id>  (25) 
7ZTL_BCN

>  <pose_rank>  (25) 
24

>  <num_atoms_heavy>  (25) 
11

>  <num_torsions>  (25) 
6

>  <pose>  (25) 
[-38.84976010071572, 25.721514748772435, 8.265812569603568, -0.2992133917283367, -2.968565126620136, 0.42469953571068053, 0.10889323259498802, -0.26044723001739634, -4.317656884938801, -2.58526752252235, 1.57519184571911, -2.33608525310023]

>  <energy>  (25) 
-299.2781362440807

>  <inter_energy>  (25) 
-279.0508952977318

>  <intra_energy>  (25) 
0.20461271164099637

>  <rmsd>  (25) 
4.61737

>  <sdf_rank>  (25) 
0

$$$$

     RDKit          3D

 24 23  0  0  0  0  0  0  0  0999 V2000
  -36.7640   25.8990    5.2290 N   0  0  1  0  0  0  0  0  0  0  0  0
  -37.0850   25.4680    6.5910 C   0  0  0  0  0  0  0  0  0  0  0  0
  -37.6150   26.6330    7.3960 C   0  0  0  0  0  0  0  0  0  0  0  0
  -37.3250   27.8070    7.0450 O   0  0  0  0  0  0  0  0  0  0  0  0
  -38.3780   26.3590    8.3510 O   0  0  0  0  0  0  0  0  0  0  0  0
  -35.6250   25.1330    4.7140 C   0  0  0  0  0  0  0  0  0  0  0  0
  -35.2910   25.7690    3.3670 C   0  0  0  0  0  0  0  0  0  0  0  0
  -35.1670   27.1980    3.5060 O   0  0  0  0  0  0  0  0  0  0  0  0
  -37.9430   25.7550    4.3500 C   0  0  0  0  0  0  0  0  0  0  0  0
  -38.8450   26.9730    4.5320 C   0  0  0  0  0  0  0  0  0  0  0  0
  -38.0940   28.1870    4.3400 O   0  0  0  0  0  0  0  0  0  0  0  0
  -36.5023   26.8951    5.2464 H   0  0  0  0  0  0  0  0  0  0  0  0
  -37.8480   24.6767    6.5514 H   0  0  0  0  0  0  0  0  0  0  0  0
  -36.1721   25.0857    7.0711 H   0  0  0  0  0  0  0  0  0  0  0  0
  -34.7679   25.2085    5.3993 H   0  0  0  0  0  0  0  0  0  0  0  0
  -35.8598   24.0628    4.6164 H   0  0  0  0  0  0  0  0  0  0  0  0
  -34.3409   25.3566    2.9965 H   0  0  0  0  0  0  0  0  0  0  0  0
  -36.1005   25.5474    2.6560 H   0  0  0  0  0  0  0  0  0  0  0  0
  -35.1464   27.4355    4.4669 H   0  0  0  0  0  0  0  0  0  0  0  0
  -37.6166   25.6902    3.3015 H   0  0  0  0  0  0  0  0  0  0  0  0
  -38.4942   24.8397    4.6116 H   0  0  0  0  0  0  0  0  0  0  0  0
  -39.6621   26.9321    3.7966 H   0  0  0  0  0  0  0  0  0  0  0  0
  -39.2546   26.9644    5.5529 H   0  0  0  0  0  0  0  0  0  0  0  0
  -37.8565   28.5709    5.2211 H   0  0  0  0  0  0  0  0  0  0  0  0
  1  2  1  0
  1  6  1  0
  1  9  1  0
  2  3  1  0
  3  4  2  0
  3  5  1  0
  6  7  1  0
  7  8  1  0
  9 10  1  0
 10 11  1  0
  1 12  1  1
  2 13  1  0
  2 14  1  0
  6 15  1  0
  6 16  1  0
  7 17  1  0
  7 18  1  0
  8 19  1  0
  9 20  1  0
  9 21  1  0
 10 22  1  0
 10 23  1  0
 11 24  1  0
M  CHG  2   1   1   5  -1
M  END
>  <filename_input>  (26) 
7ZTL_BCN_docked.sdf

>  <pdb_id>  (26) 
7ZTL_BCN

>  <pose_rank>  (26) 
25

>  <num_atoms_heavy>  (26) 
11

>  <num_torsions>  (26) 
6

>  <pose>  (26) 
[-36.764, 25.899, 5.229, 1e-06, 1e-06, 1e-06, 0.0, 0.0, 0.0, 0.0, 0.0, 0.0]

>  <energy>  (26) 
-278.7799436487041

>  <inter_energy>  (26) 
-316.8445522850068

>  <intra_energy>  (26) 
38.094471748747466

>  <rmsd>  (26) 
0.0

>  <sdf_rank>  (26) 
0

$$$$
