
     RDKit          3D

 51 54  0  0  0  0  0  0  0  0999 V2000
  -27.4446    4.9360   -4.8197 C   0  0  0  0  0  0  0  0  0  0  0  0
  -26.6663    6.1831   -5.2752 C   0  0  0  0  0  0  0  0  0  0  0  0
  -25.2246    6.1031   -4.8568 C   0  0  0  0  0  0  0  0  0  0  0  0
  -24.6790    6.9917   -4.2340 O   0  0  0  0  0  0  0  0  0  0  0  0
  -24.5127    4.8166   -5.1474 C   0  0  0  0  0  0  0  0  0  0  0  0
  -25.3430    3.6084   -4.6637 C   0  0  2  0  0  0  0  0  0  0  0  0
  -24.6344    2.2627   -4.8853 C   0  0  0  0  0  0  0  0  0  0  0  0
  -25.4399    1.1012   -4.2963 C   0  0  0  0  0  0  0  0  0  0  0  0
  -26.8555    1.0457   -4.8772 C   0  0  2  0  0  0  0  0  0  0  0  0
  -27.5809    2.4105   -4.7040 C   0  0  1  0  0  0  0  0  0  0  0  0
  -26.7702    3.6159   -5.2590 C   0  0  1  0  0  0  0  0  0  0  0  0
  -29.0257    2.3688   -5.2378 C   0  0  0  0  0  0  0  0  0  0  0  0
  -29.8394    1.2192   -4.5995 C   0  0  0  0  0  0  0  0  0  0  0  0
  -29.1262   -0.1126   -4.7791 C   0  0  1  0  0  0  0  0  0  0  0  0
  -27.7141   -0.0012   -4.1809 C   0  0  1  0  0  0  0  0  0  0  0  0
  -27.2229   -1.4589   -4.1415 C   0  0  0  0  0  0  0  0  0  0  0  0
  -28.5038   -2.2670   -3.8150 C   0  0  0  0  0  0  0  0  0  0  0  0
  -29.6643   -1.2667   -3.9149 C   0  0  2  0  0  0  0  0  0  0  0  0
  -30.8606   -1.8843   -4.3996 O   0  0  0  0  0  0  0  0  0  0  0  0
  -29.1072   -0.5121   -6.2671 C   0  0  0  0  0  0  0  0  0  0  0  0
  -26.7095    3.5836   -6.8004 C   0  0  0  0  0  0  0  0  0  0  0  0
  -27.5145    4.9467   -3.7219 H   0  0  0  0  0  0  0  0  0  0  0  0
  -28.4374    4.9741   -5.2918 H   0  0  0  0  0  0  0  0  0  0  0  0
  -26.7187    6.2589   -6.3714 H   0  0  0  0  0  0  0  0  0  0  0  0
  -27.1183    7.0687   -4.8047 H   0  0  0  0  0  0  0  0  0  0  0  0
  -24.3502    4.7314   -6.2320 H   0  0  0  0  0  0  0  0  0  0  0  0
  -23.5502    4.8185   -4.6147 H   0  0  0  0  0  0  0  0  0  0  0  0
  -25.4414    3.7223   -3.5741 H   0  0  0  0  0  0  0  0  0  0  0  0
  -24.5082    2.0987   -5.9656 H   0  0  0  0  0  0  0  0  0  0  0  0
  -23.6589    2.2985   -4.3782 H   0  0  0  0  0  0  0  0  0  0  0  0
  -24.9234    0.1570   -4.5237 H   0  0  0  0  0  0  0  0  0  0  0  0
  -25.5195    1.2535   -3.2098 H   0  0  0  0  0  0  0  0  0  0  0  0
  -26.7367    0.7919   -5.9409 H   0  0  0  0  0  0  0  0  0  0  0  0
  -27.6475    2.5828   -3.6197 H   0  0  0  0  0  0  0  0  0  0  0  0
  -29.5185    3.3249   -5.0071 H   0  0  0  0  0  0  0  0  0  0  0  0
  -28.9849    2.1977   -6.3236 H   0  0  0  0  0  0  0  0  0  0  0  0
  -29.9643    1.4192   -3.5251 H   0  0  0  0  0  0  0  0  0  0  0  0
  -30.8197    1.1637   -5.0954 H   0  0  0  0  0  0  0  0  0  0  0  0
  -27.6705    0.4112   -3.1621 H   0  0  0  0  0  0  0  0  0  0  0  0
  -26.8064   -1.7593   -5.1143 H   0  0  0  0  0  0  0  0  0  0  0  0
  -26.4184   -1.6189   -3.4085 H   0  0  0  0  0  0  0  0  0  0  0  0
  -28.6375   -3.0830   -4.5405 H   0  0  0  0  0  0  0  0  0  0  0  0
  -28.4497   -2.7271   -2.8173 H   0  0  0  0  0  0  0  0  0  0  0  0
  -29.9801   -0.8763   -2.9362 H   0  0  0  0  0  0  0  0  0  0  0  0
  -31.4174   -2.1718   -3.6332 H   0  0  0  0  0  0  0  0  0  0  0  0
  -29.0550   -1.6076   -6.3519 H   0  0  0  0  0  0  0  0  0  0  0  0
  -30.0236   -0.1498   -6.7558 H   0  0  0  0  0  0  0  0  0  0  0  0
  -28.2294   -0.0642   -6.7558 H   0  0  0  0  0  0  0  0  0  0  0  0
  -25.7803    3.0894   -7.1205 H   0  0  0  0  0  0  0  0  0  0  0  0
  -27.5742    3.0262   -7.1899 H   0  0  0  0  0  0  0  0  0  0  0  0
  -26.7306    4.6122   -7.1899 H   0  0  0  0  0  0  0  0  0  0  0  0
  1  2  1  0
  1 11  1  0
  2  3  1  0
  3  4  2  0
  3  5  1  0
  6  5  1  0
  6  7  1  0
  6 11  1  0
  7  8  1  0
  9  8  1  0
  9 10  1  0
  9 15  1  0
 10 11  1  0
 10 12  1  0
 11 21  1  6
 12 13  1  0
 13 14  1  0
 14 15  1  0
 14 18  1  0
 14 20  1  6
 15 16  1  0
 16 17  1  0
 17 18  1  0
 18 19  1  0
  1 22  1  0
  1 23  1  0
  2 24  1  0
  2 25  1  0
  5 26  1  0
  5 27  1  0
  6 28  1  1
  7 29  1  0
  7 30  1  0
  8 31  1  0
  8 32  1  0
  9 33  1  6
 10 34  1  1
 12 35  1  0
 12 36  1  0
 13 37  1  0
 13 38  1  0
 15 39  1  1
 16 40  1  0
 16 41  1  0
 17 42  1  0
 17 43  1  0
 18 44  1  1
 19 45  1  0
 20 46  1  0
 20 47  1  0
 20 48  1  0
 21 49  1  0
 21 50  1  0
 21 51  1  0
M  END
>  <filename_input>  (1) 
7ZU2_DHT_docked.sdf

>  <pdb_id>  (1) 
7ZU2_DHT

>  <pose_rank>  (1) 
0

>  <num_atoms_heavy>  (1) 
21

>  <num_torsions>  (1) 
0

>  <pose>  (1) 
[-27.44462023794103, 4.935991310115388, -4.81966200282594, 0.0030011257021706705, 0.03722036758899364, 0.0009415236425429418]

>  <energy>  (1) 
-2094.559432098361

>  <inter_energy>  (1) 
-2048.1021028269724

>  <intra_energy>  (1) 
0.0

>  <rmsd>  (1) 
0.127648

>  <sdf_rank>  (1) 
0

$$$$

     RDKit          3D

 51 54  0  0  0  0  0  0  0  0999 V2000
  -24.2970    2.1756   -4.0250 C   0  0  0  0  0  0  0  0  0  0  0  0
  -23.3416    3.3687   -3.8457 C   0  0  0  0  0  0  0  0  0  0  0  0
  -23.4753    4.3437   -4.9821 C   0  0  0  0  0  0  0  0  0  0  0  0
  -22.5194    4.7224   -5.6287 O   0  0  0  0  0  0  0  0  0  0  0  0
  -24.8688    4.7470   -5.3589 C   0  0  0  0  0  0  0  0  0  0  0  0
  -25.7728    3.5068   -5.5262 C   0  0  2  0  0  0  0  0  0  0  0  0
  -27.2021    3.8582   -5.9686 C   0  0  0  0  0  0  0  0  0  0  0  0
  -28.0344    2.5993   -6.2276 C   0  0  0  0  0  0  0  0  0  0  0  0
  -28.0795    1.6906   -4.9960 C   0  0  2  0  0  0  0  0  0  0  0  0
  -26.6439    1.3539   -4.5013 C   0  0  1  0  0  0  0  0  0  0  0  0
  -25.7608    2.6119   -4.2653 C   0  0  1  0  0  0  0  0  0  0  0  0
  -26.6586    0.4013   -3.2903 C   0  0  0  0  0  0  0  0  0  0  0  0
  -27.4644   -0.8855   -3.5833 C   0  0  0  0  0  0  0  0  0  0  0  0
  -28.8690   -0.5473   -4.0601 C   0  0  1  0  0  0  0  0  0  0  0  0
  -28.7653    0.3644   -5.2940 C   0  0  1  0  0  0  0  0  0  0  0  0
  -30.1985    0.3781   -5.8539 C   0  0  0  0  0  0  0  0  0  0  0  0
  -30.7123   -1.0571   -5.5768 C   0  0  0  0  0  0  0  0  0  0  0  0
  -29.6478   -1.7165   -4.6884 C   0  0  2  0  0  0  0  0  0  0  0  0
  -30.2258   -2.6346   -3.7555 O   0  0  0  0  0  0  0  0  0  0  0  0
  -29.6808    0.0943   -2.9185 C   0  0  0  0  0  0  0  0  0  0  0  0
  -26.2447    3.4091   -3.0360 C   0  0  0  0  0  0  0  0  0  0  0  0
  -23.9608    1.5826   -4.8882 H   0  0  0  0  0  0  0  0  0  0  0  0
  -24.2742    1.5900   -3.0942 H   0  0  0  0  0  0  0  0  0  0  0  0
  -23.5801    3.8815   -2.9023 H   0  0  0  0  0  0  0  0  0  0  0  0
  -22.3088    2.9903   -3.8293 H   0  0  0  0  0  0  0  0  0  0  0  0
  -25.2834    5.3915   -4.5698 H   0  0  0  0  0  0  0  0  0  0  0  0
  -24.8323    5.2880   -6.3160 H   0  0  0  0  0  0  0  0  0  0  0  0
  -25.3373    2.9206   -6.3489 H   0  0  0  0  0  0  0  0  0  0  0  0
  -27.6858    4.4502   -5.1777 H   0  0  0  0  0  0  0  0  0  0  0  0
  -27.1425    4.4315   -6.9056 H   0  0  0  0  0  0  0  0  0  0  0  0
  -29.0604    2.8972   -6.4892 H   0  0  0  0  0  0  0  0  0  0  0  0
  -27.5658    2.0401   -7.0508 H   0  0  0  0  0  0  0  0  0  0  0  0
  -28.6427    2.2451   -4.2309 H   0  0  0  0  0  0  0  0  0  0  0  0
  -26.1585    0.8117   -5.3262 H   0  0  0  0  0  0  0  0  0  0  0  0
  -25.6233    0.1247   -3.0420 H   0  0  0  0  0  0  0  0  0  0  0  0
  -27.1401    0.9231   -2.4501 H   0  0  0  0  0  0  0  0  0  0  0  0
  -26.9483   -1.4642   -4.3635 H   0  0  0  0  0  0  0  0  0  0  0  0
  -27.5389   -1.4733   -2.6564 H   0  0  0  0  0  0  0  0  0  0  0  0
  -28.0847    0.0081   -6.0812 H   0  0  0  0  0  0  0  0  0  0  0  0
  -30.8166    1.1239   -5.3326 H   0  0  0  0  0  0  0  0  0  0  0  0
  -30.2382    0.6477   -6.9196 H   0  0  0  0  0  0  0  0  0  0  0  0
  -31.6801   -1.0237   -5.0549 H   0  0  0  0  0  0  0  0  0  0  0  0
  -30.8672   -1.6194   -6.5094 H   0  0  0  0  0  0  0  0  0  0  0  0
  -28.9550   -2.3581   -5.2527 H   0  0  0  0  0  0  0  0  0  0  0  0
  -30.0349   -2.3314   -2.8326 H   0  0  0  0  0  0  0  0  0  0  0  0
  -29.2711   -0.2295   -1.9504 H   0  0  0  0  0  0  0  0  0  0  0  0
  -29.6185    1.1898   -2.9951 H   0  0  0  0  0  0  0  0  0  0  0  0
  -30.7323   -0.2195   -2.9951 H   0  0  0  0  0  0  0  0  0  0  0  0
  -25.9310    2.8923   -2.1171 H   0  0  0  0  0  0  0  0  0  0  0  0
  -25.8063    4.4177   -3.0574 H   0  0  0  0  0  0  0  0  0  0  0  0
  -27.3418    3.4857   -3.0574 H   0  0  0  0  0  0  0  0  0  0  0  0
  1  2  1  0
  1 11  1  0
  2  3  1  0
  3  4  2  0
  3  5  1  0
  6  5  1  0
  6  7  1  0
  6 11  1  0
  7  8  1  0
  9  8  1  0
  9 10  1  0
  9 15  1  0
 10 11  1  0
 10 12  1  0
 11 21  1  1
 12 13  1  0
 13 14  1  0
 14 15  1  0
 14 18  1  0
 14 20  1  1
 15 16  1  0
 16 17  1  0
 17 18  1  0
 18 19  1  0
  1 22  1  0
  1 23  1  0
  2 24  1  0
  2 25  1  0
  5 26  1  0
  5 27  1  0
  6 28  1  6
  7 29  1  0
  7 30  1  0
  8 31  1  0
  8 32  1  0
  9 33  1  1
 10 34  1  6
 12 35  1  0
 12 36  1  0
 13 37  1  0
 13 38  1  0
 15 39  1  6
 16 40  1  0
 16 41  1  0
 17 42  1  0
 17 43  1  0
 18 44  1  6
 19 45  1  0
 20 46  1  0
 20 47  1  0
 20 48  1  0
 21 49  1  0
 21 50  1  0
 21 51  1  0
M  END
>  <filename_input>  (2) 
7ZU2_DHT_docked.sdf

>  <pdb_id>  (2) 
7ZU2_DHT

>  <pose_rank>  (2) 
1

>  <num_atoms_heavy>  (2) 
21

>  <num_torsions>  (2) 
0

>  <pose>  (2) 
[-24.297035973469328, 2.175631824843998, -4.025015287744659, -2.2976402447419977, -2.8478102792892077, 0.35876353462943433]

>  <energy>  (2) 
-686.146042299783

>  <inter_energy>  (2) 
-662.7444677662335

>  <intra_energy>  (2) 
0.0

>  <rmsd>  (2) 
2.86133

>  <sdf_rank>  (2) 
0

$$$$

     RDKit          3D

 51 54  0  0  0  0  0  0  0  0999 V2000
  -28.9175   -0.3209   -4.6804 C   0  0  0  0  0  0  0  0  0  0  0  0
  -29.2682   -1.7084   -4.1143 C   0  0  0  0  0  0  0  0  0  0  0  0
  -28.1180   -2.6632   -4.2728 C   0  0  0  0  0  0  0  0  0  0  0  0
  -28.2434   -3.7485   -4.8036 O   0  0  0  0  0  0  0  0  0  0  0  0
  -26.7706   -2.1669   -3.8431 C   0  0  0  0  0  0  0  0  0  0  0  0
  -26.4799   -0.7761   -4.4466 C   0  0  2  0  0  0  0  0  0  0  0  0
  -25.0852   -0.2416   -4.0845 C   0  0  0  0  0  0  0  0  0  0  0  0
  -24.7938    1.0870   -4.7880 C   0  0  0  0  0  0  0  0  0  0  0  0
  -25.8555    2.1412   -4.4629 C   0  0  2  0  0  0  0  0  0  0  0  0
  -27.2821    1.6092   -4.7806 C   0  0  1  0  0  0  0  0  0  0  0  0
  -27.5948    0.2413   -4.1103 C   0  0  1  0  0  0  0  0  0  0  0  0
  -28.3678    2.6678   -4.5073 C   0  0  0  0  0  0  0  0  0  0  0  0
  -28.0835    3.9878   -5.2610 C   0  0  0  0  0  0  0  0  0  0  0  0
  -26.6891    4.5046   -4.9396 C   0  0  1  0  0  0  0  0  0  0  0  0
  -25.6655    3.4098   -5.2831 C   0  0  1  0  0  0  0  0  0  0  0  0
  -24.3150    4.1440   -5.2143 C   0  0  0  0  0  0  0  0  0  0  0  0
  -24.6426    5.5613   -5.7478 C   0  0  0  0  0  0  0  0  0  0  0  0
  -26.1722    5.6183   -5.8674 C   0  0  2  0  0  0  0  0  0  0  0  0
  -26.6805    6.9268   -5.5903 O   0  0  0  0  0  0  0  0  0  0  0  0
  -26.6094    4.9457   -3.4655 C   0  0  0  0  0  0  0  0  0  0  0  0
  -27.7422    0.3911   -2.5817 C   0  0  0  0  0  0  0  0  0  0  0  0
  -28.8234   -0.4008   -5.7735 H   0  0  0  0  0  0  0  0  0  0  0  0
  -29.7235    0.3690   -4.3899 H   0  0  0  0  0  0  0  0  0  0  0  0
  -29.5090   -1.6101   -3.0455 H   0  0  0  0  0  0  0  0  0  0  0  0
  -30.1309   -2.1049   -4.6697 H   0  0  0  0  0  0  0  0  0  0  0  0
  -26.7456   -2.0962   -2.7457 H   0  0  0  0  0  0  0  0  0  0  0  0
  -26.0053   -2.8724   -4.1992 H   0  0  0  0  0  0  0  0  0  0  0  0
  -26.4776   -0.9115   -5.5382 H   0  0  0  0  0  0  0  0  0  0  0  0
  -25.0321   -0.0891   -2.9964 H   0  0  0  0  0  0  0  0  0  0  0  0
  -24.3371   -0.9779   -4.4136 H   0  0  0  0  0  0  0  0  0  0  0  0
  -23.8112    1.4568   -4.4597 H   0  0  0  0  0  0  0  0  0  0  0  0
  -24.8045    0.9111   -5.8738 H   0  0  0  0  0  0  0  0  0  0  0  0
  -25.7444    2.3626   -3.3912 H   0  0  0  0  0  0  0  0  0  0  0  0
  -27.2973    1.4102   -5.8624 H   0  0  0  0  0  0  0  0  0  0  0  0
  -29.3408    2.2730   -4.8348 H   0  0  0  0  0  0  0  0  0  0  0  0
  -28.3720    2.8834   -3.4287 H   0  0  0  0  0  0  0  0  0  0  0  0
  -28.1610    3.8088   -6.3435 H   0  0  0  0  0  0  0  0  0  0  0  0
  -28.8201    4.7405   -4.9434 H   0  0  0  0  0  0  0  0  0  0  0  0
  -25.7738    2.9679   -6.2846 H   0  0  0  0  0  0  0  0  0  0  0  0
  -23.9453    4.1899   -4.1793 H   0  0  0  0  0  0  0  0  0  0  0  0
  -23.5257    3.6417   -5.7928 H   0  0  0  0  0  0  0  0  0  0  0  0
  -24.2842    6.3277   -5.0449 H   0  0  0  0  0  0  0  0  0  0  0  0
  -24.1529    5.7541   -6.7137 H   0  0  0  0  0  0  0  0  0  0  0  0
  -26.5298    5.4382   -6.8919 H   0  0  0  0  0  0  0  0  0  0  0  0
  -26.7322    7.0601   -4.6107 H   0  0  0  0  0  0  0  0  0  0  0  0
  -26.7669    4.0743   -2.8129 H   0  0  0  0  0  0  0  0  0  0  0  0
  -25.6183    5.3791   -3.2656 H   0  0  0  0  0  0  0  0  0  0  0  0
  -27.3859    5.6987   -3.2656 H   0  0  0  0  0  0  0  0  0  0  0  0
  -27.0568   -0.3058   -2.0773 H   0  0  0  0  0  0  0  0  0  0  0  0
  -27.4971    1.4228   -2.2891 H   0  0  0  0  0  0  0  0  0  0  0  0
  -28.7778    0.1632   -2.2891 H   0  0  0  0  0  0  0  0  0  0  0  0
  1  2  1  0
  1 11  1  0
  2  3  1  0
  3  4  2  0
  3  5  1  0
  6  5  1  0
  6  7  1  0
  6 11  1  0
  7  8  1  0
  9  8  1  0
  9 10  1  0
  9 15  1  0
 10 11  1  0
 10 12  1  0
 11 21  1  1
 12 13  1  0
 13 14  1  0
 14 15  1  0
 14 18  1  0
 14 20  1  1
 15 16  1  0
 16 17  1  0
 17 18  1  0
 18 19  1  0
  1 22  1  0
  1 23  1  0
  2 24  1  0
  2 25  1  0
  5 26  1  0
  5 27  1  0
  6 28  1  6
  7 29  1  0
  7 30  1  0
  8 31  1  0
  8 32  1  0
  9 33  1  1
 10 34  1  6
 12 35  1  0
 12 36  1  0
 13 37  1  0
 13 38  1  0
 15 39  1  6
 16 40  1  0
 16 41  1  0
 17 42  1  0
 17 43  1  0
 18 44  1  6
 19 45  1  0
 20 46  1  0
 20 47  1  0
 20 48  1  0
 21 49  1  0
 21 50  1  0
 21 51  1  0
M  END
>  <filename_input>  (3) 
7ZU2_DHT_docked.sdf

>  <pdb_id>  (3) 
7ZU2_DHT

>  <pose_rank>  (3) 
2

>  <num_atoms_heavy>  (3) 
21

>  <num_torsions>  (3) 
0

>  <pose>  (3) 
[-28.91748325650622, -0.320933603117559, -4.680439781840144, -2.9643570145675744, 1.167274301029694, -0.32761616799809673]

>  <energy>  (3) 
-564.1615360957575

>  <inter_energy>  (3) 
-572.0086025645523

>  <intra_energy>  (3) 
0.0

>  <rmsd>  (3) 
6.271

>  <sdf_rank>  (3) 
0

$$$$

     RDKit          3D

 51 54  0  0  0  0  0  0  0  0999 V2000
  -27.7880   -0.2340   -3.1416 C   0  0  0  0  0  0  0  0  0  0  0  0
  -28.2588   -1.6963   -3.2337 C   0  0  0  0  0  0  0  0  0  0  0  0
  -29.5552   -1.8003   -3.9875 C   0  0  0  0  0  0  0  0  0  0  0  0
  -30.5267   -2.3704   -3.5331 O   0  0  0  0  0  0  0  0  0  0  0  0
  -29.6334   -1.0653   -5.2914 C   0  0  0  0  0  0  0  0  0  0  0  0
  -29.1516    0.3924   -5.1296 C   0  0  2  0  0  0  0  0  0  0  0  0
  -29.2634    1.2114   -6.4253 C   0  0  0  0  0  0  0  0  0  0  0  0
  -28.8792    2.6761   -6.1977 C   0  0  0  0  0  0  0  0  0  0  0  0
  -27.4668    2.8049   -5.6210 C   0  0  2  0  0  0  0  0  0  0  0  0
  -27.3136    1.9505   -4.3304 C   0  0  1  0  0  0  0  0  0  0  0  0
  -27.7325    0.4649   -4.5197 C   0  0  1  0  0  0  0  0  0  0  0  0
  -25.9147    2.0988   -3.7018 C   0  0  0  0  0  0  0  0  0  0  0  0
  -25.5603    3.5803   -3.4358 C   0  0  0  0  0  0  0  0  0  0  0  0
  -25.7063    4.4075   -4.7043 C   0  0  1  0  0  0  0  0  0  0  0  0
  -27.1382    4.2418   -5.2397 C   0  0  1  0  0  0  0  0  0  0  0  0
  -27.2519    5.3398   -6.3117 C   0  0  0  0  0  0  0  0  0  0  0  0
  -26.4147    6.5063   -5.7295 C   0  0  0  0  0  0  0  0  0  0  0  0
  -25.7006    5.9324   -4.4974 C   0  0  2  0  0  0  0  0  0  0  0  0
  -24.4082    6.5169   -4.3096 O   0  0  0  0  0  0  0  0  0  0  0  0
  -24.6389    3.9959   -5.7363 C   0  0  0  0  0  0  0  0  0  0  0  0
  -26.7247   -0.2882   -5.4130 C   0  0  0  0  0  0  0  0  0  0  0  0
  -28.4845    0.3195   -2.4946 H   0  0  0  0  0  0  0  0  0  0  0  0
  -26.7674   -0.2395   -2.7314 H   0  0  0  0  0  0  0  0  0  0  0  0
  -27.4919   -2.2886   -3.7544 H   0  0  0  0  0  0  0  0  0  0  0  0
  -28.4155   -2.0781   -2.2141 H   0  0  0  0  0  0  0  0  0  0  0  0
  -28.9983   -1.5749   -6.0311 H   0  0  0  0  0  0  0  0  0  0  0  0
  -30.6806   -1.0550   -5.6278 H   0  0  0  0  0  0  0  0  0  0  0  0
  -29.8410    0.8638   -4.4136 H   0  0  0  0  0  0  0  0  0  0  0  0
  -28.5912    0.7787   -7.1809 H   0  0  0  0  0  0  0  0  0  0  0  0
  -30.3088    1.1776   -6.7660 H   0  0  0  0  0  0  0  0  0  0  0  0
  -28.9227    3.2100   -7.1584 H   0  0  0  0  0  0  0  0  0  0  0  0
  -29.5867    3.1093   -5.4753 H   0  0  0  0  0  0  0  0  0  0  0  0
  -26.7843    2.4568   -6.4103 H   0  0  0  0  0  0  0  0  0  0  0  0
  -28.0325    2.3626   -3.6070 H   0  0  0  0  0  0  0  0  0  0  0  0
  -25.8926    1.5505   -2.7484 H   0  0  0  0  0  0  0  0  0  0  0  0
  -25.1767    1.6917   -4.4085 H   0  0  0  0  0  0  0  0  0  0  0  0
  -26.2359    3.9799   -2.6651 H   0  0  0  0  0  0  0  0  0  0  0  0
  -24.5156    3.6372   -3.0963 H   0  0  0  0  0  0  0  0  0  0  0  0
  -27.9345    4.3938   -4.4962 H   0  0  0  0  0  0  0  0  0  0  0  0
  -26.8348    4.9974   -7.2702 H   0  0  0  0  0  0  0  0  0  0  0  0
  -28.2932    5.6249   -6.5224 H   0  0  0  0  0  0  0  0  0  0  0  0
  -25.6803    6.8576   -6.4693 H   0  0  0  0  0  0  0  0  0  0  0  0
  -27.0467    7.3676   -5.4673 H   0  0  0  0  0  0  0  0  0  0  0  0
  -26.2097    6.1768   -3.5535 H   0  0  0  0  0  0  0  0  0  0  0  0
  -24.2218    6.6012   -3.3409 H   0  0  0  0  0  0  0  0  0  0  0  0
  -23.7367    3.6480   -5.2119 H   0  0  0  0  0  0  0  0  0  0  0  0
  -25.0320    3.1849   -6.3670 H   0  0  0  0  0  0  0  0  0  0  0  0
  -24.3858    4.8609   -6.3670 H   0  0  0  0  0  0  0  0  0  0  0  0
  -26.0043   -0.8266   -4.7797 H   0  0  0  0  0  0  0  0  0  0  0  0
  -27.2634   -1.0069   -6.0481 H   0  0  0  0  0  0  0  0  0  0  0  0
  -26.1881    0.4320   -6.0481 H   0  0  0  0  0  0  0  0  0  0  0  0
  1  2  1  0
  1 11  1  0
  2  3  1  0
  3  4  2  0
  3  5  1  0
  6  5  1  0
  6  7  1  0
  6 11  1  0
  7  8  1  0
  9  8  1  0
  9 10  1  0
  9 15  1  0
 10 11  1  0
 10 12  1  0
 11 21  1  6
 12 13  1  0
 13 14  1  0
 14 15  1  0
 14 18  1  0
 14 20  1  6
 15 16  1  0
 16 17  1  0
 17 18  1  0
 18 19  1  0
  1 22  1  0
  1 23  1  0
  2 24  1  0
  2 25  1  0
  5 26  1  0
  5 27  1  0
  6 28  1  1
  7 29  1  0
  7 30  1  0
  8 31  1  0
  8 32  1  0
  9 33  1  6
 10 34  1  1
 12 35  1  0
 12 36  1  0
 13 37  1  0
 13 38  1  0
 15 39  1  1
 16 40  1  0
 16 41  1  0
 17 42  1  0
 17 43  1  0
 18 44  1  1
 19 45  1  0
 20 46  1  0
 20 47  1  0
 20 48  1  0
 21 49  1  0
 21 50  1  0
 21 51  1  0
M  END
>  <filename_input>  (4) 
7ZU2_DHT_docked.sdf

>  <pdb_id>  (4) 
7ZU2_DHT

>  <pose_rank>  (4) 
3

>  <num_atoms_heavy>  (4) 
21

>  <num_torsions>  (4) 
0

>  <pose>  (4) 
[-27.788039297509858, -0.23395681500637833, -3.141632096965721, -1.2626381101114081, 0.9383338689296868, 2.7849460756876168]

>  <energy>  (4) 
-489.9494327046291

>  <inter_energy>  (4) 
-506.7605191695603

>  <intra_energy>  (4) 
0.0

>  <rmsd>  (4) 
6.58308

>  <sdf_rank>  (4) 
0

$$$$

     RDKit          3D

 51 54  0  0  0  0  0  0  0  0999 V2000
  -27.2123   -1.0939   -3.7847 C   0  0  0  0  0  0  0  0  0  0  0  0
  -28.0085   -2.4063   -3.8960 C   0  0  0  0  0  0  0  0  0  0  0  0
  -29.4885   -2.1442   -3.8714 C   0  0  0  0  0  0  0  0  0  0  0  0
  -30.2351   -2.7087   -3.0974 O   0  0  0  0  0  0  0  0  0  0  0  0
  -29.9928   -1.0620   -4.7774 C   0  0  0  0  0  0  0  0  0  0  0  0
  -29.1555    0.2247   -4.6146 C   0  0  2  0  0  0  0  0  0  0  0  0
  -29.6641    1.3883   -5.4802 C   0  0  0  0  0  0  0  0  0  0  0  0
  -28.8767    2.6737   -5.2107 C   0  0  0  0  0  0  0  0  0  0  0  0
  -27.3760    2.4731   -5.4384 C   0  0  2  0  0  0  0  0  0  0  0  0
  -26.8433    1.2726   -4.6052 C   0  0  1  0  0  0  0  0  0  0  0  0
  -27.6470   -0.0397   -4.8288 C   0  0  1  0  0  0  0  0  0  0  0  0
  -25.3248    1.0773   -4.7788 C   0  0  0  0  0  0  0  0  0  0  0  0
  -24.5404    2.3709   -4.4586 C   0  0  0  0  0  0  0  0  0  0  0  0
  -25.0632    3.5383   -5.2823 C   0  0  1  0  0  0  0  0  0  0  0  0
  -26.5698    3.6941   -5.0172 C   0  0  1  0  0  0  0  0  0  0  0  0
  -26.9069    5.0591   -5.6423 C   0  0  0  0  0  0  0  0  0  0  0  0
  -25.6402    5.9084   -5.3691 C   0  0  0  0  0  0  0  0  0  0  0  0
  -24.5919    4.9291   -4.8222 C   0  0  2  0  0  0  0  0  0  0  0  0
  -23.2663    5.2871   -5.2248 O   0  0  0  0  0  0  0  0  0  0  0  0
  -24.7455    3.3239   -6.7747 C   0  0  0  0  0  0  0  0  0  0  0  0
  -27.3970   -0.6121   -6.2397 C   0  0  0  0  0  0  0  0  0  0  0  0
  -27.3631   -0.6754   -2.7787 H   0  0  0  0  0  0  0  0  0  0  0  0
  -26.1548   -1.3308   -3.9735 H   0  0  0  0  0  0  0  0  0  0  0  0
  -27.7476   -2.9059   -4.8407 H   0  0  0  0  0  0  0  0  0  0  0  0
  -27.7520   -3.0447   -3.0378 H   0  0  0  0  0  0  0  0  0  0  0  0
  -29.9272   -1.4052   -5.8204 H   0  0  0  0  0  0  0  0  0  0  0  0
  -31.0368   -0.8387   -4.5124 H   0  0  0  0  0  0  0  0  0  0  0  0
  -29.2875    0.5446   -3.5705 H   0  0  0  0  0  0  0  0  0  0  0  0
  -29.5560    1.1186   -6.5412 H   0  0  0  0  0  0  0  0  0  0  0  0
  -30.7193    1.5706   -5.2284 H   0  0  0  0  0  0  0  0  0  0  0  0
  -29.2382    3.4623   -5.8870 H   0  0  0  0  0  0  0  0  0  0  0  0
  -29.0304    2.9574   -4.1591 H   0  0  0  0  0  0  0  0  0  0  0  0
  -27.2546    2.2924   -6.5166 H   0  0  0  0  0  0  0  0  0  0  0  0
  -27.0112    1.5373   -3.5508 H   0  0  0  0  0  0  0  0  0  0  0  0
  -24.9883    0.2795   -4.1003 H   0  0  0  0  0  0  0  0  0  0  0  0
  -25.1315    0.8105   -5.8283 H   0  0  0  0  0  0  0  0  0  0  0  0
  -24.6523    2.6052   -3.3897 H   0  0  0  0  0  0  0  0  0  0  0  0
  -23.4808    2.2111   -4.7069 H   0  0  0  0  0  0  0  0  0  0  0  0
  -26.8568    3.7141   -3.9555 H   0  0  0  0  0  0  0  0  0  0  0  0
  -27.0890    4.9620   -6.7227 H   0  0  0  0  0  0  0  0  0  0  0  0
  -27.8201    5.5070   -5.2233 H   0  0  0  0  0  0  0  0  0  0  0  0
  -25.2822    6.3730   -6.2997 H   0  0  0  0  0  0  0  0  0  0  0  0
  -25.8437    6.7231   -4.6585 H   0  0  0  0  0  0  0  0  0  0  0  0
  -24.5184    4.9474   -3.7248 H   0  0  0  0  0  0  0  0  0  0  0  0
  -22.7071    5.4382   -4.4219 H   0  0  0  0  0  0  0  0  0  0  0  0
  -23.8373    2.7110   -6.8718 H   0  0  0  0  0  0  0  0  0  0  0  0
  -25.5886    2.8093   -7.2588 H   0  0  0  0  0  0  0  0  0  0  0  0
  -24.5839    4.2983   -7.2588 H   0  0  0  0  0  0  0  0  0  0  0  0
  -26.9581   -1.6172   -6.1551 H   0  0  0  0  0  0  0  0  0  0  0  0
  -28.3504   -0.6731   -6.7849 H   0  0  0  0  0  0  0  0  0  0  0  0
  -26.7043    0.0458   -6.7849 H   0  0  0  0  0  0  0  0  0  0  0  0
  1  2  1  0
  1 11  1  0
  2  3  1  0
  3  4  2  0
  3  5  1  0
  6  5  1  0
  6  7  1  0
  6 11  1  0
  7  8  1  0
  9  8  1  0
  9 10  1  0
  9 15  1  0
 10 11  1  0
 10 12  1  0
 11 21  1  6
 12 13  1  0
 13 14  1  0
 14 15  1  0
 14 18  1  0
 14 20  1  6
 15 16  1  0
 16 17  1  0
 17 18  1  0
 18 19  1  0
  1 22  1  0
  1 23  1  0
  2 24  1  0
  2 25  1  0
  5 26  1  0
  5 27  1  0
  6 28  1  1
  7 29  1  0
  7 30  1  0
  8 31  1  0
  8 32  1  0
  9 33  1  6
 10 34  1  1
 12 35  1  0
 12 36  1  0
 13 37  1  0
 13 38  1  0
 15 39  1  1
 16 40  1  0
 16 41  1  0
 17 42  1  0
 17 43  1  0
 18 44  1  1
 19 45  1  0
 20 46  1  0
 20 47  1  0
 20 48  1  0
 21 49  1  0
 21 50  1  0
 21 51  1  0
M  END
>  <filename_input>  (5) 
7ZU2_DHT_docked.sdf

>  <pdb_id>  (5) 
7ZU2_DHT

>  <pose_rank>  (5) 
4

>  <num_atoms_heavy>  (5) 
21

>  <num_torsions>  (5) 
0

>  <pose>  (5) 
[-27.21225834185585, -1.093926856998178, -3.784746422268579, 0.4030155399212866, -0.637854454961493, -3.1047712029793355]

>  <energy>  (5) 
-458.95992328035805

>  <inter_energy>  (5) 
-442.47589400179027

>  <intra_energy>  (5) 
0.0

>  <rmsd>  (5) 
6.62372

>  <sdf_rank>  (5) 
0

$$$$

     RDKit          3D

 51 54  0  0  0  0  0  0  0  0999 V2000
  -27.5108    4.8564   -4.9237 C   0  0  0  0  0  0  0  0  0  0  0  0
  -26.7297    6.0924   -5.4039 C   0  0  0  0  0  0  0  0  0  0  0  0
  -25.3012    6.0436   -4.9380 C   0  0  0  0  0  0  0  0  0  0  0  0
  -24.7834    6.9615   -4.3343 O   0  0  0  0  0  0  0  0  0  0  0  0
  -24.5690    4.7539   -5.1551 C   0  0  0  0  0  0  0  0  0  0  0  0
  -25.4034    3.5573   -4.6500 C   0  0  2  0  0  0  0  0  0  0  0  0
  -24.6762    2.2112   -4.7959 C   0  0  0  0  0  0  0  0  0  0  0  0
  -25.4895    1.0657   -4.1867 C   0  0  0  0  0  0  0  0  0  0  0  0
  -26.8855    0.9730   -4.8087 C   0  0  2  0  0  0  0  0  0  0  0  0
  -27.6281    2.3362   -4.7124 C   0  0  1  0  0  0  0  0  0  0  0  0
  -26.8111    3.5270   -5.2892 C   0  0  1  0  0  0  0  0  0  0  0  0
  -29.0550    2.2589   -5.2887 C   0  0  0  0  0  0  0  0  0  0  0  0
  -29.8781    1.1270   -4.6310 C   0  0  0  0  0  0  0  0  0  0  0  0
  -29.1478   -0.2036   -4.7354 C   0  0  1  0  0  0  0  0  0  0  0  0
  -27.7563   -0.0543   -4.0985 C   0  0  1  0  0  0  0  0  0  0  0  0
  -27.2535   -1.5043   -3.9861 C   0  0  0  0  0  0  0  0  0  0  0  0
  -28.5368   -2.3119   -3.6679 C   0  0  0  0  0  0  0  0  0  0  0  0
  -29.7025   -1.3282   -3.8434 C   0  0  2  0  0  0  0  0  0  0  0  0
  -30.8773   -1.9765   -4.3401 O   0  0  0  0  0  0  0  0  0  0  0  0
  -29.0784   -0.6610   -6.2051 C   0  0  0  0  0  0  0  0  0  0  0  0
  -26.7017    3.4347   -6.8255 C   0  0  0  0  0  0  0  0  0  0  0  0
  -27.6153    4.9096   -3.8299 H   0  0  0  0  0  0  0  0  0  0  0  0
  -28.4885    4.8658   -5.4276 H   0  0  0  0  0  0  0  0  0  0  0  0
  -26.7482    6.1245   -6.5032 H   0  0  0  0  0  0  0  0  0  0  0  0
  -27.2042    6.9912   -4.9831 H   0  0  0  0  0  0  0  0  0  0  0  0
  -24.3718    4.6278   -6.2299 H   0  0  0  0  0  0  0  0  0  0  0  0
  -23.6239    4.7866   -4.5932 H   0  0  0  0  0  0  0  0  0  0  0  0
  -25.5370    3.7130   -3.5693 H   0  0  0  0  0  0  0  0  0  0  0  0
  -24.5146    2.0061   -5.8645 H   0  0  0  0  0  0  0  0  0  0  0  0
  -23.7175    2.2768   -4.2606 H   0  0  0  0  0  0  0  0  0  0  0  0
  -24.9577    0.1185   -4.3604 H   0  0  0  0  0  0  0  0  0  0  0  0
  -25.6045    1.2597   -3.1101 H   0  0  0  0  0  0  0  0  0  0  0  0
  -26.7311    0.6788   -5.8573 H   0  0  0  0  0  0  0  0  0  0  0  0
  -27.7304    2.5503   -3.6383 H   0  0  0  0  0  0  0  0  0  0  0  0
  -29.5633    3.2182   -5.1115 H   0  0  0  0  0  0  0  0  0  0  0  0
  -28.9785    2.0456   -6.3651 H   0  0  0  0  0  0  0  0  0  0  0  0
  -30.0386    1.3678   -3.5697 H   0  0  0  0  0  0  0  0  0  0  0  0
  -30.8417    1.0421   -5.1546 H   0  0  0  0  0  0  0  0  0  0  0  0
  -27.7484    0.3982   -3.0959 H   0  0  0  0  0  0  0  0  0  0  0  0
  -26.8040   -1.8385   -4.9328 H   0  0  0  0  0  0  0  0  0  0  0  0
  -26.4711   -1.6272   -3.2227 H   0  0  0  0  0  0  0  0  0  0  0  0
  -28.6404   -3.1571   -4.3642 H   0  0  0  0  0  0  0  0  0  0  0  0
  -28.5101   -2.7318   -2.6515 H   0  0  0  0  0  0  0  0  0  0  0  0
  -30.0524   -0.9028   -2.8912 H   0  0  0  0  0  0  0  0  0  0  0  0
  -31.4320   -2.2825   -3.5794 H   0  0  0  0  0  0  0  0  0  0  0  0
  -28.9135   -1.7479   -6.2433 H   0  0  0  0  0  0  0  0  0  0  0  0
  -30.0240   -0.4156   -6.7105 H   0  0  0  0  0  0  0  0  0  0  0  0
  -28.2481   -0.1462   -6.7105 H   0  0  0  0  0  0  0  0  0  0  0  0
  -25.8860    2.7473   -7.0943 H   0  0  0  0  0  0  0  0  0  0  0  0
  -27.6492    3.0587   -7.2387 H   0  0  0  0  0  0  0  0  0  0  0  0
  -26.4917    4.4323   -7.2387 H   0  0  0  0  0  0  0  0  0  0  0  0
  1  2  1  0
  1 11  1  0
  2  3  1  0
  3  4  2  0
  3  5  1  0
  6  5  1  0
  6  7  1  0
  6 11  1  0
  7  8  1  0
  9  8  1  0
  9 10  1  0
  9 15  1  0
 10 11  1  0
 10 12  1  0
 11 21  1  6
 12 13  1  0
 13 14  1  0
 14 15  1  0
 14 18  1  0
 14 20  1  6
 15 16  1  0
 16 17  1  0
 17 18  1  0
 18 19  1  0
  1 22  1  0
  1 23  1  0
  2 24  1  0
  2 25  1  0
  5 26  1  0
  5 27  1  0
  6 28  1  1
  7 29  1  0
  7 30  1  0
  8 31  1  0
  8 32  1  0
  9 33  1  6
 10 34  1  1
 12 35  1  0
 12 36  1  0
 13 37  1  0
 13 38  1  0
 15 39  1  1
 16 40  1  0
 16 41  1  0
 17 42  1  0
 17 43  1  0
 18 44  1  1
 19 45  1  0
 20 46  1  0
 20 47  1  0
 20 48  1  0
 21 49  1  0
 21 50  1  0
 21 51  1  0
M  END
>  <filename_input>  (6) 
7ZU2_DHT_docked.sdf

>  <pdb_id>  (6) 
7ZU2_DHT

>  <pose_rank>  (6) 
5

>  <num_atoms_heavy>  (6) 
21

>  <num_torsions>  (6) 
0

>  <pose>  (6) 
[-27.510805483994037, 4.85638938368901, -4.923674479213853, -6.034063215380016, 0.9797075248917497, 1.6102601014054403]

>  <energy>  (6) 
-1973.4680852153192

>  <inter_energy>  (6) 
-1979.8160909944042

>  <intra_energy>  (6) 
0.0

>  <rmsd>  (6) 
0.217758

>  <sdf_rank>  (6) 
0

$$$$

     RDKit          3D

 51 54  0  0  0  0  0  0  0  0999 V2000
  -27.6865    5.1584   -4.2390 C   0  0  0  0  0  0  0  0  0  0  0  0
  -26.9200    6.4630   -4.5202 C   0  0  0  0  0  0  0  0  0  0  0  0
  -25.5936    6.4737   -3.8128 C   0  0  0  0  0  0  0  0  0  0  0  0
  -25.2516    7.3864   -3.0881 O   0  0  0  0  0  0  0  0  0  0  0  0
  -24.7490    5.2436   -3.9534 C   0  0  0  0  0  0  0  0  0  0  0  0
  -25.5747    3.9738   -3.6554 C   0  0  2  0  0  0  0  0  0  0  0  0
  -24.7434    2.6832   -3.7293 C   0  0  0  0  0  0  0  0  0  0  0  0
  -25.5698    1.4598   -3.3230 C   0  0  0  0  0  0  0  0  0  0  0  0
  -26.8278    1.3185   -4.1843 C   0  0  2  0  0  0  0  0  0  0  0  0
  -27.6669    2.6278   -4.1611 C   0  0  1  0  0  0  0  0  0  0  0  0
  -26.8454    3.8948   -4.5330 C   0  0  1  0  0  0  0  0  0  0  0  0
  -28.9641    2.4975   -4.9823 C   0  0  0  0  0  0  0  0  0  0  0  0
  -29.8095    1.2845   -4.5294 C   0  0  0  0  0  0  0  0  0  0  0  0
  -28.9834    0.0074   -4.5613 C   0  0  1  0  0  0  0  0  0  0  0  0
  -27.7362    0.2040   -3.6837 C   0  0  1  0  0  0  0  0  0  0  0  0
  -27.1630   -1.2175   -3.5476 C   0  0  0  0  0  0  0  0  0  0  0  0
  -28.4241   -2.1161   -3.4954 C   0  0  0  0  0  0  0  0  0  0  0  0
  -29.6061   -1.1952   -3.8304 C   0  0  2  0  0  0  0  0  0  0  0  0
  -30.6306   -1.8840   -4.5538 O   0  0  0  0  0  0  0  0  0  0  0  0
  -28.6301   -0.3642   -6.0143 C   0  0  0  0  0  0  0  0  0  0  0  0
  -26.4661    3.8932   -6.0286 C   0  0  0  0  0  0  0  0  0  0  0  0
  -27.9818    5.1455   -3.1794 H   0  0  0  0  0  0  0  0  0  0  0  0
  -28.5608    5.1372   -4.9062 H   0  0  0  0  0  0  0  0  0  0  0  0
  -26.7505    6.5539   -5.6032 H   0  0  0  0  0  0  0  0  0  0  0  0
  -27.5202    7.3077   -4.1509 H   0  0  0  0  0  0  0  0  0  0  0  0
  -24.3609    5.1883   -4.9812 H   0  0  0  0  0  0  0  0  0  0  0  0
  -23.9196    5.3016   -3.2331 H   0  0  0  0  0  0  0  0  0  0  0  0
  -25.9033    4.0620   -2.6093 H   0  0  0  0  0  0  0  0  0  0  0  0
  -24.3860    2.5467   -4.7606 H   0  0  0  0  0  0  0  0  0  0  0  0
  -23.8983    2.7763   -3.0313 H   0  0  0  0  0  0  0  0  0  0  0  0
  -24.9528    0.5569   -3.4413 H   0  0  0  0  0  0  0  0  0  0  0  0
  -25.8821    1.5877   -2.2761 H   0  0  0  0  0  0  0  0  0  0  0  0
  -26.4748    1.0917   -5.2012 H   0  0  0  0  0  0  0  0  0  0  0  0
  -27.9675    2.7765   -3.1135 H   0  0  0  0  0  0  0  0  0  0  0  0
  -29.5594    3.4138   -4.8559 H   0  0  0  0  0  0  0  0  0  0  0  0
  -28.6884    2.3482   -6.0367 H   0  0  0  0  0  0  0  0  0  0  0  0
  -30.1670    1.4571   -3.5035 H   0  0  0  0  0  0  0  0  0  0  0  0
  -30.6602    1.1713   -5.2176 H   0  0  0  0  0  0  0  0  0  0  0  0
  -27.9325    0.6008   -2.6767 H   0  0  0  0  0  0  0  0  0  0  0  0
  -26.5350   -1.4722   -4.4140 H   0  0  0  0  0  0  0  0  0  0  0  0
  -26.5178   -1.3352   -2.6645 H   0  0  0  0  0  0  0  0  0  0  0  0
  -28.3480   -2.9267   -4.2351 H   0  0  0  0  0  0  0  0  0  0  0  0
  -28.5449   -2.5885   -2.5094 H   0  0  0  0  0  0  0  0  0  0  0  0
  -30.1433   -0.8440   -2.9371 H   0  0  0  0  0  0  0  0  0  0  0  0
  -31.2584   -2.3062   -3.9153 H   0  0  0  0  0  0  0  0  0  0  0  0
  -27.8722   -1.1615   -6.0149 H   0  0  0  0  0  0  0  0  0  0  0  0
  -29.5339   -0.7171   -6.5326 H   0  0  0  0  0  0  0  0  0  0  0  0
  -28.2320    0.5205   -6.5326 H   0  0  0  0  0  0  0  0  0  0  0  0
  -25.3707    3.8886   -6.1291 H   0  0  0  0  0  0  0  0  0  0  0  0
  -26.8824    2.9968   -6.5115 H   0  0  0  0  0  0  0  0  0  0  0  0
  -26.8748    4.7931   -6.5115 H   0  0  0  0  0  0  0  0  0  0  0  0
  1  2  1  0
  1 11  1  0
  2  3  1  0
  3  4  2  0
  3  5  1  0
  6  5  1  0
  6  7  1  0
  6 11  1  0
  7  8  1  0
  9  8  1  0
  9 10  1  0
  9 15  1  0
 10 11  1  0
 10 12  1  0
 11 21  1  6
 12 13  1  0
 13 14  1  0
 14 15  1  0
 14 18  1  0
 14 20  1  6
 15 16  1  0
 16 17  1  0
 17 18  1  0
 18 19  1  0
  1 22  1  0
  1 23  1  0
  2 24  1  0
  2 25  1  0
  5 26  1  0
  5 27  1  0
  6 28  1  1
  7 29  1  0
  7 30  1  0
  8 31  1  0
  8 32  1  0
  9 33  1  6
 10 34  1  1
 12 35  1  0
 12 36  1  0
 13 37  1  0
 13 38  1  0
 15 39  1  1
 16 40  1  0
 16 41  1  0
 17 42  1  0
 17 43  1  0
 18 44  1  1
 19 45  1  0
 20 46  1  0
 20 47  1  0
 20 48  1  0
 21 49  1  0
 21 50  1  0
 21 51  1  0
M  END
>  <filename_input>  (7) 
7ZU2_DHT_docked.sdf

>  <pdb_id>  (7) 
7ZU2_DHT

>  <pose_rank>  (7) 
6

>  <num_atoms_heavy>  (7) 
21

>  <num_torsions>  (7) 
0

>  <pose>  (7) 
[-27.68650815599053, 5.158362764362758, -4.238979647101682, -0.38400069379053753, 5.6226512471242645, -2.3285513753607567]

>  <energy>  (7) 
-1194.920652456761

>  <inter_energy>  (7) 
-1196.994119206425

>  <intra_energy>  (7) 
0.0

>  <rmsd>  (7) 
0.719241

>  <sdf_rank>  (7) 
0

$$$$

     RDKit          3D

 51 54  0  0  0  0  0  0  0  0999 V2000
  -18.7000    0.8959  -13.1819 C   0  0  0  0  0  0  0  0  0  0  0  0
  -17.4813    1.7849  -12.8772 C   0  0  0  0  0  0  0  0  0  0  0  0
  -17.3469    2.0300  -11.4001 C   0  0  0  0  0  0  0  0  0  0  0  0
  -17.2537    3.1473  -10.9331 O   0  0  0  0  0  0  0  0  0  0  0  0
  -17.4464    0.8286  -10.5095 C   0  0  0  0  0  0  0  0  0  0  0  0
  -18.6887   -0.0164  -10.8643 C   0  0  2  0  0  0  0  0  0  0  0  0
  -18.8727   -1.2334   -9.9440 C   0  0  0  0  0  0  0  0  0  0  0  0
  -20.1706   -1.9828  -10.2580 C   0  0  0  0  0  0  0  0  0  0  0  0
  -20.2254   -2.4251  -11.7228 C   0  0  2  0  0  0  0  0  0  0  0  0
  -19.9991   -1.2176  -12.6766 C   0  0  1  0  0  0  0  0  0  0  0  0
  -18.7070   -0.4129  -12.3589 C   0  0  1  0  0  0  0  0  0  0  0  0
  -20.0964   -1.6260  -14.1591 C   0  0  0  0  0  0  0  0  0  0  0  0
  -21.4320   -2.3406  -14.4702 C   0  0  0  0  0  0  0  0  0  0  0  0
  -21.6422   -3.5240  -13.5374 C   0  0  1  0  0  0  0  0  0  0  0  0
  -21.5772   -3.0251  -12.0844 C   0  0  1  0  0  0  0  0  0  0  0  0
  -22.1023   -4.2196  -11.2689 C   0  0  0  0  0  0  0  0  0  0  0  0
  -23.1934   -4.8333  -12.1818 C   0  0  0  0  0  0  0  0  0  0  0  0
  -23.0661   -4.1077  -13.5289 C   0  0  2  0  0  0  0  0  0  0  0  0
  -23.3787   -4.9672  -14.6293 O   0  0  0  0  0  0  0  0  0  0  0  0
  -20.6058   -4.6258  -13.8302 C   0  0  0  0  0  0  0  0  0  0  0  0
  -17.4440   -1.2246  -12.7147 C   0  0  0  0  0  0  0  0  0  0  0  0
  -19.6145    1.4617  -12.9504 H   0  0  0  0  0  0  0  0  0  0  0  0
  -18.6504    0.6186  -14.2452 H   0  0  0  0  0  0  0  0  0  0  0  0
  -16.5719    1.2857  -13.2429 H   0  0  0  0  0  0  0  0  0  0  0  0
  -17.6197    2.7529  -13.3811 H   0  0  0  0  0  0  0  0  0  0  0  0
  -16.5438    0.2122  -10.6334 H   0  0  0  0  0  0  0  0  0  0  0  0
  -17.5378    1.1691   -9.4675 H   0  0  0  0  0  0  0  0  0  0  0  0
  -19.5595    0.6317  -10.6861 H   0  0  0  0  0  0  0  0  0  0  0  0
  -18.0225   -1.9176  -10.0818 H   0  0  0  0  0  0  0  0  0  0  0  0
  -18.9231   -0.8760   -8.9049 H   0  0  0  0  0  0  0  0  0  0  0  0
  -20.2342   -2.8721   -9.6139 H   0  0  0  0  0  0  0  0  0  0  0  0
  -21.0146   -1.3022  -10.0723 H   0  0  0  0  0  0  0  0  0  0  0  0
  -19.4325   -3.1783  -11.8417 H   0  0  0  0  0  0  0  0  0  0  0  0
  -20.8276   -0.5201  -12.4841 H   0  0  0  0  0  0  0  0  0  0  0  0
  -20.0216   -0.7232  -14.7831 H   0  0  0  0  0  0  0  0  0  0  0  0
  -19.2753   -2.3251  -14.3763 H   0  0  0  0  0  0  0  0  0  0  0  0
  -22.2604   -1.6284  -14.3414 H   0  0  0  0  0  0  0  0  0  0  0  0
  -21.4014   -2.7094  -15.5060 H   0  0  0  0  0  0  0  0  0  0  0  0
  -22.2032   -2.1478  -11.8642 H   0  0  0  0  0  0  0  0  0  0  0  0
  -21.2992   -4.9456  -11.0743 H   0  0  0  0  0  0  0  0  0  0  0  0
  -22.4873   -3.9262  -10.2811 H   0  0  0  0  0  0  0  0  0  0  0  0
  -23.0233   -5.9125  -12.3101 H   0  0  0  0  0  0  0  0  0  0  0  0
  -24.1979   -4.7134  -11.7500 H   0  0  0  0  0  0  0  0  0  0  0  0
  -23.7970   -3.2946  -13.6494 H   0  0  0  0  0  0  0  0  0  0  0  0
  -23.6962   -5.8400  -14.2865 H   0  0  0  0  0  0  0  0  0  0  0  0
  -20.2241   -5.0315  -12.8817 H   0  0  0  0  0  0  0  0  0  0  0  0
  -21.0808   -5.4316  -14.4090 H   0  0  0  0  0  0  0  0  0  0  0  0
  -19.7724   -4.2008  -14.4090 H   0  0  0  0  0  0  0  0  0  0  0  0
  -16.9426   -1.5469  -11.7902 H   0  0  0  0  0  0  0  0  0  0  0  0
  -17.7300   -2.1084  -13.3039 H   0  0  0  0  0  0  0  0  0  0  0  0
  -16.7588   -0.5973  -13.3039 H   0  0  0  0  0  0  0  0  0  0  0  0
  1  2  1  0
  1 11  1  0
  2  3  1  0
  3  4  2  0
  3  5  1  0
  6  5  1  0
  6  7  1  0
  6 11  1  0
  7  8  1  0
  9  8  1  0
  9 10  1  0
  9 15  1  0
 10 11  1  0
 10 12  1  0
 11 21  1  6
 12 13  1  0
 13 14  1  0
 14 15  1  0
 14 18  1  0
 14 20  1  1
 15 16  1  0
 16 17  1  0
 17 18  1  0
 18 19  1  0
  1 22  1  0
  1 23  1  0
  2 24  1  0
  2 25  1  0
  5 26  1  0
  5 27  1  0
  6 28  1  6
  7 29  1  0
  7 30  1  0
  8 31  1  0
  8 32  1  0
  9 33  1  1
 10 34  1  1
 12 35  1  0
 12 36  1  0
 13 37  1  0
 13 38  1  0
 15 39  1  6
 16 40  1  0
 16 41  1  0
 17 42  1  0
 17 43  1  0
 18 44  1  1
 19 45  1  0
 20 46  1  0
 20 47  1  0
 20 48  1  0
 21 49  1  0
 21 50  1  0
 21 51  1  0
M  END
>  <filename_input>  (8) 
7ZU2_DHT_docked.sdf

>  <pdb_id>  (8) 
7ZU2_DHT

>  <pose_rank>  (8) 
7

>  <num_atoms_heavy>  (8) 
21

>  <num_torsions>  (8) 
0

>  <pose>  (8) 
[-18.700041542056283, 0.8959365921355581, -13.181917439522117, 1.9447354391052678, 4.47590033578721, 1.0497926078731314]

>  <energy>  (8) 
-144.99383767637102

>  <inter_energy>  (8) 
-134.8848966706876

>  <intra_energy>  (8) 
0.0

>  <rmsd>  (8) 
11.3119

>  <sdf_rank>  (8) 
0

$$$$

     RDKit          3D

 51 54  0  0  0  0  0  0  0  0999 V2000
  -20.2430   -0.5641  -10.1341 C   0  0  0  0  0  0  0  0  0  0  0  0
  -19.4725    0.7374   -9.8499 C   0  0  0  0  0  0  0  0  0  0  0  0
  -18.0572    0.4479   -9.4339 C   0  0  0  0  0  0  0  0  0  0  0  0
  -17.5746    0.8994   -8.4149 O   0  0  0  0  0  0  0  0  0  0  0  0
  -17.2944   -0.5235  -10.2829 C   0  0  0  0  0  0  0  0  0  0  0  0
  -18.1195   -1.8052  -10.5268 C   0  0  2  0  0  0  0  0  0  0  0  0
  -17.3626   -2.8625  -11.3462 C   0  0  0  0  0  0  0  0  0  0  0  0
  -18.1706   -4.1569  -11.4743 C   0  0  0  0  0  0  0  0  0  0  0  0
  -19.5463   -3.9030  -12.0967 C   0  0  2  0  0  0  0  0  0  0  0  0
  -20.3176   -2.8048  -11.3105 C   0  0  1  0  0  0  0  0  0  0  0  0
  -19.5076   -1.4896  -11.1308 C   0  0  1  0  0  0  0  0  0  0  0  0
  -21.7257   -2.5625  -11.8872 C   0  0  0  0  0  0  0  0  0  0  0  0
  -22.5451   -3.8714  -11.9672 C   0  0  0  0  0  0  0  0  0  0  0  0
  -21.7866   -4.9377  -12.7432 C   0  0  1  0  0  0  0  0  0  0  0  0
  -20.4169   -5.1519  -12.0780 C   0  0  1  0  0  0  0  0  0  0  0  0
  -19.8897   -6.4355  -12.7430 C   0  0  0  0  0  0  0  0  0  0  0  0
  -21.1657   -7.2891  -12.9514 C   0  0  0  0  0  0  0  0  0  0  0  0
  -22.3447   -6.3659  -12.6124 C   0  0  2  0  0  0  0  0  0  0  0  0
  -23.4921   -6.6479  -13.4194 O   0  0  0  0  0  0  0  0  0  0  0  0
  -21.6665   -4.5357  -14.2258 C   0  0  0  0  0  0  0  0  0  0  0  0
  -19.3526   -0.7435  -12.4725 C   0  0  0  0  0  0  0  0  0  0  0  0
  -20.3796   -1.1059   -9.1865 H   0  0  0  0  0  0  0  0  0  0  0  0
  -21.2059   -0.2869  -10.5878 H   0  0  0  0  0  0  0  0  0  0  0  0
  -19.4603    1.3541  -10.7608 H   0  0  0  0  0  0  0  0  0  0  0  0
  -19.9761    1.2700   -9.0297 H   0  0  0  0  0  0  0  0  0  0  0  0
  -17.0642   -0.0534  -11.2504 H   0  0  0  0  0  0  0  0  0  0  0  0
  -16.3665   -0.7963   -9.7589 H   0  0  0  0  0  0  0  0  0  0  0  0
  -18.2869   -2.2535   -9.5363 H   0  0  0  0  0  0  0  0  0  0  0  0
  -17.1667   -2.4624  -12.3520 H   0  0  0  0  0  0  0  0  0  0  0  0
  -16.4210   -3.0932  -10.8265 H   0  0  0  0  0  0  0  0  0  0  0  0
  -17.6159   -4.8627  -12.1100 H   0  0  0  0  0  0  0  0  0  0  0  0
  -18.3201   -4.5705  -10.4660 H   0  0  0  0  0  0  0  0  0  0  0  0
  -19.3563   -3.5889  -13.1336 H   0  0  0  0  0  0  0  0  0  0  0  0
  -20.4545   -3.2002  -10.2931 H   0  0  0  0  0  0  0  0  0  0  0  0
  -22.2572   -1.8483  -11.2411 H   0  0  0  0  0  0  0  0  0  0  0  0
  -21.6144   -2.1652  -12.9069 H   0  0  0  0  0  0  0  0  0  0  0  0
  -22.7404   -4.2373  -10.9484 H   0  0  0  0  0  0  0  0  0  0  0  0
  -23.4917   -3.6632  -12.4876 H   0  0  0  0  0  0  0  0  0  0  0  0
  -20.4464   -5.3075  -10.9895 H   0  0  0  0  0  0  0  0  0  0  0  0
  -19.4069   -6.2094  -13.7052 H   0  0  0  0  0  0  0  0  0  0  0  0
  -19.1271   -6.9478  -12.1379 H   0  0  0  0  0  0  0  0  0  0  0  0
  -21.2330   -7.6292  -13.9954 H   0  0  0  0  0  0  0  0  0  0  0  0
  -21.1598   -8.1885  -12.3182 H   0  0  0  0  0  0  0  0  0  0  0  0
  -22.7297   -6.5178  -11.5933 H   0  0  0  0  0  0  0  0  0  0  0  0
  -24.2679   -6.8386  -12.8347 H   0  0  0  0  0  0  0  0  0  0  0  0
  -21.3522   -3.4839  -14.2962 H   0  0  0  0  0  0  0  0  0  0  0  0
  -20.9202   -5.1752  -14.7198 H   0  0  0  0  0  0  0  0  0  0  0  0
  -22.6413   -4.6609  -14.7198 H   0  0  0  0  0  0  0  0  0  0  0  0
  -19.1323    0.3167  -12.2791 H   0  0  0  0  0  0  0  0  0  0  0  0
  -18.5281   -1.1904  -13.0474 H   0  0  0  0  0  0  0  0  0  0  0  0
  -20.2869   -0.8250  -13.0474 H   0  0  0  0  0  0  0  0  0  0  0  0
  1  2  1  0
  1 11  1  0
  2  3  1  0
  3  4  2  0
  3  5  1  0
  6  5  1  0
  6  7  1  0
  6 11  1  0
  7  8  1  0
  9  8  1  0
  9 10  1  0
  9 15  1  0
 10 11  1  0
 10 12  1  0
 11 21  1  6
 12 13  1  0
 13 14  1  0
 14 15  1  0
 14 18  1  0
 14 20  1  6
 15 16  1  0
 16 17  1  0
 17 18  1  0
 18 19  1  0
  1 22  1  0
  1 23  1  0
  2 24  1  0
  2 25  1  0
  5 26  1  0
  5 27  1  0
  6 28  1  1
  7 29  1  0
  7 30  1  0
  8 31  1  0
  8 32  1  0
  9 33  1  6
 10 34  1  1
 12 35  1  0
 12 36  1  0
 13 37  1  0
 13 38  1  0
 15 39  1  1
 16 40  1  0
 16 41  1  0
 17 42  1  0
 17 43  1  0
 18 44  1  1
 19 45  1  0
 20 46  1  0
 20 47  1  0
 20 48  1  0
 21 49  1  0
 21 50  1  0
 21 51  1  0
M  END
>  <filename_input>  (9) 
7ZU2_DHT_docked.sdf

>  <pdb_id>  (9) 
7ZU2_DHT

>  <pose_rank>  (9) 
8

>  <num_atoms_heavy>  (9) 
21

>  <num_torsions>  (9) 
0

>  <pose>  (9) 
[-20.242975276267135, -0.5641383664486885, -10.134103772555923, 0.5290226785337679, -0.03033807870267586, 0.02129648764245909]

>  <energy>  (9) 
-192.37344811332972

>  <inter_energy>  (9) 
-155.36025431904136

>  <intra_energy>  (9) 
0.0

>  <rmsd>  (9) 
11.3361

>  <sdf_rank>  (9) 
0

$$$$

     RDKit          3D

 51 54  0  0  0  0  0  0  0  0999 V2000
  -17.4934   -6.2932   -8.7879 C   0  0  0  0  0  0  0  0  0  0  0  0
  -17.7081   -7.4058   -7.7465 C   0  0  0  0  0  0  0  0  0  0  0  0
  -18.5068   -6.9037   -6.5762 C   0  0  0  0  0  0  0  0  0  0  0  0
  -18.1259   -7.0265   -5.4294 O   0  0  0  0  0  0  0  0  0  0  0  0
  -19.7544   -6.1369   -6.8955 C   0  0  0  0  0  0  0  0  0  0  0  0
  -19.4702   -5.0370   -7.9408 C   0  0  2  0  0  0  0  0  0  0  0  0
  -20.7044   -4.1804   -8.2650 C   0  0  0  0  0  0  0  0  0  0  0  0
  -20.3572   -3.0360   -9.2213 C   0  0  0  0  0  0  0  0  0  0  0  0
  -19.7295   -3.5558  -10.5175 C   0  0  2  0  0  0  0  0  0  0  0  0
  -18.5018   -4.4618  -10.2158 C   0  0  1  0  0  0  0  0  0  0  0  0
  -18.8135   -5.6122   -9.2171 C   0  0  1  0  0  0  0  0  0  0  0  0
  -17.8213   -4.9609  -11.5050 C   0  0  0  0  0  0  0  0  0  0  0  0
  -17.4355   -3.7906  -12.4392 C   0  0  0  0  0  0  0  0  0  0  0  0
  -18.6430   -2.9135  -12.7344 C   0  0  1  0  0  0  0  0  0  0  0  0
  -19.2328   -2.4209  -11.4025 C   0  0  1  0  0  0  0  0  0  0  0  0
  -20.2234   -1.3239  -11.8304 C   0  0  0  0  0  0  0  0  0  0  0  0
  -19.5310   -0.6615  -13.0479 C   0  0  0  0  0  0  0  0  0  0  0  0
  -18.3236   -1.5515  -13.3756 C   0  0  2  0  0  0  0  0  0  0  0  0
  -18.0534   -1.5878  -14.7803 O   0  0  0  0  0  0  0  0  0  0  0  0
  -19.6696   -3.6862  -13.5847 C   0  0  0  0  0  0  0  0  0  0  0  0
  -19.7289   -6.6749   -9.8601 C   0  0  0  0  0  0  0  0  0  0  0  0
  -16.8287   -5.5306   -8.3558 H   0  0  0  0  0  0  0  0  0  0  0  0
  -17.0536   -6.7574   -9.6830 H   0  0  0  0  0  0  0  0  0  0  0  0
  -18.2474   -8.2404   -8.2182 H   0  0  0  0  0  0  0  0  0  0  0  0
  -16.7248   -7.7381   -7.3821 H   0  0  0  0  0  0  0  0  0  0  0  0
  -20.5100   -6.8286   -7.2963 H   0  0  0  0  0  0  0  0  0  0  0  0
  -20.1210   -5.6610   -5.9741 H   0  0  0  0  0  0  0  0  0  0  0  0
  -18.7427   -4.3552   -7.4762 H   0  0  0  0  0  0  0  0  0  0  0  0
  -21.4691   -4.8178   -8.7330 H   0  0  0  0  0  0  0  0  0  0  0  0
  -21.0786   -3.7449   -7.3268 H   0  0  0  0  0  0  0  0  0  0  0  0
  -21.2765   -2.4839   -9.4661 H   0  0  0  0  0  0  0  0  0  0  0  0
  -19.6267   -2.3812   -8.7236 H   0  0  0  0  0  0  0  0  0  0  0  0
  -20.5213   -4.1194  -11.0327 H   0  0  0  0  0  0  0  0  0  0  0  0
  -17.7722   -3.8211   -9.6989 H   0  0  0  0  0  0  0  0  0  0  0  0
  -16.9111   -5.5164  -11.2352 H   0  0  0  0  0  0  0  0  0  0  0  0
  -18.5334   -5.6060  -12.0404 H   0  0  0  0  0  0  0  0  0  0  0  0
  -16.6583   -3.1825  -11.9532 H   0  0  0  0  0  0  0  0  0  0  0  0
  -17.0609   -4.2050  -13.3868 H   0  0  0  0  0  0  0  0  0  0  0  0
  -18.5048   -1.9829  -10.7038 H   0  0  0  0  0  0  0  0  0  0  0  0
  -21.1915   -1.7596  -12.1184 H   0  0  0  0  0  0  0  0  0  0  0  0
  -20.4442   -0.6094  -11.0236 H   0  0  0  0  0  0  0  0  0  0  0  0
  -20.2198   -0.6193  -13.9044 H   0  0  0  0  0  0  0  0  0  0  0  0
  -19.2251    0.3719  -12.8277 H   0  0  0  0  0  0  0  0  0  0  0  0
  -17.3801   -1.1640  -12.9637 H   0  0  0  0  0  0  0  0  0  0  0  0
  -17.0829   -1.7182  -14.9264 H   0  0  0  0  0  0  0  0  0  0  0  0
  -20.3712   -4.2143  -12.9222 H   0  0  0  0  0  0  0  0  0  0  0  0
  -20.2253   -2.9804  -14.2195 H   0  0  0  0  0  0  0  0  0  0  0  0
  -19.1451   -4.4156  -14.2195 H   0  0  0  0  0  0  0  0  0  0  0  0
  -20.2285   -7.2549   -9.0701 H   0  0  0  0  0  0  0  0  0  0  0  0
  -20.4859   -6.1775  -10.4843 H   0  0  0  0  0  0  0  0  0  0  0  0
  -19.1250   -7.3499  -10.4843 H   0  0  0  0  0  0  0  0  0  0  0  0
  1  2  1  0
  1 11  1  0
  2  3  1  0
  3  4  2  0
  3  5  1  0
  6  5  1  0
  6  7  1  0
  6 11  1  0
  7  8  1  0
  9  8  1  0
  9 10  1  0
  9 15  1  0
 10 11  1  0
 10 12  1  0
 11 21  1  6
 12 13  1  0
 13 14  1  0
 14 15  1  0
 14 18  1  0
 14 20  1  6
 15 16  1  0
 16 17  1  0
 17 18  1  0
 18 19  1  0
  1 22  1  0
  1 23  1  0
  2 24  1  0
  2 25  1  0
  5 26  1  0
  5 27  1  0
  6 28  1  1
  7 29  1  0
  7 30  1  0
  8 31  1  0
  8 32  1  0
  9 33  1  6
 10 34  1  1
 12 35  1  0
 12 36  1  0
 13 37  1  0
 13 38  1  0
 15 39  1  1
 16 40  1  0
 16 41  1  0
 17 42  1  0
 17 43  1  0
 18 44  1  1
 19 45  1  0
 20 46  1  0
 20 47  1  0
 20 48  1  0
 21 49  1  0
 21 50  1  0
 21 51  1  0
M  END
>  <filename_input>  (10) 
7ZU2_DHT_docked.sdf

>  <pdb_id>  (10) 
7ZU2_DHT

>  <pose_rank>  (10) 
9

>  <num_atoms_heavy>  (10) 
21

>  <num_torsions>  (10) 
0

>  <pose>  (10) 
[-17.49337838700738, -6.293194861389474, -8.787949491419887, 1.2326585908304664, 1.263909633140105, 2.8717213443573355]

>  <energy>  (10) 
-137.58786061392885

>  <inter_energy>  (10) 
-141.1828441612881

>  <intra_energy>  (10) 
0.0

>  <rmsd>  (10) 
13.2349

>  <sdf_rank>  (10) 
0

$$$$

     RDKit          3D

 51 54  0  0  0  0  0  0  0  0999 V2000
  -36.1837    5.0108    2.2175 C   0  0  0  0  0  0  0  0  0  0  0  0
  -36.8069    4.0962    3.2869 C   0  0  0  0  0  0  0  0  0  0  0  0
  -35.7864    3.6926    4.3142 C   0  0  0  0  0  0  0  0  0  0  0  0
  -35.5840    2.5313    4.6072 O   0  0  0  0  0  0  0  0  0  0  0  0
  -34.9415    4.7901    4.8870 C   0  0  0  0  0  0  0  0  0  0  0  0
  -34.3451    5.6662    3.7646 C   0  0  2  0  0  0  0  0  0  0  0  0
  -33.4220    6.7759    4.2925 C   0  0  0  0  0  0  0  0  0  0  0  0
  -32.7669    7.5526    3.1469 C   0  0  0  0  0  0  0  0  0  0  0  0
  -33.8124    8.1512    2.2019 C   0  0  2  0  0  0  0  0  0  0  0  0
  -34.7873    7.0547    1.6858 C   0  0  1  0  0  0  0  0  0  0  0  0
  -35.4405    6.2226    2.8256 C   0  0  1  0  0  0  0  0  0  0  0  0
  -35.8219    7.6213    0.6947 C   0  0  0  0  0  0  0  0  0  0  0  0
  -35.1433    8.3630   -0.4804 C   0  0  0  0  0  0  0  0  0  0  0  0
  -34.1969    9.4378    0.0330 C   0  0  1  0  0  0  0  0  0  0  0  0
  -33.1718    8.7843    0.9745 C   0  0  1  0  0  0  0  0  0  0  0  0
  -32.1120    9.8824    1.1721 C   0  0  0  0  0  0  0  0  0  0  0  0
  -32.0580   10.5896   -0.2054 C   0  0  0  0  0  0  0  0  0  0  0  0
  -33.2289   10.0147   -1.0151 C   0  0  2  0  0  0  0  0  0  0  0  0
  -33.7958   10.9879   -1.8976 O   0  0  0  0  0  0  0  0  0  0  0  0
  -34.9912   10.5668    0.7174 C   0  0  0  0  0  0  0  0  0  0  0  0
  -36.4527    7.0704    3.6240 C   0  0  0  0  0  0  0  0  0  0  0  0
  -35.4689    4.4216    1.6242 H   0  0  0  0  0  0  0  0  0  0  0  0
  -37.0035    5.4020    1.5972 H   0  0  0  0  0  0  0  0  0  0  0  0
  -37.6264    4.6338    3.7862 H   0  0  0  0  0  0  0  0  0  0  0  0
  -37.1845    3.1884    2.7937 H   0  0  0  0  0  0  0  0  0  0  0  0
  -35.5623    5.4179    5.5431 H   0  0  0  0  0  0  0  0  0  0  0  0
  -34.1165    4.3383    5.4573 H   0  0  0  0  0  0  0  0  0  0  0  0
  -33.7060    5.0011    3.1654 H   0  0  0  0  0  0  0  0  0  0  0  0
  -34.0140    7.4726    4.9042 H   0  0  0  0  0  0  0  0  0  0  0  0
  -32.6269    6.3078    4.8914 H   0  0  0  0  0  0  0  0  0  0  0  0
  -32.1594    8.3667    3.5690 H   0  0  0  0  0  0  0  0  0  0  0  0
  -32.1420    6.8543    2.5708 H   0  0  0  0  0  0  0  0  0  0  0  0
  -34.3475    8.9142    2.7863 H   0  0  0  0  0  0  0  0  0  0  0  0
  -34.1685    6.3389    1.1248 H   0  0  0  0  0  0  0  0  0  0  0  0
  -36.4223    6.7917    0.2931 H   0  0  0  0  0  0  0  0  0  0  0  0
  -36.4546    8.3413    1.2344 H   0  0  0  0  0  0  0  0  0  0  0  0
  -34.5745    7.6396   -1.0829 H   0  0  0  0  0  0  0  0  0  0  0  0
  -35.9224    8.8421   -1.0915 H   0  0  0  0  0  0  0  0  0  0  0  0
  -32.6767    7.8872    0.5744 H   0  0  0  0  0  0  0  0  0  0  0  0
  -32.4167   10.5845    1.9622 H   0  0  0  0  0  0  0  0  0  0  0  0
  -31.1363    9.4829    1.4858 H   0  0  0  0  0  0  0  0  0  0  0  0
  -32.1737   11.6766   -0.0830 H   0  0  0  0  0  0  0  0  0  0  0  0
  -31.0950   10.4217   -0.7098 H   0  0  0  0  0  0  0  0  0  0  0  0
  -32.9213    9.2181   -1.7086 H   0  0  0  0  0  0  0  0  0  0  0  0
  -34.2163   11.7098   -1.3664 H   0  0  0  0  0  0  0  0  0  0  0  0
  -34.9152   10.4587    1.8094 H   0  0  0  0  0  0  0  0  0  0  0  0
  -34.5783   11.5407    0.4157 H   0  0  0  0  0  0  0  0  0  0  0  0
  -36.0474   10.5070    0.4157 H   0  0  0  0  0  0  0  0  0  0  0  0
  -36.2818    6.9273    4.7012 H   0  0  0  0  0  0  0  0  0  0  0  0
  -36.3221    8.1327    3.3700 H   0  0  0  0  0  0  0  0  0  0  0  0
  -37.4756    6.7557    3.3700 H   0  0  0  0  0  0  0  0  0  0  0  0
  1  2  1  0
  1 11  1  0
  2  3  1  0
  3  4  2  0
  3  5  1  0
  6  5  1  0
  6  7  1  0
  6 11  1  0
  7  8  1  0
  9  8  1  0
  9 10  1  0
  9 15  1  0
 10 11  1  0
 10 12  1  0
 11 21  1  1
 12 13  1  0
 13 14  1  0
 14 15  1  0
 14 18  1  0
 14 20  1  1
 15 16  1  0
 16 17  1  0
 17 18  1  0
 18 19  1  0
  1 22  1  0
  1 23  1  0
  2 24  1  0
  2 25  1  0
  5 26  1  0
  5 27  1  0
  6 28  1  6
  7 29  1  0
  7 30  1  0
  8 31  1  0
  8 32  1  0
  9 33  1  1
 10 34  1  6
 12 35  1  0
 12 36  1  0
 13 37  1  0
 13 38  1  0
 15 39  1  6
 16 40  1  0
 16 41  1  0
 17 42  1  0
 17 43  1  0
 18 44  1  6
 19 45  1  0
 20 46  1  0
 20 47  1  0
 20 48  1  0
 21 49  1  0
 21 50  1  0
 21 51  1  0
M  END
>  <filename_input>  (11) 
7ZU2_DHT_docked.sdf

>  <pdb_id>  (11) 
7ZU2_DHT

>  <pose_rank>  (11) 
10

>  <num_atoms_heavy>  (11) 
21

>  <num_torsions>  (11) 
0

>  <pose>  (11) 
[-36.18365766596289, 5.01077530063698, 2.217489599391687, -3.0051764833632157, 0.7646627904812996, -1.7432252390554415]

>  <energy>  (11) 
-178.78869148209392

>  <inter_energy>  (11) 
-152.75991773676813

>  <intra_energy>  (11) 
0.0

>  <rmsd>  (11) 
12.7257

>  <sdf_rank>  (11) 
0

$$$$

     RDKit          3D

 51 54  0  0  0  0  0  0  0  0999 V2000
  -20.3948   -3.9625   -7.8559 C   0  0  0  0  0  0  0  0  0  0  0  0
  -19.6202   -4.6786   -6.7354 C   0  0  0  0  0  0  0  0  0  0  0  0
  -19.2161   -6.0636   -7.1576 C   0  0  0  0  0  0  0  0  0  0  0  0
  -19.4743   -7.0466   -6.4925 O   0  0  0  0  0  0  0  0  0  0  0  0
  -18.5717   -6.1926   -8.5047 C   0  0  0  0  0  0  0  0  0  0  0  0
  -19.3983   -5.4570   -9.5812 C   0  0  2  0  0  0  0  0  0  0  0  0
  -18.8133   -5.6037  -10.9948 C   0  0  0  0  0  0  0  0  0  0  0  0
  -19.7171   -4.9535  -12.0460 C   0  0  0  0  0  0  0  0  0  0  0  0
  -19.9669   -3.4748  -11.7371 C   0  0  2  0  0  0  0  0  0  0  0  0
  -20.5200   -3.2944  -10.2947 C   0  0  1  0  0  0  0  0  0  0  0  0
  -19.6430   -3.9768   -9.2068 C   0  0  1  0  0  0  0  0  0  0  0  0
  -20.8255   -1.8187   -9.9734 C   0  0  0  0  0  0  0  0  0  0  0  0
  -21.7759   -1.1896  -11.0185 C   0  0  0  0  0  0  0  0  0  0  0  0
  -21.2243   -1.3647  -12.4255 C   0  0  1  0  0  0  0  0  0  0  0  0
  -20.9921   -2.8629  -12.6819 C   0  0  1  0  0  0  0  0  0  0  0  0
  -20.7412   -2.9348  -14.1984 C   0  0  0  0  0  0  0  0  0  0  0  0
  -21.6783   -1.8443  -14.7754 C   0  0  0  0  0  0  0  0  0  0  0  0
  -22.2217   -1.0769  -13.5616 C   0  0  2  0  0  0  0  0  0  0  0  0
  -22.4279    0.3083  -13.8550 O   0  0  0  0  0  0  0  0  0  0  0  0
  -19.9421   -0.5294  -12.6046 C   0  0  0  0  0  0  0  0  0  0  0  0
  -18.2999   -3.2381   -9.0304 C   0  0  0  0  0  0  0  0  0  0  0  0
  -21.3651   -4.4635   -7.9882 H   0  0  0  0  0  0  0  0  0  0  0  0
  -20.5163   -2.9113   -7.5553 H   0  0  0  0  0  0  0  0  0  0  0  0
  -18.7171   -4.0983   -6.4952 H   0  0  0  0  0  0  0  0  0  0  0  0
  -20.2737   -4.7584   -5.8542 H   0  0  0  0  0  0  0  0  0  0  0  0
  -17.5625   -5.7567   -8.4647 H   0  0  0  0  0  0  0  0  0  0  0  0
  -18.5183   -7.2590   -8.7690 H   0  0  0  0  0  0  0  0  0  0  0  0
  -20.3785   -5.9555   -9.6066 H   0  0  0  0  0  0  0  0  0  0  0  0
  -17.8254   -5.1209  -11.0248 H   0  0  0  0  0  0  0  0  0  0  0  0
  -18.7318   -6.6762  -11.2252 H   0  0  0  0  0  0  0  0  0  0  0  0
  -19.2353   -5.0360  -13.0314 H   0  0  0  0  0  0  0  0  0  0  0  0
  -20.6855   -5.4753  -12.0375 H   0  0  0  0  0  0  0  0  0  0  0  0
  -18.9955   -2.9724  -11.8551 H   0  0  0  0  0  0  0  0  0  0  0  0
  -21.4801   -3.8306  -10.2691 H   0  0  0  0  0  0  0  0  0  0  0  0
  -21.2978   -1.7605   -8.9816 H   0  0  0  0  0  0  0  0  0  0  0  0
  -19.8777   -1.2607   -9.9926 H   0  0  0  0  0  0  0  0  0  0  0  0
  -22.7587   -1.6793  -10.9530 H   0  0  0  0  0  0  0  0  0  0  0  0
  -21.8689   -0.1140  -10.8078 H   0  0  0  0  0  0  0  0  0  0  0  0
  -21.8427   -3.5155  -12.4359 H   0  0  0  0  0  0  0  0  0  0  0  0
  -19.6897   -2.7134  -14.4334 H   0  0  0  0  0  0  0  0  0  0  0  0
  -20.9384   -3.9327  -14.6171 H   0  0  0  0  0  0  0  0  0  0  0  0
  -21.1174   -1.1677  -15.4369 H   0  0  0  0  0  0  0  0  0  0  0  0
  -22.4901   -2.2827  -15.3745 H   0  0  0  0  0  0  0  0  0  0  0  0
  -23.2269   -1.4066  -13.2601 H   0  0  0  0  0  0  0  0  0  0  0  0
  -22.5037    0.8170  -13.0091 H   0  0  0  0  0  0  0  0  0  0  0  0
  -19.5359   -0.2648  -11.6171 H   0  0  0  0  0  0  0  0  0  0  0  0
  -19.1972   -1.1161  -13.1622 H   0  0  0  0  0  0  0  0  0  0  0  0
  -20.1777    0.3890  -13.1622 H   0  0  0  0  0  0  0  0  0  0  0  0
  -18.0847   -3.1198   -7.9582 H   0  0  0  0  0  0  0  0  0  0  0  0
  -17.4960   -3.8210   -9.5036 H   0  0  0  0  0  0  0  0  0  0  0  0
  -18.3616   -2.2471   -9.5036 H   0  0  0  0  0  0  0  0  0  0  0  0
  1  2  1  0
  1 11  1  0
  2  3  1  0
  3  4  2  0
  3  5  1  0
  6  5  1  0
  6  7  1  0
  6 11  1  0
  7  8  1  0
  9  8  1  0
  9 10  1  0
  9 15  1  0
 10 11  1  0
 10 12  1  0
 11 21  1  1
 12 13  1  0
 13 14  1  0
 14 15  1  0
 14 18  1  0
 14 20  1  6
 15 16  1  0
 16 17  1  0
 17 18  1  0
 18 19  1  0
  1 22  1  0
  1 23  1  0
  2 24  1  0
  2 25  1  0
  5 26  1  0
  5 27  1  0
  6 28  1  6
  7 29  1  0
  7 30  1  0
  8 31  1  0
  8 32  1  0
  9 33  1  1
 10 34  1  6
 12 35  1  0
 12 36  1  0
 13 37  1  0
 13 38  1  0
 15 39  1  6
 16 40  1  0
 16 41  1  0
 17 42  1  0
 17 43  1  0
 18 44  1  1
 19 45  1  0
 20 46  1  0
 20 47  1  0
 20 48  1  0
 21 49  1  0
 21 50  1  0
 21 51  1  0
M  END
>  <filename_input>  (12) 
7ZU2_DHT_docked.sdf

>  <pdb_id>  (12) 
7ZU2_DHT

>  <pose_rank>  (12) 
11

>  <num_atoms_heavy>  (12) 
21

>  <num_torsions>  (12) 
0

>  <pose>  (12) 
[-20.394825164466397, -3.9624777973598833, -7.855869913940969, 1.662335143852485, -0.7050563978762062, -0.8689128122704963]

>  <energy>  (12) 
-132.14495837797912

>  <inter_energy>  (12) 
-117.4243220995689

>  <intra_energy>  (12) 
0.0

>  <rmsd>  (12) 
11.9856

>  <sdf_rank>  (12) 
0

$$$$

     RDKit          3D

 51 54  0  0  0  0  0  0  0  0999 V2000
  -20.8489    9.7332  -12.4991 C   0  0  0  0  0  0  0  0  0  0  0  0
  -19.5086    9.3846  -13.1703 C   0  0  0  0  0  0  0  0  0  0  0  0
  -19.5593    8.0219  -13.8031 C   0  0  0  0  0  0  0  0  0  0  0  0
  -18.7318    7.1649  -13.5665 O   0  0  0  0  0  0  0  0  0  0  0  0
  -20.7513    7.7256  -14.6620 C   0  0  0  0  0  0  0  0  0  0  0  0
  -22.0600    8.0938  -13.9306 C   0  0  2  0  0  0  0  0  0  0  0  0
  -23.3200    7.7577  -14.7440 C   0  0  0  0  0  0  0  0  0  0  0  0
  -24.5951    8.0366  -13.9435 C   0  0  0  0  0  0  0  0  0  0  0  0
  -24.6551    9.4909  -13.4682 C   0  0  2  0  0  0  0  0  0  0  0  0
  -23.3707    9.8702  -12.6774 C   0  0  1  0  0  0  0  0  0  0  0  0
  -22.0564    9.5634  -13.4498 C   0  0  1  0  0  0  0  0  0  0  0  0
  -23.4251   11.3155  -12.1459 C   0  0  0  0  0  0  0  0  0  0  0  0
  -24.6956   11.5680  -11.3015 C   0  0  0  0  0  0  0  0  0  0  0  0
  -25.9472   11.2007  -12.0845 C   0  0  1  0  0  0  0  0  0  0  0  0
  -25.8344    9.7354  -12.5368 C   0  0  1  0  0  0  0  0  0  0  0  0
  -27.2529    9.3997  -13.0297 C   0  0  0  0  0  0  0  0  0  0  0  0
  -28.1712   10.1947  -12.0679 C   0  0  0  0  0  0  0  0  0  0  0  0
  -27.2363   11.0974  -11.2503 C   0  0  2  0  0  0  0  0  0  0  0  0
  -27.8524   12.3469  -10.9238 O   0  0  0  0  0  0  0  0  0  0  0  0
  -26.1418   12.1699  -13.2663 C   0  0  0  0  0  0  0  0  0  0  0  0
  -21.8781   10.5200  -14.6473 C   0  0  0  0  0  0  0  0  0  0  0  0
  -20.9896    9.0727  -11.6308 H   0  0  0  0  0  0  0  0  0  0  0  0
  -20.8061   10.7918  -12.2034 H   0  0  0  0  0  0  0  0  0  0  0  0
  -19.2897   10.1331  -13.9460 H   0  0  0  0  0  0  0  0  0  0  0  0
  -18.7221    9.3840  -12.4012 H   0  0  0  0  0  0  0  0  0  0  0  0
  -20.6806    8.3105  -15.5909 H   0  0  0  0  0  0  0  0  0  0  0  0
  -20.7644    6.6489  -14.8871 H   0  0  0  0  0  0  0  0  0  0  0  0
  -22.0991    7.4557  -13.0355 H   0  0  0  0  0  0  0  0  0  0  0  0
  -23.3300    8.3708  -15.6573 H   0  0  0  0  0  0  0  0  0  0  0  0
  -23.2953    6.6863  -14.9921 H   0  0  0  0  0  0  0  0  0  0  0  0
  -25.4684    7.8329  -14.5806 H   0  0  0  0  0  0  0  0  0  0  0  0
  -24.5948    7.3847  -13.0575 H   0  0  0  0  0  0  0  0  0  0  0  0
  -24.7566   10.1026  -14.3768 H   0  0  0  0  0  0  0  0  0  0  0  0
  -23.3496    9.2090  -11.7986 H   0  0  0  0  0  0  0  0  0  0  0  0
  -22.5391   11.4985  -11.5201 H   0  0  0  0  0  0  0  0  0  0  0  0
  -23.4464   11.9972  -13.0089 H   0  0  0  0  0  0  0  0  0  0  0  0
  -24.6491   10.9563  -10.3884 H   0  0  0  0  0  0  0  0  0  0  0  0
  -24.7415   12.6366  -11.0448 H   0  0  0  0  0  0  0  0  0  0  0  0
  -25.5605    9.0227  -11.7449 H   0  0  0  0  0  0  0  0  0  0  0  0
  -27.3952    9.7283  -14.0697 H   0  0  0  0  0  0  0  0  0  0  0  0
  -27.4623    8.3198  -13.0251 H   0  0  0  0  0  0  0  0  0  0  0  0
  -28.8890   10.8026  -12.6382 H   0  0  0  0  0  0  0  0  0  0  0  0
  -28.7569    9.5254  -11.4206 H   0  0  0  0  0  0  0  0  0  0  0  0
  -26.9998   10.6846  -10.2585 H   0  0  0  0  0  0  0  0  0  0  0  0
  -27.9003   12.4440   -9.9397 H   0  0  0  0  0  0  0  0  0  0  0  0
  -26.3447   13.1805  -12.8821 H   0  0  0  0  0  0  0  0  0  0  0  0
  -25.2293   12.1875  -13.8802 H   0  0  0  0  0  0  0  0  0  0  0  0
  -26.9904   11.8339  -13.8802 H   0  0  0  0  0  0  0  0  0  0  0  0
  -21.6883   11.5386  -14.2778 H   0  0  0  0  0  0  0  0  0  0  0  0
  -21.0265   10.1872  -15.2588 H   0  0  0  0  0  0  0  0  0  0  0  0
  -22.7924   10.5163  -15.2588 H   0  0  0  0  0  0  0  0  0  0  0  0
  1  2  1  0
  1 11  1  0
  2  3  1  0
  3  4  2  0
  3  5  1  0
  6  5  1  0
  6  7  1  0
  6 11  1  0
  7  8  1  0
  9  8  1  0
  9 10  1  0
  9 15  1  0
 10 11  1  0
 10 12  1  0
 11 21  1  6
 12 13  1  0
 13 14  1  0
 14 15  1  0
 14 18  1  0
 14 20  1  6
 15 16  1  0
 16 17  1  0
 17 18  1  0
 18 19  1  0
  1 22  1  0
  1 23  1  0
  2 24  1  0
  2 25  1  0
  5 26  1  0
  5 27  1  0
  6 28  1  1
  7 29  1  0
  7 30  1  0
  8 31  1  0
  8 32  1  0
  9 33  1  6
 10 34  1  1
 12 35  1  0
 12 36  1  0
 13 37  1  0
 13 38  1  0
 15 39  1  1
 16 40  1  0
 16 41  1  0
 17 42  1  0
 17 43  1  0
 18 44  1  1
 19 45  1  0
 20 46  1  0
 20 47  1  0
 20 48  1  0
 21 49  1  0
 21 50  1  0
 21 51  1  0
M  END
>  <filename_input>  (13) 
7ZU2_DHT_docked.sdf

>  <pdb_id>  (13) 
7ZU2_DHT

>  <pose_rank>  (13) 
12

>  <num_atoms_heavy>  (13) 
21

>  <num_torsions>  (13) 
0

>  <pose>  (13) 
[-20.848937333116417, 9.733166456881513, -12.499113898702662, 0.7024792571295977, 0.46340031957247796, -1.4763797150330396]

>  <energy>  (13) 
-157.24096937211237

>  <inter_energy>  (13) 
-140.47032805550936

>  <intra_energy>  (13) 
0.0

>  <rmsd>  (13) 
12.5651

>  <sdf_rank>  (13) 
0

$$$$

     RDKit          3D

 51 54  0  0  0  0  0  0  0  0999 V2000
  -30.2544    7.1266    4.6549 C   0  0  0  0  0  0  0  0  0  0  0  0
  -29.0838    7.7517    5.4344 C   0  0  0  0  0  0  0  0  0  0  0  0
  -28.4614    8.8807    4.6612 C   0  0  0  0  0  0  0  0  0  0  0  0
  -27.2695    8.9319    4.4328 O   0  0  0  0  0  0  0  0  0  0  0  0
  -29.4009    9.8945    4.0816 C   0  0  0  0  0  0  0  0  0  0  0  0
  -30.5470    9.2037    3.3119 C   0  0  2  0  0  0  0  0  0  0  0  0
  -31.5118   10.1983    2.6470 C   0  0  0  0  0  0  0  0  0  0  0  0
  -32.5690    9.4772    1.8061 C   0  0  0  0  0  0  0  0  0  0  0  0
  -33.3586    8.4653    2.6408 C   0  0  2  0  0  0  0  0  0  0  0  0
  -32.4023    7.4715    3.3597 C   0  0  1  0  0  0  0  0  0  0  0  0
  -31.2930    8.1745    4.1925 C   0  0  1  0  0  0  0  0  0  0  0  0
  -33.1730    6.4115    4.1699 C   0  0  0  0  0  0  0  0  0  0  0  0
  -34.2043    5.6606    3.2960 C   0  0  0  0  0  0  0  0  0  0  0  0
  -35.1397    6.6394    2.6019 C   0  0  1  0  0  0  0  0  0  0  0  0
  -34.2972    7.6298    1.7811 C   0  0  1  0  0  0  0  0  0  0  0  0
  -35.3375    8.3474    0.9033 C   0  0  0  0  0  0  0  0  0  0  0  0
  -36.3701    7.2383    0.5806 C   0  0  0  0  0  0  0  0  0  0  0  0
  -35.9872    6.0426    1.4645 C   0  0  2  0  0  0  0  0  0  0  0  0
  -37.1361    5.3009    1.8854 O   0  0  0  0  0  0  0  0  0  0  0  0
  -36.0385    7.3443    3.6359 C   0  0  0  0  0  0  0  0  0  0  0  0
  -31.8854    8.8636    5.4394 C   0  0  0  0  0  0  0  0  0  0  0  0
  -29.8527    6.6146    3.7681 H   0  0  0  0  0  0  0  0  0  0  0  0
  -30.7675    6.4276    5.3318 H   0  0  0  0  0  0  0  0  0  0  0  0
  -29.4565    8.1366    6.3951 H   0  0  0  0  0  0  0  0  0  0  0  0
  -28.3199    6.9775    5.5987 H   0  0  0  0  0  0  0  0  0  0  0  0
  -29.8267   10.4986    4.8963 H   0  0  0  0  0  0  0  0  0  0  0  0
  -28.8420   10.5336    3.3823 H   0  0  0  0  0  0  0  0  0  0  0  0
  -30.0714    8.6486    2.4899 H   0  0  0  0  0  0  0  0  0  0  0  0
  -32.0161   10.7845    3.4293 H   0  0  0  0  0  0  0  0  0  0  0  0
  -30.9290   10.8527    1.9821 H   0  0  0  0  0  0  0  0  0  0  0  0
  -33.2662   10.2217    1.3941 H   0  0  0  0  0  0  0  0  0  0  0  0
  -32.0550    8.9324    1.0005 H   0  0  0  0  0  0  0  0  0  0  0  0
  -33.9355    9.0564    3.3674 H   0  0  0  0  0  0  0  0  0  0  0  0
  -31.8674    6.9350    2.5621 H   0  0  0  0  0  0  0  0  0  0  0  0
  -32.4557    5.6845    4.5786 H   0  0  0  0  0  0  0  0  0  0  0  0
  -33.7169    6.9254    4.9762 H   0  0  0  0  0  0  0  0  0  0  0  0
  -33.6713    5.0706    2.5359 H   0  0  0  0  0  0  0  0  0  0  0  0
  -34.8013    5.0015    3.9434 H   0  0  0  0  0  0  0  0  0  0  0  0
  -33.5432    7.1694    1.1258 H   0  0  0  0  0  0  0  0  0  0  0  0
  -35.8096    9.1758    1.4517 H   0  0  0  0  0  0  0  0  0  0  0  0
  -34.8977    8.7971    0.0009 H   0  0  0  0  0  0  0  0  0  0  0  0
  -37.3878    7.5809    0.8191 H   0  0  0  0  0  0  0  0  0  0  0  0
  -36.3601    6.9731   -0.4869 H   0  0  0  0  0  0  0  0  0  0  0  0
  -35.3994    5.2831    0.9282 H   0  0  0  0  0  0  0  0  0  0  0  0
  -37.1704    5.2788    2.8745 H   0  0  0  0  0  0  0  0  0  0  0  0
  -35.7047    7.0825    4.6509 H   0  0  0  0  0  0  0  0  0  0  0  0
  -35.9719    8.4335    3.4976 H   0  0  0  0  0  0  0  0  0  0  0  0
  -37.0804    7.0200    3.4976 H   0  0  0  0  0  0  0  0  0  0  0  0
  -31.4798    8.3918    6.3466 H   0  0  0  0  0  0  0  0  0  0  0  0
  -31.6183    9.9307    5.4303 H   0  0  0  0  0  0  0  0  0  0  0  0
  -32.9805    8.7597    5.4303 H   0  0  0  0  0  0  0  0  0  0  0  0
  1  2  1  0
  1 11  1  0
  2  3  1  0
  3  4  2  0
  3  5  1  0
  6  5  1  0
  6  7  1  0
  6 11  1  0
  7  8  1  0
  9  8  1  0
  9 10  1  0
  9 15  1  0
 10 11  1  0
 10 12  1  0
 11 21  1  1
 12 13  1  0
 13 14  1  0
 14 15  1  0
 14 18  1  0
 14 20  1  1
 15 16  1  0
 16 17  1  0
 17 18  1  0
 18 19  1  0
  1 22  1  0
  1 23  1  0
  2 24  1  0
  2 25  1  0
  5 26  1  0
  5 27  1  0
  6 28  1  6
  7 29  1  0
  7 30  1  0
  8 31  1  0
  8 32  1  0
  9 33  1  1
 10 34  1  6
 12 35  1  0
 12 36  1  0
 13 37  1  0
 13 38  1  0
 15 39  1  6
 16 40  1  0
 16 41  1  0
 17 42  1  0
 17 43  1  0
 18 44  1  6
 19 45  1  0
 20 46  1  0
 20 47  1  0
 20 48  1  0
 21 49  1  0
 21 50  1  0
 21 51  1  0
M  END
>  <filename_input>  (14) 
7ZU2_DHT_docked.sdf

>  <pdb_id>  (14) 
7ZU2_DHT

>  <pose_rank>  (14) 
13

>  <num_atoms_heavy>  (14) 
21

>  <num_torsions>  (14) 
0

>  <pose>  (14) 
[-30.25438352184695, 7.126614413201211, 4.654941443806596, 2.079431830078348, 1.518859833703476, 0.1344277336781286]

>  <energy>  (14) 
-100.06754194216904

>  <inter_energy>  (14) 
-79.32734622939543

>  <intra_energy>  (14) 
0.0

>  <rmsd>  (14) 
11.7199

>  <sdf_rank>  (14) 
0

$$$$

     RDKit          3D

 51 54  0  0  0  0  0  0  0  0999 V2000
  -33.7791    7.8830  -12.9400 C   0  0  0  0  0  0  0  0  0  0  0  0
  -32.9777    9.1179  -13.3887 C   0  0  0  0  0  0  0  0  0  0  0  0
  -31.6362    9.1667  -12.7120 C   0  0  0  0  0  0  0  0  0  0  0  0
  -31.2490   10.1466  -12.1077 O   0  0  0  0  0  0  0  0  0  0  0  0
  -30.8346    7.9003  -12.7205 C   0  0  0  0  0  0  0  0  0  0  0  0
  -31.6938    6.7039  -12.2582 C   0  0  2  0  0  0  0  0  0  0  0  0
  -30.9060    5.3858  -12.1931 C   0  0  0  0  0  0  0  0  0  0  0  0
  -31.7619    4.2484  -11.6288 C   0  0  0  0  0  0  0  0  0  0  0  0
  -33.0426    4.0494  -12.4440 C   0  0  2  0  0  0  0  0  0  0  0  0
  -33.8387    5.3803  -12.5616 C   0  0  1  0  0  0  0  0  0  0  0  0
  -32.9856    6.5653  -13.0968 C   0  0  1  0  0  0  0  0  0  0  0  0
  -35.1574    5.1984  -13.3375 C   0  0  0  0  0  0  0  0  0  0  0  0
  -36.0309    4.0774  -12.7278 C   0  0  0  0  0  0  0  0  0  0  0  0
  -35.2470    2.7778  -12.6225 C   0  0  1  0  0  0  0  0  0  0  0  0
  -33.9749    3.0340  -11.7975 C   0  0  1  0  0  0  0  0  0  0  0  0
  -33.4446    1.6197  -11.5036 C   0  0  0  0  0  0  0  0  0  0  0  0
  -34.7323    0.7776  -11.3216 C   0  0  0  0  0  0  0  0  0  0  0  0
  -35.8914    1.6925  -11.7422 C   0  0  2  0  0  0  0  0  0  0  0  0
  -36.9532    0.9584  -12.3595 O   0  0  0  0  0  0  0  0  0  0  0  0
  -34.9382    2.2247  -14.0271 C   0  0  0  0  0  0  0  0  0  0  0  0
  -32.6399    6.3734  -14.5882 C   0  0  0  0  0  0  0  0  0  0  0  0
  -34.0509    8.0059  -11.8813 H   0  0  0  0  0  0  0  0  0  0  0  0
  -34.6682    7.8130  -13.5838 H   0  0  0  0  0  0  0  0  0  0  0  0
  -32.8295    9.0740  -14.4778 H   0  0  0  0  0  0  0  0  0  0  0  0
  -33.5421   10.0206  -13.1117 H   0  0  0  0  0  0  0  0  0  0  0  0
  -30.4715    7.7103  -13.7413 H   0  0  0  0  0  0  0  0  0  0  0  0
  -29.9880    8.0146  -12.0276 H   0  0  0  0  0  0  0  0  0  0  0  0
  -31.9960    6.9267  -11.2243 H   0  0  0  0  0  0  0  0  0  0  0  0
  -30.5763    5.1159  -13.2072 H   0  0  0  0  0  0  0  0  0  0  0  0
  -30.0431    5.5318  -11.5268 H   0  0  0  0  0  0  0  0  0  0  0  0
  -31.1770    3.3170  -11.6500 H   0  0  0  0  0  0  0  0  0  0  0  0
  -32.0466    4.5100  -10.5990 H   0  0  0  0  0  0  0  0  0  0  0  0
  -32.7199    3.6917  -13.4329 H   0  0  0  0  0  0  0  0  0  0  0  0
  -34.1110    5.6624  -11.5338 H   0  0  0  0  0  0  0  0  0  0  0  0
  -35.7201    6.1432  -13.3103 H   0  0  0  0  0  0  0  0  0  0  0  0
  -34.9102    4.9158  -14.3715 H   0  0  0  0  0  0  0  0  0  0  0  0
  -36.3597    4.3826  -11.7235 H   0  0  0  0  0  0  0  0  0  0  0  0
  -36.8998    3.9128  -13.3819 H   0  0  0  0  0  0  0  0  0  0  0  0
  -34.1359    3.5538  -10.8416 H   0  0  0  0  0  0  0  0  0  0  0  0
  -32.8445    1.2427  -12.3448 H   0  0  0  0  0  0  0  0  0  0  0  0
  -32.7840    1.5854  -10.6247 H   0  0  0  0  0  0  0  0  0  0  0  0
  -34.6987   -0.1170  -11.9607 H   0  0  0  0  0  0  0  0  0  0  0  0
  -34.8461    0.4298  -10.2843 H   0  0  0  0  0  0  0  0  0  0  0  0
  -36.3971    2.1653  -10.8874 H   0  0  0  0  0  0  0  0  0  0  0  0
  -37.5294    0.5602  -11.6598 H   0  0  0  0  0  0  0  0  0  0  0  0
  -34.4040    1.2676  -13.9349 H   0  0  0  0  0  0  0  0  0  0  0  0
  -35.8794    2.0681  -14.5745 H   0  0  0  0  0  0  0  0  0  0  0  0
  -34.3109    2.9436  -14.5745 H   0  0  0  0  0  0  0  0  0  0  0  0
  -31.6813    5.8414  -14.6769 H   0  0  0  0  0  0  0  0  0  0  0  0
  -33.4319    5.7858  -15.0755 H   0  0  0  0  0  0  0  0  0  0  0  0
  -32.5602    7.3564  -15.0755 H   0  0  0  0  0  0  0  0  0  0  0  0
  1  2  1  0
  1 11  1  0
  2  3  1  0
  3  4  2  0
  3  5  1  0
  6  5  1  0
  6  7  1  0
  6 11  1  0
  7  8  1  0
  9  8  1  0
  9 10  1  0
  9 15  1  0
 10 11  1  0
 10 12  1  0
 11 21  1  6
 12 13  1  0
 13 14  1  0
 14 15  1  0
 14 18  1  0
 14 20  1  6
 15 16  1  0
 16 17  1  0
 17 18  1  0
 18 19  1  0
  1 22  1  0
  1 23  1  0
  2 24  1  0
  2 25  1  0
  5 26  1  0
  5 27  1  0
  6 28  1  1
  7 29  1  0
  7 30  1  0
  8 31  1  0
  8 32  1  0
  9 33  1  6
 10 34  1  1
 12 35  1  0
 12 36  1  0
 13 37  1  0
 13 38  1  0
 15 39  1  1
 16 40  1  0
 16 41  1  0
 17 42  1  0
 17 43  1  0
 18 44  1  1
 19 45  1  0
 20 46  1  0
 20 47  1  0
 20 48  1  0
 21 49  1  0
 21 50  1  0
 21 51  1  0
M  END
>  <filename_input>  (15) 
7ZU2_DHT_docked.sdf

>  <pdb_id>  (15) 
7ZU2_DHT

>  <pose_rank>  (15) 
14

>  <num_atoms_heavy>  (15) 
21

>  <num_torsions>  (15) 
0

>  <pose>  (15) 
[-33.779050772225084, 7.8829891942571635, -12.940030936788238, 3.5283905547065886, 4.7262955832421, -1.5351042627602782]

>  <energy>  (15) 
-107.54673115378723

>  <inter_energy>  (15) 
-118.7349551254336

>  <intra_energy>  (15) 
0.0

>  <rmsd>  (15) 
10.39

>  <sdf_rank>  (15) 
0

$$$$

     RDKit          3D

 51 54  0  0  0  0  0  0  0  0999 V2000
  -30.4482    6.9113    5.1359 C   0  0  0  0  0  0  0  0  0  0  0  0
  -29.2408    5.9689    4.9854 C   0  0  0  0  0  0  0  0  0  0  0  0
  -29.6866    4.5516    4.7570 C   0  0  0  0  0  0  0  0  0  0  0  0
  -29.2882    3.6279    5.4376 O   0  0  0  0  0  0  0  0  0  0  0  0
  -30.7415    4.3406    3.7134 C   0  0  0  0  0  0  0  0  0  0  0  0
  -31.9228    5.3121    3.9228 C   0  0  2  0  0  0  0  0  0  0  0  0
  -33.0622    5.1020    2.9130 C   0  0  0  0  0  0  0  0  0  0  0  0
  -34.2576    6.0084    3.2197 C   0  0  0  0  0  0  0  0  0  0  0  0
  -33.8526    7.4847    3.2474 C   0  0  2  0  0  0  0  0  0  0  0  0
  -32.6710    7.7182    4.2315 C   0  0  1  0  0  0  0  0  0  0  0  0
  -31.4549    6.7852    3.9692 C   0  0  1  0  0  0  0  0  0  0  0  0
  -32.2736    9.2046    4.3150 C   0  0  0  0  0  0  0  0  0  0  0  0
  -33.4818   10.1016    4.6705 C   0  0  0  0  0  0  0  0  0  0  0  0
  -34.6303    9.8719    3.6995 C   0  0  1  0  0  0  0  0  0  0  0  0
  -34.9950    8.3782    3.7107 C   0  0  1  0  0  0  0  0  0  0  0  0
  -36.3327    8.3277    2.9520 C   0  0  0  0  0  0  0  0  0  0  0  0
  -37.0377    9.6434    3.3671 C   0  0  0  0  0  0  0  0  0  0  0  0
  -35.9857   10.4548    4.1367 C   0  0  2  0  0  0  0  0  0  0  0  0
  -36.1397   11.8619    3.9277 O   0  0  0  0  0  0  0  0  0  0  0  0
  -34.2506   10.3763    2.2940 C   0  0  0  0  0  0  0  0  0  0  0  0
  -30.7367    7.1623    2.6566 C   0  0  0  0  0  0  0  0  0  0  0  0
  -30.9670    6.6707    6.0755 H   0  0  0  0  0  0  0  0  0  0  0  0
  -30.0659    7.9427    5.1338 H   0  0  0  0  0  0  0  0  0  0  0  0
  -28.6333    6.2970    4.1291 H   0  0  0  0  0  0  0  0  0  0  0  0
  -28.6513    6.0049    5.9135 H   0  0  0  0  0  0  0  0  0  0  0  0
  -30.3045    4.5136    2.7189 H   0  0  0  0  0  0  0  0  0  0  0  0
  -31.1151    3.3091    3.7937 H   0  0  0  0  0  0  0  0  0  0  0  0
  -32.3451    5.0707    4.9094 H   0  0  0  0  0  0  0  0  0  0  0  0
  -32.6910    5.3293    1.9028 H   0  0  0  0  0  0  0  0  0  0  0  0
  -33.3956    4.0559    2.9813 H   0  0  0  0  0  0  0  0  0  0  0  0
  -35.0242    5.8630    2.4443 H   0  0  0  0  0  0  0  0  0  0  0  0
  -34.6474    5.7398    4.2126 H   0  0  0  0  0  0  0  0  0  0  0  0
  -33.5662    7.7397    2.2164 H   0  0  0  0  0  0  0  0  0  0  0  0
  -33.0441    7.4327    5.2261 H   0  0  0  0  0  0  0  0  0  0  0  0
  -31.5012    9.3239    5.0890 H   0  0  0  0  0  0  0  0  0  0  0  0
  -31.8957    9.5139    3.3293 H   0  0  0  0  0  0  0  0  0  0  0  0
  -33.8191    9.8646    5.6904 H   0  0  0  0  0  0  0  0  0  0  0  0
  -33.1703   11.1546    4.6051 H   0  0  0  0  0  0  0  0  0  0  0  0
  -35.1417    7.9415    4.7096 H   0  0  0  0  0  0  0  0  0  0  0  0
  -36.1667    8.2972    1.8650 H   0  0  0  0  0  0  0  0  0  0  0  0
  -36.9253    7.4320    3.1901 H   0  0  0  0  0  0  0  0  0  0  0  0
  -37.3724   10.1963    2.4770 H   0  0  0  0  0  0  0  0  0  0  0  0
  -37.9293    9.4494    3.9814 H   0  0  0  0  0  0  0  0  0  0  0  0
  -36.0889   10.3657    5.2282 H   0  0  0  0  0  0  0  0  0  0  0  0
  -36.1900   12.3220    4.8029 H   0  0  0  0  0  0  0  0  0  0  0  0
  -33.5914   11.2523    2.3845 H   0  0  0  0  0  0  0  0  0  0  0  0
  -33.7271    9.5784    1.7471 H   0  0  0  0  0  0  0  0  0  0  0  0
  -35.1623   10.6585    1.7471 H   0  0  0  0  0  0  0  0  0  0  0  0
  -29.7850    7.6621    2.8899 H   0  0  0  0  0  0  0  0  0  0  0  0
  -30.5391    6.2517    2.0721 H   0  0  0  0  0  0  0  0  0  0  0  0
  -31.3742    7.8420    2.0721 H   0  0  0  0  0  0  0  0  0  0  0  0
  1  2  1  0
  1 11  1  0
  2  3  1  0
  3  4  2  0
  3  5  1  0
  6  5  1  0
  6  7  1  0
  6 11  1  0
  7  8  1  0
  9  8  1  0
  9 10  1  0
  9 15  1  0
 10 11  1  0
 10 12  1  0
 11 21  1  6
 12 13  1  0
 13 14  1  0
 14 15  1  0
 14 18  1  0
 14 20  1  6
 15 16  1  0
 16 17  1  0
 17 18  1  0
 18 19  1  0
  1 22  1  0
  1 23  1  0
  2 24  1  0
  2 25  1  0
  5 26  1  0
  5 27  1  0
  6 28  1  1
  7 29  1  0
  7 30  1  0
  8 31  1  0
  8 32  1  0
  9 33  1  6
 10 34  1  1
 12 35  1  0
 12 36  1  0
 13 37  1  0
 13 38  1  0
 15 39  1  1
 16 40  1  0
 16 41  1  0
 17 42  1  0
 17 43  1  0
 18 44  1  1
 19 45  1  0
 20 46  1  0
 20 47  1  0
 20 48  1  0
 21 49  1  0
 21 50  1  0
 21 51  1  0
M  END
>  <filename_input>  (16) 
7ZU2_DHT_docked.sdf

>  <pdb_id>  (16) 
7ZU2_DHT

>  <pose_rank>  (16) 
15

>  <num_atoms_heavy>  (16) 
21

>  <num_torsions>  (16) 
0

>  <pose>  (16) 
[-30.448161861940818, 6.911309059076748, 5.135864020231353, -1.677989748706117, 0.20672131453531487, 4.0871605226821695]

>  <energy>  (16) 
-126.98149807046761

>  <inter_energy>  (16) 
-108.93378086694203

>  <intra_energy>  (16) 
0.0

>  <rmsd>  (16) 
12.811

>  <sdf_rank>  (16) 
0

$$$$

     RDKit          3D

 51 54  0  0  0  0  0  0  0  0999 V2000
  -33.5737    5.0491  -11.7187 C   0  0  0  0  0  0  0  0  0  0  0  0
  -32.5466    3.9904  -12.1578 C   0  0  0  0  0  0  0  0  0  0  0  0
  -32.5104    3.8609  -13.6550 C   0  0  0  0  0  0  0  0  0  0  0  0
  -32.6366    2.7919  -14.2176 O   0  0  0  0  0  0  0  0  0  0  0  0
  -32.4228    5.1369  -14.4364 C   0  0  0  0  0  0  0  0  0  0  0  0
  -33.4792    6.1521  -13.9499 C   0  0  2  0  0  0  0  0  0  0  0  0
  -33.4729    7.4611  -14.7552 C   0  0  0  0  0  0  0  0  0  0  0  0
  -34.6026    8.3960  -14.3145 C   0  0  0  0  0  0  0  0  0  0  0  0
  -34.5254    8.7060  -12.8171 C   0  0  2  0  0  0  0  0  0  0  0  0
  -34.4874    7.3958  -11.9798 C   0  0  1  0  0  0  0  0  0  0  0  0
  -33.3734    6.4080  -12.4285 C   0  0  1  0  0  0  0  0  0  0  0  0
  -34.4574    7.6784  -10.4654 C   0  0  0  0  0  0  0  0  0  0  0  0
  -35.6306    8.5862  -10.0287 C   0  0  0  0  0  0  0  0  0  0  0  0
  -35.6565    9.8680  -10.8478 C   0  0  1  0  0  0  0  0  0  0  0  0
  -35.7334    9.4997  -12.3387 C   0  0  1  0  0  0  0  0  0  0  0  0
  -36.0628   10.8373  -13.0243 C   0  0  0  0  0  0  0  0  0  0  0  0
  -36.9927   11.5484  -12.0093 C   0  0  0  0  0  0  0  0  0  0  0  0
  -36.9512   10.6923  -10.7355 C   0  0  2  0  0  0  0  0  0  0  0  0
  -37.0651   11.4897   -9.5529 O   0  0  0  0  0  0  0  0  0  0  0  0
  -34.4288   10.7383  -10.5172 C   0  0  0  0  0  0  0  0  0  0  0  0
  -31.9730    6.9482  -12.0708 C   0  0  0  0  0  0  0  0  0  0  0  0
  -34.5828    4.6771  -11.9499 H   0  0  0  0  0  0  0  0  0  0  0  0
  -33.4377    5.2155  -10.6399 H   0  0  0  0  0  0  0  0  0  0  0  0
  -31.5499    4.2859  -11.7984 H   0  0  0  0  0  0  0  0  0  0  0  0
  -32.8396    3.0204  -11.7299 H   0  0  0  0  0  0  0  0  0  0  0  0
  -31.4200    5.5705  -14.3075 H   0  0  0  0  0  0  0  0  0  0  0  0
  -32.6105    4.9142  -15.4971 H   0  0  0  0  0  0  0  0  0  0  0  0
  -34.4582    5.6868  -14.1371 H   0  0  0  0  0  0  0  0  0  0  0  0
  -32.5090    7.9691  -14.6042 H   0  0  0  0  0  0  0  0  0  0  0  0
  -33.6232    7.2143  -15.8166 H   0  0  0  0  0  0  0  0  0  0  0  0
  -34.5273    9.3375  -14.8783 H   0  0  0  0  0  0  0  0  0  0  0  0
  -35.5614    7.8949  -14.5132 H   0  0  0  0  0  0  0  0  0  0  0  0
  -33.6061    9.2934  -12.6763 H   0  0  0  0  0  0  0  0  0  0  0  0
  -35.4343    6.8760  -12.1874 H   0  0  0  0  0  0  0  0  0  0  0  0
  -34.5248    6.7236   -9.9234 H   0  0  0  0  0  0  0  0  0  0  0  0
  -33.5167    8.1989  -10.2327 H   0  0  0  0  0  0  0  0  0  0  0  0
  -36.5778    8.0462  -10.1741 H   0  0  0  0  0  0  0  0  0  0  0  0
  -35.4978    8.8481   -8.9686 H   0  0  0  0  0  0  0  0  0  0  0  0
  -36.5146    8.7704  -12.5992 H   0  0  0  0  0  0  0  0  0  0  0  0
  -35.1492   11.4248  -13.1982 H   0  0  0  0  0  0  0  0  0  0  0  0
  -36.5286   10.7076  -14.0123 H   0  0  0  0  0  0  0  0  0  0  0  0
  -36.6265   12.5644  -11.8004 H   0  0  0  0  0  0  0  0  0  0  0  0
  -38.0169   11.6475  -12.3981 H   0  0  0  0  0  0  0  0  0  0  0  0
  -37.8122   10.0134  -10.6462 H   0  0  0  0  0  0  0  0  0  0  0  0
  -36.9823   10.9100   -8.7547 H   0  0  0  0  0  0  0  0  0  0  0  0
  -34.3182   10.8167   -9.4256 H   0  0  0  0  0  0  0  0  0  0  0  0
  -33.5265   10.2770  -10.9450 H   0  0  0  0  0  0  0  0  0  0  0  0
  -34.5653   11.7424  -10.9450 H   0  0  0  0  0  0  0  0  0  0  0  0
  -31.8646    6.9901  -10.9770 H   0  0  0  0  0  0  0  0  0  0  0  0
  -31.2048    6.2820  -12.4902 H   0  0  0  0  0  0  0  0  0  0  0  0
  -31.8514    7.9579  -12.4902 H   0  0  0  0  0  0  0  0  0  0  0  0
  1  2  1  0
  1 11  1  0
  2  3  1  0
  3  4  2  0
  3  5  1  0
  6  5  1  0
  6  7  1  0
  6 11  1  0
  7  8  1  0
  9  8  1  0
  9 10  1  0
  9 15  1  0
 10 11  1  0
 10 12  1  0
 11 21  1  6
 12 13  1  0
 13 14  1  0
 14 15  1  0
 14 18  1  0
 14 20  1  6
 15 16  1  0
 16 17  1  0
 17 18  1  0
 18 19  1  0
  1 22  1  0
  1 23  1  0
  2 24  1  0
  2 25  1  0
  5 26  1  0
  5 27  1  0
  6 28  1  1
  7 29  1  0
  7 30  1  0
  8 31  1  0
  8 32  1  0
  9 33  1  6
 10 34  1  1
 12 35  1  0
 12 36  1  0
 13 37  1  0
 13 38  1  0
 15 39  1  1
 16 40  1  0
 16 41  1  0
 17 42  1  0
 17 43  1  0
 18 44  1  6
 19 45  1  0
 20 46  1  0
 20 47  1  0
 20 48  1  0
 21 49  1  0
 21 50  1  0
 21 51  1  0
M  END
>  <filename_input>  (17) 
7ZU2_DHT_docked.sdf

>  <pdb_id>  (17) 
7ZU2_DHT

>  <pose_rank>  (17) 
16

>  <num_atoms_heavy>  (17) 
21

>  <num_torsions>  (17) 
0

>  <pose>  (17) 
[-33.57371650920595, 5.049117016686156, -11.718716181228615, -2.7954259031049746, -0.28822773446307787, 1.9786637828090077]

>  <energy>  (17) 
-81.76386083024968

>  <inter_energy>  (17) 
-79.0364786221719

>  <intra_energy>  (17) 
0.0

>  <rmsd>  (17) 
13.0986

>  <sdf_rank>  (17) 
0

$$$$

     RDKit          3D

 51 54  0  0  0  0  0  0  0  0999 V2000
  -32.2387    3.6591    4.5795 C   0  0  0  0  0  0  0  0  0  0  0  0
  -33.6936    3.8178    4.1036 C   0  0  0  0  0  0  0  0  0  0  0  0
  -34.2157    5.1937    4.4105 C   0  0  0  0  0  0  0  0  0  0  0  0
  -35.2527    5.3746    5.0164 O   0  0  0  0  0  0  0  0  0  0  0  0
  -33.3348    6.3452    4.0302 C   0  0  0  0  0  0  0  0  0  0  0  0
  -31.8940    6.1255    4.5391 C   0  0  2  0  0  0  0  0  0  0  0  0
  -30.9581    7.3038    4.2261 C   0  0  0  0  0  0  0  0  0  0  0  0
  -29.5706    7.0960    4.8395 C   0  0  0  0  0  0  0  0  0  0  0  0
  -28.9351    5.7864    4.3647 C   0  0  2  0  0  0  0  0  0  0  0  0
  -29.8813    4.5812    4.6313 C   0  0  1  0  0  0  0  0  0  0  0  0
  -31.3112    4.7784    4.0527 C   0  0  1  0  0  0  0  0  0  0  0  0
  -29.2466    3.2431    4.2061 C   0  0  0  0  0  0  0  0  0  0  0  0
  -27.8667    3.0270    4.8697 C   0  0  0  0  0  0  0  0  0  0  0  0
  -26.9455    4.2070    4.5985 C   0  0  1  0  0  0  0  0  0  0  0  0
  -27.6306    5.4919    5.0925 C   0  0  1  0  0  0  0  0  0  0  0  0
  -26.5043    6.5396    5.0525 C   0  0  0  0  0  0  0  0  0  0  0  0
  -25.2421    5.7339    5.4502 C   0  0  0  0  0  0  0  0  0  0  0  0
  -25.6759    4.2612    5.4665 C   0  0  2  0  0  0  0  0  0  0  0  0
  -24.6188    3.3892    5.0549 O   0  0  0  0  0  0  0  0  0  0  0  0
  -26.5830    4.2690    3.1023 C   0  0  0  0  0  0  0  0  0  0  0  0
  -31.3002    4.7233    2.5108 C   0  0  0  0  0  0  0  0  0  0  0  0
  -32.2244    3.6792    5.6792 H   0  0  0  0  0  0  0  0  0  0  0  0
  -31.8630    2.7039    4.1842 H   0  0  0  0  0  0  0  0  0  0  0  0
  -33.7366    3.6513    3.0171 H   0  0  0  0  0  0  0  0  0  0  0  0
  -34.3168    3.0814    4.6321 H   0  0  0  0  0  0  0  0  0  0  0  0
  -33.3195    6.4408    2.9345 H   0  0  0  0  0  0  0  0  0  0  0  0
  -33.7348    7.2613    4.4892 H   0  0  0  0  0  0  0  0  0  0  0  0
  -31.9620    6.0768    5.6360 H   0  0  0  0  0  0  0  0  0  0  0  0
  -30.8560    7.3992    3.1350 H   0  0  0  0  0  0  0  0  0  0  0  0
  -31.3943    8.2158    4.6596 H   0  0  0  0  0  0  0  0  0  0  0  0
  -28.9216    7.9345    4.5467 H   0  0  0  0  0  0  0  0  0  0  0  0
  -29.6812    7.0483    5.9329 H   0  0  0  0  0  0  0  0  0  0  0  0
  -28.7482    5.9132    3.2882 H   0  0  0  0  0  0  0  0  0  0  0  0
  -30.0155    4.5368    5.7222 H   0  0  0  0  0  0  0  0  0  0  0  0
  -29.9162    2.4216    4.5007 H   0  0  0  0  0  0  0  0  0  0  0  0
  -29.1029    3.2634    3.1158 H   0  0  0  0  0  0  0  0  0  0  0  0
  -28.0022    2.9175    5.9558 H   0  0  0  0  0  0  0  0  0  0  0  0
  -27.4107    2.1196    4.4470 H   0  0  0  0  0  0  0  0  0  0  0  0
  -28.0287    5.4439    6.1168 H   0  0  0  0  0  0  0  0  0  0  0  0
  -26.3978    6.9633    4.0430 H   0  0  0  0  0  0  0  0  0  0  0  0
  -26.6926    7.3947    5.7184 H   0  0  0  0  0  0  0  0  0  0  0  0
  -24.4403    5.8892    4.7133 H   0  0  0  0  0  0  0  0  0  0  0  0
  -24.8493    6.0518    6.4272 H   0  0  0  0  0  0  0  0  0  0  0  0
  -25.9060    3.8925    6.4771 H   0  0  0  0  0  0  0  0  0  0  0  0
  -24.1678    3.0172    5.8538 H   0  0  0  0  0  0  0  0  0  0  0  0
  -25.5040    4.4537    2.9938 H   0  0  0  0  0  0  0  0  0  0  0  0
  -26.8415    3.3136    2.6225 H   0  0  0  0  0  0  0  0  0  0  0  0
  -27.1445    5.0841    2.6225 H   0  0  0  0  0  0  0  0  0  0  0  0
  -31.0956    3.6937    2.1821 H   0  0  0  0  0  0  0  0  0  0  0  0
  -32.2796    5.0434    2.1254 H   0  0  0  0  0  0  0  0  0  0  0  0
  -30.5177    5.3935    2.1254 H   0  0  0  0  0  0  0  0  0  0  0  0
  1  2  1  0
  1 11  1  0
  2  3  1  0
  3  4  2  0
  3  5  1  0
  6  5  1  0
  6  7  1  0
  6 11  1  0
  7  8  1  0
  9  8  1  0
  9 10  1  0
  9 15  1  0
 10 11  1  0
 10 12  1  0
 11 21  1  6
 12 13  1  0
 13 14  1  0
 14 15  1  0
 14 18  1  0
 14 20  1  6
 15 16  1  0
 16 17  1  0
 17 18  1  0
 18 19  1  0
  1 22  1  0
  1 23  1  0
  2 24  1  0
  2 25  1  0
  5 26  1  0
  5 27  1  0
  6 28  1  1
  7 29  1  0
  7 30  1  0
  8 31  1  0
  8 32  1  0
  9 33  1  6
 10 34  1  1
 12 35  1  0
 12 36  1  0
 13 37  1  0
 13 38  1  0
 15 39  1  1
 16 40  1  0
 16 41  1  0
 17 42  1  0
 17 43  1  0
 18 44  1  1
 19 45  1  0
 20 46  1  0
 20 47  1  0
 20 48  1  0
 21 49  1  0
 21 50  1  0
 21 51  1  0
M  END
>  <filename_input>  (18) 
7ZU2_DHT_docked.sdf

>  <pdb_id>  (18) 
7ZU2_DHT

>  <pose_rank>  (18) 
17

>  <num_atoms_heavy>  (18) 
21

>  <num_torsions>  (18) 
0

>  <pose>  (18) 
[-32.23870290367771, 3.659145381714348, 4.5795026144705435, -0.09102868695038893, 0.10429311641983845, 1.9937700169410852]

>  <energy>  (18) 
-114.0145473263714

>  <inter_energy>  (18) 
-85.55957253508416

>  <intra_energy>  (18) 
0.0

>  <rmsd>  (18) 
11.4261

>  <sdf_rank>  (18) 
0

$$$$

     RDKit          3D

 51 54  0  0  0  0  0  0  0  0999 V2000
  -36.7845   -0.1561  -10.6437 C   0  0  0  0  0  0  0  0  0  0  0  0
  -36.4178   -1.6401  -10.4651 C   0  0  0  0  0  0  0  0  0  0  0  0
  -36.5239   -2.3836  -11.7673 C   0  0  0  0  0  0  0  0  0  0  0  0
  -37.1774   -3.4008  -11.8829 O   0  0  0  0  0  0  0  0  0  0  0  0
  -35.8721   -1.7473  -12.9575 C   0  0  0  0  0  0  0  0  0  0  0  0
  -36.2831   -0.2644  -13.0810 C   0  0  2  0  0  0  0  0  0  0  0  0
  -35.6878    0.4249  -14.3190 C   0  0  0  0  0  0  0  0  0  0  0  0
  -36.2038    1.8592  -14.4647 C   0  0  0  0  0  0  0  0  0  0  0  0
  -35.9115    2.6928  -13.2141 C   0  0  2  0  0  0  0  0  0  0  0  0
  -36.4670    1.9957  -11.9395 C   0  0  1  0  0  0  0  0  0  0  0  0
  -35.9906    0.5237  -11.7831 C   0  0  1  0  0  0  0  0  0  0  0  0
  -36.2284    2.8364  -10.6705 C   0  0  0  0  0  0  0  0  0  0  0  0
  -36.7958    4.2675  -10.8163 C   0  0  0  0  0  0  0  0  0  0  0  0
  -36.2425    4.9443  -12.0614 C   0  0  1  0  0  0  0  0  0  0  0  0
  -36.5622    4.0675  -13.2834 C   0  0  1  0  0  0  0  0  0  0  0  0
  -36.2408    4.9825  -14.4781 C   0  0  0  0  0  0  0  0  0  0  0  0
  -36.6609    6.3895  -13.9836 C   0  0  0  0  0  0  0  0  0  0  0  0
  -36.9727    6.2298  -12.4887 C   0  0  2  0  0  0  0  0  0  0  0  0
  -36.6287    7.4021  -11.7439 O   0  0  0  0  0  0  0  0  0  0  0  0
  -34.7325    5.2057  -11.9012 C   0  0  0  0  0  0  0  0  0  0  0  0
  -34.4872    0.4583  -11.4422 C   0  0  0  0  0  0  0  0  0  0  0  0
  -37.8582   -0.0843  -10.8720 H   0  0  0  0  0  0  0  0  0  0  0  0
  -36.5310    0.3630   -9.7076 H   0  0  0  0  0  0  0  0  0  0  0  0
  -35.3852   -1.7128  -10.0928 H   0  0  0  0  0  0  0  0  0  0  0  0
  -37.1197   -2.0898   -9.7474 H   0  0  0  0  0  0  0  0  0  0  0  0
  -34.7795   -1.8105  -12.8470 H   0  0  0  0  0  0  0  0  0  0  0  0
  -36.1970   -2.2795  -13.8637 H   0  0  0  0  0  0  0  0  0  0  0  0
  -37.3732   -0.2611  -13.2283 H   0  0  0  0  0  0  0  0  0  0  0  0
  -34.5921    0.4471  -14.2236 H   0  0  0  0  0  0  0  0  0  0  0  0
  -35.9916   -0.1436  -15.2103 H   0  0  0  0  0  0  0  0  0  0  0  0
  -35.7130    2.3291  -15.3297 H   0  0  0  0  0  0  0  0  0  0  0  0
  -37.2941    1.8201  -14.6052 H   0  0  0  0  0  0  0  0  0  0  0  0
  -34.8172    2.7935  -13.1660 H   0  0  0  0  0  0  0  0  0  0  0  0
  -37.5563    1.9327  -12.0789 H   0  0  0  0  0  0  0  0  0  0  0  0
  -36.7199    2.3433   -9.8189 H   0  0  0  0  0  0  0  0  0  0  0  0
  -35.1430    2.9131  -10.5096 H   0  0  0  0  0  0  0  0  0  0  0  0
  -37.8919    4.2148  -10.8915 H   0  0  0  0  0  0  0  0  0  0  0  0
  -36.5000    4.8552   -9.9348 H   0  0  0  0  0  0  0  0  0  0  0  0
  -37.6100    3.7424  -13.3627 H   0  0  0  0  0  0  0  0  0  0  0  0
  -35.1673    4.9545  -14.7165 H   0  0  0  0  0  0  0  0  0  0  0  0
  -36.7606    4.6807  -15.3993 H   0  0  0  0  0  0  0  0  0  0  0  0
  -35.8407    7.1078  -14.1295 H   0  0  0  0  0  0  0  0  0  0  0  0
  -37.5289    6.7725  -14.5402 H   0  0  0  0  0  0  0  0  0  0  0  0
  -38.0484    6.1267  -12.2831 H   0  0  0  0  0  0  0  0  0  0  0  0
  -36.6862    7.2063  -10.7752 H   0  0  0  0  0  0  0  0  0  0  0  0
  -34.4795    5.2496  -10.8316 H   0  0  0  0  0  0  0  0  0  0  0  0
  -34.1669    4.3922  -12.3788 H   0  0  0  0  0  0  0  0  0  0  0  0
  -34.4733    6.1621  -12.3788 H   0  0  0  0  0  0  0  0  0  0  0  0
  -34.3588    0.4527  -10.3497 H   0  0  0  0  0  0  0  0  0  0  0  0
  -34.0544   -0.4595  -11.8669 H   0  0  0  0  0  0  0  0  0  0  0  0
  -33.9765    1.3351  -11.8669 H   0  0  0  0  0  0  0  0  0  0  0  0
  1  2  1  0
  1 11  1  0
  2  3  1  0
  3  4  2  0
  3  5  1  0
  6  5  1  0
  6  7  1  0
  6 11  1  0
  7  8  1  0
  9  8  1  0
  9 10  1  0
  9 15  1  0
 10 11  1  0
 10 12  1  0
 11 21  1  1
 12 13  1  0
 13 14  1  0
 14 15  1  0
 14 18  1  0
 14 20  1  1
 15 16  1  0
 16 17  1  0
 17 18  1  0
 18 19  1  0
  1 22  1  0
  1 23  1  0
  2 24  1  0
  2 25  1  0
  5 26  1  0
  5 27  1  0
  6 28  1  6
  7 29  1  0
  7 30  1  0
  8 31  1  0
  8 32  1  0
  9 33  1  1
 10 34  1  6
 12 35  1  0
 12 36  1  0
 13 37  1  0
 13 38  1  0
 15 39  1  1
 16 40  1  0
 16 41  1  0
 17 42  1  0
 17 43  1  0
 18 44  1  6
 19 45  1  0
 20 46  1  0
 20 47  1  0
 20 48  1  0
 21 49  1  0
 21 50  1  0
 21 51  1  0
M  END
>  <filename_input>  (19) 
7ZU2_DHT_docked.sdf

>  <pdb_id>  (19) 
7ZU2_DHT

>  <pose_rank>  (19) 
18

>  <num_atoms_heavy>  (19) 
21

>  <num_torsions>  (19) 
0

>  <pose>  (19) 
[-36.78450513596411, -0.15610858916046047, -10.64373455847432, -2.7100823171810746, 0.8749408233204743, 2.0115085986289274]

>  <energy>  (19) 
-77.69676056627982

>  <inter_energy>  (19) 
-67.83611601649984

>  <intra_energy>  (19) 
0.0

>  <rmsd>  (19) 
13.2987

>  <sdf_rank>  (19) 
0

$$$$

     RDKit          3D

 51 54  0  0  0  0  0  0  0  0999 V2000
  -20.6350   -7.0618   -0.0273 C   0  0  0  0  0  0  0  0  0  0  0  0
  -19.5702   -7.8435   -0.8172 C   0  0  0  0  0  0  0  0  0  0  0  0
  -18.3121   -7.0357   -0.9737 C   0  0  0  0  0  0  0  0  0  0  0  0
  -17.7973   -6.8389   -2.0561 O   0  0  0  0  0  0  0  0  0  0  0  0
  -17.7763   -6.3827    0.2644 C   0  0  0  0  0  0  0  0  0  0  0  0
  -18.8911   -5.6145    1.0061 C   0  0  2  0  0  0  0  0  0  0  0  0
  -18.3856   -4.8765    2.2559 C   0  0  0  0  0  0  0  0  0  0  0  0
  -19.4949   -4.0411    2.9009 C   0  0  0  0  0  0  0  0  0  0  0  0
  -20.7105   -4.9001    3.2600 C   0  0  2  0  0  0  0  0  0  0  0  0
  -21.2169   -5.6917    2.0207 C   0  0  1  0  0  0  0  0  0  0  0  0
  -20.1036   -6.5213    1.3203 C   0  0  1  0  0  0  0  0  0  0  0  0
  -22.4698   -6.5290    2.3422 C   0  0  0  0  0  0  0  0  0  0  0  0
  -23.5972   -5.6628    2.9502 C   0  0  0  0  0  0  0  0  0  0  0  0
  -23.0954   -4.8972    4.1654 C   0  0  1  0  0  0  0  0  0  0  0  0
  -21.8781   -4.0547    3.7501 C   0  0  1  0  0  0  0  0  0  0  0  0
  -21.6634   -3.1150    4.9495 C   0  0  0  0  0  0  0  0  0  0  0  0
  -23.1020   -2.8161    5.4410 C   0  0  0  0  0  0  0  0  0  0  0  0
  -24.0168   -3.7658    4.6545 C   0  0  2  0  0  0  0  0  0  0  0  0
  -25.1412   -4.1887    5.4317 O   0  0  0  0  0  0  0  0  0  0  0  0
  -22.7747   -5.8711    5.3155 C   0  0  0  0  0  0  0  0  0  0  0  0
  -19.6683   -7.7172    2.1928 C   0  0  0  0  0  0  0  0  0  0  0  0
  -20.9724   -6.2117   -0.6385 H   0  0  0  0  0  0  0  0  0  0  0  0
  -21.4585   -7.7561    0.1956 H   0  0  0  0  0  0  0  0  0  0  0  0
  -19.3353   -8.7741   -0.2798 H   0  0  0  0  0  0  0  0  0  0  0  0
  -19.9700   -8.0656   -1.8176 H   0  0  0  0  0  0  0  0  0  0  0  0
  -17.3662   -7.1557    0.9310 H   0  0  0  0  0  0  0  0  0  0  0  0
  -16.9901   -5.6701   -0.0253 H   0  0  0  0  0  0  0  0  0  0  0  0
  -19.2365   -4.8333    0.3129 H   0  0  0  0  0  0  0  0  0  0  0  0
  -18.0243   -5.6158    2.9859 H   0  0  0  0  0  0  0  0  0  0  0  0
  -17.5748   -4.1981    1.9520 H   0  0  0  0  0  0  0  0  0  0  0  0
  -19.1039   -3.5750    3.8173 H   0  0  0  0  0  0  0  0  0  0  0  0
  -19.8152   -3.2769    2.1775 H   0  0  0  0  0  0  0  0  0  0  0  0
  -20.3755   -5.5814    4.0560 H   0  0  0  0  0  0  0  0  0  0  0  0
  -21.5209   -4.9357    1.2817 H   0  0  0  0  0  0  0  0  0  0  0  0
  -22.8370   -6.9916    1.4142 H   0  0  0  0  0  0  0  0  0  0  0  0
  -22.1898   -7.2945    3.0809 H   0  0  0  0  0  0  0  0  0  0  0  0
  -23.9498   -4.9467    2.1933 H   0  0  0  0  0  0  0  0  0  0  0  0
  -24.4186   -6.3235    3.2645 H   0  0  0  0  0  0  0  0  0  0  0  0
  -22.0204   -3.4433    2.8467 H   0  0  0  0  0  0  0  0  0  0  0  0
  -21.0748   -3.6102    5.7358 H   0  0  0  0  0  0  0  0  0  0  0  0
  -21.1048   -2.2052    4.6847 H   0  0  0  0  0  0  0  0  0  0  0  0
  -23.1862   -3.0094    6.5206 H   0  0  0  0  0  0  0  0  0  0  0  0
  -23.3753   -1.7630    5.2789 H   0  0  0  0  0  0  0  0  0  0  0  0
  -24.4957   -3.2827    3.7900 H   0  0  0  0  0  0  0  0  0  0  0  0
  -24.9260   -4.1078    6.3946 H   0  0  0  0  0  0  0  0  0  0  0  0
  -22.9405   -5.3676    6.2793 H   0  0  0  0  0  0  0  0  0  0  0  0
  -23.4303   -6.7515    5.2441 H   0  0  0  0  0  0  0  0  0  0  0  0
  -21.7242   -6.1895    5.2441 H   0  0  0  0  0  0  0  0  0  0  0  0
  -19.7654   -7.4503    3.2555 H   0  0  0  0  0  0  0  0  0  0  0  0
  -20.3085   -8.5841    1.9724 H   0  0  0  0  0  0  0  0  0  0  0  0
  -18.6205   -7.9696    1.9724 H   0  0  0  0  0  0  0  0  0  0  0  0
  1  2  1  0
  1 11  1  0
  2  3  1  0
  3  4  2  0
  3  5  1  0
  6  5  1  0
  6  7  1  0
  6 11  1  0
  7  8  1  0
  9  8  1  0
  9 10  1  0
  9 15  1  0
 10 11  1  0
 10 12  1  0
 11 21  1  1
 12 13  1  0
 13 14  1  0
 14 15  1  0
 14 18  1  0
 14 20  1  1
 15 16  1  0
 16 17  1  0
 17 18  1  0
 18 19  1  0
  1 22  1  0
  1 23  1  0
  2 24  1  0
  2 25  1  0
  5 26  1  0
  5 27  1  0
  6 28  1  6
  7 29  1  0
  7 30  1  0
  8 31  1  0
  8 32  1  0
  9 33  1  1
 10 34  1  6
 12 35  1  0
 12 36  1  0
 13 37  1  0
 13 38  1  0
 15 39  1  6
 16 40  1  0
 16 41  1  0
 17 42  1  0
 17 43  1  0
 18 44  1  6
 19 45  1  0
 20 46  1  0
 20 47  1  0
 20 48  1  0
 21 49  1  0
 21 50  1  0
 21 51  1  0
M  END
>  <filename_input>  (20) 
7ZU2_DHT_docked.sdf

>  <pdb_id>  (20) 
7ZU2_DHT

>  <pose_rank>  (20) 
19

>  <num_atoms_heavy>  (20) 
21

>  <num_torsions>  (20) 
0

>  <pose>  (20) 
[-20.634953579410226, -7.061765069765044, -0.027321987873299786, 4.078772220298828, 0.5860950643350532, -0.25521442945736417]

>  <energy>  (20) 
-99.56140715426605

>  <inter_energy>  (20) 
-101.06344436236624

>  <intra_energy>  (20) 
0.0

>  <rmsd>  (20) 
13.0776

>  <sdf_rank>  (20) 
0

$$$$

     RDKit          3D

 51 54  0  0  0  0  0  0  0  0999 V2000
  -34.0329    9.1633    3.1543 C   0  0  0  0  0  0  0  0  0  0  0  0
  -33.6636   10.5848    2.6942 C   0  0  0  0  0  0  0  0  0  0  0  0
  -32.5870   11.1717    3.5639 C   0  0  0  0  0  0  0  0  0  0  0  0
  -32.7044   12.2547    4.1009 O   0  0  0  0  0  0  0  0  0  0  0  0
  -31.3953   10.3035    3.8332 C   0  0  0  0  0  0  0  0  0  0  0  0
  -31.8338    8.8965    4.2928 C   0  0  2  0  0  0  0  0  0  0  0  0
  -30.6500    7.9792    4.6382 C   0  0  0  0  0  0  0  0  0  0  0  0
  -31.1265    6.6332    5.1913 C   0  0  0  0  0  0  0  0  0  0  0  0
  -32.0668    5.9233    4.2134 C   0  0  2  0  0  0  0  0  0  0  0  0
  -33.2527    6.8468    3.8137 C   0  0  1  0  0  0  0  0  0  0  0  0
  -32.8016    8.2371    3.2830 C   0  0  1  0  0  0  0  0  0  0  0  0
  -34.2413    6.1403    2.8662 C   0  0  0  0  0  0  0  0  0  0  0  0
  -34.7485    4.8052    3.4591 C   0  0  0  0  0  0  0  0  0  0  0  0
  -33.5826    3.9056    3.8411 C   0  0  1  0  0  0  0  0  0  0  0  0
  -32.6728    4.6655    4.8205 C   0  0  1  0  0  0  0  0  0  0  0  0
  -31.7328    3.5737    5.3609 C   0  0  0  0  0  0  0  0  0  0  0  0
  -32.6371    2.3178    5.4358 C   0  0  0  0  0  0  0  0  0  0  0  0
  -33.9455    2.7038    4.7312 C   0  0  2  0  0  0  0  0  0  0  0  0
  -34.5301    1.5923    4.0456 O   0  0  0  0  0  0  0  0  0  0  0  0
  -32.8319    3.4390    2.5790 C   0  0  0  0  0  0  0  0  0  0  0  0
  -32.1316    8.1139    1.8986 C   0  0  0  0  0  0  0  0  0  0  0  0
  -34.5279    9.2285    4.1344 H   0  0  0  0  0  0  0  0  0  0  0  0
  -34.6955    8.7296    2.3909 H   0  0  0  0  0  0  0  0  0  0  0  0
  -33.3043   10.5444    1.6554 H   0  0  0  0  0  0  0  0  0  0  0  0
  -34.5585   11.2201    2.7689 H   0  0  0  0  0  0  0  0  0  0  0  0
  -30.7999   10.2128    2.9126 H   0  0  0  0  0  0  0  0  0  0  0  0
  -30.7969   10.7647    4.6327 H   0  0  0  0  0  0  0  0  0  0  0  0
  -32.3879    9.0413    5.2319 H   0  0  0  0  0  0  0  0  0  0  0  0
  -30.0575    7.8023    3.7285 H   0  0  0  0  0  0  0  0  0  0  0  0
  -30.0432    8.4745    5.4105 H   0  0  0  0  0  0  0  0  0  0  0  0
  -30.2513    5.9923    5.3740 H   0  0  0  0  0  0  0  0  0  0  0  0
  -31.6779    6.8203    6.1246 H   0  0  0  0  0  0  0  0  0  0  0  0
  -31.4536    5.6640    3.3377 H   0  0  0  0  0  0  0  0  0  0  0  0
  -33.7999    7.0573    4.7445 H   0  0  0  0  0  0  0  0  0  0  0  0
  -35.1022    6.8024    2.6914 H   0  0  0  0  0  0  0  0  0  0  0  0
  -33.7157    5.9196    1.9255 H   0  0  0  0  0  0  0  0  0  0  0  0
  -35.3511    5.0145    4.3553 H   0  0  0  0  0  0  0  0  0  0  0  0
  -35.3564    4.2910    2.7001 H   0  0  0  0  0  0  0  0  0  0  0  0
  -33.1909    5.1342    5.6701 H   0  0  0  0  0  0  0  0  0  0  0  0
  -30.8879    3.4089    4.6761 H   0  0  0  0  0  0  0  0  0  0  0  0
  -31.2858    3.8367    6.3309 H   0  0  0  0  0  0  0  0  0  0  0  0
  -32.1600    1.4707    4.9212 H   0  0  0  0  0  0  0  0  0  0  0  0
  -32.8132    2.0065    6.4760 H   0  0  0  0  0  0  0  0  0  0  0  0
  -34.7416    2.9937    5.4328 H   0  0  0  0  0  0  0  0  0  0  0  0
  -34.8731    0.9401    4.7067 H   0  0  0  0  0  0  0  0  0  0  0  0
  -31.9318    2.8795    2.8736 H   0  0  0  0  0  0  0  0  0  0  0  0
  -33.4882    2.7894    1.9812 H   0  0  0  0  0  0  0  0  0  0  0  0
  -32.5399    4.3150    1.9812 H   0  0  0  0  0  0  0  0  0  0  0  0
  -31.0571    7.9165    2.0275 H   0  0  0  0  0  0  0  0  0  0  0  0
  -32.5923    7.2854    1.3407 H   0  0  0  0  0  0  0  0  0  0  0  0
  -32.2676    9.0521    1.3407 H   0  0  0  0  0  0  0  0  0  0  0  0
  1  2  1  0
  1 11  1  0
  2  3  1  0
  3  4  2  0
  3  5  1  0
  6  5  1  0
  6  7  1  0
  6 11  1  0
  7  8  1  0
  9  8  1  0
  9 10  1  0
  9 15  1  0
 10 11  1  0
 10 12  1  0
 11 21  1  6
 12 13  1  0
 13 14  1  0
 14 15  1  0
 14 18  1  0
 14 20  1  6
 15 16  1  0
 16 17  1  0
 17 18  1  0
 18 19  1  0
  1 22  1  0
  1 23  1  0
  2 24  1  0
  2 25  1  0
  5 26  1  0
  5 27  1  0
  6 28  1  1
  7 29  1  0
  7 30  1  0
  8 31  1  0
  8 32  1  0
  9 33  1  6
 10 34  1  1
 12 35  1  0
 12 36  1  0
 13 37  1  0
 13 38  1  0
 15 39  1  1
 16 40  1  0
 16 41  1  0
 17 42  1  0
 17 43  1  0
 18 44  1  1
 19 45  1  0
 20 46  1  0
 20 47  1  0
 20 48  1  0
 21 49  1  0
 21 50  1  0
 21 51  1  0
M  END
>  <filename_input>  (21) 
7ZU2_DHT_docked.sdf

>  <pdb_id>  (21) 
7ZU2_DHT

>  <pose_rank>  (21) 
20

>  <num_atoms_heavy>  (21) 
21

>  <num_torsions>  (21) 
0

>  <pose>  (21) 
[-34.03288482222344, 9.163322504572387, 3.1542526622203453, 1.712854502152884, 3.42136551064554, -4.237288792142287]

>  <energy>  (21) 
-77.08860587152142

>  <inter_energy>  (21) 
-74.16300741318595

>  <intra_energy>  (21) 
0.0

>  <rmsd>  (21) 
11.3252

>  <sdf_rank>  (21) 
0

$$$$

     RDKit          3D

 51 54  0  0  0  0  0  0  0  0999 V2000
  -32.9494    4.2586    4.5758 C   0  0  0  0  0  0  0  0  0  0  0  0
  -34.0563    3.2459    4.2330 C   0  0  0  0  0  0  0  0  0  0  0  0
  -35.3941    3.7188    4.7294 C   0  0  0  0  0  0  0  0  0  0  0  0
  -36.1081    3.0289    5.4291 O   0  0  0  0  0  0  0  0  0  0  0  0
  -35.7638    5.1364    4.4129 C   0  0  0  0  0  0  0  0  0  0  0  0
  -34.6149    6.0989    4.7828 C   0  0  2  0  0  0  0  0  0  0  0  0
  -34.9610    7.5751    4.5316 C   0  0  0  0  0  0  0  0  0  0  0  0
  -33.8409    8.5030    5.0104 C   0  0  0  0  0  0  0  0  0  0  0  0
  -32.5042    8.1617    4.3462 C   0  0  2  0  0  0  0  0  0  0  0  0
  -32.1503    6.6608    4.5492 C   0  0  1  0  0  0  0  0  0  0  0  0
  -33.2845    5.6933    4.1069 C   0  0  1  0  0  0  0  0  0  0  0  0
  -30.7857    6.3002    3.9311 C   0  0  0  0  0  0  0  0  0  0  0  0
  -29.6574    7.2162    4.4593 C   0  0  0  0  0  0  0  0  0  0  0  0
  -30.0086    8.6818    4.2509 C   0  0  1  0  0  0  0  0  0  0  0  0
  -31.3554    8.9689    4.9351 C   0  0  1  0  0  0  0  0  0  0  0  0
  -31.4448   10.5050    4.9255 C   0  0  0  0  0  0  0  0  0  0  0  0
  -29.9776   10.9572    5.1338 C   0  0  0  0  0  0  0  0  0  0  0  0
  -29.1287    9.6830    5.0200 C   0  0  2  0  0  0  0  0  0  0  0  0
  -27.8495    9.9448    4.4347 O   0  0  0  0  0  0  0  0  0  0  0  0
  -30.0266    9.0184    2.7475 C   0  0  0  0  0  0  0  0  0  0  0  0
  -33.4423    5.6851    2.5721 C   0  0  0  0  0  0  0  0  0  0  0  0
  -32.8082    4.2692    5.6667 H   0  0  0  0  0  0  0  0  0  0  0  0
  -32.0365    3.9426    4.0496 H   0  0  0  0  0  0  0  0  0  0  0  0
  -34.1023    3.1196    3.1412 H   0  0  0  0  0  0  0  0  0  0  0  0
  -33.8196    2.2898    4.7228 H   0  0  0  0  0  0  0  0  0  0  0  0
  -35.9737    5.2224    3.3365 H   0  0  0  0  0  0  0  0  0  0  0  0
  -36.6536    5.4079    4.9998 H   0  0  0  0  0  0  0  0  0  0  0  0
  -34.4738    6.0022    5.8694 H   0  0  0  0  0  0  0  0  0  0  0  0
  -35.1152    7.7277    3.4532 H   0  0  0  0  0  0  0  0  0  0  0  0
  -35.8741    7.8165    5.0956 H   0  0  0  0  0  0  0  0  0  0  0  0
  -34.1074    9.5413    4.7636 H   0  0  0  0  0  0  0  0  0  0  0  0
  -33.7281    8.3742    6.0970 H   0  0  0  0  0  0  0  0  0  0  0  0
  -32.6266    8.3994    3.2792 H   0  0  0  0  0  0  0  0  0  0  0  0
  -32.0554    6.5161    5.6355 H   0  0  0  0  0  0  0  0  0  0  0  0
  -30.5450    5.2568    4.1832 H   0  0  0  0  0  0  0  0  0  0  0  0
  -30.8563    6.4369    2.8419 H   0  0  0  0  0  0  0  0  0  0  0  0
  -29.5143    7.0290    5.5337 H   0  0  0  0  0  0  0  0  0  0  0  0
  -28.7338    6.9929    3.9051 H   0  0  0  0  0  0  0  0  0  0  0  0
  -31.4339    8.6195    5.9752 H   0  0  0  0  0  0  0  0  0  0  0  0
  -31.8353   10.8696    3.9640 H   0  0  0  0  0  0  0  0  0  0  0  0
  -32.1262   10.8980    5.6944 H   0  0  0  0  0  0  0  0  0  0  0  0
  -29.6864   11.6823    4.3596 H   0  0  0  0  0  0  0  0  0  0  0  0
  -29.8397   11.4507    6.1072 H   0  0  0  0  0  0  0  0  0  0  0  0
  -28.8583    9.2584    5.9981 H   0  0  0  0  0  0  0  0  0  0  0  0
  -27.1805   10.0818    5.1514 H   0  0  0  0  0  0  0  0  0  0  0  0
  -30.0849   10.1090    2.6166 H   0  0  0  0  0  0  0  0  0  0  0  0
  -29.1070    8.6412    2.2763 H   0  0  0  0  0  0  0  0  0  0  0  0
  -30.9007    8.5453    2.2763 H   0  0  0  0  0  0  0  0  0  0  0  0
  -34.5100    5.6296    2.3135 H   0  0  0  0  0  0  0  0  0  0  0  0
  -33.0112    6.6068    2.1542 H   0  0  0  0  0  0  0  0  0  0  0  0
  -32.9181    4.8129    2.1542 H   0  0  0  0  0  0  0  0  0  0  0  0
  1  2  1  0
  1 11  1  0
  2  3  1  0
  3  4  2  0
  3  5  1  0
  6  5  1  0
  6  7  1  0
  6 11  1  0
  7  8  1  0
  9  8  1  0
  9 10  1  0
  9 15  1  0
 10 11  1  0
 10 12  1  0
 11 21  1  6
 12 13  1  0
 13 14  1  0
 14 15  1  0
 14 18  1  0
 14 20  1  6
 15 16  1  0
 16 17  1  0
 17 18  1  0
 18 19  1  0
  1 22  1  0
  1 23  1  0
  2 24  1  0
  2 25  1  0
  5 26  1  0
  5 27  1  0
  6 28  1  1
  7 29  1  0
  7 30  1  0
  8 31  1  0
  8 32  1  0
  9 33  1  6
 10 34  1  1
 12 35  1  0
 12 36  1  0
 13 37  1  0
 13 38  1  0
 15 39  1  1
 16 40  1  0
 16 41  1  0
 17 42  1  0
 17 43  1  0
 18 44  1  1
 19 45  1  0
 20 46  1  0
 20 47  1  0
 20 48  1  0
 21 49  1  0
 21 50  1  0
 21 51  1  0
M  END
>  <filename_input>  (22) 
7ZU2_DHT_docked.sdf

>  <pdb_id>  (22) 
7ZU2_DHT

>  <pose_rank>  (22) 
21

>  <num_atoms_heavy>  (22) 
21

>  <num_torsions>  (22) 
0

>  <pose>  (22) 
[-32.94936056955356, 4.258573239850744, 4.575826106733669, 0.04081787934044165, 0.07660584976575593, 2.876175451427922]

>  <energy>  (22) 
-91.49168139020968

>  <inter_energy>  (22) 
-93.0387911248152

>  <intra_energy>  (22) 
0.0

>  <rmsd>  (22) 
13.3394

>  <sdf_rank>  (22) 
0

$$$$

     RDKit          3D

 51 54  0  0  0  0  0  0  0  0999 V2000
  -20.8577   -6.1836    2.0251 C   0  0  0  0  0  0  0  0  0  0  0  0
  -19.6453   -7.1299    1.9690 C   0  0  0  0  0  0  0  0  0  0  0  0
  -18.3995   -6.4415    2.4524 C   0  0  0  0  0  0  0  0  0  0  0  0
  -17.3773   -6.4132    1.7970 O   0  0  0  0  0  0  0  0  0  0  0  0
  -18.5081   -5.6875    3.7432 C   0  0  0  0  0  0  0  0  0  0  0  0
  -19.7395   -4.7564    3.7329 C   0  0  2  0  0  0  0  0  0  0  0  0
  -19.8691   -3.9146    5.0122 C   0  0  0  0  0  0  0  0  0  0  0  0
  -21.0373   -2.9290    4.9189 C   0  0  0  0  0  0  0  0  0  0  0  0
  -22.3588   -3.6471    4.6325 C   0  0  2  0  0  0  0  0  0  0  0  0
  -22.2420   -4.5408    3.3649 C   0  0  1  0  0  0  0  0  0  0  0  0
  -21.0411   -5.5276    3.4132 C   0  0  1  0  0  0  0  0  0  0  0  0
  -23.5729   -5.2392    3.0256 C   0  0  0  0  0  0  0  0  0  0  0  0
  -24.7332   -4.2262    2.8895 C   0  0  0  0  0  0  0  0  0  0  0  0
  -24.8446   -3.3608    4.1359 C   0  0  1  0  0  0  0  0  0  0  0  0
  -23.4943   -2.6657    4.3766 C   0  0  1  0  0  0  0  0  0  0  0  0
  -23.8184   -1.6086    5.4468 C   0  0  0  0  0  0  0  0  0  0  0  0
  -25.2522   -1.1482    5.0825 C   0  0  0  0  0  0  0  0  0  0  0  0
  -25.7356   -2.1144    3.9917 C   0  0  2  0  0  0  0  0  0  0  0  0
  -27.1428   -2.3580    4.0803 O   0  0  0  0  0  0  0  0  0  0  0  0
  -25.2931   -4.2123    5.3391 C   0  0  0  0  0  0  0  0  0  0  0  0
  -21.2764   -6.6402    4.4560 C   0  0  0  0  0  0  0  0  0  0  0  0
  -20.7188   -5.3895    1.2766 H   0  0  0  0  0  0  0  0  0  0  0  0
  -21.7565   -6.7838    1.8208 H   0  0  0  0  0  0  0  0  0  0  0  0
  -19.8426   -8.0049    2.6058 H   0  0  0  0  0  0  0  0  0  0  0  0
  -19.4912   -7.4392    0.9247 H   0  0  0  0  0  0  0  0  0  0  0  0
  -18.6048   -6.4040    4.5722 H   0  0  0  0  0  0  0  0  0  0  0  0
  -17.6038   -5.0742    3.8701 H   0  0  0  0  0  0  0  0  0  0  0  0
  -19.5733   -4.0398    2.9152 H   0  0  0  0  0  0  0  0  0  0  0  0
  -20.0358   -4.5866    5.8670 H   0  0  0  0  0  0  0  0  0  0  0  0
  -18.9410   -3.3388    5.1422 H   0  0  0  0  0  0  0  0  0  0  0  0
  -21.1245   -2.3874    5.8724 H   0  0  0  0  0  0  0  0  0  0  0  0
  -20.8362   -2.2345    4.0899 H   0  0  0  0  0  0  0  0  0  0  0  0
  -22.5747   -4.2520    5.5256 H   0  0  0  0  0  0  0  0  0  0  0  0
  -22.0202   -3.8575    2.5319 H   0  0  0  0  0  0  0  0  0  0  0  0
  -23.4589   -5.7804    2.0747 H   0  0  0  0  0  0  0  0  0  0  0  0
  -23.8160   -5.9301    3.8463 H   0  0  0  0  0  0  0  0  0  0  0  0
  -24.5481   -3.5810    2.0180 H   0  0  0  0  0  0  0  0  0  0  0  0
  -25.6735   -4.7825    2.7616 H   0  0  0  0  0  0  0  0  0  0  0  0
  -23.0686   -2.1571    3.4991 H   0  0  0  0  0  0  0  0  0  0  0  0
  -23.7916   -2.0490    6.4545 H   0  0  0  0  0  0  0  0  0  0  0  0
  -23.0947   -0.7804    5.4621 H   0  0  0  0  0  0  0  0  0  0  0  0
  -25.9085   -1.2052    5.9634 H   0  0  0  0  0  0  0  0  0  0  0  0
  -25.2670   -0.1045    4.7354 H   0  0  0  0  0  0  0  0  0  0  0  0
  -25.6307   -1.7034    2.9768 H   0  0  0  0  0  0  0  0  0  0  0  0
  -27.4104   -2.4043    5.0323 H   0  0  0  0  0  0  0  0  0  0  0  0
  -25.0223   -3.6983    6.2732 H   0  0  0  0  0  0  0  0  0  0  0  0
  -26.3832   -4.3546    5.3016 H   0  0  0  0  0  0  0  0  0  0  0  0
  -24.7939   -5.1918    5.3016 H   0  0  0  0  0  0  0  0  0  0  0  0
  -21.1873   -6.2188    5.4682 H   0  0  0  0  0  0  0  0  0  0  0  0
  -22.2835   -7.0617    4.3216 H   0  0  0  0  0  0  0  0  0  0  0  0
  -20.5260   -7.4333    4.3216 H   0  0  0  0  0  0  0  0  0  0  0  0
  1  2  1  0
  1 11  1  0
  2  3  1  0
  3  4  2  0
  3  5  1  0
  6  5  1  0
  6  7  1  0
  6 11  1  0
  7  8  1  0
  9  8  1  0
  9 10  1  0
  9 15  1  0
 10 11  1  0
 10 12  1  0
 11 21  1  1
 12 13  1  0
 13 14  1  0
 14 15  1  0
 14 18  1  0
 14 20  1  1
 15 16  1  0
 16 17  1  0
 17 18  1  0
 18 19  1  0
  1 22  1  0
  1 23  1  0
  2 24  1  0
  2 25  1  0
  5 26  1  0
  5 27  1  0
  6 28  1  6
  7 29  1  0
  7 30  1  0
  8 31  1  0
  8 32  1  0
  9 33  1  1
 10 34  1  6
 12 35  1  0
 12 36  1  0
 13 37  1  0
 13 38  1  0
 15 39  1  6
 16 40  1  0
 16 41  1  0
 17 42  1  0
 17 43  1  0
 18 44  1  6
 19 45  1  0
 20 46  1  0
 20 47  1  0
 20 48  1  0
 21 49  1  0
 21 50  1  0
 21 51  1  0
M  END
>  <filename_input>  (23) 
7ZU2_DHT_docked.sdf

>  <pdb_id>  (23) 
7ZU2_DHT

>  <pose_rank>  (23) 
22

>  <num_atoms_heavy>  (23) 
21

>  <num_torsions>  (23) 
0

>  <pose>  (23) 
[-20.857670664175206, -6.183553326540801, 2.0251497215805405, 3.7314590025050216, 0.8569650888993336, 0.8678798026752306]

>  <energy>  (23) 
-79.93194924748106

>  <inter_energy>  (23) 
-62.59082385846581

>  <intra_energy>  (23) 
0.0

>  <rmsd>  (23) 
12.785

>  <sdf_rank>  (23) 
0

$$$$

     RDKit          3D

 51 54  0  0  0  0  0  0  0  0999 V2000
  -19.6652   -2.8847   -1.8378 C   0  0  0  0  0  0  0  0  0  0  0  0
  -19.3104   -2.3934   -0.4232 C   0  0  0  0  0  0  0  0  0  0  0  0
  -18.8132   -3.5246    0.4330 C   0  0  0  0  0  0  0  0  0  0  0  0
  -19.2903   -3.7731    1.5219 O   0  0  0  0  0  0  0  0  0  0  0  0
  -17.7666   -4.4118   -0.1701 C   0  0  0  0  0  0  0  0  0  0  0  0
  -18.1844   -4.8712   -1.5835 C   0  0  2  0  0  0  0  0  0  0  0  0
  -17.1725   -5.8311   -2.2289 C   0  0  0  0  0  0  0  0  0  0  0  0
  -17.6730   -6.3477   -3.5807 C   0  0  0  0  0  0  0  0  0  0  0  0
  -17.9859   -5.1979   -4.5423 C   0  0  2  0  0  0  0  0  0  0  0  0
  -18.9765   -4.1877   -3.8965 C   0  0  1  0  0  0  0  0  0  0  0  0
  -18.5139   -3.6731   -2.5039 C   0  0  1  0  0  0  0  0  0  0  0  0
  -19.3462   -3.0441   -4.8607 C   0  0  0  0  0  0  0  0  0  0  0  0
  -19.8930   -3.5813   -6.2037 C   0  0  0  0  0  0  0  0  0  0  0  0
  -18.9154   -4.5634   -6.8316 C   0  0  1  0  0  0  0  0  0  0  0  0
  -18.6365   -5.6932   -5.8266 C   0  0  1  0  0  0  0  0  0  0  0  0
  -17.9056   -6.7533   -6.6691 C   0  0  0  0  0  0  0  0  0  0  0  0
  -18.5852   -6.6482   -8.0575 C   0  0  0  0  0  0  0  0  0  0  0  0
  -19.4824   -5.4042   -7.9891 C   0  0  2  0  0  0  0  0  0  0  0  0
  -19.5591   -4.7319   -9.2499 O   0  0  0  0  0  0  0  0  0  0  0  0
  -17.6315   -3.8329   -7.2698 C   0  0  0  0  0  0  0  0  0  0  0  0
  -17.2902   -2.7422   -2.6327 C   0  0  0  0  0  0  0  0  0  0  0  0
  -20.5471   -3.5387   -1.7720 H   0  0  0  0  0  0  0  0  0  0  0  0
  -19.8611   -1.9972   -2.4575 H   0  0  0  0  0  0  0  0  0  0  0  0
  -18.5259   -1.6257   -0.4955 H   0  0  0  0  0  0  0  0  0  0  0  0
  -20.2170   -1.9767    0.0399 H   0  0  0  0  0  0  0  0  0  0  0  0
  -16.8188   -3.8575   -0.2368 H   0  0  0  0  0  0  0  0  0  0  0  0
  -17.6471   -5.2998    0.4680 H   0  0  0  0  0  0  0  0  0  0  0  0
  -19.1106   -5.4504   -1.4546 H   0  0  0  0  0  0  0  0  0  0  0  0
  -16.2212   -5.2997   -2.3793 H   0  0  0  0  0  0  0  0  0  0  0  0
  -17.0377   -6.6927   -1.5585 H   0  0  0  0  0  0  0  0  0  0  0  0
  -16.8974   -6.9864   -4.0283 H   0  0  0  0  0  0  0  0  0  0  0  0
  -18.5995   -6.9158   -3.4105 H   0  0  0  0  0  0  0  0  0  0  0  0
  -17.0212   -4.7193   -4.7662 H   0  0  0  0  0  0  0  0  0  0  0  0
  -19.9010   -4.7515   -3.7028 H   0  0  0  0  0  0  0  0  0  0  0  0
  -20.1154   -2.4150   -4.3890 H   0  0  0  0  0  0  0  0  0  0  0  0
  -18.4352   -2.4641   -5.0693 H   0  0  0  0  0  0  0  0  0  0  0  0
  -20.8512   -4.0911   -6.0248 H   0  0  0  0  0  0  0  0  0  0  0  0
  -20.0323   -2.7343   -6.8915 H   0  0  0  0  0  0  0  0  0  0  0  0
  -19.5313   -6.1539   -5.3828 H   0  0  0  0  0  0  0  0  0  0  0  0
  -16.8315   -6.5267   -6.7395 H   0  0  0  0  0  0  0  0  0  0  0  0
  -17.9715   -7.7625   -6.2365 H   0  0  0  0  0  0  0  0  0  0  0  0
  -17.8281   -6.5319   -8.8470 H   0  0  0  0  0  0  0  0  0  0  0  0
  -19.1639   -7.5530   -8.2952 H   0  0  0  0  0  0  0  0  0  0  0  0
  -20.5362   -5.6455   -7.7858 H   0  0  0  0  0  0  0  0  0  0  0  0
  -19.6700   -3.7598   -9.0993 H   0  0  0  0  0  0  0  0  0  0  0  0
  -17.0696   -3.5131   -6.3798 H   0  0  0  0  0  0  0  0  0  0  0  0
  -17.0100   -4.5126   -7.8712 H   0  0  0  0  0  0  0  0  0  0  0  0
  -17.8983   -2.9513   -7.8712 H   0  0  0  0  0  0  0  0  0  0  0  0
  -16.9304   -2.4685   -1.6299 H   0  0  0  0  0  0  0  0  0  0  0  0
  -16.4901   -3.2620   -3.1801 H   0  0  0  0  0  0  0  0  0  0  0  0
  -17.5776   -1.8324   -3.1801 H   0  0  0  0  0  0  0  0  0  0  0  0
  1  2  1  0
  1 11  1  0
  2  3  1  0
  3  4  2  0
  3  5  1  0
  6  5  1  0
  6  7  1  0
  6 11  1  0
  7  8  1  0
  9  8  1  0
  9 10  1  0
  9 15  1  0
 10 11  1  0
 10 12  1  0
 11 21  1  6
 12 13  1  0
 13 14  1  0
 14 15  1  0
 14 18  1  0
 14 20  1  6
 15 16  1  0
 16 17  1  0
 17 18  1  0
 18 19  1  0
  1 22  1  0
  1 23  1  0
  2 24  1  0
  2 25  1  0
  5 26  1  0
  5 27  1  0
  6 28  1  1
  7 29  1  0
  7 30  1  0
  8 31  1  0
  8 32  1  0
  9 33  1  6
 10 34  1  1
 12 35  1  0
 12 36  1  0
 13 37  1  0
 13 38  1  0
 15 39  1  1
 16 40  1  0
 16 41  1  0
 17 42  1  0
 17 43  1  0
 18 44  1  1
 19 45  1  0
 20 46  1  0
 20 47  1  0
 20 48  1  0
 21 49  1  0
 21 50  1  0
 21 51  1  0
M  END
>  <filename_input>  (24) 
7ZU2_DHT_docked.sdf

>  <pdb_id>  (24) 
7ZU2_DHT

>  <pose_rank>  (24) 
23

>  <num_atoms_heavy>  (24) 
21

>  <num_torsions>  (24) 
0

>  <pose>  (24) 
[-19.66517301149607, -2.8846789712742997, -1.8378310316552453, 1.0672158418282387, -0.9975475678533462, -0.1522854693406786]

>  <energy>  (24) 
-37.05776670825401

>  <inter_energy>  (24) 
-18.923611578678212

>  <intra_energy>  (24) 
0.0

>  <rmsd>  (24) 
11.6984

>  <sdf_rank>  (24) 
0

$$$$

     RDKit          3D

 51 54  0  0  0  0  0  0  0  0999 V2000
  -24.6269   -3.9464    2.8925 C   0  0  0  0  0  0  0  0  0  0  0  0
  -25.6610   -2.8626    3.2454 C   0  0  0  0  0  0  0  0  0  0  0  0
  -25.5463   -2.4554    4.6879 C   0  0  0  0  0  0  0  0  0  0  0  0
  -26.4993   -2.4574    5.4409 O   0  0  0  0  0  0  0  0  0  0  0  0
  -24.1677   -2.1507    5.1909 C   0  0  0  0  0  0  0  0  0  0  0  0
  -23.1824   -3.2756    4.8075 C   0  0  2  0  0  0  0  0  0  0  0  0
  -21.7624   -3.0429    5.3474 C   0  0  0  0  0  0  0  0  0  0  0  0
  -20.8440   -4.2288    5.0394 C   0  0  0  0  0  0  0  0  0  0  0  0
  -20.7881   -4.5227    3.5378 C   0  0  2  0  0  0  0  0  0  0  0  0
  -22.2172   -4.7205    2.9568 C   0  0  1  0  0  0  0  0  0  0  0  0
  -23.1853   -3.5488    3.2855 C   0  0  1  0  0  0  0  0  0  0  0  0
  -22.1880   -5.0649    1.4553 C   0  0  0  0  0  0  0  0  0  0  0  0
  -21.2931   -6.2925    1.1663 C   0  0  0  0  0  0  0  0  0  0  0  0
  -19.8956   -6.0880    1.7320 C   0  0  1  0  0  0  0  0  0  0  0  0
  -20.0101   -5.7965    3.2374 C   0  0  1  0  0  0  0  0  0  0  0  0
  -18.5608   -5.9182    3.7397 C   0  0  0  0  0  0  0  0  0  0  0  0
  -17.9689   -7.0587    2.8739 C   0  0  0  0  0  0  0  0  0  0  0  0
  -19.0225   -7.3536    1.7967 C   0  0  2  0  0  0  0  0  0  0  0  0
  -18.4233   -7.7444    0.5575 O   0  0  0  0  0  0  0  0  0  0  0  0
  -19.1684   -4.9656    0.9670 C   0  0  0  0  0  0  0  0  0  0  0  0
  -22.7982   -2.2724    2.5098 C   0  0  0  0  0  0  0  0  0  0  0  0
  -24.8931   -4.8725    3.4231 H   0  0  0  0  0  0  0  0  0  0  0  0
  -24.6476   -4.0814    1.8010 H   0  0  0  0  0  0  0  0  0  0  0  0
  -25.4902   -1.9820    2.6087 H   0  0  0  0  0  0  0  0  0  0  0  0
  -26.6680   -3.2719    3.0766 H   0  0  0  0  0  0  0  0  0  0  0  0
  -23.8238   -1.2040    4.7488 H   0  0  0  0  0  0  0  0  0  0  0  0
  -24.2023   -2.0713    6.2875 H   0  0  0  0  0  0  0  0  0  0  0  0
  -23.5495   -4.1854    5.3049 H   0  0  0  0  0  0  0  0  0  0  0  0
  -21.3463   -2.1378    4.8808 H   0  0  0  0  0  0  0  0  0  0  0  0
  -21.8229   -2.9276    6.4397 H   0  0  0  0  0  0  0  0  0  0  0  0
  -19.8296   -3.9968    5.3959 H   0  0  0  0  0  0  0  0  0  0  0  0
  -21.2459   -5.1168    5.5492 H   0  0  0  0  0  0  0  0  0  0  0  0
  -20.2894   -3.6568    3.0780 H   0  0  0  0  0  0  0  0  0  0  0  0
  -22.6367   -5.5951    3.4754 H   0  0  0  0  0  0  0  0  0  0  0  0
  -23.2125   -5.2841    1.1200 H   0  0  0  0  0  0  0  0  0  0  0  0
  -21.7716   -4.2025    0.9141 H   0  0  0  0  0  0  0  0  0  0  0  0
  -21.7426   -7.1833    1.6292 H   0  0  0  0  0  0  0  0  0  0  0  0
  -21.2165   -6.4240    0.0769 H   0  0  0  0  0  0  0  0  0  0  0  0
  -20.6374   -6.5016    3.8025 H   0  0  0  0  0  0  0  0  0  0  0  0
  -18.0102   -4.9791    3.5816 H   0  0  0  0  0  0  0  0  0  0  0  0
  -18.4984   -6.1245    4.8184 H   0  0  0  0  0  0  0  0  0  0  0  0
  -17.0252   -6.7369    2.4093 H   0  0  0  0  0  0  0  0  0  0  0  0
  -17.7447   -7.9509    3.4769 H   0  0  0  0  0  0  0  0  0  0  0  0
  -19.6524   -8.2223    2.0386 H   0  0  0  0  0  0  0  0  0  0  0  0
  -17.6080   -8.2761    0.7384 H   0  0  0  0  0  0  0  0  0  0  0  0
  -18.7154   -4.2663    1.6851 H   0  0  0  0  0  0  0  0  0  0  0  0
  -18.3816   -5.4029    0.3348 H   0  0  0  0  0  0  0  0  0  0  0  0
  -19.8891   -4.4262    0.3348 H   0  0  0  0  0  0  0  0  0  0  0  0
  -22.5548   -1.4702    3.2220 H   0  0  0  0  0  0  0  0  0  0  0  0
  -21.9223   -2.4793    1.8772 H   0  0  0  0  0  0  0  0  0  0  0  0
  -23.6413   -1.9578    1.8772 H   0  0  0  0  0  0  0  0  0  0  0  0
  1  2  1  0
  1 11  1  0
  2  3  1  0
  3  4  2  0
  3  5  1  0
  6  5  1  0
  6  7  1  0
  6 11  1  0
  7  8  1  0
  9  8  1  0
  9 10  1  0
  9 15  1  0
 10 11  1  0
 10 12  1  0
 11 21  1  6
 12 13  1  0
 13 14  1  0
 14 15  1  0
 14 18  1  0
 14 20  1  6
 15 16  1  0
 16 17  1  0
 17 18  1  0
 18 19  1  0
  1 22  1  0
  1 23  1  0
  2 24  1  0
  2 25  1  0
  5 26  1  0
  5 27  1  0
  6 28  1  1
  7 29  1  0
  7 30  1  0
  8 31  1  0
  8 32  1  0
  9 33  1  6
 10 34  1  1
 12 35  1  0
 12 36  1  0
 13 37  1  0
 13 38  1  0
 15 39  1  1
 16 40  1  0
 16 41  1  0
 17 42  1  0
 17 43  1  0
 18 44  1  1
 19 45  1  0
 20 46  1  0
 20 47  1  0
 20 48  1  0
 21 49  1  0
 21 50  1  0
 21 51  1  0
M  END
>  <filename_input>  (25) 
7ZU2_DHT_docked.sdf

>  <pdb_id>  (25) 
7ZU2_DHT

>  <pose_rank>  (25) 
24

>  <num_atoms_heavy>  (25) 
21

>  <num_torsions>  (25) 
0

>  <pose>  (25) 
[-24.626860863409625, -3.9463846282111827, 2.892511178080693, -1.74460472647591, 2.433798000865932, -3.5770836372414077]

>  <energy>  (25) 
-23.192177150561882

>  <inter_energy>  (25) 
-25.133967264697397

>  <intra_energy>  (25) 
0.0

>  <rmsd>  (25) 
12.5635

>  <sdf_rank>  (25) 
0

$$$$

     RDKit          3D

 51 54  0  0  0  0  0  0  0  0999 V2000
  -27.4350    5.0380   -4.8000 C   0  0  0  0  0  0  0  0  0  0  0  0
  -26.6390    6.2830   -5.2300 C   0  0  0  0  0  0  0  0  0  0  0  0
  -25.2140    6.2030   -4.7580 C   0  0  0  0  0  0  0  0  0  0  0  0
  -24.6910    7.0930   -4.1180 O   0  0  0  0  0  0  0  0  0  0  0  0
  -24.4930    4.9150   -5.0180 C   0  0  0  0  0  0  0  0  0  0  0  0
  -25.3420    3.7090   -4.5620 C   0  0  2  0  0  0  0  0  0  0  0  0
  -24.6270    2.3620   -4.7530 C   0  0  0  0  0  0  0  0  0  0  0  0
  -25.4550    1.2030   -4.1910 C   0  0  0  0  0  0  0  0  0  0  0  0
  -26.8480    1.1470   -4.8240 C   0  0  2  0  0  0  0  0  0  0  0  0
  -27.5780    2.5130   -4.6820 C   0  0  1  0  0  0  0  0  0  0  0  0
  -26.7460    3.7160   -5.2100 C   0  0  1  0  0  0  0  0  0  0  0  0
  -29.0020    2.4710   -5.2690 C   0  0  0  0  0  0  0  0  0  0  0  0
  -29.8400    1.3240   -4.6580 C   0  0  0  0  0  0  0  0  0  0  0  0
  -29.1220   -0.0090   -4.8070 C   0  0  1  0  0  0  0  0  0  0  0  0
  -27.7330    0.1030   -4.1570 C   0  0  1  0  0  0  0  0  0  0  0  0
  -27.2450   -1.3550   -4.0950 C   0  0  0  0  0  0  0  0  0  0  0  0
  -28.5380   -2.1610   -3.8140 C   0  0  0  0  0  0  0  0  0  0  0  0
  -29.6930   -1.1600   -3.9600 C   0  0  2  0  0  0  0  0  0  0  0  0
  -30.8710   -1.7780   -4.4870 O   0  0  0  0  0  0  0  0  0  0  0  0
  -29.0480   -0.4130   -6.2920 C   0  0  0  0  0  0  0  0  0  0  0  0
  -26.6280    3.6790   -6.7480 C   0  0  0  0  0  0  0  0  0  0  0  0
  -27.5456    5.0521   -3.7057 H   0  0  0  0  0  0  0  0  0  0  0  0
  -28.4095    5.0756   -5.3089 H   0  0  0  0  0  0  0  0  0  0  0  0
  -26.6505    6.3556   -6.3275 H   0  0  0  0  0  0  0  0  0  0  0  0
  -27.1074    7.1704   -4.7793 H   0  0  0  0  0  0  0  0  0  0  0  0
  -24.2904    4.8264   -6.0956 H   0  0  0  0  0  0  0  0  0  0  0  0
  -23.5511    4.9177   -4.4499 H   0  0  0  0  0  0  0  0  0  0  0  0
  -25.4807    3.8263   -3.4771 H   0  0  0  0  0  0  0  0  0  0  0  0
  -24.4608    2.1946   -5.8274 H   0  0  0  0  0  0  0  0  0  0  0  0
  -23.6710    2.3985   -4.2101 H   0  0  0  0  0  0  0  0  0  0  0  0
  -24.9313    0.2577   -4.3962 H   0  0  0  0  0  0  0  0  0  0  0  0
  -25.5748    1.3587   -3.1087 H   0  0  0  0  0  0  0  0  0  0  0  0
  -26.6900    0.8899   -5.8818 H   0  0  0  0  0  0  0  0  0  0  0  0
  -27.6848    2.6886   -3.6014 H   0  0  0  0  0  0  0  0  0  0  0  0
  -29.5020    3.4282   -5.0597 H   0  0  0  0  0  0  0  0  0  0  0  0
  -28.9210    2.2966   -6.3521 H   0  0  0  0  0  0  0  0  0  0  0  0
  -30.0046    1.5274   -3.5896 H   0  0  0  0  0  0  0  0  0  0  0  0
  -30.8012    1.2679   -5.1899 H   0  0  0  0  0  0  0  0  0  0  0  0
  -27.7269    0.5184   -3.1385 H   0  0  0  0  0  0  0  0  0  0  0  0
  -26.7929   -1.6587   -5.0507 H   0  0  0  0  0  0  0  0  0  0  0  0
  -26.4685   -1.5135   -3.3321 H   0  0  0  0  0  0  0  0  0  0  0  0
  -28.6455   -2.9791   -4.5415 H   0  0  0  0  0  0  0  0  0  0  0  0
  -28.5215   -2.6181   -2.8136 H   0  0  0  0  0  0  0  0  0  0  0  0
  -30.0446   -0.7663   -2.9949 H   0  0  0  0  0  0  0  0  0  0  0  0
  -31.4471   -2.0802   -3.7408 H   0  0  0  0  0  0  0  0  0  0  0  0
  -28.8503   -1.4923   -6.3689 H   0  0  0  0  0  0  0  0  0  0  0  0
  -30.0039   -0.1794   -6.7836 H   0  0  0  0  0  0  0  0  0  0  0  0
  -28.2370    0.1443   -6.7836 H   0  0  0  0  0  0  0  0  0  0  0  0
  -25.6136    3.3609   -7.0304 H   0  0  0  0  0  0  0  0  0  0  0  0
  -27.3619    2.9678   -7.1551 H   0  0  0  0  0  0  0  0  0  0  0  0
  -26.8244    4.6819   -7.1551 H   0  0  0  0  0  0  0  0  0  0  0  0
  1  2  1  0
  1 11  1  0
  2  3  1  0
  3  4  2  0
  3  5  1  0
  6  5  1  0
  6  7  1  0
  6 11  1  0
  7  8  1  0
  9  8  1  0
  9 10  1  0
  9 15  1  0
 10 11  1  0
 10 12  1  0
 11 21  1  6
 12 13  1  0
 13 14  1  0
 14 15  1  0
 14 18  1  0
 14 20  1  6
 15 16  1  0
 16 17  1  0
 17 18  1  0
 18 19  1  0
  1 22  1  0
  1 23  1  0
  2 24  1  0
  2 25  1  0
  5 26  1  0
  5 27  1  0
  6 28  1  1
  7 29  1  0
  7 30  1  0
  8 31  1  0
  8 32  1  0
  9 33  1  6
 10 34  1  1
 12 35  1  0
 12 36  1  0
 13 37  1  0
 13 38  1  0
 15 39  1  1
 16 40  1  0
 16 41  1  0
 17 42  1  0
 17 43  1  0
 18 44  1  1
 19 45  1  0
 20 46  1  0
 20 47  1  0
 20 48  1  0
 21 49  1  0
 21 50  1  0
 21 51  1  0
M  END
>  <filename_input>  (26) 
7ZU2_DHT_docked.sdf

>  <pdb_id>  (26) 
7ZU2_DHT

>  <pose_rank>  (26) 
25

>  <num_atoms_heavy>  (26) 
21

>  <num_torsions>  (26) 
0

>  <pose>  (26) 
[-27.435, 5.038, -4.8, 1e-06, 1e-06, 1e-06]

>  <energy>  (26) 
-2010.8700427036993

>  <inter_energy>  (26) 
-2013.2147767833937

>  <intra_energy>  (26) 
0.0

>  <rmsd>  (26) 
0.0

>  <sdf_rank>  (26) 
0

$$$$
