
     RDKit          3D

 94 95  0  0  0  0  0  0  0  0999 V2000
   15.0351   19.4523  -20.6035 O   0  0  0  0  0  0  0  0  0  0  0  0
   26.9447    7.5831   -0.7413 O   0  0  0  0  0  0  0  0  0  0  0  0
   13.9623   15.4141  -20.3025 C   0  0  1  0  0  0  0  0  0  0  0  0
   28.2967    6.1232   -4.4528 C   0  0  1  0  0  0  0  0  0  0  0  0
   13.2233   16.3698  -21.2489 C   0  0  0  0  0  0  0  0  0  0  0  0
   28.4487    5.3560   -3.1368 C   0  0  0  0  0  0  0  0  0  0  0  0
   14.5410   16.1362  -19.1056 C   0  0  0  0  0  0  0  0  0  0  0  0
   27.1574    7.1548   -4.3728 C   0  0  0  0  0  0  0  0  0  0  0  0
   14.0994   17.5620  -21.6652 C   0  0  0  0  0  0  0  0  0  0  0  0
   28.5981    6.2855   -1.9263 C   0  0  0  0  0  0  0  0  0  0  0  0
   12.9867   14.3114  -19.8659 C   0  0  0  0  0  0  0  0  0  0  0  0
   15.1415   14.8007  -21.0818 C   0  0  0  0  0  0  0  0  0  0  0  0
   29.6246    6.8026   -4.8226 C   0  0  0  0  0  0  0  0  0  0  0  0
   27.9657    5.1226   -5.5586 C   0  0  0  0  0  0  0  0  0  0  0  0
   15.0447   17.5572  -19.2286 C   0  0  0  0  0  0  0  0  0  0  0  0
   26.8961    7.8735   -3.0605 C   0  0  0  0  0  0  0  0  0  0  0  0
   14.7551   18.2945  -20.5018 C   0  0  0  0  0  0  0  0  0  0  0  0
   27.4411    7.2526   -1.7870 C   0  0  0  0  0  0  0  0  0  0  0  0
   15.0332   15.2177  -18.0143 C   0  0  0  0  0  0  0  0  0  0  0  0
   26.5905    7.7874   -5.6129 C   0  0  0  0  0  0  0  0  0  0  0  0
   15.3162   18.3107  -17.9144 C   0  0  0  0  0  0  0  0  0  0  0  0
   25.8918    9.0198   -2.9538 C   0  0  0  0  0  0  0  0  0  0  0  0
   16.2990   15.0384  -17.8387 C   0  0  0  0  0  0  0  0  0  0  0  0
   25.4721    7.3290   -6.1145 C   0  0  0  0  0  0  0  0  0  0  0  0
   16.7197   14.1910  -16.6573 C   0  0  0  0  0  0  0  0  0  0  0  0
   24.8922    8.0028   -7.3467 C   0  0  0  0  0  0  0  0  0  0  0  0
   15.8038   14.0803  -15.4683 C   0  0  0  0  0  0  0  0  0  0  0  0
   23.6001    8.7757   -7.2601 C   0  0  0  0  0  0  0  0  0  0  0  0
   17.9189   13.5948  -16.7130 C   0  0  0  0  0  0  0  0  0  0  0  0
   25.6286    7.8681   -8.4578 C   0  0  0  0  0  0  0  0  0  0  0  0
   18.4818   12.8203  -15.5430 C   0  0  0  0  0  0  0  0  0  0  0  0
   25.2222    8.4094   -9.8141 C   0  0  0  0  0  0  0  0  0  0  0  0
   18.5677   11.4961  -15.6740 C   0  0  0  0  0  0  0  0  0  0  0  0
   24.3559    7.7042  -10.5631 C   0  0  0  0  0  0  0  0  0  0  0  0
   19.1713   10.5694  -14.6269 C   0  0  0  0  0  0  0  0  0  0  0  0
   23.8555    8.2828  -11.8936 C   0  0  0  0  0  0  0  0  0  0  0  0
   20.4621   10.7104  -14.3597 C   0  0  0  0  0  0  0  0  0  0  0  0
   23.0033    9.3233  -11.8171 C   0  0  0  0  0  0  0  0  0  0  0  0
   18.3362    9.5011  -13.9377 C   0  0  0  0  0  0  0  0  0  0  0  0
   24.3866    7.7599  -13.2038 C   0  0  0  0  0  0  0  0  0  0  0  0
   21.2129    9.9608  -13.2900 C   0  0  0  0  0  0  0  0  0  0  0  0
   22.5444   10.0627  -13.0562 C   0  0  0  0  0  0  0  0  0  0  0  0
   12.9257   15.8158  -22.1514 H   0  0  0  0  0  0  0  0  0  0  0  0
   12.3456   16.7638  -20.7155 H   0  0  0  0  0  0  0  0  0  0  0  0
   27.5579    4.7275   -2.9905 H   0  0  0  0  0  0  0  0  0  0  0  0
   29.3648    4.7512   -3.2076 H   0  0  0  0  0  0  0  0  0  0  0  0
   14.8933   17.1906  -22.3299 H   0  0  0  0  0  0  0  0  0  0  0  0
   13.4332   18.2856  -22.1578 H   0  0  0  0  0  0  0  0  0  0  0  0
   28.6552    5.6712   -1.0156 H   0  0  0  0  0  0  0  0  0  0  0  0
   29.5122    6.8794   -2.0737 H   0  0  0  0  0  0  0  0  0  0  0  0
   12.9491   14.2690  -18.7673 H   0  0  0  0  0  0  0  0  0  0  0  0
   11.9834   14.5328  -20.2587 H   0  0  0  0  0  0  0  0  0  0  0  0
   13.3287   13.3426  -20.2587 H   0  0  0  0  0  0  0  0  0  0  0  0
   15.8875   14.4126  -20.3725 H   0  0  0  0  0  0  0  0  0  0  0  0
   14.7750   13.9789  -21.7146 H   0  0  0  0  0  0  0  0  0  0  0  0
   15.6040   15.5725  -21.7146 H   0  0  0  0  0  0  0  0  0  0  0  0
   30.1637    7.0784   -3.9042 H   0  0  0  0  0  0  0  0  0  0  0  0
   30.2395    6.1083   -5.4141 H   0  0  0  0  0  0  0  0  0  0  0  0
   29.4213    7.7074   -5.4141 H   0  0  0  0  0  0  0  0  0  0  0  0
   27.6505    4.1697   -5.1085 H   0  0  0  0  0  0  0  0  0  0  0  0
   27.1515    5.5209   -6.1818 H   0  0  0  0  0  0  0  0  0  0  0  0
   28.8569    4.9568   -6.1818 H   0  0  0  0  0  0  0  0  0  0  0  0
   14.3109   14.6995  -17.3665 H   0  0  0  0  0  0  0  0  0  0  0  0
   27.1111    8.6282   -6.0945 H   0  0  0  0  0  0  0  0  0  0  0  0
   15.0807   17.6571  -17.0616 H   0  0  0  0  0  0  0  0  0  0  0  0
   16.3760   18.6023  -17.8712 H   0  0  0  0  0  0  0  0  0  0  0  0
   14.6861   19.2113  -17.8712 H   0  0  0  0  0  0  0  0  0  0  0  0
   25.6985    9.2404   -1.8936 H   0  0  0  0  0  0  0  0  0  0  0  0
   26.3024    9.9140   -3.4454 H   0  0  0  0  0  0  0  0  0  0  0  0
   24.9513    8.7303   -3.4454 H   0  0  0  0  0  0  0  0  0  0  0  0
   17.0407   15.4825  -18.5188 H   0  0  0  0  0  0  0  0  0  0  0  0
   24.9612    6.4714   -5.6525 H   0  0  0  0  0  0  0  0  0  0  0  0
   16.3940   14.1516  -14.5428 H   0  0  0  0  0  0  0  0  0  0  0  0
   15.0662   14.8959  -15.4965 H   0  0  0  0  0  0  0  0  0  0  0  0
   15.2816   13.1125  -15.4965 H   0  0  0  0  0  0  0  0  0  0  0  0
   23.3371    8.9330   -6.2037 H   0  0  0  0  0  0  0  0  0  0  0  0
   23.7215    9.7497   -7.7568 H   0  0  0  0  0  0  0  0  0  0  0  0
   22.7994    8.2081   -7.7568 H   0  0  0  0  0  0  0  0  0  0  0  0
   18.5107   13.6712  -17.6371 H   0  0  0  0  0  0  0  0  0  0  0  0
   26.5862    7.3322   -8.3812 H   0  0  0  0  0  0  0  0  0  0  0  0
   18.8067   13.3277  -14.6227 H   0  0  0  0  0  0  0  0  0  0  0  0
   25.6293    9.3636  -10.1798 H   0  0  0  0  0  0  0  0  0  0  0  0
   18.1775   11.0439  -16.5978 H   0  0  0  0  0  0  0  0  0  0  0  0
   24.0077    6.7175  -10.2237 H   0  0  0  0  0  0  0  0  0  0  0  0
   21.0294   11.4314  -14.9665 H   0  0  0  0  0  0  0  0  0  0  0  0
   22.6325    9.6431  -10.8321 H   0  0  0  0  0  0  0  0  0  0  0  0
   18.4243    9.6138  -12.8471 H   0  0  0  0  0  0  0  0  0  0  0  0
   17.2826    9.6116  -14.2339 H   0  0  0  0  0  0  0  0  0  0  0  0
   18.6978    8.5053  -14.2339 H   0  0  0  0  0  0  0  0  0  0  0  0
   25.1581    7.0002  -13.0096 H   0  0  0  0  0  0  0  0  0  0  0  0
   23.5645    7.3089  -13.7789 H   0  0  0  0  0  0  0  0  0  0  0  0
   24.8247    8.5889  -13.7789 H   0  0  0  0  0  0  0  0  0  0  0  0
   20.6360    9.2779  -12.6491 H   0  0  0  0  0  0  0  0  0  0  0  0
   23.2274   10.6295  -13.7059 H   0  0  0  0  0  0  0  0  0  0  0  0
  1 17  2  0
  2 18  2  0
  3  5  1  0
  3  7  1  0
  3 11  1  1
  3 12  1  0
  4  6  1  0
  4  8  1  0
  4 13  1  6
  4 14  1  0
  5  9  1  0
  6 10  1  0
  7 15  2  0
  7 19  1  0
  8 16  2  0
  8 20  1  0
  9 17  1  0
 10 18  1  0
 15 17  1  0
 15 21  1  0
 16 18  1  0
 16 22  1  0
 19 23  2  3
 20 24  2  3
 23 25  1  0
 24 26  1  0
 25 27  1  0
 25 29  2  3
 26 28  1  0
 26 30  2  3
 29 31  1  0
 30 32  1  0
 31 33  2  3
 32 34  2  3
 33 35  1  0
 34 36  1  0
 35 37  2  3
 35 39  1  0
 36 38  2  3
 36 40  1  0
 37 41  1  0
 38 42  1  0
 41 42  2  3
  5 43  1  0
  5 44  1  0
  6 45  1  0
  6 46  1  0
  9 47  1  0
  9 48  1  0
 10 49  1  0
 10 50  1  0
 11 51  1  0
 11 52  1  0
 11 53  1  0
 12 54  1  0
 12 55  1  0
 12 56  1  0
 13 57  1  0
 13 58  1  0
 13 59  1  0
 14 60  1  0
 14 61  1  0
 14 62  1  0
 19 63  1  0
 20 64  1  0
 21 65  1  0
 21 66  1  0
 21 67  1  0
 22 68  1  0
 22 69  1  0
 22 70  1  0
 23 71  1  0
 24 72  1  0
 27 73  1  0
 27 74  1  0
 27 75  1  0
 28 76  1  0
 28 77  1  0
 28 78  1  0
 29 79  1  0
 30 80  1  0
 31 81  1  0
 32 82  1  0
 33 83  1  0
 34 84  1  0
 37 85  1  0
 38 86  1  0
 39 87  1  0
 39 88  1  0
 39 89  1  0
 40 90  1  0
 40 91  1  0
 40 92  1  0
 41 93  1  0
 42 94  1  0
M  END
>  <filename_input>  (1) 
7ZXV_45D_docked.sdf

>  <pdb_id>  (1) 
7ZXV_45D

>  <pose_rank>  (1) 
0

>  <num_atoms_heavy>  (1) 
42

>  <num_torsions>  (1) 
10

>  <pose>  (1) 
[21.212872291965184, 9.960810980155422, -13.290039053720324, -2.365589561611464, 1.8555529110484075, -4.587943180475666, 0.26410749482769524, 2.4341111878620225, 4.67040236385777, -0.7350452933111736, 3.5305945626320248, -1.6459644271189096, 1.696420347492132, 1.9962037461680122, -2.3908039729428845, -0.32838199860664696]

>  <energy>  (1) 
-737.7624790301396

>  <inter_energy>  (1) 
-754.6471496091717

>  <intra_energy>  (1) 
16.34823796885001

>  <rmsd>  (1) 
2.15694

>  <sdf_rank>  (1) 
0

$$$$

     RDKit          3D

 94 95  0  0  0  0  0  0  0  0999 V2000
   28.7375    5.8660   -2.9081 O   0  0  0  0  0  0  0  0  0  0  0  0
   14.4213   20.3605  -19.9561 O   0  0  0  0  0  0  0  0  0  0  0  0
   25.7774    8.5546   -4.1559 C   0  0  1  0  0  0  0  0  0  0  0  0
   13.6091   16.3670  -21.0174 C   0  0  1  0  0  0  0  0  0  0  0  0
   25.9657    8.2033   -2.6740 C   0  0  0  0  0  0  0  0  0  0  0  0
   13.9057   17.4690  -22.0377 C   0  0  0  0  0  0  0  0  0  0  0  0
   26.2081    7.4251   -5.0657 C   0  0  0  0  0  0  0  0  0  0  0  0
   14.1723   16.7208  -19.6295 C   0  0  0  0  0  0  0  0  0  0  0  0
   27.3972    7.7340   -2.3693 C   0  0  0  0  0  0  0  0  0  0  0  0
   13.4416   18.8516  -21.5639 C   0  0  0  0  0  0  0  0  0  0  0  0
   24.3034    8.9197   -4.3855 C   0  0  0  0  0  0  0  0  0  0  0  0
   26.6784    9.7646   -4.4697 C   0  0  0  0  0  0  0  0  0  0  0  0
   12.0956   16.1105  -20.9443 C   0  0  0  0  0  0  0  0  0  0  0  0
   14.2741   15.0770  -21.4941 C   0  0  0  0  0  0  0  0  0  0  0  0
   27.3569    6.5186   -4.6828 C   0  0  0  0  0  0  0  0  0  0  0  0
   14.1757   18.1704  -19.1760 C   0  0  0  0  0  0  0  0  0  0  0  0
   27.9059    6.6342   -3.2923 C   0  0  0  0  0  0  0  0  0  0  0  0
   14.0534   19.2493  -20.2369 C   0  0  0  0  0  0  0  0  0  0  0  0
   25.7920    7.6042   -6.5050 C   0  0  0  0  0  0  0  0  0  0  0  0
   14.3113   15.6779  -18.5559 C   0  0  0  0  0  0  0  0  0  0  0  0
   27.5174    5.2237   -5.4989 C   0  0  0  0  0  0  0  0  0  0  0  0
   14.5692   18.5710  -17.7552 C   0  0  0  0  0  0  0  0  0  0  0  0
   26.6719    7.5459   -7.4470 C   0  0  0  0  0  0  0  0  0  0  0  0
   15.4821   15.1380  -18.3321 C   0  0  0  0  0  0  0  0  0  0  0  0
   26.1659    7.6252   -8.8713 C   0  0  0  0  0  0  0  0  0  0  0  0
   15.6145   14.1125  -17.2188 C   0  0  0  0  0  0  0  0  0  0  0  0
   27.0608    8.1946   -9.9390 C   0  0  0  0  0  0  0  0  0  0  0  0
   14.3936   13.4225  -16.6642 C   0  0  0  0  0  0  0  0  0  0  0  0
   24.9157    7.2069   -9.1133 C   0  0  0  0  0  0  0  0  0  0  0  0
   16.8719   13.8767  -16.8208 C   0  0  0  0  0  0  0  0  0  0  0  0
   24.2753    7.3472  -10.4755 C   0  0  0  0  0  0  0  0  0  0  0  0
   17.2405   12.9352  -15.6916 C   0  0  0  0  0  0  0  0  0  0  0  0
   23.6782    8.5072  -10.7512 C   0  0  0  0  0  0  0  0  0  0  0  0
   17.8395   11.7678  -15.9871 C   0  0  0  0  0  0  0  0  0  0  0  0
   23.0445    8.8463  -12.0939 C   0  0  0  0  0  0  0  0  0  0  0  0
   18.3103   10.8468  -14.8533 C   0  0  0  0  0  0  0  0  0  0  0  0
   21.9192    9.5469  -12.0773 C   0  0  0  0  0  0  0  0  0  0  0  0
   19.5204   10.2743  -15.0036 C   0  0  0  0  0  0  0  0  0  0  0  0
   23.6583    8.3726  -13.4025 C   0  0  0  0  0  0  0  0  0  0  0  0
   17.4852   10.6903  -13.6016 C   0  0  0  0  0  0  0  0  0  0  0  0
   21.2011   10.0628  -13.2970 C   0  0  0  0  0  0  0  0  0  0  0  0
   20.1498    9.4532  -13.8980 C   0  0  0  0  0  0  0  0  0  0  0  0
   25.7480    9.0949   -2.0675 H   0  0  0  0  0  0  0  0  0  0  0  0
   25.2795    7.3787   -2.4311 H   0  0  0  0  0  0  0  0  0  0  0  0
   14.9909   17.5029  -22.2142 H   0  0  0  0  0  0  0  0  0  0  0  0
   13.3523   17.2289  -22.9576 H   0  0  0  0  0  0  0  0  0  0  0  0
   28.0703    8.5992   -2.4607 H   0  0  0  0  0  0  0  0  0  0  0  0
   27.3806    7.3106   -1.3542 H   0  0  0  0  0  0  0  0  0  0  0  0
   13.7269   19.5972  -22.3207 H   0  0  0  0  0  0  0  0  0  0  0  0
   12.3510   18.8079  -21.4277 H   0  0  0  0  0  0  0  0  0  0  0  0
   23.8010    9.0441   -3.4149 H   0  0  0  0  0  0  0  0  0  0  0  0
   24.2427    9.8600   -4.9531 H   0  0  0  0  0  0  0  0  0  0  0  0
   23.8109    8.1164   -4.9531 H   0  0  0  0  0  0  0  0  0  0  0  0
   27.0189   10.2219   -3.5290 H   0  0  0  0  0  0  0  0  0  0  0  0
   27.5501    9.4314   -5.0520 H   0  0  0  0  0  0  0  0  0  0  0  0
   26.1094   10.5042   -5.0520 H   0  0  0  0  0  0  0  0  0  0  0  0
   11.7831   16.0575  -19.8909 H   0  0  0  0  0  0  0  0  0  0  0  0
   11.5601   16.9307  -21.4448 H   0  0  0  0  0  0  0  0  0  0  0  0
   11.8603   15.1596  -21.4448 H   0  0  0  0  0  0  0  0  0  0  0  0
   14.5820   14.4797  -20.6232 H   0  0  0  0  0  0  0  0  0  0  0  0
   13.5612   14.4997  -22.1011 H   0  0  0  0  0  0  0  0  0  0  0  0
   15.1579   15.3227  -22.1011 H   0  0  0  0  0  0  0  0  0  0  0  0
   24.7354    7.7851   -6.7519 H   0  0  0  0  0  0  0  0  0  0  0  0
   13.4365   15.3712  -17.9637 H   0  0  0  0  0  0  0  0  0  0  0  0
   27.6233    4.3694   -4.8140 H   0  0  0  0  0  0  0  0  0  0  0  0
   26.6305    5.0775   -6.1329 H   0  0  0  0  0  0  0  0  0  0  0  0
   28.4131    5.2985   -6.1329 H   0  0  0  0  0  0  0  0  0  0  0  0
   13.9878   17.9790  -17.0330 H   0  0  0  0  0  0  0  0  0  0  0  0
   15.6423   18.3820  -17.6048 H   0  0  0  0  0  0  0  0  0  0  0  0
   14.3606   19.6405  -17.6048 H   0  0  0  0  0  0  0  0  0  0  0  0
   27.7442    7.4430   -7.2244 H   0  0  0  0  0  0  0  0  0  0  0  0
   16.3547   15.4214  -18.9389 H   0  0  0  0  0  0  0  0  0  0  0  0
   27.8996    8.7283   -9.4682 H   0  0  0  0  0  0  0  0  0  0  0  0
   27.4506    7.3781  -10.5646 H   0  0  0  0  0  0  0  0  0  0  0  0
   26.4863    8.8936  -10.5646 H   0  0  0  0  0  0  0  0  0  0  0  0
   14.4288   13.4424  -15.5649 H   0  0  0  0  0  0  0  0  0  0  0  0
   13.4888   13.9428  -17.0115 H   0  0  0  0  0  0  0  0  0  0  0  0
   14.3726   12.3790  -17.0115 H   0  0  0  0  0  0  0  0  0  0  0  0
   24.3388    6.7481   -8.2967 H   0  0  0  0  0  0  0  0  0  0  0  0
   17.6862   14.3981  -17.3454 H   0  0  0  0  0  0  0  0  0  0  0  0
   24.3008    6.5272  -11.2082 H   0  0  0  0  0  0  0  0  0  0  0  0
   17.0216   13.2023  -14.6472 H   0  0  0  0  0  0  0  0  0  0  0  0
   23.6409    9.2682   -9.9577 H   0  0  0  0  0  0  0  0  0  0  0  0
   17.9912   11.4746  -17.0364 H   0  0  0  0  0  0  0  0  0  0  0  0
   21.4749    9.7689  -11.0958 H   0  0  0  0  0  0  0  0  0  0  0  0
   20.0637   10.4063  -15.9509 H   0  0  0  0  0  0  0  0  0  0  0  0
   24.5126    7.7132  -13.1893 H   0  0  0  0  0  0  0  0  0  0  0  0
   22.9044    7.8199  -13.9823 H   0  0  0  0  0  0  0  0  0  0  0  0
   24.0019    9.2419  -13.9823 H   0  0  0  0  0  0  0  0  0  0  0  0
   18.1306   10.8127  -12.7193 H   0  0  0  0  0  0  0  0  0  0  0  0
   16.6941   11.4545  -13.5861 H   0  0  0  0  0  0  0  0  0  0  0  0
   17.0287    9.6896  -13.5861 H   0  0  0  0  0  0  0  0  0  0  0  0
   21.5573   11.0074  -13.7339 H   0  0  0  0  0  0  0  0  0  0  0  0
   19.7879    8.4553  -13.6093 H   0  0  0  0  0  0  0  0  0  0  0  0
  1 17  2  0
  2 18  2  0
  3  5  1  0
  3  7  1  0
  3 11  1  1
  3 12  1  0
  4  6  1  0
  4  8  1  0
  4 13  1  1
  4 14  1  0
  5  9  1  0
  6 10  1  0
  7 15  2  0
  7 19  1  0
  8 16  2  0
  8 20  1  0
  9 17  1  0
 10 18  1  0
 15 17  1  0
 15 21  1  0
 16 18  1  0
 16 22  1  0
 19 23  2  3
 20 24  2  3
 23 25  1  0
 24 26  1  0
 25 27  1  0
 25 29  2  3
 26 28  1  0
 26 30  2  3
 29 31  1  0
 30 32  1  0
 31 33  2  3
 32 34  2  3
 33 35  1  0
 34 36  1  0
 35 37  2  3
 35 39  1  0
 36 38  2  3
 36 40  1  0
 37 41  1  0
 38 42  1  0
 41 42  2  3
  5 43  1  0
  5 44  1  0
  6 45  1  0
  6 46  1  0
  9 47  1  0
  9 48  1  0
 10 49  1  0
 10 50  1  0
 11 51  1  0
 11 52  1  0
 11 53  1  0
 12 54  1  0
 12 55  1  0
 12 56  1  0
 13 57  1  0
 13 58  1  0
 13 59  1  0
 14 60  1  0
 14 61  1  0
 14 62  1  0
 19 63  1  0
 20 64  1  0
 21 65  1  0
 21 66  1  0
 21 67  1  0
 22 68  1  0
 22 69  1  0
 22 70  1  0
 23 71  1  0
 24 72  1  0
 27 73  1  0
 27 74  1  0
 27 75  1  0
 28 76  1  0
 28 77  1  0
 28 78  1  0
 29 79  1  0
 30 80  1  0
 31 81  1  0
 32 82  1  0
 33 83  1  0
 34 84  1  0
 37 85  1  0
 38 86  1  0
 39 87  1  0
 39 88  1  0
 39 89  1  0
 40 90  1  0
 40 91  1  0
 40 92  1  0
 41 93  1  0
 42 94  1  0
M  END
>  <filename_input>  (2) 
7ZXV_45D_docked.sdf

>  <pdb_id>  (2) 
7ZXV_45D

>  <pose_rank>  (2) 
1

>  <num_atoms_heavy>  (2) 
42

>  <num_torsions>  (2) 
10

>  <pose>  (2) 
[21.201064173761672, 10.06278147067835, -13.297023338964049, 0.27956219026637213, -2.5405225508017404, -1.5383334090185843, -1.1270438712059467, 6.030619653026422, 1.2513691437135377, -3.9319300933825114, -2.39896464473025, 0.7197600320656257, -5.7429598954030086, -0.9673561189669994, -0.11411163455739254, -0.31629595282766504]

>  <energy>  (2) 
-709.3660141058236

>  <inter_energy>  (2) 
-734.3625679878724

>  <intra_energy>  (2) 
22.506851943877162

>  <rmsd>  (2) 
2.44819

>  <sdf_rank>  (2) 
0

$$$$

     RDKit          3D

 94 95  0  0  0  0  0  0  0  0999 V2000
   13.1397   17.0715  -22.8197 O   0  0  0  0  0  0  0  0  0  0  0  0
   30.2210    5.2170   -3.7486 O   0  0  0  0  0  0  0  0  0  0  0  0
   15.0839   18.0999  -19.2545 C   0  0  1  0  0  0  0  0  0  0  0  0
   26.7845    7.5982   -3.2440 C   0  0  1  0  0  0  0  0  0  0  0  0
   15.1804   18.9871  -20.5029 C   0  0  0  0  0  0  0  0  0  0  0  0
   27.9040    7.4990   -2.2046 C   0  0  0  0  0  0  0  0  0  0  0  0
   14.8682   16.6447  -19.6081 C   0  0  0  0  0  0  0  0  0  0  0  0
   27.2865    7.2161   -4.6478 C   0  0  0  0  0  0  0  0  0  0  0  0
   13.9783   18.7958  -21.4413 C   0  0  0  0  0  0  0  0  0  0  0  0
   28.5987    6.1320   -2.2148 C   0  0  0  0  0  0  0  0  0  0  0  0
   16.3641   18.2849  -18.4265 C   0  0  0  0  0  0  0  0  0  0  0  0
   13.8571   18.5613  -18.4443 C   0  0  0  0  0  0  0  0  0  0  0  0
   25.5992    6.7131   -2.8273 C   0  0  0  0  0  0  0  0  0  0  0  0
   26.2907    9.0432   -3.2842 C   0  0  0  0  0  0  0  0  0  0  0  0
   14.0641   16.2564  -20.8290 C   0  0  0  0  0  0  0  0  0  0  0  0
   28.3378    6.1293   -4.7911 C   0  0  0  0  0  0  0  0  0  0  0  0
   13.6783   17.3431  -21.7874 C   0  0  0  0  0  0  0  0  0  0  0  0
   29.1711    5.7785   -3.5716 C   0  0  0  0  0  0  0  0  0  0  0  0
   15.0411   15.6989  -18.4452 C   0  0  0  0  0  0  0  0  0  0  0  0
   26.4899    7.5505   -5.8779 C   0  0  0  0  0  0  0  0  0  0  0  0
   14.1626   14.7894  -21.2838 C   0  0  0  0  0  0  0  0  0  0  0  0
   28.7614    5.5908   -6.1565 C   0  0  0  0  0  0  0  0  0  0  0  0
   16.0138   14.8509  -18.4374 C   0  0  0  0  0  0  0  0  0  0  0  0
   25.3041    7.0213   -6.0393 C   0  0  0  0  0  0  0  0  0  0  0  0
   16.1885   14.0109  -17.1905 C   0  0  0  0  0  0  0  0  0  0  0  0
   24.4957    7.3979   -7.2694 C   0  0  0  0  0  0  0  0  0  0  0  0
   15.2636   14.2264  -16.0230 C   0  0  0  0  0  0  0  0  0  0  0  0
   23.2661    8.2618   -7.1426 C   0  0  0  0  0  0  0  0  0  0  0  0
   17.1924   13.1229  -17.1724 C   0  0  0  0  0  0  0  0  0  0  0  0
   24.9830    6.9280   -8.4256 C   0  0  0  0  0  0  0  0  0  0  0  0
   17.5235   12.3157  -15.9377 C   0  0  0  0  0  0  0  0  0  0  0  0
   24.3159    7.1322   -9.7713 C   0  0  0  0  0  0  0  0  0  0  0  0
   18.7468   11.7902  -15.8637 C   0  0  0  0  0  0  0  0  0  0  0  0
   24.6030    8.2396  -10.4784 C   0  0  0  0  0  0  0  0  0  0  0  0
   19.2724   11.0098  -14.6661 C   0  0  0  0  0  0  0  0  0  0  0  0
   24.0159    8.4164  -11.8853 C   0  0  0  0  0  0  0  0  0  0  0  0
   20.5823   11.0151  -14.4625 C   0  0  0  0  0  0  0  0  0  0  0  0
   22.9681    9.2551  -12.0014 C   0  0  0  0  0  0  0  0  0  0  0  0
   18.3370   10.2267  -13.7576 C   0  0  0  0  0  0  0  0  0  0  0  0
   24.6631    7.7526  -13.0738 C   0  0  0  0  0  0  0  0  0  0  0  0
   21.2786   10.3899  -13.2818 C   0  0  0  0  0  0  0  0  0  0  0  0
   22.3873    9.6130  -13.3531 C   0  0  0  0  0  0  0  0  0  0  0  0
   15.2204   20.0402  -20.1877 H   0  0  0  0  0  0  0  0  0  0  0  0
   16.0889   18.7008  -21.0530 H   0  0  0  0  0  0  0  0  0  0  0  0
   28.6526    8.2763   -2.4178 H   0  0  0  0  0  0  0  0  0  0  0  0
   27.4499    7.6346   -1.2119 H   0  0  0  0  0  0  0  0  0  0  0  0
   13.0898   19.2246  -20.9548 H   0  0  0  0  0  0  0  0  0  0  0  0
   14.2329   19.2986  -22.3860 H   0  0  0  0  0  0  0  0  0  0  0  0
   29.4175    6.1476   -1.4805 H   0  0  0  0  0  0  0  0  0  0  0  0
   27.8429    5.3728   -1.9646 H   0  0  0  0  0  0  0  0  0  0  0  0
   16.1163   18.2491  -17.3553 H   0  0  0  0  0  0  0  0  0  0  0  0
   17.0749   17.4802  -18.6655 H   0  0  0  0  0  0  0  0  0  0  0  0
   16.8179   19.2580  -18.6655 H   0  0  0  0  0  0  0  0  0  0  0  0
   14.0756   18.4791  -17.3694 H   0  0  0  0  0  0  0  0  0  0  0  0
   13.6262   19.6077  -18.6926 H   0  0  0  0  0  0  0  0  0  0  0  0
   12.9938   17.9264  -18.6926 H   0  0  0  0  0  0  0  0  0  0  0  0
   25.5417    6.6702   -1.7297 H   0  0  0  0  0  0  0  0  0  0  0  0
   24.6664    7.1375   -3.2270 H   0  0  0  0  0  0  0  0  0  0  0  0
   25.7412    5.6982   -3.2270 H   0  0  0  0  0  0  0  0  0  0  0  0
   26.1633    9.4159   -2.2571 H   0  0  0  0  0  0  0  0  0  0  0  0
   27.0264    9.6676   -3.8122 H   0  0  0  0  0  0  0  0  0  0  0  0
   25.3267    9.0867   -3.8122 H   0  0  0  0  0  0  0  0  0  0  0  0
   14.3360   15.7323  -17.6016 H   0  0  0  0  0  0  0  0  0  0  0  0
   26.9003    8.2341   -6.6358 H   0  0  0  0  0  0  0  0  0  0  0  0
   14.2065   14.1341  -20.4014 H   0  0  0  0  0  0  0  0  0  0  0  0
   13.2796   14.5326  -21.8875 H   0  0  0  0  0  0  0  0  0  0  0  0
   15.0719   14.6529  -21.8875 H   0  0  0  0  0  0  0  0  0  0  0  0
   29.4362    4.7330   -6.0191 H   0  0  0  0  0  0  0  0  0  0  0  0
   27.8707    5.2705   -6.7168 H   0  0  0  0  0  0  0  0  0  0  0  0
   29.2825    6.3811   -6.7168 H   0  0  0  0  0  0  0  0  0  0  0  0
   16.6873   14.7431  -19.3004 H   0  0  0  0  0  0  0  0  0  0  0  0
   24.8998    6.3164   -5.2978 H   0  0  0  0  0  0  0  0  0  0  0  0
   15.8218   14.0964  -15.0842 H   0  0  0  0  0  0  0  0  0  0  0  0
   14.8502   15.2449  -16.0658 H   0  0  0  0  0  0  0  0  0  0  0  0
   14.4427   13.4954  -16.0658 H   0  0  0  0  0  0  0  0  0  0  0  0
   23.0385    8.4216   -6.0783 H   0  0  0  0  0  0  0  0  0  0  0  0
   23.4477    9.2318   -7.6284 H   0  0  0  0  0  0  0  0  0  0  0  0
   22.4151    7.7619   -7.6284 H   0  0  0  0  0  0  0  0  0  0  0  0
   17.7928   12.9773  -18.0825 H   0  0  0  0  0  0  0  0  0  0  0  0
   25.9243    6.3595   -8.3965 H   0  0  0  0  0  0  0  0  0  0  0  0
   16.7865   12.1682  -15.1346 H   0  0  0  0  0  0  0  0  0  0  0  0
   23.6084    6.3866  -10.1632 H   0  0  0  0  0  0  0  0  0  0  0  0
   19.4195   11.9294  -16.7228 H   0  0  0  0  0  0  0  0  0  0  0  0
   25.2555    9.0149  -10.0504 H   0  0  0  0  0  0  0  0  0  0  0  0
   21.2101   11.5153  -15.2146 H   0  0  0  0  0  0  0  0  0  0  0  0
   22.5243    9.6897  -11.0935 H   0  0  0  0  0  0  0  0  0  0  0  0
   18.5865   10.4356  -12.7068 H   0  0  0  0  0  0  0  0  0  0  0  0
   17.2975   10.5278  -13.9544 H   0  0  0  0  0  0  0  0  0  0  0  0
   18.4505    9.1504  -13.9544 H   0  0  0  0  0  0  0  0  0  0  0  0
   25.3914    7.0056  -12.7251 H   0  0  0  0  0  0  0  0  0  0  0  0
   23.8921    7.2568  -13.6819 H   0  0  0  0  0  0  0  0  0  0  0  0
   25.1782    8.5109  -13.6819 H   0  0  0  0  0  0  0  0  0  0  0  0
   20.8545   10.5784  -12.2845 H   0  0  0  0  0  0  0  0  0  0  0  0
   22.8242    9.2744  -14.3042 H   0  0  0  0  0  0  0  0  0  0  0  0
  1 17  2  0
  2 18  2  0
  3  5  1  0
  3  7  1  0
  3 11  1  1
  3 12  1  0
  4  6  1  0
  4  8  1  0
  4 13  1  1
  4 14  1  0
  5  9  1  0
  6 10  1  0
  7 15  2  0
  7 19  1  0
  8 16  2  0
  8 20  1  0
  9 17  1  0
 10 18  1  0
 15 17  1  0
 15 21  1  0
 16 18  1  0
 16 22  1  0
 19 23  2  3
 20 24  2  3
 23 25  1  0
 24 26  1  0
 25 27  1  0
 25 29  2  3
 26 28  1  0
 26 30  2  3
 29 31  1  0
 30 32  1  0
 31 33  2  3
 32 34  2  3
 33 35  1  0
 34 36  1  0
 35 37  2  3
 35 39  1  0
 36 38  2  3
 36 40  1  0
 37 41  1  0
 38 42  1  0
 41 42  2  3
  5 43  1  0
  5 44  1  0
  6 45  1  0
  6 46  1  0
  9 47  1  0
  9 48  1  0
 10 49  1  0
 10 50  1  0
 11 51  1  0
 11 52  1  0
 11 53  1  0
 12 54  1  0
 12 55  1  0
 12 56  1  0
 13 57  1  0
 13 58  1  0
 13 59  1  0
 14 60  1  0
 14 61  1  0
 14 62  1  0
 19 63  1  0
 20 64  1  0
 21 65  1  0
 21 66  1  0
 21 67  1  0
 22 68  1  0
 22 69  1  0
 22 70  1  0
 23 71  1  0
 24 72  1  0
 27 73  1  0
 27 74  1  0
 27 75  1  0
 28 76  1  0
 28 77  1  0
 28 78  1  0
 29 79  1  0
 30 80  1  0
 31 81  1  0
 32 82  1  0
 33 83  1  0
 34 84  1  0
 37 85  1  0
 38 86  1  0
 39 87  1  0
 39 88  1  0
 39 89  1  0
 40 90  1  0
 40 91  1  0
 40 92  1  0
 41 93  1  0
 42 94  1  0
M  END
>  <filename_input>  (3) 
7ZXV_45D_docked.sdf

>  <pdb_id>  (3) 
7ZXV_45D

>  <pose_rank>  (3) 
2

>  <num_atoms_heavy>  (3) 
42

>  <num_torsions>  (3) 
10

>  <pose>  (3) 
[21.278609955747168, 10.389934306375817, -13.281774876539876, 4.156175695808396, -4.290345263714072, 0.9490738148249618, -0.48121591281470977, 0.8800710459099038, -0.03909905577305579, 5.956896581277887, 5.98483437449786, -0.6097652577740165, -7.8370337733331965, -1.335506886342035, 3.94029017940891, 3.116766975929218]

>  <energy>  (3) 
-737.4767335763205

>  <inter_energy>  (3) 
-758.3262199705814

>  <intra_energy>  (3) 
21.078011835030004

>  <rmsd>  (3) 
2.08873

>  <sdf_rank>  (3) 
0

$$$$

     RDKit          3D

 94 95  0  0  0  0  0  0  0  0999 V2000
   26.9640    7.5703   -0.9492 O   0  0  0  0  0  0  0  0  0  0  0  0
   12.7456   15.5343  -21.9302 O   0  0  0  0  0  0  0  0  0  0  0  0
   27.9134    5.5619   -4.5008 C   0  0  1  0  0  0  0  0  0  0  0  0
   15.0410   17.5545  -19.0346 C   0  0  1  0  0  0  0  0  0  0  0  0
   28.8035    5.4494   -3.2557 C   0  0  0  0  0  0  0  0  0  0  0  0
   14.1518   18.2678  -20.0563 C   0  0  0  0  0  0  0  0  0  0  0  0
   27.1705    6.8790   -4.5498 C   0  0  0  0  0  0  0  0  0  0  0  0
   14.5892   16.0996  -18.8160 C   0  0  0  0  0  0  0  0  0  0  0  0
   28.0204    5.7161   -1.9603 C   0  0  0  0  0  0  0  0  0  0  0  0
   14.0356   17.4968  -21.3768 C   0  0  0  0  0  0  0  0  0  0  0  0
   28.7932    5.3754   -5.7457 C   0  0  0  0  0  0  0  0  0  0  0  0
   26.8572    4.4425   -4.4254 C   0  0  0  0  0  0  0  0  0  0  0  0
   16.5093   17.6093  -19.4852 C   0  0  0  0  0  0  0  0  0  0  0  0
   14.9379   18.2975  -17.7038 C   0  0  0  0  0  0  0  0  0  0  0  0
   26.7143    7.5575   -3.2772 C   0  0  0  0  0  0  0  0  0  0  0  0
   14.0252   15.3125  -19.9861 C   0  0  0  0  0  0  0  0  0  0  0  0
   27.2066    7.0036   -1.9736 C   0  0  0  0  0  0  0  0  0  0  0  0
   13.5127   16.0884  -21.1861 C   0  0  0  0  0  0  0  0  0  0  0  0
   26.5028    7.1576   -5.8739 C   0  0  0  0  0  0  0  0  0  0  0  0
   15.0731   15.3021  -17.6373 C   0  0  0  0  0  0  0  0  0  0  0  0
   26.2575    9.0220   -3.4001 C   0  0  0  0  0  0  0  0  0  0  0  0
   13.7089   13.8218  -19.8790 C   0  0  0  0  0  0  0  0  0  0  0  0
   27.0313    7.9920   -6.7044 C   0  0  0  0  0  0  0  0  0  0  0  0
   16.2854   14.8094  -17.6487 C   0  0  0  0  0  0  0  0  0  0  0  0
   26.3651    8.1382   -8.0555 C   0  0  0  0  0  0  0  0  0  0  0  0
   16.7732   14.0373  -16.4344 C   0  0  0  0  0  0  0  0  0  0  0  0
   26.7863    9.2603   -8.9656 C   0  0  0  0  0  0  0  0  0  0  0  0
   16.0939   14.2028  -15.0982 C   0  0  0  0  0  0  0  0  0  0  0  0
   25.3959    7.2675   -8.3705 C   0  0  0  0  0  0  0  0  0  0  0  0
   17.8023   13.2127  -16.6711 C   0  0  0  0  0  0  0  0  0  0  0  0
   24.5910    7.3934   -9.6440 C   0  0  0  0  0  0  0  0  0  0  0  0
   18.4868   12.3841  -15.6023 C   0  0  0  0  0  0  0  0  0  0  0  0
   23.5634    8.2431   -9.6335 C   0  0  0  0  0  0  0  0  0  0  0  0
   18.7591   11.0917  -15.8560 C   0  0  0  0  0  0  0  0  0  0  0  0
   22.6903    8.5459  -10.8441 C   0  0  0  0  0  0  0  0  0  0  0  0
   19.5402   10.2634  -14.8268 C   0  0  0  0  0  0  0  0  0  0  0  0
   22.1900    9.7694  -10.9440 C   0  0  0  0  0  0  0  0  0  0  0  0
   19.5116   10.7005  -13.5529 C   0  0  0  0  0  0  0  0  0  0  0  0
   22.3757    7.4790  -11.8815 C   0  0  0  0  0  0  0  0  0  0  0  0
   20.2107    8.9752  -15.2309 C   0  0  0  0  0  0  0  0  0  0  0  0
   21.3919   10.2870  -12.1123 C   0  0  0  0  0  0  0  0  0  0  0  0
   20.1317    9.8992  -12.4276 C   0  0  0  0  0  0  0  0  0  0  0  0
   29.2263    4.4349   -3.2122 H   0  0  0  0  0  0  0  0  0  0  0  0
   29.5956    6.2085   -3.3354 H   0  0  0  0  0  0  0  0  0  0  0  0
   13.1458   18.3847  -19.6269 H   0  0  0  0  0  0  0  0  0  0  0  0
   14.6138   19.2410  -20.2782 H   0  0  0  0  0  0  0  0  0  0  0  0
   27.3314    4.8747   -1.7949 H   0  0  0  0  0  0  0  0  0  0  0  0
   28.7654    5.8226   -1.1581 H   0  0  0  0  0  0  0  0  0  0  0  0
   13.3489   18.0403  -22.0425 H   0  0  0  0  0  0  0  0  0  0  0  0
   15.0448   17.4215  -21.8079 H   0  0  0  0  0  0  0  0  0  0  0  0
   29.8256    5.1566   -5.4356 H   0  0  0  0  0  0  0  0  0  0  0  0
   28.4058    4.5394   -6.3466 H   0  0  0  0  0  0  0  0  0  0  0  0
   28.7782    6.2967   -6.3466 H   0  0  0  0  0  0  0  0  0  0  0  0
   26.6407    4.2131   -3.3716 H   0  0  0  0  0  0  0  0  0  0  0  0
   25.9352    4.7741   -4.9254 H   0  0  0  0  0  0  0  0  0  0  0  0
   27.2417    3.5413   -4.9254 H   0  0  0  0  0  0  0  0  0  0  0  0
   17.1635   17.6338  -18.6012 H   0  0  0  0  0  0  0  0  0  0  0  0
   16.7411   16.7192  -20.0885 H   0  0  0  0  0  0  0  0  0  0  0  0
   16.6741   18.5142  -20.0885 H   0  0  0  0  0  0  0  0  0  0  0  0
   15.0373   17.5810  -16.8752 H   0  0  0  0  0  0  0  0  0  0  0  0
   15.7407   19.0467  -17.6390 H   0  0  0  0  0  0  0  0  0  0  0  0
   13.9614   18.7998  -17.6390 H   0  0  0  0  0  0  0  0  0  0  0  0
   25.5629    6.6479   -6.1321 H   0  0  0  0  0  0  0  0  0  0  0  0
   14.4141   15.1341  -16.7728 H   0  0  0  0  0  0  0  0  0  0  0  0
   26.1240    9.4500   -2.3955 H   0  0  0  0  0  0  0  0  0  0  0  0
   27.0184    9.5989   -3.9462 H   0  0  0  0  0  0  0  0  0  0  0  0
   25.3036    9.0640   -3.9462 H   0  0  0  0  0  0  0  0  0  0  0  0
   13.6481   13.5351  -18.8188 H   0  0  0  0  0  0  0  0  0  0  0  0
   12.7469   13.6148  -20.3706 H   0  0  0  0  0  0  0  0  0  0  0  0
   14.5040   13.2420  -20.3706 H   0  0  0  0  0  0  0  0  0  0  0  0
   27.9279    8.5725   -6.4414 H   0  0  0  0  0  0  0  0  0  0  0  0
   16.9395   14.9517  -18.5216 H   0  0  0  0  0  0  0  0  0  0  0  0
   27.1094   10.1209   -8.3614 H   0  0  0  0  0  0  0  0  0  0  0  0
   27.6196    8.9245   -9.6003 H   0  0  0  0  0  0  0  0  0  0  0  0
   25.9379    9.5558   -9.6003 H   0  0  0  0  0  0  0  0  0  0  0  0
   16.8215   14.0255  -14.2925 H   0  0  0  0  0  0  0  0  0  0  0  0
   15.6950   15.2245  -15.0137 H   0  0  0  0  0  0  0  0  0  0  0  0
   15.2697   13.4793  -15.0137 H   0  0  0  0  0  0  0  0  0  0  0  0
   25.1799    6.4371   -7.6822 H   0  0  0  0  0  0  0  0  0  0  0  0
   18.1730   13.1322  -17.7037 H   0  0  0  0  0  0  0  0  0  0  0  0
   24.8425    6.8088  -10.5413 H   0  0  0  0  0  0  0  0  0  0  0  0
   18.7566   12.8325  -14.6347 H   0  0  0  0  0  0  0  0  0  0  0  0
   23.3315    8.7585   -8.6898 H   0  0  0  0  0  0  0  0  0  0  0  0
   18.4236   10.6305  -16.7966 H   0  0  0  0  0  0  0  0  0  0  0  0
   22.3719   10.4612  -10.1083 H   0  0  0  0  0  0  0  0  0  0  0  0
   19.0269   11.6612  -13.3250 H   0  0  0  0  0  0  0  0  0  0  0  0
   22.0998    6.5433  -11.3732 H   0  0  0  0  0  0  0  0  0  0  0  0
   21.5384    7.8150  -12.5108 H   0  0  0  0  0  0  0  0  0  0  0  0
   23.2613    7.3070  -12.5108 H   0  0  0  0  0  0  0  0  0  0  0  0
   20.5021    8.4153  -14.3300 H   0  0  0  0  0  0  0  0  0  0  0  0
   19.5129    8.3705  -15.8287 H   0  0  0  0  0  0  0  0  0  0  0  0
   21.1063    9.1998  -15.8287 H   0  0  0  0  0  0  0  0  0  0  0  0
   21.8687   11.0377  -12.7597 H   0  0  0  0  0  0  0  0  0  0  0  0
   19.6085    9.0792  -11.9139 H   0  0  0  0  0  0  0  0  0  0  0  0
  1 17  2  0
  2 18  2  0
  3  5  1  0
  3  7  1  0
  3 11  1  6
  3 12  1  0
  4  6  1  0
  4  8  1  0
  4 13  1  6
  4 14  1  0
  5  9  1  0
  6 10  1  0
  7 15  2  0
  7 19  1  0
  8 16  2  0
  8 20  1  0
  9 17  1  0
 10 18  1  0
 15 17  1  0
 15 21  1  0
 16 18  1  0
 16 22  1  0
 19 23  2  3
 20 24  2  3
 23 25  1  0
 24 26  1  0
 25 27  1  0
 25 29  2  3
 26 28  1  0
 26 30  2  3
 29 31  1  0
 30 32  1  0
 31 33  2  3
 32 34  2  3
 33 35  1  0
 34 36  1  0
 35 37  2  3
 35 39  1  0
 36 38  2  3
 36 40  1  0
 37 41  1  0
 38 42  1  0
 41 42  2  3
  5 43  1  0
  5 44  1  0
  6 45  1  0
  6 46  1  0
  9 47  1  0
  9 48  1  0
 10 49  1  0
 10 50  1  0
 11 51  1  0
 11 52  1  0
 11 53  1  0
 12 54  1  0
 12 55  1  0
 12 56  1  0
 13 57  1  0
 13 58  1  0
 13 59  1  0
 14 60  1  0
 14 61  1  0
 14 62  1  0
 19 63  1  0
 20 64  1  0
 21 65  1  0
 21 66  1  0
 21 67  1  0
 22 68  1  0
 22 69  1  0
 22 70  1  0
 23 71  1  0
 24 72  1  0
 27 73  1  0
 27 74  1  0
 27 75  1  0
 28 76  1  0
 28 77  1  0
 28 78  1  0
 29 79  1  0
 30 80  1  0
 31 81  1  0
 32 82  1  0
 33 83  1  0
 34 84  1  0
 37 85  1  0
 38 86  1  0
 39 87  1  0
 39 88  1  0
 39 89  1  0
 40 90  1  0
 40 91  1  0
 40 92  1  0
 41 93  1  0
 42 94  1  0
M  END
>  <filename_input>  (4) 
7ZXV_45D_docked.sdf

>  <pdb_id>  (4) 
7ZXV_45D

>  <pose_rank>  (4) 
3

>  <num_atoms_heavy>  (4) 
42

>  <num_torsions>  (4) 
10

>  <pose>  (4) 
[21.391907573793734, 10.286980621554282, -12.112291685036244, -0.1962789090397082, -2.614529194198327, -1.3553827729637435, 4.684875565340086, 0.9765399434661367, 1.3074343945215732, 2.6599089387614927, -0.11058141782206912, -1.9949121526875333, -2.948883632014145, -0.5182751968206625, -0.7746695917030472, 2.879786032464039]

>  <energy>  (4) 
-706.9729782193407

>  <inter_energy>  (4) 
-728.2403006603712

>  <intra_energy>  (4) 
28.83770596633727

>  <rmsd>  (4) 
1.75418

>  <sdf_rank>  (4) 
0

$$$$

     RDKit          3D

 94 95  0  0  0  0  0  0  0  0999 V2000
   26.8211    8.7144   -1.1093 O   0  0  0  0  0  0  0  0  0  0  0  0
   13.8458   -0.2200  -21.8115 O   0  0  0  0  0  0  0  0  0  0  0  0
   27.8406    6.1416   -4.2541 C   0  0  1  0  0  0  0  0  0  0  0  0
   13.4866    3.7569  -20.4741 C   0  0  1  0  0  0  0  0  0  0  0  0
   28.8318    6.4582   -3.1261 C   0  0  0  0  0  0  0  0  0  0  0  0
   12.5644    3.1319  -21.5240 C   0  0  0  0  0  0  0  0  0  0  0  0
   26.8658    7.2750   -4.4873 C   0  0  0  0  0  0  0  0  0  0  0  0
   14.1470    2.6803  -19.5949 C   0  0  0  0  0  0  0  0  0  0  0  0
   28.1180    6.8779   -1.8313 C   0  0  0  0  0  0  0  0  0  0  0  0
   13.2677    2.0570  -22.3616 C   0  0  0  0  0  0  0  0  0  0  0  0
   28.6383    5.8261   -5.5280 C   0  0  0  0  0  0  0  0  0  0  0  0
   27.0184    4.9112   -3.8249 C   0  0  0  0  0  0  0  0  0  0  0  0
   14.5490    4.6306  -21.1596 C   0  0  0  0  0  0  0  0  0  0  0  0
   12.6489    4.6664  -19.5770 C   0  0  0  0  0  0  0  0  0  0  0  0
   26.3945    8.1386   -3.3383 C   0  0  0  0  0  0  0  0  0  0  0  0
   14.5235    1.3445  -20.2120 C   0  0  0  0  0  0  0  0  0  0  0  0
   27.0822    7.9794   -2.0154 C   0  0  0  0  0  0  0  0  0  0  0  0
   13.8518    0.9463  -21.5139 C   0  0  0  0  0  0  0  0  0  0  0  0
   26.0556    7.1365   -5.7526 C   0  0  0  0  0  0  0  0  0  0  0  0
   14.8180    3.0371  -18.2979 C   0  0  0  0  0  0  0  0  0  0  0  0
   25.6670    9.4436   -3.7074 C   0  0  0  0  0  0  0  0  0  0  0  0
   15.3237    0.2958  -19.4414 C   0  0  0  0  0  0  0  0  0  0  0  0
   26.0339    8.0939   -6.6175 C   0  0  0  0  0  0  0  0  0  0  0  0
   14.2798    2.6528  -17.1688 C   0  0  0  0  0  0  0  0  0  0  0  0
   25.2893    7.8406   -7.9106 C   0  0  0  0  0  0  0  0  0  0  0  0
   14.9893    2.9889  -15.8679 C   0  0  0  0  0  0  0  0  0  0  0  0
   25.7207    8.5592   -9.1606 C   0  0  0  0  0  0  0  0  0  0  0  0
   14.5242    4.1451  -15.0187 C   0  0  0  0  0  0  0  0  0  0  0  0
   24.2464    6.9994   -7.8752 C   0  0  0  0  0  0  0  0  0  0  0  0
   16.0045    2.1719  -15.5561 C   0  0  0  0  0  0  0  0  0  0  0  0
   23.3676    6.7642   -9.0827 C   0  0  0  0  0  0  0  0  0  0  0  0
   16.8874    2.3456  -14.3364 C   0  0  0  0  0  0  0  0  0  0  0  0
   23.0686    5.4995   -9.3813 C   0  0  0  0  0  0  0  0  0  0  0  0
   17.0815    1.2955  -13.5189 C   0  0  0  0  0  0  0  0  0  0  0  0
   22.1435    5.0836  -10.5174 C   0  0  0  0  0  0  0  0  0  0  0  0
   18.0506    1.4225  -12.3355 C   0  0  0  0  0  0  0  0  0  0  0  0
   21.9509    3.7851  -10.7022 C   0  0  0  0  0  0  0  0  0  0  0  0
   19.3298    1.7231  -12.6322 C   0  0  0  0  0  0  0  0  0  0  0  0
   21.4914    6.1140  -11.4265 C   0  0  0  0  0  0  0  0  0  0  0  0
   17.5474    1.3126  -10.9189 C   0  0  0  0  0  0  0  0  0  0  0  0
   20.9983    3.1837  -11.7026 C   0  0  0  0  0  0  0  0  0  0  0  0
   20.3483    2.0042  -11.5476 C   0  0  0  0  0  0  0  0  0  0  0  0
   29.4367    5.5621   -2.9234 H   0  0  0  0  0  0  0  0  0  0  0  0
   29.4615    7.2985   -3.4539 H   0  0  0  0  0  0  0  0  0  0  0  0
   11.7063    2.6733  -21.0110 H   0  0  0  0  0  0  0  0  0  0  0  0
   12.2473    3.9328  -22.2082 H   0  0  0  0  0  0  0  0  0  0  0  0
   27.6114    5.9946   -1.4153 H   0  0  0  0  0  0  0  0  0  0  0  0
   28.8918    7.2818   -1.1618 H   0  0  0  0  0  0  0  0  0  0  0  0
   12.5378    1.6207  -23.0593 H   0  0  0  0  0  0  0  0  0  0  0  0
   14.0994    2.5415  -22.8941 H   0  0  0  0  0  0  0  0  0  0  0  0
   29.6286    5.4343   -5.2528 H   0  0  0  0  0  0  0  0  0  0  0  0
   28.0983    5.0738   -6.1217 H   0  0  0  0  0  0  0  0  0  0  0  0
   28.7592    6.7441   -6.1217 H   0  0  0  0  0  0  0  0  0  0  0  0
   26.9833    4.8586   -2.7267 H   0  0  0  0  0  0  0  0  0  0  0  0
   25.9957    4.9973   -4.2208 H   0  0  0  0  0  0  0  0  0  0  0  0
   27.4893    3.9993   -4.2208 H   0  0  0  0  0  0  0  0  0  0  0  0
   15.1597    5.1328  -20.3950 H   0  0  0  0  0  0  0  0  0  0  0  0
   15.1942    3.9984  -21.7873 H   0  0  0  0  0  0  0  0  0  0  0  0
   14.0533    5.3858  -21.7873 H   0  0  0  0  0  0  0  0  0  0  0  0
   12.8605    4.4367  -18.5223 H   0  0  0  0  0  0  0  0  0  0  0  0
   12.9022    5.7171  -19.7813 H   0  0  0  0  0  0  0  0  0  0  0  0
   11.5809    4.5002  -19.7813 H   0  0  0  0  0  0  0  0  0  0  0  0
   25.4816    6.2167   -5.9383 H   0  0  0  0  0  0  0  0  0  0  0  0
   15.7532    3.6163  -18.2981 H   0  0  0  0  0  0  0  0  0  0  0  0
   25.3726    9.9718   -2.7885 H   0  0  0  0  0  0  0  0  0  0  0  0
   26.3388   10.0832   -4.2987 H   0  0  0  0  0  0  0  0  0  0  0  0
   24.7698    9.2086   -4.2987 H   0  0  0  0  0  0  0  0  0  0  0  0
   15.1983    0.4600  -18.3609 H   0  0  0  0  0  0  0  0  0  0  0  0
   14.9603   -0.7086  -19.7041 H   0  0  0  0  0  0  0  0  0  0  0  0
   16.3884    0.3810  -19.7041 H   0  0  0  0  0  0  0  0  0  0  0  0
   26.5353    9.0535   -6.4232 H   0  0  0  0  0  0  0  0  0  0  0  0
   13.3309    2.0964  -17.1615 H   0  0  0  0  0  0  0  0  0  0  0  0
   26.2691    9.4728   -8.8875 H   0  0  0  0  0  0  0  0  0  0  0  0
   26.3741    7.9027   -9.7539 H   0  0  0  0  0  0  0  0  0  0  0  0
   24.8340    8.8273   -9.7539 H   0  0  0  0  0  0  0  0  0  0  0  0
   14.6291    3.8843  -13.9552 H   0  0  0  0  0  0  0  0  0  0  0  0
   15.1355    5.0323  -15.2407 H   0  0  0  0  0  0  0  0  0  0  0  0
   13.4689    4.3619  -15.2407 H   0  0  0  0  0  0  0  0  0  0  0  0
   24.0234    6.4644   -6.9403 H   0  0  0  0  0  0  0  0  0  0  0  0
   16.2095    1.3238  -16.2259 H   0  0  0  0  0  0  0  0  0  0  0  0
   22.9907    7.6010   -9.6892 H   0  0  0  0  0  0  0  0  0  0  0  0
   17.3618    3.3149  -14.1233 H   0  0  0  0  0  0  0  0  0  0  0  0
   23.5192    4.7055   -8.7677 H   0  0  0  0  0  0  0  0  0  0  0  0
   16.5483    0.3501  -13.6975 H   0  0  0  0  0  0  0  0  0  0  0  0
   22.5322    3.0923  -10.0760 H   0  0  0  0  0  0  0  0  0  0  0  0
   19.6415    1.7653  -13.6863 H   0  0  0  0  0  0  0  0  0  0  0  0
   21.0027    6.8863  -10.8142 H   0  0  0  0  0  0  0  0  0  0  0  0
   22.2589    6.5808  -12.0614 H   0  0  0  0  0  0  0  0  0  0  0  0
   20.7410    5.6203  -12.0614 H   0  0  0  0  0  0  0  0  0  0  0  0
   18.3772    1.4939  -10.2200 H   0  0  0  0  0  0  0  0  0  0  0  0
   16.7572    2.0592  -10.7515 H   0  0  0  0  0  0  0  0  0  0  0  0
   17.1407    0.3043  -10.7515 H   0  0  0  0  0  0  0  0  0  0  0  0
   20.8162    3.7453  -12.6308 H   0  0  0  0  0  0  0  0  0  0  0  0
   20.5426    1.3156  -10.7121 H   0  0  0  0  0  0  0  0  0  0  0  0
  1 17  2  0
  2 18  2  0
  3  5  1  0
  3  7  1  0
  3 11  1  6
  3 12  1  0
  4  6  1  0
  4  8  1  0
  4 13  1  6
  4 14  1  0
  5  9  1  0
  6 10  1  0
  7 15  2  0
  7 19  1  0
  8 16  2  0
  8 20  1  0
  9 17  1  0
 10 18  1  0
 15 17  1  0
 15 21  1  0
 16 18  1  0
 16 22  1  0
 19 23  2  3
 20 24  2  3
 23 25  1  0
 24 26  1  0
 25 27  1  0
 25 29  2  3
 26 28  1  0
 26 30  2  3
 29 31  1  0
 30 32  1  0
 31 33  2  3
 32 34  2  3
 33 35  1  0
 34 36  1  0
 35 37  2  3
 35 39  1  0
 36 38  2  3
 36 40  1  0
 37 41  1  0
 38 42  1  0
 41 42  2  3
  5 43  1  0
  5 44  1  0
  6 45  1  0
  6 46  1  0
  9 47  1  0
  9 48  1  0
 10 49  1  0
 10 50  1  0
 11 51  1  0
 11 52  1  0
 11 53  1  0
 12 54  1  0
 12 55  1  0
 12 56  1  0
 13 57  1  0
 13 58  1  0
 13 59  1  0
 14 60  1  0
 14 61  1  0
 14 62  1  0
 19 63  1  0
 20 64  1  0
 21 65  1  0
 21 66  1  0
 21 67  1  0
 22 68  1  0
 22 69  1  0
 22 70  1  0
 23 71  1  0
 24 72  1  0
 27 73  1  0
 27 74  1  0
 27 75  1  0
 28 76  1  0
 28 77  1  0
 28 78  1  0
 29 79  1  0
 30 80  1  0
 31 81  1  0
 32 82  1  0
 33 83  1  0
 34 84  1  0
 37 85  1  0
 38 86  1  0
 39 87  1  0
 39 88  1  0
 39 89  1  0
 40 90  1  0
 40 91  1  0
 40 92  1  0
 41 93  1  0
 42 94  1  0
M  END
>  <filename_input>  (5) 
7ZXV_45D_docked.sdf

>  <pdb_id>  (5) 
7ZXV_45D

>  <pose_rank>  (5) 
4

>  <num_atoms_heavy>  (5) 
42

>  <num_torsions>  (5) 
10

>  <pose>  (5) 
[20.99834301175444, 3.183736981414193, -11.702618089028748, 0.5461330280448882, -2.380266069170094, -0.5827372313911056, 0.8537201044477452, 0.3990942596512568, -1.2032366260797072, -2.942148103042141, -0.5132863582678728, 0.4029942145996903, 1.897737259482764, -0.6169036800470188, -4.953280636062503, -0.12760585764149918]

>  <energy>  (5) 
-396.2462007891636

>  <inter_energy>  (5) 
-413.86608296141395

>  <intra_energy>  (5) 
16.780813269752

>  <rmsd>  (5) 
9.59362

>  <sdf_rank>  (5) 
0

$$$$

     RDKit          3D

 94 95  0  0  0  0  0  0  0  0999 V2000
   13.7105   19.4678  -21.4663 O   0  0  0  0  0  0  0  0  0  0  0  0
   34.2615   16.4611   -4.2563 O   0  0  0  0  0  0  0  0  0  0  0  0
   14.0452   15.4080  -20.4892 C   0  0  1  0  0  0  0  0  0  0  0  0
   30.2280   17.5136   -4.8544 C   0  0  1  0  0  0  0  0  0  0  0  0
   12.8277   15.9499  -21.2501 C   0  0  0  0  0  0  0  0  0  0  0  0
   31.0523   17.9756   -3.6500 C   0  0  0  0  0  0  0  0  0  0  0  0
   14.6678   16.4572  -19.5944 C   0  0  0  0  0  0  0  0  0  0  0  0
   31.1321   17.1286   -6.0389 C   0  0  0  0  0  0  0  0  0  0  0  0
   13.1547   17.2402  -22.0186 C   0  0  0  0  0  0  0  0  0  0  0  0
   32.1275   16.9594   -3.2466 C   0  0  0  0  0  0  0  0  0  0  0  0
   13.6052   14.1796  -19.6794 C   0  0  0  0  0  0  0  0  0  0  0  0
   15.1076   15.0044  -21.5298 C   0  0  0  0  0  0  0  0  0  0  0  0
   29.3224   16.3386   -4.4531 C   0  0  0  0  0  0  0  0  0  0  0  0
   29.3245   18.6655   -5.2906 C   0  0  0  0  0  0  0  0  0  0  0  0
   14.6610   17.9164  -19.9926 C   0  0  0  0  0  0  0  0  0  0  0  0
   32.4771   16.4776   -5.7667 C   0  0  0  0  0  0  0  0  0  0  0  0
   13.8358   18.3138  -21.1799 C   0  0  0  0  0  0  0  0  0  0  0  0
   33.0766   16.6329   -4.3807 C   0  0  0  0  0  0  0  0  0  0  0  0
   15.6862   15.9101  -18.6246 C   0  0  0  0  0  0  0  0  0  0  0  0
   30.5741   16.9697   -7.4256 C   0  0  0  0  0  0  0  0  0  0  0  0
   15.0237   18.9339  -18.8965 C   0  0  0  0  0  0  0  0  0  0  0  0
   33.3499   15.9262   -6.8928 C   0  0  0  0  0  0  0  0  0  0  0  0
   16.9460   16.0973  -18.8320 C   0  0  0  0  0  0  0  0  0  0  0  0
   30.8315   17.8795   -8.3302 C   0  0  0  0  0  0  0  0  0  0  0  0
   17.9018   15.6157  -17.7617 C   0  0  0  0  0  0  0  0  0  0  0  0
   30.2916   17.6862   -9.7372 C   0  0  0  0  0  0  0  0  0  0  0  0
   17.4017   14.6757  -16.6982 C   0  0  0  0  0  0  0  0  0  0  0  0
   31.2336   17.5571  -10.9078 C   0  0  0  0  0  0  0  0  0  0  0  0
   19.1589   16.0794  -17.7938 C   0  0  0  0  0  0  0  0  0  0  0  0
   28.9561   17.6174   -9.8203 C   0  0  0  0  0  0  0  0  0  0  0  0
   20.1602   15.7508  -16.7098 C   0  0  0  0  0  0  0  0  0  0  0  0
   28.1946   17.4806  -11.1237 C   0  0  0  0  0  0  0  0  0  0  0  0
   21.4245   16.1211  -16.9160 C   0  0  0  0  0  0  0  0  0  0  0  0
   27.5743   18.5606  -11.6313 C   0  0  0  0  0  0  0  0  0  0  0  0
   22.5476   15.9332  -15.9047 C   0  0  0  0  0  0  0  0  0  0  0  0
   26.8830   18.4675  -12.9983 C   0  0  0  0  0  0  0  0  0  0  0  0
   23.1369   17.0252  -15.4383 C   0  0  0  0  0  0  0  0  0  0  0  0
   26.3491   17.2745  -13.3250 C   0  0  0  0  0  0  0  0  0  0  0  0
   22.9998   14.5473  -15.4703 C   0  0  0  0  0  0  0  0  0  0  0  0
   26.7345   19.6911  -13.8659 C   0  0  0  0  0  0  0  0  0  0  0  0
   24.1921   17.0491  -14.3633 C   0  0  0  0  0  0  0  0  0  0  0  0
   25.5288   17.0933  -14.5848 C   0  0  0  0  0  0  0  0  0  0  0  0
   12.4882   15.1869  -21.9660 H   0  0  0  0  0  0  0  0  0  0  0  0
   12.0441   16.1829  -20.5142 H   0  0  0  0  0  0  0  0  0  0  0  0
   31.5437   18.9266   -3.9034 H   0  0  0  0  0  0  0  0  0  0  0  0
   30.3645   18.0885   -2.7991 H   0  0  0  0  0  0  0  0  0  0  0  0
   13.8203   16.9832  -22.8558 H   0  0  0  0  0  0  0  0  0  0  0  0
   12.1941   17.6615  -22.3500 H   0  0  0  0  0  0  0  0  0  0  0  0
   32.7084   17.3748   -2.4099 H   0  0  0  0  0  0  0  0  0  0  0  0
   31.6154   16.0281   -2.9629 H   0  0  0  0  0  0  0  0  0  0  0  0
   13.6845   14.4011  -18.6049 H   0  0  0  0  0  0  0  0  0  0  0  0
   12.5623   13.9318  -19.9267 H   0  0  0  0  0  0  0  0  0  0  0  0
   14.2534   13.3259  -19.9267 H   0  0  0  0  0  0  0  0  0  0  0  0
   16.0151   14.6595  -21.0125 H   0  0  0  0  0  0  0  0  0  0  0  0
   14.7140   14.1931  -22.1598 H   0  0  0  0  0  0  0  0  0  0  0  0
   15.3520   15.8723  -22.1598 H   0  0  0  0  0  0  0  0  0  0  0  0
   29.2717   16.2727   -3.3562 H   0  0  0  0  0  0  0  0  0  0  0  0
   28.3123   16.4992   -4.8579 H   0  0  0  0  0  0  0  0  0  0  0  0
   29.7351   15.4027   -4.8579 H   0  0  0  0  0  0  0  0  0  0  0  0
   28.9249   19.1750   -4.4015 H   0  0  0  0  0  0  0  0  0  0  0  0
   29.9057   19.3798   -5.8923 H   0  0  0  0  0  0  0  0  0  0  0  0
   28.4924   18.2712   -5.8923 H   0  0  0  0  0  0  0  0  0  0  0  0
   15.3536   15.3500  -17.7382 H   0  0  0  0  0  0  0  0  0  0  0  0
   29.9548   16.0962   -7.6778 H   0  0  0  0  0  0  0  0  0  0  0  0
   14.8621   18.4806  -17.9074 H   0  0  0  0  0  0  0  0  0  0  0  0
   16.0801   19.2228  -18.9993 H   0  0  0  0  0  0  0  0  0  0  0  0
   14.3881   19.8258  -18.9993 H   0  0  0  0  0  0  0  0  0  0  0  0
   34.2056   15.3856   -6.4622 H   0  0  0  0  0  0  0  0  0  0  0  0
   32.7565   15.2387   -7.5135 H   0  0  0  0  0  0  0  0  0  0  0  0
   33.7160   16.7573   -7.5135 H   0  0  0  0  0  0  0  0  0  0  0  0
   17.3098   16.5863  -19.7477 H   0  0  0  0  0  0  0  0  0  0  0  0
   31.4280   18.7683   -8.0765 H   0  0  0  0  0  0  0  0  0  0  0  0
   17.6241   15.0937  -15.7053 H   0  0  0  0  0  0  0  0  0  0  0  0
   16.3149   14.5449  -16.8059 H   0  0  0  0  0  0  0  0  0  0  0  0
   17.9008   13.7013  -16.8059 H   0  0  0  0  0  0  0  0  0  0  0  0
   32.2602   17.4164  -10.5385 H   0  0  0  0  0  0  0  0  0  0  0  0
   30.9420   16.6905  -11.5193 H   0  0  0  0  0  0  0  0  0  0  0  0
   31.1858   18.4702  -11.5193 H   0  0  0  0  0  0  0  0  0  0  0  0
   19.4713   16.7177  -18.6335 H   0  0  0  0  0  0  0  0  0  0  0  0
   28.3773   17.6630   -8.8860 H   0  0  0  0  0  0  0  0  0  0  0  0
   19.8585   15.2284  -15.7900 H   0  0  0  0  0  0  0  0  0  0  0  0
   28.1500   16.5135  -11.6461 H   0  0  0  0  0  0  0  0  0  0  0  0
   21.6722   16.5925  -17.8785 H   0  0  0  0  0  0  0  0  0  0  0  0
   27.5625   19.5061  -11.0692 H   0  0  0  0  0  0  0  0  0  0  0  0
   22.8314   17.9897  -15.8702 H   0  0  0  0  0  0  0  0  0  0  0  0
   26.5128   16.4126  -12.6615 H   0  0  0  0  0  0  0  0  0  0  0  0
   23.0169   14.4948  -14.3717 H   0  0  0  0  0  0  0  0  0  0  0  0
   22.3009   13.7939  -15.8626 H   0  0  0  0  0  0  0  0  0  0  0  0
   24.0086   14.3511  -15.8626 H   0  0  0  0  0  0  0  0  0  0  0  0
   26.6264   20.5813  -13.2289 H   0  0  0  0  0  0  0  0  0  0  0  0
   27.6259   19.8007  -14.5010 H   0  0  0  0  0  0  0  0  0  0  0  0
   25.8427   19.5842  -14.5010 H   0  0  0  0  0  0  0  0  0  0  0  0
   23.8515   17.0291  -13.3175 H   0  0  0  0  0  0  0  0  0  0  0  0
   25.9758   17.0058  -15.5861 H   0  0  0  0  0  0  0  0  0  0  0  0
  1 17  2  0
  2 18  2  0
  3  5  1  0
  3  7  1  0
  3 11  1  1
  3 12  1  0
  4  6  1  0
  4  8  1  0
  4 13  1  1
  4 14  1  0
  5  9  1  0
  6 10  1  0
  7 15  2  0
  7 19  1  0
  8 16  2  0
  8 20  1  0
  9 17  1  0
 10 18  1  0
 15 17  1  0
 15 21  1  0
 16 18  1  0
 16 22  1  0
 19 23  2  3
 20 24  2  3
 23 25  1  0
 24 26  1  0
 25 27  1  0
 25 29  2  3
 26 28  1  0
 26 30  2  3
 29 31  1  0
 30 32  1  0
 31 33  2  3
 32 34  2  3
 33 35  1  0
 34 36  1  0
 35 37  2  3
 35 39  1  0
 36 38  2  3
 36 40  1  0
 37 41  1  0
 38 42  1  0
 41 42  2  3
  5 43  1  0
  5 44  1  0
  6 45  1  0
  6 46  1  0
  9 47  1  0
  9 48  1  0
 10 49  1  0
 10 50  1  0
 11 51  1  0
 11 52  1  0
 11 53  1  0
 12 54  1  0
 12 55  1  0
 12 56  1  0
 13 57  1  0
 13 58  1  0
 13 59  1  0
 14 60  1  0
 14 61  1  0
 14 62  1  0
 19 63  1  0
 20 64  1  0
 21 65  1  0
 21 66  1  0
 21 67  1  0
 22 68  1  0
 22 69  1  0
 22 70  1  0
 23 71  1  0
 24 72  1  0
 27 73  1  0
 27 74  1  0
 27 75  1  0
 28 76  1  0
 28 77  1  0
 28 78  1  0
 29 79  1  0
 30 80  1  0
 31 81  1  0
 32 82  1  0
 33 83  1  0
 34 84  1  0
 37 85  1  0
 38 86  1  0
 39 87  1  0
 39 88  1  0
 39 89  1  0
 40 90  1  0
 40 91  1  0
 40 92  1  0
 41 93  1  0
 42 94  1  0
M  END
>  <filename_input>  (6) 
7ZXV_45D_docked.sdf

>  <pdb_id>  (6) 
7ZXV_45D

>  <pose_rank>  (6) 
5

>  <num_atoms_heavy>  (6) 
42

>  <num_torsions>  (6) 
10

>  <pose>  (6) 
[24.192071780533624, 17.049112206731834, -14.363277259396448, -0.2596736359312418, 0.23883141180104683, 0.62064164858736, -1.1380631071443208, 1.5041649504348753, 5.745929947069067, -0.044126332030851804, 3.5185091506309614, 0.8207917503648828, -2.787015994626937, 1.6056465176320314, 3.7909058145226013, -0.19621542920116022]

>  <energy>  (6) 
-341.02247588135725

>  <inter_energy>  (6) 
-355.26729950345

>  <intra_energy>  (6) 
14.413212642716662

>  <rmsd>  (6) 
8.38165

>  <sdf_rank>  (6) 
0

$$$$

     RDKit          3D

 94 95  0  0  0  0  0  0  0  0999 V2000
   19.2330    7.2766    1.5651 O   0  0  0  0  0  0  0  0  0  0  0  0
   13.3907   14.8350  -22.5768 O   0  0  0  0  0  0  0  0  0  0  0  0
   18.4130   10.9755   -0.2221 C   0  0  1  0  0  0  0  0  0  0  0  0
   14.4445   18.3794  -20.5616 C   0  0  1  0  0  0  0  0  0  0  0  0
   18.7362   10.8640    1.2739 C   0  0  0  0  0  0  0  0  0  0  0  0
   13.4513   18.3324  -21.7255 C   0  0  0  0  0  0  0  0  0  0  0  0
   17.7713    9.7150   -0.7592 C   0  0  0  0  0  0  0  0  0  0  0  0
   14.5684   17.0082  -19.8737 C   0  0  0  0  0  0  0  0  0  0  0  0
   19.5711    9.6135    1.5925 C   0  0  0  0  0  0  0  0  0  0  0  0
   13.7673   17.2136  -22.7255 C   0  0  0  0  0  0  0  0  0  0  0  0
   17.5023   12.1940   -0.4333 C   0  0  0  0  0  0  0  0  0  0  0  0
   19.7424   11.1701   -0.9764 C   0  0  0  0  0  0  0  0  0  0  0  0
   15.8145   18.8681  -21.0578 C   0  0  0  0  0  0  0  0  0  0  0  0
   13.9369   19.3906  -19.5353 C   0  0  0  0  0  0  0  0  0  0  0  0
   18.1475    8.3588   -0.2048 C   0  0  0  0  0  0  0  0  0  0  0  0
   14.4651   15.7447  -20.7103 C   0  0  0  0  0  0  0  0  0  0  0  0
   19.0015    8.3189    1.0271 C   0  0  0  0  0  0  0  0  0  0  0  0
   13.8107   15.8460  -22.0764 C   0  0  0  0  0  0  0  0  0  0  0  0
   17.1857    9.8660   -2.1416 C   0  0  0  0  0  0  0  0  0  0  0  0
   15.2069   16.8704  -18.5199 C   0  0  0  0  0  0  0  0  0  0  0  0
   17.2308    7.1806   -0.5786 C   0  0  0  0  0  0  0  0  0  0  0  0
   14.7379   14.3618  -20.1214 C   0  0  0  0  0  0  0  0  0  0  0  0
   15.9125    9.7587   -2.3223 C   0  0  0  0  0  0  0  0  0  0  0  0
   14.4758   16.5025  -17.4989 C   0  0  0  0  0  0  0  0  0  0  0  0
   15.3868   10.0304   -3.7154 C   0  0  0  0  0  0  0  0  0  0  0  0
   15.1430   16.3315  -16.1446 C   0  0  0  0  0  0  0  0  0  0  0  0
   15.1556    8.8757   -4.6524 C   0  0  0  0  0  0  0  0  0  0  0  0
   16.4765   15.6366  -16.0303 C   0  0  0  0  0  0  0  0  0  0  0  0
   15.1777   11.3074   -4.0650 C   0  0  0  0  0  0  0  0  0  0  0  0
   14.4677   16.8624  -15.1163 C   0  0  0  0  0  0  0  0  0  0  0  0
   14.7623   11.6949   -5.4661 C   0  0  0  0  0  0  0  0  0  0  0  0
   14.9136   16.7671  -13.6708 C   0  0  0  0  0  0  0  0  0  0  0  0
   13.7811   12.5900   -5.5847 C   0  0  0  0  0  0  0  0  0  0  0  0
   14.1496   17.3273  -12.7161 C   0  0  0  0  0  0  0  0  0  0  0  0
   13.2844   13.1450   -6.9132 C   0  0  0  0  0  0  0  0  0  0  0  0
   14.5313   17.1557  -11.2394 C   0  0  0  0  0  0  0  0  0  0  0  0
   13.7677   14.3160   -7.3035 C   0  0  0  0  0  0  0  0  0  0  0  0
   13.6329   16.5332  -10.4520 C   0  0  0  0  0  0  0  0  0  0  0  0
   12.2495   12.4030   -7.7451 C   0  0  0  0  0  0  0  0  0  0  0  0
   15.8909   17.5800  -10.7459 C   0  0  0  0  0  0  0  0  0  0  0  0
   13.4765   14.9769   -8.6257 C   0  0  0  0  0  0  0  0  0  0  0  0
   13.9483   16.1878   -9.0119 C   0  0  0  0  0  0  0  0  0  0  0  0
   19.3014   11.7560    1.5823 H   0  0  0  0  0  0  0  0  0  0  0  0
   17.7854   10.7855    1.8214 H   0  0  0  0  0  0  0  0  0  0  0  0
   12.4417   18.1684  -21.3208 H   0  0  0  0  0  0  0  0  0  0  0  0
   13.5223   19.2895  -22.2630 H   0  0  0  0  0  0  0  0  0  0  0  0
   20.5792    9.7570    1.1764 H   0  0  0  0  0  0  0  0  0  0  0  0
   19.5718    9.5057    2.6872 H   0  0  0  0  0  0  0  0  0  0  0  0
   12.9914   17.2087  -23.5052 H   0  0  0  0  0  0  0  0  0  0  0  0
   14.7640   17.4144  -23.1454 H   0  0  0  0  0  0  0  0  0  0  0  0
   17.1996   12.5991    0.5436 H   0  0  0  0  0  0  0  0  0  0  0  0
   18.0470   12.9655   -0.9973 H   0  0  0  0  0  0  0  0  0  0  0  0
   16.6082   11.8901   -0.9973 H   0  0  0  0  0  0  0  0  0  0  0  0
   20.5611   11.2899   -0.2516 H   0  0  0  0  0  0  0  0  0  0  0  0
   19.9377   10.2909   -1.6081 H   0  0  0  0  0  0  0  0  0  0  0  0
   19.6776   12.0683   -1.6081 H   0  0  0  0  0  0  0  0  0  0  0  0
   16.4567   19.0972  -20.1946 H   0  0  0  0  0  0  0  0  0  0  0  0
   16.2854   18.0825  -21.6669 H   0  0  0  0  0  0  0  0  0  0  0  0
   15.6818   19.7744  -21.6669 H   0  0  0  0  0  0  0  0  0  0  0  0
   14.1277   19.0106  -18.5208 H   0  0  0  0  0  0  0  0  0  0  0  0
   14.4615   20.3476  -19.6730 H   0  0  0  0  0  0  0  0  0  0  0  0
   12.8561   19.5418  -19.6730 H   0  0  0  0  0  0  0  0  0  0  0  0
   17.8460   10.0681   -2.9978 H   0  0  0  0  0  0  0  0  0  0  0  0
   16.2793   17.0770  -18.3886 H   0  0  0  0  0  0  0  0  0  0  0  0
   16.8577    6.7010    0.3384 H   0  0  0  0  0  0  0  0  0  0  0  0
   16.3808    7.5508   -1.1707 H   0  0  0  0  0  0  0  0  0  0  0  0
   17.7986    6.4477   -1.1707 H   0  0  0  0  0  0  0  0  0  0  0  0
   14.7260   14.4221  -19.0231 H   0  0  0  0  0  0  0  0  0  0  0  0
   13.9609   13.6599  -20.4585 H   0  0  0  0  0  0  0  0  0  0  0  0
   15.7232   14.0076  -20.4585 H   0  0  0  0  0  0  0  0  0  0  0  0
   15.2379    9.4816   -1.4989 H   0  0  0  0  0  0  0  0  0  0  0  0
   13.3976   16.3203  -17.6190 H   0  0  0  0  0  0  0  0  0  0  0  0
   14.9724    7.9612   -4.0691 H   0  0  0  0  0  0  0  0  0  0  0  0
   14.2819    9.0872   -5.2865 H   0  0  0  0  0  0  0  0  0  0  0  0
   16.0433    8.7345   -5.2865 H   0  0  0  0  0  0  0  0  0  0  0  0
   16.7310   15.5040  -14.9684 H   0  0  0  0  0  0  0  0  0  0  0  0
   16.4206   14.6530  -16.5195 H   0  0  0  0  0  0  0  0  0  0  0  0
   17.2506   16.2460  -16.5195 H   0  0  0  0  0  0  0  0  0  0  0  0
   15.3122   12.0964   -3.3105 H   0  0  0  0  0  0  0  0  0  0  0  0
   13.5332   17.4001  -15.3344 H   0  0  0  0  0  0  0  0  0  0  0  0
   15.2489   11.2570   -6.3501 H   0  0  0  0  0  0  0  0  0  0  0  0
   15.8469   16.2482  -13.4068 H   0  0  0  0  0  0  0  0  0  0  0  0
   13.2996   12.9508   -4.6639 H   0  0  0  0  0  0  0  0  0  0  0  0
   13.2556   17.9056  -12.9922 H   0  0  0  0  0  0  0  0  0  0  0  0
   14.4337   14.8469   -6.6073 H   0  0  0  0  0  0  0  0  0  0  0  0
   12.6477   16.2698  -10.8645 H   0  0  0  0  0  0  0  0  0  0  0  0
   11.5390   11.8937   -7.0774 H   0  0  0  0  0  0  0  0  0  0  0  0
   11.7071   13.1194   -8.3798 H   0  0  0  0  0  0  0  0  0  0  0  0
   12.7538   11.6595   -8.3798 H   0  0  0  0  0  0  0  0  0  0  0  0
   15.8975   17.5821   -9.6459 H   0  0  0  0  0  0  0  0  0  0  0  0
   16.6512   16.8765  -11.1158 H   0  0  0  0  0  0  0  0  0  0  0  0
   16.1161   18.5912  -11.1158 H   0  0  0  0  0  0  0  0  0  0  0  0
   12.8310   14.4350   -9.3325 H   0  0  0  0  0  0  0  0  0  0  0  0
   14.5081   16.8568   -8.3417 H   0  0  0  0  0  0  0  0  0  0  0  0
  1 17  2  0
  2 18  2  0
  3  5  1  0
  3  7  1  0
  3 11  1  1
  3 12  1  0
  4  6  1  0
  4  8  1  0
  4 13  1  6
  4 14  1  0
  5  9  1  0
  6 10  1  0
  7 15  2  0
  7 19  1  0
  8 16  2  0
  8 20  1  0
  9 17  1  0
 10 18  1  0
 15 17  1  0
 15 21  1  0
 16 18  1  0
 16 22  1  0
 19 23  2  3
 20 24  2  3
 23 25  1  0
 24 26  1  0
 25 27  1  0
 25 29  2  3
 26 28  1  0
 26 30  2  3
 29 31  1  0
 30 32  1  0
 31 33  2  3
 32 34  2  3
 33 35  1  0
 34 36  1  0
 35 37  2  3
 35 39  1  0
 36 38  2  3
 36 40  1  0
 37 41  1  0
 38 42  1  0
 41 42  2  3
  5 43  1  0
  5 44  1  0
  6 45  1  0
  6 46  1  0
  9 47  1  0
  9 48  1  0
 10 49  1  0
 10 50  1  0
 11 51  1  0
 11 52  1  0
 11 53  1  0
 12 54  1  0
 12 55  1  0
 12 56  1  0
 13 57  1  0
 13 58  1  0
 13 59  1  0
 14 60  1  0
 14 61  1  0
 14 62  1  0
 19 63  1  0
 20 64  1  0
 21 65  1  0
 21 66  1  0
 21 67  1  0
 22 68  1  0
 22 69  1  0
 22 70  1  0
 23 71  1  0
 24 72  1  0
 27 73  1  0
 27 74  1  0
 27 75  1  0
 28 76  1  0
 28 77  1  0
 28 78  1  0
 29 79  1  0
 30 80  1  0
 31 81  1  0
 32 82  1  0
 33 83  1  0
 34 84  1  0
 37 85  1  0
 38 86  1  0
 39 87  1  0
 39 88  1  0
 39 89  1  0
 40 90  1  0
 40 91  1  0
 40 92  1  0
 41 93  1  0
 42 94  1  0
M  END
>  <filename_input>  (7) 
7ZXV_45D_docked.sdf

>  <pdb_id>  (7) 
7ZXV_45D

>  <pose_rank>  (7) 
6

>  <num_atoms_heavy>  (7) 
42

>  <num_torsions>  (7) 
10

>  <pose>  (7) 
[13.476520564895598, 14.97693748606475, -8.625672091936693, 2.8188503758269214, 0.8963635597999922, -0.4016938018197104, 0.2910538522690346, 1.8552446998601115, -1.177692019062677, 1.3776406620994164, -0.3181927459476291, 6.444381556607038, -5.426375984152353, 0.2847677420913197, -1.1860668106600833, -0.08079366239884105]

>  <energy>  (7) 
-348.9786458057036

>  <inter_energy>  (7) 
-363.06847854951394

>  <intra_energy>  (7) 
15.030233337473154

>  <rmsd>  (7) 
8.41289

>  <sdf_rank>  (7) 
0

$$$$

     RDKit          3D

 94 95  0  0  0  0  0  0  0  0999 V2000
   13.1517   25.5053   -2.4802 O   0  0  0  0  0  0  0  0  0  0  0  0
   13.2308    0.6040  -12.0228 O   0  0  0  0  0  0  0  0  0  0  0  0
    9.5935   23.4057   -1.7883 C   0  0  1  0  0  0  0  0  0  0  0  0
   10.6860    3.3811  -13.9058 C   0  0  1  0  0  0  0  0  0  0  0  0
    9.8448   24.7830   -1.1598 C   0  0  0  0  0  0  0  0  0  0  0  0
   10.5014    1.8646  -14.0031 C   0  0  0  0  0  0  0  0  0  0  0  0
   10.8818   22.6528   -2.0385 C   0  0  0  0  0  0  0  0  0  0  0  0
   11.4995    3.7687  -12.6582 C   0  0  0  0  0  0  0  0  0  0  0  0
   10.8477   25.6150   -1.9747 C   0  0  0  0  0  0  0  0  0  0  0  0
   11.8298    1.1026  -13.9229 C   0  0  0  0  0  0  0  0  0  0  0  0
    8.6589   22.6124   -0.8632 C   0  0  0  0  0  0  0  0  0  0  0  0
    8.9206   23.6296   -3.1562 C   0  0  0  0  0  0  0  0  0  0  0  0
   11.3561    3.9130  -15.1825 C   0  0  0  0  0  0  0  0  0  0  0  0
    9.3064    4.0291  -13.8036 C   0  0  0  0  0  0  0  0  0  0  0  0
   12.1494   23.3905   -2.4083 C   0  0  0  0  0  0  0  0  0  0  0  0
   12.6153    2.8536  -12.1844 C   0  0  0  0  0  0  0  0  0  0  0  0
   12.1438   24.8865   -2.3056 C   0  0  0  0  0  0  0  0  0  0  0  0
   12.6041    1.4115  -12.6586 C   0  0  0  0  0  0  0  0  0  0  0  0
   10.6838   21.1997   -2.3936 C   0  0  0  0  0  0  0  0  0  0  0  0
   11.5309    5.1857  -12.1576 C   0  0  0  0  0  0  0  0  0  0  0  0
   13.4620   22.5906   -2.3325 C   0  0  0  0  0  0  0  0  0  0  0  0
   13.5629    3.2537  -11.0548 C   0  0  0  0  0  0  0  0  0  0  0  0
   10.8054   20.8082   -3.6172 C   0  0  0  0  0  0  0  0  0  0  0  0
   10.6290    5.5834  -11.2968 C   0  0  0  0  0  0  0  0  0  0  0  0
   10.7011   19.3214   -3.8808 C   0  0  0  0  0  0  0  0  0  0  0  0
   10.6961    7.0076  -10.7717 C   0  0  0  0  0  0  0  0  0  0  0  0
   10.4079   18.3902   -2.7355 C   0  0  0  0  0  0  0  0  0  0  0  0
   11.7050    7.3882   -9.7174 C   0  0  0  0  0  0  0  0  0  0  0  0
   10.9080   18.8944   -5.1343 C   0  0  0  0  0  0  0  0  0  0  0  0
    9.8257    7.8548  -11.3372 C   0  0  0  0  0  0  0  0  0  0  0  0
   10.9386   17.4236   -5.4830 C   0  0  0  0  0  0  0  0  0  0  0  0
    9.6760    9.3087  -10.9354 C   0  0  0  0  0  0  0  0  0  0  0  0
   10.9776   17.1053   -6.7773 C   0  0  0  0  0  0  0  0  0  0  0  0
    9.9110   10.2644  -11.8519 C   0  0  0  0  0  0  0  0  0  0  0  0
   11.0815   15.6808   -7.3061 C   0  0  0  0  0  0  0  0  0  0  0  0
    9.6684   11.7370  -11.4937 C   0  0  0  0  0  0  0  0  0  0  0  0
   10.0462   15.2050   -7.9835 C   0  0  0  0  0  0  0  0  0  0  0  0
   10.2673   12.1933  -10.3766 C   0  0  0  0  0  0  0  0  0  0  0  0
   12.3099   14.8241   -7.0401 C   0  0  0  0  0  0  0  0  0  0  0  0
    8.8798   12.6295  -12.4176 C   0  0  0  0  0  0  0  0  0  0  0  0
   10.0003   13.8636   -8.6677 C   0  0  0  0  0  0  0  0  0  0  0  0
   10.2118   13.6564   -9.9907 C   0  0  0  0  0  0  0  0  0  0  0  0
    8.8910   25.3285   -1.1074 H   0  0  0  0  0  0  0  0  0  0  0  0
   10.2698   24.6259   -0.1575 H   0  0  0  0  0  0  0  0  0  0  0  0
    9.8554    1.5346  -13.1763 H   0  0  0  0  0  0  0  0  0  0  0  0
   10.0505    1.6460  -14.9824 H   0  0  0  0  0  0  0  0  0  0  0  0
   10.3658   25.9070   -2.9194 H   0  0  0  0  0  0  0  0  0  0  0  0
   11.1220   26.4780   -1.3501 H   0  0  0  0  0  0  0  0  0  0  0  0
   11.6189    0.0234  -13.9518 H   0  0  0  0  0  0  0  0  0  0  0  0
   12.4469    1.4190  -14.7767 H   0  0  0  0  0  0  0  0  0  0  0  0
    8.9121   22.8272    0.1855 H   0  0  0  0  0  0  0  0  0  0  0  0
    7.6164   22.9055   -1.0562 H   0  0  0  0  0  0  0  0  0  0  0  0
    8.7789   21.5361   -1.0562 H   0  0  0  0  0  0  0  0  0  0  0  0
    7.8868   23.9737   -3.0044 H   0  0  0  0  0  0  0  0  0  0  0  0
    9.4809   24.3897   -3.7204 H   0  0  0  0  0  0  0  0  0  0  0  0
    8.9136   22.6854   -3.7204 H   0  0  0  0  0  0  0  0  0  0  0  0
   12.1907    4.5756  -14.9098 H   0  0  0  0  0  0  0  0  0  0  0  0
   11.7369    3.0687  -15.7758 H   0  0  0  0  0  0  0  0  0  0  0  0
   10.6201    4.4756  -15.7758 H   0  0  0  0  0  0  0  0  0  0  0  0
    9.0381    4.1551  -12.7442 H   0  0  0  0  0  0  0  0  0  0  0  0
    9.3257    5.0123  -14.2964 H   0  0  0  0  0  0  0  0  0  0  0  0
    8.5620    3.3864  -14.2964 H   0  0  0  0  0  0  0  0  0  0  0  0
   10.4352   20.4720   -1.6071 H   0  0  0  0  0  0  0  0  0  0  0  0
   12.3051    5.8823  -12.5117 H   0  0  0  0  0  0  0  0  0  0  0  0
   13.7311   22.4266   -1.2786 H   0  0  0  0  0  0  0  0  0  0  0  0
   13.3291   21.6198   -2.8324 H   0  0  0  0  0  0  0  0  0  0  0  0
   14.2640   23.1536   -2.8324 H   0  0  0  0  0  0  0  0  0  0  0  0
   13.0839    3.0515  -10.0855 H   0  0  0  0  0  0  0  0  0  0  0  0
   14.4928    2.6714  -11.1328 H   0  0  0  0  0  0  0  0  0  0  0  0
   13.7942    4.3263  -11.1328 H   0  0  0  0  0  0  0  0  0  0  0  0
   10.9774   21.5247   -4.4339 H   0  0  0  0  0  0  0  0  0  0  0  0
    9.8366    4.8990  -10.9595 H   0  0  0  0  0  0  0  0  0  0  0  0
   10.5735   18.9162   -1.7837 H   0  0  0  0  0  0  0  0  0  0  0  0
    9.3613   18.0567   -2.7928 H   0  0  0  0  0  0  0  0  0  0  0  0
   11.0747   17.5172   -2.7928 H   0  0  0  0  0  0  0  0  0  0  0  0
   11.2719    7.2248   -8.7195 H   0  0  0  0  0  0  0  0  0  0  0  0
   12.6065    6.7684   -9.8319 H   0  0  0  0  0  0  0  0  0  0  0  0
   11.9724    8.4491   -9.8319 H   0  0  0  0  0  0  0  0  0  0  0  0
   11.0599   19.6356   -5.9327 H   0  0  0  0  0  0  0  0  0  0  0  0
    9.1806    7.4721  -12.1418 H   0  0  0  0  0  0  0  0  0  0  0  0
   10.9290   16.6490   -4.7021 H   0  0  0  0  0  0  0  0  0  0  0  0
    9.3800    9.5777   -9.9107 H   0  0  0  0  0  0  0  0  0  0  0  0
   10.9317   17.9242   -7.5103 H   0  0  0  0  0  0  0  0  0  0  0  0
   10.2754    9.9921  -12.8534 H   0  0  0  0  0  0  0  0  0  0  0  0
    9.1501   15.8395   -8.0514 H   0  0  0  0  0  0  0  0  0  0  0  0
   10.8088   11.4870   -9.7302 H   0  0  0  0  0  0  0  0  0  0  0  0
   12.4573   14.7213   -5.9549 H   0  0  0  0  0  0  0  0  0  0  0  0
   12.1666   13.8290   -7.4866 H   0  0  0  0  0  0  0  0  0  0  0  0
   13.1942   15.3023   -7.4866 H   0  0  0  0  0  0  0  0  0  0  0  0
    8.2671   13.3230  -11.8229 H   0  0  0  0  0  0  0  0  0  0  0  0
    9.5715   13.2031  -13.0521 H   0  0  0  0  0  0  0  0  0  0  0  0
    8.2253   12.0138  -13.0521 H   0  0  0  0  0  0  0  0  0  0  0  0
    9.7779   12.9841   -8.0456 H   0  0  0  0  0  0  0  0  0  0  0  0
   10.3319   14.4747  -10.7159 H   0  0  0  0  0  0  0  0  0  0  0  0
  1 17  2  0
  2 18  2  0
  3  5  1  0
  3  7  1  0
  3 11  1  1
  3 12  1  0
  4  6  1  0
  4  8  1  0
  4 13  1  6
  4 14  1  0
  5  9  1  0
  6 10  1  0
  7 15  2  0
  7 19  1  0
  8 16  2  0
  8 20  1  0
  9 17  1  0
 10 18  1  0
 15 17  1  0
 15 21  1  0
 16 18  1  0
 16 22  1  0
 19 23  2  3
 20 24  2  3
 23 25  1  0
 24 26  1  0
 25 27  1  0
 25 29  2  3
 26 28  1  0
 26 30  2  3
 29 31  1  0
 30 32  1  0
 31 33  2  3
 32 34  2  3
 33 35  1  0
 34 36  1  0
 35 37  2  3
 35 39  1  0
 36 38  2  3
 36 40  1  0
 37 41  1  0
 38 42  1  0
 41 42  2  3
  5 43  1  0
  5 44  1  0
  6 45  1  0
  6 46  1  0
  9 47  1  0
  9 48  1  0
 10 49  1  0
 10 50  1  0
 11 51  1  0
 11 52  1  0
 11 53  1  0
 12 54  1  0
 12 55  1  0
 12 56  1  0
 13 57  1  0
 13 58  1  0
 13 59  1  0
 14 60  1  0
 14 61  1  0
 14 62  1  0
 19 63  1  0
 20 64  1  0
 21 65  1  0
 21 66  1  0
 21 67  1  0
 22 68  1  0
 22 69  1  0
 22 70  1  0
 23 71  1  0
 24 72  1  0
 27 73  1  0
 27 74  1  0
 27 75  1  0
 28 76  1  0
 28 77  1  0
 28 78  1  0
 29 79  1  0
 30 80  1  0
 31 81  1  0
 32 82  1  0
 33 83  1  0
 34 84  1  0
 37 85  1  0
 38 86  1  0
 39 87  1  0
 39 88  1  0
 39 89  1  0
 40 90  1  0
 40 91  1  0
 40 92  1  0
 41 93  1  0
 42 94  1  0
M  END
>  <filename_input>  (8) 
7ZXV_45D_docked.sdf

>  <pdb_id>  (8) 
7ZXV_45D

>  <pose_rank>  (8) 
7

>  <num_atoms_heavy>  (8) 
42

>  <num_torsions>  (8) 
10

>  <pose>  (8) 
[10.000285296370476, 13.863591264250815, -8.667720928834505, -3.805445352858668, -2.1886657341818516, 1.822999817008987, 1.7365275493659496, -7.02206330243026, -0.5438406723283449, -0.25142417618932583, -2.7899437235369215, -1.2609684327308845, -2.4222170896437265, -0.789108479981352, -8.059489575270481, 12.059433689412417]

>  <energy>  (8) 
-69.44304857081443

>  <inter_energy>  (8) 
-86.48513437514755

>  <intra_energy>  (8) 
17.69049060586329

>  <rmsd>  (8) 
17.221

>  <sdf_rank>  (8) 
0

$$$$

     RDKit          3D

 94 95  0  0  0  0  0  0  0  0999 V2000
   13.1426   16.8930  -22.4297 O   0  0  0  0  0  0  0  0  0  0  0  0
   12.1756    5.3254    0.9505 O   0  0  0  0  0  0  0  0  0  0  0  0
   15.2104   17.5364  -18.8438 C   0  0  1  0  0  0  0  0  0  0  0  0
   13.8559    2.8923   -2.0479 C   0  0  1  0  0  0  0  0  0  0  0  0
   15.7364   18.0797  -20.1791 C   0  0  0  0  0  0  0  0  0  0  0  0
   13.3047    2.3474   -0.7278 C   0  0  0  0  0  0  0  0  0  0  0  0
   14.3833   16.2829  -19.0278 C   0  0  0  0  0  0  0  0  0  0  0  0
   13.2454    4.2636   -2.3878 C   0  0  0  0  0  0  0  0  0  0  0  0
   14.6095   18.2802  -21.2049 C   0  0  0  0  0  0  0  0  0  0  0  0
   13.4501    3.3444    0.4282 C   0  0  0  0  0  0  0  0  0  0  0  0
   16.4084   17.2787  -17.9180 C   0  0  0  0  0  0  0  0  0  0  0  0
   14.2880   18.6081  -18.2315 C   0  0  0  0  0  0  0  0  0  0  0  0
   15.3891    2.9771   -1.9833 C   0  0  0  0  0  0  0  0  0  0  0  0
   13.4938    1.9125   -3.1626 C   0  0  0  0  0  0  0  0  0  0  0  0
   13.5354   16.0905  -20.2655 C   0  0  0  0  0  0  0  0  0  0  0  0
   12.9201    5.2317   -1.2636 C   0  0  0  0  0  0  0  0  0  0  0  0
   13.7079   17.0667  -21.3906 C   0  0  0  0  0  0  0  0  0  0  0  0
   12.7815    4.6725    0.1409 C   0  0  0  0  0  0  0  0  0  0  0  0
   14.0755   15.5569  -17.7413 C   0  0  0  0  0  0  0  0  0  0  0  0
   13.3598    4.8469   -3.7684 C   0  0  0  0  0  0  0  0  0  0  0  0
   12.9880   14.6740  -20.5152 C   0  0  0  0  0  0  0  0  0  0  0  0
   12.4648    6.6640   -1.5379 C   0  0  0  0  0  0  0  0  0  0  0  0
   14.1404   14.2691  -17.6913 C   0  0  0  0  0  0  0  0  0  0  0  0
   12.2729    5.0907   -4.4552 C   0  0  0  0  0  0  0  0  0  0  0  0
   13.9258   13.6181  -16.3418 C   0  0  0  0  0  0  0  0  0  0  0  0
   12.4031    5.7149   -5.8343 C   0  0  0  0  0  0  0  0  0  0  0  0
   15.0128   13.7006  -15.3043 C   0  0  0  0  0  0  0  0  0  0  0  0
   13.1935    6.9845   -6.0286 C   0  0  0  0  0  0  0  0  0  0  0  0
   12.7737   12.9631  -16.1416 C   0  0  0  0  0  0  0  0  0  0  0  0
   11.7949    5.0360   -6.8163 C   0  0  0  0  0  0  0  0  0  0  0  0
   12.5067   12.1844  -14.8736 C   0  0  0  0  0  0  0  0  0  0  0  0
   11.7467    5.4957   -8.2599 C   0  0  0  0  0  0  0  0  0  0  0  0
   11.4932   12.5935  -14.1097 C   0  0  0  0  0  0  0  0  0  0  0  0
   10.5658    5.8680   -8.7849 C   0  0  0  0  0  0  0  0  0  0  0  0
   11.0404   11.8883  -12.8380 C   0  0  0  0  0  0  0  0  0  0  0  0
   10.5122    6.4307  -10.2118 C   0  0  0  0  0  0  0  0  0  0  0  0
   11.1155   10.5650  -12.8151 C   0  0  0  0  0  0  0  0  0  0  0  0
   10.2533    7.7473  -10.3324 C   0  0  0  0  0  0  0  0  0  0  0  0
   10.4919   12.6669  -11.6520 C   0  0  0  0  0  0  0  0  0  0  0  0
   10.8377    5.5532  -11.3934 C   0  0  0  0  0  0  0  0  0  0  0  0
   10.8115    9.6999  -11.6197 C   0  0  0  0  0  0  0  0  0  0  0  0
   10.3049    8.4437  -11.6759 C   0  0  0  0  0  0  0  0  0  0  0  0
   16.2288   19.0468  -19.9994 H   0  0  0  0  0  0  0  0  0  0  0  0
   16.4423   17.3432  -20.5904 H   0  0  0  0  0  0  0  0  0  0  0  0
   12.2377    2.1152   -0.8607 H   0  0  0  0  0  0  0  0  0  0  0  0
   13.8859    1.4501   -0.4691 H   0  0  0  0  0  0  0  0  0  0  0  0
   13.9872   19.1241  -20.8725 H   0  0  0  0  0  0  0  0  0  0  0  0
   15.0952   18.4631  -22.1747 H   0  0  0  0  0  0  0  0  0  0  0  0
   12.9938    2.9081    1.3290 H   0  0  0  0  0  0  0  0  0  0  0  0
   14.5241    3.5361    0.5690 H   0  0  0  0  0  0  0  0  0  0  0  0
   16.0832   17.3487  -16.8695 H   0  0  0  0  0  0  0  0  0  0  0  0
   16.8111   16.2734  -18.1107 H   0  0  0  0  0  0  0  0  0  0  0  0
   17.1888   18.0296  -18.1107 H   0  0  0  0  0  0  0  0  0  0  0  0
   14.3373   18.5508  -17.1341 H   0  0  0  0  0  0  0  0  0  0  0  0
   14.6149   19.6052  -18.5617 H   0  0  0  0  0  0  0  0  0  0  0  0
   13.2534   18.4335  -18.5617 H   0  0  0  0  0  0  0  0  0  0  0  0
   15.7113    2.9949   -0.9317 H   0  0  0  0  0  0  0  0  0  0  0  0
   15.8262    2.1018   -2.4859 H   0  0  0  0  0  0  0  0  0  0  0  0
   15.7270    3.8953   -2.4859 H   0  0  0  0  0  0  0  0  0  0  0  0
   13.1445    0.9676   -2.7210 H   0  0  0  0  0  0  0  0  0  0  0  0
   12.6956    2.3437   -3.7847 H   0  0  0  0  0  0  0  0  0  0  0  0
   14.3805    1.7209   -3.7847 H   0  0  0  0  0  0  0  0  0  0  0  0
   13.7949   16.1272  -16.8435 H   0  0  0  0  0  0  0  0  0  0  0  0
   14.3484    5.0668   -4.1977 H   0  0  0  0  0  0  0  0  0  0  0  0
   12.7969   14.1795  -19.5513 H   0  0  0  0  0  0  0  0  0  0  0  0
   12.0501   14.7387  -21.0863 H   0  0  0  0  0  0  0  0  0  0  0  0
   13.7256   14.0912  -21.0863 H   0  0  0  0  0  0  0  0  0  0  0  0
   12.2991    7.1852   -0.5836 H   0  0  0  0  0  0  0  0  0  0  0  0
   13.2396    7.1911   -2.1139 H   0  0  0  0  0  0  0  0  0  0  0  0
   11.5278    6.6468   -2.1139 H   0  0  0  0  0  0  0  0  0  0  0  0
   14.3432   13.6699  -18.5912 H   0  0  0  0  0  0  0  0  0  0  0  0
   11.2829    4.8481   -4.0415 H   0  0  0  0  0  0  0  0  0  0  0  0
   14.5647   13.6666  -14.3003 H   0  0  0  0  0  0  0  0  0  0  0  0
   15.7020   12.8522  -15.4271 H   0  0  0  0  0  0  0  0  0  0  0  0
   15.5661   14.6433  -15.4271 H   0  0  0  0  0  0  0  0  0  0  0  0
   13.4563    7.4066   -5.0474 H   0  0  0  0  0  0  0  0  0  0  0  0
   14.1128    6.7618   -6.5901 H   0  0  0  0  0  0  0  0  0  0  0  0
   12.5879    7.7112   -6.5901 H   0  0  0  0  0  0  0  0  0  0  0  0
   11.9998   12.9929  -16.9228 H   0  0  0  0  0  0  0  0  0  0  0  0
   11.3007    4.0875   -6.5593 H   0  0  0  0  0  0  0  0  0  0  0  0
   13.1224   11.3171  -14.5930 H   0  0  0  0  0  0  0  0  0  0  0  0
   12.6627    5.5244   -8.8682 H   0  0  0  0  0  0  0  0  0  0  0  0
   10.9491   13.4985  -14.4179 H   0  0  0  0  0  0  0  0  0  0  0  0
    9.6429    5.7697   -8.1946 H   0  0  0  0  0  0  0  0  0  0  0  0
   11.4239   10.0588  -13.7418 H   0  0  0  0  0  0  0  0  0  0  0  0
    9.9987    8.3295   -9.4345 H   0  0  0  0  0  0  0  0  0  0  0  0
   10.8254   12.1935  -10.7167 H   0  0  0  0  0  0  0  0  0  0  0  0
   10.8612   13.7023  -11.6908 H   0  0  0  0  0  0  0  0  0  0  0  0
    9.3926   12.6679  -11.6908 H   0  0  0  0  0  0  0  0  0  0  0  0
   11.1996    4.5776  -11.0369 H   0  0  0  0  0  0  0  0  0  0  0  0
    9.9334    5.4085  -12.0028 H   0  0  0  0  0  0  0  0  0  0  0  0
   11.6176    6.0332  -12.0028 H   0  0  0  0  0  0  0  0  0  0  0  0
   11.0167   10.1202  -10.6241 H   0  0  0  0  0  0  0  0  0  0  0  0
    9.9631    7.9743  -12.6102 H   0  0  0  0  0  0  0  0  0  0  0  0
  1 17  2  0
  2 18  2  0
  3  5  1  0
  3  7  1  0
  3 11  1  1
  3 12  1  0
  4  6  1  0
  4  8  1  0
  4 13  1  1
  4 14  1  0
  5  9  1  0
  6 10  1  0
  7 15  2  0
  7 19  1  0
  8 16  2  0
  8 20  1  0
  9 17  1  0
 10 18  1  0
 15 17  1  0
 15 21  1  0
 16 18  1  0
 16 22  1  0
 19 23  2  3
 20 24  2  3
 23 25  1  0
 24 26  1  0
 25 27  1  0
 25 29  2  3
 26 28  1  0
 26 30  2  3
 29 31  1  0
 30 32  1  0
 31 33  2  3
 32 34  2  3
 33 35  1  0
 34 36  1  0
 35 37  2  3
 35 39  1  0
 36 38  2  3
 36 40  1  0
 37 41  1  0
 38 42  1  0
 41 42  2  3
  5 43  1  0
  5 44  1  0
  6 45  1  0
  6 46  1  0
  9 47  1  0
  9 48  1  0
 10 49  1  0
 10 50  1  0
 11 51  1  0
 11 52  1  0
 11 53  1  0
 12 54  1  0
 12 55  1  0
 12 56  1  0
 13 57  1  0
 13 58  1  0
 13 59  1  0
 14 60  1  0
 14 61  1  0
 14 62  1  0
 19 63  1  0
 20 64  1  0
 21 65  1  0
 21 66  1  0
 21 67  1  0
 22 68  1  0
 22 69  1  0
 22 70  1  0
 23 71  1  0
 24 72  1  0
 27 73  1  0
 27 74  1  0
 27 75  1  0
 28 76  1  0
 28 77  1  0
 28 78  1  0
 29 79  1  0
 30 80  1  0
 31 81  1  0
 32 82  1  0
 33 83  1  0
 34 84  1  0
 37 85  1  0
 38 86  1  0
 39 87  1  0
 39 88  1  0
 39 89  1  0
 40 90  1  0
 40 91  1  0
 40 92  1  0
 41 93  1  0
 42 94  1  0
M  END
>  <filename_input>  (9) 
7ZXV_45D_docked.sdf

>  <pdb_id>  (9) 
7ZXV_45D

>  <pose_rank>  (9) 
8

>  <num_atoms_heavy>  (9) 
42

>  <num_torsions>  (9) 
10

>  <pose>  (9) 
[10.811541552558309, 9.69992190833427, -11.619700546090405, -0.07765023275566374, 0.37536129449994926, -1.3630175320623559, -0.22749114241120377, -3.350468994735527, 4.794296424620347, -1.5860894686332512, -0.7269294157673415, 6.4059902732269585, 1.0363540472145374, 7.740228692754485, 4.928506423164146, 0.0047973135398617665]

>  <energy>  (9) 
-287.98511881888624

>  <inter_energy>  (9) 
-310.9382433505436

>  <intra_energy>  (9) 
23.375538181748453

>  <rmsd>  (9) 
10.2115

>  <sdf_rank>  (9) 
0

$$$$

     RDKit          3D

 94 95  0  0  0  0  0  0  0  0999 V2000
   13.3282   18.8174  -22.7636 O   0  0  0  0  0  0  0  0  0  0  0  0
   23.2873   21.5426    0.6771 O   0  0  0  0  0  0  0  0  0  0  0  0
   13.7924   15.2830  -20.5634 C   0  0  1  0  0  0  0  0  0  0  0  0
   21.0580   18.0198    1.2722 C   0  0  1  0  0  0  0  0  0  0  0  0
   12.8220   15.3654  -21.7494 C   0  0  0  0  0  0  0  0  0  0  0  0
   21.4069   18.9990    2.3960 C   0  0  0  0  0  0  0  0  0  0  0  0
   13.9817   16.6251  -19.8911 C   0  0  0  0  0  0  0  0  0  0  0  0
   21.1069   18.7052   -0.1049 C   0  0  0  0  0  0  0  0  0  0  0  0
   13.2266   16.4583  -22.7515 C   0  0  0  0  0  0  0  0  0  0  0  0
   22.7402   19.7183    2.1584 C   0  0  0  0  0  0  0  0  0  0  0  0
   13.2613   14.2370  -19.5724 C   0  0  0  0  0  0  0  0  0  0  0  0
   15.1655   14.8466  -21.1098 C   0  0  0  0  0  0  0  0  0  0  0  0
   22.0049   16.8101    1.3150 C   0  0  0  0  0  0  0  0  0  0  0  0
   19.6389   17.5044    1.5053 C   0  0  0  0  0  0  0  0  0  0  0  0
   13.9366   17.9059  -20.6946 C   0  0  0  0  0  0  0  0  0  0  0  0
   22.1399   19.7891   -0.3595 C   0  0  0  0  0  0  0  0  0  0  0  0
   13.4858   17.8209  -22.1222 C   0  0  0  0  0  0  0  0  0  0  0  0
   22.7729   20.4669    0.8424 C   0  0  0  0  0  0  0  0  0  0  0  0
   14.6994   16.5514  -18.5659 C   0  0  0  0  0  0  0  0  0  0  0  0
   20.4877   18.0655   -1.3161 C   0  0  0  0  0  0  0  0  0  0  0  0
   13.8212   19.2179  -19.8983 C   0  0  0  0  0  0  0  0  0  0  0  0
   22.3493   20.3953   -1.7461 C   0  0  0  0  0  0  0  0  0  0  0  0
   15.9151   16.9714  -18.4620 C   0  0  0  0  0  0  0  0  0  0  0  0
   21.1300   17.1094   -1.9372 C   0  0  0  0  0  0  0  0  0  0  0  0
   16.5320   16.9675  -17.0798 C   0  0  0  0  0  0  0  0  0  0  0  0
   20.4748   16.4472   -3.1375 C   0  0  0  0  0  0  0  0  0  0  0  0
   17.6350   15.9918  -16.7696 C   0  0  0  0  0  0  0  0  0  0  0  0
   19.5894   15.2398   -2.9573 C   0  0  0  0  0  0  0  0  0  0  0  0
   16.0394   17.8245  -16.1746 C   0  0  0  0  0  0  0  0  0  0  0  0
   20.7315   17.0376   -4.3125 C   0  0  0  0  0  0  0  0  0  0  0  0
   16.5062   17.8243  -14.7367 C   0  0  0  0  0  0  0  0  0  0  0  0
   20.2296   16.5223   -5.6468 C   0  0  0  0  0  0  0  0  0  0  0  0
   16.6411   19.0091  -14.1400 C   0  0  0  0  0  0  0  0  0  0  0  0
   19.4316   17.3096   -6.3897 C   0  0  0  0  0  0  0  0  0  0  0  0
   17.0331   19.1929  -12.6798 C   0  0  0  0  0  0  0  0  0  0  0  0
   18.9948   16.8470   -7.7864 C   0  0  0  0  0  0  0  0  0  0  0  0
   16.6230   18.2728  -11.8182 C   0  0  0  0  0  0  0  0  0  0  0  0
   17.8667   17.3947   -8.2786 C   0  0  0  0  0  0  0  0  0  0  0  0
   17.8350   20.4010  -12.2202 C   0  0  0  0  0  0  0  0  0  0  0  0
   19.8581   15.9043   -8.5853 C   0  0  0  0  0  0  0  0  0  0  0  0
   16.9922   18.2263  -10.3583 C   0  0  0  0  0  0  0  0  0  0  0  0
   17.4060   17.1191   -9.6944 C   0  0  0  0  0  0  0  0  0  0  0  0
   12.8116   14.3951  -22.2675 H   0  0  0  0  0  0  0  0  0  0  0  0
   11.8263   15.6180  -21.3559 H   0  0  0  0  0  0  0  0  0  0  0  0
   20.6082   19.7520    2.4677 H   0  0  0  0  0  0  0  0  0  0  0  0
   21.5023   18.4189    3.3257 H   0  0  0  0  0  0  0  0  0  0  0  0
   14.1454   16.1343  -23.2622 H   0  0  0  0  0  0  0  0  0  0  0  0
   12.3774   16.5852  -23.4391 H   0  0  0  0  0  0  0  0  0  0  0  0
   22.9037   20.4359    2.9758 H   0  0  0  0  0  0  0  0  0  0  0  0
   23.5298   18.9531    2.1256 H   0  0  0  0  0  0  0  0  0  0  0  0
   13.4374   14.5839  -18.5435 H   0  0  0  0  0  0  0  0  0  0  0  0
   12.1821   14.0955  -19.7319 H   0  0  0  0  0  0  0  0  0  0  0  0
   13.7838   13.2822  -19.7319 H   0  0  0  0  0  0  0  0  0  0  0  0
   15.8427   14.6314  -20.2702 H   0  0  0  0  0  0  0  0  0  0  0  0
   15.0449   13.9425  -21.7247 H   0  0  0  0  0  0  0  0  0  0  0  0
   15.5890   15.6544  -21.7247 H   0  0  0  0  0  0  0  0  0  0  0  0
   22.2130   16.5442    2.3619 H   0  0  0  0  0  0  0  0  0  0  0  0
   21.5325   15.9565    0.8069 H   0  0  0  0  0  0  0  0  0  0  0  0
   22.9469   17.0637    0.8069 H   0  0  0  0  0  0  0  0  0  0  0  0
   19.4470   17.4347    2.5861 H   0  0  0  0  0  0  0  0  0  0  0  0
   18.9174   18.1979    1.0487 H   0  0  0  0  0  0  0  0  0  0  0  0
   19.5305   16.5095    1.0487 H   0  0  0  0  0  0  0  0  0  0  0  0
   14.1847   16.1385  -17.6858 H   0  0  0  0  0  0  0  0  0  0  0  0
   19.5034   18.3983   -1.6772 H   0  0  0  0  0  0  0  0  0  0  0  0
   13.8407   18.9959  -18.8211 H   0  0  0  0  0  0  0  0  0  0  0  0
   14.6649   19.8764  -20.1524 H   0  0  0  0  0  0  0  0  0  0  0  0
   12.8755   19.7190  -20.1524 H   0  0  0  0  0  0  0  0  0  0  0  0
   22.7068   21.4305   -1.6435 H   0  0  0  0  0  0  0  0  0  0  0  0
   23.0948   19.8027   -2.2966 H   0  0  0  0  0  0  0  0  0  0  0  0
   21.3969   20.3891   -2.2966 H   0  0  0  0  0  0  0  0  0  0  0  0
   16.4792   17.3175  -19.3406 H   0  0  0  0  0  0  0  0  0  0  0  0
   22.1262   16.7909   -1.5964 H   0  0  0  0  0  0  0  0  0  0  0  0
   17.7436   15.8957  -15.6792 H   0  0  0  0  0  0  0  0  0  0  0  0
   17.3887   15.0105  -17.2014 H   0  0  0  0  0  0  0  0  0  0  0  0
   18.5789   16.3559  -17.2014 H   0  0  0  0  0  0  0  0  0  0  0  0
   19.4474   15.0462   -1.8838 H   0  0  0  0  0  0  0  0  0  0  0  0
   18.6132   15.4274   -3.4283 H   0  0  0  0  0  0  0  0  0  0  0  0
   20.0617   14.3651   -3.4283 H   0  0  0  0  0  0  0  0  0  0  0  0
   15.2732   18.5492  -16.4871 H   0  0  0  0  0  0  0  0  0  0  0  0
   21.3435   17.9516   -4.3087 H   0  0  0  0  0  0  0  0  0  0  0  0
   16.7253   16.8865  -14.2052 H   0  0  0  0  0  0  0  0  0  0  0  0
   20.5136   15.5206   -6.0016 H   0  0  0  0  0  0  0  0  0  0  0  0
   16.4574   19.9119  -14.7411 H   0  0  0  0  0  0  0  0  0  0  0  0
   19.0935   18.2804   -5.9983 H   0  0  0  0  0  0  0  0  0  0  0  0
   15.9611   17.4810  -12.1990 H   0  0  0  0  0  0  0  0  0  0  0  0
   17.2667   18.0571   -7.6374 H   0  0  0  0  0  0  0  0  0  0  0  0
   17.8549   20.4311  -11.1208 H   0  0  0  0  0  0  0  0  0  0  0  0
   18.8632   20.3260  -12.6037 H   0  0  0  0  0  0  0  0  0  0  0  0
   17.3666   21.3194  -12.6037 H   0  0  0  0  0  0  0  0  0  0  0  0
   20.4393   15.2696   -7.9002 H   0  0  0  0  0  0  0  0  0  0  0  0
   19.2201   15.2711   -9.2194 H   0  0  0  0  0  0  0  0  0  0  0  0
   20.5449   16.4842   -9.2194 H   0  0  0  0  0  0  0  0  0  0  0  0
   16.9204   19.1634   -9.7868 H   0  0  0  0  0  0  0  0  0  0  0  0
   17.4070   16.1145  -10.1424 H   0  0  0  0  0  0  0  0  0  0  0  0
  1 17  2  0
  2 18  2  0
  3  5  1  0
  3  7  1  0
  3 11  1  1
  3 12  1  0
  4  6  1  0
  4  8  1  0
  4 13  1  6
  4 14  1  0
  5  9  1  0
  6 10  1  0
  7 15  2  0
  7 19  1  0
  8 16  2  0
  8 20  1  0
  9 17  1  0
 10 18  1  0
 15 17  1  0
 15 21  1  0
 16 18  1  0
 16 22  1  0
 19 23  2  3
 20 24  2  3
 23 25  1  0
 24 26  1  0
 25 27  1  0
 25 29  2  3
 26 28  1  0
 26 30  2  3
 29 31  1  0
 30 32  1  0
 31 33  2  3
 32 34  2  3
 33 35  1  0
 34 36  1  0
 35 37  2  3
 35 39  1  0
 36 38  2  3
 36 40  1  0
 37 41  1  0
 38 42  1  0
 41 42  2  3
  5 43  1  0
  5 44  1  0
  6 45  1  0
  6 46  1  0
  9 47  1  0
  9 48  1  0
 10 49  1  0
 10 50  1  0
 11 51  1  0
 11 52  1  0
 11 53  1  0
 12 54  1  0
 12 55  1  0
 12 56  1  0
 13 57  1  0
 13 58  1  0
 13 59  1  0
 14 60  1  0
 14 61  1  0
 14 62  1  0
 19 63  1  0
 20 64  1  0
 21 65  1  0
 21 66  1  0
 21 67  1  0
 22 68  1  0
 22 69  1  0
 22 70  1  0
 23 71  1  0
 24 72  1  0
 27 73  1  0
 27 74  1  0
 27 75  1  0
 28 76  1  0
 28 77  1  0
 28 78  1  0
 29 79  1  0
 30 80  1  0
 31 81  1  0
 32 82  1  0
 33 83  1  0
 34 84  1  0
 37 85  1  0
 38 86  1  0
 39 87  1  0
 39 88  1  0
 39 89  1  0
 40 90  1  0
 40 91  1  0
 40 92  1  0
 41 93  1  0
 42 94  1  0
M  END
>  <filename_input>  (10) 
7ZXV_45D_docked.sdf

>  <pdb_id>  (10) 
7ZXV_45D

>  <pose_rank>  (10) 
9

>  <num_atoms_heavy>  (10) 
42

>  <num_torsions>  (10) 
10

>  <pose>  (10) 
[16.992163003676893, 18.226308929232193, -10.358302671543324, 3.659987076867554, -0.647941362425314, 3.6233512822924725, 1.130171685406587, 2.975816525909905, -1.066655963108366, 1.634472749360112, 3.5646867055227163, 0.2468102406184588, -0.6054195969355942, -0.7807269049378077, -1.9962517400186413, 2.8355673412685163]

>  <energy>  (10) 
-317.77832682080646

>  <inter_energy>  (10) 
-329.03446580105094

>  <intra_energy>  (10) 
15.980792283282378

>  <rmsd>  (10) 
9.51625

>  <sdf_rank>  (10) 
0

$$$$

     RDKit          3D

 94 95  0  0  0  0  0  0  0  0999 V2000
   20.6246   19.8759    2.1539 O   0  0  0  0  0  0  0  0  0  0  0  0
   12.8330   14.7631  -22.8553 O   0  0  0  0  0  0  0  0  0  0  0  0
   21.2621   16.1851    0.2778 C   0  0  1  0  0  0  0  0  0  0  0  0
   14.1635   18.3070  -21.0102 C   0  0  1  0  0  0  0  0  0  0  0  0
   21.7186   16.4384    1.7209 C   0  0  0  0  0  0  0  0  0  0  0  0
   13.2724   18.2853  -22.2547 C   0  0  0  0  0  0  0  0  0  0  0  0
   21.2366   17.4573   -0.5406 C   0  0  0  0  0  0  0  0  0  0  0  0
   14.0525   16.9925  -20.2174 C   0  0  0  0  0  0  0  0  0  0  0  0
   20.8949   17.5432    2.4015 C   0  0  0  0  0  0  0  0  0  0  0  0
   13.5236   17.0575  -23.1384 C   0  0  0  0  0  0  0  0  0  0  0  0
   22.1956   15.1403   -0.3511 C   0  0  0  0  0  0  0  0  0  0  0  0
   19.8200   15.6447    0.3298 C   0  0  0  0  0  0  0  0  0  0  0  0
   15.6214   18.5823  -21.4111 C   0  0  0  0  0  0  0  0  0  0  0  0
   13.7070   19.4539  -20.1103 C   0  0  0  0  0  0  0  0  0  0  0  0
   20.8892   18.7826    0.1005 C   0  0  0  0  0  0  0  0  0  0  0  0
   13.8571   15.6862  -20.9673 C   0  0  0  0  0  0  0  0  0  0  0  0
   20.7873   18.8313    1.5957 C   0  0  0  0  0  0  0  0  0  0  0  0
   13.3367   15.7532  -22.3918 C   0  0  0  0  0  0  0  0  0  0  0  0
   21.0649   17.2300   -2.0223 C   0  0  0  0  0  0  0  0  0  0  0  0
   14.5536   16.8903  -18.8038 C   0  0  0  0  0  0  0  0  0  0  0  0
   21.1940   20.0485   -0.7201 C   0  0  0  0  0  0  0  0  0  0  0  0
   13.8999   14.3338  -20.2581 C   0  0  0  0  0  0  0  0  0  0  0  0
   22.0180   17.5286   -2.8395 C   0  0  0  0  0  0  0  0  0  0  0  0
   15.8067   16.5822  -18.5868 C   0  0  0  0  0  0  0  0  0  0  0  0
   21.8164   17.1717   -4.2965 C   0  0  0  0  0  0  0  0  0  0  0  0
   16.3074   16.5193  -17.1537 C   0  0  0  0  0  0  0  0  0  0  0  0
   22.9782   17.2782   -5.2472 C   0  0  0  0  0  0  0  0  0  0  0  0
   17.7240   16.0968  -16.8553 C   0  0  0  0  0  0  0  0  0  0  0  0
   20.5878   16.8016   -4.6838 C   0  0  0  0  0  0  0  0  0  0  0  0
   15.4097   16.8882  -16.2299 C   0  0  0  0  0  0  0  0  0  0  0  0
   20.2533   16.5338   -6.1336 C   0  0  0  0  0  0  0  0  0  0  0  0
   15.6683   16.8544  -14.7367 C   0  0  0  0  0  0  0  0  0  0  0  0
   19.5999   17.4901   -6.7945 C   0  0  0  0  0  0  0  0  0  0  0  0
   14.7655   17.4077  -13.9075 C   0  0  0  0  0  0  0  0  0  0  0  0
   19.2442   17.4189   -8.2736 C   0  0  0  0  0  0  0  0  0  0  0  0
   14.9595   17.2959  -12.3892 C   0  0  0  0  0  0  0  0  0  0  0  0
   17.9780   17.1802   -8.5852 C   0  0  0  0  0  0  0  0  0  0  0  0
   16.0942   17.8187  -11.8853 C   0  0  0  0  0  0  0  0  0  0  0  0
   20.3039   17.5815   -9.3526 C   0  0  0  0  0  0  0  0  0  0  0  0
   13.8730   16.7174  -11.5192 C   0  0  0  0  0  0  0  0  0  0  0  0
   17.4156   17.1734   -9.9828 C   0  0  0  0  0  0  0  0  0  0  0  0
   16.3387   17.8877  -10.3926 C   0  0  0  0  0  0  0  0  0  0  0  0
   21.6081   15.5076    2.2966 H   0  0  0  0  0  0  0  0  0  0  0  0
   22.7680   16.7669    1.6919 H   0  0  0  0  0  0  0  0  0  0  0  0
   12.2201   18.2796  -21.9345 H   0  0  0  0  0  0  0  0  0  0  0  0
   13.5104   19.1789  -22.8504 H   0  0  0  0  0  0  0  0  0  0  0  0
   19.8788   17.1587    2.5738 H   0  0  0  0  0  0  0  0  0  0  0  0
   21.4195   17.7980    3.3342 H   0  0  0  0  0  0  0  0  0  0  0  0
   12.8209   17.0828  -23.9843 H   0  0  0  0  0  0  0  0  0  0  0  0
   14.5692   17.0999  -23.4775 H   0  0  0  0  0  0  0  0  0  0  0  0
   22.7014   14.5741    0.4449 H   0  0  0  0  0  0  0  0  0  0  0  0
   21.6072   14.4508   -0.9743 H   0  0  0  0  0  0  0  0  0  0  0  0
   22.9467   15.6476   -0.9743 H   0  0  0  0  0  0  0  0  0  0  0  0
   19.5096   15.5284    1.3786 H   0  0  0  0  0  0  0  0  0  0  0  0
   19.1453   16.3511   -0.1761 H   0  0  0  0  0  0  0  0  0  0  0  0
   19.7756   14.6690   -0.1761 H   0  0  0  0  0  0  0  0  0  0  0  0
   16.2350   18.6983  -20.5055 H   0  0  0  0  0  0  0  0  0  0  0  0
   16.0030   17.7404  -22.0073 H   0  0  0  0  0  0  0  0  0  0  0  0
   15.6696   19.5055  -22.0073 H   0  0  0  0  0  0  0  0  0  0  0  0
   13.8234   19.1616  -19.0563 H   0  0  0  0  0  0  0  0  0  0  0  0
   14.3190   20.3451  -20.3134 H   0  0  0  0  0  0  0  0  0  0  0  0
   12.6500   19.6809  -20.3134 H   0  0  0  0  0  0  0  0  0  0  0  0
   20.1246   16.8085   -2.4071 H   0  0  0  0  0  0  0  0  0  0  0  0
   13.8728   17.0729  -17.9593 H   0  0  0  0  0  0  0  0  0  0  0  0
   21.3961   20.8876   -0.0381 H   0  0  0  0  0  0  0  0  0  0  0  0
   22.0751   19.8710   -1.3542 H   0  0  0  0  0  0  0  0  0  0  0  0
   20.3287   20.2915   -1.3542 H   0  0  0  0  0  0  0  0  0  0  0  0
   13.8950   14.4904  -19.1693 H   0  0  0  0  0  0  0  0  0  0  0  0
   13.0201   13.7402  -20.5472 H   0  0  0  0  0  0  0  0  0  0  0  0
   14.8155   13.7970  -20.5472 H   0  0  0  0  0  0  0  0  0  0  0  0
   22.9378   18.0215   -2.4919 H   0  0  0  0  0  0  0  0  0  0  0  0
   16.4853   16.3725  -19.4268 H   0  0  0  0  0  0  0  0  0  0  0  0
   23.9137   17.3640   -4.6749 H   0  0  0  0  0  0  0  0  0  0  0  0
   23.0170   16.3799   -5.8808 H   0  0  0  0  0  0  0  0  0  0  0  0
   22.8531   18.1687   -5.8808 H   0  0  0  0  0  0  0  0  0  0  0  0
   17.8718   16.0527  -15.7662 H   0  0  0  0  0  0  0  0  0  0  0  0
   17.9100   15.1041  -17.2911 H   0  0  0  0  0  0  0  0  0  0  0  0
   18.4234   16.8255  -17.2911 H   0  0  0  0  0  0  0  0  0  0  0  0
   19.7998   16.6894   -3.9245 H   0  0  0  0  0  0  0  0  0  0  0  0
   14.4255   17.2365  -16.5761 H   0  0  0  0  0  0  0  0  0  0  0  0
   20.5369   15.5902   -6.6226 H   0  0  0  0  0  0  0  0  0  0  0  0
   16.5796   16.3851  -14.3378 H   0  0  0  0  0  0  0  0  0  0  0  0
   19.2984   18.3881   -6.2353 H   0  0  0  0  0  0  0  0  0  0  0  0
   13.8923   17.9378  -14.3155 H   0  0  0  0  0  0  0  0  0  0  0  0
   17.2834   16.9707   -7.7584 H   0  0  0  0  0  0  0  0  0  0  0  0
   16.8606   18.2041  -12.5739 H   0  0  0  0  0  0  0  0  0  0  0  0
   21.2865   17.7323   -8.8818 H   0  0  0  0  0  0  0  0  0  0  0  0
   20.3320   16.6771   -9.9782 H   0  0  0  0  0  0  0  0  0  0  0  0
   20.0595   18.4527   -9.9782 H   0  0  0  0  0  0  0  0  0  0  0  0
   14.1370   16.8579  -10.4606 H   0  0  0  0  0  0  0  0  0  0  0  0
   12.9224   17.2288  -11.7310 H   0  0  0  0  0  0  0  0  0  0  0  0
   13.7666   15.6432  -11.7310 H   0  0  0  0  0  0  0  0  0  0  0  0
   17.9177   16.5397  -10.7287 H   0  0  0  0  0  0  0  0  0  0  0  0
   15.7019   18.4637   -9.7049 H   0  0  0  0  0  0  0  0  0  0  0  0
  1 17  2  0
  2 18  2  0
  3  5  1  0
  3  7  1  0
  3 11  1  6
  3 12  1  0
  4  6  1  0
  4  8  1  0
  4 13  1  6
  4 14  1  0
  5  9  1  0
  6 10  1  0
  7 15  2  0
  7 19  1  0
  8 16  2  0
  8 20  1  0
  9 17  1  0
 10 18  1  0
 15 17  1  0
 15 21  1  0
 16 18  1  0
 16 22  1  0
 19 23  2  3
 20 24  2  3
 23 25  1  0
 24 26  1  0
 25 27  1  0
 25 29  2  3
 26 28  1  0
 26 30  2  3
 29 31  1  0
 30 32  1  0
 31 33  2  3
 32 34  2  3
 33 35  1  0
 34 36  1  0
 35 37  2  3
 35 39  1  0
 36 38  2  3
 36 40  1  0
 37 41  1  0
 38 42  1  0
 41 42  2  3
  5 43  1  0
  5 44  1  0
  6 45  1  0
  6 46  1  0
  9 47  1  0
  9 48  1  0
 10 49  1  0
 10 50  1  0
 11 51  1  0
 11 52  1  0
 11 53  1  0
 12 54  1  0
 12 55  1  0
 12 56  1  0
 13 57  1  0
 13 58  1  0
 13 59  1  0
 14 60  1  0
 14 61  1  0
 14 62  1  0
 19 63  1  0
 20 64  1  0
 21 65  1  0
 21 66  1  0
 21 67  1  0
 22 68  1  0
 22 69  1  0
 22 70  1  0
 23 71  1  0
 24 72  1  0
 27 73  1  0
 27 74  1  0
 27 75  1  0
 28 76  1  0
 28 77  1  0
 28 78  1  0
 29 79  1  0
 30 80  1  0
 31 81  1  0
 32 82  1  0
 33 83  1  0
 34 84  1  0
 37 85  1  0
 38 86  1  0
 39 87  1  0
 39 88  1  0
 39 89  1  0
 40 90  1  0
 40 91  1  0
 40 92  1  0
 41 93  1  0
 42 94  1  0
M  END
>  <filename_input>  (11) 
7ZXV_45D_docked.sdf

>  <pdb_id>  (11) 
7ZXV_45D

>  <pose_rank>  (11) 
10

>  <num_atoms_heavy>  (11) 
42

>  <num_torsions>  (11) 
10

>  <pose>  (11) 
[17.41558239442064, 17.17339927738506, -9.982846774741475, 1.532147093845, 2.378659118989875, 0.07890777173247791, -5.043618809603928, -0.8887708927337464, 0.9707098815278121, 3.0278402572036773, -0.3005283839156172, 4.6720944638130435, -2.3111295222701917, 0.1245093628496318, -3.63010110031911, 2.6968081007385534]

>  <energy>  (11) 
-307.1309642174352

>  <inter_energy>  (11) 
-319.69042776729816

>  <intra_energy>  (11) 
17.146983770370547

>  <rmsd>  (11) 
8.83368

>  <sdf_rank>  (11) 
0

$$$$

     RDKit          3D

 94 95  0  0  0  0  0  0  0  0999 V2000
   12.7853   15.1336  -22.8523 O   0  0  0  0  0  0  0  0  0  0  0  0
   25.2231   17.4030    1.3358 O   0  0  0  0  0  0  0  0  0  0  0  0
   14.2051   18.3838  -20.6232 C   0  0  1  0  0  0  0  0  0  0  0  0
   21.0246   17.2361    1.0556 C   0  0  1  0  0  0  0  0  0  0  0  0
   13.8742   18.5207  -22.1154 C   0  0  0  0  0  0  0  0  0  0  0  0
   21.7697   17.7203    2.3020 C   0  0  0  0  0  0  0  0  0  0  0  0
   14.6244   16.9756  -20.2621 C   0  0  0  0  0  0  0  0  0  0  0  0
   21.9001   17.3573   -0.2043 C   0  0  0  0  0  0  0  0  0  0  0  0
   12.8432   17.4781  -22.5762 C   0  0  0  0  0  0  0  0  0  0  0  0
   23.1303   17.0354    2.4789 C   0  0  0  0  0  0  0  0  0  0  0  0
   15.3059   19.3962  -20.2744 C   0  0  0  0  0  0  0  0  0  0  0  0
   12.9237   18.6985  -19.8274 C   0  0  0  0  0  0  0  0  0  0  0  0
   20.5506   15.7878    1.2549 C   0  0  0  0  0  0  0  0  0  0  0  0
   19.7837   18.1068    0.8671 C   0  0  0  0  0  0  0  0  0  0  0  0
   14.0289   15.7836  -20.9781 C   0  0  0  0  0  0  0  0  0  0  0  0
   23.3964   17.1200   -0.0955 C   0  0  0  0  0  0  0  0  0  0  0  0
   13.1856   16.0450  -22.1901 C   0  0  0  0  0  0  0  0  0  0  0  0
   24.0353   17.2168    1.2782 C   0  0  0  0  0  0  0  0  0  0  0  0
   15.2210   16.8482  -18.8821 C   0  0  0  0  0  0  0  0  0  0  0  0
   21.3017   17.2701   -1.5805 C   0  0  0  0  0  0  0  0  0  0  0  0
   14.7338   14.4310  -20.7732 C   0  0  0  0  0  0  0  0  0  0  0  0
   24.2971   17.0660   -1.3282 C   0  0  0  0  0  0  0  0  0  0  0  0
   14.5566   16.2709  -17.9385 C   0  0  0  0  0  0  0  0  0  0  0  0
   20.9179   16.1073   -2.0419 C   0  0  0  0  0  0  0  0  0  0  0  0
   15.2613   16.0825  -16.6123 C   0  0  0  0  0  0  0  0  0  0  0  0
   20.2807   16.0406   -3.4197 C   0  0  0  0  0  0  0  0  0  0  0  0
   16.4589   15.1742  -16.5383 C   0  0  0  0  0  0  0  0  0  0  0  0
   18.9715   15.3205   -3.6238 C   0  0  0  0  0  0  0  0  0  0  0  0
   14.7603   16.7185  -15.5440 C   0  0  0  0  0  0  0  0  0  0  0  0
   20.9576   16.6822   -4.3816 C   0  0  0  0  0  0  0  0  0  0  0  0
   15.3191   16.5100  -14.1548 C   0  0  0  0  0  0  0  0  0  0  0  0
   20.5409   16.7057   -5.8388 C   0  0  0  0  0  0  0  0  0  0  0  0
   15.1812   17.5123  -13.2862 C   0  0  0  0  0  0  0  0  0  0  0  0
   20.1175   17.8638   -6.3758 C   0  0  0  0  0  0  0  0  0  0  0  0
   15.6211   17.4497  -11.8295 C   0  0  0  0  0  0  0  0  0  0  0  0
   19.7867   17.9312   -7.8730 C   0  0  0  0  0  0  0  0  0  0  0  0
   16.9199   17.3367  -11.5893 C   0  0  0  0  0  0  0  0  0  0  0  0
   18.5139   18.2309   -8.1973 C   0  0  0  0  0  0  0  0  0  0  0  0
   14.6097   17.4816  -10.6938 C   0  0  0  0  0  0  0  0  0  0  0  0
   20.8729   17.7670   -8.9050 C   0  0  0  0  0  0  0  0  0  0  0  0
   17.5542   17.3609  -10.2230 C   0  0  0  0  0  0  0  0  0  0  0  0
   18.0960   18.4558   -9.6351 C   0  0  0  0  0  0  0  0  0  0  0  0
   13.4677   19.5264  -22.2979 H   0  0  0  0  0  0  0  0  0  0  0  0
   14.8008   18.3559  -22.6848 H   0  0  0  0  0  0  0  0  0  0  0  0
   21.9298   18.8053    2.2175 H   0  0  0  0  0  0  0  0  0  0  0  0
   21.1535   17.4682    3.1776 H   0  0  0  0  0  0  0  0  0  0  0  0
   11.8716   17.7329  -22.1278 H   0  0  0  0  0  0  0  0  0  0  0  0
   12.8291   17.5134  -23.6755 H   0  0  0  0  0  0  0  0  0  0  0  0
   23.6275   17.4627    3.3622 H   0  0  0  0  0  0  0  0  0  0  0  0
   22.9471   15.9573    2.5976 H   0  0  0  0  0  0  0  0  0  0  0  0
   15.3953   19.4785  -19.1811 H   0  0  0  0  0  0  0  0  0  0  0  0
   16.2634   19.0566  -20.6961 H   0  0  0  0  0  0  0  0  0  0  0  0
   15.0474   20.3787  -20.6961 H   0  0  0  0  0  0  0  0  0  0  0  0
   13.1389   18.6457  -18.7500 H   0  0  0  0  0  0  0  0  0  0  0  0
   12.5730   19.7095  -20.0821 H   0  0  0  0  0  0  0  0  0  0  0  0
   12.1444   17.9651  -20.0821 H   0  0  0  0  0  0  0  0  0  0  0  0
   20.4793   15.5701    2.3308 H   0  0  0  0  0  0  0  0  0  0  0  0
   19.5630   15.6578    0.7883 H   0  0  0  0  0  0  0  0  0  0  0  0
   21.2701   15.0990    0.7883 H   0  0  0  0  0  0  0  0  0  0  0  0
   19.3811   18.3893    1.8511 H   0  0  0  0  0  0  0  0  0  0  0  0
   20.0540   19.0143    0.3073 H   0  0  0  0  0  0  0  0  0  0  0  0
   19.0223   17.5438    0.3073 H   0  0  0  0  0  0  0  0  0  0  0  0
   16.2254   17.2486  -18.6798 H   0  0  0  0  0  0  0  0  0  0  0  0
   21.1874   18.1758   -2.1942 H   0  0  0  0  0  0  0  0  0  0  0  0
   14.8380   14.2312  -19.6965 H   0  0  0  0  0  0  0  0  0  0  0  0
   14.1373   13.6324  -21.2383 H   0  0  0  0  0  0  0  0  0  0  0  0
   15.7302   14.4627  -21.2383 H   0  0  0  0  0  0  0  0  0  0  0  0
   25.3487   17.0028   -1.0115 H   0  0  0  0  0  0  0  0  0  0  0  0
   24.0418   16.1815   -1.9303 H   0  0  0  0  0  0  0  0  0  0  0  0
   24.1495   17.9746   -1.9303 H   0  0  0  0  0  0  0  0  0  0  0  0
   13.5220   15.9301  -18.0915 H   0  0  0  0  0  0  0  0  0  0  0  0
   21.0542   15.1946   -1.4433 H   0  0  0  0  0  0  0  0  0  0  0  0
   16.7101   14.9837  -15.4845 H   0  0  0  0  0  0  0  0  0  0  0  0
   16.2283   14.2219  -17.0382 H   0  0  0  0  0  0  0  0  0  0  0  0
   17.3138   15.6531  -17.0382 H   0  0  0  0  0  0  0  0  0  0  0  0
   18.5302   15.0778   -2.6458 H   0  0  0  0  0  0  0  0  0  0  0  0
   18.2818   15.9662   -4.1872 H   0  0  0  0  0  0  0  0  0  0  0  0
   19.1476   14.3923   -4.1872 H   0  0  0  0  0  0  0  0  0  0  0  0
   13.9181   17.4124  -15.6822 H   0  0  0  0  0  0  0  0  0  0  0  0
   21.8710   17.2248   -4.0966 H   0  0  0  0  0  0  0  0  0  0  0  0
   15.8182   15.5713  -13.8725 H   0  0  0  0  0  0  0  0  0  0  0  0
   20.5841   15.7904   -6.4473 H   0  0  0  0  0  0  0  0  0  0  0  0
   14.7200   18.4444  -13.6449 H   0  0  0  0  0  0  0  0  0  0  0  0
   20.0087   18.7584   -5.7450 H   0  0  0  0  0  0  0  0  0  0  0  0
   17.5868   17.2157  -12.4557 H   0  0  0  0  0  0  0  0  0  0  0  0
   17.7613   18.3141   -7.3994 H   0  0  0  0  0  0  0  0  0  0  0  0
   15.1399   17.4649   -9.7301 H   0  0  0  0  0  0  0  0  0  0  0  0
   14.0073   18.3992  -10.7649 H   0  0  0  0  0  0  0  0  0  0  0  0
   13.9507   16.6038  -10.7649 H   0  0  0  0  0  0  0  0  0  0  0  0
   21.8393   17.6209   -8.4002 H   0  0  0  0  0  0  0  0  0  0  0  0
   20.6519   16.8921   -9.5340 H   0  0  0  0  0  0  0  0  0  0  0  0
   20.9203   18.6682   -9.5340 H   0  0  0  0  0  0  0  0  0  0  0  0
   17.5797   16.4171   -9.6587 H   0  0  0  0  0  0  0  0  0  0  0  0
   18.2204   19.4176  -10.1542 H   0  0  0  0  0  0  0  0  0  0  0  0
  1 17  2  0
  2 18  2  0
  3  5  1  0
  3  7  1  0
  3 11  1  1
  3 12  1  0
  4  6  1  0
  4  8  1  0
  4 13  1  1
  4 14  1  0
  5  9  1  0
  6 10  1  0
  7 15  2  0
  7 19  1  0
  8 16  2  0
  8 20  1  0
  9 17  1  0
 10 18  1  0
 15 17  1  0
 15 21  1  0
 16 18  1  0
 16 22  1  0
 19 23  2  3
 20 24  2  3
 23 25  1  0
 24 26  1  0
 25 27  1  0
 25 29  2  3
 26 28  1  0
 26 30  2  3
 29 31  1  0
 30 32  1  0
 31 33  2  3
 32 34  2  3
 33 35  1  0
 34 36  1  0
 35 37  2  3
 35 39  1  0
 36 38  2  3
 36 40  1  0
 37 41  1  0
 38 42  1  0
 41 42  2  3
  5 43  1  0
  5 44  1  0
  6 45  1  0
  6 46  1  0
  9 47  1  0
  9 48  1  0
 10 49  1  0
 10 50  1  0
 11 51  1  0
 11 52  1  0
 11 53  1  0
 12 54  1  0
 12 55  1  0
 12 56  1  0
 13 57  1  0
 13 58  1  0
 13 59  1  0
 14 60  1  0
 14 61  1  0
 14 62  1  0
 19 63  1  0
 20 64  1  0
 21 65  1  0
 21 66  1  0
 21 67  1  0
 22 68  1  0
 22 69  1  0
 22 70  1  0
 23 71  1  0
 24 72  1  0
 27 73  1  0
 27 74  1  0
 27 75  1  0
 28 76  1  0
 28 77  1  0
 28 78  1  0
 29 79  1  0
 30 80  1  0
 31 81  1  0
 32 82  1  0
 33 83  1  0
 34 84  1  0
 37 85  1  0
 38 86  1  0
 39 87  1  0
 39 88  1  0
 39 89  1  0
 40 90  1  0
 40 91  1  0
 40 92  1  0
 41 93  1  0
 42 94  1  0
M  END
>  <filename_input>  (12) 
7ZXV_45D_docked.sdf

>  <pdb_id>  (12) 
7ZXV_45D

>  <pose_rank>  (12) 
11

>  <num_atoms_heavy>  (12) 
42

>  <num_torsions>  (12) 
10

>  <pose>  (12) 
[17.55421777425012, 17.360915097055955, -10.223028607633386, -0.7679519582049764, 1.146599312331301, -4.305937816728673, 8.065520476602183, 4.6933181654222444, 5.416172905344648, -1.4315826257288184, -2.710692847737029, -1.9829254030268637, -7.570984174716347, -7.199817182659184, -2.6948155544889496, 2.9225453121481424]

>  <energy>  (12) 
-290.816752170233

>  <inter_energy>  (12) 
-307.406493195171

>  <intra_energy>  (12) 
17.715526987212915

>  <rmsd>  (12) 
8.71487

>  <sdf_rank>  (12) 
0

$$$$

     RDKit          3D

 94 95  0  0  0  0  0  0  0  0999 V2000
   26.5676    9.0456   -1.9954 O   0  0  0  0  0  0  0  0  0  0  0  0
    8.8640   -2.1147  -19.9114 O   0  0  0  0  0  0  0  0  0  0  0  0
   27.8026    6.2081   -4.8188 C   0  0  1  0  0  0  0  0  0  0  0  0
   12.8337   -1.3009  -21.0575 C   0  0  1  0  0  0  0  0  0  0  0  0
   28.7708    6.7614   -3.7645 C   0  0  0  0  0  0  0  0  0  0  0  0
   11.8101   -1.9737  -21.9756 C   0  0  0  0  0  0  0  0  0  0  0  0
   26.7155    7.2010   -5.1672 C   0  0  0  0  0  0  0  0  0  0  0  0
   12.1435   -0.4839  -19.9508 C   0  0  0  0  0  0  0  0  0  0  0  0
   28.0344    7.2694   -2.5147 C   0  0  0  0  0  0  0  0  0  0  0  0
   10.7818   -2.8072  -21.2015 C   0  0  0  0  0  0  0  0  0  0  0  0
   28.6122    5.8139   -6.0629 C   0  0  0  0  0  0  0  0  0  0  0  0
   27.1144    4.9669   -4.2188 C   0  0  0  0  0  0  0  0  0  0  0  0
   13.7728   -2.3566  -20.4529 C   0  0  0  0  0  0  0  0  0  0  0  0
   13.6855   -0.3520  -21.8987 C   0  0  0  0  0  0  0  0  0  0  0  0
   26.1736    8.1525   -4.1236 C   0  0  0  0  0  0  0  0  0  0  0  0
   10.8358   -0.9847  -19.3628 C   0  0  0  0  0  0  0  0  0  0  0  0
   26.8904    8.2310   -2.8088 C   0  0  0  0  0  0  0  0  0  0  0  0
   10.0350   -1.9955  -20.1638 C   0  0  0  0  0  0  0  0  0  0  0  0
   25.9077    6.8239   -6.3845 C   0  0  0  0  0  0  0  0  0  0  0  0
   12.9038    0.5282  -19.1402 C   0  0  0  0  0  0  0  0  0  0  0  0
   25.3135    9.3220   -4.6343 C   0  0  0  0  0  0  0  0  0  0  0  0
   10.1827   -0.3119  -18.1567 C   0  0  0  0  0  0  0  0  0  0  0  0
   24.6828    6.4384   -6.2568 C   0  0  0  0  0  0  0  0  0  0  0  0
   13.6579    0.1234  -18.1503 C   0  0  0  0  0  0  0  0  0  0  0  0
   23.9026    6.1821   -7.5282 C   0  0  0  0  0  0  0  0  0  0  0  0
   14.4494    1.1548  -17.3638 C   0  0  0  0  0  0  0  0  0  0  0  0
   23.7360    7.2964   -8.5260 C   0  0  0  0  0  0  0  0  0  0  0  0
   14.7993    2.4853  -17.9815 C   0  0  0  0  0  0  0  0  0  0  0  0
   23.3630    4.9665   -7.6944 C   0  0  0  0  0  0  0  0  0  0  0  0
   14.7637    0.7864  -16.1146 C   0  0  0  0  0  0  0  0  0  0  0  0
   22.4726    4.6414   -8.8721 C   0  0  0  0  0  0  0  0  0  0  0  0
   15.5925    1.6296  -15.1661 C   0  0  0  0  0  0  0  0  0  0  0  0
   22.1664    3.3584   -9.0681 C   0  0  0  0  0  0  0  0  0  0  0  0
   16.6409    1.0651  -14.5406 C   0  0  0  0  0  0  0  0  0  0  0  0
   21.2296    2.8588  -10.1601 C   0  0  0  0  0  0  0  0  0  0  0  0
   17.5512    1.9265  -13.6548 C   0  0  0  0  0  0  0  0  0  0  0  0
   20.0652    2.3522   -9.7795 C   0  0  0  0  0  0  0  0  0  0  0  0
   17.2171    2.0166  -12.3528 C   0  0  0  0  0  0  0  0  0  0  0  0
   21.6257    2.9072  -11.6279 C   0  0  0  0  0  0  0  0  0  0  0  0
   18.8051    2.5448  -14.2184 C   0  0  0  0  0  0  0  0  0  0  0  0
   18.9696    1.9022  -10.7106 C   0  0  0  0  0  0  0  0  0  0  0  0
   18.1075    2.7265  -11.3550 C   0  0  0  0  0  0  0  0  0  0  0  0
   29.4656    5.9624   -3.4667 H   0  0  0  0  0  0  0  0  0  0  0  0
   29.3081    7.6114   -4.2104 H   0  0  0  0  0  0  0  0  0  0  0  0
   11.2782   -1.1944  -22.5410 H   0  0  0  0  0  0  0  0  0  0  0  0
   12.3581   -2.6558  -22.6422 H   0  0  0  0  0  0  0  0  0  0  0  0
   27.6249    6.4003   -1.9791 H   0  0  0  0  0  0  0  0  0  0  0  0
   28.7716    7.8292   -1.9205 H   0  0  0  0  0  0  0  0  0  0  0  0
   10.0543   -3.2207  -21.9155 H   0  0  0  0  0  0  0  0  0  0  0  0
   11.3282   -3.6018  -20.6722 H   0  0  0  0  0  0  0  0  0  0  0  0
   29.5608    5.3519   -5.7519 H   0  0  0  0  0  0  0  0  0  0  0  0
   28.0345    5.0962   -6.6640 H   0  0  0  0  0  0  0  0  0  0  0  0
   28.8210    6.7111   -6.6640 H   0  0  0  0  0  0  0  0  0  0  0  0
   27.1465    5.0248   -3.1208 H   0  0  0  0  0  0  0  0  0  0  0  0
   26.0673    4.9305   -4.5536 H   0  0  0  0  0  0  0  0  0  0  0  0
   27.6383    4.0594   -4.5536 H   0  0  0  0  0  0  0  0  0  0  0  0
   13.7257   -2.3036  -19.3552 H   0  0  0  0  0  0  0  0  0  0  0  0
   13.4614   -3.3578  -20.7855 H   0  0  0  0  0  0  0  0  0  0  0  0
   14.8035   -2.1639  -20.7855 H   0  0  0  0  0  0  0  0  0  0  0  0
   14.2715    0.3007  -21.2349 H   0  0  0  0  0  0  0  0  0  0  0  0
   14.3676   -0.9367  -22.5334 H   0  0  0  0  0  0  0  0  0  0  0  0
   13.0309    0.2632  -22.5334 H   0  0  0  0  0  0  0  0  0  0  0  0
   26.3642    6.8778   -7.3838 H   0  0  0  0  0  0  0  0  0  0  0  0
   12.8270    1.5997  -19.3769 H   0  0  0  0  0  0  0  0  0  0  0  0
   24.9046    9.8779   -3.7777 H   0  0  0  0  0  0  0  0  0  0  0  0
   25.9340    9.9941   -5.2452 H   0  0  0  0  0  0  0  0  0  0  0  0
   24.4870    8.9298   -5.2452 H   0  0  0  0  0  0  0  0  0  0  0  0
   10.5963   -0.7380  -17.2307 H   0  0  0  0  0  0  0  0  0  0  0  0
   10.3852    0.7689  -18.1854 H   0  0  0  0  0  0  0  0  0  0  0  0
    9.0963   -0.4823  -18.1854 H   0  0  0  0  0  0  0  0  0  0  0  0
   24.2251    6.3019   -5.2659 H   0  0  0  0  0  0  0  0  0  0  0  0
   13.7178   -0.9442  -17.8922 H   0  0  0  0  0  0  0  0  0  0  0  0
   23.5937    8.2479   -7.9928 H   0  0  0  0  0  0  0  0  0  0  0  0
   24.6345    7.3607   -9.1573 H   0  0  0  0  0  0  0  0  0  0  0  0
   22.8580    7.0949   -9.1573 H   0  0  0  0  0  0  0  0  0  0  0  0
   14.9925    3.2196  -17.1856 H   0  0  0  0  0  0  0  0  0  0  0  0
   15.6990    2.3749  -18.6048 H   0  0  0  0  0  0  0  0  0  0  0  0
   13.9618    2.8318  -18.6048 H   0  0  0  0  0  0  0  0  0  0  0  0
   23.5741    4.1826   -6.9522 H   0  0  0  0  0  0  0  0  0  0  0  0
   14.3982   -0.1870  -15.7555 H   0  0  0  0  0  0  0  0  0  0  0  0
   22.0934    5.4297   -9.5391 H   0  0  0  0  0  0  0  0  0  0  0  0
   15.3406    2.6861  -14.9921 H   0  0  0  0  0  0  0  0  0  0  0  0
   22.6195    2.6130   -8.3980 H   0  0  0  0  0  0  0  0  0  0  0  0
   16.8448   -0.0088  -14.6634 H   0  0  0  0  0  0  0  0  0  0  0  0
   19.8847    2.2527   -8.6990 H   0  0  0  0  0  0  0  0  0  0  0  0
   16.2760    1.5641  -12.0068 H   0  0  0  0  0  0  0  0  0  0  0  0
   22.7146    3.0402  -11.7096 H   0  0  0  0  0  0  0  0  0  0  0  0
   21.3334    1.9667  -12.1178 H   0  0  0  0  0  0  0  0  0  0  0  0
   21.1156    3.7497  -12.1178 H   0  0  0  0  0  0  0  0  0  0  0  0
   19.4578    2.8667  -13.3936 H   0  0  0  0  0  0  0  0  0  0  0  0
   19.3334    1.8039  -14.8364 H   0  0  0  0  0  0  0  0  0  0  0  0
   18.5390    3.4150  -14.8364 H   0  0  0  0  0  0  0  0  0  0  0  0
   18.8608    0.8209  -10.8808 H   0  0  0  0  0  0  0  0  0  0  0  0
   18.0594    3.8098  -11.1701 H   0  0  0  0  0  0  0  0  0  0  0  0
  1 17  2  0
  2 18  2  0
  3  5  1  0
  3  7  1  0
  3 11  1  6
  3 12  1  0
  4  6  1  0
  4  8  1  0
  4 13  1  1
  4 14  1  0
  5  9  1  0
  6 10  1  0
  7 15  2  0
  7 19  1  0
  8 16  2  0
  8 20  1  0
  9 17  1  0
 10 18  1  0
 15 17  1  0
 15 21  1  0
 16 18  1  0
 16 22  1  0
 19 23  2  3
 20 24  2  3
 23 25  1  0
 24 26  1  0
 25 27  1  0
 25 29  2  3
 26 28  1  0
 26 30  2  3
 29 31  1  0
 30 32  1  0
 31 33  2  3
 32 34  2  3
 33 35  1  0
 34 36  1  0
 35 37  2  3
 35 39  1  0
 36 38  2  3
 36 40  1  0
 37 41  1  0
 38 42  1  0
 41 42  2  3
  5 43  1  0
  5 44  1  0
  6 45  1  0
  6 46  1  0
  9 47  1  0
  9 48  1  0
 10 49  1  0
 10 50  1  0
 11 51  1  0
 11 52  1  0
 11 53  1  0
 12 54  1  0
 12 55  1  0
 12 56  1  0
 13 57  1  0
 13 58  1  0
 13 59  1  0
 14 60  1  0
 14 61  1  0
 14 62  1  0
 19 63  1  0
 20 64  1  0
 21 65  1  0
 21 66  1  0
 21 67  1  0
 22 68  1  0
 22 69  1  0
 22 70  1  0
 23 71  1  0
 24 72  1  0
 27 73  1  0
 27 74  1  0
 27 75  1  0
 28 76  1  0
 28 77  1  0
 28 78  1  0
 29 79  1  0
 30 80  1  0
 31 81  1  0
 32 82  1  0
 33 83  1  0
 34 84  1  0
 37 85  1  0
 38 86  1  0
 39 87  1  0
 39 88  1  0
 39 89  1  0
 40 90  1  0
 40 91  1  0
 40 92  1  0
 41 93  1  0
 42 94  1  0
M  END
>  <filename_input>  (13) 
7ZXV_45D_docked.sdf

>  <pdb_id>  (13) 
7ZXV_45D

>  <pose_rank>  (13) 
12

>  <num_atoms_heavy>  (13) 
42

>  <num_torsions>  (13) 
10

>  <pose>  (13) 
[18.969649761494907, 1.9021882462580428, -10.710596969857598, -2.256043456044454, -2.3531481540474792, 1.3583301367415654, 2.100114501390321, 1.606848822269591, -0.5843583909755232, -1.3176889836460222, -2.6906499824361183, 0.9750099597600981, -1.766541532243905, 1.1551260549901115, -0.8372561645688056, -3.456343826588885]

>  <energy>  (13) 
-286.37018895242755

>  <inter_energy>  (13) 
-299.5802683817472

>  <intra_energy>  (13) 
19.869933872360086

>  <rmsd>  (13) 
11.6155

>  <sdf_rank>  (13) 
0

$$$$

     RDKit          3D

 94 95  0  0  0  0  0  0  0  0999 V2000
   12.2648   15.4062  -22.8095 O   0  0  0  0  0  0  0  0  0  0  0  0
   19.5230   25.2985    1.2682 O   0  0  0  0  0  0  0  0  0  0  0  0
   14.6024   18.0724  -20.5789 C   0  0  1  0  0  0  0  0  0  0  0  0
   21.4752   21.5707    1.1046 C   0  0  1  0  0  0  0  0  0  0  0  0
   14.5099   18.1753  -22.1073 C   0  0  0  0  0  0  0  0  0  0  0  0
   20.7664   22.0993    2.3542 C   0  0  0  0  0  0  0  0  0  0  0  0
   14.3962   16.6547  -20.0924 C   0  0  0  0  0  0  0  0  0  0  0  0
   20.9382   22.2423   -0.1717 C   0  0  0  0  0  0  0  0  0  0  0  0
   13.2073   17.5654  -22.6491 C   0  0  0  0  0  0  0  0  0  0  0  0
   20.8031   23.6293    2.4502 C   0  0  0  0  0  0  0  0  0  0  0  0
   15.9688   18.6167  -20.1368 C   0  0  0  0  0  0  0  0  0  0  0  0
   13.4711   18.9310  -19.9813 C   0  0  0  0  0  0  0  0  0  0  0  0
   22.9928   21.7761    1.2336 C   0  0  0  0  0  0  0  0  0  0  0  0
   21.2190   20.0681    1.0043 C   0  0  0  0  0  0  0  0  0  0  0  0
   13.4599   15.7157  -20.8200 C   0  0  0  0  0  0  0  0  0  0  0  0
   20.5102   23.6988   -0.1217 C   0  0  0  0  0  0  0  0  0  0  0  0
   12.9184   16.1567  -22.1470 C   0  0  0  0  0  0  0  0  0  0  0  0
   20.2015   24.3046    1.2355 C   0  0  0  0  0  0  0  0  0  0  0  0
   14.7472   16.4478  -18.6395 C   0  0  0  0  0  0  0  0  0  0  0  0
   21.2208   21.6686   -1.5321 C   0  0  0  0  0  0  0  0  0  0  0  0
   13.5530   14.2242  -20.4522 C   0  0  0  0  0  0  0  0  0  0  0  0
   20.1213   24.4698   -1.3819 C   0  0  0  0  0  0  0  0  0  0  0  0
   15.6079   15.5477  -18.3016 C   0  0  0  0  0  0  0  0  0  0  0  0
   20.2615   21.0666   -2.1877 C   0  0  0  0  0  0  0  0  0  0  0  0
   15.9907   15.4718  -16.8392 C   0  0  0  0  0  0  0  0  0  0  0  0
   20.5525   20.5248   -3.5770 C   0  0  0  0  0  0  0  0  0  0  0  0
   17.1496   14.6049  -16.4264 C   0  0  0  0  0  0  0  0  0  0  0  0
   21.6140   21.1599   -4.4397 C   0  0  0  0  0  0  0  0  0  0  0  0
   15.2501   16.1660  -15.9638 C   0  0  0  0  0  0  0  0  0  0  0  0
   19.8218   19.4576   -3.9266 C   0  0  0  0  0  0  0  0  0  0  0  0
   15.4767   16.0703  -14.4722 C   0  0  0  0  0  0  0  0  0  0  0  0
   19.9027   18.7827   -5.2814 C   0  0  0  0  0  0  0  0  0  0  0  0
   15.1652   17.1397  -13.7391 C   0  0  0  0  0  0  0  0  0  0  0  0
   18.7621   18.4506   -5.9120 C   0  0  0  0  0  0  0  0  0  0  0  0
   15.2635   17.1949  -12.2202 C   0  0  0  0  0  0  0  0  0  0  0  0
   18.8205   17.8583   -7.3266 C   0  0  0  0  0  0  0  0  0  0  0  0
   16.4049   17.6216  -11.6985 C   0  0  0  0  0  0  0  0  0  0  0  0
   17.8543   18.2432   -8.1828 C   0  0  0  0  0  0  0  0  0  0  0  0
   14.1110   16.7470  -11.3343 C   0  0  0  0  0  0  0  0  0  0  0  0
   19.9694   16.9740   -7.7394 C   0  0  0  0  0  0  0  0  0  0  0  0
   16.6583   17.8411  -10.2297 C   0  0  0  0  0  0  0  0  0  0  0  0
   17.8790   17.8325   -9.6400 C   0  0  0  0  0  0  0  0  0  0  0  0
   14.5514   19.2363  -22.3947 H   0  0  0  0  0  0  0  0  0  0  0  0
   15.3520   17.6127  -22.5366 H   0  0  0  0  0  0  0  0  0  0  0  0
   19.7162   21.7730    2.3281 H   0  0  0  0  0  0  0  0  0  0  0  0
   21.2942   21.6976    3.2318 H   0  0  0  0  0  0  0  0  0  0  0  0
   12.3720   18.2158  -22.3502 H   0  0  0  0  0  0  0  0  0  0  0  0
   13.3234   17.4932  -23.7406 H   0  0  0  0  0  0  0  0  0  0  0  0
   20.2383   23.9399    3.3416 H   0  0  0  0  0  0  0  0  0  0  0  0
   21.8584   23.9336    2.5115 H   0  0  0  0  0  0  0  0  0  0  0  0
   16.0176   18.6361  -19.0381 H   0  0  0  0  0  0  0  0  0  0  0  0
   16.7660   17.9674  -20.5279 H   0  0  0  0  0  0  0  0  0  0  0  0
   16.1013   19.6362  -20.5279 H   0  0  0  0  0  0  0  0  0  0  0  0
   13.5223   18.8922  -18.8832 H   0  0  0  0  0  0  0  0  0  0  0  0
   13.5846   19.9724  -20.3170 H   0  0  0  0  0  0  0  0  0  0  0  0
   12.4987   18.5415  -20.3170 H   0  0  0  0  0  0  0  0  0  0  0  0
   23.2686   21.8134    2.2978 H   0  0  0  0  0  0  0  0  0  0  0  0
   23.5184   20.9408    0.7476 H   0  0  0  0  0  0  0  0  0  0  0  0
   23.2776   22.7209    0.7476 H   0  0  0  0  0  0  0  0  0  0  0  0
   21.1460   19.6403    2.0151 H   0  0  0  0  0  0  0  0  0  0  0  0
   20.2778   19.8920    0.4628 H   0  0  0  0  0  0  0  0  0  0  0  0
   22.0486   19.5900    0.4628 H   0  0  0  0  0  0  0  0  0  0  0  0
   14.2680   17.0661  -17.8662 H   0  0  0  0  0  0  0  0  0  0  0  0
   22.2251   21.7542   -1.9727 H   0  0  0  0  0  0  0  0  0  0  0  0
   13.5597   14.1162  -19.3575 H   0  0  0  0  0  0  0  0  0  0  0  0
   12.6865   13.6892  -20.8681 H   0  0  0  0  0  0  0  0  0  0  0  0
   14.4793   13.8011  -20.8681 H   0  0  0  0  0  0  0  0  0  0  0  0
   19.6427   25.4187   -1.0981 H   0  0  0  0  0  0  0  0  0  0  0  0
   21.0225   24.6774   -1.9775 H   0  0  0  0  0  0  0  0  0  0  0  0
   19.4187   23.8685   -1.9775 H   0  0  0  0  0  0  0  0  0  0  0  0
   16.0448   14.8645  -19.0448 H   0  0  0  0  0  0  0  0  0  0  0  0
   19.2625   20.9548   -1.7410 H   0  0  0  0  0  0  0  0  0  0  0  0
   17.2041   14.5641  -15.3285 H   0  0  0  0  0  0  0  0  0  0  0  0
   17.0079   13.5893  -16.8245 H   0  0  0  0  0  0  0  0  0  0  0  0
   18.0838   15.0278  -16.8245 H   0  0  0  0  0  0  0  0  0  0  0  0
   22.3812   21.6189   -3.7988 H   0  0  0  0  0  0  0  0  0  0  0  0
   22.0787   20.3913   -5.0748 H   0  0  0  0  0  0  0  0  0  0  0  0
   21.1564   21.9327   -5.0748 H   0  0  0  0  0  0  0  0  0  0  0  0
   14.4543   16.8246  -16.3419 H   0  0  0  0  0  0  0  0  0  0  0  0
   19.1207   19.0462   -3.1855 H   0  0  0  0  0  0  0  0  0  0  0  0
   15.8813   15.1572  -14.0111 H   0  0  0  0  0  0  0  0  0  0  0  0
   20.8785   18.5680   -5.7415 H   0  0  0  0  0  0  0  0  0  0  0  0
   14.8147   18.0399  -14.2651 H   0  0  0  0  0  0  0  0  0  0  0  0
   17.7920   18.6028   -5.4162 H   0  0  0  0  0  0  0  0  0  0  0  0
   17.2321   17.8320  -12.3924 H   0  0  0  0  0  0  0  0  0  0  0  0
   17.0286   18.8701   -7.8150 H   0  0  0  0  0  0  0  0  0  0  0  0
   14.3962   16.8578  -10.2777 H   0  0  0  0  0  0  0  0  0  0  0  0
   13.2264   17.3667  -11.5423 H   0  0  0  0  0  0  0  0  0  0  0  0
   13.8771   15.6925  -11.5423 H   0  0  0  0  0  0  0  0  0  0  0  0
   20.4739   16.5857   -6.8424 H   0  0  0  0  0  0  0  0  0  0  0  0
   19.5885   16.1338   -8.3386 H   0  0  0  0  0  0  0  0  0  0  0  0
   20.6841   17.5573   -8.3386 H   0  0  0  0  0  0  0  0  0  0  0  0
   15.7851   18.0225   -9.5857 H   0  0  0  0  0  0  0  0  0  0  0  0
   18.8012   17.5531  -10.1705 H   0  0  0  0  0  0  0  0  0  0  0  0
  1 17  2  0
  2 18  2  0
  3  5  1  0
  3  7  1  0
  3 11  1  1
  3 12  1  0
  4  6  1  0
  4  8  1  0
  4 13  1  1
  4 14  1  0
  5  9  1  0
  6 10  1  0
  7 15  2  0
  7 19  1  0
  8 16  2  0
  8 20  1  0
  9 17  1  0
 10 18  1  0
 15 17  1  0
 15 21  1  0
 16 18  1  0
 16 22  1  0
 19 23  2  3
 20 24  2  3
 23 25  1  0
 24 26  1  0
 25 27  1  0
 25 29  2  3
 26 28  1  0
 26 30  2  3
 29 31  1  0
 30 32  1  0
 31 33  2  3
 32 34  2  3
 33 35  1  0
 34 36  1  0
 35 37  2  3
 35 39  1  0
 36 38  2  3
 36 40  1  0
 37 41  1  0
 38 42  1  0
 41 42  2  3
  5 43  1  0
  5 44  1  0
  6 45  1  0
  6 46  1  0
  9 47  1  0
  9 48  1  0
 10 49  1  0
 10 50  1  0
 11 51  1  0
 11 52  1  0
 11 53  1  0
 12 54  1  0
 12 55  1  0
 12 56  1  0
 13 57  1  0
 13 58  1  0
 13 59  1  0
 14 60  1  0
 14 61  1  0
 14 62  1  0
 19 63  1  0
 20 64  1  0
 21 65  1  0
 21 66  1  0
 21 67  1  0
 22 68  1  0
 22 69  1  0
 22 70  1  0
 23 71  1  0
 24 72  1  0
 27 73  1  0
 27 74  1  0
 27 75  1  0
 28 76  1  0
 28 77  1  0
 28 78  1  0
 29 79  1  0
 30 80  1  0
 31 81  1  0
 32 82  1  0
 33 83  1  0
 34 84  1  0
 37 85  1  0
 38 86  1  0
 39 87  1  0
 39 88  1  0
 39 89  1  0
 40 90  1  0
 40 91  1  0
 40 92  1  0
 41 93  1  0
 42 94  1  0
M  END
>  <filename_input>  (14) 
7ZXV_45D_docked.sdf

>  <pdb_id>  (14) 
7ZXV_45D

>  <pose_rank>  (14) 
13

>  <num_atoms_heavy>  (14) 
42

>  <num_torsions>  (14) 
10

>  <pose>  (14) 
[16.658294812221726, 17.841137239700586, -10.229654528944575, 4.16126676636162, 2.002858407877355, -2.969791648202763, -0.09291547116583224, 5.143318205308653, -0.8981325436156589, -3.2602822249538557, -0.47773515615004686, -0.9468640688847346, 0.45590716415297333, 1.062840272601052, -0.9168947961399131, -0.20064976953337957]

>  <energy>  (14) 
-275.3331705234025

>  <inter_energy>  (14) 
-292.68595998543907

>  <intra_energy>  (14) 
15.953291992533542

>  <rmsd>  (14) 
11.2122

>  <sdf_rank>  (14) 
0

$$$$

     RDKit          3D

 94 95  0  0  0  0  0  0  0  0999 V2000
   20.9836   13.7487  -26.3295 O   0  0  0  0  0  0  0  0  0  0  0  0
   32.2237   16.2616   -1.0807 O   0  0  0  0  0  0  0  0  0  0  0  0
   23.4707   11.8673  -23.5326 C   0  0  1  0  0  0  0  0  0  0  0  0
   33.3423   13.8822   -4.3703 C   0  0  1  0  0  0  0  0  0  0  0  0
   22.3807   11.0909  -24.2836 C   0  0  0  0  0  0  0  0  0  0  0  0
   33.9839   13.7648   -2.9854 C   0  0  0  0  0  0  0  0  0  0  0  0
   23.1158   13.3290  -23.3694 C   0  0  0  0  0  0  0  0  0  0  0  0
   31.9421   14.5157   -4.2884 C   0  0  0  0  0  0  0  0  0  0  0  0
   22.0241   11.7491  -25.6260 C   0  0  0  0  0  0  0  0  0  0  0  0
   33.9991   15.0979   -2.2277 C   0  0  0  0  0  0  0  0  0  0  0  0
   23.6942   11.1960  -22.1695 C   0  0  0  0  0  0  0  0  0  0  0  0
   24.7595   11.7999  -24.3744 C   0  0  0  0  0  0  0  0  0  0  0  0
   34.2544   14.6906   -5.3064 C   0  0  0  0  0  0  0  0  0  0  0  0
   33.2040   12.4790   -4.9580 C   0  0  0  0  0  0  0  0  0  0  0  0
   22.3192   14.0547  -24.4310 C   0  0  0  0  0  0  0  0  0  0  0  0
   31.6732   15.5933   -3.2523 C   0  0  0  0  0  0  0  0  0  0  0  0
   21.7117   13.2368  -25.5312 C   0  0  0  0  0  0  0  0  0  0  0  0
   32.6159   15.6933   -2.0667 C   0  0  0  0  0  0  0  0  0  0  0  0
   24.0099   14.0737  -22.4089 C   0  0  0  0  0  0  0  0  0  0  0  0
   30.9808   14.4333   -5.4411 C   0  0  0  0  0  0  0  0  0  0  0  0
   21.7394   15.4265  -24.0432 C   0  0  0  0  0  0  0  0  0  0  0  0
   30.3606   16.3744   -3.2218 C   0  0  0  0  0  0  0  0  0  0  0  0
   23.5451   14.4896  -21.2792 C   0  0  0  0  0  0  0  0  0  0  0  0
   31.0937   15.2785   -6.4337 C   0  0  0  0  0  0  0  0  0  0  0  0
   24.5265   15.1311  -20.3220 C   0  0  0  0  0  0  0  0  0  0  0  0
   30.1383   15.1589   -7.6091 C   0  0  0  0  0  0  0  0  0  0  0  0
   25.9178   15.4497  -20.7991 C   0  0  0  0  0  0  0  0  0  0  0  0
   30.5807   14.5004   -8.8916 C   0  0  0  0  0  0  0  0  0  0  0  0
   24.1145   15.3608  -19.0674 C   0  0  0  0  0  0  0  0  0  0  0  0
   28.9120   15.6509   -7.3866 C   0  0  0  0  0  0  0  0  0  0  0  0
   25.0484   15.8923  -18.0039 C   0  0  0  0  0  0  0  0  0  0  0  0
   27.8125   15.6885   -8.4293 C   0  0  0  0  0  0  0  0  0  0  0  0
   24.5763   15.9628  -16.7589 C   0  0  0  0  0  0  0  0  0  0  0  0
   26.9162   16.6906   -8.3938 C   0  0  0  0  0  0  0  0  0  0  0  0
   25.3976   16.4067  -15.5555 C   0  0  0  0  0  0  0  0  0  0  0  0
   25.8567   16.8020   -9.4985 C   0  0  0  0  0  0  0  0  0  0  0  0
   25.0511   15.9251  -14.3700 C   0  0  0  0  0  0  0  0  0  0  0  0
   26.2191   16.3846  -10.7270 C   0  0  0  0  0  0  0  0  0  0  0  0
   26.5493   17.3896  -15.7006 C   0  0  0  0  0  0  0  0  0  0  0  0
   24.4586   17.2629   -9.1746 C   0  0  0  0  0  0  0  0  0  0  0  0
   25.7987   16.1656  -13.0844 C   0  0  0  0  0  0  0  0  0  0  0  0
   25.2239   16.3211  -11.8664 C   0  0  0  0  0  0  0  0  0  0  0  0
   22.7401   10.0689  -24.4739 H   0  0  0  0  0  0  0  0  0  0  0  0
   21.4761   11.0854  -23.6578 H   0  0  0  0  0  0  0  0  0  0  0  0
   33.4161   13.0305   -2.3951 H   0  0  0  0  0  0  0  0  0  0  0  0
   35.0284   13.4505   -3.1276 H   0  0  0  0  0  0  0  0  0  0  0  0
   22.8753   11.6187  -26.3104 H   0  0  0  0  0  0  0  0  0  0  0  0
   21.1080   11.2570  -25.9846 H   0  0  0  0  0  0  0  0  0  0  0  0
   34.4287   14.9304   -1.2290 H   0  0  0  0  0  0  0  0  0  0  0  0
   34.6004   15.8075   -2.8149 H   0  0  0  0  0  0  0  0  0  0  0  0
   23.4568   11.9091  -21.3663 H   0  0  0  0  0  0  0  0  0  0  0  0
   23.0407   10.3154  -22.0830 H   0  0  0  0  0  0  0  0  0  0  0  0
   24.7451   10.8827  -22.0830 H   0  0  0  0  0  0  0  0  0  0  0  0
   25.6321   11.7543  -23.7061 H   0  0  0  0  0  0  0  0  0  0  0  0
   24.7364   10.9018  -25.0091 H   0  0  0  0  0  0  0  0  0  0  0  0
   24.8302   12.6956  -25.0091 H   0  0  0  0  0  0  0  0  0  0  0  0
   34.9448   15.3025   -4.7072 H   0  0  0  0  0  0  0  0  0  0  0  0
   34.8314   14.0019   -5.9410 H   0  0  0  0  0  0  0  0  0  0  0  0
   33.6399   15.3461   -5.9410 H   0  0  0  0  0  0  0  0  0  0  0  0
   33.1317   11.7451   -4.1418 H   0  0  0  0  0  0  0  0  0  0  0  0
   32.2966   12.4288   -5.5777 H   0  0  0  0  0  0  0  0  0  0  0  0
   34.0842   12.2526   -5.5777 H   0  0  0  0  0  0  0  0  0  0  0  0
   25.0610   14.2626  -22.6723 H   0  0  0  0  0  0  0  0  0  0  0  0
   30.1895   13.6693   -5.4501 H   0  0  0  0  0  0  0  0  0  0  0  0
   21.7030   15.5127  -22.9472 H   0  0  0  0  0  0  0  0  0  0  0  0
   22.3777   16.2234  -24.4526 H   0  0  0  0  0  0  0  0  0  0  0  0
   20.7231   15.5241  -24.4526 H   0  0  0  0  0  0  0  0  0  0  0  0
   30.0634   16.5513   -2.1775 H   0  0  0  0  0  0  0  0  0  0  0  0
   30.4959   17.3390   -3.7329 H   0  0  0  0  0  0  0  0  0  0  0  0
   29.5773   15.7954   -3.7329 H   0  0  0  0  0  0  0  0  0  0  0  0
   22.4808   14.3824  -21.0227 H   0  0  0  0  0  0  0  0  0  0  0  0
   31.8663   16.0613   -6.4175 H   0  0  0  0  0  0  0  0  0  0  0  0
   26.5773   15.6007  -19.9318 H   0  0  0  0  0  0  0  0  0  0  0  0
   26.2970   14.6152  -21.4072 H   0  0  0  0  0  0  0  0  0  0  0  0
   25.8961   16.3661  -21.4072 H   0  0  0  0  0  0  0  0  0  0  0  0
   31.1802   13.6082   -8.6578 H   0  0  0  0  0  0  0  0  0  0  0  0
   29.6968   14.2054   -9.4762 H   0  0  0  0  0  0  0  0  0  0  0  0
   31.1878   15.2072   -9.4762 H   0  0  0  0  0  0  0  0  0  0  0  0
   23.0662   15.1567  -18.8039 H   0  0  0  0  0  0  0  0  0  0  0  0
   28.6898   16.0518   -6.3867 H   0  0  0  0  0  0  0  0  0  0  0  0
   26.0739   16.2075  -18.2470 H   0  0  0  0  0  0  0  0  0  0  0  0
   27.7487   14.9087   -9.2025 H   0  0  0  0  0  0  0  0  0  0  0  0
   23.5261   15.6824  -16.5900 H   0  0  0  0  0  0  0  0  0  0  0  0
   26.9425   17.4268   -7.5769 H   0  0  0  0  0  0  0  0  0  0  0  0
   24.1466   15.3009  -14.3212 H   0  0  0  0  0  0  0  0  0  0  0  0
   27.2616   16.0829  -10.9065 H   0  0  0  0  0  0  0  0  0  0  0  0
   26.9022   17.6907  -14.7032 H   0  0  0  0  0  0  0  0  0  0  0  0
   27.3724   16.9112  -16.2518 H   0  0  0  0  0  0  0  0  0  0  0  0
   26.2063   18.2776  -16.2518 H   0  0  0  0  0  0  0  0  0  0  0  0
   24.3302   17.3052   -8.0829 H   0  0  0  0  0  0  0  0  0  0  0  0
   24.2938   18.2628   -9.6022 H   0  0  0  0  0  0  0  0  0  0  0  0
   23.7315   16.5568   -9.6022 H   0  0  0  0  0  0  0  0  0  0  0  0
   26.8961   16.2192  -13.1380 H   0  0  0  0  0  0  0  0  0  0  0  0
   24.1362   16.3944  -11.7197 H   0  0  0  0  0  0  0  0  0  0  0  0
  1 17  2  0
  2 18  2  0
  3  5  1  0
  3  7  1  0
  3 11  1  1
  3 12  1  0
  4  6  1  0
  4  8  1  0
  4 13  1  6
  4 14  1  0
  5  9  1  0
  6 10  1  0
  7 15  2  0
  7 19  1  0
  8 16  2  0
  8 20  1  0
  9 17  1  0
 10 18  1  0
 15 17  1  0
 15 21  1  0
 16 18  1  0
 16 22  1  0
 19 23  2  3
 20 24  2  3
 23 25  1  0
 24 26  1  0
 25 27  1  0
 25 29  2  3
 26 28  1  0
 26 30  2  3
 29 31  1  0
 30 32  1  0
 31 33  2  3
 32 34  2  3
 33 35  1  0
 34 36  1  0
 35 37  2  3
 35 39  1  0
 36 38  2  3
 36 40  1  0
 37 41  1  0
 38 42  1  0
 41 42  2  3
  5 43  1  0
  5 44  1  0
  6 45  1  0
  6 46  1  0
  9 47  1  0
  9 48  1  0
 10 49  1  0
 10 50  1  0
 11 51  1  0
 11 52  1  0
 11 53  1  0
 12 54  1  0
 12 55  1  0
 12 56  1  0
 13 57  1  0
 13 58  1  0
 13 59  1  0
 14 60  1  0
 14 61  1  0
 14 62  1  0
 19 63  1  0
 20 64  1  0
 21 65  1  0
 21 66  1  0
 21 67  1  0
 22 68  1  0
 22 69  1  0
 22 70  1  0
 23 71  1  0
 24 72  1  0
 27 73  1  0
 27 74  1  0
 27 75  1  0
 28 76  1  0
 28 77  1  0
 28 78  1  0
 29 79  1  0
 30 80  1  0
 31 81  1  0
 32 82  1  0
 33 83  1  0
 34 84  1  0
 37 85  1  0
 38 86  1  0
 39 87  1  0
 39 88  1  0
 39 89  1  0
 40 90  1  0
 40 91  1  0
 40 92  1  0
 41 93  1  0
 42 94  1  0
M  END
>  <filename_input>  (15) 
7ZXV_45D_docked.sdf

>  <pdb_id>  (15) 
7ZXV_45D

>  <pose_rank>  (15) 
14

>  <num_atoms_heavy>  (15) 
42

>  <num_torsions>  (15) 
10

>  <pose>  (15) 
[25.798716813500516, 16.165641058356492, -13.084363920598108, -1.4230750208729404, 0.580571532645485, -2.4188658828451266, -0.3100127452546856, -5.388045924399354, -0.28488679967739505, -0.1294099535489413, -6.536445861725987, 5.514964782530975, 2.3735512579302434, 0.8266749379242805, 4.089313162376919, -3.4913576744882446]

>  <energy>  (15) 
-246.932510717214

>  <inter_energy>  (15) 
-262.3999536854944

>  <intra_energy>  (15) 
16.37237062391179

>  <rmsd>  (15) 
9.5889

>  <sdf_rank>  (15) 
0

$$$$

     RDKit          3D

 94 95  0  0  0  0  0  0  0  0999 V2000
   21.1492   10.5824  -23.9671 O   0  0  0  0  0  0  0  0  0  0  0  0
   34.7941   13.1557   -2.7494 O   0  0  0  0  0  0  0  0  0  0  0  0
   22.8845   14.3742  -24.3663 C   0  0  1  0  0  0  0  0  0  0  0  0
   32.1696   16.3717   -3.4587 C   0  0  1  0  0  0  0  0  0  0  0  0
   22.2036   13.6773  -25.5519 C   0  0  0  0  0  0  0  0  0  0  0  0
   33.2880   16.4082   -2.4141 C   0  0  0  0  0  0  0  0  0  0  0  0
   23.4499   13.3822  -23.3737 C   0  0  0  0  0  0  0  0  0  0  0  0
   32.4543   15.3239   -4.5495 C   0  0  0  0  0  0  0  0  0  0  0  0
   21.1487   12.6577  -25.0939 C   0  0  0  0  0  0  0  0  0  0  0  0
   33.5857   15.0260   -1.8205 C   0  0  0  0  0  0  0  0  0  0  0  0
   23.9823   15.2995  -24.9114 C   0  0  0  0  0  0  0  0  0  0  0  0
   21.8129   15.2001  -23.6288 C   0  0  0  0  0  0  0  0  0  0  0  0
   30.8202   16.0977   -2.7761 C   0  0  0  0  0  0  0  0  0  0  0  0
   32.0824   17.7460   -4.1200 C   0  0  0  0  0  0  0  0  0  0  0  0
   22.7650   12.0557  -23.1301 C   0  0  0  0  0  0  0  0  0  0  0  0
   33.1613   14.0331   -4.1740 C   0  0  0  0  0  0  0  0  0  0  0  0
   21.6467   11.6664  -24.0502 C   0  0  0  0  0  0  0  0  0  0  0  0
   33.9490   14.0034   -2.8767 C   0  0  0  0  0  0  0  0  0  0  0  0
   24.3617   13.9991  -22.3417 C   0  0  0  0  0  0  0  0  0  0  0  0
   31.6968   15.3250   -5.8478 C   0  0  0  0  0  0  0  0  0  0  0  0
   23.5678   10.9948  -22.3566 C   0  0  0  0  0  0  0  0  0  0  0  0
   33.3311   12.8866   -5.1692 C   0  0  0  0  0  0  0  0  0  0  0  0
   23.9070   14.3036  -21.1731 C   0  0  0  0  0  0  0  0  0  0  0  0
   30.4564   14.9084   -5.8686 C   0  0  0  0  0  0  0  0  0  0  0  0
   24.9035   14.8162  -20.1557 C   0  0  0  0  0  0  0  0  0  0  0  0
   29.6920   14.9505   -7.1811 C   0  0  0  0  0  0  0  0  0  0  0  0
   26.3710   14.5607  -20.3703 C   0  0  0  0  0  0  0  0  0  0  0  0
   30.2855   14.3535   -8.4323 C   0  0  0  0  0  0  0  0  0  0  0  0
   24.4236   15.4563  -19.0803 C   0  0  0  0  0  0  0  0  0  0  0  0
   28.4820   15.5211   -7.1066 C   0  0  0  0  0  0  0  0  0  0  0  0
   25.3223   15.9080  -17.9517 C   0  0  0  0  0  0  0  0  0  0  0  0
   27.5654   15.7214   -8.2971 C   0  0  0  0  0  0  0  0  0  0  0  0
   24.9176   15.6452  -16.7086 C   0  0  0  0  0  0  0  0  0  0  0  0
   26.5519   16.5998   -8.1972 C   0  0  0  0  0  0  0  0  0  0  0  0
   25.7271   15.9653  -15.4588 C   0  0  0  0  0  0  0  0  0  0  0  0
   25.6746   16.8903   -9.4226 C   0  0  0  0  0  0  0  0  0  0  0  0
   25.1385   15.7759  -14.2863 C   0  0  0  0  0  0  0  0  0  0  0  0
   26.0626   16.3370  -10.5879 C   0  0  0  0  0  0  0  0  0  0  0  0
   27.1434   16.5125  -15.5501 C   0  0  0  0  0  0  0  0  0  0  0  0
   24.3944   17.6732   -9.2792 C   0  0  0  0  0  0  0  0  0  0  0  0
   25.8053   15.9383  -12.9451 C   0  0  0  0  0  0  0  0  0  0  0  0
   25.2107   16.4410  -11.8354 C   0  0  0  0  0  0  0  0  0  0  0  0
   21.7137   14.4382  -26.1772 H   0  0  0  0  0  0  0  0  0  0  0  0
   22.9768   13.1351  -26.1160 H   0  0  0  0  0  0  0  0  0  0  0  0
   34.2025   16.7916   -2.8904 H   0  0  0  0  0  0  0  0  0  0  0  0
   32.9551   17.0592   -1.5923 H   0  0  0  0  0  0  0  0  0  0  0  0
   20.2986   13.2098  -24.6666 H   0  0  0  0  0  0  0  0  0  0  0  0
   20.8734   12.0690  -25.9814 H   0  0  0  0  0  0  0  0  0  0  0  0
   34.4258   15.1187   -1.1164 H   0  0  0  0  0  0  0  0  0  0  0  0
   32.6718   14.6757   -1.3185 H   0  0  0  0  0  0  0  0  0  0  0  0
   24.5259   15.7577  -24.0720 H   0  0  0  0  0  0  0  0  0  0  0  0
   24.6825   14.7151  -25.5263 H   0  0  0  0  0  0  0  0  0  0  0  0
   23.5249   16.0886  -25.5263 H   0  0  0  0  0  0  0  0  0  0  0  0
   21.9510   15.0936  -22.5427 H   0  0  0  0  0  0  0  0  0  0  0  0
   21.9096   16.2595  -23.9086 H   0  0  0  0  0  0  0  0  0  0  0  0
   20.8131   14.8367  -23.9086 H   0  0  0  0  0  0  0  0  0  0  0  0
   30.9497   16.1239   -1.6841 H   0  0  0  0  0  0  0  0  0  0  0  0
   30.0938   16.8666   -3.0778 H   0  0  0  0  0  0  0  0  0  0  0  0
   30.4513   15.1063   -3.0778 H   0  0  0  0  0  0  0  0  0  0  0  0
   32.0331   18.5239   -3.3438 H   0  0  0  0  0  0  0  0  0  0  0  0
   32.9720   17.9087   -4.7461 H   0  0  0  0  0  0  0  0  0  0  0  0
   31.1794   17.7950   -4.7461 H   0  0  0  0  0  0  0  0  0  0  0  0
   25.4170   14.1898  -22.5863 H   0  0  0  0  0  0  0  0  0  0  0  0
   32.1807   15.6730   -6.7723 H   0  0  0  0  0  0  0  0  0  0  0  0
   23.4445   11.1577  -21.2758 H   0  0  0  0  0  0  0  0  0  0  0  0
   23.2001    9.9922  -22.6206 H   0  0  0  0  0  0  0  0  0  0  0  0
   24.6325   11.0761  -22.6206 H   0  0  0  0  0  0  0  0  0  0  0  0
   33.4709   11.9431   -4.6212 H   0  0  0  0  0  0  0  0  0  0  0  0
   32.4340   12.8139   -5.8015 H   0  0  0  0  0  0  0  0  0  0  0  0
   34.2109   13.0771   -5.8015 H   0  0  0  0  0  0  0  0  0  0  0  0
   22.8405   14.1952  -20.9267 H   0  0  0  0  0  0  0  0  0  0  0  0
   29.9759   14.5344   -4.9525 H   0  0  0  0  0  0  0  0  0  0  0  0
   26.8743   14.4731  -19.3961 H   0  0  0  0  0  0  0  0  0  0  0  0
   26.5017   13.6263  -20.9358 H   0  0  0  0  0  0  0  0  0  0  0  0
   26.8098   15.3960  -20.9358 H   0  0  0  0  0  0  0  0  0  0  0  0
   31.0364   13.5980   -8.1576 H   0  0  0  0  0  0  0  0  0  0  0  0
   29.4894   13.8803   -9.0260 H   0  0  0  0  0  0  0  0  0  0  0  0
   30.7635   15.1466   -9.0260 H   0  0  0  0  0  0  0  0  0  0  0  0
   23.3443   15.6590  -19.0172 H   0  0  0  0  0  0  0  0  0  0  0  0
   28.1327   15.8650   -6.1219 H   0  0  0  0  0  0  0  0  0  0  0  0
   26.2698   16.4313  -18.1476 H   0  0  0  0  0  0  0  0  0  0  0  0
   27.7265   15.1574   -9.2276 H   0  0  0  0  0  0  0  0  0  0  0  0
   23.9360   15.1664  -16.5773 H   0  0  0  0  0  0  0  0  0  0  0  0
   26.3527   17.1076   -7.2420 H   0  0  0  0  0  0  0  0  0  0  0  0
   24.0800   15.4765  -14.2930 H   0  0  0  0  0  0  0  0  0  0  0  0
   27.0200   15.7974  -10.6343 H   0  0  0  0  0  0  0  0  0  0  0  0
   27.5429   16.6668  -14.5369 H   0  0  0  0  0  0  0  0  0  0  0  0
   27.7795   15.7954  -16.0897 H   0  0  0  0  0  0  0  0  0  0  0  0
   27.1321   17.4710  -16.0897 H   0  0  0  0  0  0  0  0  0  0  0  0
   24.1672   17.8121   -8.2119 H   0  0  0  0  0  0  0  0  0  0  0  0
   24.5095   18.6556   -9.7605 H   0  0  0  0  0  0  0  0  0  0  0  0
   23.5724   17.1231   -9.7605 H   0  0  0  0  0  0  0  0  0  0  0  0
   26.8562   15.6247  -12.8598 H   0  0  0  0  0  0  0  0  0  0  0  0
   24.2035   16.8832  -11.8407 H   0  0  0  0  0  0  0  0  0  0  0  0
  1 17  2  0
  2 18  2  0
  3  5  1  0
  3  7  1  0
  3 11  1  6
  3 12  1  0
  4  6  1  0
  4  8  1  0
  4 13  1  1
  4 14  1  0
  5  9  1  0
  6 10  1  0
  7 15  2  0
  7 19  1  0
  8 16  2  0
  8 20  1  0
  9 17  1  0
 10 18  1  0
 15 17  1  0
 15 21  1  0
 16 18  1  0
 16 22  1  0
 19 23  2  3
 20 24  2  3
 23 25  1  0
 24 26  1  0
 25 27  1  0
 25 29  2  3
 26 28  1  0
 26 30  2  3
 29 31  1  0
 30 32  1  0
 31 33  2  3
 32 34  2  3
 33 35  1  0
 34 36  1  0
 35 37  2  3
 35 39  1  0
 36 38  2  3
 36 40  1  0
 37 41  1  0
 38 42  1  0
 41 42  2  3
  5 43  1  0
  5 44  1  0
  6 45  1  0
  6 46  1  0
  9 47  1  0
  9 48  1  0
 10 49  1  0
 10 50  1  0
 11 51  1  0
 11 52  1  0
 11 53  1  0
 12 54  1  0
 12 55  1  0
 12 56  1  0
 13 57  1  0
 13 58  1  0
 13 59  1  0
 14 60  1  0
 14 61  1  0
 14 62  1  0
 19 63  1  0
 20 64  1  0
 21 65  1  0
 21 66  1  0
 21 67  1  0
 22 68  1  0
 22 69  1  0
 22 70  1  0
 23 71  1  0
 24 72  1  0
 27 73  1  0
 27 74  1  0
 27 75  1  0
 28 76  1  0
 28 77  1  0
 28 78  1  0
 29 79  1  0
 30 80  1  0
 31 81  1  0
 32 82  1  0
 33 83  1  0
 34 84  1  0
 37 85  1  0
 38 86  1  0
 39 87  1  0
 39 88  1  0
 39 89  1  0
 40 90  1  0
 40 91  1  0
 40 92  1  0
 41 93  1  0
 42 94  1  0
M  END
>  <filename_input>  (16) 
7ZXV_45D_docked.sdf

>  <pdb_id>  (16) 
7ZXV_45D

>  <pose_rank>  (16) 
15

>  <num_atoms_heavy>  (16) 
42

>  <num_torsions>  (16) 
10

>  <pose>  (16) 
[25.805341527161925, 15.938312320651841, -12.945134378061535, -1.3116170074491968, 0.7050022729311493, -2.8234536686866907, 5.956312050950321, 0.28953589280647657, 0.4130481624565124, -0.6191073530731097, 3.3898881347036376, -0.6318736805934865, 2.822775851304708, 0.5776841222051589, 0.4531715199866146, -3.3617417754809025]

>  <energy>  (16) 
-246.37032804077114

>  <inter_energy>  (16) 
-260.6238916033148

>  <intra_energy>  (16) 
16.46071674367367

>  <rmsd>  (16) 
9.74604

>  <sdf_rank>  (16) 
0

$$$$

     RDKit          3D

 94 95  0  0  0  0  0  0  0  0999 V2000
   21.1749   13.1753    0.8513 O   0  0  0  0  0  0  0  0  0  0  0  0
   22.5374   14.3789  -24.1553 O   0  0  0  0  0  0  0  0  0  0  0  0
   18.1229   11.8096   -1.6723 C   0  0  1  0  0  0  0  0  0  0  0  0
   25.3876   11.9517  -22.2268 C   0  0  1  0  0  0  0  0  0  0  0  0
   18.5183   11.0389   -0.4055 C   0  0  0  0  0  0  0  0  0  0  0  0
   25.1627   11.9506  -23.7410 C   0  0  0  0  0  0  0  0  0  0  0  0
   19.2821   12.5974   -2.2419 C   0  0  0  0  0  0  0  0  0  0  0  0
   24.9000   13.2642  -21.5878 C   0  0  0  0  0  0  0  0  0  0  0  0
   19.1650   11.9525    0.6478 C   0  0  0  0  0  0  0  0  0  0  0  0
   23.7124   12.2718  -24.1218 C   0  0  0  0  0  0  0  0  0  0  0  0
   17.5756   10.8080   -2.6998 C   0  0  0  0  0  0  0  0  0  0  0  0
   17.0281   12.8218   -1.2834 C   0  0  0  0  0  0  0  0  0  0  0  0
   24.6885   10.7405  -21.5897 C   0  0  0  0  0  0  0  0  0  0  0  0
   26.8857   11.8129  -21.9619 C   0  0  0  0  0  0  0  0  0  0  0  0
   20.3291   13.2005   -1.3318 C   0  0  0  0  0  0  0  0  0  0  0  0
   23.6736   13.9570  -22.1561 C   0  0  0  0  0  0  0  0  0  0  0  0
   20.3041   12.8130    0.1166 C   0  0  0  0  0  0  0  0  0  0  0  0
   23.2446   13.6015  -23.5683 C   0  0  0  0  0  0  0  0  0  0  0  0
   19.0302   13.1461   -3.6247 C   0  0  0  0  0  0  0  0  0  0  0  0
   25.3074   13.6505  -20.1934 C   0  0  0  0  0  0  0  0  0  0  0  0
   21.6207   13.7026   -2.0012 C   0  0  0  0  0  0  0  0  0  0  0  0
   23.0430   15.1701  -21.4746 C   0  0  0  0  0  0  0  0  0  0  0  0
   18.8741   14.4148   -3.8011 C   0  0  0  0  0  0  0  0  0  0  0  0
   26.1269   14.6555  -20.0185 C   0  0  0  0  0  0  0  0  0  0  0  0
   18.7347   14.9025   -5.2272 C   0  0  0  0  0  0  0  0  0  0  0  0
   26.5001   15.0576  -18.6016 C   0  0  0  0  0  0  0  0  0  0  0  0
   17.4789   14.5853   -5.9935 C   0  0  0  0  0  0  0  0  0  0  0  0
   27.8673   15.6179  -18.2995 C   0  0  0  0  0  0  0  0  0  0  0  0
   19.7635   15.5774   -5.7588 C   0  0  0  0  0  0  0  0  0  0  0  0
   25.5242   14.8961  -17.6979 C   0  0  0  0  0  0  0  0  0  0  0  0
   19.7728   16.0098   -7.2074 C   0  0  0  0  0  0  0  0  0  0  0  0
   25.6850   15.1800  -16.2177 C   0  0  0  0  0  0  0  0  0  0  0  0
   20.9610   16.1180   -7.8030 C   0  0  0  0  0  0  0  0  0  0  0  0
   24.7823   15.9657  -15.6040 C   0  0  0  0  0  0  0  0  0  0  0  0
   21.1536   16.4732   -9.2714 C   0  0  0  0  0  0  0  0  0  0  0  0
   24.8708   16.1837  -14.0874 C   0  0  0  0  0  0  0  0  0  0  0  0
   22.1615   15.8966   -9.9108 C   0  0  0  0  0  0  0  0  0  0  0  0
   23.7034   16.2763  -13.4216 C   0  0  0  0  0  0  0  0  0  0  0  0
   20.2472   17.4751   -9.9703 C   0  0  0  0  0  0  0  0  0  0  0  0
   26.2078   16.1874  -13.3913 C   0  0  0  0  0  0  0  0  0  0  0  0
   22.4515   16.0419  -11.3821 C   0  0  0  0  0  0  0  0  0  0  0  0
   23.6591   16.3591  -11.9103 C   0  0  0  0  0  0  0  0  0  0  0  0
   17.6165   10.5813    0.0274 H   0  0  0  0  0  0  0  0  0  0  0  0
   19.2560   10.2743   -0.6901 H   0  0  0  0  0  0  0  0  0  0  0  0
   25.8216   12.7050  -24.1956 H   0  0  0  0  0  0  0  0  0  0  0  0
   25.3881   10.9394  -24.1106 H   0  0  0  0  0  0  0  0  0  0  0  0
   18.3878   12.6194    1.0493 H   0  0  0  0  0  0  0  0  0  0  0  0
   19.5992   11.2926    1.4133 H   0  0  0  0  0  0  0  0  0  0  0  0
   23.6343   12.2999  -25.2187 H   0  0  0  0  0  0  0  0  0  0  0  0
   23.0734   11.4879  -23.6890 H   0  0  0  0  0  0  0  0  0  0  0  0
   17.1123    9.9599   -2.1743 H   0  0  0  0  0  0  0  0  0  0  0  0
   16.8231   11.3039   -3.3305 H   0  0  0  0  0  0  0  0  0  0  0  0
   18.3995   10.4427   -3.3305 H   0  0  0  0  0  0  0  0  0  0  0  0
   16.9597   12.8850   -0.1874 H   0  0  0  0  0  0  0  0  0  0  0  0
   17.2812   13.8110   -1.6927 H   0  0  0  0  0  0  0  0  0  0  0  0
   16.0618   12.4920   -1.6927 H   0  0  0  0  0  0  0  0  0  0  0  0
   24.7367   10.8238  -20.4939 H   0  0  0  0  0  0  0  0  0  0  0  0
   23.6364   10.7142  -21.9095 H   0  0  0  0  0  0  0  0  0  0  0  0
   25.1922    9.8163  -21.9095 H   0  0  0  0  0  0  0  0  0  0  0  0
   27.0662   11.7962  -20.8769 H   0  0  0  0  0  0  0  0  0  0  0  0
   27.2519   10.8770  -22.4090 H   0  0  0  0  0  0  0  0  0  0  0  0
   27.4177   12.6656  -22.4090 H   0  0  0  0  0  0  0  0  0  0  0  0
   18.9794   12.4625   -4.4850 H   0  0  0  0  0  0  0  0  0  0  0  0
   24.9200   13.0932  -19.3277 H   0  0  0  0  0  0  0  0  0  0  0  0
   22.3489   13.9856   -1.2268 H   0  0  0  0  0  0  0  0  0  0  0  0
   22.0436   12.9033   -2.6276 H   0  0  0  0  0  0  0  0  0  0  0  0
   21.3928   14.5776   -2.6276 H   0  0  0  0  0  0  0  0  0  0  0  0
   23.1051   15.0507  -20.3828 H   0  0  0  0  0  0  0  0  0  0  0  0
   23.5819   16.0808  -21.7751 H   0  0  0  0  0  0  0  0  0  0  0  0
   21.9881   15.2523  -21.7751 H   0  0  0  0  0  0  0  0  0  0  0  0
   18.8436   15.1123   -2.9511 H   0  0  0  0  0  0  0  0  0  0  0  0
   26.5382   15.1995  -20.8816 H   0  0  0  0  0  0  0  0  0  0  0  0
   16.6610   14.3786   -5.2876 H   0  0  0  0  0  0  0  0  0  0  0  0
   17.2090   15.4434   -6.6265 H   0  0  0  0  0  0  0  0  0  0  0  0
   17.6489   13.7018   -6.6265 H   0  0  0  0  0  0  0  0  0  0  0  0
   28.0075   15.6754  -17.2100 H   0  0  0  0  0  0  0  0  0  0  0  0
   28.6364   14.9624  -18.7342 H   0  0  0  0  0  0  0  0  0  0  0  0
   27.9552   16.6246  -18.7342 H   0  0  0  0  0  0  0  0  0  0  0  0
   20.6262   15.8240   -5.1224 H   0  0  0  0  0  0  0  0  0  0  0  0
   24.5469   14.5358  -18.0517 H   0  0  0  0  0  0  0  0  0  0  0  0
   18.8391   16.2260   -7.7472 H   0  0  0  0  0  0  0  0  0  0  0  0
   26.5265   14.7502  -15.6544 H   0  0  0  0  0  0  0  0  0  0  0  0
   21.8598   15.9393   -7.1946 H   0  0  0  0  0  0  0  0  0  0  0  0
   23.9845   16.4498  -16.1863 H   0  0  0  0  0  0  0  0  0  0  0  0
   22.8393   15.2622   -9.3209 H   0  0  0  0  0  0  0  0  0  0  0  0
   22.7609   16.2922  -13.9886 H   0  0  0  0  0  0  0  0  0  0  0  0
   19.7090   18.0700   -9.2176 H   0  0  0  0  0  0  0  0  0  0  0  0
   20.8546   18.1425  -10.5993 H   0  0  0  0  0  0  0  0  0  0  0  0
   19.5225   16.9374  -10.5993 H   0  0  0  0  0  0  0  0  0  0  0  0
   26.0541   16.1870  -12.3021 H   0  0  0  0  0  0  0  0  0  0  0  0
   26.7750   15.2908  -13.6819 H   0  0  0  0  0  0  0  0  0  0  0  0
   26.7700   17.0871  -13.6819 H   0  0  0  0  0  0  0  0  0  0  0  0
   21.6188   15.8780  -12.0819 H   0  0  0  0  0  0  0  0  0  0  0  0
   24.5257   16.6495  -11.2983 H   0  0  0  0  0  0  0  0  0  0  0  0
  1 17  2  0
  2 18  2  0
  3  5  1  0
  3  7  1  0
  3 11  1  6
  3 12  1  0
  4  6  1  0
  4  8  1  0
  4 13  1  1
  4 14  1  0
  5  9  1  0
  6 10  1  0
  7 15  2  0
  7 19  1  0
  8 16  2  0
  8 20  1  0
  9 17  1  0
 10 18  1  0
 15 17  1  0
 15 21  1  0
 16 18  1  0
 16 22  1  0
 19 23  2  3
 20 24  2  3
 23 25  1  0
 24 26  1  0
 25 27  1  0
 25 29  2  3
 26 28  1  0
 26 30  2  3
 29 31  1  0
 30 32  1  0
 31 33  2  3
 32 34  2  3
 33 35  1  0
 34 36  1  0
 35 37  2  3
 35 39  1  0
 36 38  2  3
 36 40  1  0
 37 41  1  0
 38 42  1  0
 41 42  2  3
  5 43  1  0
  5 44  1  0
  6 45  1  0
  6 46  1  0
  9 47  1  0
  9 48  1  0
 10 49  1  0
 10 50  1  0
 11 51  1  0
 11 52  1  0
 11 53  1  0
 12 54  1  0
 12 55  1  0
 12 56  1  0
 13 57  1  0
 13 58  1  0
 13 59  1  0
 14 60  1  0
 14 61  1  0
 14 62  1  0
 19 63  1  0
 20 64  1  0
 21 65  1  0
 21 66  1  0
 21 67  1  0
 22 68  1  0
 22 69  1  0
 22 70  1  0
 23 71  1  0
 24 72  1  0
 27 73  1  0
 27 74  1  0
 27 75  1  0
 28 76  1  0
 28 77  1  0
 28 78  1  0
 29 79  1  0
 30 80  1  0
 31 81  1  0
 32 82  1  0
 33 83  1  0
 34 84  1  0
 37 85  1  0
 38 86  1  0
 39 87  1  0
 39 88  1  0
 39 89  1  0
 40 90  1  0
 40 91  1  0
 40 92  1  0
 41 93  1  0
 42 94  1  0
M  END
>  <filename_input>  (17) 
7ZXV_45D_docked.sdf

>  <pdb_id>  (17) 
7ZXV_45D

>  <pose_rank>  (17) 
16

>  <num_atoms_heavy>  (17) 
42

>  <num_torsions>  (17) 
10

>  <pose>  (17) 
[22.451493893144935, 16.041938780942992, -11.382079329301886, -3.4793794011065087, 0.4505244563421532, 0.4712907708789804, -6.833548803393947, 1.027263441590642, 0.10981453067678795, -5.349435308716105, -2.6805419317333823, 6.083658848453526, 0.43106461621068587, -0.61807544949117, 2.1394371386745537, -0.14188417250489382]

>  <energy>  (17) 
-238.77379723491822

>  <inter_energy>  (17) 
-252.03922741110685

>  <intra_energy>  (17) 
14.363210559859843

>  <rmsd>  (17) 
10.2636

>  <sdf_rank>  (17) 
0

$$$$

     RDKit          3D

 94 95  0  0  0  0  0  0  0  0999 V2000
   15.4530    6.9276  -24.8599 O   0  0  0  0  0  0  0  0  0  0  0  0
   21.8541   -0.3843    0.5590 O   0  0  0  0  0  0  0  0  0  0  0  0
   18.6823    5.0145  -22.9997 C   0  0  1  0  0  0  0  0  0  0  0  0
   19.1179    2.6116   -0.5689 C   0  0  1  0  0  0  0  0  0  0  0  0
   18.3827    4.8105  -24.4909 C   0  0  0  0  0  0  0  0  0  0  0  0
   19.6653    2.4588    0.8525 C   0  0  0  0  0  0  0  0  0  0  0  0
   17.4330    5.3350  -22.2089 C   0  0  0  0  0  0  0  0  0  0  0  0
   20.0525    1.9598   -1.6034 C   0  0  0  0  0  0  0  0  0  0  0  0
   17.6103    5.9955  -25.0920 C   0  0  0  0  0  0  0  0  0  0  0  0
   19.9886    1.0022    1.2064 C   0  0  0  0  0  0  0  0  0  0  0  0
   19.3677    3.7489  -22.4640 C   0  0  0  0  0  0  0  0  0  0  0  0
   19.6282    6.2242  -22.8723 C   0  0  0  0  0  0  0  0  0  0  0  0
   17.7046    2.0143   -0.6559 C   0  0  0  0  0  0  0  0  0  0  0  0
   19.0102    4.1019   -0.8864 C   0  0  0  0  0  0  0  0  0  0  0  0
   16.3068    6.1308  -22.8306 C   0  0  0  0  0  0  0  0  0  0  0  0
   20.8073    0.6955   -1.2310 C   0  0  0  0  0  0  0  0  0  0  0  0
   16.3709    6.4000  -24.3044 C   0  0  0  0  0  0  0  0  0  0  0  0
   20.9728    0.3723    0.2430 C   0  0  0  0  0  0  0  0  0  0  0  0
   17.6212    5.2728  -20.7131 C   0  0  0  0  0  0  0  0  0  0  0  0
   19.9204    2.2591   -3.0706 C   0  0  0  0  0  0  0  0  0  0  0  0
   14.9655    6.1362  -22.0761 C   0  0  0  0  0  0  0  0  0  0  0  0
   21.6228   -0.0898   -2.2567 C   0  0  0  0  0  0  0  0  0  0  0  0
   17.0243    4.3618  -20.0211 C   0  0  0  0  0  0  0  0  0  0  0  0
   19.0015    1.6453   -3.7715 C   0  0  0  0  0  0  0  0  0  0  0  0
   17.3463    4.2937  -18.5438 C   0  0  0  0  0  0  0  0  0  0  0  0
   18.8557    1.9858   -5.2451 C   0  0  0  0  0  0  0  0  0  0  0  0
   18.1304    5.4109  -17.9098 C   0  0  0  0  0  0  0  0  0  0  0  0
   17.8652    3.0299   -5.6953 C   0  0  0  0  0  0  0  0  0  0  0  0
   16.9387    3.2117  -17.8659 C   0  0  0  0  0  0  0  0  0  0  0  0
   19.6801    1.3134   -6.0596 C   0  0  0  0  0  0  0  0  0  0  0  0
   17.3050    2.9920  -16.4156 C   0  0  0  0  0  0  0  0  0  0  0  0
   19.6763    1.4499   -7.5693 C   0  0  0  0  0  0  0  0  0  0  0  0
   16.4064    2.3754  -15.6472 C   0  0  0  0  0  0  0  0  0  0  0  0
   20.8238    1.7627   -8.1971 C   0  0  0  0  0  0  0  0  0  0  0  0
   16.6348    2.0114  -14.1861 C   0  0  0  0  0  0  0  0  0  0  0  0
   20.8632    1.8072   -9.7307 C   0  0  0  0  0  0  0  0  0  0  0  0
   17.8900    1.9224  -13.7692 C   0  0  0  0  0  0  0  0  0  0  0  0
   19.6852    1.6680  -10.3693 C   0  0  0  0  0  0  0  0  0  0  0  0
   15.4712    1.7280  -13.2484 C   0  0  0  0  0  0  0  0  0  0  0  0
   22.1531    2.0956  -10.4553 C   0  0  0  0  0  0  0  0  0  0  0  0
   18.3151    1.6745  -12.3453 C   0  0  0  0  0  0  0  0  0  0  0  0
   19.5762    1.8259  -11.8713 C   0  0  0  0  0  0  0  0  0  0  0  0
   19.3338    4.6960  -25.0316 H   0  0  0  0  0  0  0  0  0  0  0  0
   17.7565    3.9117  -24.5911 H   0  0  0  0  0  0  0  0  0  0  0  0
   20.5850    3.0556    0.9419 H   0  0  0  0  0  0  0  0  0  0  0  0
   18.8873    2.8060    1.5483 H   0  0  0  0  0  0  0  0  0  0  0  0
   18.2876    6.8611  -25.1368 H   0  0  0  0  0  0  0  0  0  0  0  0
   17.2617    5.6736  -26.0844 H   0  0  0  0  0  0  0  0  0  0  0  0
   20.4187    0.9729    2.2184 H   0  0  0  0  0  0  0  0  0  0  0  0
   19.0514    0.4294    1.1466 H   0  0  0  0  0  0  0  0  0  0  0  0
   19.3591    3.7649  -21.3641 H   0  0  0  0  0  0  0  0  0  0  0  0
   18.8277    2.8600  -22.8220 H   0  0  0  0  0  0  0  0  0  0  0  0
   20.4073    3.7154  -22.8220 H   0  0  0  0  0  0  0  0  0  0  0  0
   19.8005    6.4444  -21.8084 H   0  0  0  0  0  0  0  0  0  0  0  0
   20.5873    5.9926  -23.3587 H   0  0  0  0  0  0  0  0  0  0  0  0
   19.1722    7.0991  -23.3587 H   0  0  0  0  0  0  0  0  0  0  0  0
   17.3133    1.8490    0.3588 H   0  0  0  0  0  0  0  0  0  0  0  0
   17.0448    2.7106   -1.1943 H   0  0  0  0  0  0  0  0  0  0  0  0
   17.7440    1.0559   -1.1943 H   0  0  0  0  0  0  0  0  0  0  0  0
   18.9689    4.6747    0.0518 H   0  0  0  0  0  0  0  0  0  0  0  0
   19.8880    4.4169   -1.4698 H   0  0  0  0  0  0  0  0  0  0  0  0
   18.0964    4.2875   -1.4698 H   0  0  0  0  0  0  0  0  0  0  0  0
   18.2693    6.0062  -20.2110 H   0  0  0  0  0  0  0  0  0  0  0  0
   20.5903    2.9876   -3.5508 H   0  0  0  0  0  0  0  0  0  0  0  0
   15.1543    6.1354  -20.9925 H   0  0  0  0  0  0  0  0  0  0  0  0
   14.3953    7.0366  -22.3484 H   0  0  0  0  0  0  0  0  0  0  0  0
   14.3881    5.2404  -22.3484 H   0  0  0  0  0  0  0  0  0  0  0  0
   22.3201   -0.7613   -1.7343 H   0  0  0  0  0  0  0  0  0  0  0  0
   20.9448   -0.6838   -2.8871 H   0  0  0  0  0  0  0  0  0  0  0  0
   22.1907    0.6101   -2.8871 H   0  0  0  0  0  0  0  0  0  0  0  0
   16.3116    3.6642  -20.4853 H   0  0  0  0  0  0  0  0  0  0  0  0
   18.3464    0.8964   -3.3024 H   0  0  0  0  0  0  0  0  0  0  0  0
   18.0705    5.3255  -16.8148 H   0  0  0  0  0  0  0  0  0  0  0  0
   19.1821    5.3459  -18.2256 H   0  0  0  0  0  0  0  0  0  0  0  0
   17.7118    6.3779  -18.2256 H   0  0  0  0  0  0  0  0  0  0  0  0
   17.4112    3.5084   -4.8150 H   0  0  0  0  0  0  0  0  0  0  0  0
   18.3824    3.7896   -6.2997 H   0  0  0  0  0  0  0  0  0  0  0  0
   17.0793    2.5533   -6.2997 H   0  0  0  0  0  0  0  0  0  0  0  0
   16.3196    2.4615  -18.3797 H   0  0  0  0  0  0  0  0  0  0  0  0
   20.4036    0.6204   -5.6053 H   0  0  0  0  0  0  0  0  0  0  0  0
   18.2717    3.3267  -16.0114 H   0  0  0  0  0  0  0  0  0  0  0  0
   18.7499    1.2956   -8.1420 H   0  0  0  0  0  0  0  0  0  0  0  0
   15.4378    2.1127  -16.0977 H   0  0  0  0  0  0  0  0  0  0  0  0
   21.7297    1.9855   -7.6143 H   0  0  0  0  0  0  0  0  0  0  0  0
   18.6835    2.0385  -14.5221 H   0  0  0  0  0  0  0  0  0  0  0  0
   18.7821    1.4342   -9.7865 H   0  0  0  0  0  0  0  0  0  0  0  0
   15.8119    1.8110  -12.2058 H   0  0  0  0  0  0  0  0  0  0  0  0
   14.6676    2.4567  -13.4306 H   0  0  0  0  0  0  0  0  0  0  0  0
   15.0927    0.7114  -13.4306 H   0  0  0  0  0  0  0  0  0  0  0  0
   22.9534    2.2745   -9.7221 H   0  0  0  0  0  0  0  0  0  0  0  0
   22.4197    1.2349  -11.0862 H   0  0  0  0  0  0  0  0  0  0  0  0
   22.0277    2.9879  -11.0862 H   0  0  0  0  0  0  0  0  0  0  0  0
   17.5423    1.3452  -11.6351 H   0  0  0  0  0  0  0  0  0  0  0  0
   20.4395    2.0432  -12.5174 H   0  0  0  0  0  0  0  0  0  0  0  0
  1 17  2  0
  2 18  2  0
  3  5  1  0
  3  7  1  0
  3 11  1  1
  3 12  1  0
  4  6  1  0
  4  8  1  0
  4 13  1  1
  4 14  1  0
  5  9  1  0
  6 10  1  0
  7 15  2  0
  7 19  1  0
  8 16  2  0
  8 20  1  0
  9 17  1  0
 10 18  1  0
 15 17  1  0
 15 21  1  0
 16 18  1  0
 16 22  1  0
 19 23  2  3
 20 24  2  3
 23 25  1  0
 24 26  1  0
 25 27  1  0
 25 29  2  3
 26 28  1  0
 26 30  2  3
 29 31  1  0
 30 32  1  0
 31 33  2  3
 32 34  2  3
 33 35  1  0
 34 36  1  0
 35 37  2  3
 35 39  1  0
 36 38  2  3
 36 40  1  0
 37 41  1  0
 38 42  1  0
 41 42  2  3
  5 43  1  0
  5 44  1  0
  6 45  1  0
  6 46  1  0
  9 47  1  0
  9 48  1  0
 10 49  1  0
 10 50  1  0
 11 51  1  0
 11 52  1  0
 11 53  1  0
 12 54  1  0
 12 55  1  0
 12 56  1  0
 13 57  1  0
 13 58  1  0
 13 59  1  0
 14 60  1  0
 14 61  1  0
 14 62  1  0
 19 63  1  0
 20 64  1  0
 21 65  1  0
 21 66  1  0
 21 67  1  0
 22 68  1  0
 22 69  1  0
 22 70  1  0
 23 71  1  0
 24 72  1  0
 27 73  1  0
 27 74  1  0
 27 75  1  0
 28 76  1  0
 28 77  1  0
 28 78  1  0
 29 79  1  0
 30 80  1  0
 31 81  1  0
 32 82  1  0
 33 83  1  0
 34 84  1  0
 37 85  1  0
 38 86  1  0
 39 87  1  0
 39 88  1  0
 39 89  1  0
 40 90  1  0
 40 91  1  0
 40 92  1  0
 41 93  1  0
 42 94  1  0
M  END
>  <filename_input>  (18) 
7ZXV_45D_docked.sdf

>  <pdb_id>  (18) 
7ZXV_45D

>  <pose_rank>  (18) 
17

>  <num_atoms_heavy>  (18) 
42

>  <num_torsions>  (18) 
10

>  <pose>  (18) 
[18.315090832983465, 1.674544416965971, -12.345285003041893, -0.15558478132513093, -0.3414992169588105, 0.6660235549032018, 0.54145906402211, -3.102326219614615, -0.9844707912289897, -0.10714491810758826, -0.2840057772130567, -13.07917804217523, -3.2217961736804512, -0.6771649634104822, -2.0709368782902957, 2.8118977855726763]

>  <energy>  (18) 
-236.36598907945358

>  <inter_energy>  (18) 
-247.03775393809957

>  <intra_energy>  (18) 
16.327221057640084

>  <rmsd>  (18) 
10.4296

>  <sdf_rank>  (18) 
0

$$$$

     RDKit          3D

 94 95  0  0  0  0  0  0  0  0999 V2000
   22.0643   16.8229  -25.8048 O   0  0  0  0  0  0  0  0  0  0  0  0
   33.3968   15.9354   -0.5459 O   0  0  0  0  0  0  0  0  0  0  0  0
   22.5876   13.3812  -23.4748 C   0  0  1  0  0  0  0  0  0  0  0  0
   33.4396   13.1687   -3.7204 C   0  0  1  0  0  0  0  0  0  0  0  0
   21.4377   13.4965  -24.4845 C   0  0  0  0  0  0  0  0  0  0  0  0
   33.6918   12.7837   -2.2604 C   0  0  0  0  0  0  0  0  0  0  0  0
   23.0084   14.7316  -22.9379 C   0  0  0  0  0  0  0  0  0  0  0  0
   32.6493   14.4852   -3.8253 C   0  0  0  0  0  0  0  0  0  0  0  0
   21.7579   14.4894  -25.6132 C   0  0  0  0  0  0  0  0  0  0  0  0
   34.3473   13.9137   -1.4574 C   0  0  0  0  0  0  0  0  0  0  0  0
   22.1455   12.4467  -22.3391 C   0  0  0  0  0  0  0  0  0  0  0  0
   23.8012   12.7827  -24.2118 C   0  0  0  0  0  0  0  0  0  0  0  0
   34.7739   13.2701   -4.4762 C   0  0  0  0  0  0  0  0  0  0  0  0
   32.6197   12.0594   -4.3767 C   0  0  0  0  0  0  0  0  0  0  0  0
   22.9386   15.9663  -23.8089 C   0  0  0  0  0  0  0  0  0  0  0  0
   32.8891   15.5799   -2.8001 C   0  0  0  0  0  0  0  0  0  0  0  0
   22.2417   15.8510  -25.1316 C   0  0  0  0  0  0  0  0  0  0  0  0
   33.5378   15.1933   -1.4831 C   0  0  0  0  0  0  0  0  0  0  0  0
   23.9353   14.6573  -21.7496 C   0  0  0  0  0  0  0  0  0  0  0  0
   31.9908   14.8983   -5.1118 C   0  0  0  0  0  0  0  0  0  0  0  0
   23.0794   17.3235  -23.0970 C   0  0  0  0  0  0  0  0  0  0  0  0
   32.2609   16.9657   -2.9367 C   0  0  0  0  0  0  0  0  0  0  0  0
   23.5365   15.0573  -20.5893 C   0  0  0  0  0  0  0  0  0  0  0  0
   30.6860   14.8650   -5.2055 C   0  0  0  0  0  0  0  0  0  0  0  0
   24.4810   14.8511  -19.4248 C   0  0  0  0  0  0  0  0  0  0  0  0
   30.0332   15.3210   -6.4995 C   0  0  0  0  0  0  0  0  0  0  0  0
   25.6032   13.8568  -19.5551 C   0  0  0  0  0  0  0  0  0  0  0  0
   29.0639   16.4764   -6.5025 C   0  0  0  0  0  0  0  0  0  0  0  0
   24.2525   15.5513  -18.3049 C   0  0  0  0  0  0  0  0  0  0  0  0
   30.4129   14.6398   -7.5890 C   0  0  0  0  0  0  0  0  0  0  0  0
   25.0659   15.3378  -17.0486 C   0  0  0  0  0  0  0  0  0  0  0  0
   29.8552   14.8834   -8.9773 C   0  0  0  0  0  0  0  0  0  0  0  0
   24.6812   15.9964  -15.9548 C   0  0  0  0  0  0  0  0  0  0  0  0
   30.7032   15.1952   -9.9735 C   0  0  0  0  0  0  0  0  0  0  0  0
   25.3400   15.8479  -14.5897 C   0  0  0  0  0  0  0  0  0  0  0  0
   30.1710   15.3472  -11.4049 C   0  0  0  0  0  0  0  0  0  0  0  0
   26.5564   15.3223  -14.5540 C   0  0  0  0  0  0  0  0  0  0  0  0
   28.9045   15.7878  -11.5346 C   0  0  0  0  0  0  0  0  0  0  0  0
   24.6197   16.2548  -13.3133 C   0  0  0  0  0  0  0  0  0  0  0  0
   31.0745   15.1066  -12.5872 C   0  0  0  0  0  0  0  0  0  0  0  0
   27.4069   15.1882  -13.3177 C   0  0  0  0  0  0  0  0  0  0  0  0
   28.3119   16.1034  -12.8918 C   0  0  0  0  0  0  0  0  0  0  0  0
   21.2518   12.5060  -24.9253 H   0  0  0  0  0  0  0  0  0  0  0  0
   20.5515   13.8669  -23.9483 H   0  0  0  0  0  0  0  0  0  0  0  0
   32.7295   12.5306   -1.7915 H   0  0  0  0  0  0  0  0  0  0  0  0
   34.3827   11.9277   -2.2561 H   0  0  0  0  0  0  0  0  0  0  0  0
   22.5420   14.0494  -26.2468 H   0  0  0  0  0  0  0  0  0  0  0  0
   20.8171   14.6633  -26.1561 H   0  0  0  0  0  0  0  0  0  0  0  0
   34.4555   13.5865   -0.4128 H   0  0  0  0  0  0  0  0  0  0  0  0
   35.3225   14.1277   -1.9192 H   0  0  0  0  0  0  0  0  0  0  0  0
   22.3679   12.9169  -21.3698 H   0  0  0  0  0  0  0  0  0  0  0  0
   21.0640   12.2611  -22.4170 H   0  0  0  0  0  0  0  0  0  0  0  0
   22.6878   11.4929  -22.4170 H   0  0  0  0  0  0  0  0  0  0  0  0
   24.5348   12.4208  -23.4765 H   0  0  0  0  0  0  0  0  0  0  0  0
   23.4702   11.9444  -24.8426 H   0  0  0  0  0  0  0  0  0  0  0  0
   24.2648   13.5554  -24.8426 H   0  0  0  0  0  0  0  0  0  0  0  0
   35.6008   13.3330   -3.7536 H   0  0  0  0  0  0  0  0  0  0  0  0
   34.9060   12.3794   -5.1081 H   0  0  0  0  0  0  0  0  0  0  0  0
   34.7699   14.1705   -5.1081 H   0  0  0  0  0  0  0  0  0  0  0  0
   32.1581   11.4348   -3.5978 H   0  0  0  0  0  0  0  0  0  0  0  0
   31.8331   12.5062   -5.0025 H   0  0  0  0  0  0  0  0  0  0  0  0
   33.2776   11.4385   -5.0025 H   0  0  0  0  0  0  0  0  0  0  0  0
   24.9541   14.2611  -21.8727 H   0  0  0  0  0  0  0  0  0  0  0  0
   32.6003   15.2259   -5.9669 H   0  0  0  0  0  0  0  0  0  0  0  0
   23.0634   17.1696  -22.0079 H   0  0  0  0  0  0  0  0  0  0  0  0
   24.0310   17.7927  -23.3871 H   0  0  0  0  0  0  0  0  0  0  0  0
   22.2443   17.9781  -23.3871 H   0  0  0  0  0  0  0  0  0  0  0  0
   32.0718   17.3828   -1.9366 H   0  0  0  0  0  0  0  0  0  0  0  0
   32.9473   17.6269   -3.4860 H   0  0  0  0  0  0  0  0  0  0  0  0
   31.3112   16.8853   -3.4860 H   0  0  0  0  0  0  0  0  0  0  0  0
   22.5518   15.5281  -20.4525 H   0  0  0  0  0  0  0  0  0  0  0  0
   30.0728   14.5131   -4.3627 H   0  0  0  0  0  0  0  0  0  0  0  0
   25.9438   13.5549  -18.5537 H   0  0  0  0  0  0  0  0  0  0  0  0
   25.2473   12.9721  -20.1035 H   0  0  0  0  0  0  0  0  0  0  0  0
   26.4386   14.3165  -20.1035 H   0  0  0  0  0  0  0  0  0  0  0  0
   28.8270   16.7588   -5.4661 H   0  0  0  0  0  0  0  0  0  0  0  0
   29.5170   17.3337   -7.0217 H   0  0  0  0  0  0  0  0  0  0  0  0
   28.1409   16.1792   -7.0217 H   0  0  0  0  0  0  0  0  0  0  0  0
   23.4496   16.3032  -18.2999 H   0  0  0  0  0  0  0  0  0  0  0  0
   31.1754   13.8562   -7.4686 H   0  0  0  0  0  0  0  0  0  0  0  0
   25.9381   14.6677  -17.0372 H   0  0  0  0  0  0  0  0  0  0  0  0
   28.7744   14.8063   -9.1669 H   0  0  0  0  0  0  0  0  0  0  0  0
   23.8334   16.6916  -16.0442 H   0  0  0  0  0  0  0  0  0  0  0  0
   31.7731   15.3407   -9.7633 H   0  0  0  0  0  0  0  0  0  0  0  0
   26.9779   14.9552  -15.5014 H   0  0  0  0  0  0  0  0  0  0  0  0
   28.2870   15.9214  -10.6342 H   0  0  0  0  0  0  0  0  0  0  0  0
   25.2039   15.9248  -12.4415 H   0  0  0  0  0  0  0  0  0  0  0  0
   24.5090   17.3489  -13.2876 H   0  0  0  0  0  0  0  0  0  0  0  0
   23.6255   15.7849  -13.2876 H   0  0  0  0  0  0  0  0  0  0  0  0
   32.0804   14.8387  -12.2314 H   0  0  0  0  0  0  0  0  0  0  0  0
   30.6702   14.2848  -13.1964 H   0  0  0  0  0  0  0  0  0  0  0  0
   31.1325   16.0206  -13.1964 H   0  0  0  0  0  0  0  0  0  0  0  0
   27.2841   14.2771  -12.7137 H   0  0  0  0  0  0  0  0  0  0  0  0
   28.5897   16.9921  -13.4775 H   0  0  0  0  0  0  0  0  0  0  0  0
  1 17  2  0
  2 18  2  0
  3  5  1  0
  3  7  1  0
  3 11  1  1
  3 12  1  0
  4  6  1  0
  4  8  1  0
  4 13  1  6
  4 14  1  0
  5  9  1  0
  6 10  1  0
  7 15  2  0
  7 19  1  0
  8 16  2  0
  8 20  1  0
  9 17  1  0
 10 18  1  0
 15 17  1  0
 15 21  1  0
 16 18  1  0
 16 22  1  0
 19 23  2  3
 20 24  2  3
 23 25  1  0
 24 26  1  0
 25 27  1  0
 25 29  2  3
 26 28  1  0
 26 30  2  3
 29 31  1  0
 30 32  1  0
 31 33  2  3
 32 34  2  3
 33 35  1  0
 34 36  1  0
 35 37  2  3
 35 39  1  0
 36 38  2  3
 36 40  1  0
 37 41  1  0
 38 42  1  0
 41 42  2  3
  5 43  1  0
  5 44  1  0
  6 45  1  0
  6 46  1  0
  9 47  1  0
  9 48  1  0
 10 49  1  0
 10 50  1  0
 11 51  1  0
 11 52  1  0
 11 53  1  0
 12 54  1  0
 12 55  1  0
 12 56  1  0
 13 57  1  0
 13 58  1  0
 13 59  1  0
 14 60  1  0
 14 61  1  0
 14 62  1  0
 19 63  1  0
 20 64  1  0
 21 65  1  0
 21 66  1  0
 21 67  1  0
 22 68  1  0
 22 69  1  0
 22 70  1  0
 23 71  1  0
 24 72  1  0
 27 73  1  0
 27 74  1  0
 27 75  1  0
 28 76  1  0
 28 77  1  0
 28 78  1  0
 29 79  1  0
 30 80  1  0
 31 81  1  0
 32 82  1  0
 33 83  1  0
 34 84  1  0
 37 85  1  0
 38 86  1  0
 39 87  1  0
 39 88  1  0
 39 89  1  0
 40 90  1  0
 40 91  1  0
 40 92  1  0
 41 93  1  0
 42 94  1  0
M  END
>  <filename_input>  (19) 
7ZXV_45D_docked.sdf

>  <pdb_id>  (19) 
7ZXV_45D

>  <pose_rank>  (19) 
18

>  <num_atoms_heavy>  (19) 
42

>  <num_torsions>  (19) 
10

>  <pose>  (19) 
[27.40690658054875, 15.188197555180706, -13.317664369017612, -1.1371472871366382, 1.0341583439147406, -4.5745089042883125, -4.429085616585205, -2.410486954598261, -0.29267377270805367, -0.6176315478942234, 6.003325146875237, -1.8064102020072055, -2.808703508974255, -0.7254966164334017, -2.5248856372140733, 6.117192714927867]

>  <energy>  (19) 
-236.14922858773662

>  <inter_energy>  (19) 
-249.60200445161047

>  <intra_energy>  (19) 
14.652756873887098

>  <rmsd>  (19) 
9.43065

>  <sdf_rank>  (19) 
0

$$$$

     RDKit          3D

 94 95  0  0  0  0  0  0  0  0999 V2000
   24.7580   17.9210  -23.7668 O   0  0  0  0  0  0  0  0  0  0  0  0
   17.0663    8.0959   -1.1031 O   0  0  0  0  0  0  0  0  0  0  0  0
   24.4608   14.2189  -21.8291 C   0  0  1  0  0  0  0  0  0  0  0  0
   19.5069   11.4807   -1.6697 C   0  0  1  0  0  0  0  0  0  0  0  0
   23.8752   14.4375  -23.2307 C   0  0  0  0  0  0  0  0  0  0  0  0
   19.7740   10.4152   -0.6035 C   0  0  0  0  0  0  0  0  0  0  0  0
   24.4902   15.4976  -21.0210 C   0  0  0  0  0  0  0  0  0  0  0  0
   18.6428   10.9242   -2.8153 C   0  0  0  0  0  0  0  0  0  0  0  0
   24.5844   15.5758  -23.9815 C   0  0  0  0  0  0  0  0  0  0  0  0
   18.4863    9.7614   -0.0877 C   0  0  0  0  0  0  0  0  0  0  0  0
   23.6352   13.1347  -21.1210 C   0  0  0  0  0  0  0  0  0  0  0  0
   25.9188   13.7496  -21.9975 C   0  0  0  0  0  0  0  0  0  0  0  0
   18.8419   12.7100   -1.0306 C   0  0  0  0  0  0  0  0  0  0  0  0
   20.8472   11.9292   -2.2494 C   0  0  0  0  0  0  0  0  0  0  0  0
   24.7175   16.8330  -21.6940 C   0  0  0  0  0  0  0  0  0  0  0  0
   17.5656    9.8998   -2.5039 C   0  0  0  0  0  0  0  0  0  0  0  0
   24.6937   16.8742  -23.1927 C   0  0  0  0  0  0  0  0  0  0  0  0
   17.6651    9.1360   -1.1958 C   0  0  0  0  0  0  0  0  0  0  0  0
   24.7941   15.2912  -19.5575 C   0  0  0  0  0  0  0  0  0  0  0  0
   18.5238   11.6513   -4.1256 C   0  0  0  0  0  0  0  0  0  0  0  0
   24.4187   18.0891  -20.8565 C   0  0  0  0  0  0  0  0  0  0  0  0
   16.5699    9.4280   -3.5622 C   0  0  0  0  0  0  0  0  0  0  0  0
   25.9231   15.6797  -19.0680 C   0  0  0  0  0  0  0  0  0  0  0  0
   17.7602   12.7110   -4.2055 C   0  0  0  0  0  0  0  0  0  0  0  0
   26.1133   15.5393  -17.5730 C   0  0  0  0  0  0  0  0  0  0  0  0
   17.6793   13.4569   -5.5267 C   0  0  0  0  0  0  0  0  0  0  0  0
   27.0215   14.4616  -17.0452 C   0  0  0  0  0  0  0  0  0  0  0  0
   16.4082   13.4415   -6.3381 C   0  0  0  0  0  0  0  0  0  0  0  0
   25.4305   16.3735  -16.7764 C   0  0  0  0  0  0  0  0  0  0  0  0
   18.7930   14.1207   -5.8644 C   0  0  0  0  0  0  0  0  0  0  0  0
   25.4613   16.2451  -15.2703 C   0  0  0  0  0  0  0  0  0  0  0  0
   18.9609   14.8894   -7.1601 C   0  0  0  0  0  0  0  0  0  0  0  0
   24.3574   16.5904  -14.6070 C   0  0  0  0  0  0  0  0  0  0  0  0
   19.9521   15.7933   -7.2565 C   0  0  0  0  0  0  0  0  0  0  0  0
   24.1883   16.4600  -13.0990 C   0  0  0  0  0  0  0  0  0  0  0  0
   20.2008   16.5088   -8.5913 C   0  0  0  0  0  0  0  0  0  0  0  0
   22.9508   16.4239  -12.6253 C   0  0  0  0  0  0  0  0  0  0  0  0
   21.4581   16.4678   -9.0733 C   0  0  0  0  0  0  0  0  0  0  0  0
   25.3901   16.4068  -12.1682 C   0  0  0  0  0  0  0  0  0  0  0  0
   19.0569   17.1293   -9.3520 C   0  0  0  0  0  0  0  0  0  0  0  0
   22.5811   16.1984  -11.1823 C   0  0  0  0  0  0  0  0  0  0  0  0
   21.7995   17.0212  -10.4407 C   0  0  0  0  0  0  0  0  0  0  0  0
   23.9842   13.5086  -23.8097 H   0  0  0  0  0  0  0  0  0  0  0  0
   22.8168   14.7143  -23.1166 H   0  0  0  0  0  0  0  0  0  0  0  0
   20.4156    9.6347   -1.0384 H   0  0  0  0  0  0  0  0  0  0  0  0
   20.2604   10.9116    0.2491 H   0  0  0  0  0  0  0  0  0  0  0  0
   25.6008   15.2403  -24.2354 H   0  0  0  0  0  0  0  0  0  0  0  0
   23.9730   15.7967  -24.8688 H   0  0  0  0  0  0  0  0  0  0  0  0
   18.7548    8.9783    0.6366 H   0  0  0  0  0  0  0  0  0  0  0  0
   17.8749   10.5503    0.3749 H   0  0  0  0  0  0  0  0  0  0  0  0
   23.7278   13.2564  -20.0316 H   0  0  0  0  0  0  0  0  0  0  0  0
   22.5786   13.2299  -21.4120 H   0  0  0  0  0  0  0  0  0  0  0  0
   24.0077   12.1415  -21.4120 H   0  0  0  0  0  0  0  0  0  0  0  0
   26.3736   13.6032  -21.0067 H   0  0  0  0  0  0  0  0  0  0  0  0
   25.9366   12.8004  -22.5530 H   0  0  0  0  0  0  0  0  0  0  0  0
   26.4870   14.5103  -22.5530 H   0  0  0  0  0  0  0  0  0  0  0  0
   18.8885   12.6240    0.0650 H   0  0  0  0  0  0  0  0  0  0  0  0
   19.3707   13.6203   -1.3497 H   0  0  0  0  0  0  0  0  0  0  0  0
   17.7907   12.7656   -1.3497 H   0  0  0  0  0  0  0  0  0  0  0  0
   21.5421   12.1617   -1.4290 H   0  0  0  0  0  0  0  0  0  0  0  0
   21.2673   11.1227   -2.8683 H   0  0  0  0  0  0  0  0  0  0  0  0
   20.6972   12.8261   -2.8683 H   0  0  0  0  0  0  0  0  0  0  0  0
   24.0510   14.8082  -18.9059 H   0  0  0  0  0  0  0  0  0  0  0  0
   19.0736   11.2956   -5.0094 H   0  0  0  0  0  0  0  0  0  0  0  0
   24.4782   17.8393  -19.7869 H   0  0  0  0  0  0  0  0  0  0  0  0
   25.1560   18.8707  -21.0920 H   0  0  0  0  0  0  0  0  0  0  0  0
   23.4085   18.4550  -21.0920 H   0  0  0  0  0  0  0  0  0  0  0  0
   15.6818    9.0070   -3.0683 H   0  0  0  0  0  0  0  0  0  0  0  0
   16.2709   10.2801   -4.1902 H   0  0  0  0  0  0  0  0  0  0  0  0
   17.0402    8.6569   -4.1902 H   0  0  0  0  0  0  0  0  0  0  0  0
   26.7138   16.0952  -19.7100 H   0  0  0  0  0  0  0  0  0  0  0  0
   17.1874   13.0556   -3.3319 H   0  0  0  0  0  0  0  0  0  0  0  0
   27.0084   14.4771  -15.9453 H   0  0  0  0  0  0  0  0  0  0  0  0
   26.6732   13.4812  -17.4022 H   0  0  0  0  0  0  0  0  0  0  0  0
   28.0468   14.6388  -17.4022 H   0  0  0  0  0  0  0  0  0  0  0  0
   15.5412   13.4310   -5.6611 H   0  0  0  0  0  0  0  0  0  0  0  0
   16.3672   14.3392   -6.9724 H   0  0  0  0  0  0  0  0  0  0  0  0
   16.3890   12.5430   -6.9724 H   0  0  0  0  0  0  0  0  0  0  0  0
   24.8302   17.1749  -17.2318 H   0  0  0  0  0  0  0  0  0  0  0  0
   19.6367   14.1071   -5.1588 H   0  0  0  0  0  0  0  0  0  0  0  0
   26.3565   15.8821  -14.7441 H   0  0  0  0  0  0  0  0  0  0  0  0
   18.2829   14.7108   -8.0077 H   0  0  0  0  0  0  0  0  0  0  0  0
   23.5145   16.9956  -15.1862 H   0  0  0  0  0  0  0  0  0  0  0  0
   20.5815   16.0186   -6.3830 H   0  0  0  0  0  0  0  0  0  0  0  0
   22.1293   16.5701  -13.3420 H   0  0  0  0  0  0  0  0  0  0  0  0
   22.2548   16.0221   -8.4595 H   0  0  0  0  0  0  0  0  0  0  0  0
   25.0458   16.4221  -11.1236 H   0  0  0  0  0  0  0  0  0  0  0  0
   25.9572   15.4827  -12.3539 H   0  0  0  0  0  0  0  0  0  0  0  0
   26.0366   17.2772  -12.3539 H   0  0  0  0  0  0  0  0  0  0  0  0
   18.3186   17.5298   -8.6417 H   0  0  0  0  0  0  0  0  0  0  0  0
   19.4370   17.9449   -9.9847 H   0  0  0  0  0  0  0  0  0  0  0  0
   18.5805   16.3660   -9.9847 H   0  0  0  0  0  0  0  0  0  0  0  0
   22.9760   15.2961  -10.6925 H   0  0  0  0  0  0  0  0  0  0  0  0
   21.4463   17.9995  -10.7989 H   0  0  0  0  0  0  0  0  0  0  0  0
  1 17  2  0
  2 18  2  0
  3  5  1  0
  3  7  1  0
  3 11  1  1
  3 12  1  0
  4  6  1  0
  4  8  1  0
  4 13  1  1
  4 14  1  0
  5  9  1  0
  6 10  1  0
  7 15  2  0
  7 19  1  0
  8 16  2  0
  8 20  1  0
  9 17  1  0
 10 18  1  0
 15 17  1  0
 15 21  1  0
 16 18  1  0
 16 22  1  0
 19 23  2  3
 20 24  2  3
 23 25  1  0
 24 26  1  0
 25 27  1  0
 25 29  2  3
 26 28  1  0
 26 30  2  3
 29 31  1  0
 30 32  1  0
 31 33  2  3
 32 34  2  3
 33 35  1  0
 34 36  1  0
 35 37  2  3
 35 39  1  0
 36 38  2  3
 36 40  1  0
 37 41  1  0
 38 42  1  0
 41 42  2  3
  5 43  1  0
  5 44  1  0
  6 45  1  0
  6 46  1  0
  9 47  1  0
  9 48  1  0
 10 49  1  0
 10 50  1  0
 11 51  1  0
 11 52  1  0
 11 53  1  0
 12 54  1  0
 12 55  1  0
 12 56  1  0
 13 57  1  0
 13 58  1  0
 13 59  1  0
 14 60  1  0
 14 61  1  0
 14 62  1  0
 19 63  1  0
 20 64  1  0
 21 65  1  0
 21 66  1  0
 21 67  1  0
 22 68  1  0
 22 69  1  0
 22 70  1  0
 23 71  1  0
 24 72  1  0
 27 73  1  0
 27 74  1  0
 27 75  1  0
 28 76  1  0
 28 77  1  0
 28 78  1  0
 29 79  1  0
 30 80  1  0
 31 81  1  0
 32 82  1  0
 33 83  1  0
 34 84  1  0
 37 85  1  0
 38 86  1  0
 39 87  1  0
 39 88  1  0
 39 89  1  0
 40 90  1  0
 40 91  1  0
 40 92  1  0
 41 93  1  0
 42 94  1  0
M  END
>  <filename_input>  (20) 
7ZXV_45D_docked.sdf

>  <pdb_id>  (20) 
7ZXV_45D

>  <pose_rank>  (20) 
19

>  <num_atoms_heavy>  (20) 
42

>  <num_torsions>  (20) 
10

>  <pose>  (20) 
[22.581107937001274, 16.19838402693396, -11.182301949402817, 0.02555853625203914, -1.1596128899955898, 2.4761983193464303, -0.6378497192476713, 0.7789045000709192, 0.17030557486621636, 1.5656436872868222, -2.6760649941239616, 0.27258966596177614, 0.7153576158601777, -0.0265112156632913, 1.5076468550175695, 2.883202761190935]

>  <energy>  (20) 
-234.7563228927116

>  <inter_energy>  (20) 
-247.88599724861032

>  <intra_energy>  (20) 
16.396847515677145

>  <rmsd>  (20) 
10.0043

>  <sdf_rank>  (20) 
0

$$$$

     RDKit          3D

 94 95  0  0  0  0  0  0  0  0999 V2000
   20.6553   11.7875    1.8283 O   0  0  0  0  0  0  0  0  0  0  0  0
   26.5504   17.3544  -22.7359 O   0  0  0  0  0  0  0  0  0  0  0  0
   18.1422   10.1537   -1.0981 C   0  0  1  0  0  0  0  0  0  0  0  0
   24.1629   14.2522  -21.1835 C   0  0  1  0  0  0  0  0  0  0  0  0
   18.5878    9.3354    0.1212 C   0  0  0  0  0  0  0  0  0  0  0  0
   24.6863   14.2767  -22.6219 C   0  0  0  0  0  0  0  0  0  0  0  0
   19.1583   11.2095   -1.4747 C   0  0  0  0  0  0  0  0  0  0  0  0
   25.0231   15.1309  -20.2581 C   0  0  0  0  0  0  0  0  0  0  0  0
   18.9550   10.2313    1.3149 C   0  0  0  0  0  0  0  0  0  0  0  0
   24.8467   15.7012  -23.1667 C   0  0  0  0  0  0  0  0  0  0  0  0
   17.8880    9.1882   -2.2651 C   0  0  0  0  0  0  0  0  0  0  0  0
   16.8393   10.8853   -0.7218 C   0  0  0  0  0  0  0  0  0  0  0  0
   22.6927   14.6987  -21.1504 C   0  0  0  0  0  0  0  0  0  0  0  0
   24.2204   12.8131  -20.6741 C   0  0  0  0  0  0  0  0  0  0  0  0
   19.9899   11.8961   -0.4139 C   0  0  0  0  0  0  0  0  0  0  0  0
   25.6334   16.4102  -20.8037 C   0  0  0  0  0  0  0  0  0  0  0  0
   19.9339   11.3496    0.9814 C   0  0  0  0  0  0  0  0  0  0  0  0
   25.7584   16.5544  -22.3098 C   0  0  0  0  0  0  0  0  0  0  0  0
   18.9064   11.8523   -2.8164 C   0  0  0  0  0  0  0  0  0  0  0  0
   24.9288   15.0130  -18.7625 C   0  0  0  0  0  0  0  0  0  0  0  0
   21.2005   12.7102   -0.9039 C   0  0  0  0  0  0  0  0  0  0  0  0
   26.3606   17.4064  -19.9023 C   0  0  0  0  0  0  0  0  0  0  0  0
   18.3949   13.0350   -2.8836 C   0  0  0  0  0  0  0  0  0  0  0  0
   23.9726   15.6413  -18.1273 C   0  0  0  0  0  0  0  0  0  0  0  0
   18.2728   13.6583   -4.2575 C   0  0  0  0  0  0  0  0  0  0  0  0
   23.8679   15.4824  -16.6199 C   0  0  0  0  0  0  0  0  0  0  0  0
   17.4489   12.9650   -5.3089 C   0  0  0  0  0  0  0  0  0  0  0  0
   22.7453   14.6806  -16.0106 C   0  0  0  0  0  0  0  0  0  0  0  0
   18.9384   14.7989   -4.4863 C   0  0  0  0  0  0  0  0  0  0  0  0
   24.8465   16.0772  -15.9245 C   0  0  0  0  0  0  0  0  0  0  0  0
   18.9751   15.4427   -5.8537 C   0  0  0  0  0  0  0  0  0  0  0  0
   24.9185   16.0966  -14.4105 C   0  0  0  0  0  0  0  0  0  0  0  0
   20.1672   15.8188   -6.3180 C   0  0  0  0  0  0  0  0  0  0  0  0
   24.3687   17.1288  -13.7463 C   0  0  0  0  0  0  0  0  0  0  0  0
   20.3982   16.4179   -7.6990 C   0  0  0  0  0  0  0  0  0  0  0  0
   24.3430   17.1178  -12.2118 C   0  0  0  0  0  0  0  0  0  0  0  0
   21.4886   16.0415   -8.3521 C   0  0  0  0  0  0  0  0  0  0  0  0
   23.1343   17.2292  -11.6274 C   0  0  0  0  0  0  0  0  0  0  0  0
   19.4348   17.4337   -8.2938 C   0  0  0  0  0  0  0  0  0  0  0  0
   25.6092   16.8896  -11.4266 C   0  0  0  0  0  0  0  0  0  0  0  0
   21.8370   16.4433   -9.7617 C   0  0  0  0  0  0  0  0  0  0  0  0
   22.9655   17.0990  -10.1283 C   0  0  0  0  0  0  0  0  0  0  0  0
   17.7669    8.6665    0.4189 H   0  0  0  0  0  0  0  0  0  0  0  0
   19.4842    8.7645   -0.1627 H   0  0  0  0  0  0  0  0  0  0  0  0
   25.6657   13.7768  -22.6490 H   0  0  0  0  0  0  0  0  0  0  0  0
   23.9491   13.7594  -23.2536 H   0  0  0  0  0  0  0  0  0  0  0  0
   18.0310   10.6861    1.7014 H   0  0  0  0  0  0  0  0  0  0  0  0
   19.4542    9.5851    2.0519 H   0  0  0  0  0  0  0  0  0  0  0  0
   25.2681   15.6447  -24.1812 H   0  0  0  0  0  0  0  0  0  0  0  0
   23.8524   16.1718  -23.1654 H   0  0  0  0  0  0  0  0  0  0  0  0
   17.6267    8.1957   -1.8695 H   0  0  0  0  0  0  0  0  0  0  0  0
   17.0591    9.5674   -2.8808 H   0  0  0  0  0  0  0  0  0  0  0  0
   18.7962    9.1101   -2.8808 H   0  0  0  0  0  0  0  0  0  0  0  0
   16.7502   10.9353    0.3735 H   0  0  0  0  0  0  0  0  0  0  0  0
   16.8586   11.9045   -1.1350 H   0  0  0  0  0  0  0  0  0  0  0  0
   15.9791   10.3382   -1.1350 H   0  0  0  0  0  0  0  0  0  0  0  0
   22.3634   14.7988  -20.1057 H   0  0  0  0  0  0  0  0  0  0  0  0
   22.5924   15.6679  -21.6610 H   0  0  0  0  0  0  0  0  0  0  0  0
   22.0703   13.9492  -21.6610 H   0  0  0  0  0  0  0  0  0  0  0  0
   24.2204   12.8133  -19.5741 H   0  0  0  0  0  0  0  0  0  0  0  0
   23.3437   12.2591  -21.0407 H   0  0  0  0  0  0  0  0  0  0  0  0
   25.1386   12.3308  -21.0407 H   0  0  0  0  0  0  0  0  0  0  0  0
   19.1595   11.3109   -3.7399 H   0  0  0  0  0  0  0  0  0  0  0  0
   25.6570   14.4039  -18.2069 H   0  0  0  0  0  0  0  0  0  0  0  0
   21.7629   13.0884   -0.0375 H   0  0  0  0  0  0  0  0  0  0  0  0
   21.8531   12.0667   -1.5122 H   0  0  0  0  0  0  0  0  0  0  0  0
   20.8507   13.5573   -1.5122 H   0  0  0  0  0  0  0  0  0  0  0  0
   26.1744   17.1512  -18.8486 H   0  0  0  0  0  0  0  0  0  0  0  0
   27.4410   17.3631  -20.1046 H   0  0  0  0  0  0  0  0  0  0  0  0
   25.9901   18.4222  -20.1046 H   0  0  0  0  0  0  0  0  0  0  0  0
   18.0618   13.5678   -1.9808 H   0  0  0  0  0  0  0  0  0  0  0  0
   23.2577   16.2730  -18.6748 H   0  0  0  0  0  0  0  0  0  0  0  0
   16.6938   12.3296   -4.8231 H   0  0  0  0  0  0  0  0  0  0  0  0
   16.9471   13.7166   -5.9361 H   0  0  0  0  0  0  0  0  0  0  0  0
   18.1036   12.3421   -5.9361 H   0  0  0  0  0  0  0  0  0  0  0  0
   22.8133   14.7292  -14.9138 H   0  0  0  0  0  0  0  0  0  0  0  0
   21.7798   15.0948  -16.3369 H   0  0  0  0  0  0  0  0  0  0  0  0
   22.8238   13.6331  -16.3369 H   0  0  0  0  0  0  0  0  0  0  0  0
   19.4737   15.2808   -3.6548 H   0  0  0  0  0  0  0  0  0  0  0  0
   25.6463   16.5820  -16.4863 H   0  0  0  0  0  0  0  0  0  0  0  0
   18.0573   15.5944   -6.4407 H   0  0  0  0  0  0  0  0  0  0  0  0
   25.4124   15.2797  -13.8640 H   0  0  0  0  0  0  0  0  0  0  0  0
   21.0399   15.6879   -5.6613 H   0  0  0  0  0  0  0  0  0  0  0  0
   23.9397   17.9768  -14.3002 H   0  0  0  0  0  0  0  0  0  0  0  0
   22.1944   15.3841   -7.8234 H   0  0  0  0  0  0  0  0  0  0  0  0
   22.2500   17.4192  -12.2534 H   0  0  0  0  0  0  0  0  0  0  0  0
   18.9235   17.9728   -7.4827 H   0  0  0  0  0  0  0  0  0  0  0  0
   19.9938   18.1495   -8.9145 H   0  0  0  0  0  0  0  0  0  0  0  0
   18.6904   16.9134   -8.9145 H   0  0  0  0  0  0  0  0  0  0  0  0
   25.3855   16.9299  -10.3503 H   0  0  0  0  0  0  0  0  0  0  0  0
   26.0238   15.9023  -11.6782 H   0  0  0  0  0  0  0  0  0  0  0  0
   26.3424   17.6701  -11.6782 H   0  0  0  0  0  0  0  0  0  0  0  0
   21.1201   16.1846  -10.5549 H   0  0  0  0  0  0  0  0  0  0  0  0
   23.6907   17.4990   -9.4044 H   0  0  0  0  0  0  0  0  0  0  0  0
  1 17  2  0
  2 18  2  0
  3  5  1  0
  3  7  1  0
  3 11  1  6
  3 12  1  0
  4  6  1  0
  4  8  1  0
  4 13  1  6
  4 14  1  0
  5  9  1  0
  6 10  1  0
  7 15  2  0
  7 19  1  0
  8 16  2  0
  8 20  1  0
  9 17  1  0
 10 18  1  0
 15 17  1  0
 15 21  1  0
 16 18  1  0
 16 22  1  0
 19 23  2  3
 20 24  2  3
 23 25  1  0
 24 26  1  0
 25 27  1  0
 25 29  2  3
 26 28  1  0
 26 30  2  3
 29 31  1  0
 30 32  1  0
 31 33  2  3
 32 34  2  3
 33 35  1  0
 34 36  1  0
 35 37  2  3
 35 39  1  0
 36 38  2  3
 36 40  1  0
 37 41  1  0
 38 42  1  0
 41 42  2  3
  5 43  1  0
  5 44  1  0
  6 45  1  0
  6 46  1  0
  9 47  1  0
  9 48  1  0
 10 49  1  0
 10 50  1  0
 11 51  1  0
 11 52  1  0
 11 53  1  0
 12 54  1  0
 12 55  1  0
 12 56  1  0
 13 57  1  0
 13 58  1  0
 13 59  1  0
 14 60  1  0
 14 61  1  0
 14 62  1  0
 19 63  1  0
 20 64  1  0
 21 65  1  0
 21 66  1  0
 21 67  1  0
 22 68  1  0
 22 69  1  0
 22 70  1  0
 23 71  1  0
 24 72  1  0
 27 73  1  0
 27 74  1  0
 27 75  1  0
 28 76  1  0
 28 77  1  0
 28 78  1  0
 29 79  1  0
 30 80  1  0
 31 81  1  0
 32 82  1  0
 33 83  1  0
 34 84  1  0
 37 85  1  0
 38 86  1  0
 39 87  1  0
 39 88  1  0
 39 89  1  0
 40 90  1  0
 40 91  1  0
 40 92  1  0
 41 93  1  0
 42 94  1  0
M  END
>  <filename_input>  (21) 
7ZXV_45D_docked.sdf

>  <pdb_id>  (21) 
7ZXV_45D

>  <pose_rank>  (21) 
20

>  <num_atoms_heavy>  (21) 
42

>  <num_torsions>  (21) 
10

>  <pose>  (21) 
[21.83699264794343, 16.44328515103422, -9.761682342076712, -3.4271420478563424, 0.02933722258161341, 0.24971228999276732, -0.7033308007648912, 1.0964835357316005, 0.4473731558588845, 0.7457354388186149, -2.791989368022767, 6.418302050981133, 0.7918473253289867, 1.8055390632737498, -2.32590612197248, 2.7775033095393002]

>  <energy>  (21) 
-230.11606736662398

>  <inter_energy>  (21) 
-243.48561195979784

>  <intra_energy>  (21) 
16.125146183717003

>  <rmsd>  (21) 
9.99127

>  <sdf_rank>  (21) 
0

$$$$

     RDKit          3D

 94 95  0  0  0  0  0  0  0  0999 V2000
   19.1802    2.4150    2.4794 O   0  0  0  0  0  0  0  0  0  0  0  0
   20.7646    6.2125  -23.2628 O   0  0  0  0  0  0  0  0  0  0  0  0
   20.8072    0.2461   -0.7140 C   0  0  1  0  0  0  0  0  0  0  0  0
   16.9664    4.6064  -22.4094 C   0  0  1  0  0  0  0  0  0  0  0  0
   21.4315    0.1967    0.6870 C   0  0  0  0  0  0  0  0  0  0  0  0
   17.5626    4.6634  -23.8181 C   0  0  0  0  0  0  0  0  0  0  0  0
   20.0949    1.5559   -0.9717 C   0  0  0  0  0  0  0  0  0  0  0  0
   18.0643    4.6638  -21.3324 C   0  0  0  0  0  0  0  0  0  0  0  0
   20.4078    0.5203    1.7869 C   0  0  0  0  0  0  0  0  0  0  0  0
   18.4986    5.8622  -24.0141 C   0  0  0  0  0  0  0  0  0  0  0  0
   21.9159    0.0055   -1.7491 C   0  0  0  0  0  0  0  0  0  0  0  0
   19.7518   -0.8735   -0.7974 C   0  0  0  0  0  0  0  0  0  0  0  0
   15.9539    5.7469  -22.2195 C   0  0  0  0  0  0  0  0  0  0  0  0
   16.2105    3.2875  -22.2589 C   0  0  0  0  0  0  0  0  0  0  0  0
   19.3981    2.2914    0.1515 C   0  0  0  0  0  0  0  0  0  0  0  0
   19.3048    5.5047  -21.5794 C   0  0  0  0  0  0  0  0  0  0  0  0
   19.6190    1.8019    1.5515 C   0  0  0  0  0  0  0  0  0  0  0  0
   19.6334    5.8865  -23.0115 C   0  0  0  0  0  0  0  0  0  0  0  0
   19.7051    1.7686   -2.4137 C   0  0  0  0  0  0  0  0  0  0  0  0
   17.7763    4.2896  -19.9053 C   0  0  0  0  0  0  0  0  0  0  0  0
   18.9817    3.7463   -0.1286 C   0  0  0  0  0  0  0  0  0  0  0  0
   20.3541    5.7343  -20.4932 C   0  0  0  0  0  0  0  0  0  0  0  0
   18.4894    1.5630   -2.7945 C   0  0  0  0  0  0  0  0  0  0  0  0
   18.3126    3.2062  -19.4042 C   0  0  0  0  0  0  0  0  0  0  0  0
   18.1479    1.9018   -4.2296 C   0  0  0  0  0  0  0  0  0  0  0  0
   18.0423    2.8611  -17.9495 C   0  0  0  0  0  0  0  0  0  0  0  0
   16.7225    2.2224   -4.5904 C   0  0  0  0  0  0  0  0  0  0  0  0
   16.7953    3.3594  -17.2633 C   0  0  0  0  0  0  0  0  0  0  0  0
   19.1396    1.8702   -5.1308 C   0  0  0  0  0  0  0  0  0  0  0  0
   18.9696    2.0817  -17.3769 C   0  0  0  0  0  0  0  0  0  0  0  0
   18.8861    2.0813   -6.6062 C   0  0  0  0  0  0  0  0  0  0  0  0
   18.9366    1.6547  -15.9228 C   0  0  0  0  0  0  0  0  0  0  0  0
   19.8838    1.7935   -7.4428 C   0  0  0  0  0  0  0  0  0  0  0  0
   19.7301    0.6450  -15.5232 C   0  0  0  0  0  0  0  0  0  0  0  0
   19.7813    1.8805   -8.9599 C   0  0  0  0  0  0  0  0  0  0  0  0
   19.7852    0.2642  -14.0374 C   0  0  0  0  0  0  0  0  0  0  0  0
   20.8601    1.5653   -9.6627 C   0  0  0  0  0  0  0  0  0  0  0  0
   20.9247    0.5568  -13.3810 C   0  0  0  0  0  0  0  0  0  0  0  0
   18.5032    2.3426   -9.6430 C   0  0  0  0  0  0  0  0  0  0  0  0
   18.5744   -0.3129  -13.3497 C   0  0  0  0  0  0  0  0  0  0  0  0
   20.9247    1.4928  -11.1662 C   0  0  0  0  0  0  0  0  0  0  0  0
   21.0515    0.3512  -11.8862 C   0  0  0  0  0  0  0  0  0  0  0  0
   21.8325   -0.8126    0.8614 H   0  0  0  0  0  0  0  0  0  0  0  0
   22.2272    0.9549    0.7307 H   0  0  0  0  0  0  0  0  0  0  0  0
   18.1315    3.7392  -23.9976 H   0  0  0  0  0  0  0  0  0  0  0  0
   16.7296    4.7715  -24.5284 H   0  0  0  0  0  0  0  0  0  0  0  0
   19.6957   -0.3156    1.8515 H   0  0  0  0  0  0  0  0  0  0  0  0
   20.9790    0.6681    2.7153 H   0  0  0  0  0  0  0  0  0  0  0  0
   18.9248    5.8143  -25.0271 H   0  0  0  0  0  0  0  0  0  0  0  0
   17.9044    6.7760  -23.8661 H   0  0  0  0  0  0  0  0  0  0  0  0
   22.8637   -0.2002   -1.2300 H   0  0  0  0  0  0  0  0  0  0  0  0
   21.6486   -0.8555   -2.3793 H   0  0  0  0  0  0  0  0  0  0  0  0
   22.0296    0.8999   -2.3793 H   0  0  0  0  0  0  0  0  0  0  0  0
   19.4622   -1.1808    0.2183 H   0  0  0  0  0  0  0  0  0  0  0  0
   18.8664   -0.5034   -1.3350 H   0  0  0  0  0  0  0  0  0  0  0  0
   20.1735   -1.7355   -1.3350 H   0  0  0  0  0  0  0  0  0  0  0  0
   15.7974    5.9232  -21.1451 H   0  0  0  0  0  0  0  0  0  0  0  0
   16.3414    6.6631  -22.6888 H   0  0  0  0  0  0  0  0  0  0  0  0
   14.9981    5.4706  -22.6888 H   0  0  0  0  0  0  0  0  0  0  0  0
   16.0799    3.0595  -21.1907 H   0  0  0  0  0  0  0  0  0  0  0  0
   15.2244    3.3731  -22.7388 H   0  0  0  0  0  0  0  0  0  0  0  0
   16.7830    2.4800  -22.7388 H   0  0  0  0  0  0  0  0  0  0  0  0
   20.4594    2.1000   -3.1425 H   0  0  0  0  0  0  0  0  0  0  0  0
   17.1205    4.9208  -19.2876 H   0  0  0  0  0  0  0  0  0  0  0  0
   18.8306    4.2744    0.8245 H   0  0  0  0  0  0  0  0  0  0  0  0
   19.7719    4.2494   -0.7052 H   0  0  0  0  0  0  0  0  0  0  0  0
   18.0450    3.7551   -0.7052 H   0  0  0  0  0  0  0  0  0  0  0  0
   19.8856    5.6318  -19.5032 H   0  0  0  0  0  0  0  0  0  0  0  0
   21.1582    4.9909  -20.5970 H   0  0  0  0  0  0  0  0  0  0  0  0
   20.7742    6.7456  -20.5970 H   0  0  0  0  0  0  0  0  0  0  0  0
   17.7334    1.1586   -2.1054 H   0  0  0  0  0  0  0  0  0  0  0  0
   18.9477    2.5571  -20.0250 H   0  0  0  0  0  0  0  0  0  0  0  0
   16.1326    2.3551   -3.6714 H   0  0  0  0  0  0  0  0  0  0  0  0
   16.6935    3.1495   -5.1817 H   0  0  0  0  0  0  0  0  0  0  0  0
   16.2993    1.3970   -5.1817 H   0  0  0  0  0  0  0  0  0  0  0  0
   16.9302    3.3055  -16.1729 H   0  0  0  0  0  0  0  0  0  0  0  0
   16.6062    4.4021  -17.5582 H   0  0  0  0  0  0  0  0  0  0  0  0
   15.9397    2.7341  -17.5582 H   0  0  0  0  0  0  0  0  0  0  0  0
   20.1680    1.6852   -4.7869 H   0  0  0  0  0  0  0  0  0  0  0  0
   19.8055    1.7305  -17.9997 H   0  0  0  0  0  0  0  0  0  0  0  0
   17.9197    2.4564   -6.9740 H   0  0  0  0  0  0  0  0  0  0  0  0
   18.2745    2.1625  -15.2061 H   0  0  0  0  0  0  0  0  0  0  0  0
   20.8426    1.4727   -7.0094 H   0  0  0  0  0  0  0  0  0  0  0  0
   20.3366    0.0948  -16.2576 H   0  0  0  0  0  0  0  0  0  0  0  0
   21.7805    1.3389   -9.1044 H   0  0  0  0  0  0  0  0  0  0  0  0
   21.7824    0.9540  -13.9437 H   0  0  0  0  0  0  0  0  0  0  0  0
   17.7571    2.6123   -8.8810 H   0  0  0  0  0  0  0  0  0  0  0  0
   18.7194    3.2194  -10.2709 H   0  0  0  0  0  0  0  0  0  0  0  0
   18.1087    1.5301  -10.2709 H   0  0  0  0  0  0  0  0  0  0  0  0
   18.7071   -0.2497  -12.2595 H   0  0  0  0  0  0  0  0  0  0  0  0
   17.6799    0.2557  -13.6438 H   0  0  0  0  0  0  0  0  0  0  0  0
   18.4528   -1.3658  -13.6438 H   0  0  0  0  0  0  0  0  0  0  0  0
   20.8642    2.4397  -11.7228 H   0  0  0  0  0  0  0  0  0  0  0  0
   21.2299   -0.6325  -11.4274 H   0  0  0  0  0  0  0  0  0  0  0  0
  1 17  2  0
  2 18  2  0
  3  5  1  0
  3  7  1  0
  3 11  1  6
  3 12  1  0
  4  6  1  0
  4  8  1  0
  4 13  1  1
  4 14  1  0
  5  9  1  0
  6 10  1  0
  7 15  2  0
  7 19  1  0
  8 16  2  0
  8 20  1  0
  9 17  1  0
 10 18  1  0
 15 17  1  0
 15 21  1  0
 16 18  1  0
 16 22  1  0
 19 23  2  3
 20 24  2  3
 23 25  1  0
 24 26  1  0
 25 27  1  0
 25 29  2  3
 26 28  1  0
 26 30  2  3
 29 31  1  0
 30 32  1  0
 31 33  2  3
 32 34  2  3
 33 35  1  0
 34 36  1  0
 35 37  2  3
 35 39  1  0
 36 38  2  3
 36 40  1  0
 37 41  1  0
 38 42  1  0
 41 42  2  3
  5 43  1  0
  5 44  1  0
  6 45  1  0
  6 46  1  0
  9 47  1  0
  9 48  1  0
 10 49  1  0
 10 50  1  0
 11 51  1  0
 11 52  1  0
 11 53  1  0
 12 54  1  0
 12 55  1  0
 12 56  1  0
 13 57  1  0
 13 58  1  0
 13 59  1  0
 14 60  1  0
 14 61  1  0
 14 62  1  0
 19 63  1  0
 20 64  1  0
 21 65  1  0
 21 66  1  0
 21 67  1  0
 22 68  1  0
 22 69  1  0
 22 70  1  0
 23 71  1  0
 24 72  1  0
 27 73  1  0
 27 74  1  0
 27 75  1  0
 28 76  1  0
 28 77  1  0
 28 78  1  0
 29 79  1  0
 30 80  1  0
 31 81  1  0
 32 82  1  0
 33 83  1  0
 34 84  1  0
 37 85  1  0
 38 86  1  0
 39 87  1  0
 39 88  1  0
 39 89  1  0
 40 90  1  0
 40 91  1  0
 40 92  1  0
 41 93  1  0
 42 94  1  0
M  END
>  <filename_input>  (22) 
7ZXV_45D_docked.sdf

>  <pdb_id>  (22) 
7ZXV_45D

>  <pose_rank>  (22) 
21

>  <num_atoms_heavy>  (22) 
42

>  <num_torsions>  (22) 
10

>  <pose>  (22) 
[20.92468953172477, 1.4928331915326254, -11.166178391747547, -1.6784796600843641, 2.4744466310030226, 0.957307076950274, 1.5415301367476897, 0.4079660313029132, -0.18949574098789312, -3.0085685804971454, 3.451587782777133, 0.8437604907707427, -5.2557999048765796, 0.015043451180268763, 0.00921671210601805, -0.11684008581956236]

>  <energy>  (22) 
-230.06164184837735

>  <inter_energy>  (22) 
-241.42972216782158

>  <intra_energy>  (22) 
14.532386744069292

>  <rmsd>  (22) 
11.1259

>  <sdf_rank>  (22) 
0

$$$$

     RDKit          3D

 94 95  0  0  0  0  0  0  0  0999 V2000
   31.4723   15.4379   -2.5980 O   0  0  0  0  0  0  0  0  0  0  0  0
   19.0023   16.1543  -27.2454 O   0  0  0  0  0  0  0  0  0  0  0  0
   27.6833   17.1568   -3.0849 C   0  0  1  0  0  0  0  0  0  0  0  0
   20.6189   12.3505  -26.4382 C   0  0  1  0  0  0  0  0  0  0  0  0
   28.0541   16.3854   -1.8111 C   0  0  0  0  0  0  0  0  0  0  0  0
   19.7014   12.6436  -27.6280 C   0  0  0  0  0  0  0  0  0  0  0  0
   28.4531   16.6643   -4.2906 C   0  0  0  0  0  0  0  0  0  0  0  0
   21.3092   13.6300  -25.9331 C   0  0  0  0  0  0  0  0  0  0  0  0
   29.5706   16.3785   -1.5612 C   0  0  0  0  0  0  0  0  0  0  0  0
   18.6950   13.7628  -27.3348 C   0  0  0  0  0  0  0  0  0  0  0  0
   26.1687   17.0315   -3.3056 C   0  0  0  0  0  0  0  0  0  0  0  0
   28.0672   18.6332   -2.8680 C   0  0  0  0  0  0  0  0  0  0  0  0
   19.8202   11.6783  -25.3104 C   0  0  0  0  0  0  0  0  0  0  0  0
   21.6964   11.3670  -26.8912 C   0  0  0  0  0  0  0  0  0  0  0  0
   29.8692   16.1519   -4.1478 C   0  0  0  0  0  0  0  0  0  0  0  0
   20.5583   14.9493  -25.9836 C   0  0  0  0  0  0  0  0  0  0  0  0
   30.4016   15.9441   -2.7615 C   0  0  0  0  0  0  0  0  0  0  0  0
   19.3648   15.0548  -26.9158 C   0  0  0  0  0  0  0  0  0  0  0  0
   27.9350   17.1911   -5.6062 C   0  0  0  0  0  0  0  0  0  0  0  0
   22.4954   13.5638  -25.0122 C   0  0  0  0  0  0  0  0  0  0  0  0
   30.4521   15.3870   -5.3493 C   0  0  0  0  0  0  0  0  0  0  0  0
   21.1200   16.2227  -25.3537 C   0  0  0  0  0  0  0  0  0  0  0  0
   27.3070   16.4078   -6.4169 C   0  0  0  0  0  0  0  0  0  0  0  0
   22.3040   13.3964  -23.7285 C   0  0  0  0  0  0  0  0  0  0  0  0
   26.7216   17.0310   -7.6658 C   0  0  0  0  0  0  0  0  0  0  0  0
   23.5139   13.2941  -22.8153 C   0  0  0  0  0  0  0  0  0  0  0  0
   26.1587   18.4250   -7.5975 C   0  0  0  0  0  0  0  0  0  0  0  0
   24.6132   12.3042  -23.1086 C   0  0  0  0  0  0  0  0  0  0  0  0
   26.7037   16.2904   -8.7828 C   0  0  0  0  0  0  0  0  0  0  0  0
   23.5146   14.1540  -21.7878 C   0  0  0  0  0  0  0  0  0  0  0  0
   26.0414   16.7746  -10.0526 C   0  0  0  0  0  0  0  0  0  0  0  0
   24.5901   14.1976  -20.7205 C   0  0  0  0  0  0  0  0  0  0  0  0
   26.0788   15.9602  -11.1078 C   0  0  0  0  0  0  0  0  0  0  0  0
   24.3229   14.8077  -19.5521 C   0  0  0  0  0  0  0  0  0  0  0  0
   25.4057   16.2555  -12.4417 C   0  0  0  0  0  0  0  0  0  0  0  0
   25.3618   14.7755  -18.4230 C   0  0  0  0  0  0  0  0  0  0  0  0
   25.9002   15.6613  -13.5186 C   0  0  0  0  0  0  0  0  0  0  0  0
   24.9943   15.3237  -17.2485 C   0  0  0  0  0  0  0  0  0  0  0  0
   24.2335   17.2196  -12.5420 C   0  0  0  0  0  0  0  0  0  0  0  0
   26.6796   14.0693  -18.6151 C   0  0  0  0  0  0  0  0  0  0  0  0
   25.3126   15.7477  -14.9032 C   0  0  0  0  0  0  0  0  0  0  0  0
   25.8797   15.2360  -16.0233 C   0  0  0  0  0  0  0  0  0  0  0  0
   27.5550   16.8578   -0.9522 H   0  0  0  0  0  0  0  0  0  0  0  0
   27.7267   15.3430   -1.9386 H   0  0  0  0  0  0  0  0  0  0  0  0
   20.3216   12.9433  -28.4857 H   0  0  0  0  0  0  0  0  0  0  0  0
   19.1294   11.7285  -27.8410 H   0  0  0  0  0  0  0  0  0  0  0  0
   29.8779   17.3964   -1.2796 H   0  0  0  0  0  0  0  0  0  0  0  0
   29.7555   15.6408   -0.7664 H   0  0  0  0  0  0  0  0  0  0  0  0
   18.1035   13.9513  -28.2429 H   0  0  0  0  0  0  0  0  0  0  0  0
   18.0617   13.4302  -26.4991 H   0  0  0  0  0  0  0  0  0  0  0  0
   25.6585   16.9893   -2.3320 H   0  0  0  0  0  0  0  0  0  0  0  0
   25.8073   17.9029   -3.8715 H   0  0  0  0  0  0  0  0  0  0  0  0
   25.9553   16.1127   -3.8715 H   0  0  0  0  0  0  0  0  0  0  0  0
   28.1218   18.8433   -1.7896 H   0  0  0  0  0  0  0  0  0  0  0  0
   29.0462   18.8292   -3.3297 H   0  0  0  0  0  0  0  0  0  0  0  0
   27.3077   19.2812   -3.3297 H   0  0  0  0  0  0  0  0  0  0  0  0
   20.2120   12.0080  -24.3368 H   0  0  0  0  0  0  0  0  0  0  0  0
   18.7602   11.9601  -25.3935 H   0  0  0  0  0  0  0  0  0  0  0  0
   19.9168   10.5857  -25.3935 H   0  0  0  0  0  0  0  0  0  0  0  0
   22.1822   10.9235  -26.0095 H   0  0  0  0  0  0  0  0  0  0  0  0
   21.2360   10.5712  -27.4951 H   0  0  0  0  0  0  0  0  0  0  0  0
   22.4470   11.8979  -27.4951 H   0  0  0  0  0  0  0  0  0  0  0  0
   28.0930   18.2459   -5.8749 H   0  0  0  0  0  0  0  0  0  0  0  0
   23.5154   13.6554  -25.4138 H   0  0  0  0  0  0  0  0  0  0  0  0
   31.0818   14.5608   -4.9875 H   0  0  0  0  0  0  0  0  0  0  0  0
   29.6313   14.9823   -5.9596 H   0  0  0  0  0  0  0  0  0  0  0  0
   31.0599   16.0712   -5.9596 H   0  0  0  0  0  0  0  0  0  0  0  0
   21.0823   16.1371  -24.2577 H   0  0  0  0  0  0  0  0  0  0  0  0
   22.1629   16.3614  -25.6750 H   0  0  0  0  0  0  0  0  0  0  0  0
   20.5194   17.0864  -25.6750 H   0  0  0  0  0  0  0  0  0  0  0  0
   27.2017   15.3327   -6.2092 H   0  0  0  0  0  0  0  0  0  0  0  0
   21.2855   13.3309  -23.3181 H   0  0  0  0  0  0  0  0  0  0  0  0
   26.0392   18.7211   -6.5449 H   0  0  0  0  0  0  0  0  0  0  0  0
   26.8456   19.1228   -8.0989 H   0  0  0  0  0  0  0  0  0  0  0  0
   25.1799   18.4502   -8.0989 H   0  0  0  0  0  0  0  0  0  0  0  0
   25.0303   11.9285  -22.1626 H   0  0  0  0  0  0  0  0  0  0  0  0
   24.2045   11.4636  -23.6886 H   0  0  0  0  0  0  0  0  0  0  0  0
   25.4065   12.7984  -23.6886 H   0  0  0  0  0  0  0  0  0  0  0  0
   27.1851   15.3013   -8.7754 H   0  0  0  0  0  0  0  0  0  0  0  0
   22.6844   14.8719  -21.7142 H   0  0  0  0  0  0  0  0  0  0  0  0
   25.5494   17.7572  -10.1039 H   0  0  0  0  0  0  0  0  0  0  0  0
   25.5733   13.7377  -20.8988 H   0  0  0  0  0  0  0  0  0  0  0  0
   26.6313   15.0143  -11.0084 H   0  0  0  0  0  0  0  0  0  0  0  0
   23.3643   15.3272  -19.4065 H   0  0  0  0  0  0  0  0  0  0  0  0
   26.8110   15.0579  -13.3913 H   0  0  0  0  0  0  0  0  0  0  0  0
   24.0293   15.8468  -17.1780 H   0  0  0  0  0  0  0  0  0  0  0  0
   23.8980   17.4954  -11.5314 H   0  0  0  0  0  0  0  0  0  0  0  0
   24.5478   18.1239  -13.0836 H   0  0  0  0  0  0  0  0  0  0  0  0
   23.4068   16.7365  -13.0836 H   0  0  0  0  0  0  0  0  0  0  0  0
   27.1166   13.8351  -17.6332 H   0  0  0  0  0  0  0  0  0  0  0  0
   26.5176   13.1371  -19.1761 H   0  0  0  0  0  0  0  0  0  0  0  0
   27.3661   14.7204  -19.1761 H   0  0  0  0  0  0  0  0  0  0  0  0
   24.3488   16.2661  -15.0139 H   0  0  0  0  0  0  0  0  0  0  0  0
   26.8886   14.7981  -16.0404 H   0  0  0  0  0  0  0  0  0  0  0  0
  1 17  2  0
  2 18  2  0
  3  5  1  0
  3  7  1  0
  3 11  1  6
  3 12  1  0
  4  6  1  0
  4  8  1  0
  4 13  1  1
  4 14  1  0
  5  9  1  0
  6 10  1  0
  7 15  2  0
  7 19  1  0
  8 16  2  0
  8 20  1  0
  9 17  1  0
 10 18  1  0
 15 17  1  0
 15 21  1  0
 16 18  1  0
 16 22  1  0
 19 23  2  3
 20 24  2  3
 23 25  1  0
 24 26  1  0
 25 27  1  0
 25 29  2  3
 26 28  1  0
 26 30  2  3
 29 31  1  0
 30 32  1  0
 31 33  2  3
 32 34  2  3
 33 35  1  0
 34 36  1  0
 35 37  2  3
 35 39  1  0
 36 38  2  3
 36 40  1  0
 37 41  1  0
 38 42  1  0
 41 42  2  3
  5 43  1  0
  5 44  1  0
  6 45  1  0
  6 46  1  0
  9 47  1  0
  9 48  1  0
 10 49  1  0
 10 50  1  0
 11 51  1  0
 11 52  1  0
 11 53  1  0
 12 54  1  0
 12 55  1  0
 12 56  1  0
 13 57  1  0
 13 58  1  0
 13 59  1  0
 14 60  1  0
 14 61  1  0
 14 62  1  0
 19 63  1  0
 20 64  1  0
 21 65  1  0
 21 66  1  0
 21 67  1  0
 22 68  1  0
 22 69  1  0
 22 70  1  0
 23 71  1  0
 24 72  1  0
 27 73  1  0
 27 74  1  0
 27 75  1  0
 28 76  1  0
 28 77  1  0
 28 78  1  0
 29 79  1  0
 30 80  1  0
 31 81  1  0
 32 82  1  0
 33 83  1  0
 34 84  1  0
 37 85  1  0
 38 86  1  0
 39 87  1  0
 39 88  1  0
 39 89  1  0
 40 90  1  0
 40 91  1  0
 40 92  1  0
 41 93  1  0
 42 94  1  0
M  END
>  <filename_input>  (23) 
7ZXV_45D_docked.sdf

>  <pdb_id>  (23) 
7ZXV_45D

>  <pose_rank>  (23) 
22

>  <num_atoms_heavy>  (23) 
42

>  <num_torsions>  (23) 
10

>  <pose>  (23) 
[25.312610068650525, 15.74768438778697, -14.903185316731761, 2.0877219186125546, -1.1201662810451087, -1.2966650336129306, 0.2131829592672157, -6.299193407985282, -0.3953314204849346, -0.9151261098822646, -0.2000699421564799, -0.4450426314797356, -0.12462069685186705, 0.6022877694044151, -1.350307594214089, -3.49535413898496]

>  <energy>  (23) 
-227.227451110083

>  <inter_energy>  (23) 
-241.95209289809333

>  <intra_energy>  (23) 
16.5660781294733

>  <rmsd>  (23) 
9.41192

>  <sdf_rank>  (23) 
0

$$$$

     RDKit          3D

 94 95  0  0  0  0  0  0  0  0999 V2000
   21.2401   -0.0345    2.3912 O   0  0  0  0  0  0  0  0  0  0  0  0
   18.3694   21.2946  -12.5931 O   0  0  0  0  0  0  0  0  0  0  0  0
   21.4444   -0.7587   -1.7297 C   0  0  1  0  0  0  0  0  0  0  0  0
   15.5626   18.3821  -11.4209 C   0  0  1  0  0  0  0  0  0  0  0  0
   22.4139   -1.4333   -0.7499 C   0  0  0  0  0  0  0  0  0  0  0  0
   15.5628   19.0493  -12.7987 C   0  0  0  0  0  0  0  0  0  0  0  0
   20.9619    0.5809   -1.2182 C   0  0  0  0  0  0  0  0  0  0  0  0
   16.9504   18.4586  -10.7600 C   0  0  0  0  0  0  0  0  0  0  0  0
   21.8247   -1.5370    0.6659 C   0  0  0  0  0  0  0  0  0  0  0  0
   16.1028   20.4840  -12.7589 C   0  0  0  0  0  0  0  0  0  0  0  0
   22.1481   -0.6128   -3.0869 C   0  0  0  0  0  0  0  0  0  0  0  0
   20.2086   -1.6685   -1.8683 C   0  0  0  0  0  0  0  0  0  0  0  0
   14.4936   19.0261  -10.5241 C   0  0  0  0  0  0  0  0  0  0  0  0
   15.1922   16.9107  -11.5979 C   0  0  0  0  0  0  0  0  0  0  0  0
   20.7676    0.8190    0.2628 C   0  0  0  0  0  0  0  0  0  0  0  0
   17.8172   19.6843  -10.9906 C   0  0  0  0  0  0  0  0  0  0  0  0
   21.2709   -0.2273    1.2117 C   0  0  0  0  0  0  0  0  0  0  0  0
   17.5026   20.5649  -12.1866 C   0  0  0  0  0  0  0  0  0  0  0  0
   20.2334    1.4053   -2.2509 C   0  0  0  0  0  0  0  0  0  0  0  0
   17.2985   17.5992   -9.5768 C   0  0  0  0  0  0  0  0  0  0  0  0
   20.5853    2.2803    0.7101 C   0  0  0  0  0  0  0  0  0  0  0  0
   19.1308   19.8972  -10.2403 C   0  0  0  0  0  0  0  0  0  0  0  0
   18.9552    1.5636   -2.1711 C   0  0  0  0  0  0  0  0  0  0  0  0
   16.8791   17.9443   -8.3863 C   0  0  0  0  0  0  0  0  0  0  0  0
   18.3095    2.4916   -3.1774 C   0  0  0  0  0  0  0  0  0  0  0  0
   17.2073   17.0460   -7.2057 C   0  0  0  0  0  0  0  0  0  0  0  0
   18.5582    2.2723   -4.6454 C   0  0  0  0  0  0  0  0  0  0  0  0
   18.5239   17.1817   -6.4829 C   0  0  0  0  0  0  0  0  0  0  0  0
   17.5603    3.4983   -2.7064 C   0  0  0  0  0  0  0  0  0  0  0  0
   16.2389   16.1817   -6.8731 C   0  0  0  0  0  0  0  0  0  0  0  0
   16.9644    4.5462   -3.6188 C   0  0  0  0  0  0  0  0  0  0  0  0
   16.3641   15.1547   -5.7654 C   0  0  0  0  0  0  0  0  0  0  0  0
   16.9664    5.8061   -3.1821 C   0  0  0  0  0  0  0  0  0  0  0  0
   16.1317   13.8607   -6.0487 C   0  0  0  0  0  0  0  0  0  0  0  0
   16.4715    6.9950   -3.9953 C   0  0  0  0  0  0  0  0  0  0  0  0
   16.3504   12.7946   -4.9664 C   0  0  0  0  0  0  0  0  0  0  0  0
   16.9974    8.1810   -3.7230 C   0  0  0  0  0  0  0  0  0  0  0  0
   17.0022   11.6772   -5.3425 C   0  0  0  0  0  0  0  0  0  0  0  0
   15.3923    6.8363   -5.0554 C   0  0  0  0  0  0  0  0  0  0  0  0
   15.9370   13.0554   -3.5405 C   0  0  0  0  0  0  0  0  0  0  0  0
   16.7125    9.4506   -4.4822 C   0  0  0  0  0  0  0  0  0  0  0  0
   17.3936   10.6139   -4.3381 C   0  0  0  0  0  0  0  0  0  0  0  0
   22.6402   -2.4459   -1.1151 H   0  0  0  0  0  0  0  0  0  0  0  0
   23.3234   -0.8171   -0.6944 H   0  0  0  0  0  0  0  0  0  0  0  0
   16.1915   18.4549  -13.4779 H   0  0  0  0  0  0  0  0  0  0  0  0
   14.5203   19.0952  -13.1468 H   0  0  0  0  0  0  0  0  0  0  0  0
   21.0089   -2.2745    0.6463 H   0  0  0  0  0  0  0  0  0  0  0  0
   22.6508   -1.8309    1.3301 H   0  0  0  0  0  0  0  0  0  0  0  0
   16.1180   20.8830  -13.7839 H   0  0  0  0  0  0  0  0  0  0  0  0
   15.4413   21.0705  -12.1044 H   0  0  0  0  0  0  0  0  0  0  0  0
   23.2136   -0.3918   -2.9257 H   0  0  0  0  0  0  0  0  0  0  0  0
   22.0499   -1.5504   -3.6536 H   0  0  0  0  0  0  0  0  0  0  0  0
   21.6850    0.2084   -3.6536 H   0  0  0  0  0  0  0  0  0  0  0  0
   19.8393   -1.9403   -0.8685 H   0  0  0  0  0  0  0  0  0  0  0  0
   19.4196   -1.1340   -2.4178 H   0  0  0  0  0  0  0  0  0  0  0  0
   20.4845   -2.5806   -2.4178 H   0  0  0  0  0  0  0  0  0  0  0  0
   14.7570   18.8675   -9.4679 H   0  0  0  0  0  0  0  0  0  0  0  0
   14.4428   20.1052  -10.7312 H   0  0  0  0  0  0  0  0  0  0  0  0
   13.5159   18.5666  -10.7312 H   0  0  0  0  0  0  0  0  0  0  0  0
   15.0740   16.4410  -10.6103 H   0  0  0  0  0  0  0  0  0  0  0  0
   14.2470   16.8350  -12.1554 H   0  0  0  0  0  0  0  0  0  0  0  0
   15.9890   16.3965  -12.1554 H   0  0  0  0  0  0  0  0  0  0  0  0
   20.7935    1.8728   -3.0741 H   0  0  0  0  0  0  0  0  0  0  0  0
   17.9005   16.6884   -9.7105 H   0  0  0  0  0  0  0  0  0  0  0  0
   20.5792    2.3294    1.8089 H   0  0  0  0  0  0  0  0  0  0  0  0
   21.4145    2.8891    0.3204 H   0  0  0  0  0  0  0  0  0  0  0  0
   19.6320    2.6668    0.3204 H   0  0  0  0  0  0  0  0  0  0  0  0
   18.9433   19.8668   -9.1569 H   0  0  0  0  0  0  0  0  0  0  0  0
   19.8411   19.1024  -10.5120 H   0  0  0  0  0  0  0  0  0  0  0  0
   19.5538   20.8756  -10.5120 H   0  0  0  0  0  0  0  0  0  0  0  0
   18.3601    1.0461   -1.4043 H   0  0  0  0  0  0  0  0  0  0  0  0
   16.2993   18.8681   -8.2428 H   0  0  0  0  0  0  0  0  0  0  0  0
   19.3774    1.5497   -4.7745 H   0  0  0  0  0  0  0  0  0  0  0  0
   17.6453    1.8798   -5.1173 H   0  0  0  0  0  0  0  0  0  0  0  0
   18.8336    3.2270   -5.1173 H   0  0  0  0  0  0  0  0  0  0  0  0
   18.3496   17.1638   -5.3970 H   0  0  0  0  0  0  0  0  0  0  0  0
   19.1833   16.3468   -6.7623 H   0  0  0  0  0  0  0  0  0  0  0  0
   18.9991   18.1336   -6.7623 H   0  0  0  0  0  0  0  0  0  0  0  0
   17.3737    3.5640   -1.6243 H   0  0  0  0  0  0  0  0  0  0  0  0
   15.2959   16.2199   -7.4382 H   0  0  0  0  0  0  0  0  0  0  0  0
   16.5468    4.2805   -4.6011 H   0  0  0  0  0  0  0  0  0  0  0  0
   16.6406   15.4628   -4.7462 H   0  0  0  0  0  0  0  0  0  0  0  0
   17.3502    5.9992   -2.1695 H   0  0  0  0  0  0  0  0  0  0  0  0
   15.7865   13.5677   -7.0512 H   0  0  0  0  0  0  0  0  0  0  0  0
   17.6968    8.2429   -2.8762 H   0  0  0  0  0  0  0  0  0  0  0  0
   17.2558   11.5341   -6.4032 H   0  0  0  0  0  0  0  0  0  0  0  0
   14.4170    6.6929   -4.5673 H   0  0  0  0  0  0  0  0  0  0  0  0
   15.3591    7.7392   -5.6828 H   0  0  0  0  0  0  0  0  0  0  0  0
   15.6204    5.9621   -5.6828 H   0  0  0  0  0  0  0  0  0  0  0  0
   16.6662   12.5954   -2.8574 H   0  0  0  0  0  0  0  0  0  0  0  0
   15.9008   14.1402   -3.3618 H   0  0  0  0  0  0  0  0  0  0  0  0
   14.9424   12.6209   -3.3618 H   0  0  0  0  0  0  0  0  0  0  0  0
   15.8879    9.4324   -5.2100 H   0  0  0  0  0  0  0  0  0  0  0  0
   18.1591   10.7707   -3.5638 H   0  0  0  0  0  0  0  0  0  0  0  0
  1 17  2  0
  2 18  2  0
  3  5  1  0
  3  7  1  0
  3 11  1  6
  3 12  1  0
  4  6  1  0
  4  8  1  0
  4 13  1  1
  4 14  1  0
  5  9  1  0
  6 10  1  0
  7 15  2  0
  7 19  1  0
  8 16  2  0
  8 20  1  0
  9 17  1  0
 10 18  1  0
 15 17  1  0
 15 21  1  0
 16 18  1  0
 16 22  1  0
 19 23  2  3
 20 24  2  3
 23 25  1  0
 24 26  1  0
 25 27  1  0
 25 29  2  3
 26 28  1  0
 26 30  2  3
 29 31  1  0
 30 32  1  0
 31 33  2  3
 32 34  2  3
 33 35  1  0
 34 36  1  0
 35 37  2  3
 35 39  1  0
 36 38  2  3
 36 40  1  0
 37 41  1  0
 38 42  1  0
 41 42  2  3
  5 43  1  0
  5 44  1  0
  6 45  1  0
  6 46  1  0
  9 47  1  0
  9 48  1  0
 10 49  1  0
 10 50  1  0
 11 51  1  0
 11 52  1  0
 11 53  1  0
 12 54  1  0
 12 55  1  0
 12 56  1  0
 13 57  1  0
 13 58  1  0
 13 59  1  0
 14 60  1  0
 14 61  1  0
 14 62  1  0
 19 63  1  0
 20 64  1  0
 21 65  1  0
 21 66  1  0
 21 67  1  0
 22 68  1  0
 22 69  1  0
 22 70  1  0
 23 71  1  0
 24 72  1  0
 27 73  1  0
 27 74  1  0
 27 75  1  0
 28 76  1  0
 28 77  1  0
 28 78  1  0
 29 79  1  0
 30 80  1  0
 31 81  1  0
 32 82  1  0
 33 83  1  0
 34 84  1  0
 37 85  1  0
 38 86  1  0
 39 87  1  0
 39 88  1  0
 39 89  1  0
 40 90  1  0
 40 91  1  0
 40 92  1  0
 41 93  1  0
 42 94  1  0
M  END
>  <filename_input>  (24) 
7ZXV_45D_docked.sdf

>  <pdb_id>  (24) 
7ZXV_45D

>  <pose_rank>  (24) 
23

>  <num_atoms_heavy>  (24) 
42

>  <num_torsions>  (24) 
10

>  <pose>  (24) 
[16.712498664440847, 9.450643362291482, -4.482234291530401, 3.4039720947002627, 0.8703497870221576, -0.5007552532969661, 0.5001005200641642, 0.8808319820643846, 0.29360487791413814, 0.6327472132353682, 3.56881979551162, -1.7231810408402222, 0.5778929834880391, 1.2223018480751418, 1.0536130319972117, 2.8357989604267644]

>  <energy>  (24) 
-226.48223008195143

>  <inter_energy>  (24) 
-241.04852010966633

>  <intra_energy>  (24) 
16.003149069072688

>  <rmsd>  (24) 
10.4052

>  <sdf_rank>  (24) 
0

$$$$

     RDKit          3D

 94 95  0  0  0  0  0  0  0  0999 V2000
   17.9883    4.7480    0.9109 O   0  0  0  0  0  0  0  0  0  0  0  0
   20.4449    5.3691  -24.8396 O   0  0  0  0  0  0  0  0  0  0  0  0
   19.9433    1.3133   -0.4781 C   0  0  1  0  0  0  0  0  0  0  0  0
   16.4615    5.7199  -23.5191 C   0  0  1  0  0  0  0  0  0  0  0  0
   20.1209    1.8068    0.9641 C   0  0  0  0  0  0  0  0  0  0  0  0
   16.8500    5.1869  -24.9006 C   0  0  0  0  0  0  0  0  0  0  0  0
   19.6323    2.4465   -1.4311 C   0  0  0  0  0  0  0  0  0  0  0  0
   17.6207    5.5786  -22.5166 C   0  0  0  0  0  0  0  0  0  0  0  0
   18.9233    2.6449    1.4391 C   0  0  0  0  0  0  0  0  0  0  0  0
   18.1473    5.8103  -25.4296 C   0  0  0  0  0  0  0  0  0  0  0  0
   21.2201    0.5705   -0.8985 C   0  0  0  0  0  0  0  0  0  0  0  0
   18.7391    0.3523   -0.5004 C   0  0  0  0  0  0  0  0  0  0  0  0
   16.0081    7.1843  -23.6281 C   0  0  0  0  0  0  0  0  0  0  0  0
   15.2757    4.9059  -23.0044 C   0  0  0  0  0  0  0  0  0  0  0  0
   18.8223    3.6400   -0.9756 C   0  0  0  0  0  0  0  0  0  0  0  0
   19.0493    5.7499  -23.0031 C   0  0  0  0  0  0  0  0  0  0  0  0
   18.5283    3.7682    0.4892 C   0  0  0  0  0  0  0  0  0  0  0  0
   19.3177    5.6069  -24.4904 C   0  0  0  0  0  0  0  0  0  0  0  0
   19.7206    2.0643   -2.8881 C   0  0  0  0  0  0  0  0  0  0  0  0
   17.3916    5.7104  -21.0369 C   0  0  0  0  0  0  0  0  0  0  0  0
   18.8255    4.8710   -1.8993 C   0  0  0  0  0  0  0  0  0  0  0  0
   20.2326    5.7823  -22.0374 C   0  0  0  0  0  0  0  0  0  0  0  0
   18.6463    1.9300   -3.5902 C   0  0  0  0  0  0  0  0  0  0  0  0
   17.3939    4.6373  -20.2881 C   0  0  0  0  0  0  0  0  0  0  0  0
   18.8166    1.6531   -5.0684 C   0  0  0  0  0  0  0  0  0  0  0  0
   17.1982    4.7902  -18.7891 C   0  0  0  0  0  0  0  0  0  0  0  0
   19.4451    0.3577   -5.5063 C   0  0  0  0  0  0  0  0  0  0  0  0
   18.3605    5.1493  -17.8978 C   0  0  0  0  0  0  0  0  0  0  0  0
   18.4221    2.6011   -5.9300 C   0  0  0  0  0  0  0  0  0  0  0  0
   15.9395    4.6091  -18.3671 C   0  0  0  0  0  0  0  0  0  0  0  0
   18.6504    2.4731   -7.4190 C   0  0  0  0  0  0  0  0  0  0  0  0
   15.5186    4.6599  -16.9118 C   0  0  0  0  0  0  0  0  0  0  0  0
   17.5706    2.3610   -8.1932 C   0  0  0  0  0  0  0  0  0  0  0  0
   14.9993    3.5559  -16.3459 C   0  0  0  0  0  0  0  0  0  0  0  0
   17.6108    2.2926   -9.7142 C   0  0  0  0  0  0  0  0  0  0  0  0
   14.6602    3.5569  -14.8490 C   0  0  0  0  0  0  0  0  0  0  0  0
   16.4505    2.2337  -10.3525 C   0  0  0  0  0  0  0  0  0  0  0  0
   15.5651    2.9945  -14.0245 C   0  0  0  0  0  0  0  0  0  0  0  0
   18.9293    2.2592  -10.4717 C   0  0  0  0  0  0  0  0  0  0  0  0
   13.4198    4.2497  -14.3456 C   0  0  0  0  0  0  0  0  0  0  0  0
   16.2820    2.2623  -11.8493 C   0  0  0  0  0  0  0  0  0  0  0  0
   15.4069    3.0514  -12.5197 C   0  0  0  0  0  0  0  0  0  0  0  0
   20.2292    0.9354    1.6265 H   0  0  0  0  0  0  0  0  0  0  0  0
   21.0158    2.4456    0.9961 H   0  0  0  0  0  0  0  0  0  0  0  0
   16.9848    4.0973  -24.8327 H   0  0  0  0  0  0  0  0  0  0  0  0
   16.0432    5.4532  -25.5994 H   0  0  0  0  0  0  0  0  0  0  0  0
   18.0593    1.9745    1.5581 H   0  0  0  0  0  0  0  0  0  0  0  0
   19.2271    3.1222    2.3824 H   0  0  0  0  0  0  0  0  0  0  0  0
   18.3895    5.3499  -26.3988 H   0  0  0  0  0  0  0  0  0  0  0  0
   17.9813    6.8936  -25.5246 H   0  0  0  0  0  0  0  0  0  0  0  0
   21.7703    0.2505   -0.0014 H   0  0  0  0  0  0  0  0  0  0  0  0
   20.9506   -0.3118   -1.4976 H   0  0  0  0  0  0  0  0  0  0  0  0
   21.8538    1.2409   -1.4976 H   0  0  0  0  0  0  0  0  0  0  0  0
   18.4408    0.1142    0.5312 H   0  0  0  0  0  0  0  0  0  0  0  0
   17.8982    0.8303   -1.0243 H   0  0  0  0  0  0  0  0  0  0  0  0
   19.0186   -0.5737   -1.0243 H   0  0  0  0  0  0  0  0  0  0  0  0
   15.8781    7.6039  -22.6196 H   0  0  0  0  0  0  0  0  0  0  0  0
   16.7687    7.7642  -24.1713 H   0  0  0  0  0  0  0  0  0  0  0  0
   15.0528    7.2329  -24.1713 H   0  0  0  0  0  0  0  0  0  0  0  0
   15.2792    4.9083  -21.9044 H   0  0  0  0  0  0  0  0  0  0  0  0
   14.3387    5.3522  -23.3690 H   0  0  0  0  0  0  0  0  0  0  0  0
   15.3553    3.8712  -23.3690 H   0  0  0  0  0  0  0  0  0  0  0  0
   20.7038    1.8996   -3.3532 H   0  0  0  0  0  0  0  0  0  0  0  0
   17.2235    6.7002  -20.5874 H   0  0  0  0  0  0  0  0  0  0  0  0
   18.8278    5.7867   -1.2899 H   0  0  0  0  0  0  0  0  0  0  0  0
   19.7236    4.8507   -2.5342 H   0  0  0  0  0  0  0  0  0  0  0  0
   17.9273    4.8553   -2.5342 H   0  0  0  0  0  0  0  0  0  0  0  0
   19.8614    5.7721  -21.0020 H   0  0  0  0  0  0  0  0  0  0  0  0
   20.8689    4.9012  -22.2075 H   0  0  0  0  0  0  0  0  0  0  0  0
   20.8197    6.6968  -22.2075 H   0  0  0  0  0  0  0  0  0  0  0  0
   17.6489    2.0132   -3.1337 H   0  0  0  0  0  0  0  0  0  0  0  0
   17.5350    3.6424  -20.7357 H   0  0  0  0  0  0  0  0  0  0  0  0
   19.7299   -0.2295   -4.6208 H   0  0  0  0  0  0  0  0  0  0  0  0
   18.7243   -0.2142   -6.1091 H   0  0  0  0  0  0  0  0  0  0  0  0
   20.3404    0.5698   -6.1091 H   0  0  0  0  0  0  0  0  0  0  0  0
   18.0575    5.0557  -16.8445 H   0  0  0  0  0  0  0  0  0  0  0  0
   19.2010    4.4689  -18.0994 H   0  0  0  0  0  0  0  0  0  0  0  0
   18.6708    6.1851  -18.0994 H   0  0  0  0  0  0  0  0  0  0  0  0
   17.9175    3.4983   -5.5423 H   0  0  0  0  0  0  0  0  0  0  0  0
   15.1647    4.4116  -19.1225 H   0  0  0  0  0  0  0  0  0  0  0  0
   19.6643    2.4726   -7.8456 H   0  0  0  0  0  0  0  0  0  0  0  0
   15.6359    5.5848  -16.3280 H   0  0  0  0  0  0  0  0  0  0  0  0
   16.5875    2.3150   -7.7018 H   0  0  0  0  0  0  0  0  0  0  0  0
   14.8185    2.6565  -16.9529 H   0  0  0  0  0  0  0  0  0  0  0  0
   15.5390    2.1580   -9.7413 H   0  0  0  0  0  0  0  0  0  0  0  0
   16.4386    2.4823  -14.4542 H   0  0  0  0  0  0  0  0  0  0  0  0
   19.7636    2.2380   -9.7550 H   0  0  0  0  0  0  0  0  0  0  0  0
   18.9663    1.3598  -11.1040 H   0  0  0  0  0  0  0  0  0  0  0  0
   19.0118    3.1555  -11.1040 H   0  0  0  0  0  0  0  0  0  0  0  0
   13.4204    4.2494  -13.2456 H   0  0  0  0  0  0  0  0  0  0  0  0
   13.4048    5.2869  -14.7120 H   0  0  0  0  0  0  0  0  0  0  0  0
   12.5289    3.7186  -14.7120 H   0  0  0  0  0  0  0  0  0  0  0  0
   16.9185    1.5909  -12.4444 H   0  0  0  0  0  0  0  0  0  0  0  0
   14.6525    3.6747  -12.0174 H   0  0  0  0  0  0  0  0  0  0  0  0
  1 17  2  0
  2 18  2  0
  3  5  1  0
  3  7  1  0
  3 11  1  6
  3 12  1  0
  4  6  1  0
  4  8  1  0
  4 13  1  6
  4 14  1  0
  5  9  1  0
  6 10  1  0
  7 15  2  0
  7 19  1  0
  8 16  2  0
  8 20  1  0
  9 17  1  0
 10 18  1  0
 15 17  1  0
 15 21  1  0
 16 18  1  0
 16 22  1  0
 19 23  2  3
 20 24  2  3
 23 25  1  0
 24 26  1  0
 25 27  1  0
 25 29  2  3
 26 28  1  0
 26 30  2  3
 29 31  1  0
 30 32  1  0
 31 33  2  3
 32 34  2  3
 33 35  1  0
 34 36  1  0
 35 37  2  3
 35 39  1  0
 36 38  2  3
 36 40  1  0
 37 41  1  0
 38 42  1  0
 41 42  2  3
  5 43  1  0
  5 44  1  0
  6 45  1  0
  6 46  1  0
  9 47  1  0
  9 48  1  0
 10 49  1  0
 10 50  1  0
 11 51  1  0
 11 52  1  0
 11 53  1  0
 12 54  1  0
 12 55  1  0
 12 56  1  0
 13 57  1  0
 13 58  1  0
 13 59  1  0
 14 60  1  0
 14 61  1  0
 14 62  1  0
 19 63  1  0
 20 64  1  0
 21 65  1  0
 21 66  1  0
 21 67  1  0
 22 68  1  0
 22 69  1  0
 22 70  1  0
 23 71  1  0
 24 72  1  0
 27 73  1  0
 27 74  1  0
 27 75  1  0
 28 76  1  0
 28 77  1  0
 28 78  1  0
 29 79  1  0
 30 80  1  0
 31 81  1  0
 32 82  1  0
 33 83  1  0
 34 84  1  0
 37 85  1  0
 38 86  1  0
 39 87  1  0
 39 88  1  0
 39 89  1  0
 40 90  1  0
 40 91  1  0
 40 92  1  0
 41 93  1  0
 42 94  1  0
M  END
>  <filename_input>  (25) 
7ZXV_45D_docked.sdf

>  <pdb_id>  (25) 
7ZXV_45D

>  <pose_rank>  (25) 
24

>  <num_atoms_heavy>  (25) 
42

>  <num_torsions>  (25) 
10

>  <pose>  (25) 
[16.28203603235616, 2.262332011042122, -11.849336859426243, -2.1214691877524996, -2.9808181060954744, -0.36623695296463177, 1.1575237602736612, 0.45503888609317333, -1.5431406082403327, 0.845986369353257, -2.7270048108702776, -0.7029691326959144, 1.213354747202626, 1.3631639945513616, -1.8690025349861275, -0.23020412626261663]

>  <energy>  (25) 
-223.99718619851882

>  <inter_energy>  (25) 
-234.3701062340818

>  <intra_energy>  (25) 
13.955767144051647

>  <rmsd>  (25) 
10.3992

>  <sdf_rank>  (25) 
0

$$$$

     RDKit          3D

 94 95  0  0  0  0  0  0  0  0999 V2000
   12.7860   18.0200  -23.3270 O   0  0  0  0  0  0  0  0  0  0  0  0
   25.7710    8.9170   -1.3810 O   0  0  0  0  0  0  0  0  0  0  0  0
   14.8680   18.1690  -19.6950 C   0  0  1  0  0  0  0  0  0  0  0  0
   27.8450    6.1020   -3.7280 C   0  0  1  0  0  0  0  0  0  0  0  0
   15.0860   19.2260  -20.7860 C   0  0  0  0  0  0  0  0  0  0  0  0
   27.4090    5.8410   -2.2840 C   0  0  0  0  0  0  0  0  0  0  0  0
   14.4460   16.8360  -20.2730 C   0  0  0  0  0  0  0  0  0  0  0  0
   26.9950    7.2070   -4.3800 C   0  0  0  0  0  0  0  0  0  0  0  0
   13.8660   19.3610  -21.7110 C   0  0  0  0  0  0  0  0  0  0  0  0
   27.3790    7.1190   -1.4370 C   0  0  0  0  0  0  0  0  0  0  0  0
   16.1640   18.0350  -18.8820 C   0  0  0  0  0  0  0  0  0  0  0  0
   13.7220   18.6590  -18.7890 C   0  0  0  0  0  0  0  0  0  0  0  0
   29.3380    6.4640   -3.7700 C   0  0  0  0  0  0  0  0  0  0  0  0
   27.6590    4.8140   -4.5280 C   0  0  0  0  0  0  0  0  0  0  0  0
   13.5910   16.7690  -21.5190 C   0  0  0  0  0  0  0  0  0  0  0  0
   26.5070    8.3680   -3.5310 C   0  0  0  0  0  0  0  0  0  0  0  0
   13.3610   18.0410  -22.2790 C   0  0  0  0  0  0  0  0  0  0  0  0
   26.4800    8.1870   -2.0240 C   0  0  0  0  0  0  0  0  0  0  0  0
   14.4860   15.6980  -19.2830 C   0  0  0  0  0  0  0  0  0  0  0  0
   26.9940    7.4130   -5.8690 C   0  0  0  0  0  0  0  0  0  0  0  0
   13.4780   15.3970  -22.2070 C   0  0  0  0  0  0  0  0  0  0  0  0
   25.7990    9.5750   -4.1440 C   0  0  0  0  0  0  0  0  0  0  0  0
   15.5120   14.9170  -19.2330 C   0  0  0  0  0  0  0  0  0  0  0  0
   25.8780    7.2690   -6.5370 C   0  0  0  0  0  0  0  0  0  0  0  0
   15.5290   13.8670  -18.1430 C   0  0  0  0  0  0  0  0  0  0  0  0
   25.8850    7.5170   -8.0360 C   0  0  0  0  0  0  0  0  0  0  0  0
   14.2460   13.5180  -17.4380 C   0  0  0  0  0  0  0  0  0  0  0  0
   27.1590    7.3730   -8.8300 C   0  0  0  0  0  0  0  0  0  0  0  0
   16.7080   13.3110  -17.8310 C   0  0  0  0  0  0  0  0  0  0  0  0
   24.6920    7.8340   -8.5570 C   0  0  0  0  0  0  0  0  0  0  0  0
   16.8540   12.3370  -16.6840 C   0  0  0  0  0  0  0  0  0  0  0  0
   24.4690    8.1750  -10.0170 C   0  0  0  0  0  0  0  0  0  0  0  0
   18.0700   12.1970  -16.1550 C   0  0  0  0  0  0  0  0  0  0  0  0
   23.2150    8.1660  -10.5030 C   0  0  0  0  0  0  0  0  0  0  0  0
   18.3850   11.3150  -14.9540 C   0  0  0  0  0  0  0  0  0  0  0  0
   22.9580    8.6050  -11.9510 C   0  0  0  0  0  0  0  0  0  0  0  0
   19.6330   10.8880  -14.8220 C   0  0  0  0  0  0  0  0  0  0  0  0
   21.6730    8.8060  -12.3020 C   0  0  0  0  0  0  0  0  0  0  0  0
   17.3050   10.9110  -13.9620 C   0  0  0  0  0  0  0  0  0  0  0  0
   24.1100    8.8880  -12.8810 C   0  0  0  0  0  0  0  0  0  0  0  0
   20.1590   10.0950  -13.6540 C   0  0  0  0  0  0  0  0  0  0  0  0
   21.3020    9.3660  -13.6590 C   0  0  0  0  0  0  0  0  0  0  0  0
   15.2766   20.1973  -20.3061 H   0  0  0  0  0  0  0  0  0  0  0  0
   15.9428   18.9091  -21.3988 H   0  0  0  0  0  0  0  0  0  0  0  0
   26.4007    5.4015   -2.2944 H   0  0  0  0  0  0  0  0  0  0  0  0
   28.1442    5.1589   -1.8321 H   0  0  0  0  0  0  0  0  0  0  0  0
   13.0492   19.8247  -21.1384 H   0  0  0  0  0  0  0  0  0  0  0  0
   14.1867   19.9708  -22.5685 H   0  0  0  0  0  0  0  0  0  0  0  0
   27.0143    6.8659   -0.4306 H   0  0  0  0  0  0  0  0  0  0  0  0
   28.4016    7.5235   -1.4088 H   0  0  0  0  0  0  0  0  0  0  0  0
   15.9273   18.0595  -17.8080 H   0  0  0  0  0  0  0  0  0  0  0  0
   16.6541   17.0814  -19.1278 H   0  0  0  0  0  0  0  0  0  0  0  0
   16.8388   18.8682  -19.1278 H   0  0  0  0  0  0  0  0  0  0  0  0
   14.0100   18.5359  -17.7345 H   0  0  0  0  0  0  0  0  0  0  0  0
   13.5220   19.7213  -18.9928 H   0  0  0  0  0  0  0  0  0  0  0  0
   12.8158   18.0696  -18.9928 H   0  0  0  0  0  0  0  0  0  0  0  0
   29.7218    6.5570   -2.7433 H   0  0  0  0  0  0  0  0  0  0  0  0
   29.8921    5.6742   -4.2984 H   0  0  0  0  0  0  0  0  0  0  0  0
   29.4688    7.4199   -4.2984 H   0  0  0  0  0  0  0  0  0  0  0  0
   27.5367    3.9673   -3.8365 H   0  0  0  0  0  0  0  0  0  0  0  0
   26.7643    4.9020   -5.1618 H   0  0  0  0  0  0  0  0  0  0  0  0
   28.5421    4.6452   -5.1618 H   0  0  0  0  0  0  0  0  0  0  0  0
   13.6380   15.5337  -18.6019 H   0  0  0  0  0  0  0  0  0  0  0  0
   27.9232    7.6824   -6.3925 H   0  0  0  0  0  0  0  0  0  0  0  0
   13.4130   14.6081  -21.4432 H   0  0  0  0  0  0  0  0  0  0  0  0
   12.5750   15.3749  -22.8348 H   0  0  0  0  0  0  0  0  0  0  0  0
   14.3652   15.2274  -22.8348 H   0  0  0  0  0  0  0  0  0  0  0  0
   25.4185   10.2236   -3.3412 H   0  0  0  0  0  0  0  0  0  0  0  0
   26.5091   10.1396   -4.7661 H   0  0  0  0  0  0  0  0  0  0  0  0
   24.9597    9.2308   -4.7661 H   0  0  0  0  0  0  0  0  0  0  0  0
   16.3392   15.0104  -19.9520 H   0  0  0  0  0  0  0  0  0  0  0  0
   24.9516    6.9738   -6.0226 H   0  0  0  0  0  0  0  0  0  0  0  0
   14.4022   13.5605  -16.3500 H   0  0  0  0  0  0  0  0  0  0  0  0
   13.4633   14.2359  -17.7244 H   0  0  0  0  0  0  0  0  0  0  0  0
   13.9348   12.5026  -17.7244 H   0  0  0  0  0  0  0  0  0  0  0  0
   28.0113    7.2767   -8.1414 H   0  0  0  0  0  0  0  0  0  0  0  0
   27.0966    6.4762   -9.4639 H   0  0  0  0  0  0  0  0  0  0  0  0
   27.2984    8.2611   -9.4639 H   0  0  0  0  0  0  0  0  0  0  0  0
   17.5953   13.5710  -18.4269 H   0  0  0  0  0  0  0  0  0  0  0  0
   23.8217    7.8476   -7.8845 H   0  0  0  0  0  0  0  0  0  0  0  0
   15.9936   11.7679  -16.3020 H   0  0  0  0  0  0  0  0  0  0  0  0
   25.3191    8.4258  -10.6685 H   0  0  0  0  0  0  0  0  0  0  0  0
   18.8989   12.7544  -16.6157 H   0  0  0  0  0  0  0  0  0  0  0  0
   22.3776    7.8455   -9.8658 H   0  0  0  0  0  0  0  0  0  0  0  0
   20.3401   11.1318  -15.6286 H   0  0  0  0  0  0  0  0  0  0  0  0
   20.8752    8.5577  -11.5866 H   0  0  0  0  0  0  0  0  0  0  0  0
   17.6781   11.0506  -12.9367 H   0  0  0  0  0  0  0  0  0  0  0  0
   16.4132   11.5363  -14.1160 H   0  0  0  0  0  0  0  0  0  0  0  0
   17.0426    9.8539  -14.1160 H   0  0  0  0  0  0  0  0  0  0  0  0
   25.0116    9.1095  -12.2911 H   0  0  0  0  0  0  0  0  0  0  0  0
   24.2938    8.0083  -13.5153 H   0  0  0  0  0  0  0  0  0  0  0  0
   23.8653    9.7527  -13.5153 H   0  0  0  0  0  0  0  0  0  0  0  0
   19.5700   10.1086  -12.7251 H   0  0  0  0  0  0  0  0  0  0  0  0
   21.9037    9.1971  -14.5643 H   0  0  0  0  0  0  0  0  0  0  0  0
  1 17  2  0
  2 18  2  0
  3  5  1  0
  3  7  1  0
  3 11  1  1
  3 12  1  0
  4  6  1  0
  4  8  1  0
  4 13  1  1
  4 14  1  0
  5  9  1  0
  6 10  1  0
  7 15  2  0
  7 19  1  0
  8 16  2  0
  8 20  1  0
  9 17  1  0
 10 18  1  0
 15 17  1  0
 15 21  1  0
 16 18  1  0
 16 22  1  0
 19 23  2  3
 20 24  2  3
 23 25  1  0
 24 26  1  0
 25 27  1  0
 25 29  2  3
 26 28  1  0
 26 30  2  3
 29 31  1  0
 30 32  1  0
 31 33  2  3
 32 34  2  3
 33 35  1  0
 34 36  1  0
 35 37  2  3
 35 39  1  0
 36 38  2  3
 36 40  1  0
 37 41  1  0
 38 42  1  0
 41 42  2  3
  5 43  1  0
  5 44  1  0
  6 45  1  0
  6 46  1  0
  9 47  1  0
  9 48  1  0
 10 49  1  0
 10 50  1  0
 11 51  1  0
 11 52  1  0
 11 53  1  0
 12 54  1  0
 12 55  1  0
 12 56  1  0
 13 57  1  0
 13 58  1  0
 13 59  1  0
 14 60  1  0
 14 61  1  0
 14 62  1  0
 19 63  1  0
 20 64  1  0
 21 65  1  0
 21 66  1  0
 21 67  1  0
 22 68  1  0
 22 69  1  0
 22 70  1  0
 23 71  1  0
 24 72  1  0
 27 73  1  0
 27 74  1  0
 27 75  1  0
 28 76  1  0
 28 77  1  0
 28 78  1  0
 29 79  1  0
 30 80  1  0
 31 81  1  0
 32 82  1  0
 33 83  1  0
 34 84  1  0
 37 85  1  0
 38 86  1  0
 39 87  1  0
 39 88  1  0
 39 89  1  0
 40 90  1  0
 40 91  1  0
 40 92  1  0
 41 93  1  0
 42 94  1  0
M  END
>  <filename_input>  (26) 
7ZXV_45D_docked.sdf

>  <pdb_id>  (26) 
7ZXV_45D

>  <pose_rank>  (26) 
25

>  <num_atoms_heavy>  (26) 
42

>  <num_torsions>  (26) 
10

>  <pose>  (26) 
[20.159, 10.095, -13.654, 1e-06, 1e-06, 1e-06, 0.0, 0.0, 0.0, 0.0, 0.0, 0.0, 0.0, 0.0, 0.0, 0.0]

>  <energy>  (26) 
-765.3974846663278

>  <inter_energy>  (26) 
-783.6348636929469

>  <intra_energy>  (26) 
19.02762993262492

>  <rmsd>  (26) 
0.0

>  <sdf_rank>  (26) 
0

$$$$
