
     RDKit          3D

 53 57  0  0  0  0  0  0  0  0999 V2000
   29.6783  -16.4297   -2.2882 C   0  0  0  0  0  0  0  0  0  0  0  0
   29.5828  -17.1377   -1.0763 C   0  0  0  0  0  0  0  0  0  0  0  0
   21.0314  -19.7327    1.0863 C   0  0  0  0  0  0  0  0  0  0  0  0
   28.2803  -17.3547   -0.5398 C   0  0  0  0  0  0  0  0  0  0  0  0
   30.5475  -17.7297   -0.1962 C   0  0  0  0  0  0  0  0  0  0  0  0
   29.9880  -18.3258    0.8881 C   0  0  0  0  0  0  0  0  0  0  0  0
   21.4232  -19.5054   -0.3935 C   0  0  2  0  0  0  0  0  0  0  0  0
   18.8266  -20.5109    2.1508 C   0  0  0  0  0  0  0  0  0  0  0  0
   18.4116  -20.2974    4.5011 C   0  0  0  0  0  0  0  0  0  0  0  0
   17.0531  -20.3943    4.2985 C   0  0  0  0  0  0  0  0  0  0  0  0
   19.7607  -20.5774    0.9575 C   0  0  1  0  0  0  0  0  0  0  0  0
   16.5757  -20.5503    3.0204 C   0  0  0  0  0  0  0  0  0  0  0  0
   17.4549  -20.6084    1.9590 C   0  0  0  0  0  0  0  0  0  0  0  0
   24.1012  -18.5214    0.2414 C   0  0  0  0  0  0  0  0  0  0  0  0
   25.4126  -18.4289   -0.5453 C   0  0  0  0  0  0  0  0  0  0  0  0
   24.7660  -16.2263   -1.3749 C   0  0  0  0  0  0  0  0  0  0  0  0
   23.5084  -16.2686   -0.5190 C   0  0  0  0  0  0  0  0  0  0  0  0
   27.1384  -16.8633   -1.2214 C   0  0  0  0  0  0  0  0  0  0  0  0
   28.5147  -15.9886   -2.8869 C   0  0  0  0  0  0  0  0  0  0  0  0
   19.1334  -20.0362   -0.3388 C   0  0  0  0  0  0  0  0  0  0  0  0
   21.8083  -18.0460   -0.5894 C   0  0  0  0  0  0  0  0  0  0  0  0
   19.3045  -20.3533    3.4479 C   0  0  0  0  0  0  0  0  0  0  0  0
   20.2749  -19.8660   -1.2623 N   0  0  0  0  0  0  0  0  0  0  0  0
   23.0765  -17.6530   -0.3410 N   0  0  0  0  0  0  0  0  0  0  0  0
   25.8238  -17.0358   -0.7649 N   0  0  0  0  0  0  0  0  0  0  0  0
   27.2825  -16.1917   -2.3833 N   0  0  0  0  0  0  0  0  0  0  0  0
   20.9595  -17.2502   -0.9700 O   0  0  0  0  0  0  0  0  0  0  0  0
   28.2712  -18.2246    0.9402 S   0  0  0  0  0  0  0  0  0  0  0  0
   19.0169  -20.1008    6.1210 Cl  0  0  0  0  0  0  0  0  0  0  0  0
   30.6577  -16.2320   -2.7484 H   0  0  0  0  0  0  0  0  0  0  0  0
   21.8189  -20.2767    1.6284 H   0  0  0  0  0  0  0  0  0  0  0  0
   20.8873  -18.8012    1.6533 H   0  0  0  0  0  0  0  0  0  0  0  0
   31.6316  -17.7038   -0.3808 H   0  0  0  0  0  0  0  0  0  0  0  0
   30.5810  -18.8296    1.6657 H   0  0  0  0  0  0  0  0  0  0  0  0
   22.2823  -20.1374   -0.6626 H   0  0  0  0  0  0  0  0  0  0  0  0
   16.3585  -20.3472    5.1501 H   0  0  0  0  0  0  0  0  0  0  0  0
   19.9811  -21.6546    0.9256 H   0  0  0  0  0  0  0  0  0  0  0  0
   15.4930  -20.6289    2.8431 H   0  0  0  0  0  0  0  0  0  0  0  0
   17.0611  -20.7346    0.9396 H   0  0  0  0  0  0  0  0  0  0  0  0
   23.7437  -19.5615    0.2234 H   0  0  0  0  0  0  0  0  0  0  0  0
   24.2896  -18.1959    1.2751 H   0  0  0  0  0  0  0  0  0  0  0  0
   26.2022  -18.9481    0.0177 H   0  0  0  0  0  0  0  0  0  0  0  0
   25.2534  -18.8959   -1.5285 H   0  0  0  0  0  0  0  0  0  0  0  0
   24.5374  -16.6221   -2.3754 H   0  0  0  0  0  0  0  0  0  0  0  0
   25.1117  -15.1848   -1.4515 H   0  0  0  0  0  0  0  0  0  0  0  0
   23.7208  -15.8231    0.4641 H   0  0  0  0  0  0  0  0  0  0  0  0
   22.7099  -15.7008   -1.0190 H   0  0  0  0  0  0  0  0  0  0  0  0
   28.5997  -15.4368   -3.8347 H   0  0  0  0  0  0  0  0  0  0  0  0
   18.4068  -20.7537   -0.7477 H   0  0  0  0  0  0  0  0  0  0  0  0
   18.5845  -19.0969   -0.1763 H   0  0  0  0  0  0  0  0  0  0  0  0
   20.3858  -20.2738    3.6338 H   0  0  0  0  0  0  0  0  0  0  0  0
   20.0834  -19.1139   -1.9395 H   0  0  0  0  0  0  0  0  0  0  0  0
   20.4583  -20.7181   -1.8112 H   0  0  0  0  0  0  0  0  0  0  0  0
  1  2  2  0
  1 19  1  0
  2  4  1  0
  2  5  1  0
  3  7  1  0
  3 11  1  0
  4 18  2  0
  4 28  1  0
  5  6  2  0
  6 28  1  0
  7 21  1  0
  7 23  1  0
 11  8  1  0
  8 13  1  0
  8 22  2  0
  9 10  2  0
  9 22  1  0
  9 29  1  0
 10 12  1  0
 11 20  1  0
 12 13  2  0
 14 15  1  0
 14 24  1  0
 15 25  1  0
 16 17  1  0
 16 25  1  0
 17 24  1  0
 18 25  1  0
 18 26  1  0
 19 26  2  0
 20 23  1  0
 21 24  1  0
 21 27  2  0
  1 30  1  0
  3 31  1  0
  3 32  1  0
  5 33  1  0
  6 34  1  0
  7 35  1  6
 10 36  1  0
 11 37  1  6
 12 38  1  0
 13 39  1  0
 14 40  1  0
 14 41  1  0
 15 42  1  0
 15 43  1  0
 16 44  1  0
 16 45  1  0
 17 46  1  0
 17 47  1  0
 19 48  1  0
 20 49  1  0
 20 50  1  0
 22 51  1  0
 23 52  1  0
 23 53  1  0
M  CHG  1  23   1
M  END
>  <filename_input>  (1) 
7ZZW_KKW_docked.sdf

>  <pdb_id>  (1) 
7ZZW_KKW

>  <pose_rank>  (1) 
0

>  <num_atoms_heavy>  (1) 
29

>  <num_torsions>  (1) 
3

>  <pose>  (1) 
[24.10124958400389, -18.521355208439587, 0.2413836788435227, 5.884071818786651, -0.9240912340110599, -1.7568290971472578, -0.03837820545796344, -6.183621803928094, -0.1867547843192732]

>  <energy>  (1) 
-1153.853053489563

>  <inter_energy>  (1) 
-1156.9518635654172

>  <intra_energy>  (1) 
19.507516255350694

>  <rmsd>  (1) 
0.28291

>  <sdf_rank>  (1) 
0

$$$$

     RDKit          3D

 53 57  0  0  0  0  0  0  0  0999 V2000
   29.6202  -16.4683   -2.2826 C   0  0  0  0  0  0  0  0  0  0  0  0
   28.6628  -15.5688   -2.7858 C   0  0  0  0  0  0  0  0  0  0  0  0
   20.9931  -19.7499    1.0826 C   0  0  0  0  0  0  0  0  0  0  0  0
   27.3199  -15.7110   -2.3300 C   0  0  0  0  0  0  0  0  0  0  0  0
   28.7219  -14.4731   -3.7087 C   0  0  0  0  0  0  0  0  0  0  0  0
   27.5197  -13.8725   -3.9043 C   0  0  0  0  0  0  0  0  0  0  0  0
   21.3649  -19.5098   -0.4003 C   0  0  2  0  0  0  0  0  0  0  0  0
   18.8194  -20.5875    2.1659 C   0  0  0  0  0  0  0  0  0  0  0  0
   18.4255  -20.4702    4.5267 C   0  0  0  0  0  0  0  0  0  0  0  0
   17.0634  -20.5159    4.3300 C   0  0  0  0  0  0  0  0  0  0  0  0
   19.7438  -20.6273    0.9639 C   0  0  1  0  0  0  0  0  0  0  0  0
   16.5737  -20.5980    3.0497 C   0  0  0  0  0  0  0  0  0  0  0  0
   17.4442  -20.6339    1.9801 C   0  0  0  0  0  0  0  0  0  0  0  0
   24.0407  -18.4699    0.1494 C   0  0  0  0  0  0  0  0  0  0  0  0
   25.3213  -18.3413   -0.6817 C   0  0  0  0  0  0  0  0  0  0  0  0
   24.5965  -16.1475   -1.4689 C   0  0  0  0  0  0  0  0  0  0  0  0
   23.3710  -16.2253   -0.5702 C   0  0  0  0  0  0  0  0  0  0  0  0
   26.9865  -16.7313   -1.4038 C   0  0  0  0  0  0  0  0  0  0  0  0
   29.2099  -17.4309   -1.3812 C   0  0  0  0  0  0  0  0  0  0  0  0
   19.0904  -20.1004   -0.3254 C   0  0  0  0  0  0  0  0  0  0  0  0
   21.7099  -18.0405   -0.5967 C   0  0  0  0  0  0  0  0  0  0  0  0
   19.3098  -20.5047    3.4654 C   0  0  0  0  0  0  0  0  0  0  0  0
   20.2184  -19.8987   -1.2591 N   0  0  0  0  0  0  0  0  0  0  0  0
   22.9769  -17.6206   -0.3893 N   0  0  0  0  0  0  0  0  0  0  0  0
   25.6930  -16.9375   -0.9033 N   0  0  0  0  0  0  0  0  0  0  0  0
   27.9424  -17.5684   -0.9482 N   0  0  0  0  0  0  0  0  0  0  0  0
   20.8305  -17.2613   -0.9406 O   0  0  0  0  0  0  0  0  0  0  0  0
   26.2295  -14.5689   -3.0039 S   0  0  0  0  0  0  0  0  0  0  0  0
   19.0464  -20.3673    6.1494 Cl  0  0  0  0  0  0  0  0  0  0  0  0
   30.6716  -16.4064   -2.5997 H   0  0  0  0  0  0  0  0  0  0  0  0
   21.7995  -20.2742    1.6163 H   0  0  0  0  0  0  0  0  0  0  0  0
   20.8300  -18.8236    1.6529 H   0  0  0  0  0  0  0  0  0  0  0  0
   29.6477  -14.1514   -4.2081 H   0  0  0  0  0  0  0  0  0  0  0  0
   27.3827  -13.0152   -4.5798 H   0  0  0  0  0  0  0  0  0  0  0  0
   22.2377  -20.1186   -0.6786 H   0  0  0  0  0  0  0  0  0  0  0  0
   16.3758  -20.4870    5.1881 H   0  0  0  0  0  0  0  0  0  0  0  0
   19.9918  -21.6983    0.9277 H   0  0  0  0  0  0  0  0  0  0  0  0
   15.4880  -20.6351    2.8771 H   0  0  0  0  0  0  0  0  0  0  0  0
   17.0405  -20.7007    0.9591 H   0  0  0  0  0  0  0  0  0  0  0  0
   23.7063  -19.5177    0.1348 H   0  0  0  0  0  0  0  0  0  0  0  0
   24.2578  -18.1484    1.1788 H   0  0  0  0  0  0  0  0  0  0  0  0
   26.1416  -18.8467   -0.1511 H   0  0  0  0  0  0  0  0  0  0  0  0
   25.1383  -18.8040   -1.6627 H   0  0  0  0  0  0  0  0  0  0  0  0
   24.3420  -16.5405   -2.4643 H   0  0  0  0  0  0  0  0  0  0  0  0
   24.9157  -15.0978   -1.5485 H   0  0  0  0  0  0  0  0  0  0  0  0
   23.6075  -15.7829    0.4088 H   0  0  0  0  0  0  0  0  0  0  0  0
   22.5428  -15.6719   -1.0370 H   0  0  0  0  0  0  0  0  0  0  0  0
   29.9660  -18.1290   -0.9928 H   0  0  0  0  0  0  0  0  0  0  0  0
   18.3790  -20.8359   -0.7290 H   0  0  0  0  0  0  0  0  0  0  0  0
   18.5187  -19.1760   -0.1559 H   0  0  0  0  0  0  0  0  0  0  0  0
   20.3941  -20.4670    3.6466 H   0  0  0  0  0  0  0  0  0  0  0  0
   20.0010  -19.1506   -1.9329 H   0  0  0  0  0  0  0  0  0  0  0  0
   20.4188  -20.7447   -1.8114 H   0  0  0  0  0  0  0  0  0  0  0  0
  1  2  2  0
  1 19  1  0
  2  4  1  0
  2  5  1  0
  3  7  1  0
  3 11  1  0
  4 18  2  0
  4 28  1  0
  5  6  2  0
  6 28  1  0
  7 21  1  0
  7 23  1  0
 11  8  1  0
  8 13  1  0
  8 22  2  0
  9 10  2  0
  9 22  1  0
  9 29  1  0
 10 12  1  0
 11 20  1  0
 12 13  2  0
 14 15  1  0
 14 24  1  0
 15 25  1  0
 16 17  1  0
 16 25  1  0
 17 24  1  0
 18 25  1  0
 18 26  1  0
 19 26  2  0
 20 23  1  0
 21 24  1  0
 21 27  2  0
  1 30  1  0
  3 31  1  0
  3 32  1  0
  5 33  1  0
  6 34  1  0
  7 35  1  6
 10 36  1  0
 11 37  1  6
 12 38  1  0
 13 39  1  0
 14 40  1  0
 14 41  1  0
 15 42  1  0
 15 43  1  0
 16 44  1  0
 16 45  1  0
 17 46  1  0
 17 47  1  0
 19 48  1  0
 20 49  1  0
 20 50  1  0
 22 51  1  0
 23 52  1  0
 23 53  1  0
M  CHG  1  23   1
M  END
>  <filename_input>  (2) 
7ZZW_KKW_docked.sdf

>  <pdb_id>  (2) 
7ZZW_KKW

>  <pose_rank>  (2) 
1

>  <num_atoms_heavy>  (2) 
29

>  <num_torsions>  (2) 
3

>  <pose>  (2) 
[24.040710856580894, -18.46987715261393, 0.14943965553584942, 4.290914876306873, -3.1699338876030376, -3.1497833829037707, -2.8190894844559526, 0.12620494105859562, -0.25890434851136684]

>  <energy>  (2) 
-1118.0724984385126

>  <inter_energy>  (2) 
-1148.3908744392575

>  <intra_energy>  (2) 
45.65291430224544

>  <rmsd>  (2) 
2.15506

>  <sdf_rank>  (2) 
0

$$$$

     RDKit          3D

 53 57  0  0  0  0  0  0  0  0999 V2000
   16.0353  -20.8243    5.1465 C   0  0  0  0  0  0  0  0  0  0  0  0
   17.3924  -20.6070    5.4466 C   0  0  0  0  0  0  0  0  0  0  0  0
   23.7924  -18.3522   -1.5627 C   0  0  0  0  0  0  0  0  0  0  0  0
   18.2717  -20.3260    4.3607 C   0  0  0  0  0  0  0  0  0  0  0  0
   18.1491  -20.6019    6.6645 C   0  0  0  0  0  0  0  0  0  0  0  0
   19.4677  -20.3389    6.4743 C   0  0  0  0  0  0  0  0  0  0  0  0
   22.9287  -18.9551   -0.4289 C   0  0  2  0  0  0  0  0  0  0  0  0
   25.8738  -16.8484   -1.4847 C   0  0  0  0  0  0  0  0  0  0  0  0
   27.9522  -15.8798   -2.1805 C   0  0  0  0  0  0  0  0  0  0  0  0
   27.2972  -14.8003   -2.7301 C   0  0  0  0  0  0  0  0  0  0  0  0
   25.0655  -17.9442   -0.8163 C   0  0  1  0  0  0  0  0  0  0  0  0
   25.9272  -14.7405   -2.6587 C   0  0  0  0  0  0  0  0  0  0  0  0
   25.2246  -15.7546   -2.0415 C   0  0  0  0  0  0  0  0  0  0  0  0
   20.6453  -20.4477    0.6209 C   0  0  0  0  0  0  0  0  0  0  0  0
   19.9470  -20.5001    1.9834 C   0  0  0  0  0  0  0  0  0  0  0  0
   18.4799  -18.6699    1.3080 C   0  0  0  0  0  0  0  0  0  0  0  0
   19.1021  -18.6782   -0.0807 C   0  0  0  0  0  0  0  0  0  0  0  0
   17.7720  -20.2745    3.0348 C   0  0  0  0  0  0  0  0  0  0  0  0
   15.6328  -20.7530    3.8273 C   0  0  0  0  0  0  0  0  0  0  0  0
   24.5244  -17.5451    0.5675 C   0  0  0  0  0  0  0  0  0  0  0  0
   21.5040  -18.4351   -0.5564 C   0  0  0  0  0  0  0  0  0  0  0  0
   27.2620  -16.9034   -1.5597 C   0  0  0  0  0  0  0  0  0  0  0  0
   23.5109  -18.5739    0.8822 N   0  0  0  0  0  0  0  0  0  0  0  0
   20.4889  -19.1310    0.0003 N   0  0  0  0  0  0  0  0  0  0  0  0
   18.5669  -20.0017    1.9123 N   0  0  0  0  0  0  0  0  0  0  0  0
   16.4603  -20.4877    2.7987 N   0  0  0  0  0  0  0  0  0  0  0  0
   21.3012  -17.3915   -1.1634 O   0  0  0  0  0  0  0  0  0  0  0  0
   19.9043  -20.0790    4.8304 S   0  0  0  0  0  0  0  0  0  0  0  0
   29.6887  -15.9552   -2.2699 Cl  0  0  0  0  0  0  0  0  0  0  0  0
   15.3113  -21.0461    5.9443 H   0  0  0  0  0  0  0  0  0  0  0  0
   24.0081  -19.0996   -2.3405 H   0  0  0  0  0  0  0  0  0  0  0  0
   23.3061  -17.5209   -2.0942 H   0  0  0  0  0  0  0  0  0  0  0  0
   17.7061  -20.7918    7.6532 H   0  0  0  0  0  0  0  0  0  0  0  0
   20.1937  -20.2958    7.2996 H   0  0  0  0  0  0  0  0  0  0  0  0
   22.9130  -20.0525   -0.5032 H   0  0  0  0  0  0  0  0  0  0  0  0
   27.8647  -13.9955   -3.2204 H   0  0  0  0  0  0  0  0  0  0  0  0
   25.8052  -18.7577   -0.7837 H   0  0  0  0  0  0  0  0  0  0  0  0
   25.3904  -13.8844   -3.0934 H   0  0  0  0  0  0  0  0  0  0  0  0
   24.1274  -15.6954   -1.9894 H   0  0  0  0  0  0  0  0  0  0  0  0
   21.7168  -20.6556    0.7578 H   0  0  0  0  0  0  0  0  0  0  0  0
   20.1869  -21.2011   -0.0366 H   0  0  0  0  0  0  0  0  0  0  0  0
   19.9308  -21.5424    2.3347 H   0  0  0  0  0  0  0  0  0  0  0  0
   20.5063  -19.8557    2.6777 H   0  0  0  0  0  0  0  0  0  0  0  0
   19.0164  -17.9482    1.9417 H   0  0  0  0  0  0  0  0  0  0  0  0
   17.4212  -18.3836    1.2240 H   0  0  0  0  0  0  0  0  0  0  0  0
   18.5334  -19.3587   -0.7314 H   0  0  0  0  0  0  0  0  0  0  0  0
   19.0764  -17.6600   -0.4960 H   0  0  0  0  0  0  0  0  0  0  0  0
   14.5696  -20.9236    3.6028 H   0  0  0  0  0  0  0  0  0  0  0  0
   25.3302  -17.5519    1.3163 H   0  0  0  0  0  0  0  0  0  0  0  0
   24.1034  -16.5289    0.5737 H   0  0  0  0  0  0  0  0  0  0  0  0
   27.8065  -17.7560   -1.1277 H   0  0  0  0  0  0  0  0  0  0  0  0
   22.7844  -18.1884    1.5022 H   0  0  0  0  0  0  0  0  0  0  0  0
   23.9199  -19.3818    1.3729 H   0  0  0  0  0  0  0  0  0  0  0  0
  1  2  2  0
  1 19  1  0
  2  4  1  0
  2  5  1  0
  3  7  1  0
  3 11  1  0
  4 18  2  0
  4 28  1  0
  5  6  2  0
  6 28  1  0
  7 21  1  0
  7 23  1  0
 11  8  1  0
  8 13  1  0
  8 22  2  0
  9 10  2  0
  9 22  1  0
  9 29  1  0
 10 12  1  0
 11 20  1  0
 12 13  2  0
 14 15  1  0
 14 24  1  0
 15 25  1  0
 16 17  1  0
 16 25  1  0
 17 24  1  0
 18 25  1  0
 18 26  1  0
 19 26  2  0
 20 23  1  0
 21 24  1  0
 21 27  2  0
  1 30  1  0
  3 31  1  0
  3 32  1  0
  5 33  1  0
  6 34  1  0
  7 35  1  6
 10 36  1  0
 11 37  1  1
 12 38  1  0
 13 39  1  0
 14 40  1  0
 14 41  1  0
 15 42  1  0
 15 43  1  0
 16 44  1  0
 16 45  1  0
 17 46  1  0
 17 47  1  0
 19 48  1  0
 20 49  1  0
 20 50  1  0
 22 51  1  0
 23 52  1  0
 23 53  1  0
M  CHG  1  23   1
M  END
>  <filename_input>  (3) 
7ZZW_KKW_docked.sdf

>  <pdb_id>  (3) 
7ZZW_KKW

>  <pose_rank>  (3) 
2

>  <num_atoms_heavy>  (3) 
29

>  <num_torsions>  (3) 
3

>  <pose>  (3) 
[20.645318399485188, -20.447660508000514, 0.6208661093483621, 1.1147293778265333, -2.2168420802306827, 0.8799102954188861, -4.747792368169265, 1.3504407415263715, -2.0178567892692816]

>  <energy>  (3) 
-889.6113652383457

>  <inter_energy>  (3) 
-907.6124543525968

>  <intra_energy>  (3) 
33.443667037649014

>  <rmsd>  (3) 
9.81729

>  <sdf_rank>  (3) 
0

$$$$

     RDKit          3D

 53 57  0  0  0  0  0  0  0  0999 V2000
   15.9826  -20.9969    4.1528 C   0  0  0  0  0  0  0  0  0  0  0  0
   17.0890  -20.6338    4.9419 C   0  0  0  0  0  0  0  0  0  0  0  0
   24.6547  -17.5132   -0.2668 C   0  0  0  0  0  0  0  0  0  0  0  0
   18.3217  -20.3794    4.2731 C   0  0  0  0  0  0  0  0  0  0  0  0
   17.2830  -20.4481    6.3504 C   0  0  0  0  0  0  0  0  0  0  0  0
   18.5523  -20.0892    6.6732 C   0  0  0  0  0  0  0  0  0  0  0  0
   23.1642  -17.3245    0.1044 C   0  0  2  0  0  0  0  0  0  0  0  0
   26.2192  -16.1104   -1.7448 C   0  0  0  0  0  0  0  0  0  0  0  0
   28.4998  -16.6118   -2.2828 C   0  0  0  0  0  0  0  0  0  0  0  0
   28.3595  -16.0451   -3.5299 C   0  0  0  0  0  0  0  0  0  0  0  0
   25.0318  -16.1286   -0.8010 C   0  0  1  0  0  0  0  0  0  0  0  0
   27.1479  -15.5081   -3.8894 C   0  0  0  0  0  0  0  0  0  0  0  0
   26.0901  -15.5408   -3.0045 C   0  0  0  0  0  0  0  0  0  0  0  0
   21.7774  -19.1202    1.9472 C   0  0  0  0  0  0  0  0  0  0  0  0
   20.3825  -19.1209    2.5807 C   0  0  0  0  0  0  0  0  0  0  0  0
   19.5082  -20.3589    0.6673 C   0  0  0  0  0  0  0  0  0  0  0  0
   20.9091  -20.4478    0.0796 C   0  0  0  0  0  0  0  0  0  0  0  0
   18.4038  -20.4965    2.8625 C   0  0  0  0  0  0  0  0  0  0  0  0
   16.1497  -21.0850    2.7847 C   0  0  0  0  0  0  0  0  0  0  0  0
   23.7226  -15.6597   -1.4590 C   0  0  0  0  0  0  0  0  0  0  0  0
   22.3706  -18.5250   -0.3911 C   0  0  0  0  0  0  0  0  0  0  0  0
   27.4492  -16.6525   -1.3859 C   0  0  0  0  0  0  0  0  0  0  0  0
   22.6626  -16.0724   -0.5151 N   0  0  0  0  0  0  0  0  0  0  0  0
   21.6954  -19.2886    0.4953 N   0  0  0  0  0  0  0  0  0  0  0  0
   19.5746  -20.2612    2.1276 N   0  0  0  0  0  0  0  0  0  0  0  0
   17.3123  -20.8455    2.1491 N   0  0  0  0  0  0  0  0  0  0  0  0
   22.3575  -18.7794   -1.5885 O   0  0  0  0  0  0  0  0  0  0  0  0
   19.6092  -19.9469    5.3230 S   0  0  0  0  0  0  0  0  0  0  0  0
   30.0357  -17.2914   -1.8265 Cl  0  0  0  0  0  0  0  0  0  0  0  0
   15.0064  -21.2058    4.6148 H   0  0  0  0  0  0  0  0  0  0  0  0
   25.2553  -17.7774    0.6160 H   0  0  0  0  0  0  0  0  0  0  0  0
   24.8315  -18.3272   -0.9852 H   0  0  0  0  0  0  0  0  0  0  0  0
   16.4842  -20.5829    7.0944 H   0  0  0  0  0  0  0  0  0  0  0  0
   18.8766  -19.9053    7.7081 H   0  0  0  0  0  0  0  0  0  0  0  0
   23.0489  -17.2500    1.1958 H   0  0  0  0  0  0  0  0  0  0  0  0
   29.2079  -16.0227   -4.2297 H   0  0  0  0  0  0  0  0  0  0  0  0
   25.3896  -15.4605   -0.0037 H   0  0  0  0  0  0  0  0  0  0  0  0
   27.0209  -15.0522   -4.8824 H   0  0  0  0  0  0  0  0  0  0  0  0
   25.1244  -15.1067   -3.3031 H   0  0  0  0  0  0  0  0  0  0  0  0
   22.2732  -18.1641    2.1708 H   0  0  0  0  0  0  0  0  0  0  0  0
   22.3520  -19.9599    2.3651 H   0  0  0  0  0  0  0  0  0  0  0  0
   20.4888  -19.1729    3.6744 H   0  0  0  0  0  0  0  0  0  0  0  0
   19.8693  -18.1972    2.2752 H   0  0  0  0  0  0  0  0  0  0  0  0
   19.0025  -19.4679    0.2666 H   0  0  0  0  0  0  0  0  0  0  0  0
   18.9476  -21.2651    0.3945 H   0  0  0  0  0  0  0  0  0  0  0  0
   21.3970  -21.3668    0.4364 H   0  0  0  0  0  0  0  0  0  0  0  0
   20.8416  -20.4658   -1.0182 H   0  0  0  0  0  0  0  0  0  0  0  0
   15.2784  -21.3687    2.1762 H   0  0  0  0  0  0  0  0  0  0  0  0
   23.7229  -14.5675   -1.5893 H   0  0  0  0  0  0  0  0  0  0  0  0
   23.5808  -16.0919   -2.4606 H   0  0  0  0  0  0  0  0  0  0  0  0
   27.5846  -17.1105   -0.3950 H   0  0  0  0  0  0  0  0  0  0  0  0
   21.7793  -16.2451   -1.0160 H   0  0  0  0  0  0  0  0  0  0  0  0
   22.4665  -15.3453    0.1876 H   0  0  0  0  0  0  0  0  0  0  0  0
  1  2  2  0
  1 19  1  0
  2  4  1  0
  2  5  1  0
  3  7  1  0
  3 11  1  0
  4 18  2  0
  4 28  1  0
  5  6  2  0
  6 28  1  0
  7 21  1  0
  7 23  1  0
 11  8  1  0
  8 13  1  0
  8 22  2  0
  9 10  2  0
  9 22  1  0
  9 29  1  0
 10 12  1  0
 11 20  1  0
 12 13  2  0
 14 15  1  0
 14 24  1  0
 15 25  1  0
 16 17  1  0
 16 25  1  0
 17 24  1  0
 18 25  1  0
 18 26  1  0
 19 26  2  0
 20 23  1  0
 21 24  1  0
 21 27  2  0
  1 30  1  0
  3 31  1  0
  3 32  1  0
  5 33  1  0
  6 34  1  0
  7 35  1  1
 10 36  1  0
 11 37  1  1
 12 38  1  0
 13 39  1  0
 14 40  1  0
 14 41  1  0
 15 42  1  0
 15 43  1  0
 16 44  1  0
 16 45  1  0
 17 46  1  0
 17 47  1  0
 19 48  1  0
 20 49  1  0
 20 50  1  0
 22 51  1  0
 23 52  1  0
 23 53  1  0
M  CHG  1  23   1
M  END
>  <filename_input>  (4) 
7ZZW_KKW_docked.sdf

>  <pdb_id>  (4) 
7ZZW_KKW

>  <pose_rank>  (4) 
3

>  <num_atoms_heavy>  (4) 
29

>  <num_torsions>  (4) 
3

>  <pose>  (4) 
[21.77736378782651, -19.12017028106946, 1.947207919529294, -1.4118402681819031, 1.046330279996454, -2.653131093898974, 0.25520892925877015, 0.688885549554012, -0.5665983837137176]

>  <energy>  (4) 
-835.7922688085222

>  <inter_energy>  (4) 
-856.4654092983116

>  <intra_energy>  (4) 
27.253944955048535

>  <rmsd>  (4) 
9.95081

>  <sdf_rank>  (4) 
0

$$$$

     RDKit          3D

 53 57  0  0  0  0  0  0  0  0999 V2000
   28.6544  -14.9466   -4.0115 C   0  0  0  0  0  0  0  0  0  0  0  0
   27.7059  -13.9166   -3.8761 C   0  0  0  0  0  0  0  0  0  0  0  0
   21.2184  -19.2034    1.0990 C   0  0  0  0  0  0  0  0  0  0  0  0
   26.5142  -14.2081   -3.1506 C   0  0  0  0  0  0  0  0  0  0  0  0
   27.6502  -12.5561   -4.3249 C   0  0  0  0  0  0  0  0  0  0  0  0
   26.5111  -11.9163   -3.9543 C   0  0  0  0  0  0  0  0  0  0  0  0
   21.5478  -19.0771   -0.4078 C   0  0  2  0  0  0  0  0  0  0  0  0
   19.2633  -20.3465    2.3118 C   0  0  0  0  0  0  0  0  0  0  0  0
   17.1201  -20.6924    3.3263 C   0  0  0  0  0  0  0  0  0  0  0  0
   17.6179  -20.3449    4.5622 C   0  0  0  0  0  0  0  0  0  0  0  0
   20.1891  -20.3370    1.1103 C   0  0  1  0  0  0  0  0  0  0  0  0
   18.9411  -19.9963    4.6778 C   0  0  0  0  0  0  0  0  0  0  0  0
   19.7536  -19.9971    3.5629 C   0  0  0  0  0  0  0  0  0  0  0  0
   24.0252  -17.5259   -0.4157 C   0  0  0  0  0  0  0  0  0  0  0  0
   25.1180  -17.2759   -1.4599 C   0  0  0  0  0  0  0  0  0  0  0  0
   23.8752  -15.3540   -2.3084 C   0  0  0  0  0  0  0  0  0  0  0  0
   22.8361  -15.5367   -1.2117 C   0  0  0  0  0  0  0  0  0  0  0  0
   26.3152  -15.4978   -2.5965 C   0  0  0  0  0  0  0  0  0  0  0  0
   28.3816  -16.1729   -3.4378 C   0  0  0  0  0  0  0  0  0  0  0  0
   19.4534  -20.1295   -0.2248 C   0  0  0  0  0  0  0  0  0  0  0  0
   21.5704  -17.6046   -0.7920 C   0  0  0  0  0  0  0  0  0  0  0  0
   17.9218  -20.6985    2.2007 C   0  0  0  0  0  0  0  0  0  0  0  0
   20.5227  -19.8085   -1.1935 N   0  0  0  0  0  0  0  0  0  0  0  0
   22.7495  -16.9473   -0.8411 N   0  0  0  0  0  0  0  0  0  0  0  0
   25.1753  -15.8657   -1.8675 N   0  0  0  0  0  0  0  0  0  0  0  0
   27.2572  -16.4521   -2.7517 N   0  0  0  0  0  0  0  0  0  0  0  0
   20.5162  -17.0387   -1.0510 O   0  0  0  0  0  0  0  0  0  0  0  0
   25.4214  -12.8883   -3.0443 S   0  0  0  0  0  0  0  0  0  0  0  0
   15.4428  -21.1331    3.1794 Cl  0  0  0  0  0  0  0  0  0  0  0  0
   29.5920  -14.7791   -4.5617 H   0  0  0  0  0  0  0  0  0  0  0  0
   22.1123  -19.4704    1.6818 H   0  0  0  0  0  0  0  0  0  0  0  0
   20.8525  -18.2698    1.5511 H   0  0  0  0  0  0  0  0  0  0  0  0
   28.4496  -12.0785   -4.9105 H   0  0  0  0  0  0  0  0  0  0  0  0
   26.3032  -10.8677   -4.2134 H   0  0  0  0  0  0  0  0  0  0  0  0
   22.5347  -19.5137   -0.6209 H   0  0  0  0  0  0  0  0  0  0  0  0
   16.9635  -20.3465    5.4464 H   0  0  0  0  0  0  0  0  0  0  0  0
   20.6627  -21.3254    1.2048 H   0  0  0  0  0  0  0  0  0  0  0  0
   19.3529  -19.7165    5.6587 H   0  0  0  0  0  0  0  0  0  0  0  0
   20.8117  -19.7151    3.6674 H   0  0  0  0  0  0  0  0  0  0  0  0
   23.9003  -18.6101   -0.2786 H   0  0  0  0  0  0  0  0  0  0  0  0
   24.3279  -17.0498    0.5285 H   0  0  0  0  0  0  0  0  0  0  0  0
   26.0903  -17.5621   -1.0324 H   0  0  0  0  0  0  0  0  0  0  0  0
   24.8827  -17.8782   -2.3498 H   0  0  0  0  0  0  0  0  0  0  0  0
   23.5550  -15.9025   -3.2065 H   0  0  0  0  0  0  0  0  0  0  0  0
   23.9710  -14.2820   -2.5356 H   0  0  0  0  0  0  0  0  0  0  0  0
   23.1269  -14.9450   -0.3311 H   0  0  0  0  0  0  0  0  0  0  0  0
   21.8566  -15.1972   -1.5797 H   0  0  0  0  0  0  0  0  0  0  0  0
   29.1298  -16.9716   -3.5483 H   0  0  0  0  0  0  0  0  0  0  0  0
   18.9222  -21.0457   -0.5221 H   0  0  0  0  0  0  0  0  0  0  0  0
   18.6939  -19.3361   -0.1638 H   0  0  0  0  0  0  0  0  0  0  0  0
   17.5022  -20.9797    1.2235 H   0  0  0  0  0  0  0  0  0  0  0  0
   20.1574  -19.2156   -1.9524 H   0  0  0  0  0  0  0  0  0  0  0  0
   20.9075  -20.6540   -1.6385 H   0  0  0  0  0  0  0  0  0  0  0  0
  1  2  2  0
  1 19  1  0
  2  4  1  0
  2  5  1  0
  3  7  1  0
  3 11  1  0
  4 18  2  0
  4 28  1  0
  5  6  2  0
  6 28  1  0
  7 21  1  0
  7 23  1  0
 11  8  1  0
  8 13  1  0
  8 22  2  0
  9 10  2  0
  9 22  1  0
  9 29  1  0
 10 12  1  0
 11 20  1  0
 12 13  2  0
 14 15  1  0
 14 24  1  0
 15 25  1  0
 16 17  1  0
 16 25  1  0
 17 24  1  0
 18 25  1  0
 18 26  1  0
 19 26  2  0
 20 23  1  0
 21 24  1  0
 21 27  2  0
  1 30  1  0
  3 31  1  0
  3 32  1  0
  5 33  1  0
  6 34  1  0
  7 35  1  1
 10 36  1  0
 11 37  1  6
 12 38  1  0
 13 39  1  0
 14 40  1  0
 14 41  1  0
 15 42  1  0
 15 43  1  0
 16 44  1  0
 16 45  1  0
 17 46  1  0
 17 47  1  0
 19 48  1  0
 20 49  1  0
 20 50  1  0
 22 51  1  0
 23 52  1  0
 23 53  1  0
M  CHG  1  23   1
M  END
>  <filename_input>  (5) 
7ZZW_KKW_docked.sdf

>  <pdb_id>  (5) 
7ZZW_KKW

>  <pose_rank>  (5) 
4

>  <num_atoms_heavy>  (5) 
29

>  <num_torsions>  (5) 
3

>  <pose>  (5) 
[24.02517764379113, -17.525888716039386, -0.41573833072725336, -0.16807184847892132, 0.20316479009776306, 0.233274658043937, -2.2636191253408597, -5.993104062963795, 2.877134051174652]

>  <energy>  (5) 
-971.7684795537814

>  <inter_energy>  (5) 
-1002.7011553663685

>  <intra_energy>  (5) 
26.92017836817614

>  <rmsd>  (5) 
3.21735

>  <sdf_rank>  (5) 
0

$$$$

     RDKit          3D

 53 57  0  0  0  0  0  0  0  0999 V2000
   29.8529  -16.5454   -1.8379 C   0  0  0  0  0  0  0  0  0  0  0  0
   29.6550  -17.3078   -0.6723 C   0  0  0  0  0  0  0  0  0  0  0  0
   21.1486  -19.6372    0.9478 C   0  0  0  0  0  0  0  0  0  0  0  0
   28.3156  -17.4826   -0.2176 C   0  0  0  0  0  0  0  0  0  0  0  0
   30.5387  -17.9937    0.2246 C   0  0  0  0  0  0  0  0  0  0  0  0
   29.8909  -18.6135    1.2446 C   0  0  0  0  0  0  0  0  0  0  0  0
   21.3642  -19.2775   -0.5418 C   0  0  2  0  0  0  0  0  0  0  0  0
   19.0452  -20.3864    2.2184 C   0  0  0  0  0  0  0  0  0  0  0  0
   17.0053  -20.3172    3.4739 C   0  0  0  0  0  0  0  0  0  0  0  0
   17.6998  -20.4007    4.6600 C   0  0  0  0  0  0  0  0  0  0  0  0
   19.8116  -20.3826    0.9094 C   0  0  1  0  0  0  0  0  0  0  0  0
   19.0705  -20.4771    4.6300 C   0  0  0  0  0  0  0  0  0  0  0  0
   19.7346  -20.4693    3.4209 C   0  0  0  0  0  0  0  0  0  0  0  0
   24.0478  -18.4640    0.2831 C   0  0  0  0  0  0  0  0  0  0  0  0
   25.4038  -18.4024   -0.4270 C   0  0  0  0  0  0  0  0  0  0  0  0
   24.9131  -16.1326   -1.1789 C   0  0  0  0  0  0  0  0  0  0  0  0
   23.6092  -16.1503   -0.3944 C   0  0  0  0  0  0  0  0  0  0  0  0
   27.2392  -16.8977   -0.9313 C   0  0  0  0  0  0  0  0  0  0  0  0
   28.7476  -16.0138   -2.4728 C   0  0  0  0  0  0  0  0  0  0  0  0
   19.0667  -19.6677   -0.2312 C   0  0  0  0  0  0  0  0  0  0  0  0
   21.8307  -17.8324   -0.6438 C   0  0  0  0  0  0  0  0  0  0  0  0
   17.6565  -20.3089    2.2551 C   0  0  0  0  0  0  0  0  0  0  0  0
   20.0905  -19.4708   -1.2790 N   0  0  0  0  0  0  0  0  0  0  0  0
   23.1008  -17.5175   -0.3089 N   0  0  0  0  0  0  0  0  0  0  0  0
   25.8944  -17.0236   -0.5546 N   0  0  0  0  0  0  0  0  0  0  0  0
   27.4809  -16.1768   -2.0465 N   0  0  0  0  0  0  0  0  0  0  0  0
   21.0443  -16.9767   -1.0289 O   0  0  0  0  0  0  0  0  0  0  0  0
   28.1810  -18.4245    1.2114 S   0  0  0  0  0  0  0  0  0  0  0  0
   15.2681  -20.2193    3.5118 Cl  0  0  0  0  0  0  0  0  0  0  0  0
   30.8648  -16.3766   -2.2346 H   0  0  0  0  0  0  0  0  0  0  0  0
   21.9554  -20.2841    1.3229 H   0  0  0  0  0  0  0  0  0  0  0  0
   21.1491  -18.7647    1.6177 H   0  0  0  0  0  0  0  0  0  0  0  0
   31.6313  -18.0156    0.0991 H   0  0  0  0  0  0  0  0  0  0  0  0
   30.4139  -19.1866    2.0243 H   0  0  0  0  0  0  0  0  0  0  0  0
   22.1317  -19.9293   -0.9849 H   0  0  0  0  0  0  0  0  0  0  0  0
   17.1630  -20.4062    5.6201 H   0  0  0  0  0  0  0  0  0  0  0  0
   19.9438  -21.4618    0.7426 H   0  0  0  0  0  0  0  0  0  0  0  0
   19.6387  -20.5445    5.5695 H   0  0  0  0  0  0  0  0  0  0  0  0
   20.8329  -20.5299    3.4091 H   0  0  0  0  0  0  0  0  0  0  0  0
   23.6413  -19.4823    0.1942 H   0  0  0  0  0  0  0  0  0  0  0  0
   24.1940  -18.1977    1.3404 H   0  0  0  0  0  0  0  0  0  0  0  0
   26.1345  -18.9876    0.1507 H   0  0  0  0  0  0  0  0  0  0  0  0
   25.2770  -18.8137   -1.4393 H   0  0  0  0  0  0  0  0  0  0  0  0
   24.7215  -16.4686   -2.2087 H   0  0  0  0  0  0  0  0  0  0  0  0
   25.3131  -15.1080   -1.1850 H   0  0  0  0  0  0  0  0  0  0  0  0
   23.7880  -15.7633    0.6196 H   0  0  0  0  0  0  0  0  0  0  0  0
   22.8686  -15.5191   -0.9073 H   0  0  0  0  0  0  0  0  0  0  0  0
   28.9125  -15.4200   -3.3840 H   0  0  0  0  0  0  0  0  0  0  0  0
   18.2415  -20.2907   -0.6066 H   0  0  0  0  0  0  0  0  0  0  0  0
   18.6158  -18.7189    0.0951 H   0  0  0  0  0  0  0  0  0  0  0  0
   17.0809  -20.2415    1.3202 H   0  0  0  0  0  0  0  0  0  0  0  0
   19.8716  -18.6401   -1.8471 H   0  0  0  0  0  0  0  0  0  0  0  0
   20.1372  -20.2689   -1.9284 H   0  0  0  0  0  0  0  0  0  0  0  0
  1  2  2  0
  1 19  1  0
  2  4  1  0
  2  5  1  0
  3  7  1  0
  3 11  1  0
  4 18  2  0
  4 28  1  0
  5  6  2  0
  6 28  1  0
  7 21  1  0
  7 23  1  0
 11  8  1  0
  8 13  1  0
  8 22  2  0
  9 10  2  0
  9 22  1  0
  9 29  1  0
 10 12  1  0
 11 20  1  0
 12 13  2  0
 14 15  1  0
 14 24  1  0
 15 25  1  0
 16 17  1  0
 16 25  1  0
 17 24  1  0
 18 25  1  0
 18 26  1  0
 19 26  2  0
 20 23  1  0
 21 24  1  0
 21 27  2  0
  1 30  1  0
  3 31  1  0
  3 32  1  0
  5 33  1  0
  6 34  1  0
  7 35  1  6
 10 36  1  0
 11 37  1  6
 12 38  1  0
 13 39  1  0
 14 40  1  0
 14 41  1  0
 15 42  1  0
 15 43  1  0
 16 44  1  0
 16 45  1  0
 17 46  1  0
 17 47  1  0
 19 48  1  0
 20 49  1  0
 20 50  1  0
 22 51  1  0
 23 52  1  0
 23 53  1  0
M  CHG  1  23   1
M  END
>  <filename_input>  (6) 
7ZZW_KKW_docked.sdf

>  <pdb_id>  (6) 
7ZZW_KKW

>  <pose_rank>  (6) 
5

>  <num_atoms_heavy>  (6) 
29

>  <num_torsions>  (6) 
3

>  <pose>  (6) 
[24.047772114004417, -18.464002852332516, 0.2831335748637885, -2.362508784536157, -4.736325635374994, -3.4899921490730215, -0.03472196807754299, 6.187515863371727, -3.386683379272524]

>  <energy>  (6) 
-1027.7426250933033

>  <inter_energy>  (6) 
-1051.497967250968

>  <intra_energy>  (6) 
25.41334731595406

>  <rmsd>  (6) 
1.297

>  <sdf_rank>  (6) 
0

$$$$

     RDKit          3D

 53 57  0  0  0  0  0  0  0  0999 V2000
   13.9712  -19.9765    6.0287 C   0  0  0  0  0  0  0  0  0  0  0  0
   15.0962  -19.5263    6.7433 C   0  0  0  0  0  0  0  0  0  0  0  0
   21.7940  -18.3489    0.5047 C   0  0  0  0  0  0  0  0  0  0  0  0
   16.3555  -19.5524    6.0764 C   0  0  0  0  0  0  0  0  0  0  0  0
   15.2883  -19.0157    8.0692 C   0  0  0  0  0  0  0  0  0  0  0  0
   16.5809  -18.6988    8.3388 C   0  0  0  0  0  0  0  0  0  0  0  0
   20.5691  -19.1440   -0.0074 C   0  0  2  0  0  0  0  0  0  0  0  0
   24.0299  -17.7769   -0.6237 C   0  0  0  0  0  0  0  0  0  0  0  0
   26.0482  -16.6186   -1.1956 C   0  0  0  0  0  0  0  0  0  0  0  0
   26.7581  -17.3349   -0.2579 C   0  0  0  0  0  0  0  0  0  0  0  0
   22.5465  -18.0441   -0.7935 C   0  0  1  0  0  0  0  0  0  0  0  0
   26.1063  -18.2758    0.5007 C   0  0  0  0  0  0  0  0  0  0  0  0
   24.7564  -18.4936    0.3179 C   0  0  0  0  0  0  0  0  0  0  0  0
   19.3489  -18.9018    2.6377 C   0  0  0  0  0  0  0  0  0  0  0  0
   17.9038  -18.9200    3.1460 C   0  0  0  0  0  0  0  0  0  0  0  0
   18.0124  -21.3468    3.3840 C   0  0  0  0  0  0  0  0  0  0  0  0
   19.4779  -21.3255    2.9745 C   0  0  0  0  0  0  0  0  0  0  0  0
   16.4446  -20.0211    4.7413 C   0  0  0  0  0  0  0  0  0  0  0  0
   14.1471  -20.4141    4.7307 C   0  0  0  0  0  0  0  0  0  0  0  0
   22.2447  -19.2858   -1.6504 C   0  0  0  0  0  0  0  0  0  0  0  0
   20.3500  -20.3549    0.8883 C   0  0  0  0  0  0  0  0  0  0  0  0
   24.6957  -16.8251   -1.3898 C   0  0  0  0  0  0  0  0  0  0  0  0
   20.8136  -19.5660   -1.4093 N   0  0  0  0  0  0  0  0  0  0  0  0
   19.7250  -20.2002    2.0758 N   0  0  0  0  0  0  0  0  0  0  0  0
   17.6415  -20.0766    4.0129 N   0  0  0  0  0  0  0  0  0  0  0  0
   15.3350  -20.4402    4.0972 N   0  0  0  0  0  0  0  0  0  0  0  0
   20.7451  -21.4522    0.5164 O   0  0  0  0  0  0  0  0  0  0  0  0
   17.6638  -18.9863    7.0330 S   0  0  0  0  0  0  0  0  0  0  0  0
   26.8744  -15.4268   -2.1581 Cl  0  0  0  0  0  0  0  0  0  0  0  0
   12.9741  -19.9798    6.4932 H   0  0  0  0  0  0  0  0  0  0  0  0
   21.4850  -17.4239    1.0134 H   0  0  0  0  0  0  0  0  0  0  0  0
   22.3959  -18.8941    1.2468 H   0  0  0  0  0  0  0  0  0  0  0  0
   14.4708  -18.8930    8.7950 H   0  0  0  0  0  0  0  0  0  0  0  0
   16.9074  -18.2934    9.3079 H   0  0  0  0  0  0  0  0  0  0  0  0
   19.6669  -18.5153    0.0204 H   0  0  0  0  0  0  0  0  0  0  0  0
   27.8343  -17.1555   -0.1183 H   0  0  0  0  0  0  0  0  0  0  0  0
   22.2163  -17.1002   -1.2517 H   0  0  0  0  0  0  0  0  0  0  0  0
   26.6602  -18.8555    1.2538 H   0  0  0  0  0  0  0  0  0  0  0  0
   24.2450  -19.2505    0.9306 H   0  0  0  0  0  0  0  0  0  0  0  0
   19.4464  -18.1312    1.8588 H   0  0  0  0  0  0  0  0  0  0  0  0
   20.0151  -18.6808    3.4847 H   0  0  0  0  0  0  0  0  0  0  0  0
   17.7160  -17.9984    3.7164 H   0  0  0  0  0  0  0  0  0  0  0  0
   17.2370  -18.9900    2.2739 H   0  0  0  0  0  0  0  0  0  0  0  0
   17.3887  -21.5058    2.4920 H   0  0  0  0  0  0  0  0  0  0  0  0
   17.8542  -22.1625    4.1048 H   0  0  0  0  0  0  0  0  0  0  0  0
   20.1061  -21.2211    3.8714 H   0  0  0  0  0  0  0  0  0  0  0  0
   19.7237  -22.2643    2.4566 H   0  0  0  0  0  0  0  0  0  0  0  0
   13.2613  -20.7633    4.1799 H   0  0  0  0  0  0  0  0  0  0  0  0
   22.4254  -19.0762   -2.7150 H   0  0  0  0  0  0  0  0  0  0  0  0
   22.8870  -20.1396   -1.3886 H   0  0  0  0  0  0  0  0  0  0  0  0
   24.1492  -16.2410   -2.1448 H   0  0  0  0  0  0  0  0  0  0  0  0
   20.6173  -20.5706   -1.5242 H   0  0  0  0  0  0  0  0  0  0  0  0
   20.2050  -19.0681   -2.0745 H   0  0  0  0  0  0  0  0  0  0  0  0
  1  2  2  0
  1 19  1  0
  2  4  1  0
  2  5  1  0
  3  7  1  0
  3 11  1  0
  4 18  2  0
  4 28  1  0
  5  6  2  0
  6 28  1  0
  7 21  1  0
  7 23  1  0
 11  8  1  0
  8 13  1  0
  8 22  2  0
  9 10  2  0
  9 22  1  0
  9 29  1  0
 10 12  1  0
 11 20  1  0
 12 13  2  0
 14 15  1  0
 14 24  1  0
 15 25  1  0
 16 17  1  0
 16 25  1  0
 17 24  1  0
 18 25  1  0
 18 26  1  0
 19 26  2  0
 20 23  1  0
 21 24  1  0
 21 27  2  0
  1 30  1  0
  3 31  1  0
  3 32  1  0
  5 33  1  0
  6 34  1  0
  7 35  1  6
 10 36  1  0
 11 37  1  6
 12 38  1  0
 13 39  1  0
 14 40  1  0
 14 41  1  0
 15 42  1  0
 15 43  1  0
 16 44  1  0
 16 45  1  0
 17 46  1  0
 17 47  1  0
 19 48  1  0
 20 49  1  0
 20 50  1  0
 22 51  1  0
 23 52  1  0
 23 53  1  0
M  CHG  1  23   1
M  END
>  <filename_input>  (7) 
7ZZW_KKW_docked.sdf

>  <pdb_id>  (7) 
7ZZW_KKW

>  <pose_rank>  (7) 
6

>  <num_atoms_heavy>  (7) 
29

>  <num_torsions>  (7) 
3

>  <pose>  (7) 
[19.34893178228953, -18.90175518009781, 2.6376645049829333, -1.2898654937443204, -0.7571657064950029, -2.884703691892145, 11.85443876156753, 6.274812409801885, -8.393365209293071]

>  <energy>  (7) 
-721.8545475266845

>  <inter_energy>  (7) 
-723.2368693697691

>  <intra_energy>  (7) 
8.827247591960637

>  <rmsd>  (7) 
10.3625

>  <sdf_rank>  (7) 
0

$$$$

     RDKit          3D

 53 57  0  0  0  0  0  0  0  0999 V2000
   14.2715  -20.2779    5.7486 C   0  0  0  0  0  0  0  0  0  0  0  0
   15.3763  -19.8506    6.5074 C   0  0  0  0  0  0  0  0  0  0  0  0
   22.5795  -18.2540    0.8707 C   0  0  0  0  0  0  0  0  0  0  0  0
   16.6497  -19.8338    5.8674 C   0  0  0  0  0  0  0  0  0  0  0  0
   15.5348  -19.4002    7.8593 C   0  0  0  0  0  0  0  0  0  0  0  0
   16.8181  -19.0838    8.1711 C   0  0  0  0  0  0  0  0  0  0  0  0
   21.2014  -18.6120    0.2643 C   0  0  2  0  0  0  0  0  0  0  0  0
   24.8392  -17.7557   -0.2452 C   0  0  0  0  0  0  0  0  0  0  0  0
   27.0332  -17.0927   -0.9446 C   0  0  0  0  0  0  0  0  0  0  0  0
   27.6122  -17.9295   -0.0168 C   0  0  0  0  0  0  0  0  0  0  0  0
   23.3269  -17.6869   -0.3394 C   0  0  1  0  0  0  0  0  0  0  0  0
   26.8066  -18.6833    0.8006 C   0  0  0  0  0  0  0  0  0  0  0  0
   25.4346  -18.5965    0.6857 C   0  0  0  0  0  0  0  0  0  0  0  0
   19.8981  -18.9798    2.8546 C   0  0  0  0  0  0  0  0  0  0  0  0
   18.4406  -18.9400    3.3250 C   0  0  0  0  0  0  0  0  0  0  0  0
   18.2125  -21.3208    2.8371 C   0  0  0  0  0  0  0  0  0  0  0  0
   19.6857  -21.3893    2.4622 C   0  0  0  0  0  0  0  0  0  0  0  0
   16.7720  -20.2393    4.5143 C   0  0  0  0  0  0  0  0  0  0  0  0
   14.4795  -20.6533    4.4359 C   0  0  0  0  0  0  0  0  0  0  0  0
   22.7501  -18.5132   -1.5019 C   0  0  0  0  0  0  0  0  0  0  0  0
   20.7795  -19.9873    0.7614 C   0  0  0  0  0  0  0  0  0  0  0  0
   25.6606  -16.9946   -1.0709 C   0  0  0  0  0  0  0  0  0  0  0  0
   21.3022  -18.5977   -1.2165 N   0  0  0  0  0  0  0  0  0  0  0  0
   20.1240  -20.0981    1.9372 N   0  0  0  0  0  0  0  0  0  0  0  0
   17.9846  -20.2495    3.8102 N   0  0  0  0  0  0  0  0  0  0  0  0
   15.6807  -20.6387    3.8277 N   0  0  0  0  0  0  0  0  0  0  0  0
   21.0421  -20.9733    0.0849 O   0  0  0  0  0  0  0  0  0  0  0  0
   17.9314  -19.3001    6.8771 S   0  0  0  0  0  0  0  0  0  0  0  0
   28.0541  -16.1379   -1.9815 Cl  0  0  0  0  0  0  0  0  0  0  0  0
   13.2649  -20.3123    6.1907 H   0  0  0  0  0  0  0  0  0  0  0  0
   22.4815  -17.5020    1.6675 H   0  0  0  0  0  0  0  0  0  0  0  0
   23.0885  -19.1062    1.3448 H   0  0  0  0  0  0  0  0  0  0  0  0
   14.7010  -19.3190    8.5721 H   0  0  0  0  0  0  0  0  0  0  0  0
   17.1197  -18.7206    9.1647 H   0  0  0  0  0  0  0  0  0  0  0  0
   20.4449  -17.8761    0.5744 H   0  0  0  0  0  0  0  0  0  0  0  0
   28.7071  -17.9932    0.0684 H   0  0  0  0  0  0  0  0  0  0  0  0
   23.1745  -16.6031   -0.4495 H   0  0  0  0  0  0  0  0  0  0  0  0
   27.2549  -19.3561    1.5465 H   0  0  0  0  0  0  0  0  0  0  0  0
   24.7992  -19.2059    1.3452 H   0  0  0  0  0  0  0  0  0  0  0  0
   20.1351  -18.0378    2.3384 H   0  0  0  0  0  0  0  0  0  0  0  0
   20.5460  -19.1119    3.7337 H   0  0  0  0  0  0  0  0  0  0  0  0
   18.3502  -18.2075    4.1407 H   0  0  0  0  0  0  0  0  0  0  0  0
   17.8134  -18.6577    2.4665 H   0  0  0  0  0  0  0  0  0  0  0  0
   17.6169  -21.1230    1.9336 H   0  0  0  0  0  0  0  0  0  0  0  0
   17.9121  -22.2799    3.2840 H   0  0  0  0  0  0  0  0  0  0  0  0
   20.2781  -21.6408    3.3543 H   0  0  0  0  0  0  0  0  0  0  0  0
   19.8287  -22.1616    1.6920 H   0  0  0  0  0  0  0  0  0  0  0  0
   13.6093  -20.9850    3.8505 H   0  0  0  0  0  0  0  0  0  0  0  0
   22.9277  -18.0083   -2.4629 H   0  0  0  0  0  0  0  0  0  0  0  0
   23.2183  -19.5054   -1.5812 H   0  0  0  0  0  0  0  0  0  0  0  0
   25.2203  -16.3193   -1.8193 H   0  0  0  0  0  0  0  0  0  0  0  0
   20.9048  -19.4605   -1.6146 H   0  0  0  0  0  0  0  0  0  0  0  0
   20.7801  -17.8129   -1.6318 H   0  0  0  0  0  0  0  0  0  0  0  0
  1  2  2  0
  1 19  1  0
  2  4  1  0
  2  5  1  0
  3  7  1  0
  3 11  1  0
  4 18  2  0
  4 28  1  0
  5  6  2  0
  6 28  1  0
  7 21  1  0
  7 23  1  0
 11  8  1  0
  8 13  1  0
  8 22  2  0
  9 10  2  0
  9 22  1  0
  9 29  1  0
 10 12  1  0
 11 20  1  0
 12 13  2  0
 14 15  1  0
 14 24  1  0
 15 25  1  0
 16 17  1  0
 16 25  1  0
 17 24  1  0
 18 25  1  0
 18 26  1  0
 19 26  2  0
 20 23  1  0
 21 24  1  0
 21 27  2  0
  1 30  1  0
  3 31  1  0
  3 32  1  0
  5 33  1  0
  6 34  1  0
  7 35  1  6
 10 36  1  0
 11 37  1  6
 12 38  1  0
 13 39  1  0
 14 40  1  0
 14 41  1  0
 15 42  1  0
 15 43  1  0
 16 44  1  0
 16 45  1  0
 17 46  1  0
 17 47  1  0
 19 48  1  0
 20 49  1  0
 20 50  1  0
 22 51  1  0
 23 52  1  0
 23 53  1  0
M  CHG  1  23   1
M  END
>  <filename_input>  (8) 
7ZZW_KKW_docked.sdf

>  <pdb_id>  (8) 
7ZZW_KKW

>  <pose_rank>  (8) 
7

>  <num_atoms_heavy>  (8) 
29

>  <num_torsions>  (8) 
3

>  <pose>  (8) 
[19.898083848076503, -18.979825462888307, 2.854615482260545, -1.3156332506365527, -0.22654590521070833, -2.9746023505899877, 12.148158814828347, 6.389349299869006, -8.744455578747697]

>  <energy>  (8) 
-661.9270056727515

>  <inter_energy>  (8) 
-668.8172329029546

>  <intra_energy>  (8) 
8.39557782851892

>  <rmsd>  (8) 
10.2991

>  <sdf_rank>  (8) 
0

$$$$

     RDKit          3D

 53 57  0  0  0  0  0  0  0  0999 V2000
   29.5374  -16.1592   -2.2159 C   0  0  0  0  0  0  0  0  0  0  0  0
   29.4489  -16.9976   -1.0898 C   0  0  0  0  0  0  0  0  0  0  0  0
   21.1253  -19.7543    1.0001 C   0  0  0  0  0  0  0  0  0  0  0  0
   28.1514  -17.2553   -0.5593 C   0  0  0  0  0  0  0  0  0  0  0  0
   30.4172  -17.6985   -0.2981 C   0  0  0  0  0  0  0  0  0  0  0  0
   29.8647  -18.4049    0.7217 C   0  0  0  0  0  0  0  0  0  0  0  0
   21.2896  -19.3540   -0.4858 C   0  0  2  0  0  0  0  0  0  0  0  0
   19.0912  -20.6363    2.2979 C   0  0  0  0  0  0  0  0  0  0  0  0
   17.0806  -20.6287    3.6016 C   0  0  0  0  0  0  0  0  0  0  0  0
   17.8017  -20.7737    4.7657 C   0  0  0  0  0  0  0  0  0  0  0  0
   19.8276  -20.5666    0.9737 C   0  0  1  0  0  0  0  0  0  0  0  0
   19.1711  -20.8502    4.7005 C   0  0  0  0  0  0  0  0  0  0  0  0
   19.8076  -20.7814    3.4785 C   0  0  0  0  0  0  0  0  0  0  0  0
   23.9792  -18.4347    0.1960 C   0  0  0  0  0  0  0  0  0  0  0  0
   25.2820  -18.2834   -0.5958 C   0  0  0  0  0  0  0  0  0  0  0  0
   24.6362  -16.0181   -1.2359 C   0  0  0  0  0  0  0  0  0  0  0  0
   23.3882  -16.1254   -0.3718 C   0  0  0  0  0  0  0  0  0  0  0  0
   27.0072  -16.6742   -1.1622 C   0  0  0  0  0  0  0  0  0  0  0  0
   28.3720  -15.6371   -2.7418 C   0  0  0  0  0  0  0  0  0  0  0  0
   19.0223  -19.8682   -0.1358 C   0  0  0  0  0  0  0  0  0  0  0  0
   21.6793  -17.8849   -0.5667 C   0  0  0  0  0  0  0  0  0  0  0  0
   17.7039  -20.5590    2.3702 C   0  0  0  0  0  0  0  0  0  0  0  0
   20.0116  -19.5978   -1.2002 N   0  0  0  0  0  0  0  0  0  0  0  0
   22.9520  -17.5181   -0.3019 N   0  0  0  0  0  0  0  0  0  0  0  0
   25.6971  -16.8785   -0.7060 N   0  0  0  0  0  0  0  0  0  0  0  0
   27.1445  -15.8782   -2.2436 N   0  0  0  0  0  0  0  0  0  0  0  0
   20.8299  -17.0577   -0.8714 O   0  0  0  0  0  0  0  0  0  0  0  0
   28.1507  -18.2860    0.8136 S   0  0  0  0  0  0  0  0  0  0  0  0
   15.3449  -20.5305    3.6841 Cl  0  0  0  0  0  0  0  0  0  0  0  0
   30.5127  -15.9247   -2.6673 H   0  0  0  0  0  0  0  0  0  0  0  0
   21.9720  -20.3662    1.3444 H   0  0  0  0  0  0  0  0  0  0  0  0
   21.0958  -18.8966    1.6881 H   0  0  0  0  0  0  0  0  0  0  0  0
   31.4987  -17.6671   -0.4966 H   0  0  0  0  0  0  0  0  0  0  0  0
   30.4613  -19.0013    1.4277 H   0  0  0  0  0  0  0  0  0  0  0  0
   22.0795  -19.9562   -0.9584 H   0  0  0  0  0  0  0  0  0  0  0  0
   17.2868  -20.8275    5.7363 H   0  0  0  0  0  0  0  0  0  0  0  0
   20.0110  -21.6340    0.7812 H   0  0  0  0  0  0  0  0  0  0  0  0
   19.7603  -20.9662    5.6221 H   0  0  0  0  0  0  0  0  0  0  0  0
   20.9051  -20.8428    3.4385 H   0  0  0  0  0  0  0  0  0  0  0  0
   23.6167  -19.4686    0.0976 H   0  0  0  0  0  0  0  0  0  0  0  0
   24.1807  -18.1951    1.2505 H   0  0  0  0  0  0  0  0  0  0  0  0
   26.0755  -18.8495   -0.0860 H   0  0  0  0  0  0  0  0  0  0  0  0
   25.1096  -18.6682   -1.6117 H   0  0  0  0  0  0  0  0  0  0  0  0
   24.3946  -16.3304   -2.2626 H   0  0  0  0  0  0  0  0  0  0  0  0
   24.9858  -14.9752   -1.2315 H   0  0  0  0  0  0  0  0  0  0  0  0
   23.6137  -15.7622    0.6418 H   0  0  0  0  0  0  0  0  0  0  0  0
   22.5868  -15.5158   -0.8146 H   0  0  0  0  0  0  0  0  0  0  0  0
   28.4516  -14.9833   -3.6228 H   0  0  0  0  0  0  0  0  0  0  0  0
   18.2221  -20.5253   -0.5072 H   0  0  0  0  0  0  0  0  0  0  0  0
   18.5308  -18.9507    0.2199 H   0  0  0  0  0  0  0  0  0  0  0  0
   17.1072  -20.4431    1.4534 H   0  0  0  0  0  0  0  0  0  0  0  0
   19.7382  -18.7681   -1.7459 H   0  0  0  0  0  0  0  0  0  0  0  0
   20.0848  -20.3792   -1.8673 H   0  0  0  0  0  0  0  0  0  0  0  0
  1  2  2  0
  1 19  1  0
  2  4  1  0
  2  5  1  0
  3  7  1  0
  3 11  1  0
  4 18  2  0
  4 28  1  0
  5  6  2  0
  6 28  1  0
  7 21  1  0
  7 23  1  0
 11  8  1  0
  8 13  1  0
  8 22  2  0
  9 10  2  0
  9 22  1  0
  9 29  1  0
 10 12  1  0
 11 20  1  0
 12 13  2  0
 14 15  1  0
 14 24  1  0
 15 25  1  0
 16 17  1  0
 16 25  1  0
 17 24  1  0
 18 25  1  0
 18 26  1  0
 19 26  2  0
 20 23  1  0
 21 24  1  0
 21 27  2  0
  1 30  1  0
  3 31  1  0
  3 32  1  0
  5 33  1  0
  6 34  1  0
  7 35  1  6
 10 36  1  0
 11 37  1  6
 12 38  1  0
 13 39  1  0
 14 40  1  0
 14 41  1  0
 15 42  1  0
 15 43  1  0
 16 44  1  0
 16 45  1  0
 17 46  1  0
 17 47  1  0
 19 48  1  0
 20 49  1  0
 20 50  1  0
 22 51  1  0
 23 52  1  0
 23 53  1  0
M  CHG  1  23   1
M  END
>  <filename_input>  (9) 
7ZZW_KKW_docked.sdf

>  <pdb_id>  (9) 
7ZZW_KKW

>  <pose_rank>  (9) 
8

>  <num_atoms_heavy>  (9) 
29

>  <num_torsions>  (9) 
3

>  <pose>  (9) 
[23.97920200916661, -18.434683439357592, 0.19598503528332978, 2.528653519422807, 4.505363491212214, 3.628749504950332, -0.005011649052323937, 6.232048818133369, -3.4480230945333705]

>  <energy>  (9) 
-1038.9742936097798

>  <inter_energy>  (9) 
-1056.0851935399508

>  <intra_energy>  (9) 
25.04085889128645

>  <rmsd>  (9) 
1.25909

>  <sdf_rank>  (9) 
0

$$$$

     RDKit          3D

 53 57  0  0  0  0  0  0  0  0999 V2000
   28.9039  -11.2036   -6.6964 C   0  0  0  0  0  0  0  0  0  0  0  0
   29.1398  -12.5904   -6.6974 C   0  0  0  0  0  0  0  0  0  0  0  0
   26.6247  -17.6200   -1.5054 C   0  0  0  0  0  0  0  0  0  0  0  0
   28.5641  -13.3586   -5.6439 C   0  0  0  0  0  0  0  0  0  0  0  0
   29.8701  -13.4703   -7.5624 C   0  0  0  0  0  0  0  0  0  0  0  0
   29.8261  -14.7685   -7.1664 C   0  0  0  0  0  0  0  0  0  0  0  0
   25.0949  -17.4428   -1.3539 C   0  0  2  0  0  0  0  0  0  0  0  0
   28.3694  -18.6625    0.0660 C   0  0  0  0  0  0  0  0  0  0  0  0
   30.6940  -18.1392   -0.1885 C   0  0  0  0  0  0  0  0  0  0  0  0
   30.9808  -18.6879    1.0414 C   0  0  0  0  0  0  0  0  0  0  0  0
   26.9363  -18.6656   -0.4311 C   0  0  1  0  0  0  0  0  0  0  0  0
   29.9626  -19.2266    1.7888 C   0  0  0  0  0  0  0  0  0  0  0  0
   28.6710  -19.2137    1.3042 C   0  0  0  0  0  0  0  0  0  0  0  0
   27.0675  -15.4359   -2.1444 C   0  0  0  0  0  0  0  0  0  0  0  0
   27.4938  -14.8382   -3.4891 C   0  0  0  0  0  0  0  0  0  0  0  0
   25.7803  -13.1135   -3.2716 C   0  0  0  0  0  0  0  0  0  0  0  0
   25.4179  -13.6417   -1.8913 C   0  0  0  0  0  0  0  0  0  0  0  0
   27.7870  -12.7238   -4.6423 C   0  0  0  0  0  0  0  0  0  0  0  0
   28.1329  -10.6673   -5.6838 C   0  0  0  0  0  0  0  0  0  0  0  0
   25.9100  -18.3303    0.6648 C   0  0  0  0  0  0  0  0  0  0  0  0
   24.7581  -15.9590   -1.3915 C   0  0  0  0  0  0  0  0  0  0  0  0
   29.4053  -18.1184   -0.6869 C   0  0  0  0  0  0  0  0  0  0  0  0
   24.6592  -18.0471   -0.0701 N   0  0  0  0  0  0  0  0  0  0  0  0
   25.6850  -15.0767   -1.8240 N   0  0  0  0  0  0  0  0  0  0  0  0
   27.1836  -13.4049   -3.5754 N   0  0  0  0  0  0  0  0  0  0  0  0
   27.5872  -11.3896   -4.6870 N   0  0  0  0  0  0  0  0  0  0  0  0
   23.6493  -15.5888   -1.0280 O   0  0  0  0  0  0  0  0  0  0  0  0
   28.9121  -15.0373   -5.7336 S   0  0  0  0  0  0  0  0  0  0  0  0
   31.9846  -17.4574   -1.1364 Cl  0  0  0  0  0  0  0  0  0  0  0  0
   29.3239  -10.5609   -7.4841 H   0  0  0  0  0  0  0  0  0  0  0  0
   26.8863  -17.9882   -2.5084 H   0  0  0  0  0  0  0  0  0  0  0  0
   27.1916  -16.6845   -1.3891 H   0  0  0  0  0  0  0  0  0  0  0  0
   30.4115  -13.1282   -8.4568 H   0  0  0  0  0  0  0  0  0  0  0  0
   30.3309  -15.5779   -7.7140 H   0  0  0  0  0  0  0  0  0  0  0  0
   24.5686  -17.9462   -2.1783 H   0  0  0  0  0  0  0  0  0  0  0  0
   32.0133  -18.6946    1.4208 H   0  0  0  0  0  0  0  0  0  0  0  0
   26.8520  -19.6926   -0.8161 H   0  0  0  0  0  0  0  0  0  0  0  0
   30.1766  -19.6682    2.7732 H   0  0  0  0  0  0  0  0  0  0  0  0
   27.8636  -19.6490    1.9112 H   0  0  0  0  0  0  0  0  0  0  0  0
   27.1517  -16.5315   -2.1952 H   0  0  0  0  0  0  0  0  0  0  0  0
   27.7245  -15.0344   -1.3589 H   0  0  0  0  0  0  0  0  0  0  0  0
   28.5784  -14.9751   -3.6111 H   0  0  0  0  0  0  0  0  0  0  0  0
   26.9363  -15.3557   -4.2837 H   0  0  0  0  0  0  0  0  0  0  0  0
   25.1385  -13.5948   -4.0243 H   0  0  0  0  0  0  0  0  0  0  0  0
   25.6293  -12.0240   -3.2887 H   0  0  0  0  0  0  0  0  0  0  0  0
   26.0206  -13.1222   -1.1318 H   0  0  0  0  0  0  0  0  0  0  0  0
   24.3491  -13.4623   -1.7031 H   0  0  0  0  0  0  0  0  0  0  0  0
   27.9533   -9.5821   -5.6921 H   0  0  0  0  0  0  0  0  0  0  0  0
   25.7758  -19.1839    1.3455 H   0  0  0  0  0  0  0  0  0  0  0  0
   26.2282  -17.4823    1.2891 H   0  0  0  0  0  0  0  0  0  0  0  0
   29.1998  -17.6747   -1.6723 H   0  0  0  0  0  0  0  0  0  0  0  0
   24.0702  -17.3880    0.4586 H   0  0  0  0  0  0  0  0  0  0  0  0
   24.0952  -18.8968   -0.2147 H   0  0  0  0  0  0  0  0  0  0  0  0
  1  2  2  0
  1 19  1  0
  2  4  1  0
  2  5  1  0
  3  7  1  0
  3 11  1  0
  4 18  2  0
  4 28  1  0
  5  6  2  0
  6 28  1  0
  7 21  1  0
  7 23  1  0
 11  8  1  0
  8 13  1  0
  8 22  2  0
  9 10  2  0
  9 22  1  0
  9 29  1  0
 10 12  1  0
 11 20  1  0
 12 13  2  0
 14 15  1  0
 14 24  1  0
 15 25  1  0
 16 17  1  0
 16 25  1  0
 17 24  1  0
 18 25  1  0
 18 26  1  0
 19 26  2  0
 20 23  1  0
 21 24  1  0
 21 27  2  0
  1 30  1  0
  3 31  1  0
  3 32  1  0
  5 33  1  0
  6 34  1  0
  7 35  1  6
 10 36  1  0
 11 37  1  6
 12 38  1  0
 13 39  1  0
 14 40  1  0
 14 41  1  0
 15 42  1  0
 15 43  1  0
 16 44  1  0
 16 45  1  0
 17 46  1  0
 17 47  1  0
 19 48  1  0
 20 49  1  0
 20 50  1  0
 22 51  1  0
 23 52  1  0
 23 53  1  0
M  CHG  1  23   1
M  END
>  <filename_input>  (10) 
7ZZW_KKW_docked.sdf

>  <pdb_id>  (10) 
7ZZW_KKW

>  <pose_rank>  (10) 
9

>  <num_atoms_heavy>  (10) 
29

>  <num_torsions>  (10) 
3

>  <pose>  (10) 
[27.06752752523899, -15.435942576638443, -2.144412983338403, 0.05139366577441102, 0.6488947298146444, 0.456527361192895, 1.0319342384104646, -7.435438854986219, 37.70900016461417]

>  <energy>  (10) 
-182.27347605659895

>  <inter_energy>  (10) 
-296.64266441572113

>  <intra_energy>  (10) 
114.66926132403097

>  <rmsd>  (10) 
8.19394

>  <sdf_rank>  (10) 
0

$$$$

     RDKit          3D

 53 57  0  0  0  0  0  0  0  0999 V2000
   24.9955  -14.6753   -3.2560 C   0  0  0  0  0  0  0  0  0  0  0  0
   24.3062  -15.1935   -2.1446 C   0  0  0  0  0  0  0  0  0  0  0  0
   31.7240  -21.4817    0.2345 C   0  0  0  0  0  0  0  0  0  0  0  0
   25.0355  -16.0227   -1.2435 C   0  0  0  0  0  0  0  0  0  0  0  0
   22.9567  -15.0783   -1.6741 C   0  0  0  0  0  0  0  0  0  0  0  0
   22.7291  -15.7682   -0.5268 C   0  0  0  0  0  0  0  0  0  0  0  0
   31.1749  -20.0450    0.4055 C   0  0  2  0  0  0  0  0  0  0  0  0
   32.8161  -22.6454   -1.7788 C   0  0  0  0  0  0  0  0  0  0  0  0
   33.3252  -24.9858   -1.8549 C   0  0  0  0  0  0  0  0  0  0  0  0
   33.2238  -24.9917   -3.2281 C   0  0  0  0  0  0  0  0  0  0  0  0
   32.5862  -21.3499   -1.0241 C   0  0  1  0  0  0  0  0  0  0  0  0
   32.9184  -23.8237   -3.8825 C   0  0  0  0  0  0  0  0  0  0  0  0
   32.7176  -22.6636   -3.1637 C   0  0  0  0  0  0  0  0  0  0  0  0
   29.4494  -17.6928    0.2235 C   0  0  0  0  0  0  0  0  0  0  0  0
   28.6389  -17.0557   -0.9098 C   0  0  0  0  0  0  0  0  0  0  0  0
   26.7235  -18.4548   -0.3338 C   0  0  0  0  0  0  0  0  0  0  0  0
   27.4885  -19.0202    0.8540 C   0  0  0  0  0  0  0  0  0  0  0  0
   26.4050  -16.3013   -1.4820 C   0  0  0  0  0  0  0  0  0  0  0  0
   26.3301  -14.9949   -3.4110 C   0  0  0  0  0  0  0  0  0  0  0  0
   31.8198  -20.2957   -1.8415 C   0  0  0  0  0  0  0  0  0  0  0  0
   29.6892  -20.1137    0.7287 C   0  0  0  0  0  0  0  0  0  0  0  0
   33.1262  -23.8317   -1.1212 C   0  0  0  0  0  0  0  0  0  0  0  0
   31.4043  -19.2834   -0.8478 N   0  0  0  0  0  0  0  0  0  0  0  0
   28.9216  -19.0138    0.5690 N   0  0  0  0  0  0  0  0  0  0  0  0
   27.1946  -17.1030   -0.6453 N   0  0  0  0  0  0  0  0  0  0  0  0
   27.0226  -15.7777   -2.5620 N   0  0  0  0  0  0  0  0  0  0  0  0
   29.2133  -21.1680    1.1295 O   0  0  0  0  0  0  0  0  0  0  0  0
   24.1056  -16.6060    0.0764 S   0  0  0  0  0  0  0  0  0  0  0  0
   33.7134  -26.4658   -1.0254 Cl  0  0  0  0  0  0  0  0  0  0  0  0
   24.4832  -14.0303   -3.9850 H   0  0  0  0  0  0  0  0  0  0  0  0
   32.3286  -21.7837    1.1024 H   0  0  0  0  0  0  0  0  0  0  0  0
   30.9391  -22.2481    0.1541 H   0  0  0  0  0  0  0  0  0  0  0  0
   22.1836  -14.4904   -2.1905 H   0  0  0  0  0  0  0  0  0  0  0  0
   21.7497  -15.7895   -0.0265 H   0  0  0  0  0  0  0  0  0  0  0  0
   31.6933  -19.5337    1.2299 H   0  0  0  0  0  0  0  0  0  0  0  0
   33.3856  -25.9209   -3.7942 H   0  0  0  0  0  0  0  0  0  0  0  0
   33.6209  -21.0599   -0.7887 H   0  0  0  0  0  0  0  0  0  0  0  0
   32.8339  -23.8132   -4.9792 H   0  0  0  0  0  0  0  0  0  0  0  0
   32.4744  -21.7337   -3.6986 H   0  0  0  0  0  0  0  0  0  0  0  0
   30.4963  -17.7966   -0.0976 H   0  0  0  0  0  0  0  0  0  0  0  0
   29.3801  -17.0454    1.1101 H   0  0  0  0  0  0  0  0  0  0  0  0
   28.9460  -16.0051   -1.0193 H   0  0  0  0  0  0  0  0  0  0  0  0
   28.8353  -17.6248   -1.8304 H   0  0  0  0  0  0  0  0  0  0  0  0
   26.8795  -19.1039   -1.2081 H   0  0  0  0  0  0  0  0  0  0  0  0
   25.6535  -18.4117   -0.0825 H   0  0  0  0  0  0  0  0  0  0  0  0
   27.2904  -18.4033    1.7429 H   0  0  0  0  0  0  0  0  0  0  0  0
   27.1599  -20.0535    1.0388 H   0  0  0  0  0  0  0  0  0  0  0  0
   26.8607  -14.5842   -4.2827 H   0  0  0  0  0  0  0  0  0  0  0  0
   32.4723  -19.8461   -2.6044 H   0  0  0  0  0  0  0  0  0  0  0  0
   30.9635  -20.7273   -2.3805 H   0  0  0  0  0  0  0  0  0  0  0  0
   33.2123  -23.8509   -0.0248 H   0  0  0  0  0  0  0  0  0  0  0  0
   30.5386  -18.8142   -1.1496 H   0  0  0  0  0  0  0  0  0  0  0  0
   32.1135  -18.5462   -0.7276 H   0  0  0  0  0  0  0  0  0  0  0  0
  1  2  2  0
  1 19  1  0
  2  4  1  0
  2  5  1  0
  3  7  1  0
  3 11  1  0
  4 18  2  0
  4 28  1  0
  5  6  2  0
  6 28  1  0
  7 21  1  0
  7 23  1  0
 11  8  1  0
  8 13  1  0
  8 22  2  0
  9 10  2  0
  9 22  1  0
  9 29  1  0
 10 12  1  0
 11 20  1  0
 12 13  2  0
 14 15  1  0
 14 24  1  0
 15 25  1  0
 16 17  1  0
 16 25  1  0
 17 24  1  0
 18 25  1  0
 18 26  1  0
 19 26  2  0
 20 23  1  0
 21 24  1  0
 21 27  2  0
  1 30  1  0
  3 31  1  0
  3 32  1  0
  5 33  1  0
  6 34  1  0
  7 35  1  1
 10 36  1  0
 11 37  1  1
 12 38  1  0
 13 39  1  0
 14 40  1  0
 14 41  1  0
 15 42  1  0
 15 43  1  0
 16 44  1  0
 16 45  1  0
 17 46  1  0
 17 47  1  0
 19 48  1  0
 20 49  1  0
 20 50  1  0
 22 51  1  0
 23 52  1  0
 23 53  1  0
M  CHG  1  23   1
M  END
>  <filename_input>  (11) 
7ZZW_KKW_docked.sdf

>  <pdb_id>  (11) 
7ZZW_KKW

>  <pose_rank>  (11) 
10

>  <num_atoms_heavy>  (11) 
29

>  <num_torsions>  (11) 
3

>  <pose>  (11) 
[29.44937954463589, -17.692768467502844, 0.2234968962181037, 0.3289007628421863, -1.4899806728194884, -4.000604667822723, -1.9874126283719378, -4.233699295138701, -0.374610186879783]

>  <energy>  (11) 
-377.63787000082567

>  <inter_energy>  (11) 
-410.60038865063876

>  <intra_energy>  (11) 
41.81237342080158

>  <rmsd>  (11) 
10.4226

>  <sdf_rank>  (11) 
0

$$$$

     RDKit          3D

 53 57  0  0  0  0  0  0  0  0999 V2000
   23.2001  -14.9725   -1.6986 C   0  0  0  0  0  0  0  0  0  0  0  0
   24.3989  -14.4334   -2.1999 C   0  0  0  0  0  0  0  0  0  0  0  0
   31.8244  -20.1969   -1.3997 C   0  0  0  0  0  0  0  0  0  0  0  0
   25.6217  -15.0059   -1.7434 C   0  0  0  0  0  0  0  0  0  0  0  0
   24.7011  -13.3757   -3.1195 C   0  0  0  0  0  0  0  0  0  0  0  0
   26.0336  -13.1981   -3.3119 C   0  0  0  0  0  0  0  0  0  0  0  0
   31.3002  -18.8846   -0.7688 C   0  0  2  0  0  0  0  0  0  0  0  0
   32.1406  -20.8835   -3.8550 C   0  0  0  0  0  0  0  0  0  0  0  0
   32.9929  -22.9452   -4.7298 C   0  0  0  0  0  0  0  0  0  0  0  0
   32.0860  -22.9130   -5.7655 C   0  0  0  0  0  0  0  0  0  0  0  0
   32.1395  -19.7621   -2.8337 C   0  0  1  0  0  0  0  0  0  0  0  0
   31.2026  -21.8652   -5.8503 C   0  0  0  0  0  0  0  0  0  0  0  0
   31.2315  -20.8615   -4.9044 C   0  0  0  0  0  0  0  0  0  0  0  0
   29.2402  -16.8650   -0.2983 C   0  0  0  0  0  0  0  0  0  0  0  0
   27.9920  -16.4222   -1.0683 C   0  0  0  0  0  0  0  0  0  0  0  0
   26.6639  -18.0966    0.1111 C   0  0  0  0  0  0  0  0  0  0  0  0
   27.8767  -18.4740    0.9492 C   0  0  0  0  0  0  0  0  0  0  0  0
   25.6035  -16.0784   -0.8163 C   0  0  0  0  0  0  0  0  0  0  0  0
   23.2734  -16.0189   -0.8002 C   0  0  0  0  0  0  0  0  0  0  0  0
   31.0632  -18.6955   -3.1003 C   0  0  0  0  0  0  0  0  0  0  0  0
   30.0525  -19.1874    0.0485 C   0  0  0  0  0  0  0  0  0  0  0  0
   33.0335  -21.9476   -3.7745 C   0  0  0  0  0  0  0  0  0  0  0  0
   30.9968  -17.9123   -1.8485 N   0  0  0  0  0  0  0  0  0  0  0  0
   29.0997  -18.2398    0.1849 N   0  0  0  0  0  0  0  0  0  0  0  0
   26.7585  -16.6996   -0.3201 N   0  0  0  0  0  0  0  0  0  0  0  0
   24.4264  -16.5625   -0.3667 N   0  0  0  0  0  0  0  0  0  0  0  0
   29.9330  -20.2884    0.5704 O   0  0  0  0  0  0  0  0  0  0  0  0
   27.0255  -14.2773   -2.4109 S   0  0  0  0  0  0  0  0  0  0  0  0
   34.1134  -24.2727   -4.6228 Cl  0  0  0  0  0  0  0  0  0  0  0  0
   22.2266  -14.5698   -2.0150 H   0  0  0  0  0  0  0  0  0  0  0  0
   32.7276  -20.5547   -0.8837 H   0  0  0  0  0  0  0  0  0  0  0  0
   31.1117  -21.0325   -1.3378 H   0  0  0  0  0  0  0  0  0  0  0  0
   23.9311  -12.7693   -3.6189 H   0  0  0  0  0  0  0  0  0  0  0  0
   26.4432  -12.4308   -3.9853 H   0  0  0  0  0  0  0  0  0  0  0  0
   32.0615  -18.4494   -0.1047 H   0  0  0  0  0  0  0  0  0  0  0  0
   32.0694  -23.7171   -6.5160 H   0  0  0  0  0  0  0  0  0  0  0  0
   33.1684  -19.3867   -2.9360 H   0  0  0  0  0  0  0  0  0  0  0  0
   30.4724  -21.8261   -6.6720 H   0  0  0  0  0  0  0  0  0  0  0  0
   30.5197  -20.0265   -4.9830 H   0  0  0  0  0  0  0  0  0  0  0  0
   30.1135  -16.8056   -0.9645 H   0  0  0  0  0  0  0  0  0  0  0  0
   29.3705  -16.2009    0.5688 H   0  0  0  0  0  0  0  0  0  0  0  0
   28.0567  -15.3407   -1.2586 H   0  0  0  0  0  0  0  0  0  0  0  0
   27.9538  -16.9895   -2.0100 H   0  0  0  0  0  0  0  0  0  0  0  0
   26.6182  -18.7474   -0.7746 H   0  0  0  0  0  0  0  0  0  0  0  0
   25.7557  -18.2227    0.7187 H   0  0  0  0  0  0  0  0  0  0  0  0
   27.8941  -17.8614    1.8627 H   0  0  0  0  0  0  0  0  0  0  0  0
   27.8150  -19.5389    1.2179 H   0  0  0  0  0  0  0  0  0  0  0  0
   22.3306  -16.4342   -0.4146 H   0  0  0  0  0  0  0  0  0  0  0  0
   31.3534  -18.0536   -3.9451 H   0  0  0  0  0  0  0  0  0  0  0  0
   30.0927  -19.1396   -3.3667 H   0  0  0  0  0  0  0  0  0  0  0  0
   33.7667  -21.9943   -2.9558 H   0  0  0  0  0  0  0  0  0  0  0  0
   30.0561  -17.5124   -1.7214 H   0  0  0  0  0  0  0  0  0  0  0  0
   31.6561  -17.1210   -1.8524 H   0  0  0  0  0  0  0  0  0  0  0  0
  1  2  2  0
  1 19  1  0
  2  4  1  0
  2  5  1  0
  3  7  1  0
  3 11  1  0
  4 18  2  0
  4 28  1  0
  5  6  2  0
  6 28  1  0
  7 21  1  0
  7 23  1  0
 11  8  1  0
  8 13  1  0
  8 22  2  0
  9 10  2  0
  9 22  1  0
  9 29  1  0
 10 12  1  0
 11 20  1  0
 12 13  2  0
 14 15  1  0
 14 24  1  0
 15 25  1  0
 16 17  1  0
 16 25  1  0
 17 24  1  0
 18 25  1  0
 18 26  1  0
 19 26  2  0
 20 23  1  0
 21 24  1  0
 21 27  2  0
  1 30  1  0
  3 31  1  0
  3 32  1  0
  5 33  1  0
  6 34  1  0
  7 35  1  1
 10 36  1  0
 11 37  1  1
 12 38  1  0
 13 39  1  0
 14 40  1  0
 14 41  1  0
 15 42  1  0
 15 43  1  0
 16 44  1  0
 16 45  1  0
 17 46  1  0
 17 47  1  0
 19 48  1  0
 20 49  1  0
 20 50  1  0
 22 51  1  0
 23 52  1  0
 23 53  1  0
M  CHG  1  23   1
M  END
>  <filename_input>  (12) 
7ZZW_KKW_docked.sdf

>  <pdb_id>  (12) 
7ZZW_KKW

>  <pose_rank>  (12) 
11

>  <num_atoms_heavy>  (12) 
29

>  <num_torsions>  (12) 
3

>  <pose>  (12) 
[29.240226931836997, -16.8650248858797, -0.2983287014676305, -0.20298377771954268, -1.6670216099400943, -3.6129108126303406, -18.167332618372512, 2.2596804635221543, 37.00262174961745]

>  <energy>  (12) 
-286.786317315003

>  <inter_energy>  (12) 
-377.3083177200041

>  <intra_energy>  (12) 
83.11221692590081

>  <rmsd>  (12) 
10.5574

>  <sdf_rank>  (12) 
0

$$$$

     RDKit          3D

 53 57  0  0  0  0  0  0  0  0999 V2000
   23.5915  -18.5365    0.4041 C   0  0  0  0  0  0  0  0  0  0  0  0
   23.3651  -17.3280   -0.2795 C   0  0  0  0  0  0  0  0  0  0  0  0
   30.7710  -15.2244   -4.9379 C   0  0  0  0  0  0  0  0  0  0  0  0
   24.4993  -16.6485   -0.8118 C   0  0  0  0  0  0  0  0  0  0  0  0
   22.1881  -16.5689   -0.5862 C   0  0  0  0  0  0  0  0  0  0  0  0
   22.4501  -15.4333   -1.2832 C   0  0  0  0  0  0  0  0  0  0  0  0
   31.1267  -16.4102   -4.0093 C   0  0  2  0  0  0  0  0  0  0  0  0
   32.2297  -13.8174   -6.5168 C   0  0  0  0  0  0  0  0  0  0  0  0
   31.7889  -11.4737   -6.7506 C   0  0  0  0  0  0  0  0  0  0  0  0
   32.7280  -11.3685   -7.7522 C   0  0  0  0  0  0  0  0  0  0  0  0
   31.9868  -15.1663   -5.8670 C   0  0  1  0  0  0  0  0  0  0  0  0
   33.4217  -12.4881   -8.1405 C   0  0  0  0  0  0  0  0  0  0  0  0
   33.1734  -13.6992   -7.5284 C   0  0  0  0  0  0  0  0  0  0  0  0
   28.3836  -15.9910   -3.0907 C   0  0  0  0  0  0  0  0  0  0  0  0
   27.2986  -16.9161   -2.5304 C   0  0  0  0  0  0  0  0  0  0  0  0
   28.1447  -16.5485   -0.2705 C   0  0  0  0  0  0  0  0  0  0  0  0
   29.1615  -15.5525   -0.8088 C   0  0  0  0  0  0  0  0  0  0  0  0
   25.7983  -17.1911   -0.6435 C   0  0  0  0  0  0  0  0  0  0  0  0
   24.8892  -18.9947    0.5199 C   0  0  0  0  0  0  0  0  0  0  0  0
   33.1321  -15.6126   -4.9418 C   0  0  0  0  0  0  0  0  0  0  0  0
   30.8128  -16.0284   -2.5698 C   0  0  0  0  0  0  0  0  0  0  0  0
   31.5296  -12.6797   -6.1278 C   0  0  0  0  0  0  0  0  0  0  0  0
   32.5667  -16.7350   -4.1638 N   0  0  0  0  0  0  0  0  0  0  0  0
   29.5256  -15.9074   -2.1786 N   0  0  0  0  0  0  0  0  0  0  0  0
   26.9645  -16.5893   -1.1377 N   0  0  0  0  0  0  0  0  0  0  0  0
   25.9631  -18.3558    0.0184 N   0  0  0  0  0  0  0  0  0  0  0  0
   31.7352  -15.8367   -1.7881 O   0  0  0  0  0  0  0  0  0  0  0  0
   24.1182  -15.1849   -1.6241 S   0  0  0  0  0  0  0  0  0  0  0  0
   30.9086  -10.0550   -6.2591 Cl  0  0  0  0  0  0  0  0  0  0  0  0
   22.7540  -19.1035    0.8366 H   0  0  0  0  0  0  0  0  0  0  0  0
   29.8473  -15.4220   -5.5015 H   0  0  0  0  0  0  0  0  0  0  0  0
   30.5805  -14.2838   -4.4003 H   0  0  0  0  0  0  0  0  0  0  0  0
   21.1750  -16.8756   -0.2872 H   0  0  0  0  0  0  0  0  0  0  0  0
   21.6641  -14.7329   -1.6021 H   0  0  0  0  0  0  0  0  0  0  0  0
   30.5334  -17.2967   -4.2778 H   0  0  0  0  0  0  0  0  0  0  0  0
   32.9201  -10.3992   -8.2355 H   0  0  0  0  0  0  0  0  0  0  0  0
   31.8610  -15.8048   -6.7539 H   0  0  0  0  0  0  0  0  0  0  0  0
   34.1751  -12.4193   -8.9391 H   0  0  0  0  0  0  0  0  0  0  0  0
   33.7345  -14.5895   -7.8484 H   0  0  0  0  0  0  0  0  0  0  0  0
   28.7255  -16.3836   -4.0598 H   0  0  0  0  0  0  0  0  0  0  0  0
   27.9573  -14.9842   -3.2110 H   0  0  0  0  0  0  0  0  0  0  0  0
   26.3927  -16.8153   -3.1463 H   0  0  0  0  0  0  0  0  0  0  0  0
   27.6832  -17.9463   -2.5555 H   0  0  0  0  0  0  0  0  0  0  0  0
   28.6015  -17.5484   -0.2320 H   0  0  0  0  0  0  0  0  0  0  0  0
   27.8369  -16.2357    0.7382 H   0  0  0  0  0  0  0  0  0  0  0  0
   28.7250  -14.5428   -0.7971 H   0  0  0  0  0  0  0  0  0  0  0  0
   30.0614  -15.5750   -0.1766 H   0  0  0  0  0  0  0  0  0  0  0  0
   25.0558  -19.9410    1.0554 H   0  0  0  0  0  0  0  0  0  0  0  0
   33.9994  -15.9461   -5.5305 H   0  0  0  0  0  0  0  0  0  0  0  0
   33.4898  -14.7963   -4.2970 H   0  0  0  0  0  0  0  0  0  0  0  0
   30.7747  -12.7399   -5.3299 H   0  0  0  0  0  0  0  0  0  0  0  0
   33.0231  -16.8030   -3.2429 H   0  0  0  0  0  0  0  0  0  0  0  0
   32.7104  -17.6410   -4.6323 H   0  0  0  0  0  0  0  0  0  0  0  0
  1  2  2  0
  1 19  1  0
  2  4  1  0
  2  5  1  0
  3  7  1  0
  3 11  1  0
  4 18  2  0
  4 28  1  0
  5  6  2  0
  6 28  1  0
  7 21  1  0
  7 23  1  0
 11  8  1  0
  8 13  1  0
  8 22  2  0
  9 10  2  0
  9 22  1  0
  9 29  1  0
 10 12  1  0
 11 20  1  0
 12 13  2  0
 14 15  1  0
 14 24  1  0
 15 25  1  0
 16 17  1  0
 16 25  1  0
 17 24  1  0
 18 25  1  0
 18 26  1  0
 19 26  2  0
 20 23  1  0
 21 24  1  0
 21 27  2  0
  1 30  1  0
  3 31  1  0
  3 32  1  0
  5 33  1  0
  6 34  1  0
  7 35  1  6
 10 36  1  0
 11 37  1  6
 12 38  1  0
 13 39  1  0
 14 40  1  0
 14 41  1  0
 15 42  1  0
 15 43  1  0
 16 44  1  0
 16 45  1  0
 17 46  1  0
 17 47  1  0
 19 48  1  0
 20 49  1  0
 20 50  1  0
 22 51  1  0
 23 52  1  0
 23 53  1  0
M  CHG  1  23   1
M  END
>  <filename_input>  (13) 
7ZZW_KKW_docked.sdf

>  <pdb_id>  (13) 
7ZZW_KKW

>  <pose_rank>  (13) 
12

>  <num_atoms_heavy>  (13) 
29

>  <num_torsions>  (13) 
3

>  <pose>  (13) 
[28.383633713378185, -15.991023771908589, -3.090743910562895, 0.14776272612564575, -2.4063369692122105, -1.6272361960064303, -0.5445343016999101, -0.1726549324002736, 0.5577368742321177]

>  <energy>  (13) 
-352.53663857805276

>  <inter_energy>  (13) 
-361.50015645934224

>  <intra_energy>  (13) 
15.558090740257988

>  <rmsd>  (13) 
12.2102

>  <sdf_rank>  (13) 
0

$$$$

     RDKit          3D

 53 57  0  0  0  0  0  0  0  0999 V2000
   29.9794  -12.3051   -8.0573 C   0  0  0  0  0  0  0  0  0  0  0  0
   29.5791  -11.3506   -7.1047 C   0  0  0  0  0  0  0  0  0  0  0  0
   28.1793  -17.4683   -1.6524 C   0  0  0  0  0  0  0  0  0  0  0  0
   28.9610  -11.8273   -5.9121 C   0  0  0  0  0  0  0  0  0  0  0  0
   29.6493   -9.9197   -7.0461 C   0  0  0  0  0  0  0  0  0  0  0  0
   29.1246   -9.4043   -5.9046 C   0  0  0  0  0  0  0  0  0  0  0  0
   26.6370  -17.5946   -1.6384 C   0  0  2  0  0  0  0  0  0  0  0  0
   29.9134  -17.7251    0.2257 C   0  0  0  0  0  0  0  0  0  0  0  0
   32.0307  -16.6189    0.0376 C   0  0  0  0  0  0  0  0  0  0  0  0
   32.3633  -16.9763    1.3251 C   0  0  0  0  0  0  0  0  0  0  0  0
   28.5707  -18.1496   -0.3381 C   0  0  1  0  0  0  0  0  0  0  0  0
   31.4719  -17.7102    2.0683 C   0  0  0  0  0  0  0  0  0  0  0  0
   30.2603  -18.0803    1.5224 C   0  0  0  0  0  0  0  0  0  0  0  0
   28.2651  -15.4186   -2.7145 C   0  0  0  0  0  0  0  0  0  0  0  0
   28.7423  -15.0454   -4.1217 C   0  0  0  0  0  0  0  0  0  0  0  0
   26.7101  -13.7389   -4.4701 C   0  0  0  0  0  0  0  0  0  0  0  0
   26.2766  -14.0242   -3.0396 C   0  0  0  0  0  0  0  0  0  0  0  0
   28.7668  -13.2183   -5.7178 C   0  0  0  0  0  0  0  0  0  0  0  0
   29.7544  -13.6405   -7.7865 C   0  0  0  0  0  0  0  0  0  0  0  0
   27.3863  -17.8022    0.5804 C   0  0  0  0  0  0  0  0  0  0  0  0
   26.0236  -16.2664   -2.0584 C   0  0  0  0  0  0  0  0  0  0  0  0
   30.8207  -16.9818   -0.5227 C   0  0  0  0  0  0  0  0  0  0  0  0
   26.1913  -17.9698   -0.2732 N   0  0  0  0  0  0  0  0  0  0  0  0
   26.8087  -15.3149   -2.6086 N   0  0  0  0  0  0  0  0  0  0  0  0
   28.1712  -13.7699   -4.5745 N   0  0  0  0  0  0  0  0  0  0  0  0
   29.1710  -14.0949   -6.6612 N   0  0  0  0  0  0  0  0  0  0  0  0
   24.8251  -16.0822   -1.8899 O   0  0  0  0  0  0  0  0  0  0  0  0
   28.5078  -10.5858   -4.8165 S   0  0  0  0  0  0  0  0  0  0  0  0
   33.1609  -15.6897   -0.9049 Cl  0  0  0  0  0  0  0  0  0  0  0  0
   30.4606  -11.9949   -8.9966 H   0  0  0  0  0  0  0  0  0  0  0  0
   28.6145  -17.9902   -2.5173 H   0  0  0  0  0  0  0  0  0  0  0  0
   28.5370  -16.4314   -1.7363 H   0  0  0  0  0  0  0  0  0  0  0  0
   30.0843   -9.3017   -7.8453 H   0  0  0  0  0  0  0  0  0  0  0  0
   29.0963   -8.3250   -5.6938 H   0  0  0  0  0  0  0  0  0  0  0  0
   26.3112  -18.3736   -2.3433 H   0  0  0  0  0  0  0  0  0  0  0  0
   33.3315  -16.6774    1.7532 H   0  0  0  0  0  0  0  0  0  0  0  0
   28.7302  -19.2307   -0.4636 H   0  0  0  0  0  0  0  0  0  0  0  0
   31.7237  -18.0027    3.0983 H   0  0  0  0  0  0  0  0  0  0  0  0
   29.5545  -18.6690    2.1268 H   0  0  0  0  0  0  0  0  0  0  0  0
   28.5688  -16.4527   -2.4944 H   0  0  0  0  0  0  0  0  0  0  0  0
   28.7189  -14.7216   -1.9947 H   0  0  0  0  0  0  0  0  0  0  0  0
   29.8390  -14.9611   -4.1144 H   0  0  0  0  0  0  0  0  0  0  0  0
   28.4091  -15.8325   -4.8141 H   0  0  0  0  0  0  0  0  0  0  0  0
   26.2824  -14.5013   -5.1378 H   0  0  0  0  0  0  0  0  0  0  0  0
   26.3518  -12.7401   -4.7601 H   0  0  0  0  0  0  0  0  0  0  0  0
   26.6580  -13.2326   -2.3778 H   0  0  0  0  0  0  0  0  0  0  0  0
   25.1779  -14.0503   -2.9918 H   0  0  0  0  0  0  0  0  0  0  0  0
   30.0718  -14.3793   -8.5372 H   0  0  0  0  0  0  0  0  0  0  0  0
   27.3482  -18.4867    1.4406 H   0  0  0  0  0  0  0  0  0  0  0  0
   27.4638  -16.7863    0.9950 H   0  0  0  0  0  0  0  0  0  0  0  0
   30.5766  -16.6850   -1.5534 H   0  0  0  0  0  0  0  0  0  0  0  0
   25.4315  -17.3501    0.0424 H   0  0  0  0  0  0  0  0  0  0  0  0
   25.8227  -18.9309   -0.2376 H   0  0  0  0  0  0  0  0  0  0  0  0
  1  2  2  0
  1 19  1  0
  2  4  1  0
  2  5  1  0
  3  7  1  0
  3 11  1  0
  4 18  2  0
  4 28  1  0
  5  6  2  0
  6 28  1  0
  7 21  1  0
  7 23  1  0
 11  8  1  0
  8 13  1  0
  8 22  2  0
  9 10  2  0
  9 22  1  0
  9 29  1  0
 10 12  1  0
 11 20  1  0
 12 13  2  0
 14 15  1  0
 14 24  1  0
 15 25  1  0
 16 17  1  0
 16 25  1  0
 17 24  1  0
 18 25  1  0
 18 26  1  0
 19 26  2  0
 20 23  1  0
 21 24  1  0
 21 27  2  0
  1 30  1  0
  3 31  1  0
  3 32  1  0
  5 33  1  0
  6 34  1  0
  7 35  1  6
 10 36  1  0
 11 37  1  6
 12 38  1  0
 13 39  1  0
 14 40  1  0
 14 41  1  0
 15 42  1  0
 15 43  1  0
 16 44  1  0
 16 45  1  0
 17 46  1  0
 17 47  1  0
 19 48  1  0
 20 49  1  0
 20 50  1  0
 22 51  1  0
 23 52  1  0
 23 53  1  0
M  CHG  1  23   1
M  END
>  <filename_input>  (14) 
7ZZW_KKW_docked.sdf

>  <pdb_id>  (14) 
7ZZW_KKW

>  <pose_rank>  (14) 
13

>  <num_atoms_heavy>  (14) 
29

>  <num_torsions>  (14) 
3

>  <pose>  (14) 
[28.265121314498042, -15.418626538243814, -2.7145331343049595, 1.6302695908805007, -3.6888072011543516, -3.6051829508500144, -1.551678123173148, 5.102038649455582, 0.1784358787361336]

>  <energy>  (14) 
-210.89059276380326

>  <inter_energy>  (14) 
-279.1587166478101

>  <intra_energy>  (14) 
72.20872355004124

>  <rmsd>  (14) 
9.45322

>  <sdf_rank>  (14) 
0

$$$$

     RDKit          3D

 53 57  0  0  0  0  0  0  0  0999 V2000
   25.4739  -17.8753    0.2606 C   0  0  0  0  0  0  0  0  0  0  0  0
   24.8252  -16.8594   -0.4646 C   0  0  0  0  0  0  0  0  0  0  0  0
   32.3693  -15.4731   -3.4990 C   0  0  0  0  0  0  0  0  0  0  0  0
   25.5765  -16.1834   -1.4696 C   0  0  0  0  0  0  0  0  0  0  0  0
   23.5026  -16.3069   -0.4292 C   0  0  0  0  0  0  0  0  0  0  0  0
   23.3134  -15.3126   -1.3345 C   0  0  0  0  0  0  0  0  0  0  0  0
   32.1576  -14.4673   -4.6559 C   0  0  2  0  0  0  0  0  0  0  0  0
   32.7478  -18.0140   -3.5163 C   0  0  0  0  0  0  0  0  0  0  0  0
   32.2258  -19.3084   -1.5684 C   0  0  0  0  0  0  0  0  0  0  0  0
   32.4036  -20.4821   -2.2664 C   0  0  0  0  0  0  0  0  0  0  0  0
   32.9426  -16.6901   -4.2304 C   0  0  1  0  0  0  0  0  0  0  0  0
   32.7547  -20.4262   -3.5928 C   0  0  0  0  0  0  0  0  0  0  0  0
   32.9252  -19.2040   -4.2094 C   0  0  0  0  0  0  0  0  0  0  0  0
   29.7407  -16.0302   -4.1465 C   0  0  0  0  0  0  0  0  0  0  0  0
   29.0553  -16.5417   -2.8754 C   0  0  0  0  0  0  0  0  0  0  0  0
   27.7826  -14.4646   -2.7195 C   0  0  0  0  0  0  0  0  0  0  0  0
   28.3855  -13.9917   -4.0342 C   0  0  0  0  0  0  0  0  0  0  0  0
   26.9277  -16.5398   -1.7092 C   0  0  0  0  0  0  0  0  0  0  0  0
   26.7916  -18.1602   -0.0392 C   0  0  0  0  0  0  0  0  0  0  0  0
   32.2323  -16.6220   -5.5934 C   0  0  0  0  0  0  0  0  0  0  0  0
   30.7945  -13.8082   -4.5011 C   0  0  0  0  0  0  0  0  0  0  0  0
   32.3924  -18.0768   -2.1726 C   0  0  0  0  0  0  0  0  0  0  0  0
   32.2478  -15.1878   -5.9505 N   0  0  0  0  0  0  0  0  0  0  0  0
   29.7176  -14.5676   -4.2040 N   0  0  0  0  0  0  0  0  0  0  0  0
   27.7349  -15.9284   -2.6792 N   0  0  0  0  0  0  0  0  0  0  0  0
   27.5046  -17.5240   -0.9878 N   0  0  0  0  0  0  0  0  0  0  0  0
   30.6965  -12.5968   -4.6488 O   0  0  0  0  0  0  0  0  0  0  0  0
   24.6973  -14.9613   -2.2947 S   0  0  0  0  0  0  0  0  0  0  0  0
   31.7819  -19.3790    0.1130 Cl  0  0  0  0  0  0  0  0  0  0  0  0
   24.9437  -18.4301    1.0487 H   0  0  0  0  0  0  0  0  0  0  0  0
   33.0803  -15.0827   -2.7560 H   0  0  0  0  0  0  0  0  0  0  0  0
   31.4537  -15.6907   -2.9295 H   0  0  0  0  0  0  0  0  0  0  0  0
   22.7201  -16.6536    0.2617 H   0  0  0  0  0  0  0  0  0  0  0  0
   22.3583  -14.7781   -1.4444 H   0  0  0  0  0  0  0  0  0  0  0  0
   32.9328  -13.6873   -4.6305 H   0  0  0  0  0  0  0  0  0  0  0  0
   32.2660  -21.4527   -1.7675 H   0  0  0  0  0  0  0  0  0  0  0  0
   34.0396  -16.6515   -4.3015 H   0  0  0  0  0  0  0  0  0  0  0  0
   32.9000  -21.3554   -4.1632 H   0  0  0  0  0  0  0  0  0  0  0  0
   33.2075  -19.1715   -5.2721 H   0  0  0  0  0  0  0  0  0  0  0  0
   30.7856  -16.3739   -4.1547 H   0  0  0  0  0  0  0  0  0  0  0  0
   29.1983  -16.4234   -5.0190 H   0  0  0  0  0  0  0  0  0  0  0  0
   28.9329  -17.6322   -2.9518 H   0  0  0  0  0  0  0  0  0  0  0  0
   29.6869  -16.2722   -2.0161 H   0  0  0  0  0  0  0  0  0  0  0  0
   28.3990  -14.0986   -1.8851 H   0  0  0  0  0  0  0  0  0  0  0  0
   26.7592  -14.0708   -2.6330 H   0  0  0  0  0  0  0  0  0  0  0  0
   27.7412  -14.3104   -4.8668 H   0  0  0  0  0  0  0  0  0  0  0  0
   28.4631  -12.8945   -4.0240 H   0  0  0  0  0  0  0  0  0  0  0  0
   27.2898  -18.9568    0.5328 H   0  0  0  0  0  0  0  0  0  0  0  0
   32.7750  -17.2151   -6.3442 H   0  0  0  0  0  0  0  0  0  0  0  0
   31.2119  -17.0310   -5.5530 H   0  0  0  0  0  0  0  0  0  0  0  0
   32.2450  -17.1523   -1.5950 H   0  0  0  0  0  0  0  0  0  0  0  0
   31.4435  -14.9556   -6.5506 H   0  0  0  0  0  0  0  0  0  0  0  0
   33.0941  -14.9301   -6.4780 H   0  0  0  0  0  0  0  0  0  0  0  0
  1  2  2  0
  1 19  1  0
  2  4  1  0
  2  5  1  0
  3  7  1  0
  3 11  1  0
  4 18  2  0
  4 28  1  0
  5  6  2  0
  6 28  1  0
  7 21  1  0
  7 23  1  0
 11  8  1  0
  8 13  1  0
  8 22  2  0
  9 10  2  0
  9 22  1  0
  9 29  1  0
 10 12  1  0
 11 20  1  0
 12 13  2  0
 14 15  1  0
 14 24  1  0
 15 25  1  0
 16 17  1  0
 16 25  1  0
 17 24  1  0
 18 25  1  0
 18 26  1  0
 19 26  2  0
 20 23  1  0
 21 24  1  0
 21 27  2  0
  1 30  1  0
  3 31  1  0
  3 32  1  0
  5 33  1  0
  6 34  1  0
  7 35  1  6
 10 36  1  0
 11 37  1  6
 12 38  1  0
 13 39  1  0
 14 40  1  0
 14 41  1  0
 15 42  1  0
 15 43  1  0
 16 44  1  0
 16 45  1  0
 17 46  1  0
 17 47  1  0
 19 48  1  0
 20 49  1  0
 20 50  1  0
 22 51  1  0
 23 52  1  0
 23 53  1  0
M  CHG  1  23   1
M  END
>  <filename_input>  (15) 
7ZZW_KKW_docked.sdf

>  <pdb_id>  (15) 
7ZZW_KKW

>  <pose_rank>  (15) 
14

>  <num_atoms_heavy>  (15) 
29

>  <num_torsions>  (15) 
3

>  <pose>  (15) 
[29.740687365338967, -16.030216889010006, -4.146520227036135, 1.1619163038595937, -2.4623873492100814, 0.3830942379157766, -2.0750784158275386, -2.185177822788121, 0.11527653338782821]

>  <energy>  (15) 
-273.64544265914816

>  <inter_energy>  (15) 
-364.9397300442129

>  <intra_energy>  (15) 
90.53556188851438

>  <rmsd>  (15) 
10.8057

>  <sdf_rank>  (15) 
0

$$$$

     RDKit          3D

 53 57  0  0  0  0  0  0  0  0999 V2000
   22.2125  -18.7459   -1.1595 C   0  0  0  0  0  0  0  0  0  0  0  0
   20.8628  -19.1179   -1.0227 C   0  0  0  0  0  0  0  0  0  0  0  0
   17.0542  -21.0255    7.7575 C   0  0  0  0  0  0  0  0  0  0  0  0
   20.3765  -19.3644    0.2942 C   0  0  0  0  0  0  0  0  0  0  0  0
   19.7921  -19.3218   -1.9542 C   0  0  0  0  0  0  0  0  0  0  0  0
   18.6270  -19.6862   -1.3593 C   0  0  0  0  0  0  0  0  0  0  0  0
   17.6365  -21.0157    6.3237 C   0  0  2  0  0  0  0  0  0  0  0  0
   14.6280  -20.9342    8.5971 C   0  0  0  0  0  0  0  0  0  0  0  0
   13.5673  -19.2408    9.9197 C   0  0  0  0  0  0  0  0  0  0  0  0
   12.8502  -20.1910   10.6119 C   0  0  0  0  0  0  0  0  0  0  0  0
   15.5850  -21.3765    7.5066 C   0  0  1  0  0  0  0  0  0  0  0  0
   13.0196  -21.5174   10.2994 C   0  0  0  0  0  0  0  0  0  0  0  0
   13.9002  -21.8833    9.3025 C   0  0  0  0  0  0  0  0  0  0  0  0
   19.8666  -20.9856    4.4343 C   0  0  0  0  0  0  0  0  0  0  0  0
   19.9948  -20.6338    2.9488 C   0  0  0  0  0  0  0  0  0  0  0  0
   20.4167  -18.3015    3.5319 C   0  0  0  0  0  0  0  0  0  0  0  0
   20.3887  -18.6617    5.0101 C   0  0  0  0  0  0  0  0  0  0  0  0
   21.2425  -19.2339    1.4092 C   0  0  0  0  0  0  0  0  0  0  0  0
   22.9854  -18.6398   -0.0200 C   0  0  0  0  0  0  0  0  0  0  0  0
   15.3123  -20.7080    6.1480 C   0  0  0  0  0  0  0  0  0  0  0  0
   18.5283  -19.7938    6.1555 C   0  0  0  0  0  0  0  0  0  0  0  0
   14.4525  -19.5919    8.9184 C   0  0  0  0  0  0  0  0  0  0  0  0
   16.5209  -20.9895    5.3450 N   0  0  0  0  0  0  0  0  0  0  0  0
   19.5069  -19.8069    5.2245 N   0  0  0  0  0  0  0  0  0  0  0  0
   20.8443  -19.4544    2.7355 N   0  0  0  0  0  0  0  0  0  0  0  0
   22.5297  -18.8717    1.2257 N   0  0  0  0  0  0  0  0  0  0  0  0
   18.3432  -18.8165    6.8692 O   0  0  0  0  0  0  0  0  0  0  0  0
   18.7206  -19.8137    0.3540 S   0  0  0  0  0  0  0  0  0  0  0  0
   13.3536  -17.5597   10.3165 Cl  0  0  0  0  0  0  0  0  0  0  0  0
   22.6426  -18.5442   -2.1517 H   0  0  0  0  0  0  0  0  0  0  0  0
   17.5451  -21.7862    8.3822 H   0  0  0  0  0  0  0  0  0  0  0  0
   17.1961  -20.0783    8.2985 H   0  0  0  0  0  0  0  0  0  0  0  0
   19.9032  -19.1958   -3.0413 H   0  0  0  0  0  0  0  0  0  0  0  0
   17.7036  -19.8827   -1.9238 H   0  0  0  0  0  0  0  0  0  0  0  0
   18.2384  -21.9199    6.1497 H   0  0  0  0  0  0  0  0  0  0  0  0
   12.1501  -19.8912   11.4056 H   0  0  0  0  0  0  0  0  0  0  0  0
   15.4129  -22.4629    7.5069 H   0  0  0  0  0  0  0  0  0  0  0  0
   12.4535  -22.2877   10.8436 H   0  0  0  0  0  0  0  0  0  0  0  0
   14.0285  -22.9489    9.0615 H   0  0  0  0  0  0  0  0  0  0  0  0
   19.0868  -21.7518    4.5563 H   0  0  0  0  0  0  0  0  0  0  0  0
   20.8369  -21.3625    4.7898 H   0  0  0  0  0  0  0  0  0  0  0  0
   20.4357  -21.4902    2.4175 H   0  0  0  0  0  0  0  0  0  0  0  0
   18.9898  -20.4035    2.5655 H   0  0  0  0  0  0  0  0  0  0  0  0
   19.4093  -17.9944    3.2141 H   0  0  0  0  0  0  0  0  0  0  0  0
   21.1281  -17.4767    3.3781 H   0  0  0  0  0  0  0  0  0  0  0  0
   21.4056  -18.9167    5.3430 H   0  0  0  0  0  0  0  0  0  0  0  0
   20.0143  -17.8026    5.5860 H   0  0  0  0  0  0  0  0  0  0  0  0
   24.0394  -18.3475   -0.1372 H   0  0  0  0  0  0  0  0  0  0  0  0
   14.4205  -21.1430    5.6732 H   0  0  0  0  0  0  0  0  0  0  0  0
   15.1177  -19.6297    6.2451 H   0  0  0  0  0  0  0  0  0  0  0  0
   15.0146  -18.8154    8.3789 H   0  0  0  0  0  0  0  0  0  0  0  0
   16.6709  -20.2488    4.6451 H   0  0  0  0  0  0  0  0  0  0  0  0
   16.4418  -21.8753    4.8253 H   0  0  0  0  0  0  0  0  0  0  0  0
  1  2  2  0
  1 19  1  0
  2  4  1  0
  2  5  1  0
  3  7  1  0
  3 11  1  0
  4 18  2  0
  4 28  1  0
  5  6  2  0
  6 28  1  0
  7 21  1  0
  7 23  1  0
 11  8  1  0
  8 13  1  0
  8 22  2  0
  9 10  2  0
  9 22  1  0
  9 29  1  0
 10 12  1  0
 11 20  1  0
 12 13  2  0
 14 15  1  0
 14 24  1  0
 15 25  1  0
 16 17  1  0
 16 25  1  0
 17 24  1  0
 18 25  1  0
 18 26  1  0
 19 26  2  0
 20 23  1  0
 21 24  1  0
 21 27  2  0
  1 30  1  0
  3 31  1  0
  3 32  1  0
  5 33  1  0
  6 34  1  0
  7 35  1  6
 10 36  1  0
 11 37  1  6
 12 38  1  0
 13 39  1  0
 14 40  1  0
 14 41  1  0
 15 42  1  0
 15 43  1  0
 16 44  1  0
 16 45  1  0
 17 46  1  0
 17 47  1  0
 19 48  1  0
 20 49  1  0
 20 50  1  0
 22 51  1  0
 23 52  1  0
 23 53  1  0
M  CHG  1  23   1
M  END
>  <filename_input>  (16) 
7ZZW_KKW_docked.sdf

>  <pdb_id>  (16) 
7ZZW_KKW

>  <pose_rank>  (16) 
15

>  <num_atoms_heavy>  (16) 
29

>  <num_torsions>  (16) 
3

>  <pose>  (16) 
[19.866571839315217, -20.985601691357047, 4.434337135521382, -1.9175485215943942, -4.382643260379413, 1.7610971781404012, 1.698835480158167, -4.966475168119229, 1.4726182966130954]

>  <energy>  (16) 
-305.2981794301233

>  <inter_energy>  (16) 
-324.77572850664757

>  <intra_energy>  (16) 
25.663033743678213

>  <rmsd>  (16) 
7.77437

>  <sdf_rank>  (16) 
0

$$$$

     RDKit          3D

 53 57  0  0  0  0  0  0  0  0999 V2000
   29.9953  -16.2962   -1.8197 C   0  0  0  0  0  0  0  0  0  0  0  0
   28.9950  -15.7797   -2.6633 C   0  0  0  0  0  0  0  0  0  0  0  0
   21.0686  -19.7031    1.0388 C   0  0  0  0  0  0  0  0  0  0  0  0
   27.6381  -15.9649   -2.2682 C   0  0  0  0  0  0  0  0  0  0  0  0
   29.0189  -15.0664   -3.9067 C   0  0  0  0  0  0  0  0  0  0  0  0
   27.7804  -14.7610   -4.3726 C   0  0  0  0  0  0  0  0  0  0  0  0
   21.6555  -19.4047   -0.3617 C   0  0  2  0  0  0  0  0  0  0  0  0
   18.7590  -20.5716    1.7537 C   0  0  0  0  0  0  0  0  0  0  0  0
   17.4896  -19.5098    3.4867 C   0  0  0  0  0  0  0  0  0  0  0  0
   16.7350  -20.6471    3.6693 C   0  0  0  0  0  0  0  0  0  0  0  0
   19.8509  -20.5676    0.7008 C   0  0  1  0  0  0  0  0  0  0  0  0
   16.9898  -21.7519    2.8946 C   0  0  0  0  0  0  0  0  0  0  0  0
   17.9922  -21.7129    1.9476 C   0  0  0  0  0  0  0  0  0  0  0  0
   24.3359  -18.4501    0.3076 C   0  0  0  0  0  0  0  0  0  0  0  0
   25.6329  -18.2815   -0.4903 C   0  0  0  0  0  0  0  0  0  0  0  0
   24.9542  -16.0248   -1.1268 C   0  0  0  0  0  0  0  0  0  0  0  0
   23.7118  -16.1487   -0.2568 C   0  0  0  0  0  0  0  0  0  0  0  0
   27.3340  -16.6496   -1.0645 C   0  0  0  0  0  0  0  0  0  0  0  0
   29.6109  -16.9476   -0.6642 C   0  0  0  0  0  0  0  0  0  0  0  0
   19.3952  -19.9846   -0.6481 C   0  0  0  0  0  0  0  0  0  0  0  0
   22.0253  -17.9306   -0.4441 C   0  0  0  0  0  0  0  0  0  0  0  0
   18.4964  -19.4555    2.5418 C   0  0  0  0  0  0  0  0  0  0  0  0
   20.6487  -19.7515   -1.3958 N   0  0  0  0  0  0  0  0  0  0  0  0
   23.2944  -17.5471   -0.1852 N   0  0  0  0  0  0  0  0  0  0  0  0
   26.0289  -16.8712   -0.6022 N   0  0  0  0  0  0  0  0  0  0  0  0
   28.3303  -17.1244   -0.2874 N   0  0  0  0  0  0  0  0  0  0  0  0
   21.1637  -17.1146   -0.7446 O   0  0  0  0  0  0  0  0  0  0  0  0
   26.4953  -15.3017   -3.3643 S   0  0  0  0  0  0  0  0  0  0  0  0
   17.1675  -18.1098    4.4692 Cl  0  0  0  0  0  0  0  0  0  0  0  0
   31.0594  -16.1837   -2.0745 H   0  0  0  0  0  0  0  0  0  0  0  0
   21.7875  -20.2534    1.6637 H   0  0  0  0  0  0  0  0  0  0  0  0
   20.8227  -18.7999    1.6165 H   0  0  0  0  0  0  0  0  0  0  0  0
   29.9469  -14.7939   -4.4306 H   0  0  0  0  0  0  0  0  0  0  0  0
   27.6133  -14.2153   -5.3130 H   0  0  0  0  0  0  0  0  0  0  0  0
   22.5601  -20.0067   -0.5329 H   0  0  0  0  0  0  0  0  0  0  0  0
   15.9376  -20.6704    4.4267 H   0  0  0  0  0  0  0  0  0  0  0  0
   20.1019  -21.6377    0.6574 H   0  0  0  0  0  0  0  0  0  0  0  0
   16.3951  -22.6674    3.0291 H   0  0  0  0  0  0  0  0  0  0  0  0
   18.1880  -22.6042    1.3335 H   0  0  0  0  0  0  0  0  0  0  0  0
   23.9866  -19.4887    0.2106 H   0  0  0  0  0  0  0  0  0  0  0  0
   24.5392  -18.2081    1.3612 H   0  0  0  0  0  0  0  0  0  0  0  0
   26.4362  -18.8372    0.0155 H   0  0  0  0  0  0  0  0  0  0  0  0
   25.4608  -18.6683   -1.5055 H   0  0  0  0  0  0  0  0  0  0  0  0
   24.7119  -16.3401   -2.1524 H   0  0  0  0  0  0  0  0  0  0  0  0
   25.2900  -14.9773   -1.1239 H   0  0  0  0  0  0  0  0  0  0  0  0
   23.9372  -15.7827    0.7558 H   0  0  0  0  0  0  0  0  0  0  0  0
   22.9003  -15.5497   -0.6956 H   0  0  0  0  0  0  0  0  0  0  0  0
   30.4004  -17.3471   -0.0106 H   0  0  0  0  0  0  0  0  0  0  0  0
   18.7514  -20.6989   -1.1823 H   0  0  0  0  0  0  0  0  0  0  0  0
   18.8044  -19.0647   -0.5268 H   0  0  0  0  0  0  0  0  0  0  0  0
   19.0864  -18.5359    2.4135 H   0  0  0  0  0  0  0  0  0  0  0  0
   20.5331  -18.9752   -2.0628 H   0  0  0  0  0  0  0  0  0  0  0  0
   20.9288  -20.5753   -1.9468 H   0  0  0  0  0  0  0  0  0  0  0  0
  1  2  2  0
  1 19  1  0
  2  4  1  0
  2  5  1  0
  3  7  1  0
  3 11  1  0
  4 18  2  0
  4 28  1  0
  5  6  2  0
  6 28  1  0
  7 21  1  0
  7 23  1  0
 11  8  1  0
  8 13  1  0
  8 22  2  0
  9 10  2  0
  9 22  1  0
  9 29  1  0
 10 12  1  0
 11 20  1  0
 12 13  2  0
 14 15  1  0
 14 24  1  0
 15 25  1  0
 16 17  1  0
 16 25  1  0
 17 24  1  0
 18 25  1  0
 18 26  1  0
 19 26  2  0
 20 23  1  0
 21 24  1  0
 21 27  2  0
  1 30  1  0
  3 31  1  0
  3 32  1  0
  5 33  1  0
  6 34  1  0
  7 35  1  6
 10 36  1  0
 11 37  1  6
 12 38  1  0
 13 39  1  0
 14 40  1  0
 14 41  1  0
 15 42  1  0
 15 43  1  0
 16 44  1  0
 16 45  1  0
 17 46  1  0
 17 47  1  0
 19 48  1  0
 20 49  1  0
 20 50  1  0
 22 51  1  0
 23 52  1  0
 23 53  1  0
M  CHG  1  23   1
M  END
>  <filename_input>  (17) 
7ZZW_KKW_docked.sdf

>  <pdb_id>  (17) 
7ZZW_KKW

>  <pose_rank>  (17) 
16

>  <num_atoms_heavy>  (17) 
29

>  <num_torsions>  (17) 
3

>  <pose>  (17) 
[24.335914545883288, -18.450094048085223, 0.3075699309192663, 1.8347196178523577, 3.9584129038579836, 4.579943626174019, 3.003362009932892, 6.544789080417193, 0.9559771067353581]

>  <energy>  (17) 
-957.0744898549966

>  <inter_energy>  (17) 
-986.4113935207151

>  <intra_energy>  (17) 
38.61870614345624

>  <rmsd>  (17) 
2.24763

>  <sdf_rank>  (17) 
0

$$$$

     RDKit          3D

 53 57  0  0  0  0  0  0  0  0999 V2000
   18.0710  -19.8305    0.8939 C   0  0  0  0  0  0  0  0  0  0  0  0
   18.7439  -19.6604    2.1174 C   0  0  0  0  0  0  0  0  0  0  0  0
   27.2224  -15.5814   -1.8218 C   0  0  0  0  0  0  0  0  0  0  0  0
   20.0775  -19.1593    2.0731 C   0  0  0  0  0  0  0  0  0  0  0  0
   18.3830  -19.8873    3.4864 C   0  0  0  0  0  0  0  0  0  0  0  0
   19.3748  -19.5759    4.3602 C   0  0  0  0  0  0  0  0  0  0  0  0
   25.7602  -16.0876   -1.7984 C   0  0  2  0  0  0  0  0  0  0  0  0
   28.8994  -15.3476   -3.7539 C   0  0  0  0  0  0  0  0  0  0  0  0
   30.7542  -14.4591   -4.9837 C   0  0  0  0  0  0  0  0  0  0  0  0
   31.5767  -15.4626   -4.5224 C   0  0  0  0  0  0  0  0  0  0  0  0
   27.4484  -15.3170   -3.3130 C   0  0  1  0  0  0  0  0  0  0  0  0
   31.0633  -16.4132   -3.6748 C   0  0  0  0  0  0  0  0  0  0  0  0
   29.7381  -16.3551   -3.2961 C   0  0  0  0  0  0  0  0  0  0  0  0
   23.4917  -16.5010   -0.0020 C   0  0  0  0  0  0  0  0  0  0  0  0
   22.1206  -17.1663   -0.1589 C   0  0  0  0  0  0  0  0  0  0  0  0
   23.0788  -19.3103    0.5071 C   0  0  0  0  0  0  0  0  0  0  0  0
   24.4198  -18.6370    0.7600 C   0  0  0  0  0  0  0  0  0  0  0  0
   20.6819  -18.8524    0.8278 C   0  0  0  0  0  0  0  0  0  0  0  0
   18.7335  -19.5043   -0.2732 C   0  0  0  0  0  0  0  0  0  0  0  0
   26.5863  -16.4050   -3.9765 C   0  0  0  0  0  0  0  0  0  0  0  0
   25.6682  -17.3057   -0.8904 C   0  0  0  0  0  0  0  0  0  0  0  0
   29.4249  -14.3874   -4.6128 C   0  0  0  0  0  0  0  0  0  0  0  0
   25.3412  -16.4309   -3.1804 N   0  0  0  0  0  0  0  0  0  0  0  0
   24.5699  -17.4837   -0.1244 N   0  0  0  0  0  0  0  0  0  0  0  0
   21.9856  -18.3533    0.6960 N   0  0  0  0  0  0  0  0  0  0  0  0
   19.9931  -19.0306   -0.3192 N   0  0  0  0  0  0  0  0  0  0  0  0
   26.5941  -18.1062   -0.8694 O   0  0  0  0  0  0  0  0  0  0  0  0
   20.8114  -18.9904    3.6159 S   0  0  0  0  0  0  0  0  0  0  0  0
   31.4044  -13.2548   -6.0589 Cl  0  0  0  0  0  0  0  0  0  0  0  0
   17.0406  -20.2146    0.8673 H   0  0  0  0  0  0  0  0  0  0  0  0
   27.3351  -14.6600   -1.2317 H   0  0  0  0  0  0  0  0  0  0  0  0
   27.9421  -16.2891   -1.3845 H   0  0  0  0  0  0  0  0  0  0  0  0
   17.4016  -20.2746    3.7975 H   0  0  0  0  0  0  0  0  0  0  0  0
   19.2689  -19.6883    5.4493 H   0  0  0  0  0  0  0  0  0  0  0  0
   25.0914  -15.3054   -1.4101 H   0  0  0  0  0  0  0  0  0  0  0  0
   32.6323  -15.5021   -4.8291 H   0  0  0  0  0  0  0  0  0  0  0  0
   27.1654  -14.2934   -3.5996 H   0  0  0  0  0  0  0  0  0  0  0  0
   31.7085  -17.2206   -3.2980 H   0  0  0  0  0  0  0  0  0  0  0  0
   29.3376  -17.1226   -2.6175 H   0  0  0  0  0  0  0  0  0  0  0  0
   23.6118  -15.7363   -0.7836 H   0  0  0  0  0  0  0  0  0  0  0  0
   23.5466  -16.0438    0.9970 H   0  0  0  0  0  0  0  0  0  0  0  0
   21.3402  -16.4409    0.1142 H   0  0  0  0  0  0  0  0  0  0  0  0
   22.0157  -17.4871   -1.2059 H   0  0  0  0  0  0  0  0  0  0  0  0
   23.0530  -19.6916   -0.5244 H   0  0  0  0  0  0  0  0  0  0  0  0
   22.9551  -20.1398    1.2188 H   0  0  0  0  0  0  0  0  0  0  0  0
   24.4690  -18.3030    1.8070 H   0  0  0  0  0  0  0  0  0  0  0  0
   25.2294  -19.3546    0.5611 H   0  0  0  0  0  0  0  0  0  0  0  0
   18.1986  -19.6399   -1.2247 H   0  0  0  0  0  0  0  0  0  0  0  0
   26.3723  -16.1459   -5.0239 H   0  0  0  0  0  0  0  0  0  0  0  0
   27.0900  -17.3827   -3.9952 H   0  0  0  0  0  0  0  0  0  0  0  0
   28.7867  -13.5767   -4.9939 H   0  0  0  0  0  0  0  0  0  0  0  0
   24.9143  -17.3678   -3.2068 H   0  0  0  0  0  0  0  0  0  0  0  0
   24.6360  -15.7745   -3.5446 H   0  0  0  0  0  0  0  0  0  0  0  0
  1  2  2  0
  1 19  1  0
  2  4  1  0
  2  5  1  0
  3  7  1  0
  3 11  1  0
  4 18  2  0
  4 28  1  0
  5  6  2  0
  6 28  1  0
  7 21  1  0
  7 23  1  0
 11  8  1  0
  8 13  1  0
  8 22  2  0
  9 10  2  0
  9 22  1  0
  9 29  1  0
 10 12  1  0
 11 20  1  0
 12 13  2  0
 14 15  1  0
 14 24  1  0
 15 25  1  0
 16 17  1  0
 16 25  1  0
 17 24  1  0
 18 25  1  0
 18 26  1  0
 19 26  2  0
 20 23  1  0
 21 24  1  0
 21 27  2  0
  1 30  1  0
  3 31  1  0
  3 32  1  0
  5 33  1  0
  6 34  1  0
  7 35  1  1
 10 36  1  0
 11 37  1  6
 12 38  1  0
 13 39  1  0
 14 40  1  0
 14 41  1  0
 15 42  1  0
 15 43  1  0
 16 44  1  0
 16 45  1  0
 17 46  1  0
 17 47  1  0
 19 48  1  0
 20 49  1  0
 20 50  1  0
 22 51  1  0
 23 52  1  0
 23 53  1  0
M  CHG  1  23   1
M  END
>  <filename_input>  (18) 
7ZZW_KKW_docked.sdf

>  <pdb_id>  (18) 
7ZZW_KKW

>  <pose_rank>  (18) 
17

>  <num_atoms_heavy>  (18) 
29

>  <num_torsions>  (18) 
3

>  <pose>  (18) 
[23.491705949035335, -16.50100631864555, -0.0020139479963330806, -0.3476404506945627, -0.9769105361331091, -2.799623093984006, -1.3261482207424822, 1.0978104538534954, -1.986085100415547]

>  <energy>  (18) 
-584.2914181563475

>  <inter_energy>  (18) 
-571.2092878213349

>  <intra_energy>  (18) 
0.15961938598546493

>  <rmsd>  (18) 
10.3628

>  <sdf_rank>  (18) 
0

$$$$

     RDKit          3D

 53 57  0  0  0  0  0  0  0  0999 V2000
   30.0911  -27.1735   -0.4543 C   0  0  0  0  0  0  0  0  0  0  0  0
   29.9341  -26.5035   -1.6813 C   0  0  0  0  0  0  0  0  0  0  0  0
   29.1155  -17.3496   -0.7144 C   0  0  0  0  0  0  0  0  0  0  0  0
   30.2728  -25.1198   -1.7256 C   0  0  0  0  0  0  0  0  0  0  0  0
   29.4841  -26.9089   -2.9808 C   0  0  0  0  0  0  0  0  0  0  0  0
   29.4963  -25.9005   -3.8903 C   0  0  0  0  0  0  0  0  0  0  0  0
   30.1681  -18.1722    0.0668 C   0  0  2  0  0  0  0  0  0  0  0  0
   26.5481  -17.3721   -0.6271 C   0  0  0  0  0  0  0  0  0  0  0  0
   24.1961  -17.7365   -0.9058 C   0  0  0  0  0  0  0  0  0  0  0  0
   24.1864  -16.9778   -2.0549 C   0  0  0  0  0  0  0  0  0  0  0  0
   27.8521  -17.5635    0.1237 C   0  0  1  0  0  0  0  0  0  0  0  0
   25.3582  -16.4133   -2.4951 C   0  0  0  0  0  0  0  0  0  0  0  0
   26.5260  -16.6100   -1.7876 C   0  0  0  0  0  0  0  0  0  0  0  0
   30.9907  -20.9163    0.6473 C   0  0  0  0  0  0  0  0  0  0  0  0
   30.3429  -22.2875    0.4295 C   0  0  0  0  0  0  0  0  0  0  0  0
   31.3557  -22.4198   -1.7874 C   0  0  0  0  0  0  0  0  0  0  0  0
   32.0811  -21.1054   -1.5389 C   0  0  0  0  0  0  0  0  0  0  0  0
   30.7473  -24.4651   -0.5610 C   0  0  0  0  0  0  0  0  0  0  0  0
   30.5620  -26.4600    0.6303 C   0  0  0  0  0  0  0  0  0  0  0  0
   28.0455  -18.9944    0.6550 C   0  0  0  0  0  0  0  0  0  0  0  0
   30.9962  -18.9861   -0.9173 C   0  0  0  0  0  0  0  0  0  0  0  0
   25.3578  -17.9420   -0.1862 C   0  0  0  0  0  0  0  0  0  0  0  0
   29.4736  -19.0627    1.0301 N   0  0  0  0  0  0  0  0  0  0  0  0
   31.2979  -20.2711   -0.6304 N   0  0  0  0  0  0  0  0  0  0  0  0
   31.1051  -23.1099   -0.5196 N   0  0  0  0  0  0  0  0  0  0  0  0
   30.8831  -25.1529    0.5924 N   0  0  0  0  0  0  0  0  0  0  0  0
   31.3761  -18.4609   -1.9558 O   0  0  0  0  0  0  0  0  0  0  0  0
   30.0440  -24.3942   -3.2646 S   0  0  0  0  0  0  0  0  0  0  0  0
   22.7112  -18.4531   -0.3484 Cl  0  0  0  0  0  0  0  0  0  0  0  0
   29.8445  -28.2414   -0.3610 H   0  0  0  0  0  0  0  0  0  0  0  0
   29.3914  -16.2855   -0.7559 H   0  0  0  0  0  0  0  0  0  0  0  0
   29.0060  -17.6562   -1.7651 H   0  0  0  0  0  0  0  0  0  0  0  0
   29.1615  -27.9336   -3.2174 H   0  0  0  0  0  0  0  0  0  0  0  0
   29.1833  -26.0350   -4.9361 H   0  0  0  0  0  0  0  0  0  0  0  0
   30.8390  -17.5024    0.6247 H   0  0  0  0  0  0  0  0  0  0  0  0
   23.2511  -16.8258   -2.6136 H   0  0  0  0  0  0  0  0  0  0  0  0
   27.7483  -16.8081    0.9166 H   0  0  0  0  0  0  0  0  0  0  0  0
   25.3657  -15.8046   -3.4113 H   0  0  0  0  0  0  0  0  0  0  0  0
   27.4589  -16.1537   -2.1502 H   0  0  0  0  0  0  0  0  0  0  0  0
   30.2981  -20.2777    1.2152 H   0  0  0  0  0  0  0  0  0  0  0  0
   31.9295  -21.0571    1.2030 H   0  0  0  0  0  0  0  0  0  0  0  0
   30.2914  -22.8135    1.3942 H   0  0  0  0  0  0  0  0  0  0  0  0
   29.3385  -22.1268    0.0107 H   0  0  0  0  0  0  0  0  0  0  0  0
   30.3963  -22.2163   -2.2856 H   0  0  0  0  0  0  0  0  0  0  0  0
   31.9832  -23.0598   -2.4251 H   0  0  0  0  0  0  0  0  0  0  0  0
   33.0643  -21.3102   -1.0903 H   0  0  0  0  0  0  0  0  0  0  0  0
   32.2122  -20.5769   -2.4947 H   0  0  0  0  0  0  0  0  0  0  0  0
   30.6822  -26.9930    1.5851 H   0  0  0  0  0  0  0  0  0  0  0  0
   27.4049  -19.1733    1.5311 H   0  0  0  0  0  0  0  0  0  0  0  0
   27.7729  -19.7564   -0.0900 H   0  0  0  0  0  0  0  0  0  0  0  0
   25.3416  -18.5519    0.7291 H   0  0  0  0  0  0  0  0  0  0  0  0
   29.8236  -20.0279    0.9477 H   0  0  0  0  0  0  0  0  0  0  0  0
   29.6310  -18.7736    2.0061 H   0  0  0  0  0  0  0  0  0  0  0  0
  1  2  2  0
  1 19  1  0
  2  4  1  0
  2  5  1  0
  3  7  1  0
  3 11  1  0
  4 18  2  0
  4 28  1  0
  5  6  2  0
  6 28  1  0
  7 21  1  0
  7 23  1  0
 11  8  1  0
  8 13  1  0
  8 22  2  0
  9 10  2  0
  9 22  1  0
  9 29  1  0
 10 12  1  0
 11 20  1  0
 12 13  2  0
 14 15  1  0
 14 24  1  0
 15 25  1  0
 16 17  1  0
 16 25  1  0
 17 24  1  0
 18 25  1  0
 18 26  1  0
 19 26  2  0
 20 23  1  0
 21 24  1  0
 21 27  2  0
  1 30  1  0
  3 31  1  0
  3 32  1  0
  5 33  1  0
  6 34  1  0
  7 35  1  1
 10 36  1  0
 11 37  1  1
 12 38  1  0
 13 39  1  0
 14 40  1  0
 14 41  1  0
 15 42  1  0
 15 43  1  0
 16 44  1  0
 16 45  1  0
 17 46  1  0
 17 47  1  0
 19 48  1  0
 20 49  1  0
 20 50  1  0
 22 51  1  0
 23 52  1  0
 23 53  1  0
M  CHG  1  23   1
M  END
>  <filename_input>  (19) 
7ZZW_KKW_docked.sdf

>  <pdb_id>  (19) 
7ZZW_KKW

>  <pose_rank>  (19) 
18

>  <num_atoms_heavy>  (19) 
29

>  <num_torsions>  (19) 
3

>  <pose>  (19) 
[30.990659404255847, -20.916322519401678, 0.6473151518039998, -0.8504771968452932, 0.5069647779440787, -1.6808900052229612, 3.048258893109788, 2.486703515225881, -3.138552510593836]

>  <energy>  (19) 
-289.1688869220609

>  <inter_energy>  (19) 
-392.042447582031

>  <intra_energy>  (19) 
90.70494857668609

>  <rmsd>  (19) 
9.23838

>  <sdf_rank>  (19) 
0

$$$$

     RDKit          3D

 53 57  0  0  0  0  0  0  0  0999 V2000
   26.8127  -13.5760   -4.7437 C   0  0  0  0  0  0  0  0  0  0  0  0
   25.8857  -13.8254   -3.7154 C   0  0  0  0  0  0  0  0  0  0  0  0
   31.2636  -21.1759    0.6629 C   0  0  0  0  0  0  0  0  0  0  0  0
   26.3024  -14.6633   -2.6403 C   0  0  0  0  0  0  0  0  0  0  0  0
   24.5340  -13.4105   -3.4781 C   0  0  0  0  0  0  0  0  0  0  0  0
   24.0158  -13.9080   -2.3257 C   0  0  0  0  0  0  0  0  0  0  0  0
   31.0609  -19.6982    0.2503 C   0  0  2  0  0  0  0  0  0  0  0  0
   32.0880  -23.2070   -0.6769 C   0  0  0  0  0  0  0  0  0  0  0  0
   32.4562  -25.4620    0.0453 C   0  0  0  0  0  0  0  0  0  0  0  0
   31.9361  -25.9534   -1.1313 C   0  0  0  0  0  0  0  0  0  0  0  0
   32.1533  -21.7065   -0.4648 C   0  0  1  0  0  0  0  0  0  0  0  0
   31.4899  -25.0729   -2.0859 C   0  0  0  0  0  0  0  0  0  0  0  0
   31.5664  -23.7143   -1.8596 C   0  0  0  0  0  0  0  0  0  0  0  0
   30.0507  -17.0437   -0.4404 C   0  0  0  0  0  0  0  0  0  0  0  0
   29.5151  -16.4141   -1.7303 C   0  0  0  0  0  0  0  0  0  0  0  0
   27.2606  -17.1589   -1.1639 C   0  0  0  0  0  0  0  0  0  0  0  0
   27.7686  -17.6996    0.1647 C   0  0  0  0  0  0  0  0  0  0  0  0
   27.6087  -15.2144   -2.6320 C   0  0  0  0  0  0  0  0  0  0  0  0
   28.0652  -14.1509   -4.6553 C   0  0  0  0  0  0  0  0  0  0  0  0
   31.6664  -20.8972   -1.6793 C   0  0  0  0  0  0  0  0  0  0  0  0
   29.5948  -19.3281    0.4243 C   0  0  0  0  0  0  0  0  0  0  0  0
   32.5388  -24.1039    0.2866 C   0  0  0  0  0  0  0  0  0  0  0  0
   31.4815  -19.5248   -1.1626 N   0  0  0  0  0  0  0  0  0  0  0  0
   29.1648  -18.1092    0.0318 N   0  0  0  0  0  0  0  0  0  0  0  0
   28.0983  -16.0439   -1.6130 N   0  0  0  0  0  0  0  0  0  0  0  0
   28.4626  -14.9428   -3.6414 N   0  0  0  0  0  0  0  0  0  0  0  0
   28.8275  -20.1439    0.9185 O   0  0  0  0  0  0  0  0  0  0  0  0
   25.1000  -14.9078   -1.4396 S   0  0  0  0  0  0  0  0  0  0  0  0
   33.0228  -26.5778    1.2549 Cl  0  0  0  0  0  0  0  0  0  0  0  0
   26.5459  -12.9376   -5.5989 H   0  0  0  0  0  0  0  0  0  0  0  0
   31.7671  -21.2525    1.6379 H   0  0  0  0  0  0  0  0  0  0  0  0
   30.3234  -21.7339    0.7837 H   0  0  0  0  0  0  0  0  0  0  0  0
   23.9732  -12.7551   -4.1607 H   0  0  0  0  0  0  0  0  0  0  0  0
   22.9917  -13.6907   -1.9880 H   0  0  0  0  0  0  0  0  0  0  0  0
   31.6704  -19.0376    0.8844 H   0  0  0  0  0  0  0  0  0  0  0  0
   31.8787  -27.0381   -1.3043 H   0  0  0  0  0  0  0  0  0  0  0  0
   33.2230  -21.5738   -0.2455 H   0  0  0  0  0  0  0  0  0  0  0  0
   31.0717  -25.4508   -3.0305 H   0  0  0  0  0  0  0  0  0  0  0  0
   31.2069  -23.0184   -2.6319 H   0  0  0  0  0  0  0  0  0  0  0  0
   31.0484  -17.4649   -0.6333 H   0  0  0  0  0  0  0  0  0  0  0  0
   30.1040  -16.2641    0.3337 H   0  0  0  0  0  0  0  0  0  0  0  0
   30.1011  -15.5107   -1.9548 H   0  0  0  0  0  0  0  0  0  0  0  0
   29.6071  -17.1576   -2.5358 H   0  0  0  0  0  0  0  0  0  0  0  0
   27.2893  -17.9605   -1.9167 H   0  0  0  0  0  0  0  0  0  0  0  0
   26.2286  -16.8012   -1.0335 H   0  0  0  0  0  0  0  0  0  0  0  0
   27.6897  -16.9154    0.9321 H   0  0  0  0  0  0  0  0  0  0  0  0
   27.1618  -18.5687    0.4587 H   0  0  0  0  0  0  0  0  0  0  0  0
   28.7833  -13.9492   -5.4638 H   0  0  0  0  0  0  0  0  0  0  0  0
   32.4180  -20.9119   -2.4823 H   0  0  0  0  0  0  0  0  0  0  0  0
   30.7422  -21.3084   -2.1114 H   0  0  0  0  0  0  0  0  0  0  0  0
   32.9582  -23.7343    1.2340 H   0  0  0  0  0  0  0  0  0  0  0  0
   30.7537  -19.0313   -1.6988 H   0  0  0  0  0  0  0  0  0  0  0  0
   32.3406  -18.9624   -1.2437 H   0  0  0  0  0  0  0  0  0  0  0  0
  1  2  2  0
  1 19  1  0
  2  4  1  0
  2  5  1  0
  3  7  1  0
  3 11  1  0
  4 18  2  0
  4 28  1  0
  5  6  2  0
  6 28  1  0
  7 21  1  0
  7 23  1  0
 11  8  1  0
  8 13  1  0
  8 22  2  0
  9 10  2  0
  9 22  1  0
  9 29  1  0
 10 12  1  0
 11 20  1  0
 12 13  2  0
 14 15  1  0
 14 24  1  0
 15 25  1  0
 16 17  1  0
 16 25  1  0
 17 24  1  0
 18 25  1  0
 18 26  1  0
 19 26  2  0
 20 23  1  0
 21 24  1  0
 21 27  2  0
  1 30  1  0
  3 31  1  0
  3 32  1  0
  5 33  1  0
  6 34  1  0
  7 35  1  1
 10 36  1  0
 11 37  1  1
 12 38  1  0
 13 39  1  0
 14 40  1  0
 14 41  1  0
 15 42  1  0
 15 43  1  0
 16 44  1  0
 16 45  1  0
 17 46  1  0
 17 47  1  0
 19 48  1  0
 20 49  1  0
 20 50  1  0
 22 51  1  0
 23 52  1  0
 23 53  1  0
M  CHG  1  23   1
M  END
>  <filename_input>  (20) 
7ZZW_KKW_docked.sdf

>  <pdb_id>  (20) 
7ZZW_KKW

>  <pose_rank>  (20) 
19

>  <num_atoms_heavy>  (20) 
29

>  <num_torsions>  (20) 
3

>  <pose>  (20) 
[30.050722410574444, -17.043746843034345, -0.4404301242370664, 0.5916257060875723, -1.998332584792198, -4.038137440099824, -2.1002045485424774, -4.460316785680328, -0.7558320099098829]

>  <energy>  (20) 
-258.6063884927755

>  <inter_energy>  (20) 
-296.825147840679

>  <intra_energy>  (20) 
34.390597248651865

>  <rmsd>  (20) 
9.93346

>  <sdf_rank>  (20) 
0

$$$$

     RDKit          3D

 53 57  0  0  0  0  0  0  0  0999 V2000
   32.8424  -22.1798   -8.2020 C   0  0  0  0  0  0  0  0  0  0  0  0
   31.9265  -22.9535   -7.4662 C   0  0  0  0  0  0  0  0  0  0  0  0
   31.2824  -17.3315   -1.4804 C   0  0  0  0  0  0  0  0  0  0  0  0
   31.6957  -22.5884   -6.1079 C   0  0  0  0  0  0  0  0  0  0  0  0
   31.1190  -24.0962   -7.7790 C   0  0  0  0  0  0  0  0  0  0  0  0
   30.3663  -24.5226   -6.7322 C   0  0  0  0  0  0  0  0  0  0  0  0
   32.4060  -17.6621   -0.4689 C   0  0  2  0  0  0  0  0  0  0  0  0
   28.8936  -16.4549   -1.1264 C   0  0  0  0  0  0  0  0  0  0  0  0
   26.5762  -17.0252   -0.9111 C   0  0  0  0  0  0  0  0  0  0  0  0
   26.2764  -16.3666   -2.0826 C   0  0  0  0  0  0  0  0  0  0  0  0
   30.3290  -16.4806   -0.6368 C   0  0  1  0  0  0  0  0  0  0  0  0
   27.2847  -15.7495   -2.7812 C   0  0  0  0  0  0  0  0  0  0  0  0
   28.5793  -15.7948   -2.3069 C   0  0  0  0  0  0  0  0  0  0  0  0
   31.3682  -19.3320   -2.6318 C   0  0  0  0  0  0  0  0  0  0  0  0
   31.8424  -19.6411   -4.0554 C   0  0  0  0  0  0  0  0  0  0  0  0
   33.1739  -21.5053   -3.2130 C   0  0  0  0  0  0  0  0  0  0  0  0
   32.6303  -21.2658   -1.8120 C   0  0  0  0  0  0  0  0  0  0  0  0
   32.3785  -21.4821   -5.5420 C   0  0  0  0  0  0  0  0  0  0  0  0
   33.4616  -21.1174   -7.5735 C   0  0  0  0  0  0  0  0  0  0  0  0
   30.4847  -17.0985    0.7635 C   0  0  0  0  0  0  0  0  0  0  0  0
   32.7657  -19.1363   -0.5867 C   0  0  0  0  0  0  0  0  0  0  0  0
   27.8679  -17.0787   -0.4230 C   0  0  0  0  0  0  0  0  0  0  0  0
   31.9355  -17.3450    0.9027 N   0  0  0  0  0  0  0  0  0  0  0  0
   32.3114  -19.8504   -1.6394 N   0  0  0  0  0  0  0  0  0  0  0  0
   32.2072  -21.0549   -4.2175 N   0  0  0  0  0  0  0  0  0  0  0  0
   33.2463  -20.7692   -6.2908 N   0  0  0  0  0  0  0  0  0  0  0  0
   33.4631  -19.6518    0.2774 O   0  0  0  0  0  0  0  0  0  0  0  0
   30.5651  -23.5942   -5.2972 S   0  0  0  0  0  0  0  0  0  0  0  0
   25.2985  -17.8085   -0.0261 Cl  0  0  0  0  0  0  0  0  0  0  0  0
   33.0605  -22.4158   -9.2540 H   0  0  0  0  0  0  0  0  0  0  0  0
   31.6719  -16.7631   -2.3378 H   0  0  0  0  0  0  0  0  0  0  0  0
   30.8084  -18.2212   -1.9207 H   0  0  0  0  0  0  0  0  0  0  0  0
   31.1102  -24.5790   -8.7673 H   0  0  0  0  0  0  0  0  0  0  0  0
   29.6884  -25.3864   -6.7961 H   0  0  0  0  0  0  0  0  0  0  0  0
   33.3019  -17.0609   -0.6833 H   0  0  0  0  0  0  0  0  0  0  0  0
   25.2416  -16.3352   -2.4544 H   0  0  0  0  0  0  0  0  0  0  0  0
   30.5821  -15.4109   -0.6783 H   0  0  0  0  0  0  0  0  0  0  0  0
   27.0603  -15.2194   -3.7186 H   0  0  0  0  0  0  0  0  0  0  0  0
   29.3791  -15.2977   -2.8754 H   0  0  0  0  0  0  0  0  0  0  0  0
   31.2815  -18.2422   -2.5104 H   0  0  0  0  0  0  0  0  0  0  0  0
   30.3933  -19.8166   -2.4746 H   0  0  0  0  0  0  0  0  0  0  0  0
   31.0327  -19.4000   -4.7599 H   0  0  0  0  0  0  0  0  0  0  0  0
   32.7371  -19.0335   -4.2558 H   0  0  0  0  0  0  0  0  0  0  0  0
   34.1136  -20.9474   -3.3379 H   0  0  0  0  0  0  0  0  0  0  0  0
   33.3542  -22.5821   -3.3476 H   0  0  0  0  0  0  0  0  0  0  0  0
   31.7198  -21.8656   -1.6662 H   0  0  0  0  0  0  0  0  0  0  0  0
   33.3902  -21.5594   -1.0728 H   0  0  0  0  0  0  0  0  0  0  0  0
   34.1755  -20.5179   -8.1575 H   0  0  0  0  0  0  0  0  0  0  0  0
   30.1334  -16.4003    1.5374 H   0  0  0  0  0  0  0  0  0  0  0  0
   29.8921  -18.0176    0.8822 H   0  0  0  0  0  0  0  0  0  0  0  0
   28.0838  -17.6107    0.5152 H   0  0  0  0  0  0  0  0  0  0  0  0
   32.1085  -18.1380    1.5369 H   0  0  0  0  0  0  0  0  0  0  0  0
   32.4286  -16.5339    1.3025 H   0  0  0  0  0  0  0  0  0  0  0  0
  1  2  2  0
  1 19  1  0
  2  4  1  0
  2  5  1  0
  3  7  1  0
  3 11  1  0
  4 18  2  0
  4 28  1  0
  5  6  2  0
  6 28  1  0
  7 21  1  0
  7 23  1  0
 11  8  1  0
  8 13  1  0
  8 22  2  0
  9 10  2  0
  9 22  1  0
  9 29  1  0
 10 12  1  0
 11 20  1  0
 12 13  2  0
 14 15  1  0
 14 24  1  0
 15 25  1  0
 16 17  1  0
 16 25  1  0
 17 24  1  0
 18 25  1  0
 18 26  1  0
 19 26  2  0
 20 23  1  0
 21 24  1  0
 21 27  2  0
  1 30  1  0
  3 31  1  0
  3 32  1  0
  5 33  1  0
  6 34  1  0
  7 35  1  6
 10 36  1  0
 11 37  1  1
 12 38  1  0
 13 39  1  0
 14 40  1  0
 14 41  1  0
 15 42  1  0
 15 43  1  0
 16 44  1  0
 16 45  1  0
 17 46  1  0
 17 47  1  0
 19 48  1  0
 20 49  1  0
 20 50  1  0
 22 51  1  0
 23 52  1  0
 23 53  1  0
M  CHG  1  23   1
M  END
>  <filename_input>  (21) 
7ZZW_KKW_docked.sdf

>  <pdb_id>  (21) 
7ZZW_KKW

>  <pose_rank>  (21) 
20

>  <num_atoms_heavy>  (21) 
29

>  <num_torsions>  (21) 
3

>  <pose>  (21) 
[31.368231653539077, -19.332022472692067, -2.6318025562112934, 1.7303996443510434, -0.012703229339492736, -2.2193342413197263, -1.2417997981042, -1.18243229856859, 2.310964882459412]

>  <energy>  (21) 
-191.01926626223272

>  <inter_energy>  (21) 
-258.2276730814476

>  <intra_energy>  (21) 
70.09759437729545

>  <rmsd>  (21) 
10.3468

>  <sdf_rank>  (21) 
0

$$$$

     RDKit          3D

 53 57  0  0  0  0  0  0  0  0999 V2000
   27.6011  -11.2695   -6.6789 C   0  0  0  0  0  0  0  0  0  0  0  0
   28.6347  -11.9252   -5.9857 C   0  0  0  0  0  0  0  0  0  0  0  0
   27.4281  -17.6401   -1.4177 C   0  0  0  0  0  0  0  0  0  0  0  0
   28.2721  -12.7282   -4.8653 C   0  0  0  0  0  0  0  0  0  0  0  0
   30.0581  -11.9796   -6.1493 C   0  0  0  0  0  0  0  0  0  0  0  0
   30.6741  -12.7581   -5.2228 C   0  0  0  0  0  0  0  0  0  0  0  0
   26.0736  -17.8833   -0.7099 C   0  0  2  0  0  0  0  0  0  0  0  0
   29.7767  -17.2078   -0.4704 C   0  0  0  0  0  0  0  0  0  0  0  0
   32.1282  -17.0291   -0.0455 C   0  0  0  0  0  0  0  0  0  0  0  0
   32.2181  -15.9176   -0.8533 C   0  0  0  0  0  0  0  0  0  0  0  0
   28.4314  -17.8841   -0.2869 C   0  0  1  0  0  0  0  0  0  0  0  0
   31.0869  -15.4464   -1.4729 C   0  0  0  0  0  0  0  0  0  0  0  0
   29.8795  -16.0858   -1.2818 C   0  0  0  0  0  0  0  0  0  0  0  0
   26.9936  -15.2571   -1.6046 C   0  0  0  0  0  0  0  0  0  0  0  0
   27.3881  -14.6777   -2.9669 C   0  0  0  0  0  0  0  0  0  0  0  0
   25.0678  -14.0377   -3.3725 C   0  0  0  0  0  0  0  0  0  0  0  0
   24.6868  -14.5215   -1.9810 C   0  0  0  0  0  0  0  0  0  0  0  0
   26.9118  -12.8443   -4.4828 C   0  0  0  0  0  0  0  0  0  0  0  0
   26.3026  -11.4393   -6.2402 C   0  0  0  0  0  0  0  0  0  0  0  0
   27.6631  -17.3878    0.9501 C   0  0  0  0  0  0  0  0  0  0  0  0
   25.0981  -16.7849   -1.1080 C   0  0  0  0  0  0  0  0  0  0  0  0
   30.9261  -17.6805    0.1551 C   0  0  0  0  0  0  0  0  0  0  0  0
   26.2858  -17.8891    0.7592 N   0  0  0  0  0  0  0  0  0  0  0  0
   25.5731  -15.6097   -1.5747 N   0  0  0  0  0  0  0  0  0  0  0  0
   26.4702  -13.6147   -3.3976 N   0  0  0  0  0  0  0  0  0  0  0  0
   25.9560  -12.1970   -5.1824 N   0  0  0  0  0  0  0  0  0  0  0  0
   23.8955  -16.9857   -0.9983 O   0  0  0  0  0  0  0  0  0  0  0  0
   29.6035  -13.4826   -4.0872 S   0  0  0  0  0  0  0  0  0  0  0  0
   33.5616  -17.6258    0.7409 Cl  0  0  0  0  0  0  0  0  0  0  0  0
   27.8220  -10.6359   -7.5505 H   0  0  0  0  0  0  0  0  0  0  0  0
   27.5790  -18.3493   -2.2449 H   0  0  0  0  0  0  0  0  0  0  0  0
   27.5140  -16.6445   -1.8774 H   0  0  0  0  0  0  0  0  0  0  0  0
   30.5968  -11.4446   -6.9453 H   0  0  0  0  0  0  0  0  0  0  0  0
   31.7630  -12.9123   -5.2002 H   0  0  0  0  0  0  0  0  0  0  0  0
   25.6546  -18.8549   -1.0105 H   0  0  0  0  0  0  0  0  0  0  0  0
   33.1845  -15.4132   -1.0005 H   0  0  0  0  0  0  0  0  0  0  0  0
   28.7359  -18.9392   -0.2240 H   0  0  0  0  0  0  0  0  0  0  0  0
   31.1434  -14.5596   -2.1213 H   0  0  0  0  0  0  0  0  0  0  0  0
   28.9798  -15.6987   -1.7825 H   0  0  0  0  0  0  0  0  0  0  0  0
   27.5921  -16.1595   -1.4107 H   0  0  0  0  0  0  0  0  0  0  0  0
   27.1817  -14.4961   -0.8329 H   0  0  0  0  0  0  0  0  0  0  0  0
   28.4043  -14.2627   -2.8958 H   0  0  0  0  0  0  0  0  0  0  0  0
   27.3414  -15.4890   -3.7083 H   0  0  0  0  0  0  0  0  0  0  0  0
   24.9226  -14.8557   -4.0935 H   0  0  0  0  0  0  0  0  0  0  0  0
   24.4310  -13.1817   -3.6405 H   0  0  0  0  0  0  0  0  0  0  0  0
   24.7792  -13.6896   -1.2672 H   0  0  0  0  0  0  0  0  0  0  0  0
   23.6486  -14.8849   -1.9947 H   0  0  0  0  0  0  0  0  0  0  0  0
   25.5013  -10.9232   -6.7893 H   0  0  0  0  0  0  0  0  0  0  0  0
   28.1021  -17.7994    1.8709 H   0  0  0  0  0  0  0  0  0  0  0  0
   27.6983  -16.2931    1.0517 H   0  0  0  0  0  0  0  0  0  0  0  0
   30.8783  -18.5668    0.8049 H   0  0  0  0  0  0  0  0  0  0  0  0
   25.6074  -17.2697    1.2252 H   0  0  0  0  0  0  0  0  0  0  0  0
   26.1563  -18.8271    1.1646 H   0  0  0  0  0  0  0  0  0  0  0  0
  1  2  2  0
  1 19  1  0
  2  4  1  0
  2  5  1  0
  3  7  1  0
  3 11  1  0
  4 18  2  0
  4 28  1  0
  5  6  2  0
  6 28  1  0
  7 21  1  0
  7 23  1  0
 11  8  1  0
  8 13  1  0
  8 22  2  0
  9 10  2  0
  9 22  1  0
  9 29  1  0
 10 12  1  0
 11 20  1  0
 12 13  2  0
 14 15  1  0
 14 24  1  0
 15 25  1  0
 16 17  1  0
 16 25  1  0
 17 24  1  0
 18 25  1  0
 18 26  1  0
 19 26  2  0
 20 23  1  0
 21 24  1  0
 21 27  2  0
  1 30  1  0
  3 31  1  0
  3 32  1  0
  5 33  1  0
  6 34  1  0
  7 35  1  6
 10 36  1  0
 11 37  1  1
 12 38  1  0
 13 39  1  0
 14 40  1  0
 14 41  1  0
 15 42  1  0
 15 43  1  0
 16 44  1  0
 16 45  1  0
 17 46  1  0
 17 47  1  0
 19 48  1  0
 20 49  1  0
 20 50  1  0
 22 51  1  0
 23 52  1  0
 23 53  1  0
M  CHG  1  23   1
M  END
>  <filename_input>  (22) 
7ZZW_KKW_docked.sdf

>  <pdb_id>  (22) 
7ZZW_KKW

>  <pose_rank>  (22) 
21

>  <num_atoms_heavy>  (22) 
29

>  <num_torsions>  (22) 
3

>  <pose>  (22) 
[26.993615207596665, -15.25712905205581, -1.6045851870685102, 1.5902982465572577, -2.421688902356214, -4.336340256216347, 0.5746801098825337, 4.504093021202746, -2.3399206236091135]

>  <energy>  (22) 
-158.12365148714372

>  <inter_energy>  (22) 
-303.2495999544858

>  <intra_energy>  (22) 
145.06141229007528

>  <rmsd>  (22) 
8.9741

>  <sdf_rank>  (22) 
0

$$$$

     RDKit          3D

 53 57  0  0  0  0  0  0  0  0999 V2000
   21.8363  -28.0396   -5.1610 C   0  0  0  0  0  0  0  0  0  0  0  0
   22.9030  -27.7986   -6.0458 C   0  0  0  0  0  0  0  0  0  0  0  0
   30.1791  -24.2329   -1.3624 C   0  0  0  0  0  0  0  0  0  0  0  0
   24.1802  -27.5182   -5.4787 C   0  0  0  0  0  0  0  0  0  0  0  0
   23.0166  -27.7651   -7.4747 C   0  0  0  0  0  0  0  0  0  0  0  0
   24.2733  -27.4832   -7.9053 C   0  0  0  0  0  0  0  0  0  0  0  0
   29.9245  -24.7360   -2.8036 C   0  0  2  0  0  0  0  0  0  0  0  0
   32.2915  -23.2805   -0.2531 C   0  0  0  0  0  0  0  0  0  0  0  0
   33.3086  -24.1648    1.7282 C   0  0  0  0  0  0  0  0  0  0  0  0
   33.7971  -22.9224    2.0657 C   0  0  0  0  0  0  0  0  0  0  0  0
   31.4773  -23.4369   -1.5232 C   0  0  1  0  0  0  0  0  0  0  0  0
   33.5342  -21.8534    1.2448 C   0  0  0  0  0  0  0  0  0  0  0  0
   32.7885  -22.0324    0.0982 C   0  0  0  0  0  0  0  0  0  0  0  0
   27.1404  -25.5601   -2.4668 C   0  0  0  0  0  0  0  0  0  0  0  0
   25.9839  -25.8160   -3.4385 C   0  0  0  0  0  0  0  0  0  0  0  0
   26.6791  -28.1452   -3.6610 C   0  0  0  0  0  0  0  0  0  0  0  0
   27.7686  -27.9235   -2.6219 C   0  0  0  0  0  0  0  0  0  0  0  0
   24.3430  -27.4877   -4.0706 C   0  0  0  0  0  0  0  0  0  0  0  0
   22.0833  -27.9929   -3.8031 C   0  0  0  0  0  0  0  0  0  0  0  0
   32.2113  -24.2199   -2.6255 C   0  0  0  0  0  0  0  0  0  0  0  0
   29.5228  -26.2033   -2.7563 C   0  0  0  0  0  0  0  0  0  0  0  0
   32.5607  -24.3598    0.5827 C   0  0  0  0  0  0  0  0  0  0  0  0
   31.1590  -24.5558   -3.6077 N   0  0  0  0  0  0  0  0  0  0  0  0
   28.2164  -26.5333   -2.6623 N   0  0  0  0  0  0  0  0  0  0  0  0
   25.5634  -27.2235   -3.4326 N   0  0  0  0  0  0  0  0  0  0  0  0
   23.2882  -27.7285   -3.2635 N   0  0  0  0  0  0  0  0  0  0  0  0
   30.3934  -27.0626   -2.8044 O   0  0  0  0  0  0  0  0  0  0  0  0
   25.4128  -27.2363   -6.6399 S   0  0  0  0  0  0  0  0  0  0  0  0
   33.6407  -25.5196    2.7691 Cl  0  0  0  0  0  0  0  0  0  0  0  0
   20.8283  -28.2603   -5.5421 H   0  0  0  0  0  0  0  0  0  0  0  0
   29.3576  -23.5900   -1.0133 H   0  0  0  0  0  0  0  0  0  0  0  0
   30.2449  -25.0398   -0.6178 H   0  0  0  0  0  0  0  0  0  0  0  0
   22.1710  -27.9491   -8.1537 H   0  0  0  0  0  0  0  0  0  0  0  0
   24.5396  -27.4183   -8.9706 H   0  0  0  0  0  0  0  0  0  0  0  0
   29.1111  -24.1613   -3.2706 H   0  0  0  0  0  0  0  0  0  0  0  0
   34.3908  -22.7878    2.9819 H   0  0  0  0  0  0  0  0  0  0  0  0
   31.2884  -22.3842   -1.7802 H   0  0  0  0  0  0  0  0  0  0  0  0
   33.9180  -20.8550    1.5015 H   0  0  0  0  0  0  0  0  0  0  0  0
   32.5833  -21.1686   -0.5513 H   0  0  0  0  0  0  0  0  0  0  0  0
   27.5358  -24.5479   -2.6372 H   0  0  0  0  0  0  0  0  0  0  0  0
   26.7619  -25.6586   -1.4387 H   0  0  0  0  0  0  0  0  0  0  0  0
   25.1290  -25.1883   -3.1467 H   0  0  0  0  0  0  0  0  0  0  0  0
   26.3304  -25.5685   -4.4528 H   0  0  0  0  0  0  0  0  0  0  0  0
   27.0940  -27.9710   -4.6647 H   0  0  0  0  0  0  0  0  0  0  0  0
   26.3118  -29.1788   -3.5792 H   0  0  0  0  0  0  0  0  0  0  0  0
   27.3707  -28.1500   -1.6217 H   0  0  0  0  0  0  0  0  0  0  0  0
   28.6194  -28.5853   -2.8413 H   0  0  0  0  0  0  0  0  0  0  0  0
   21.2429  -28.1836   -3.1194 H   0  0  0  0  0  0  0  0  0  0  0  0
   32.9915  -23.5986   -3.0894 H   0  0  0  0  0  0  0  0  0  0  0  0
   32.7182  -25.1146   -2.2348 H   0  0  0  0  0  0  0  0  0  0  0  0
   32.1808  -25.3615    0.3333 H   0  0  0  0  0  0  0  0  0  0  0  0
   31.3950  -25.4246   -4.1080 H   0  0  0  0  0  0  0  0  0  0  0  0
   31.0504  -23.8230   -4.3234 H   0  0  0  0  0  0  0  0  0  0  0  0
  1  2  2  0
  1 19  1  0
  2  4  1  0
  2  5  1  0
  3  7  1  0
  3 11  1  0
  4 18  2  0
  4 28  1  0
  5  6  2  0
  6 28  1  0
  7 21  1  0
  7 23  1  0
 11  8  1  0
  8 13  1  0
  8 22  2  0
  9 10  2  0
  9 22  1  0
  9 29  1  0
 10 12  1  0
 11 20  1  0
 12 13  2  0
 14 15  1  0
 14 24  1  0
 15 25  1  0
 16 17  1  0
 16 25  1  0
 17 24  1  0
 18 25  1  0
 18 26  1  0
 19 26  2  0
 20 23  1  0
 21 24  1  0
 21 27  2  0
  1 30  1  0
  3 31  1  0
  3 32  1  0
  5 33  1  0
  6 34  1  0
  7 35  1  6
 10 36  1  0
 11 37  1  6
 12 38  1  0
 13 39  1  0
 14 40  1  0
 14 41  1  0
 15 42  1  0
 15 43  1  0
 16 44  1  0
 16 45  1  0
 17 46  1  0
 17 47  1  0
 19 48  1  0
 20 49  1  0
 20 50  1  0
 22 51  1  0
 23 52  1  0
 23 53  1  0
M  CHG  1  23   1
M  END
>  <filename_input>  (23) 
7ZZW_KKW_docked.sdf

>  <pdb_id>  (23) 
7ZZW_KKW

>  <pose_rank>  (23) 
22

>  <num_atoms_heavy>  (23) 
29

>  <num_torsions>  (23) 
3

>  <pose>  (23) 
[27.14036999256347, -25.56008941228993, -2.466825964110212, -0.2954736827368853, 0.22919623815200607, 3.1270074262942664, 2.2679718516604668, 6.467036070237881, 1.2107350897707283]

>  <energy>  (23) 
-171.32218306263644

>  <inter_energy>  (23) 
-188.04928838562512

>  <intra_energy>  (23) 
16.63972357335719

>  <rmsd>  (23) 
13.069

>  <sdf_rank>  (23) 
0

$$$$

     RDKit          3D

 53 57  0  0  0  0  0  0  0  0999 V2000
   28.0768  -11.0239   -6.8084 C   0  0  0  0  0  0  0  0  0  0  0  0
   28.8508  -10.9642   -5.6353 C   0  0  0  0  0  0  0  0  0  0  0  0
   27.0401  -17.3666   -1.3730 C   0  0  0  0  0  0  0  0  0  0  0  0
   28.3989  -11.7100   -4.5079 C   0  0  0  0  0  0  0  0  0  0  0  0
   30.0639  -10.2864   -5.2823 C   0  0  0  0  0  0  0  0  0  0  0  0
   30.4567  -10.5227   -4.0041 C   0  0  0  0  0  0  0  0  0  0  0  0
   25.5159  -17.5714   -1.2007 C   0  0  2  0  0  0  0  0  0  0  0  0
   28.9925  -17.7591    0.2500 C   0  0  0  0  0  0  0  0  0  0  0  0
   30.7953  -16.1840    0.3566 C   0  0  0  0  0  0  0  0  0  0  0  0
   31.5419  -17.0484    1.1258 C   0  0  0  0  0  0  0  0  0  0  0  0
   27.6088  -18.1801   -0.2070 C   0  0  1  0  0  0  0  0  0  0  0  0
   31.0166  -18.2723    1.4600 C   0  0  0  0  0  0  0  0  0  0  0  0
   29.7552  -18.6225    1.0251 C   0  0  0  0  0  0  0  0  0  0  0  0
   26.9674  -15.1528   -1.9670 C   0  0  0  0  0  0  0  0  0  0  0  0
   27.3594  -14.5309   -3.3111 C   0  0  0  0  0  0  0  0  0  0  0  0
   25.2423  -13.3176   -3.3734 C   0  0  0  0  0  0  0  0  0  0  0  0
   24.8897  -13.8539   -1.9936 C   0  0  0  0  0  0  0  0  0  0  0  0
   27.2083  -12.4753   -4.5911 C   0  0  0  0  0  0  0  0  0  0  0  0
   26.9319  -11.7962   -6.8038 C   0  0  0  0  0  0  0  0  0  0  0  0
   26.5297  -18.0058    0.8756 C   0  0  0  0  0  0  0  0  0  0  0  0
   24.8094  -16.2352   -1.3791 C   0  0  0  0  0  0  0  0  0  0  0  0
   29.5301  -16.5205   -0.0858 C   0  0  0  0  0  0  0  0  0  0  0  0
   25.2489  -18.1298    0.1485 N   0  0  0  0  0  0  0  0  0  0  0  0
   25.5135  -15.1602   -1.7953 N   0  0  0  0  0  0  0  0  0  0  0  0
   26.6966  -13.2386   -3.5320 N   0  0  0  0  0  0  0  0  0  0  0  0
   26.5018  -12.5022   -5.7409 N   0  0  0  0  0  0  0  0  0  0  0  0
   23.6110  -16.1568   -1.1417 O   0  0  0  0  0  0  0  0  0  0  0  0
   29.4096  -11.5694   -3.1274 S   0  0  0  0  0  0  0  0  0  0  0  0
   31.4614  -14.6332   -0.0680 Cl  0  0  0  0  0  0  0  0  0  0  0  0
   28.3766  -10.4680   -7.7090 H   0  0  0  0  0  0  0  0  0  0  0  0
   27.3885  -17.7583   -2.3401 H   0  0  0  0  0  0  0  0  0  0  0  0
   27.3476  -16.3105   -1.3664 H   0  0  0  0  0  0  0  0  0  0  0  0
   30.6203   -9.6400   -5.9769 H   0  0  0  0  0  0  0  0  0  0  0  0
   31.3654  -10.0832   -3.5670 H   0  0  0  0  0  0  0  0  0  0  0  0
   25.1373  -18.2756   -1.9562 H   0  0  0  0  0  0  0  0  0  0  0  0
   32.5472  -16.7618    1.4685 H   0  0  0  0  0  0  0  0  0  0  0  0
   27.7914  -19.2289   -0.4840 H   0  0  0  0  0  0  0  0  0  0  0  0
   31.6013  -18.9730    2.0740 H   0  0  0  0  0  0  0  0  0  0  0  0
   29.3450  -19.6060    1.2981 H   0  0  0  0  0  0  0  0  0  0  0  0
   27.3393  -16.1873   -1.9274 H   0  0  0  0  0  0  0  0  0  0  0  0
   27.4120  -14.5517   -1.1603 H   0  0  0  0  0  0  0  0  0  0  0  0
   28.4487  -14.3792   -3.3283 H   0  0  0  0  0  0  0  0  0  0  0  0
   27.0414  -15.2174   -4.1096 H   0  0  0  0  0  0  0  0  0  0  0  0
   24.8297  -13.9898   -4.1402 H   0  0  0  0  0  0  0  0  0  0  0  0
   24.8149  -12.3103   -3.4857 H   0  0  0  0  0  0  0  0  0  0  0  0
   25.2542  -13.1550   -1.2263 H   0  0  0  0  0  0  0  0  0  0  0  0
   23.7976  -13.9572   -1.9125 H   0  0  0  0  0  0  0  0  0  0  0  0
   26.3339  -11.8372   -7.7261 H   0  0  0  0  0  0  0  0  0  0  0  0
   26.6186  -18.7896    1.6423 H   0  0  0  0  0  0  0  0  0  0  0  0
   26.6189  -17.0444    1.4027 H   0  0  0  0  0  0  0  0  0  0  0  0
   28.9519  -15.8139   -0.6993 H   0  0  0  0  0  0  0  0  0  0  0  0
   24.5098  -17.5917    0.6230 H   0  0  0  0  0  0  0  0  0  0  0  0
   24.9221  -19.1057    0.1050 H   0  0  0  0  0  0  0  0  0  0  0  0
  1  2  2  0
  1 19  1  0
  2  4  1  0
  2  5  1  0
  3  7  1  0
  3 11  1  0
  4 18  2  0
  4 28  1  0
  5  6  2  0
  6 28  1  0
  7 21  1  0
  7 23  1  0
 11  8  1  0
  8 13  1  0
  8 22  2  0
  9 10  2  0
  9 22  1  0
  9 29  1  0
 10 12  1  0
 11 20  1  0
 12 13  2  0
 14 15  1  0
 14 24  1  0
 15 25  1  0
 16 17  1  0
 16 25  1  0
 17 24  1  0
 18 25  1  0
 18 26  1  0
 19 26  2  0
 20 23  1  0
 21 24  1  0
 21 27  2  0
  1 30  1  0
  3 31  1  0
  3 32  1  0
  5 33  1  0
  6 34  1  0
  7 35  1  6
 10 36  1  0
 11 37  1  6
 12 38  1  0
 13 39  1  0
 14 40  1  0
 14 41  1  0
 15 42  1  0
 15 43  1  0
 16 44  1  0
 16 45  1  0
 17 46  1  0
 17 47  1  0
 19 48  1  0
 20 49  1  0
 20 50  1  0
 22 51  1  0
 23 52  1  0
 23 53  1  0
M  CHG  1  23   1
M  END
>  <filename_input>  (24) 
7ZZW_KKW_docked.sdf

>  <pdb_id>  (24) 
7ZZW_KKW

>  <pose_rank>  (24) 
23

>  <num_atoms_heavy>  (24) 
29

>  <num_torsions>  (24) 
3

>  <pose>  (24) 
[26.967355109632138, -15.152821108264128, -1.9670470677722642, -0.9383924561321328, 4.568534922445809, 5.4747000970763, -0.41831086336248136, 5.014963791317424, 0.6946039676515422]

>  <energy>  (24) 
-246.42334539551302

>  <inter_energy>  (24) 
-327.61963565952044

>  <intra_energy>  (24) 
79.55200490715151

>  <rmsd>  (24) 
8.58559

>  <sdf_rank>  (24) 
0

$$$$

     RDKit          3D

 53 57  0  0  0  0  0  0  0  0999 V2000
   26.3387  -15.5843   -4.1830 C   0  0  0  0  0  0  0  0  0  0  0  0
   26.3579  -16.1788   -2.9082 C   0  0  0  0  0  0  0  0  0  0  0  0
   33.2710  -14.9828    3.3632 C   0  0  0  0  0  0  0  0  0  0  0  0
   27.5627  -16.0818   -2.1529 C   0  0  0  0  0  0  0  0  0  0  0  0
   25.3907  -16.9067   -2.1400 C   0  0  0  0  0  0  0  0  0  0  0  0
   25.8582  -17.3037   -0.9284 C   0  0  0  0  0  0  0  0  0  0  0  0
   32.9541  -15.6576    2.0071 C   0  0  2  0  0  0  0  0  0  0  0  0
   32.0587  -15.0845    5.6259 C   0  0  0  0  0  0  0  0  0  0  0  0
   32.5614  -13.5697    7.4133 C   0  0  0  0  0  0  0  0  0  0  0  0
   31.3341  -13.8021    7.9929 C   0  0  0  0  0  0  0  0  0  0  0  0
   32.4173  -15.7996    4.3372 C   0  0  1  0  0  0  0  0  0  0  0  0
   30.4640  -14.6775    7.3910 C   0  0  0  0  0  0  0  0  0  0  0  0
   30.8245  -15.3116    6.2202 C   0  0  0  0  0  0  0  0  0  0  0  0
   31.6494  -16.2532   -0.5399 C   0  0  0  0  0  0  0  0  0  0  0  0
   30.1891  -16.2902   -1.0016 C   0  0  0  0  0  0  0  0  0  0  0  0
   30.3063  -13.9217   -1.5798 C   0  0  0  0  0  0  0  0  0  0  0  0
   31.7837  -13.9018   -1.2160 C   0  0  0  0  0  0  0  0  0  0  0  0
   28.6876  -15.4065   -2.6902 C   0  0  0  0  0  0  0  0  0  0  0  0
   27.4783  -14.9438   -4.6284 C   0  0  0  0  0  0  0  0  0  0  0  0
   31.1925  -16.1624    3.4799 C   0  0  0  0  0  0  0  0  0  0  0  0
   32.7148  -14.5813    0.9579 C   0  0  0  0  0  0  0  0  0  0  0  0
   32.9364  -14.1968    6.2404 C   0  0  0  0  0  0  0  0  0  0  0  0
   31.7538  -16.5175    2.1595 N   0  0  0  0  0  0  0  0  0  0  0  0
   32.0516  -14.8932   -0.1767 N   0  0  0  0  0  0  0  0  0  0  0  0
   29.9073  -15.2631   -2.0134 N   0  0  0  0  0  0  0  0  0  0  0  0
   28.6182  -14.8499   -3.9180 N   0  0  0  0  0  0  0  0  0  0  0  0
   33.1289  -13.4472    1.1606 O   0  0  0  0  0  0  0  0  0  0  0  0
   27.4851  -16.8400   -0.6146 S   0  0  0  0  0  0  0  0  0  0  0  0
   33.6649  -12.4611    8.1766 Cl  0  0  0  0  0  0  0  0  0  0  0  0
   25.4366  -15.6287   -4.8108 H   0  0  0  0  0  0  0  0  0  0  0  0
   34.3406  -15.0614    3.6076 H   0  0  0  0  0  0  0  0  0  0  0  0
   33.0534  -13.9047    3.3819 H   0  0  0  0  0  0  0  0  0  0  0  0
   24.3724  -17.1220   -2.4961 H   0  0  0  0  0  0  0  0  0  0  0  0
   25.2496  -17.8724   -0.2099 H   0  0  0  0  0  0  0  0  0  0  0  0
   33.7992  -16.2839    1.6854 H   0  0  0  0  0  0  0  0  0  0  0  0
   31.0542  -13.2928    8.9268 H   0  0  0  0  0  0  0  0  0  0  0  0
   32.9577  -16.6744    4.7282 H   0  0  0  0  0  0  0  0  0  0  0  0
   29.4800  -14.8729    7.8423 H   0  0  0  0  0  0  0  0  0  0  0  0
   30.1197  -16.0115    5.7475 H   0  0  0  0  0  0  0  0  0  0  0  0
   31.7663  -16.9086    0.3358 H   0  0  0  0  0  0  0  0  0  0  0  0
   32.2870  -16.5975   -1.3675 H   0  0  0  0  0  0  0  0  0  0  0  0
   29.9773  -17.2803   -1.4317 H   0  0  0  0  0  0  0  0  0  0  0  0
   29.5507  -16.0919   -0.1281 H   0  0  0  0  0  0  0  0  0  0  0  0
   29.7121  -13.6329   -0.7003 H   0  0  0  0  0  0  0  0  0  0  0  0
   30.1308  -13.2128   -2.4025 H   0  0  0  0  0  0  0  0  0  0  0  0
   32.3826  -14.1372   -2.1082 H   0  0  0  0  0  0  0  0  0  0  0  0
   32.0520  -12.9026   -0.8422 H   0  0  0  0  0  0  0  0  0  0  0  0
   27.4531  -14.4813   -5.6262 H   0  0  0  0  0  0  0  0  0  0  0  0
   30.6531  -17.0167    3.9151 H   0  0  0  0  0  0  0  0  0  0  0  0
   30.4679  -15.3371    3.4171 H   0  0  0  0  0  0  0  0  0  0  0  0
   33.9221  -13.9957    5.7956 H   0  0  0  0  0  0  0  0  0  0  0  0
   31.0721  -16.3229    1.4123 H   0  0  0  0  0  0  0  0  0  0  0  0
   31.9853  -17.5191    2.0947 H   0  0  0  0  0  0  0  0  0  0  0  0
  1  2  2  0
  1 19  1  0
  2  4  1  0
  2  5  1  0
  3  7  1  0
  3 11  1  0
  4 18  2  0
  4 28  1  0
  5  6  2  0
  6 28  1  0
  7 21  1  0
  7 23  1  0
 11  8  1  0
  8 13  1  0
  8 22  2  0
  9 10  2  0
  9 22  1  0
  9 29  1  0
 10 12  1  0
 11 20  1  0
 12 13  2  0
 14 15  1  0
 14 24  1  0
 15 25  1  0
 16 17  1  0
 16 25  1  0
 17 24  1  0
 18 25  1  0
 18 26  1  0
 19 26  2  0
 20 23  1  0
 21 24  1  0
 21 27  2  0
  1 30  1  0
  3 31  1  0
  3 32  1  0
  5 33  1  0
  6 34  1  0
  7 35  1  6
 10 36  1  0
 11 37  1  1
 12 38  1  0
 13 39  1  0
 14 40  1  0
 14 41  1  0
 15 42  1  0
 15 43  1  0
 16 44  1  0
 16 45  1  0
 17 46  1  0
 17 47  1  0
 19 48  1  0
 20 49  1  0
 20 50  1  0
 22 51  1  0
 23 52  1  0
 23 53  1  0
M  CHG  1  23   1
M  END
>  <filename_input>  (25) 
7ZZW_KKW_docked.sdf

>  <pdb_id>  (25) 
7ZZW_KKW

>  <pose_rank>  (25) 
24

>  <num_atoms_heavy>  (25) 
29

>  <num_torsions>  (25) 
3

>  <pose>  (25) 
[31.649412134514566, -16.253183615109283, -0.5398653020399802, 0.34305948126393615, -3.6944509505949377, 1.2468836491222304, -4.892152273904912, 8.360120266564117, 6.0618985106602326]

>  <energy>  (25) 
-164.81156157272642

>  <inter_energy>  (25) 
-229.1591231425307

>  <intra_energy>  (25) 
67.18080005668834

>  <rmsd>  (25) 
10.7428

>  <sdf_rank>  (25) 
0

$$$$

     RDKit          3D

 53 57  0  0  0  0  0  0  0  0999 V2000
   29.4780  -16.3820   -2.1000 C   0  0  0  0  0  0  0  0  0  0  0  0
   29.3500  -17.2100   -0.9700 C   0  0  0  0  0  0  0  0  0  0  0  0
   20.8650  -19.7720    0.9680 C   0  0  0  0  0  0  0  0  0  0  0  0
   28.0370  -17.4390   -0.4650 C   0  0  0  0  0  0  0  0  0  0  0  0
   30.2880  -17.9230   -0.1530 C   0  0  0  0  0  0  0  0  0  0  0  0
   29.7010  -18.6110    0.8600 C   0  0  0  0  0  0  0  0  0  0  0  0
   21.1400  -19.4130   -0.5120 C   0  0  2  0  0  0  0  0  0  0  0  0
   18.7310  -20.5920    2.1400 C   0  0  0  0  0  0  0  0  0  0  0  0
   18.4970  -20.3870    4.5160 C   0  0  0  0  0  0  0  0  0  0  0  0
   17.1480  -20.6510    4.4340 C   0  0  0  0  0  0  0  0  0  0  0  0
   19.5600  -20.5670    0.8700 C   0  0  1  0  0  0  0  0  0  0  0  0
   16.5850  -20.8870    3.2040 C   0  0  0  0  0  0  0  0  0  0  0  0
   17.3700  -20.8580    2.0700 C   0  0  0  0  0  0  0  0  0  0  0  0
   23.8300  -18.5320    0.2170 C   0  0  0  0  0  0  0  0  0  0  0  0
   25.1520  -18.4130   -0.5480 C   0  0  0  0  0  0  0  0  0  0  0  0
   24.5600  -16.1450   -1.2290 C   0  0  0  0  0  0  0  0  0  0  0  0
   23.2920  -16.2200   -0.3910 C   0  0  0  0  0  0  0  0  0  0  0  0
   26.9170  -16.8410   -1.0960 C   0  0  0  0  0  0  0  0  0  0  0  0
   28.3340  -15.8420   -2.6540 C   0  0  0  0  0  0  0  0  0  0  0  0
   18.8460  -19.8870   -0.3110 C   0  0  0  0  0  0  0  0  0  0  0  0
   21.5570  -17.9520   -0.6020 C   0  0  0  0  0  0  0  0  0  0  0  0
   19.2960  -20.3540    3.3890 C   0  0  0  0  0  0  0  0  0  0  0  0
   19.9120  -19.6580   -1.3090 N   0  0  0  0  0  0  0  0  0  0  0  0
   22.8300  -17.6040   -0.3140 N   0  0  0  0  0  0  0  0  0  0  0  0
   25.5940  -17.0170   -0.6660 N   0  0  0  0  0  0  0  0  0  0  0  0
   27.0920  -16.0560   -2.1800 N   0  0  0  0  0  0  0  0  0  0  0  0
   20.7290  -17.1140   -0.9350 O   0  0  0  0  0  0  0  0  0  0  0  0
   27.9880  -18.4590    0.9150 S   0  0  0  0  0  0  0  0  0  0  0  0
   19.2110  -20.0890    6.0750 Cl  0  0  0  0  0  0  0  0  0  0  0  0
   30.4668  -16.1695   -2.5325 H   0  0  0  0  0  0  0  0  0  0  0  0
   21.6758  -20.3861    1.3869 H   0  0  0  0  0  0  0  0  0  0  0  0
   20.8002  -18.8962    1.6305 H   0  0  0  0  0  0  0  0  0  0  0  0
   31.3738  -17.9136   -0.3290 H   0  0  0  0  0  0  0  0  0  0  0  0
   30.2712  -19.2132    1.5827 H   0  0  0  0  0  0  0  0  0  0  0  0
   21.9519  -20.0381   -0.9121 H   0  0  0  0  0  0  0  0  0  0  0  0
   16.5288  -20.6726    5.3429 H   0  0  0  0  0  0  0  0  0  0  0  0
   19.7401  -21.6415    0.7180 H   0  0  0  0  0  0  0  0  0  0  0  0
   15.5087  -21.0991    3.1230 H   0  0  0  0  0  0  0  0  0  0  0  0
   16.9083  -21.0496    1.0902 H   0  0  0  0  0  0  0  0  0  0  0  0
   23.4516  -19.5606    0.1231 H   0  0  0  0  0  0  0  0  0  0  0  0
   24.0129  -18.2829    1.2727 H   0  0  0  0  0  0  0  0  0  0  0  0
   25.9243  -18.9865   -0.0144 H   0  0  0  0  0  0  0  0  0  0  0  0
   24.9948  -18.8073   -1.5628 H   0  0  0  0  0  0  0  0  0  0  0  0
   24.3351  -16.4657   -2.2569 H   0  0  0  0  0  0  0  0  0  0  0  0
   24.9277  -15.1083   -1.2296 H   0  0  0  0  0  0  0  0  0  0  0  0
   23.5019  -15.8483    0.6228 H   0  0  0  0  0  0  0  0  0  0  0  0
   22.5111  -15.6022   -0.8584 H   0  0  0  0  0  0  0  0  0  0  0  0
   28.4443  -15.1966   -3.5379 H   0  0  0  0  0  0  0  0  0  0  0  0
   18.0639  -20.5426   -0.7216 H   0  0  0  0  0  0  0  0  0  0  0  0
   18.3448  -18.9539   -0.0143 H   0  0  0  0  0  0  0  0  0  0  0  0
   20.3714  -20.1410    3.4787 H   0  0  0  0  0  0  0  0  0  0  0  0
   19.6906  -18.8393   -1.8934 H   0  0  0  0  0  0  0  0  0  0  0  0
   20.0200  -20.4575   -1.9493 H   0  0  0  0  0  0  0  0  0  0  0  0
  1  2  2  0
  1 19  1  0
  2  4  1  0
  2  5  1  0
  3  7  1  0
  3 11  1  0
  4 18  2  0
  4 28  1  0
  5  6  2  0
  6 28  1  0
  7 21  1  0
  7 23  1  0
 11  8  1  0
  8 13  1  0
  8 22  2  0
  9 10  2  0
  9 22  1  0
  9 29  1  0
 10 12  1  0
 11 20  1  0
 12 13  2  0
 14 15  1  0
 14 24  1  0
 15 25  1  0
 16 17  1  0
 16 25  1  0
 17 24  1  0
 18 25  1  0
 18 26  1  0
 19 26  2  0
 20 23  1  0
 21 24  1  0
 21 27  2  0
  1 30  1  0
  3 31  1  0
  3 32  1  0
  5 33  1  0
  6 34  1  0
  7 35  1  6
 10 36  1  0
 11 37  1  6
 12 38  1  0
 13 39  1  0
 14 40  1  0
 14 41  1  0
 15 42  1  0
 15 43  1  0
 16 44  1  0
 16 45  1  0
 17 46  1  0
 17 47  1  0
 19 48  1  0
 20 49  1  0
 20 50  1  0
 22 51  1  0
 23 52  1  0
 23 53  1  0
M  CHG  1  23   1
M  END
>  <filename_input>  (26) 
7ZZW_KKW_docked.sdf

>  <pdb_id>  (26) 
7ZZW_KKW

>  <pose_rank>  (26) 
25

>  <num_atoms_heavy>  (26) 
29

>  <num_torsions>  (26) 
3

>  <pose>  (26) 
[23.83, -18.532, 0.217, 1e-06, 1e-06, 1e-06, 0.0, 0.0, 0.0]

>  <energy>  (26) 
-1096.7536671005003

>  <inter_energy>  (26) 
-1123.7161376621189

>  <intra_energy>  (26) 
23.63713740637244

>  <rmsd>  (26) 
0.0

>  <sdf_rank>  (26) 
0

$$$$
