
     RDKit          3D

 41 42  0  0  0  0  0  0  0  0999 V2000
  -69.8419   38.6267   -6.6804 C   0  0  0  0  0  0  0  0  0  0  0  0
  -69.0312   39.8309   -6.1306 C   0  0  0  0  0  0  0  0  0  0  0  0
  -69.6816   40.9707   -5.7627 C   0  0  0  0  0  0  0  0  0  0  0  0
  -71.1809   41.1383   -5.7975 C   0  0  0  0  0  0  0  0  0  0  0  0
  -68.9125   42.0377   -5.3203 N   0  0  0  0  0  0  0  0  0  0  0  0
  -67.6118   41.8704   -5.3103 C   0  0  0  0  0  0  0  0  0  0  0  0
  -66.7783   43.0695   -4.8638 C   0  0  0  0  0  0  0  0  0  0  0  0
  -67.3355   44.1233   -4.6705 O   0  0  0  0  0  0  0  0  0  0  0  0
  -65.4737   42.8197   -4.8169 N   0  0  0  0  0  0  0  0  0  0  0  0
  -64.8022   41.6096   -5.0356 C   0  0  0  0  0  0  0  0  0  0  0  0
  -63.6286   41.4745   -4.8769 O   0  0  0  0  0  0  0  0  0  0  0  0
  -65.5693   40.5304   -5.5328 N   0  0  0  0  0  0  0  0  0  0  0  0
  -66.8531   40.7356   -5.6091 C   0  0  0  0  0  0  0  0  0  0  0  0
  -67.6940   39.6597   -6.0754 N   0  0  0  0  0  0  0  0  0  0  0  0
  -66.9277   38.5246   -6.6272 C   0  0  0  0  0  0  0  0  0  0  0  0
  -66.4619   38.9789   -8.0725 C   0  0  2  0  0  0  0  0  0  0  0  0
  -67.4230   39.8456   -8.7307 O   0  0  0  0  0  0  0  0  0  0  0  0
  -66.2078   37.8209   -9.1045 C   0  0  2  0  0  0  0  0  0  0  0  0
  -67.4420   37.0736   -9.2197 O   0  0  0  0  0  0  0  0  0  0  0  0
  -65.1451   36.8503   -8.6137 C   0  0  2  0  0  0  0  0  0  0  0  0
  -63.8336   37.4650   -8.5054 O   0  0  0  0  0  0  0  0  0  0  0  0
  -65.0972   35.6439   -9.5489 C   0  0  0  0  0  0  0  0  0  0  0  0
  -63.7797   35.1018   -9.7311 O   0  0  0  0  0  0  0  0  0  0  0  0
  -70.2385   38.0375   -5.8404 H   0  0  0  0  0  0  0  0  0  0  0  0
  -70.6759   38.9961   -7.2952 H   0  0  0  0  0  0  0  0  0  0  0  0
  -69.1858   37.9930   -7.2952 H   0  0  0  0  0  0  0  0  0  0  0  0
  -71.5689   41.1817   -4.7691 H   0  0  0  0  0  0  0  0  0  0  0  0
  -71.4335   42.0703   -6.3243 H   0  0  0  0  0  0  0  0  0  0  0  0
  -71.6331   40.2851   -6.3243 H   0  0  0  0  0  0  0  0  0  0  0  0
  -64.8746   43.6257   -4.5886 H   0  0  0  0  0  0  0  0  0  0  0  0
  -66.0547   38.3081   -5.9939 H   0  0  0  0  0  0  0  0  0  0  0  0
  -67.5347   37.6081   -6.6672 H   0  0  0  0  0  0  0  0  0  0  0  0
  -65.5153   39.4870   -7.8365 H   0  0  0  0  0  0  0  0  0  0  0  0
  -67.9557   40.3260   -8.0483 H   0  0  0  0  0  0  0  0  0  0  0  0
  -65.8744   38.2625  -10.0552 H   0  0  0  0  0  0  0  0  0  0  0  0
  -67.7870   36.8647   -8.3156 H   0  0  0  0  0  0  0  0  0  0  0  0
  -65.4228   36.5299   -7.5987 H   0  0  0  0  0  0  0  0  0  0  0  0
  -63.5986   37.5751   -7.5500 H   0  0  0  0  0  0  0  0  0  0  0  0
  -65.7414   34.8560   -9.1314 H   0  0  0  0  0  0  0  0  0  0  0  0
  -65.4397   35.9902  -10.5352 H   0  0  0  0  0  0  0  0  0  0  0  0
  -63.3675   34.9322   -8.8472 H   0  0  0  0  0  0  0  0  0  0  0  0
  1  2  1  0
  2  3  2  0
  2 14  1  0
  3  4  1  0
  3  5  1  0
  5  6  2  0
  6  7  1  0
  6 13  1  0
  7  8  2  0
  7  9  1  0
  9 10  1  0
 10 11  2  0
 10 12  1  0
 12 13  2  0
 13 14  1  0
 14 15  1  0
 15 16  1  0
 16 17  1  0
 16 18  1  0
 18 19  1  0
 18 20  1  0
 20 21  1  0
 20 22  1  0
 22 23  1  0
  1 24  1  0
  1 25  1  0
  1 26  1  0
  4 27  1  0
  4 28  1  0
  4 29  1  0
  9 30  1  0
 15 31  1  0
 15 32  1  0
 16 33  1  1
 17 34  1  0
 18 35  1  6
 19 36  1  0
 20 37  1  1
 21 38  1  0
 22 39  1  0
 22 40  1  0
 23 41  1  0
M  END
>  <filename_input>  (1) 
8A1H_DLZ_docked.sdf

>  <pdb_id>  (1) 
8A1H_DLZ

>  <pose_rank>  (1) 
0

>  <num_atoms_heavy>  (1) 
23

>  <num_torsions>  (1) 
5

>  <pose>  (1) 
[-69.84192285284412, 38.62665993909936, -6.680423102130465, 2.050350644208716, 3.014330844271636, 5.042834568441752, 0.022679838547276232, 0.02329131528164008, -0.13492964560466525, -0.3273239870563822, -0.5308229932299021]

>  <energy>  (1) 
-1032.71250785312

>  <inter_energy>  (1) 
-1040.5544365917128

>  <intra_energy>  (1) 
23.883937776201478

>  <rmsd>  (1) 
0.29518

>  <sdf_rank>  (1) 
0

$$$$

     RDKit          3D

 41 42  0  0  0  0  0  0  0  0999 V2000
  -68.3408   38.8749   -8.5932 C   0  0  0  0  0  0  0  0  0  0  0  0
  -67.9023   39.9316   -7.5440 C   0  0  0  0  0  0  0  0  0  0  0  0
  -68.8308   40.7675   -6.9994 C   0  0  0  0  0  0  0  0  0  0  0  0
  -70.3071   40.7069   -7.3056 C   0  0  0  0  0  0  0  0  0  0  0  0
  -68.3863   41.7267   -6.1004 N   0  0  0  0  0  0  0  0  0  0  0  0
  -67.0977   41.7658   -5.8601 C   0  0  0  0  0  0  0  0  0  0  0  0
  -66.6200   42.8561   -4.9034 C   0  0  0  0  0  0  0  0  0  0  0  0
  -67.4131   43.6851   -4.5268 O   0  0  0  0  0  0  0  0  0  0  0  0
  -65.3156   42.8066   -4.6530 N   0  0  0  0  0  0  0  0  0  0  0  0
  -64.3748   41.8583   -5.0757 C   0  0  0  0  0  0  0  0  0  0  0  0
  -63.2387   41.8578   -4.7151 O   0  0  0  0  0  0  0  0  0  0  0  0
  -64.8062   40.9066   -6.0288 N   0  0  0  0  0  0  0  0  0  0  0  0
  -66.0764   40.9277   -6.3156 C   0  0  0  0  0  0  0  0  0  0  0  0
  -66.5846   39.9574   -7.2551 N   0  0  0  0  0  0  0  0  0  0  0  0
  -65.5168   39.2054   -7.9439 C   0  0  0  0  0  0  0  0  0  0  0  0
  -65.8243   37.6738   -7.6761 C   0  0  2  0  0  0  0  0  0  0  0  0
  -65.9700   37.3639   -6.2651 O   0  0  0  0  0  0  0  0  0  0  0  0
  -64.7400   36.6586   -8.1901 C   0  0  2  0  0  0  0  0  0  0  0  0
  -63.5130   37.4031   -8.3771 O   0  0  0  0  0  0  0  0  0  0  0  0
  -65.1130   36.0704   -9.5419 C   0  0  2  0  0  0  0  0  0  0  0  0
  -64.3958   34.8417   -9.8341 O   0  0  0  0  0  0  0  0  0  0  0  0
  -64.8592   37.1121  -10.6295 C   0  0  0  0  0  0  0  0  0  0  0  0
  -66.0577   37.6726  -11.1883 O   0  0  0  0  0  0  0  0  0  0  0  0
  -68.7130   37.9779   -8.0766 H   0  0  0  0  0  0  0  0  0  0  0  0
  -69.1396   39.2932   -9.2232 H   0  0  0  0  0  0  0  0  0  0  0  0
  -67.4805   38.6047   -9.2232 H   0  0  0  0  0  0  0  0  0  0  0  0
  -70.8761   40.6835   -6.3644 H   0  0  0  0  0  0  0  0  0  0  0  0
  -70.5976   41.5939   -7.8877 H   0  0  0  0  0  0  0  0  0  0  0  0
  -70.5239   39.7991   -7.8877 H   0  0  0  0  0  0  0  0  0  0  0  0
  -64.9459   43.5697   -4.0683 H   0  0  0  0  0  0  0  0  0  0  0  0
  -65.5349   39.4166   -9.0233 H   0  0  0  0  0  0  0  0  0  0  0  0
  -64.5200   39.4885   -7.5747 H   0  0  0  0  0  0  0  0  0  0  0  0
  -66.7582   37.5462   -8.2432 H   0  0  0  0  0  0  0  0  0  0  0  0
  -65.6172   38.1144   -5.7243 H   0  0  0  0  0  0  0  0  0  0  0  0
  -64.6477   35.8412   -7.4598 H   0  0  0  0  0  0  0  0  0  0  0  0
  -63.1301   37.6354   -7.4942 H   0  0  0  0  0  0  0  0  0  0  0  0
  -66.1808   35.8076   -9.5131 H   0  0  0  0  0  0  0  0  0  0  0  0
  -64.1382   34.4003   -8.9862 H   0  0  0  0  0  0  0  0  0  0  0  0
  -64.2645   37.9290  -10.1948 H   0  0  0  0  0  0  0  0  0  0  0  0
  -64.3347   36.5980  -11.4484 H   0  0  0  0  0  0  0  0  0  0  0  0
  -66.6621   37.9553  -10.4569 H   0  0  0  0  0  0  0  0  0  0  0  0
  1  2  1  0
  2  3  2  0
  2 14  1  0
  3  4  1  0
  3  5  1  0
  5  6  2  0
  6  7  1  0
  6 13  1  0
  7  8  2  0
  7  9  1  0
  9 10  1  0
 10 11  2  0
 10 12  1  0
 12 13  2  0
 13 14  1  0
 14 15  1  0
 15 16  1  0
 16 17  1  0
 16 18  1  0
 18 19  1  0
 18 20  1  0
 20 21  1  0
 20 22  1  0
 22 23  1  0
  1 24  1  0
  1 25  1  0
  1 26  1  0
  4 27  1  0
  4 28  1  0
  4 29  1  0
  9 30  1  0
 15 31  1  0
 15 32  1  0
 16 33  1  6
 17 34  1  0
 18 35  1  1
 19 36  1  0
 20 37  1  1
 21 38  1  0
 22 39  1  0
 22 40  1  0
 23 41  1  0
M  END
>  <filename_input>  (2) 
8A1H_DLZ_docked.sdf

>  <pdb_id>  (2) 
8A1H_DLZ

>  <pose_rank>  (2) 
1

>  <num_atoms_heavy>  (2) 
23

>  <num_torsions>  (2) 
5

>  <pose>  (2) 
[-68.34077404083973, 38.87486053690713, -8.593167647618008, -4.5980184129925314, 3.107159134403136, -1.9388103040949476, -2.7416028546982747, -0.33193709192745674, -0.8114142779557597, -1.9958849150063929, 1.3357821448101581]

>  <energy>  (2) 
-864.3337850062393

>  <inter_energy>  (2) 
-872.084600727677

>  <intra_energy>  (2) 
26.56229326213407

>  <rmsd>  (2) 
1.98407

>  <sdf_rank>  (2) 
0

$$$$

     RDKit          3D

 41 42  0  0  0  0  0  0  0  0999 V2000
  -64.2807   38.7789   -7.2648 C   0  0  0  0  0  0  0  0  0  0  0  0
  -65.2506   39.8689   -6.7348 C   0  0  0  0  0  0  0  0  0  0  0  0
  -64.7751   41.1136   -6.4481 C   0  0  0  0  0  0  0  0  0  0  0  0
  -63.3452   41.5441   -6.6652 C   0  0  0  0  0  0  0  0  0  0  0  0
  -65.6687   42.0422   -5.9333 N   0  0  0  0  0  0  0  0  0  0  0  0
  -66.9023   41.6399   -5.7436 C   0  0  0  0  0  0  0  0  0  0  0  0
  -67.8613   42.6603   -5.1345 C   0  0  0  0  0  0  0  0  0  0  0  0
  -67.4175   43.7154   -4.7497 O   0  0  0  0  0  0  0  0  0  0  0  0
  -69.1084   42.2143   -5.0229 N   0  0  0  0  0  0  0  0  0  0  0  0
  -69.6491   40.9978   -5.4598 C   0  0  0  0  0  0  0  0  0  0  0  0
  -70.8097   40.7351   -5.3905 O   0  0  0  0  0  0  0  0  0  0  0  0
  -68.7401   40.0271   -5.9410 N   0  0  0  0  0  0  0  0  0  0  0  0
  -67.5024   40.4165   -6.0536 C   0  0  0  0  0  0  0  0  0  0  0  0
  -66.5330   39.4822   -6.5728 N   0  0  0  0  0  0  0  0  0  0  0  0
  -67.0607   38.1084   -6.6925 C   0  0  0  0  0  0  0  0  0  0  0  0
  -67.6793   38.0078   -8.1483 C   0  0  2  0  0  0  0  0  0  0  0  0
  -69.1070   37.7433   -8.1397 O   0  0  0  0  0  0  0  0  0  0  0  0
  -67.0787   36.8857   -9.0705 C   0  0  2  0  0  0  0  0  0  0  0  0
  -66.9636   35.6882   -8.2658 O   0  0  0  0  0  0  0  0  0  0  0  0
  -65.6781   37.2366   -9.5475 C   0  0  2  0  0  0  0  0  0  0  0  0
  -65.5891   37.3384  -10.9937 O   0  0  0  0  0  0  0  0  0  0  0  0
  -64.6932   36.1950   -9.0209 C   0  0  0  0  0  0  0  0  0  0  0  0
  -64.7112   34.9574   -9.7496 O   0  0  0  0  0  0  0  0  0  0  0  0
  -63.8162   38.2569   -6.4152 H   0  0  0  0  0  0  0  0  0  0  0  0
  -64.8402   38.0566   -7.8774 H   0  0  0  0  0  0  0  0  0  0  0  0
  -63.4983   39.2507   -7.8774 H   0  0  0  0  0  0  0  0  0  0  0  0
  -62.8550   41.6917   -5.6916 H   0  0  0  0  0  0  0  0  0  0  0  0
  -62.8103   40.7671   -7.2311 H   0  0  0  0  0  0  0  0  0  0  0  0
  -63.3281   42.4872   -7.2311 H   0  0  0  0  0  0  0  0  0  0  0  0
  -69.7673   42.8498   -4.5508 H   0  0  0  0  0  0  0  0  0  0  0  0
  -66.2504   37.3748   -6.5693 H   0  0  0  0  0  0  0  0  0  0  0  0
  -67.8121   37.8948   -5.9180 H   0  0  0  0  0  0  0  0  0  0  0  0
  -67.4281   39.0003   -8.5508 H   0  0  0  0  0  0  0  0  0  0  0  0
  -69.4261   37.6842   -7.2044 H   0  0  0  0  0  0  0  0  0  0  0  0
  -67.7322   36.7618   -9.9466 H   0  0  0  0  0  0  0  0  0  0  0  0
  -66.9870   35.9317   -7.3065 H   0  0  0  0  0  0  0  0  0  0  0  0
  -65.4246   38.2304   -9.1499 H   0  0  0  0  0  0  0  0  0  0  0  0
  -64.9575   38.0615  -11.2353 H   0  0  0  0  0  0  0  0  0  0  0  0
  -63.6788   36.6166   -9.0791 H   0  0  0  0  0  0  0  0  0  0  0  0
  -64.9949   35.9627   -7.9889 H   0  0  0  0  0  0  0  0  0  0  0  0
  -64.7223   34.1996   -9.1127 H   0  0  0  0  0  0  0  0  0  0  0  0
  1  2  1  0
  2  3  2  0
  2 14  1  0
  3  4  1  0
  3  5  1  0
  5  6  2  0
  6  7  1  0
  6 13  1  0
  7  8  2  0
  7  9  1  0
  9 10  1  0
 10 11  2  0
 10 12  1  0
 12 13  2  0
 13 14  1  0
 14 15  1  0
 15 16  1  0
 16 17  1  0
 16 18  1  0
 18 19  1  0
 18 20  1  0
 20 21  1  0
 20 22  1  0
 22 23  1  0
  1 24  1  0
  1 25  1  0
  1 26  1  0
  4 27  1  0
  4 28  1  0
  4 29  1  0
  9 30  1  0
 15 31  1  0
 15 32  1  0
 16 33  1  6
 17 34  1  0
 18 35  1  6
 19 36  1  0
 20 37  1  1
 21 38  1  0
 22 39  1  0
 22 40  1  0
 23 41  1  0
M  END
>  <filename_input>  (3) 
8A1H_DLZ_docked.sdf

>  <pdb_id>  (3) 
8A1H_DLZ

>  <pose_rank>  (3) 
2

>  <num_atoms_heavy>  (3) 
23

>  <num_torsions>  (3) 
5

>  <pose>  (3) 
[-64.28066727683726, 38.77886872680469, -7.264810408764981, -0.27376257681815747, 3.177396457720444, 1.1584602815726448, -3.340705519322062, 4.832522580575682, 5.903900323969405, -1.2629420582012625, 4.576431039957284]

>  <energy>  (3) 
-704.8378951811833

>  <inter_energy>  (3) 
-751.9212990135001

>  <intra_energy>  (3) 
51.20252763578861

>  <rmsd>  (3) 
3.45783

>  <sdf_rank>  (3) 
0

$$$$

     RDKit          3D

 41 42  0  0  0  0  0  0  0  0999 V2000
  -66.6872   37.6977   -8.8113 C   0  0  0  0  0  0  0  0  0  0  0  0
  -66.0741   38.7861   -7.8897 C   0  0  0  0  0  0  0  0  0  0  0  0
  -64.7321   38.7914   -7.6520 C   0  0  0  0  0  0  0  0  0  0  0  0
  -63.7578   37.8247   -8.2789 C   0  0  0  0  0  0  0  0  0  0  0  0
  -64.2347   39.7546   -6.7855 N   0  0  0  0  0  0  0  0  0  0  0  0
  -65.1033   40.5753   -6.2455 C   0  0  0  0  0  0  0  0  0  0  0  0
  -64.5451   41.5996   -5.2599 C   0  0  0  0  0  0  0  0  0  0  0  0
  -63.3837   41.5216   -4.9384 O   0  0  0  0  0  0  0  0  0  0  0  0
  -65.4627   42.4402   -4.7933 N   0  0  0  0  0  0  0  0  0  0  0  0
  -66.8135   42.5524   -5.1482 C   0  0  0  0  0  0  0  0  0  0  0  0
  -67.5308   43.4082   -4.7313 O   0  0  0  0  0  0  0  0  0  0  0  0
  -67.3411   41.5476   -5.9922 N   0  0  0  0  0  0  0  0  0  0  0  0
  -66.4788   40.6923   -6.4624 C   0  0  0  0  0  0  0  0  0  0  0  0
  -66.9501   39.6639   -7.3582 N   0  0  0  0  0  0  0  0  0  0  0  0
  -68.4230   39.5944   -7.4346 C   0  0  0  0  0  0  0  0  0  0  0  0
  -68.8628   38.5276   -6.3479 C   0  0  2  0  0  0  0  0  0  0  0  0
  -69.2917   37.2691   -6.9313 O   0  0  0  0  0  0  0  0  0  0  0  0
  -70.0540   38.9530   -5.4150 C   0  0  2  0  0  0  0  0  0  0  0  0
  -71.2760   38.5209   -6.0593 O   0  0  0  0  0  0  0  0  0  0  0  0
  -70.1416   40.4636   -5.2644 C   0  0  2  0  0  0  0  0  0  0  0  0
  -69.9763   40.8988   -3.8885 O   0  0  0  0  0  0  0  0  0  0  0  0
  -71.4780   40.9469   -5.8236 C   0  0  0  0  0  0  0  0  0  0  0  0
  -72.6205   40.4536   -5.1066 O   0  0  0  0  0  0  0  0  0  0  0  0
  -67.1341   36.9042   -8.1944 H   0  0  0  0  0  0  0  0  0  0  0  0
  -67.4634   38.1496   -9.4462 H   0  0  0  0  0  0  0  0  0  0  0  0
  -65.8983   37.2680   -9.4462 H   0  0  0  0  0  0  0  0  0  0  0  0
  -63.2152   37.2863   -7.4879 H   0  0  0  0  0  0  0  0  0  0  0  0
  -64.3066   37.1039   -8.9029 H   0  0  0  0  0  0  0  0  0  0  0  0
  -63.0413   38.3790   -8.9029 H   0  0  0  0  0  0  0  0  0  0  0  0
  -65.1363   43.0993   -4.0722 H   0  0  0  0  0  0  0  0  0  0  0  0
  -68.8649   40.5760   -7.2084 H   0  0  0  0  0  0  0  0  0  0  0  0
  -68.7629   39.3100   -8.4414 H   0  0  0  0  0  0  0  0  0  0  0  0
  -67.9380   38.4360   -5.7594 H   0  0  0  0  0  0  0  0  0  0  0  0
  -69.5102   36.6281   -6.2092 H   0  0  0  0  0  0  0  0  0  0  0  0
  -69.9020   38.5047   -4.4221 H   0  0  0  0  0  0  0  0  0  0  0  0
  -71.9463   38.2839   -5.3704 H   0  0  0  0  0  0  0  0  0  0  0  0
  -69.3117   40.9087   -5.8328 H   0  0  0  0  0  0  0  0  0  0  0  0
  -70.2527   40.1711   -3.2768 H   0  0  0  0  0  0  0  0  0  0  0  0
  -71.4927   42.0461   -5.7849 H   0  0  0  0  0  0  0  0  0  0  0  0
  -71.5535   40.5600   -6.8505 H   0  0  0  0  0  0  0  0  0  0  0  0
  -72.4552   40.5250   -4.1331 H   0  0  0  0  0  0  0  0  0  0  0  0
  1  2  1  0
  2  3  2  0
  2 14  1  0
  3  4  1  0
  3  5  1  0
  5  6  2  0
  6  7  1  0
  6 13  1  0
  7  8  2  0
  7  9  1  0
  9 10  1  0
 10 11  2  0
 10 12  1  0
 12 13  2  0
 13 14  1  0
 14 15  1  0
 15 16  1  0
 16 17  1  0
 16 18  1  0
 18 19  1  0
 18 20  1  0
 20 21  1  0
 20 22  1  0
 22 23  1  0
  1 24  1  0
  1 25  1  0
  1 26  1  0
  4 27  1  0
  4 28  1  0
  4 29  1  0
  9 30  1  0
 15 31  1  0
 15 32  1  0
 16 33  1  1
 17 34  1  0
 18 35  1  1
 19 36  1  0
 20 37  1  6
 21 38  1  0
 22 39  1  0
 22 40  1  0
 23 41  1  0
M  END
>  <filename_input>  (4) 
8A1H_DLZ_docked.sdf

>  <pdb_id>  (4) 
8A1H_DLZ

>  <pose_rank>  (4) 
3

>  <num_atoms_heavy>  (4) 
23

>  <num_torsions>  (4) 
5

>  <pose>  (4) 
[-66.687165665372, 37.69768201739258, -8.811265322401235, 1.4200354086622802, 2.4039174704744233, 1.5215231321633522, -0.24460461061706118, -1.2502960831488734, 0.4232034875514691, -1.2623422646013631, -1.9459269361815341]

>  <energy>  (4) 
-687.9596652832251

>  <inter_energy>  (4) 
-726.8573530118164

>  <intra_energy>  (4) 
45.357070034614054

>  <rmsd>  (4) 
5.3189

>  <sdf_rank>  (4) 
0

$$$$

     RDKit          3D

 41 42  0  0  0  0  0  0  0  0999 V2000
  -64.5255   40.6535   -7.3168 C   0  0  0  0  0  0  0  0  0  0  0  0
  -65.8024   40.6236   -6.4346 C   0  0  0  0  0  0  0  0  0  0  0  0
  -65.8069   41.2648   -5.2319 C   0  0  0  0  0  0  0  0  0  0  0  0
  -64.6494   42.0733   -4.6996 C   0  0  0  0  0  0  0  0  0  0  0  0
  -66.9541   41.1727   -4.4565 N   0  0  0  0  0  0  0  0  0  0  0  0
  -67.9413   40.4551   -4.9366 C   0  0  0  0  0  0  0  0  0  0  0  0
  -69.1786   40.3270   -4.0507 C   0  0  0  0  0  0  0  0  0  0  0  0
  -69.1376   40.7736   -2.9295 O   0  0  0  0  0  0  0  0  0  0  0  0
  -70.1658   39.6398   -4.6160 N   0  0  0  0  0  0  0  0  0  0  0  0
  -70.2396   39.1118   -5.9118 C   0  0  0  0  0  0  0  0  0  0  0  0
  -71.2163   38.5878   -6.3503 O   0  0  0  0  0  0  0  0  0  0  0  0
  -69.0608   39.1578   -6.6919 N   0  0  0  0  0  0  0  0  0  0  0  0
  -68.0614   39.8101   -6.1704 C   0  0  0  0  0  0  0  0  0  0  0  0
  -66.8419   39.9229   -6.9335 N   0  0  0  0  0  0  0  0  0  0  0  0
  -66.8302   39.0644   -8.1347 C   0  0  0  0  0  0  0  0  0  0  0  0
  -66.2529   37.6662   -7.6616 C   0  0  2  0  0  0  0  0  0  0  0  0
  -65.8495   37.6630   -6.2668 O   0  0  0  0  0  0  0  0  0  0  0  0
  -64.9861   37.1517   -8.4368 C   0  0  2  0  0  0  0  0  0  0  0  0
  -64.0472   38.2515   -8.4976 O   0  0  0  0  0  0  0  0  0  0  0  0
  -65.3179   36.7712   -9.8712 C   0  0  2  0  0  0  0  0  0  0  0  0
  -66.6026   36.1040   -9.9898 O   0  0  0  0  0  0  0  0  0  0  0  0
  -64.2016   35.8897  -10.4274 C   0  0  0  0  0  0  0  0  0  0  0  0
  -64.0986   34.6087   -9.7861 O   0  0  0  0  0  0  0  0  0  0  0  0
  -63.6346   40.6744   -6.6718 H   0  0  0  0  0  0  0  0  0  0  0  0
  -64.4974   39.7558   -7.9518 H   0  0  0  0  0  0  0  0  0  0  0  0
  -64.5395   41.5516   -7.9518 H   0  0  0  0  0  0  0  0  0  0  0  0
  -64.6680   42.0603   -3.5998 H   0  0  0  0  0  0  0  0  0  0  0  0
  -63.7038   41.6383   -5.0555 H   0  0  0  0  0  0  0  0  0  0  0  0
  -64.7325   43.1109   -5.0555 H   0  0  0  0  0  0  0  0  0  0  0  0
  -70.9891   39.4724   -4.0202 H   0  0  0  0  0  0  0  0  0  0  0  0
  -67.8499   38.9440   -8.5293 H   0  0  0  0  0  0  0  0  0  0  0  0
  -66.2208   39.5024   -8.9390 H   0  0  0  0  0  0  0  0  0  0  0  0
  -67.1106   37.0075   -7.8629 H   0  0  0  0  0  0  0  0  0  0  0  0
  -66.6544   37.6693   -5.6904 H   0  0  0  0  0  0  0  0  0  0  0  0
  -64.5895   36.2672   -7.9169 H   0  0  0  0  0  0  0  0  0  0  0  0
  -63.8076   38.5320   -7.5789 H   0  0  0  0  0  0  0  0  0  0  0  0
  -65.3940   37.6985  -10.4579 H   0  0  0  0  0  0  0  0  0  0  0  0
  -66.9622   35.9173   -9.0865 H   0  0  0  0  0  0  0  0  0  0  0  0
  -64.3901   35.7267  -11.4988 H   0  0  0  0  0  0  0  0  0  0  0  0
  -63.2547   36.4176  -10.2412 H   0  0  0  0  0  0  0  0  0  0  0  0
  -64.1083   34.7298   -8.8036 H   0  0  0  0  0  0  0  0  0  0  0  0
  1  2  1  0
  2  3  2  0
  2 14  1  0
  3  4  1  0
  3  5  1  0
  5  6  2  0
  6  7  1  0
  6 13  1  0
  7  8  2  0
  7  9  1  0
  9 10  1  0
 10 11  2  0
 10 12  1  0
 12 13  2  0
 13 14  1  0
 14 15  1  0
 15 16  1  0
 16 17  1  0
 16 18  1  0
 18 19  1  0
 18 20  1  0
 20 21  1  0
 20 22  1  0
 22 23  1  0
  1 24  1  0
  1 25  1  0
  1 26  1  0
  4 27  1  0
  4 28  1  0
  4 29  1  0
  9 30  1  0
 15 31  1  0
 15 32  1  0
 16 33  1  1
 17 34  1  0
 18 35  1  1
 19 36  1  0
 20 37  1  6
 21 38  1  0
 22 39  1  0
 22 40  1  0
 23 41  1  0
M  END
>  <filename_input>  (5) 
8A1H_DLZ_docked.sdf

>  <pdb_id>  (5) 
8A1H_DLZ

>  <pose_rank>  (5) 
4

>  <num_atoms_heavy>  (5) 
23

>  <num_torsions>  (5) 
5

>  <pose>  (5) 
[-64.5254551906535, 40.65348745241809, -7.316772186201178, -1.0338142167575224, 2.251791190801082, 2.1997465820541073, -0.172656953245469, 0.5496317750135418, -0.31050396013979775, 6.413878561917702, -1.9048038474529079]

>  <energy>  (5) 
-629.118369705014

>  <inter_energy>  (5) 
-673.7281377213029

>  <intra_energy>  (5) 
52.266322421919526

>  <rmsd>  (5) 
3.84793

>  <sdf_rank>  (5) 
0

$$$$

     RDKit          3D

 41 42  0  0  0  0  0  0  0  0999 V2000
  -66.7495   37.0227   -7.7249 C   0  0  0  0  0  0  0  0  0  0  0  0
  -66.0742   38.3301   -7.2306 C   0  0  0  0  0  0  0  0  0  0  0  0
  -64.7402   38.5199   -7.4358 C   0  0  0  0  0  0  0  0  0  0  0  0
  -63.8521   37.5519   -8.1784 C   0  0  0  0  0  0  0  0  0  0  0  0
  -64.1701   39.6824   -6.9365 N   0  0  0  0  0  0  0  0  0  0  0  0
  -64.9609   40.5014   -6.2855 C   0  0  0  0  0  0  0  0  0  0  0  0
  -64.3082   41.7535   -5.7038 C   0  0  0  0  0  0  0  0  0  0  0  0
  -63.1067   41.8604   -5.7601 O   0  0  0  0  0  0  0  0  0  0  0  0
  -65.1699   42.5722   -5.1092 N   0  0  0  0  0  0  0  0  0  0  0  0
  -66.5652   42.4727   -5.0294 C   0  0  0  0  0  0  0  0  0  0  0  0
  -67.2550   43.3168   -4.5473 O   0  0  0  0  0  0  0  0  0  0  0  0
  -67.1505   41.2710   -5.4916 N   0  0  0  0  0  0  0  0  0  0  0  0
  -66.3398   40.4316   -6.0697 C   0  0  0  0  0  0  0  0  0  0  0  0
  -66.8835   39.2023   -6.5945 N   0  0  0  0  0  0  0  0  0  0  0  0
  -68.2833   38.9688   -6.1868 C   0  0  0  0  0  0  0  0  0  0  0  0
  -69.1786   39.6199   -7.3211 C   0  0  2  0  0  0  0  0  0  0  0  0
  -69.6056   40.9701   -7.0001 O   0  0  0  0  0  0  0  0  0  0  0  0
  -70.5107   38.8586   -7.6621 C   0  0  2  0  0  0  0  0  0  0  0  0
  -71.4142   39.0598   -6.5494 O   0  0  0  0  0  0  0  0  0  0  0  0
  -70.2880   37.3596   -7.7878 C   0  0  2  0  0  0  0  0  0  0  0  0
  -70.7362   36.8329   -9.0651 O   0  0  0  0  0  0  0  0  0  0  0  0
  -70.9954   36.6490   -6.6359 C   0  0  0  0  0  0  0  0  0  0  0  0
  -71.1645   35.2374   -6.8401 O   0  0  0  0  0  0  0  0  0  0  0  0
  -67.0606   36.4205   -6.8585 H   0  0  0  0  0  0  0  0  0  0  0  0
  -67.6312   37.2727   -8.3332 H   0  0  0  0  0  0  0  0  0  0  0  0
  -66.0353   36.4483   -8.3332 H   0  0  0  0  0  0  0  0  0  0  0  0
  -63.2912   36.9407   -7.4560 H   0  0  0  0  0  0  0  0  0  0  0  0
  -64.4706   36.8975   -8.8102 H   0  0  0  0  0  0  0  0  0  0  0  0
  -63.1470   38.1120   -8.8102 H   0  0  0  0  0  0  0  0  0  0  0  0
  -64.7553   43.3919   -4.6432 H   0  0  0  0  0  0  0  0  0  0  0  0
  -68.4853   37.8902   -6.1114 H   0  0  0  0  0  0  0  0  0  0  0  0
  -68.4962   39.4084   -5.2011 H   0  0  0  0  0  0  0  0  0  0  0  0
  -68.4913   39.5786   -8.1789 H   0  0  0  0  0  0  0  0  0  0  0  0
  -69.6405   41.0802   -6.0168 H   0  0  0  0  0  0  0  0  0  0  0  0
  -70.9014   39.2414   -8.6165 H   0  0  0  0  0  0  0  0  0  0  0  0
  -70.9198   38.9497   -5.6988 H   0  0  0  0  0  0  0  0  0  0  0  0
  -69.2050   37.1734   -7.7378 H   0  0  0  0  0  0  0  0  0  0  0  0
  -71.3700   36.0882   -8.9109 H   0  0  0  0  0  0  0  0  0  0  0  0
  -70.4034   36.7983   -5.7209 H   0  0  0  0  0  0  0  0  0  0  0  0
  -72.0029   37.0843   -6.5622 H   0  0  0  0  0  0  0  0  0  0  0  0
  -71.2191   34.7813   -5.9631 H   0  0  0  0  0  0  0  0  0  0  0  0
  1  2  1  0
  2  3  2  0
  2 14  1  0
  3  4  1  0
  3  5  1  0
  5  6  2  0
  6  7  1  0
  6 13  1  0
  7  8  2  0
  7  9  1  0
  9 10  1  0
 10 11  2  0
 10 12  1  0
 12 13  2  0
 13 14  1  0
 14 15  1  0
 15 16  1  0
 16 17  1  0
 16 18  1  0
 18 19  1  0
 18 20  1  0
 20 21  1  0
 20 22  1  0
 22 23  1  0
  1 24  1  0
  1 25  1  0
  1 26  1  0
  4 27  1  0
  4 28  1  0
  4 29  1  0
  9 30  1  0
 15 31  1  0
 15 32  1  0
 16 33  1  6
 17 34  1  0
 18 35  1  6
 19 36  1  0
 20 37  1  1
 21 38  1  0
 22 39  1  0
 22 40  1  0
 23 41  1  0
M  END
>  <filename_input>  (6) 
8A1H_DLZ_docked.sdf

>  <pdb_id>  (6) 
8A1H_DLZ

>  <pose_rank>  (6) 
5

>  <num_atoms_heavy>  (6) 
23

>  <num_torsions>  (6) 
5

>  <pose>  (6) 
[-66.74950896111623, 37.022651238514825, -7.724892592553956, -1.3505026300866612, -2.3631519063132314, -0.9592980377470915, 2.958062502453532, -1.0620584350821307, -6.179563781088057, -1.359618565385926, -0.19980552949865035]

>  <energy>  (6) 
-655.3875944743874

>  <inter_energy>  (6) 
-679.2283075419216

>  <intra_energy>  (6) 
23.942442797487807

>  <rmsd>  (6) 
4.59209

>  <sdf_rank>  (6) 
0

$$$$

     RDKit          3D

 41 42  0  0  0  0  0  0  0  0999 V2000
  -64.1265   40.2579   -7.7399 C   0  0  0  0  0  0  0  0  0  0  0  0
  -65.2839   40.5001   -6.7341 C   0  0  0  0  0  0  0  0  0  0  0  0
  -65.0221   41.0884   -5.5329 C   0  0  0  0  0  0  0  0  0  0  0  0
  -63.6613   41.5885   -5.1143 C   0  0  0  0  0  0  0  0  0  0  0  0
  -66.0788   41.2431   -4.6468 N   0  0  0  0  0  0  0  0  0  0  0  0
  -67.2483   40.7901   -5.0299 C   0  0  0  0  0  0  0  0  0  0  0  0
  -68.3901   40.9275   -4.0251 C   0  0  0  0  0  0  0  0  0  0  0  0
  -68.1377   41.3184   -2.9108 O   0  0  0  0  0  0  0  0  0  0  0  0
  -69.5607   40.5065   -4.4929 N   0  0  0  0  0  0  0  0  0  0  0  0
  -69.8807   40.0493   -5.7781 C   0  0  0  0  0  0  0  0  0  0  0  0
  -70.9906   39.7808   -6.1197 O   0  0  0  0  0  0  0  0  0  0  0  0
  -68.8047   39.8426   -6.6723 N   0  0  0  0  0  0  0  0  0  0  0  0
  -67.6347   40.2281   -6.2497 C   0  0  0  0  0  0  0  0  0  0  0  0
  -66.5019   40.0763   -7.1307 N   0  0  0  0  0  0  0  0  0  0  0  0
  -66.8077   39.2751   -8.3326 C   0  0  0  0  0  0  0  0  0  0  0  0
  -65.6025   38.2582   -8.4928 C   0  0  2  0  0  0  0  0  0  0  0  0
  -65.3275   37.9200   -9.8779 O   0  0  0  0  0  0  0  0  0  0  0  0
  -65.7800   36.8694   -7.7785 C   0  0  2  0  0  0  0  0  0  0  0  0
  -65.6818   35.8485   -8.7998 O   0  0  0  0  0  0  0  0  0  0  0  0
  -67.1553   36.7324   -7.1443 C   0  0  2  0  0  0  0  0  0  0  0  0
  -67.2152   35.6613   -6.1650 O   0  0  0  0  0  0  0  0  0  0  0  0
  -68.1945   36.5151   -8.2421 C   0  0  0  0  0  0  0  0  0  0  0  0
  -67.6888   35.8176   -9.3913 O   0  0  0  0  0  0  0  0  0  0  0  0
  -63.1955   40.0631   -7.1875 H   0  0  0  0  0  0  0  0  0  0  0  0
  -64.3660   39.3904   -8.3724 H   0  0  0  0  0  0  0  0  0  0  0  0
  -63.9981   41.1486   -8.3724 H   0  0  0  0  0  0  0  0  0  0  0  0
  -63.6007   41.6108   -4.0162 H   0  0  0  0  0  0  0  0  0  0  0  0
  -62.8858   40.9167   -5.5107 H   0  0  0  0  0  0  0  0  0  0  0  0
  -63.5055   42.6027   -5.5107 H   0  0  0  0  0  0  0  0  0  0  0  0
  -70.3391   40.5179   -3.8185 H   0  0  0  0  0  0  0  0  0  0  0  0
  -67.7536   38.7298   -8.1988 H   0  0  0  0  0  0  0  0  0  0  0  0
  -66.9225   39.9099   -9.2235 H   0  0  0  0  0  0  0  0  0  0  0  0
  -64.7875   38.8241   -8.0181 H   0  0  0  0  0  0  0  0  0  0  0  0
  -64.7032   37.1525   -9.9125 H   0  0  0  0  0  0  0  0  0  0  0  0
  -65.0154   36.7763   -6.9932 H   0  0  0  0  0  0  0  0  0  0  0  0
  -65.5964   34.9602   -8.3713 H   0  0  0  0  0  0  0  0  0  0  0  0
  -67.3708   37.6636   -6.5998 H   0  0  0  0  0  0  0  0  0  0  0  0
  -67.1937   36.0463   -5.2532 H   0  0  0  0  0  0  0  0  0  0  0  0
  -69.0265   35.9316   -7.8210 H   0  0  0  0  0  0  0  0  0  0  0  0
  -68.5095   37.5114   -8.5858 H   0  0  0  0  0  0  0  0  0  0  0  0
  -67.1342   35.0528   -9.0954 H   0  0  0  0  0  0  0  0  0  0  0  0
  1  2  1  0
  2  3  2  0
  2 14  1  0
  3  4  1  0
  3  5  1  0
  5  6  2  0
  6  7  1  0
  6 13  1  0
  7  8  2  0
  7  9  1  0
  9 10  1  0
 10 11  2  0
 10 12  1  0
 12 13  2  0
 13 14  1  0
 14 15  1  0
 15 16  1  0
 16 17  1  0
 16 18  1  0
 18 19  1  0
 18 20  1  0
 20 21  1  0
 20 22  1  0
 22 23  1  0
  1 24  1  0
  1 25  1  0
  1 26  1  0
  4 27  1  0
  4 28  1  0
  4 29  1  0
  9 30  1  0
 15 31  1  0
 15 32  1  0
 16 33  1  1
 17 34  1  0
 18 35  1  1
 19 36  1  0
 20 37  1  1
 21 38  1  0
 22 39  1  0
 22 40  1  0
 23 41  1  0
M  END
>  <filename_input>  (7) 
8A1H_DLZ_docked.sdf

>  <pdb_id>  (7) 
8A1H_DLZ

>  <pose_rank>  (7) 
6

>  <num_atoms_heavy>  (7) 
23

>  <num_torsions>  (7) 
5

>  <pose>  (7) 
[-64.1265373372332, 40.25790360099396, -7.739874148600117, 0.6026915613462868, -2.1412589670732296, -2.1102322224857613, -0.9765935700876223, -1.9893998541748514, 7.250991482399249, -2.0326774034063755, -2.5237056367754365]

>  <energy>  (7) 
-493.5568394270263

>  <inter_energy>  (7) 
-621.8310802492608

>  <intra_energy>  (7) 
118.52680727734237

>  <rmsd>  (7) 
3.94741

>  <sdf_rank>  (7) 
0

$$$$

     RDKit          3D

 41 42  0  0  0  0  0  0  0  0999 V2000
  -67.0472   41.7713   -5.4949 C   0  0  0  0  0  0  0  0  0  0  0  0
  -66.1888   40.7316   -6.2643 C   0  0  0  0  0  0  0  0  0  0  0  0
  -64.8294   40.8250   -6.2355 C   0  0  0  0  0  0  0  0  0  0  0  0
  -64.0689   41.8602   -5.4436 C   0  0  0  0  0  0  0  0  0  0  0  0
  -64.1039   39.9018   -6.9751 N   0  0  0  0  0  0  0  0  0  0  0  0
  -64.7886   39.0200   -7.6632 C   0  0  0  0  0  0  0  0  0  0  0  0
  -63.9759   38.0403   -8.5069 C   0  0  0  0  0  0  0  0  0  0  0  0
  -62.7828   38.2036   -8.5966 O   0  0  0  0  0  0  0  0  0  0  0  0
  -64.7214   37.1349   -9.1322 N   0  0  0  0  0  0  0  0  0  0  0  0
  -66.1038   36.9236   -9.0463 C   0  0  0  0  0  0  0  0  0  0  0  0
  -66.6620   36.0177   -9.5835 O   0  0  0  0  0  0  0  0  0  0  0  0
  -66.8574   37.8861   -8.3351 N   0  0  0  0  0  0  0  0  0  0  0  0
  -66.1678   38.8020   -7.7173 C   0  0  0  0  0  0  0  0  0  0  0  0
  -66.8783   39.7923   -6.9446 N   0  0  0  0  0  0  0  0  0  0  0  0
  -68.3387   39.7534   -7.1581 C   0  0  0  0  0  0  0  0  0  0  0  0
  -68.8849   38.6099   -6.2060 C   0  0  2  0  0  0  0  0  0  0  0  0
  -69.1176   37.3570   -6.9020 O   0  0  0  0  0  0  0  0  0  0  0  0
  -70.2464   38.9148   -5.4824 C   0  0  2  0  0  0  0  0  0  0  0  0
  -71.3023   38.3871   -6.3201 O   0  0  0  0  0  0  0  0  0  0  0  0
  -70.4917   40.4094   -5.3473 C   0  0  2  0  0  0  0  0  0  0  0  0
  -71.3060   40.7400   -4.1908 O   0  0  0  0  0  0  0  0  0  0  0  0
  -71.1416   40.9289   -6.6279 C   0  0  0  0  0  0  0  0  0  0  0  0
  -70.2009   41.3725   -7.6184 O   0  0  0  0  0  0  0  0  0  0  0  0
  -66.9227   41.6205   -4.4125 H   0  0  0  0  0  0  0  0  0  0  0  0
  -66.7210   42.7869   -5.7636 H   0  0  0  0  0  0  0  0  0  0  0  0
  -68.1062   41.6432   -5.7636 H   0  0  0  0  0  0  0  0  0  0  0  0
  -64.2063   41.6732   -4.3684 H   0  0  0  0  0  0  0  0  0  0  0  0
  -62.9992   41.7993   -5.6926 H   0  0  0  0  0  0  0  0  0  0  0  0
  -64.4468   42.8628   -5.6926 H   0  0  0  0  0  0  0  0  0  0  0  0
  -64.2135   36.5022   -9.7668 H   0  0  0  0  0  0  0  0  0  0  0  0
  -68.7904   40.7207   -6.8928 H   0  0  0  0  0  0  0  0  0  0  0  0
  -68.5885   39.5567   -8.2111 H   0  0  0  0  0  0  0  0  0  0  0  0
  -68.0720   38.5473   -5.4676 H   0  0  0  0  0  0  0  0  0  0  0  0
  -69.2522   36.6324   -6.2410 H   0  0  0  0  0  0  0  0  0  0  0  0
  -70.2205   38.4663   -4.4783 H   0  0  0  0  0  0  0  0  0  0  0  0
  -72.0263   38.0254   -5.7498 H   0  0  0  0  0  0  0  0  0  0  0  0
  -69.5189   40.8989   -5.1925 H   0  0  0  0  0  0  0  0  0  0  0  0
  -70.8024   40.5355   -3.3633 H   0  0  0  0  0  0  0  0  0  0  0  0
  -71.7466   40.1195   -7.0625 H   0  0  0  0  0  0  0  0  0  0  0  0
  -71.7467   41.8036   -6.3472 H   0  0  0  0  0  0  0  0  0  0  0  0
  -69.4025   41.7489   -7.1700 H   0  0  0  0  0  0  0  0  0  0  0  0
  1  2  1  0
  2  3  2  0
  2 14  1  0
  3  4  1  0
  3  5  1  0
  5  6  2  0
  6  7  1  0
  6 13  1  0
  7  8  2  0
  7  9  1  0
  9 10  1  0
 10 11  2  0
 10 12  1  0
 12 13  2  0
 13 14  1  0
 14 15  1  0
 15 16  1  0
 16 17  1  0
 16 18  1  0
 18 19  1  0
 18 20  1  0
 20 21  1  0
 20 22  1  0
 22 23  1  0
  1 24  1  0
  1 25  1  0
  1 26  1  0
  4 27  1  0
  4 28  1  0
  4 29  1  0
  9 30  1  0
 15 31  1  0
 15 32  1  0
 16 33  1  1
 17 34  1  0
 18 35  1  1
 19 36  1  0
 20 37  1  1
 21 38  1  0
 22 39  1  0
 22 40  1  0
 23 41  1  0
M  END
>  <filename_input>  (8) 
8A1H_DLZ_docked.sdf

>  <pdb_id>  (8) 
8A1H_DLZ

>  <pose_rank>  (8) 
7

>  <num_atoms_heavy>  (8) 
23

>  <num_torsions>  (8) 
5

>  <pose>  (8) 
[-67.04722399081136, 41.77127508035982, -5.494927895998808, 0.1781207932670011, 1.0320080803750964, -1.7631757356058209, -3.4689067958093887, -1.1278259158728117, 0.4660082983721361, 4.451173377460704, 1.6454056756739264]

>  <energy>  (8) 
-583.8086798908773

>  <inter_energy>  (8) 
-656.9815729224014

>  <intra_energy>  (8) 
85.79657600684035

>  <rmsd>  (8) 
6.00092

>  <sdf_rank>  (8) 
0

$$$$

     RDKit          3D

 41 42  0  0  0  0  0  0  0  0999 V2000
  -64.2534   38.0425   -7.5092 C   0  0  0  0  0  0  0  0  0  0  0  0
  -64.8909   39.3264   -6.9135 C   0  0  0  0  0  0  0  0  0  0  0  0
  -64.3403   40.5427   -7.1872 C   0  0  0  0  0  0  0  0  0  0  0  0
  -63.1550   40.7495   -8.0978 C   0  0  0  0  0  0  0  0  0  0  0  0
  -64.9158   41.6586   -6.5960 N   0  0  0  0  0  0  0  0  0  0  0  0
  -65.9373   41.4508   -5.8004 C   0  0  0  0  0  0  0  0  0  0  0  0
  -66.5300   42.6844   -5.1229 C   0  0  0  0  0  0  0  0  0  0  0  0
  -65.9639   43.7436   -5.2495 O   0  0  0  0  0  0  0  0  0  0  0  0
  -67.5980   42.4179   -4.3781 N   0  0  0  0  0  0  0  0  0  0  0  0
  -68.2737   41.2015   -4.2138 C   0  0  0  0  0  0  0  0  0  0  0  0
  -69.2832   41.0928   -3.5895 O   0  0  0  0  0  0  0  0  0  0  0  0
  -67.6693   40.0510   -4.7717 N   0  0  0  0  0  0  0  0  0  0  0  0
  -66.6100   40.2636   -5.4989 C   0  0  0  0  0  0  0  0  0  0  0  0
  -65.9685   39.1327   -6.1249 N   0  0  0  0  0  0  0  0  0  0  0  0
  -66.4918   37.8359   -5.6511 C   0  0  0  0  0  0  0  0  0  0  0  0
  -67.7263   37.4997   -6.5866 C   0  0  2  0  0  0  0  0  0  0  0  0
  -67.3343   37.1756   -7.9466 O   0  0  0  0  0  0  0  0  0  0  0  0
  -68.7930   38.6427   -6.7483 C   0  0  2  0  0  0  0  0  0  0  0  0
  -69.9777   38.2258   -6.0288 O   0  0  0  0  0  0  0  0  0  0  0  0
  -69.2000   38.8338   -8.2010 C   0  0  2  0  0  0  0  0  0  0  0  0
  -69.2382   40.2322   -8.5916 O   0  0  0  0  0  0  0  0  0  0  0  0
  -70.5578   38.1742   -8.4325 C   0  0  0  0  0  0  0  0  0  0  0  0
  -70.4878   36.7529   -8.6269 O   0  0  0  0  0  0  0  0  0  0  0  0
  -63.9257   37.3828   -6.6923 H   0  0  0  0  0  0  0  0  0  0  0  0
  -64.9957   37.5180   -8.1288 H   0  0  0  0  0  0  0  0  0  0  0  0
  -63.3868   38.3169   -8.1288 H   0  0  0  0  0  0  0  0  0  0  0  0
  -62.2504   40.9074   -7.4921 H   0  0  0  0  0  0  0  0  0  0  0  0
  -63.0209   39.8612   -8.7325 H   0  0  0  0  0  0  0  0  0  0  0  0
  -63.3296   41.6308   -8.7325 H   0  0  0  0  0  0  0  0  0  0  0  0
  -67.9814   43.2144   -3.8494 H   0  0  0  0  0  0  0  0  0  0  0  0
  -65.7207   37.0564   -5.7397 H   0  0  0  0  0  0  0  0  0  0  0  0
  -66.7870   37.8813   -4.5924 H   0  0  0  0  0  0  0  0  0  0  0  0
  -68.1676   36.6462   -6.0510 H   0  0  0  0  0  0  0  0  0  0  0  0
  -66.5715   36.5448   -7.9287 H   0  0  0  0  0  0  0  0  0  0  0  0
  -68.3624   39.5828   -6.3730 H   0  0  0  0  0  0  0  0  0  0  0  0
  -69.8101   38.2848   -5.0548 H   0  0  0  0  0  0  0  0  0  0  0  0
  -68.4360   38.3558   -8.8317 H   0  0  0  0  0  0  0  0  0  0  0  0
  -69.2537   40.8009   -7.7814 H   0  0  0  0  0  0  0  0  0  0  0  0
  -71.1935   38.3734   -7.5571 H   0  0  0  0  0  0  0  0  0  0  0  0
  -70.9682   38.6037   -9.3583 H   0  0  0  0  0  0  0  0  0  0  0  0
  -70.4656   36.3001   -7.7468 H   0  0  0  0  0  0  0  0  0  0  0  0
  1  2  1  0
  2  3  2  0
  2 14  1  0
  3  4  1  0
  3  5  1  0
  5  6  2  0
  6  7  1  0
  6 13  1  0
  7  8  2  0
  7  9  1  0
  9 10  1  0
 10 11  2  0
 10 12  1  0
 12 13  2  0
 13 14  1  0
 14 15  1  0
 15 16  1  0
 16 17  1  0
 16 18  1  0
 18 19  1  0
 18 20  1  0
 20 21  1  0
 20 22  1  0
 22 23  1  0
  1 24  1  0
  1 25  1  0
  1 26  1  0
  4 27  1  0
  4 28  1  0
  4 29  1  0
  9 30  1  0
 15 31  1  0
 15 32  1  0
 16 33  1  1
 17 34  1  0
 18 35  1  1
 19 36  1  0
 20 37  1  6
 21 38  1  0
 22 39  1  0
 22 40  1  0
 23 41  1  0
M  END
>  <filename_input>  (9) 
8A1H_DLZ_docked.sdf

>  <pdb_id>  (9) 
8A1H_DLZ

>  <pose_rank>  (9) 
8

>  <num_atoms_heavy>  (9) 
23

>  <num_torsions>  (9) 
5

>  <pose>  (9) 
[-64.25335019610198, 38.04248721279744, -7.509233752637268, 0.16634585729438858, 3.695739297907316, 0.9371691916671158, 9.187923810407334, 1.8238010642473677, 15.801527623944377, 11.02829524891514, 1.8136245685774075]

>  <energy>  (9) 
-636.7577030848734

>  <inter_energy>  (9) 
-695.3503845578812

>  <intra_energy>  (9) 
76.31135340234994

>  <rmsd>  (9) 
4.3367

>  <sdf_rank>  (9) 
0

$$$$

     RDKit          3D

 41 42  0  0  0  0  0  0  0  0999 V2000
  -67.0840   36.2859   -8.2733 C   0  0  0  0  0  0  0  0  0  0  0  0
  -66.2519   37.5828   -8.0848 C   0  0  0  0  0  0  0  0  0  0  0  0
  -65.1633   37.8067   -8.8736 C   0  0  0  0  0  0  0  0  0  0  0  0
  -64.7227   36.8898   -9.9881 C   0  0  0  0  0  0  0  0  0  0  0  0
  -64.4226   38.9566   -8.6389 N   0  0  0  0  0  0  0  0  0  0  0  0
  -64.8197   39.7308   -7.6577 C   0  0  0  0  0  0  0  0  0  0  0  0
  -63.9675   40.9681   -7.3839 C   0  0  0  0  0  0  0  0  0  0  0  0
  -62.9278   41.1002   -7.9837 O   0  0  0  0  0  0  0  0  0  0  0  0
  -64.4536   41.7431   -6.4198 N   0  0  0  0  0  0  0  0  0  0  0  0
  -65.6543   41.6136   -5.7093 C   0  0  0  0  0  0  0  0  0  0  0  0
  -66.0399   42.4222   -4.9231 O   0  0  0  0  0  0  0  0  0  0  0  0
  -66.3914   40.4227   -5.9060 N   0  0  0  0  0  0  0  0  0  0  0  0
  -65.9428   39.6253   -6.8329 C   0  0  0  0  0  0  0  0  0  0  0  0
  -66.6721   38.4104   -7.1055 N   0  0  0  0  0  0  0  0  0  0  0  0
  -67.7256   38.1325   -6.1090 C   0  0  0  0  0  0  0  0  0  0  0  0
  -68.5668   39.4701   -5.9842 C   0  0  2  0  0  0  0  0  0  0  0  0
  -68.2738   40.2120   -4.7709 O   0  0  0  0  0  0  0  0  0  0  0  0
  -70.1288   39.2967   -5.9697 C   0  0  2  0  0  0  0  0  0  0  0  0
  -70.4726   38.4322   -7.0786 O   0  0  0  0  0  0  0  0  0  0  0  0
  -70.8458   40.6181   -6.1979 C   0  0  2  0  0  0  0  0  0  0  0  0
  -69.9539   41.6645   -6.6661 O   0  0  0  0  0  0  0  0  0  0  0  0
  -71.5394   41.0423   -4.9050 C   0  0  0  0  0  0  0  0  0  0  0  0
  -70.6456   41.5700   -3.9122 O   0  0  0  0  0  0  0  0  0  0  0  0
  -67.3485   35.8736   -7.2884 H   0  0  0  0  0  0  0  0  0  0  0  0
  -68.0024   36.5177   -8.8325 H   0  0  0  0  0  0  0  0  0  0  0  0
  -66.4906   35.5476   -8.8325 H   0  0  0  0  0  0  0  0  0  0  0  0
  -64.2839   35.9766   -9.5597 H   0  0  0  0  0  0  0  0  0  0  0  0
  -65.5910   36.6232  -10.6085 H   0  0  0  0  0  0  0  0  0  0  0  0
  -63.9719   37.4011  -10.6085 H   0  0  0  0  0  0  0  0  0  0  0  0
  -63.8675   42.5491   -6.1593 H   0  0  0  0  0  0  0  0  0  0  0  0
  -68.3674   37.3070   -6.4503 H   0  0  0  0  0  0  0  0  0  0  0  0
  -67.2978   37.8319   -5.1412 H   0  0  0  0  0  0  0  0  0  0  0  0
  -68.2552   39.9984   -6.8974 H   0  0  0  0  0  0  0  0  0  0  0  0
  -68.4937   39.6552   -3.9824 H   0  0  0  0  0  0  0  0  0  0  0  0
  -70.4299   38.8929   -4.9918 H   0  0  0  0  0  0  0  0  0  0  0  0
  -70.8152   37.5707   -6.7315 H   0  0  0  0  0  0  0  0  0  0  0  0
  -71.5905   40.4657   -6.9930 H   0  0  0  0  0  0  0  0  0  0  0  0
  -69.5561   42.1313   -5.8890 H   0  0  0  0  0  0  0  0  0  0  0  0
  -72.2827   41.8158   -5.1483 H   0  0  0  0  0  0  0  0  0  0  0  0
  -71.9962   40.1384   -4.4759 H   0  0  0  0  0  0  0  0  0  0  0  0
  -70.9959   41.3632   -3.0097 H   0  0  0  0  0  0  0  0  0  0  0  0
  1  2  1  0
  2  3  2  0
  2 14  1  0
  3  4  1  0
  3  5  1  0
  5  6  2  0
  6  7  1  0
  6 13  1  0
  7  8  2  0
  7  9  1  0
  9 10  1  0
 10 11  2  0
 10 12  1  0
 12 13  2  0
 13 14  1  0
 14 15  1  0
 15 16  1  0
 16 17  1  0
 16 18  1  0
 18 19  1  0
 18 20  1  0
 20 21  1  0
 20 22  1  0
 22 23  1  0
  1 24  1  0
  1 25  1  0
  1 26  1  0
  4 27  1  0
  4 28  1  0
  4 29  1  0
  9 30  1  0
 15 31  1  0
 15 32  1  0
 16 33  1  6
 17 34  1  0
 18 35  1  1
 19 36  1  0
 20 37  1  6
 21 38  1  0
 22 39  1  0
 22 40  1  0
 23 41  1  0
M  END
>  <filename_input>  (10) 
8A1H_DLZ_docked.sdf

>  <pdb_id>  (10) 
8A1H_DLZ

>  <pose_rank>  (10) 
9

>  <num_atoms_heavy>  (10) 
23

>  <num_torsions>  (10) 
5

>  <pose>  (10) 
[-67.08397507745299, 36.28593854144299, -8.273303358486332, 2.111683897676792, 3.037845092548658, 0.9226667869146792, 33.664754351965, 30.203570594655975, 4.2815956274585485, -5.246929374263733, -1.7384209461998181]

>  <energy>  (10) 
-540.136892528773

>  <inter_energy>  (10) 
-676.2208892621958

>  <intra_energy>  (10) 
135.21144488914797

>  <rmsd>  (10) 
5.45245

>  <sdf_rank>  (10) 
0

$$$$

     RDKit          3D

 41 42  0  0  0  0  0  0  0  0999 V2000
  -70.8535   40.0558   -5.9553 C   0  0  0  0  0  0  0  0  0  0  0  0
  -69.6118   39.2656   -6.4489 C   0  0  0  0  0  0  0  0  0  0  0  0
  -69.7066   37.9223   -6.6593 C   0  0  0  0  0  0  0  0  0  0  0  0
  -70.9795   37.1282   -6.4977 C   0  0  0  0  0  0  0  0  0  0  0  0
  -68.5596   37.2494   -7.0560 N   0  0  0  0  0  0  0  0  0  0  0  0
  -67.4644   37.9603   -7.1783 C   0  0  0  0  0  0  0  0  0  0  0  0
  -66.2018   37.1966   -7.5715 C   0  0  0  0  0  0  0  0  0  0  0  0
  -66.2460   35.9910   -7.6235 O   0  0  0  0  0  0  0  0  0  0  0  0
  -65.1402   37.9787   -7.7384 N   0  0  0  0  0  0  0  0  0  0  0  0
  -65.0611   39.3766   -7.6842 C   0  0  0  0  0  0  0  0  0  0  0  0
  -64.0698   39.9864   -7.9417 O   0  0  0  0  0  0  0  0  0  0  0  0
  -66.2101   40.0677   -7.2345 N   0  0  0  0  0  0  0  0  0  0  0  0
  -67.2719   39.3379   -7.0441 C   0  0  0  0  0  0  0  0  0  0  0  0
  -68.4867   39.9905   -6.6191 N   0  0  0  0  0  0  0  0  0  0  0  0
  -68.2809   41.4011   -6.2343 C   0  0  0  0  0  0  0  0  0  0  0  0
  -67.4910   41.3640   -4.8607 C   0  0  2  0  0  0  0  0  0  0  0  0
  -68.3193   40.9499   -3.7423 O   0  0  0  0  0  0  0  0  0  0  0  0
  -66.8605   42.7272   -4.3974 C   0  0  2  0  0  0  0  0  0  0  0  0
  -67.5453   43.7803   -5.1165 O   0  0  0  0  0  0  0  0  0  0  0  0
  -65.3883   42.8226   -4.7659 C   0  0  2  0  0  0  0  0  0  0  0  0
  -65.1789   42.9879   -6.1936 O   0  0  0  0  0  0  0  0  0  0  0  0
  -64.6622   41.5791   -4.2570 C   0  0  0  0  0  0  0  0  0  0  0  0
  -63.4006   41.8586   -3.6301 O   0  0  0  0  0  0  0  0  0  0  0  0
  -70.8685   40.0653   -4.8554 H   0  0  0  0  0  0  0  0  0  0  0  0
  -70.8037   41.0887   -6.3303 H   0  0  0  0  0  0  0  0  0  0  0  0
  -71.7681   39.5732   -6.3303 H   0  0  0  0  0  0  0  0  0  0  0  0
  -71.1945   36.9940   -5.4273 H   0  0  0  0  0  0  0  0  0  0  0  0
  -71.8113   37.6678   -6.9740 H   0  0  0  0  0  0  0  0  0  0  0  0
  -70.8605   36.1438   -6.9740 H   0  0  0  0  0  0  0  0  0  0  0  0
  -64.2547   37.4905   -7.9343 H   0  0  0  0  0  0  0  0  0  0  0  0
  -67.6913   41.9250   -7.0011 H   0  0  0  0  0  0  0  0  0  0  0  0
  -69.2364   41.9374   -6.1372 H   0  0  0  0  0  0  0  0  0  0  0  0
  -66.6952   40.6423   -5.0970 H   0  0  0  0  0  0  0  0  0  0  0  0
  -67.8645   41.1773   -2.8928 H   0  0  0  0  0  0  0  0  0  0  0  0
  -66.9598   42.8086   -3.3049 H   0  0  0  0  0  0  0  0  0  0  0  0
  -67.9542   44.4091   -4.4703 H   0  0  0  0  0  0  0  0  0  0  0  0
  -64.9772   43.7226   -4.2853 H   0  0  0  0  0  0  0  0  0  0  0  0
  -64.4112   43.5940   -6.3466 H   0  0  0  0  0  0  0  0  0  0  0  0
  -65.3095   41.0756   -3.5238 H   0  0  0  0  0  0  0  0  0  0  0  0
  -64.4508   40.9507   -5.1348 H   0  0  0  0  0  0  0  0  0  0  0  0
  -63.5085   41.8347   -2.6463 H   0  0  0  0  0  0  0  0  0  0  0  0
  1  2  1  0
  2  3  2  0
  2 14  1  0
  3  4  1  0
  3  5  1  0
  5  6  2  0
  6  7  1  0
  6 13  1  0
  7  8  2  0
  7  9  1  0
  9 10  1  0
 10 11  2  0
 10 12  1  0
 12 13  2  0
 13 14  1  0
 14 15  1  0
 15 16  1  0
 16 17  1  0
 16 18  1  0
 18 19  1  0
 18 20  1  0
 20 21  1  0
 20 22  1  0
 22 23  1  0
  1 24  1  0
  1 25  1  0
  1 26  1  0
  4 27  1  0
  4 28  1  0
  4 29  1  0
  9 30  1  0
 15 31  1  0
 15 32  1  0
 16 33  1  6
 17 34  1  0
 18 35  1  1
 19 36  1  0
 20 37  1  1
 21 38  1  0
 22 39  1  0
 22 40  1  0
 23 41  1  0
M  END
>  <filename_input>  (11) 
8A1H_DLZ_docked.sdf

>  <pdb_id>  (11) 
8A1H_DLZ

>  <pose_rank>  (11) 
10

>  <num_atoms_heavy>  (11) 
23

>  <num_torsions>  (11) 
5

>  <pose>  (11) 
[-70.85347824083925, 40.05576376682186, -5.955296010259775, 2.9128922036369107, 0.7446991980650651, -0.1180881991826339, 0.1219985311091693, -0.6692427238072767, -0.8112326824134227, 2.0556174722451566, 0.8423908333371403]

>  <energy>  (11) 
-673.4541063672888

>  <inter_energy>  (11) 
-672.4682530493674

>  <intra_energy>  (11) 
18.265144277834768

>  <rmsd>  (11) 
5.31981

>  <sdf_rank>  (11) 
0

$$$$

     RDKit          3D

 41 42  0  0  0  0  0  0  0  0999 V2000
  -69.8186   38.3535   -6.2079 C   0  0  0  0  0  0  0  0  0  0  0  0
  -68.9234   39.5670   -5.8392 C   0  0  0  0  0  0  0  0  0  0  0  0
  -69.4963   40.7079   -5.3622 C   0  0  0  0  0  0  0  0  0  0  0  0
  -70.9743   40.8689   -5.1042 C   0  0  0  0  0  0  0  0  0  0  0  0
  -68.6621   41.7829   -5.0894 N   0  0  0  0  0  0  0  0  0  0  0  0
  -67.3836   41.6212   -5.3328 C   0  0  0  0  0  0  0  0  0  0  0  0
  -66.4862   42.8285   -5.0699 C   0  0  0  0  0  0  0  0  0  0  0  0
  -67.0014   43.8819   -4.7815 O   0  0  0  0  0  0  0  0  0  0  0  0
  -65.1962   42.5846   -5.2770 N   0  0  0  0  0  0  0  0  0  0  0  0
  -64.5730   41.3751   -5.6113 C   0  0  0  0  0  0  0  0  0  0  0  0
  -63.3902   41.2466   -5.6842 O   0  0  0  0  0  0  0  0  0  0  0  0
  -65.4158   40.2874   -5.9380 N   0  0  0  0  0  0  0  0  0  0  0  0
  -66.6910   40.4864   -5.7634 C   0  0  0  0  0  0  0  0  0  0  0  0
  -67.6003   39.4020   -6.0454 N   0  0  0  0  0  0  0  0  0  0  0  0
  -66.9498   38.2643   -6.7255 C   0  0  0  0  0  0  0  0  0  0  0  0
  -67.9021   37.8801   -7.9329 C   0  0  2  0  0  0  0  0  0  0  0  0
  -69.2177   37.4443   -7.4998 O   0  0  0  0  0  0  0  0  0  0  0  0
  -67.3923   36.7208   -8.8638 C   0  0  2  0  0  0  0  0  0  0  0  0
  -66.7168   35.7600   -8.0178 O   0  0  0  0  0  0  0  0  0  0  0  0
  -66.3712   37.2167   -9.8757 C   0  0  2  0  0  0  0  0  0  0  0  0
  -65.4549   36.1737  -10.3024 O   0  0  0  0  0  0  0  0  0  0  0  0
  -65.6040   38.3943   -9.2782 C   0  0  0  0  0  0  0  0  0  0  0  0
  -66.1574   38.8835   -8.0465 O   0  0  0  0  0  0  0  0  0  0  0  0
  -70.1762   37.8687   -5.2875 H   0  0  0  0  0  0  0  0  0  0  0  0
  -70.6797   38.6992   -6.7987 H   0  0  0  0  0  0  0  0  0  0  0  0
  -69.2342   37.6328   -6.7987 H   0  0  0  0  0  0  0  0  0  0  0  0
  -71.1572   40.8888   -4.0197 H   0  0  0  0  0  0  0  0  0  0  0  0
  -71.3244   41.8105   -5.5524 H   0  0  0  0  0  0  0  0  0  0  0  0
  -71.5188   40.0247   -5.5524 H   0  0  0  0  0  0  0  0  0  0  0  0
  -64.5690   43.3956   -5.1784 H   0  0  0  0  0  0  0  0  0  0  0  0
  -65.9576   38.5578   -7.0988 H   0  0  0  0  0  0  0  0  0  0  0  0
  -66.8011   37.4156   -6.0417 H   0  0  0  0  0  0  0  0  0  0  0  0
  -67.9248   38.8280   -8.4905 H   0  0  0  0  0  0  0  0  0  0  0  0
  -69.2524   37.4328   -6.5105 H   0  0  0  0  0  0  0  0  0  0  0  0
  -68.2522   36.2981   -9.4041 H   0  0  0  0  0  0  0  0  0  0  0  0
  -66.8765   35.9872   -7.0676 H   0  0  0  0  0  0  0  0  0  0  0  0
  -66.9160   37.5388  -10.7754 H   0  0  0  0  0  0  0  0  0  0  0  0
  -65.0657   35.7307   -9.5072 H   0  0  0  0  0  0  0  0  0  0  0  0
  -64.5688   38.0736   -9.0898 H   0  0  0  0  0  0  0  0  0  0  0  0
  -65.6649   39.2175  -10.0053 H   0  0  0  0  0  0  0  0  0  0  0  0
  -65.6848   38.4657   -7.2834 H   0  0  0  0  0  0  0  0  0  0  0  0
  1  2  1  0
  2  3  2  0
  2 14  1  0
  3  4  1  0
  3  5  1  0
  5  6  2  0
  6  7  1  0
  6 13  1  0
  7  8  2  0
  7  9  1  0
  9 10  1  0
 10 11  2  0
 10 12  1  0
 12 13  2  0
 13 14  1  0
 14 15  1  0
 15 16  1  0
 16 17  1  0
 16 18  1  0
 18 19  1  0
 18 20  1  0
 20 21  1  0
 20 22  1  0
 22 23  1  0
  1 24  1  0
  1 25  1  0
  1 26  1  0
  4 27  1  0
  4 28  1  0
  4 29  1  0
  9 30  1  0
 15 31  1  0
 15 32  1  0
 16 33  1  6
 17 34  1  0
 18 35  1  6
 19 36  1  0
 20 37  1  6
 21 38  1  0
 22 39  1  0
 22 40  1  0
 23 41  1  0
M  END
>  <filename_input>  (12) 
8A1H_DLZ_docked.sdf

>  <pdb_id>  (12) 
8A1H_DLZ

>  <pose_rank>  (12) 
11

>  <num_atoms_heavy>  (12) 
23

>  <num_torsions>  (12) 
5

>  <pose>  (12) 
[-69.81858667287987, 38.35351583548384, -6.2078706129976675, 1.2134098736557377, -5.8088757708750185, 1.4429591622886668, -0.9509293366521644, -0.4810147226423769, -0.5151869764796315, 3.487848083678879, 3.0497960473612897]

>  <energy>  (12) 
-401.2084981793124

>  <inter_energy>  (12) 
-869.8347828804508

>  <intra_energy>  (12) 
457.6886075263128

>  <rmsd>  (12) 
1.70238

>  <sdf_rank>  (12) 
0

$$$$

     RDKit          3D

 41 42  0  0  0  0  0  0  0  0999 V2000
  -64.8083   41.8352   -5.0510 C   0  0  0  0  0  0  0  0  0  0  0  0
  -65.1923   40.7377   -6.0794 C   0  0  0  0  0  0  0  0  0  0  0  0
  -64.3763   40.4951   -7.1438 C   0  0  0  0  0  0  0  0  0  0  0  0
  -63.0597   41.1942   -7.3775 C   0  0  0  0  0  0  0  0  0  0  0  0
  -64.7824   39.5372   -8.0623 N   0  0  0  0  0  0  0  0  0  0  0  0
  -65.9354   38.9524   -7.8424 C   0  0  0  0  0  0  0  0  0  0  0  0
  -66.3881   37.9340   -8.8864 C   0  0  0  0  0  0  0  0  0  0  0  0
  -65.7412   37.8153   -9.8991 O   0  0  0  0  0  0  0  0  0  0  0  0
  -67.5325   37.3325   -8.5779 N   0  0  0  0  0  0  0  0  0  0  0  0
  -68.3018   37.4513   -7.4129 C   0  0  0  0  0  0  0  0  0  0  0  0
  -69.2713   36.7917   -7.1989 O   0  0  0  0  0  0  0  0  0  0  0  0
  -67.9239   38.4576   -6.4939 N   0  0  0  0  0  0  0  0  0  0  0  0
  -66.8144   39.0838   -6.7640 C   0  0  0  0  0  0  0  0  0  0  0  0
  -66.3567   40.0977   -5.8448 N   0  0  0  0  0  0  0  0  0  0  0  0
  -67.3604   40.4430   -4.8185 C   0  0  0  0  0  0  0  0  0  0  0  0
  -68.2782   41.5595   -5.4692 C   0  0  2  0  0  0  0  0  0  0  0  0
  -69.0978   42.2574   -4.4948 O   0  0  0  0  0  0  0  0  0  0  0  0
  -69.3000   41.0584   -6.5533 C   0  0  2  0  0  0  0  0  0  0  0  0
  -69.9005   42.2330   -7.1489 O   0  0  0  0  0  0  0  0  0  0  0  0
  -70.4282   40.2484   -5.9342 C   0  0  2  0  0  0  0  0  0  0  0  0
  -71.2042   39.5227   -6.9246 O   0  0  0  0  0  0  0  0  0  0  0  0
  -71.3278   41.1790   -5.1236 C   0  0  0  0  0  0  0  0  0  0  0  0
  -72.7220   41.0699   -5.4508 O   0  0  0  0  0  0  0  0  0  0  0  0
  -64.9445   41.4459   -4.0313 H   0  0  0  0  0  0  0  0  0  0  0  0
  -63.7563   42.1221   -5.1965 H   0  0  0  0  0  0  0  0  0  0  0  0
  -65.4518   42.7153   -5.1965 H   0  0  0  0  0  0  0  0  0  0  0  0
  -62.5979   41.4394   -6.4097 H   0  0  0  0  0  0  0  0  0  0  0  0
  -62.3894   40.5332   -7.9466 H   0  0  0  0  0  0  0  0  0  0  0  0
  -63.2319   42.1197   -7.9466 H   0  0  0  0  0  0  0  0  0  0  0  0
  -67.9047   36.6914   -9.2931 H   0  0  0  0  0  0  0  0  0  0  0  0
  -67.9603   39.5589   -4.5568 H   0  0  0  0  0  0  0  0  0  0  0  0
  -66.8859   40.7988   -3.8921 H   0  0  0  0  0  0  0  0  0  0  0  0
  -67.5208   42.2061   -5.9363 H   0  0  0  0  0  0  0  0  0  0  0  0
  -68.8072   42.0099   -3.5813 H   0  0  0  0  0  0  0  0  0  0  0  0
  -68.7646   40.4269   -7.2776 H   0  0  0  0  0  0  0  0  0  0  0  0
  -70.2122   42.8428   -6.4340 H   0  0  0  0  0  0  0  0  0  0  0  0
  -69.9784   39.4906   -5.2758 H   0  0  0  0  0  0  0  0  0  0  0  0
  -71.8454   38.9231   -6.4669 H   0  0  0  0  0  0  0  0  0  0  0  0
  -71.2024   40.9400   -4.0572 H   0  0  0  0  0  0  0  0  0  0  0  0
  -71.0225   42.2081   -5.3640 H   0  0  0  0  0  0  0  0  0  0  0  0
  -73.2543   41.0283   -4.6171 H   0  0  0  0  0  0  0  0  0  0  0  0
  1  2  1  0
  2  3  2  0
  2 14  1  0
  3  4  1  0
  3  5  1  0
  5  6  2  0
  6  7  1  0
  6 13  1  0
  7  8  2  0
  7  9  1  0
  9 10  1  0
 10 11  2  0
 10 12  1  0
 12 13  2  0
 13 14  1  0
 14 15  1  0
 15 16  1  0
 16 17  1  0
 16 18  1  0
 18 19  1  0
 18 20  1  0
 20 21  1  0
 20 22  1  0
 22 23  1  0
  1 24  1  0
  1 25  1  0
  1 26  1  0
  4 27  1  0
  4 28  1  0
  4 29  1  0
  9 30  1  0
 15 31  1  0
 15 32  1  0
 16 33  1  6
 17 34  1  0
 18 35  1  6
 19 36  1  0
 20 37  1  1
 21 38  1  0
 22 39  1  0
 22 40  1  0
 23 41  1  0
M  END
>  <filename_input>  (13) 
8A1H_DLZ_docked.sdf

>  <pdb_id>  (13) 
8A1H_DLZ

>  <pose_rank>  (13) 
12

>  <num_atoms_heavy>  (13) 
23

>  <num_torsions>  (13) 
5

>  <pose>  (13) 
[-64.80826314532996, 41.83519825164411, -5.051013667797217, 0.6882863506012703, -2.1354600007688176, 2.648034241905547, -0.13736945991742977, -2.2754110255480557, 2.1273320550168693, 4.1865513243884696, -0.8239537956749041]

>  <energy>  (13) 
-515.8912701916073

>  <inter_energy>  (13) 
-596.2089304624685

>  <intra_energy>  (13) 
78.97918927633394

>  <rmsd>  (13) 
6.34293

>  <sdf_rank>  (13) 
0

$$$$

     RDKit          3D

 41 42  0  0  0  0  0  0  0  0999 V2000
  -70.0352   38.5198   -6.6054 C   0  0  0  0  0  0  0  0  0  0  0  0
  -69.1398   39.6805   -6.0950 C   0  0  0  0  0  0  0  0  0  0  0  0
  -69.7133   40.8531   -5.7031 C   0  0  0  0  0  0  0  0  0  0  0  0
  -71.2019   41.0988   -5.6737 C   0  0  0  0  0  0  0  0  0  0  0  0
  -68.8712   41.8790   -5.2978 N   0  0  0  0  0  0  0  0  0  0  0  0
  -67.5818   41.6440   -5.3434 C   0  0  0  0  0  0  0  0  0  0  0  0
  -66.6683   42.7983   -4.9372 C   0  0  0  0  0  0  0  0  0  0  0  0
  -67.1609   43.8799   -4.7235 O   0  0  0  0  0  0  0  0  0  0  0  0
  -65.3777   42.4807   -4.9459 N   0  0  0  0  0  0  0  0  0  0  0  0
  -64.7803   41.2370   -5.1894 C   0  0  0  0  0  0  0  0  0  0  0  0
  -63.6096   41.0409   -5.0810 O   0  0  0  0  0  0  0  0  0  0  0  0
  -65.6234   40.1988   -5.6495 N   0  0  0  0  0  0  0  0  0  0  0  0
  -66.8969   40.4708   -5.6710 C   0  0  0  0  0  0  0  0  0  0  0  0
  -67.8122   39.4397   -6.0971 N   0  0  0  0  0  0  0  0  0  0  0  0
  -67.1307   38.2656   -6.6777 C   0  0  0  0  0  0  0  0  0  0  0  0
  -67.4221   38.3223   -8.2346 C   0  0  2  0  0  0  0  0  0  0  0  0
  -68.3015   37.2583   -8.6850 O   0  0  0  0  0  0  0  0  0  0  0  0
  -66.1639   38.2129   -9.1702 C   0  0  2  0  0  0  0  0  0  0  0  0
  -66.6385   38.2963  -10.5351 O   0  0  0  0  0  0  0  0  0  0  0  0
  -65.4665   36.8697   -9.0238 C   0  0  2  0  0  0  0  0  0  0  0  0
  -66.3420   35.8402   -8.4914 O   0  0  0  0  0  0  0  0  0  0  0  0
  -64.2344   37.0381   -8.1373 C   0  0  0  0  0  0  0  0  0  0  0  0
  -63.7311   38.3825   -8.0912 O   0  0  0  0  0  0  0  0  0  0  0  0
  -70.4550   37.9756   -5.7465 H   0  0  0  0  0  0  0  0  0  0  0  0
  -70.8537   38.9291   -7.2157 H   0  0  0  0  0  0  0  0  0  0  0  0
  -69.4314   37.8320   -7.2157 H   0  0  0  0  0  0  0  0  0  0  0  0
  -71.5436   41.1552   -4.6297 H   0  0  0  0  0  0  0  0  0  0  0  0
  -71.4273   42.0463   -6.1850 H   0  0  0  0  0  0  0  0  0  0  0  0
  -71.7198   40.2740   -6.1850 H   0  0  0  0  0  0  0  0  0  0  0  0
  -64.7280   43.2546   -4.7463 H   0  0  0  0  0  0  0  0  0  0  0  0
  -66.0484   38.3188   -6.4885 H   0  0  0  0  0  0  0  0  0  0  0  0
  -67.4921   37.3270   -6.2324 H   0  0  0  0  0  0  0  0  0  0  0  0
  -67.8735   39.3212   -8.3262 H   0  0  0  0  0  0  0  0  0  0  0  0
  -68.6858   36.7933   -7.9001 H   0  0  0  0  0  0  0  0  0  0  0  0
  -65.4562   39.0120   -8.9046 H   0  0  0  0  0  0  0  0  0  0  0  0
  -67.6136   38.4675  -10.5355 H   0  0  0  0  0  0  0  0  0  0  0  0
  -65.1661   36.5336  -10.0272 H   0  0  0  0  0  0  0  0  0  0  0  0
  -66.3192   35.8669   -7.5020 H   0  0  0  0  0  0  0  0  0  0  0  0
  -64.4990   36.7319   -7.1144 H   0  0  0  0  0  0  0  0  0  0  0  0
  -63.4398   36.4140   -8.5722 H   0  0  0  0  0  0  0  0  0  0  0  0
  -63.6259   38.6633   -7.1477 H   0  0  0  0  0  0  0  0  0  0  0  0
  1  2  1  0
  2  3  2  0
  2 14  1  0
  3  4  1  0
  3  5  1  0
  5  6  2  0
  6  7  1  0
  6 13  1  0
  7  8  2  0
  7  9  1  0
  9 10  1  0
 10 11  2  0
 10 12  1  0
 12 13  2  0
 13 14  1  0
 14 15  1  0
 15 16  1  0
 16 17  1  0
 16 18  1  0
 18 19  1  0
 18 20  1  0
 20 21  1  0
 20 22  1  0
 22 23  1  0
  1 24  1  0
  1 25  1  0
  1 26  1  0
  4 27  1  0
  4 28  1  0
  4 29  1  0
  9 30  1  0
 15 31  1  0
 15 32  1  0
 16 33  1  1
 17 34  1  0
 18 35  1  1
 19 36  1  0
 20 37  1  6
 21 38  1  0
 22 39  1  0
 22 40  1  0
 23 41  1  0
M  END
>  <filename_input>  (14) 
8A1H_DLZ_docked.sdf

>  <pdb_id>  (14) 
8A1H_DLZ

>  <pose_rank>  (14) 
13

>  <num_atoms_heavy>  (14) 
23

>  <num_torsions>  (14) 
5

>  <pose>  (14) 
[-70.03520643621704, 38.51975709474201, -6.605405519031798, -0.02394420796269124, 0.014349596022666208, -0.10088245032093941, -31.932848768036717, 23.800316762870203, 2.000509449920205, 13.763958249159694, -3.461602861590207]

>  <energy>  (14) 
-868.8280123450154

>  <inter_energy>  (14) 
-922.4935521997814

>  <intra_energy>  (14) 
64.98956399022845

>  <rmsd>  (14) 
1.3174

>  <sdf_rank>  (14) 
0

$$$$

     RDKit          3D

 41 42  0  0  0  0  0  0  0  0999 V2000
  -68.7111   41.8767   -4.2146 C   0  0  0  0  0  0  0  0  0  0  0  0
  -69.0440   40.7415   -5.2197 C   0  0  0  0  0  0  0  0  0  0  0  0
  -70.3135   40.6155   -5.6992 C   0  0  0  0  0  0  0  0  0  0  0  0
  -71.4432   41.5571   -5.3611 C   0  0  0  0  0  0  0  0  0  0  0  0
  -70.5758   39.5586   -6.5594 N   0  0  0  0  0  0  0  0  0  0  0  0
  -69.5802   38.7486   -6.8284 C   0  0  0  0  0  0  0  0  0  0  0  0
  -69.8972   37.5654   -7.7403 C   0  0  0  0  0  0  0  0  0  0  0  0
  -71.0460   37.3681   -8.0558 O   0  0  0  0  0  0  0  0  0  0  0  0
  -68.8365   36.8165   -8.0242 N   0  0  0  0  0  0  0  0  0  0  0  0
  -67.4960   37.0218   -7.6723 C   0  0  0  0  0  0  0  0  0  0  0  0
  -66.6046   36.3318   -8.0597 O   0  0  0  0  0  0  0  0  0  0  0  0
  -67.2250   38.0663   -6.7580 N   0  0  0  0  0  0  0  0  0  0  0  0
  -68.2396   38.8184   -6.4401 C   0  0  0  0  0  0  0  0  0  0  0  0
  -68.0195   39.9234   -5.5385 N   0  0  0  0  0  0  0  0  0  0  0  0
  -66.6817   39.9024   -4.9141 C   0  0  0  0  0  0  0  0  0  0  0  0
  -65.8282   40.9945   -5.6829 C   0  0  2  0  0  0  0  0  0  0  0  0
  -66.1952   41.1178   -7.0824 O   0  0  0  0  0  0  0  0  0  0  0  0
  -64.2746   40.7573   -5.7049 C   0  0  2  0  0  0  0  0  0  0  0  0
  -63.6531   41.9508   -5.1718 O   0  0  0  0  0  0  0  0  0  0  0  0
  -63.7507   40.5785   -7.1212 C   0  0  2  0  0  0  0  0  0  0  0  0
  -63.7599   41.8163   -7.8811 O   0  0  0  0  0  0  0  0  0  0  0  0
  -64.5764   39.5069   -7.8300 C   0  0  0  0  0  0  0  0  0  0  0  0
  -63.7933   38.4256   -8.3594 O   0  0  0  0  0  0  0  0  0  0  0  0
  -68.8214   41.5005   -3.1868 H   0  0  0  0  0  0  0  0  0  0  0  0
  -67.6762   42.2144   -4.3724 H   0  0  0  0  0  0  0  0  0  0  0  0
  -69.3999   42.7198   -4.3724 H   0  0  0  0  0  0  0  0  0  0  0  0
  -71.5392   41.6371   -4.2683 H   0  0  0  0  0  0  0  0  0  0  0  0
  -71.2319   42.5502   -5.7843 H   0  0  0  0  0  0  0  0  0  0  0  0
  -72.3820   41.1703   -5.7843 H   0  0  0  0  0  0  0  0  0  0  0  0
  -69.0259   35.9694   -8.5786 H   0  0  0  0  0  0  0  0  0  0  0  0
  -66.7537   40.1549   -3.8459 H   0  0  0  0  0  0  0  0  0  0  0  0
  -66.2194   38.9065   -4.9815 H   0  0  0  0  0  0  0  0  0  0  0  0
  -66.0632   41.8944   -5.0957 H   0  0  0  0  0  0  0  0  0  0  0  0
  -67.1314   41.4322   -7.1516 H   0  0  0  0  0  0  0  0  0  0  0  0
  -64.0479   39.8507   -5.1247 H   0  0  0  0  0  0  0  0  0  0  0  0
  -63.6702   41.9180   -4.1825 H   0  0  0  0  0  0  0  0  0  0  0  0
  -62.6992   40.2623   -7.0552 H   0  0  0  0  0  0  0  0  0  0  0  0
  -63.7657   42.5858   -7.2584 H   0  0  0  0  0  0  0  0  0  0  0  0
  -65.2975   39.0925   -7.1101 H   0  0  0  0  0  0  0  0  0  0  0  0
  -65.0670   39.9950   -8.6851 H   0  0  0  0  0  0  0  0  0  0  0  0
  -63.4116   37.8984   -7.6134 H   0  0  0  0  0  0  0  0  0  0  0  0
  1  2  1  0
  2  3  2  0
  2 14  1  0
  3  4  1  0
  3  5  1  0
  5  6  2  0
  6  7  1  0
  6 13  1  0
  7  8  2  0
  7  9  1  0
  9 10  1  0
 10 11  2  0
 10 12  1  0
 12 13  2  0
 13 14  1  0
 14 15  1  0
 15 16  1  0
 16 17  1  0
 16 18  1  0
 18 19  1  0
 18 20  1  0
 20 21  1  0
 20 22  1  0
 22 23  1  0
  1 24  1  0
  1 25  1  0
  1 26  1  0
  4 27  1  0
  4 28  1  0
  4 29  1  0
  9 30  1  0
 15 31  1  0
 15 32  1  0
 16 33  1  1
 17 34  1  0
 18 35  1  1
 19 36  1  0
 20 37  1  1
 21 38  1  0
 22 39  1  0
 22 40  1  0
 23 41  1  0
M  END
>  <filename_input>  (15) 
8A1H_DLZ_docked.sdf

>  <pdb_id>  (15) 
8A1H_DLZ

>  <pose_rank>  (15) 
14

>  <num_atoms_heavy>  (15) 
23

>  <num_torsions>  (15) 
5

>  <pose>  (15) 
[-68.71112921259714, 41.876746507532225, -4.214605582637996, -2.595182890684205, 1.0767953572781501, 0.19620284891991666, 3.167356297468632, 0.03308175820959865, 2.9534351421847567, 2.062481316335833, 1.0509782711720377]

>  <energy>  (15) 
-566.1265463246611

>  <inter_energy>  (15) 
-632.9497797640438

>  <intra_energy>  (15) 
85.70526509349861

>  <rmsd>  (15) 
4.60167

>  <sdf_rank>  (15) 
0

$$$$

     RDKit          3D

 41 42  0  0  0  0  0  0  0  0999 V2000
  -70.0642   38.3679   -6.2633 C   0  0  0  0  0  0  0  0  0  0  0  0
  -69.2381   39.6377   -5.9246 C   0  0  0  0  0  0  0  0  0  0  0  0
  -69.8815   40.7984   -5.6140 C   0  0  0  0  0  0  0  0  0  0  0  0
  -71.3811   40.9349   -5.5169 C   0  0  0  0  0  0  0  0  0  0  0  0
  -69.1032   41.9197   -5.3632 N   0  0  0  0  0  0  0  0  0  0  0  0
  -67.8036   41.7774   -5.4652 C   0  0  0  0  0  0  0  0  0  0  0  0
  -66.9645   43.0316   -5.2303 C   0  0  0  0  0  0  0  0  0  0  0  0
  -67.5297   44.0898   -5.0930 O   0  0  0  0  0  0  0  0  0  0  0  0
  -65.6551   42.8111   -5.2876 N   0  0  0  0  0  0  0  0  0  0  0  0
  -64.9743   41.5967   -5.4454 C   0  0  0  0  0  0  0  0  0  0  0  0
  -63.7875   41.4999   -5.3908 O   0  0  0  0  0  0  0  0  0  0  0  0
  -65.7554   40.4576   -5.7493 N   0  0  0  0  0  0  0  0  0  0  0  0
  -67.0458   40.6309   -5.7186 C   0  0  0  0  0  0  0  0  0  0  0  0
  -67.8976   39.4969   -5.9850 N   0  0  0  0  0  0  0  0  0  0  0  0
  -67.1569   38.3235   -6.4895 C   0  0  0  0  0  0  0  0  0  0  0  0
  -67.4792   38.2419   -8.0393 C   0  0  2  0  0  0  0  0  0  0  0  0
  -68.2172   37.0451   -8.4017 O   0  0  0  0  0  0  0  0  0  0  0  0
  -66.2334   38.2390   -8.9976 C   0  0  2  0  0  0  0  0  0  0  0  0
  -66.6247   37.5418  -10.2041 O   0  0  0  0  0  0  0  0  0  0  0  0
  -65.0638   37.4719   -8.4009 C   0  0  2  0  0  0  0  0  0  0  0  0
  -65.4629   36.1950   -7.8354 O   0  0  0  0  0  0  0  0  0  0  0  0
  -64.3828   38.3382   -7.3435 C   0  0  0  0  0  0  0  0  0  0  0  0
  -63.8885   39.5891   -7.8474 O   0  0  0  0  0  0  0  0  0  0  0  0
  -70.3828   37.8782   -5.3313 H   0  0  0  0  0  0  0  0  0  0  0  0
  -70.9505   38.6526   -6.8494 H   0  0  0  0  0  0  0  0  0  0  0  0
  -69.4448   37.6730   -6.8494 H   0  0  0  0  0  0  0  0  0  0  0  0
  -71.6790   40.9620   -4.4584 H   0  0  0  0  0  0  0  0  0  0  0  0
  -71.6973   41.8655   -6.0108 H   0  0  0  0  0  0  0  0  0  0  0  0
  -71.8602   40.0766   -6.0108 H   0  0  0  0  0  0  0  0  0  0  0  0
  -65.0594   43.6473   -5.2048 H   0  0  0  0  0  0  0  0  0  0  0  0
  -66.0766   38.4548   -6.3295 H   0  0  0  0  0  0  0  0  0  0  0  0
  -67.4528   37.4025   -5.9657 H   0  0  0  0  0  0  0  0  0  0  0  0
  -68.0604   39.1651   -8.1804 H   0  0  0  0  0  0  0  0  0  0  0  0
  -68.5072   36.5748   -7.5803 H   0  0  0  0  0  0  0  0  0  0  0  0
  -65.9228   39.2792   -9.1756 H   0  0  0  0  0  0  0  0  0  0  0  0
  -67.0948   36.7044   -9.9637 H   0  0  0  0  0  0  0  0  0  0  0  0
  -64.3585   37.2448   -9.2139 H   0  0  0  0  0  0  0  0  0  0  0  0
  -65.4452   36.2517   -6.8472 H   0  0  0  0  0  0  0  0  0  0  0  0
  -65.1112   38.5492   -6.5467 H   0  0  0  0  0  0  0  0  0  0  0  0
  -63.5117   37.7734   -6.9800 H   0  0  0  0  0  0  0  0  0  0  0  0
  -63.6546   40.1810   -7.0891 H   0  0  0  0  0  0  0  0  0  0  0  0
  1  2  1  0
  2  3  2  0
  2 14  1  0
  3  4  1  0
  3  5  1  0
  5  6  2  0
  6  7  1  0
  6 13  1  0
  7  8  2  0
  7  9  1  0
  9 10  1  0
 10 11  2  0
 10 12  1  0
 12 13  2  0
 13 14  1  0
 14 15  1  0
 15 16  1  0
 16 17  1  0
 16 18  1  0
 18 19  1  0
 18 20  1  0
 20 21  1  0
 20 22  1  0
 22 23  1  0
  1 24  1  0
  1 25  1  0
  1 26  1  0
  4 27  1  0
  4 28  1  0
  4 29  1  0
  9 30  1  0
 15 31  1  0
 15 32  1  0
 16 33  1  6
 17 34  1  0
 18 35  1  6
 19 36  1  0
 20 37  1  6
 21 38  1  0
 22 39  1  0
 22 40  1  0
 23 41  1  0
M  END
>  <filename_input>  (16) 
8A1H_DLZ_docked.sdf

>  <pdb_id>  (16) 
8A1H_DLZ

>  <pose_rank>  (16) 
15

>  <num_atoms_heavy>  (16) 
23

>  <num_torsions>  (16) 
5

>  <pose>  (16) 
[-70.06424843731126, 38.36786973256629, -6.2633381032628925, -0.12713310222176402, 0.06629670285721165, -0.023613882958770913, -31.88553229456598, 23.72641439270458, 1.5207068596020605, 14.180126461606346, -4.092035921746484]

>  <energy>  (16) 
-762.7413615777003

>  <inter_energy>  (16) 
-853.7636797741035

>  <intra_energy>  (16) 
89.97773316705204

>  <rmsd>  (16) 
1.55281

>  <sdf_rank>  (16) 
0

$$$$

     RDKit          3D

 41 42  0  0  0  0  0  0  0  0999 V2000
  -64.4860   36.7090    1.7020 C   0  0  0  0  0  0  0  0  0  0  0  0
  -63.0822   36.0472    1.6709 C   0  0  0  0  0  0  0  0  0  0  0  0
  -62.0453   36.6327    2.3339 C   0  0  0  0  0  0  0  0  0  0  0  0
  -62.1726   37.8839    3.1678 C   0  0  0  0  0  0  0  0  0  0  0  0
  -60.7983   36.0309    2.2405 N   0  0  0  0  0  0  0  0  0  0  0  0
  -60.7120   34.9514    1.5009 C   0  0  0  0  0  0  0  0  0  0  0  0
  -59.3240   34.3278    1.3722 C   0  0  0  0  0  0  0  0  0  0  0  0
  -58.3786   34.9159    1.8398 O   0  0  0  0  0  0  0  0  0  0  0  0
  -59.3117   33.2048    0.6614 N   0  0  0  0  0  0  0  0  0  0  0  0
  -60.3909   32.5025    0.1088 C   0  0  0  0  0  0  0  0  0  0  0  0
  -60.2757   31.4489   -0.4364 O   0  0  0  0  0  0  0  0  0  0  0  0
  -61.6574   33.1303    0.1565 N   0  0  0  0  0  0  0  0  0  0  0  0
  -61.7133   34.2425    0.8318 C   0  0  0  0  0  0  0  0  0  0  0  0
  -62.9861   34.9126    0.9472 N   0  0  0  0  0  0  0  0  0  0  0  0
  -64.0234   34.3386    0.0670 C   0  0  0  0  0  0  0  0  0  0  0  0
  -64.8938   33.3864    0.9879 C   0  0  2  0  0  0  0  0  0  0  0  0
  -65.1221   32.0803    0.3961 O   0  0  0  0  0  0  0  0  0  0  0  0
  -66.3315   33.9101    1.3476 C   0  0  2  0  0  0  0  0  0  0  0  0
  -66.9280   32.9399    2.2409 O   0  0  0  0  0  0  0  0  0  0  0  0
  -67.2257   33.9926    0.1205 C   0  0  2  0  0  0  0  0  0  0  0  0
  -67.6600   35.3490   -0.1647 O   0  0  0  0  0  0  0  0  0  0  0  0
  -68.4294   33.0728    0.3141 C   0  0  0  0  0  0  0  0  0  0  0  0
  -68.4544   31.9518   -0.5834 O   0  0  0  0  0  0  0  0  0  0  0  0
  -64.7988   36.8564    2.7462 H   0  0  0  0  0  0  0  0  0  0  0  0
  -64.4440   37.6821    1.1909 H   0  0  0  0  0  0  0  0  0  0  0  0
  -65.2100   36.0573    1.1909 H   0  0  0  0  0  0  0  0  0  0  0  0
  -62.1455   37.6177    4.2348 H   0  0  0  0  0  0  0  0  0  0  0  0
  -61.3390   38.5639    2.9382 H   0  0  0  0  0  0  0  0  0  0  0  0
  -63.1260   38.3821    2.9382 H   0  0  0  0  0  0  0  0  0  0  0  0
  -58.3819   32.7948    0.4938 H   0  0  0  0  0  0  0  0  0  0  0  0
  -64.6494   35.1369   -0.3582 H   0  0  0  0  0  0  0  0  0  0  0  0
  -63.5797   33.7901   -0.7769 H   0  0  0  0  0  0  0  0  0  0  0  0
  -64.2708   33.3454    1.8935 H   0  0  0  0  0  0  0  0  0  0  0  0
  -65.2395   31.4087    1.1139 H   0  0  0  0  0  0  0  0  0  0  0  0
  -66.2411   34.9131    1.7900 H   0  0  0  0  0  0  0  0  0  0  0  0
  -66.7623   33.2094    3.1789 H   0  0  0  0  0  0  0  0  0  0  0  0
  -66.6370   33.6655   -0.7493 H   0  0  0  0  0  0  0  0  0  0  0  0
  -67.8145   35.8317    0.6857 H   0  0  0  0  0  0  0  0  0  0  0  0
  -68.4111   32.6907    1.3454 H   0  0  0  0  0  0  0  0  0  0  0  0
  -69.3271   33.6721    0.1021 H   0  0  0  0  0  0  0  0  0  0  0  0
  -68.4731   31.1111   -0.0609 H   0  0  0  0  0  0  0  0  0  0  0  0
  1  2  1  0
  2  3  2  0
  2 14  1  0
  3  4  1  0
  3  5  1  0
  5  6  2  0
  6  7  1  0
  6 13  1  0
  7  8  2  0
  7  9  1  0
  9 10  1  0
 10 11  2  0
 10 12  1  0
 12 13  2  0
 13 14  1  0
 14 15  1  0
 15 16  1  0
 16 17  1  0
 16 18  1  0
 18 19  1  0
 18 20  1  0
 20 21  1  0
 20 22  1  0
 22 23  1  0
  1 24  1  0
  1 25  1  0
  1 26  1  0
  4 27  1  0
  4 28  1  0
  4 29  1  0
  9 30  1  0
 15 31  1  0
 15 32  1  0
 16 33  1  1
 17 34  1  0
 18 35  1  1
 19 36  1  0
 20 37  1  6
 21 38  1  0
 22 39  1  0
 22 40  1  0
 23 41  1  0
M  END
>  <filename_input>  (17) 
8A1H_DLZ_docked.sdf

>  <pdb_id>  (17) 
8A1H_DLZ

>  <pose_rank>  (17) 
16

>  <num_atoms_heavy>  (17) 
23

>  <num_torsions>  (17) 
5

>  <pose>  (17) 
[-64.48600523053891, 36.70898150452701, 1.7020194884825273, 0.3512565602381966, 0.5275795981166422, -1.332096979689531, 34.52010333164771, 23.429395451905883, 14.609122706122303, 5.043873807783922, 1.246038699835943]

>  <energy>  (17) 
-218.57147845118124

>  <inter_energy>  (17) 
-231.83454329193466

>  <intra_energy>  (17) 
14.120328712350684

>  <rmsd>  (17) 
11.2496

>  <sdf_rank>  (17) 
0

$$$$

     RDKit          3D

 41 42  0  0  0  0  0  0  0  0999 V2000
  -68.8862   32.6310    0.2207 C   0  0  0  0  0  0  0  0  0  0  0  0
  -67.6491   33.3546    0.8169 C   0  0  0  0  0  0  0  0  0  0  0  0
  -67.5653   33.5499    2.1631 C   0  0  0  0  0  0  0  0  0  0  0  0
  -68.5875   33.0528    3.1556 C   0  0  0  0  0  0  0  0  0  0  0  0
  -66.4640   34.2420    2.6469 N   0  0  0  0  0  0  0  0  0  0  0  0
  -65.5963   34.6730    1.7631 C   0  0  0  0  0  0  0  0  0  0  0  0
  -64.4142   35.4714    2.3082 C   0  0  0  0  0  0  0  0  0  0  0  0
  -64.4052   35.7676    3.4789 O   0  0  0  0  0  0  0  0  0  0  0  0
  -63.5398   35.8283    1.3731 N   0  0  0  0  0  0  0  0  0  0  0  0
  -63.5261   35.4992    0.0112 C   0  0  0  0  0  0  0  0  0  0  0  0
  -62.6382   35.7989   -0.7255 O   0  0  0  0  0  0  0  0  0  0  0  0
  -64.6659   34.8367   -0.5007 N   0  0  0  0  0  0  0  0  0  0  0  0
  -65.5570   34.4802    0.3796 C   0  0  0  0  0  0  0  0  0  0  0  0
  -66.7266   33.7685   -0.0765 N   0  0  0  0  0  0  0  0  0  0  0  0
  -66.8526   33.7462   -1.5474 C   0  0  0  0  0  0  0  0  0  0  0  0
  -66.7148   32.2249   -1.9705 C   0  0  2  0  0  0  0  0  0  0  0  0
  -65.3359   31.8148   -2.1674 O   0  0  0  0  0  0  0  0  0  0  0  0
  -67.4388   31.8179   -3.3049 C   0  0  2  0  0  0  0  0  0  0  0  0
  -67.5974   33.0240   -4.0893 O   0  0  0  0  0  0  0  0  0  0  0  0
  -68.8334   31.2699   -3.0461 C   0  0  2  0  0  0  0  0  0  0  0  0
  -68.9728   29.8820   -3.4511 O   0  0  0  0  0  0  0  0  0  0  0  0
  -69.8578   32.1447   -3.7655 C   0  0  0  0  0  0  0  0  0  0  0  0
  -71.1800   32.0681   -3.2098 O   0  0  0  0  0  0  0  0  0  0  0  0
  -69.5223   32.2589    1.0374 H   0  0  0  0  0  0  0  0  0  0  0  0
  -69.4600   33.3358   -0.3989 H   0  0  0  0  0  0  0  0  0  0  0  0
  -68.5531   31.7853   -0.3989 H   0  0  0  0  0  0  0  0  0  0  0  0
  -68.2225   33.2303    4.1779 H   0  0  0  0  0  0  0  0  0  0  0  0
  -69.5354   33.5904    3.0061 H   0  0  0  0  0  0  0  0  0  0  0  0
  -68.7497   31.9751    3.0061 H   0  0  0  0  0  0  0  0  0  0  0  0
  -62.7666   36.4288    1.6932 H   0  0  0  0  0  0  0  0  0  0  0  0
  -67.8322   34.1416   -1.8539 H   0  0  0  0  0  0  0  0  0  0  0  0
  -66.0857   34.3710   -2.0287 H   0  0  0  0  0  0  0  0  0  0  0  0
  -67.1940   31.7263   -1.1151 H   0  0  0  0  0  0  0  0  0  0  0  0
  -64.9012   31.6855   -1.2874 H   0  0  0  0  0  0  0  0  0  0  0  0
  -66.8407   31.0447   -3.8091 H   0  0  0  0  0  0  0  0  0  0  0  0
  -67.6996   33.8005   -3.4837 H   0  0  0  0  0  0  0  0  0  0  0  0
  -69.0109   31.2961   -1.9608 H   0  0  0  0  0  0  0  0  0  0  0  0
  -69.0305   29.3077   -2.6468 H   0  0  0  0  0  0  0  0  0  0  0  0
  -69.5194   33.1900   -3.7118 H   0  0  0  0  0  0  0  0  0  0  0  0
  -69.9237   31.7753   -4.7995 H   0  0  0  0  0  0  0  0  0  0  0  0
  -71.1232   32.0714   -2.2215 H   0  0  0  0  0  0  0  0  0  0  0  0
  1  2  1  0
  2  3  2  0
  2 14  1  0
  3  4  1  0
  3  5  1  0
  5  6  2  0
  6  7  1  0
  6 13  1  0
  7  8  2  0
  7  9  1  0
  9 10  1  0
 10 11  2  0
 10 12  1  0
 12 13  2  0
 13 14  1  0
 14 15  1  0
 15 16  1  0
 16 17  1  0
 16 18  1  0
 18 19  1  0
 18 20  1  0
 20 21  1  0
 20 22  1  0
 22 23  1  0
  1 24  1  0
  1 25  1  0
  1 26  1  0
  4 27  1  0
  4 28  1  0
  4 29  1  0
  9 30  1  0
 15 31  1  0
 15 32  1  0
 16 33  1  1
 17 34  1  0
 18 35  1  6
 19 36  1  0
 20 37  1  1
 21 38  1  0
 22 39  1  0
 22 40  1  0
 23 41  1  0
M  END
>  <filename_input>  (18) 
8A1H_DLZ_docked.sdf

>  <pdb_id>  (18) 
8A1H_DLZ

>  <pose_rank>  (18) 
17

>  <num_atoms_heavy>  (18) 
23

>  <num_torsions>  (18) 
5

>  <pose>  (18) 
[-68.88624447608349, 32.63095768399381, 0.22067160435451427, -3.712433876370764, -3.456063186078363, -0.2519021095342438, -9.18255986413545, -0.9100843001965906, -7.033988328354965, -1.224451280356067, 0.4761934352269438]

>  <energy>  (18) 
-197.86401199241095

>  <inter_energy>  (18) 
-206.87778569337968

>  <intra_energy>  (18) 
16.406355679946078

>  <rmsd>  (18) 
9.39543

>  <sdf_rank>  (18) 
0

$$$$

     RDKit          3D

 41 42  0  0  0  0  0  0  0  0999 V2000
  -66.3645   34.5911    1.4353 C   0  0  0  0  0  0  0  0  0  0  0  0
  -65.4843   35.7576    1.9591 C   0  0  0  0  0  0  0  0  0  0  0  0
  -66.0534   36.9685    2.2184 C   0  0  0  0  0  0  0  0  0  0  0  0
  -67.5286   37.2565    2.0844 C   0  0  0  0  0  0  0  0  0  0  0  0
  -65.2206   37.9950    2.6409 N   0  0  0  0  0  0  0  0  0  0  0  0
  -63.9416   37.7222    2.7384 C   0  0  0  0  0  0  0  0  0  0  0  0
  -63.0335   38.8750    3.1610 C   0  0  0  0  0  0  0  0  0  0  0  0
  -63.5078   39.9813    3.2570 O   0  0  0  0  0  0  0  0  0  0  0  0
  -61.7597   38.5220    3.3004 N   0  0  0  0  0  0  0  0  0  0  0  0
  -61.1838   37.2491    3.1952 C   0  0  0  0  0  0  0  0  0  0  0  0
  -60.0365   37.0284    3.4314 O   0  0  0  0  0  0  0  0  0  0  0  0
  -62.0126   36.2068    2.7190 N   0  0  0  0  0  0  0  0  0  0  0  0
  -63.2680   36.5117    2.5541 C   0  0  0  0  0  0  0  0  0  0  0  0
  -64.1718   35.4807    2.1040 N   0  0  0  0  0  0  0  0  0  0  0  0
  -63.4770   34.2530    1.6681 C   0  0  0  0  0  0  0  0  0  0  0  0
  -62.9161   34.5646    0.2188 C   0  0  2  0  0  0  0  0  0  0  0  0
  -63.8559   34.2296   -0.8361 O   0  0  0  0  0  0  0  0  0  0  0  0
  -61.5953   33.8117   -0.1798 C   0  0  2  0  0  0  0  0  0  0  0  0
  -61.8197   32.4016    0.0574 O   0  0  0  0  0  0  0  0  0  0  0  0
  -60.4224   34.2278    0.6940 C   0  0  2  0  0  0  0  0  0  0  0  0
  -59.5629   35.2045    0.0481 O   0  0  0  0  0  0  0  0  0  0  0  0
  -59.6242   32.9865    1.0869 C   0  0  0  0  0  0  0  0  0  0  0  0
  -58.2011   33.1584    0.9974 O   0  0  0  0  0  0  0  0  0  0  0  0
  -66.7831   34.0362    2.2878 H   0  0  0  0  0  0  0  0  0  0  0  0
  -67.1839   34.9962    0.8234 H   0  0  0  0  0  0  0  0  0  0  0  0
  -65.7500   33.9143    0.8234 H   0  0  0  0  0  0  0  0  0  0  0  0
  -67.9774   37.3441    3.0848 H   0  0  0  0  0  0  0  0  0  0  0  0
  -67.6698   38.1991    1.5353 H   0  0  0  0  0  0  0  0  0  0  0  0
  -68.0139   36.4361    1.5353 H   0  0  0  0  0  0  0  0  0  0  0  0
  -61.1068   39.2891    3.5151 H   0  0  0  0  0  0  0  0  0  0  0  0
  -62.6516   34.0156    2.3553 H   0  0  0  0  0  0  0  0  0  0  0  0
  -64.1536   33.3857    1.6621 H   0  0  0  0  0  0  0  0  0  0  0  0
  -62.7244   35.6450    0.2971 H   0  0  0  0  0  0  0  0  0  0  0  0
  -64.7083   33.9258   -0.4345 H   0  0  0  0  0  0  0  0  0  0  0  0
  -61.3584   34.0457   -1.2282 H   0  0  0  0  0  0  0  0  0  0  0  0
  -61.8469   32.2312    1.0323 H   0  0  0  0  0  0  0  0  0  0  0  0
  -60.8271   34.7162    1.5927 H   0  0  0  0  0  0  0  0  0  0  0  0
  -59.0935   35.7380    0.7374 H   0  0  0  0  0  0  0  0  0  0  0  0
  -59.8772   32.7262    2.1253 H   0  0  0  0  0  0  0  0  0  0  0  0
  -59.8959   32.1932    0.3749 H   0  0  0  0  0  0  0  0  0  0  0  0
  -57.8164   33.2048    1.9084 H   0  0  0  0  0  0  0  0  0  0  0  0
  1  2  1  0
  2  3  2  0
  2 14  1  0
  3  4  1  0
  3  5  1  0
  5  6  2  0
  6  7  1  0
  6 13  1  0
  7  8  2  0
  7  9  1  0
  9 10  1  0
 10 11  2  0
 10 12  1  0
 12 13  2  0
 13 14  1  0
 14 15  1  0
 15 16  1  0
 16 17  1  0
 16 18  1  0
 18 19  1  0
 18 20  1  0
 20 21  1  0
 20 22  1  0
 22 23  1  0
  1 24  1  0
  1 25  1  0
  1 26  1  0
  4 27  1  0
  4 28  1  0
  4 29  1  0
  9 30  1  0
 15 31  1  0
 15 32  1  0
 16 33  1  1
 17 34  1  0
 18 35  1  6
 19 36  1  0
 20 37  1  1
 21 38  1  0
 22 39  1  0
 22 40  1  0
 23 41  1  0
M  END
>  <filename_input>  (19) 
8A1H_DLZ_docked.sdf

>  <pdb_id>  (19) 
8A1H_DLZ

>  <pose_rank>  (19) 
18

>  <num_atoms_heavy>  (19) 
23

>  <num_torsions>  (19) 
5

>  <pose>  (19) 
[-66.36446769169243, 34.59106592807887, 1.435250315977952, -0.08245565481640399, -0.08713904579057687, -0.13313433558187288, -18.84236128200116, 24.17361516629737, 6.04871881318821, 5.355267215326287, -0.6774205805709068]

>  <energy>  (19) 
-165.91648371639607

>  <inter_energy>  (19) 
-189.5167954671144

>  <intra_energy>  (19) 
17.863943482158174

>  <rmsd>  (19) 
10.1764

>  <sdf_rank>  (19) 
0

$$$$

     RDKit          3D

 41 42  0  0  0  0  0  0  0  0999 V2000
  -67.5391   33.9549    0.2782 C   0  0  0  0  0  0  0  0  0  0  0  0
  -66.7434   35.0366    1.0569 C   0  0  0  0  0  0  0  0  0  0  0  0
  -67.4142   36.0032    1.7449 C   0  0  0  0  0  0  0  0  0  0  0  0
  -68.9174   36.0733    1.8573 C   0  0  0  0  0  0  0  0  0  0  0  0
  -66.6624   36.9762    2.3882 N   0  0  0  0  0  0  0  0  0  0  0  0
  -65.3590   36.8993    2.2656 C   0  0  0  0  0  0  0  0  0  0  0  0
  -64.5489   38.0033    2.9418 C   0  0  0  0  0  0  0  0  0  0  0  0
  -65.1376   38.9363    3.4330 O   0  0  0  0  0  0  0  0  0  0  0  0
  -63.2347   37.8377    2.8337 N   0  0  0  0  0  0  0  0  0  0  0  0
  -62.5270   36.7676    2.2705 C   0  0  0  0  0  0  0  0  0  0  0  0
  -61.3391   36.6764    2.3084 O   0  0  0  0  0  0  0  0  0  0  0  0
  -63.2808   35.7965    1.5712 N   0  0  0  0  0  0  0  0  0  0  0  0
  -64.5748   35.9277    1.6381 C   0  0  0  0  0  0  0  0  0  0  0  0
  -65.3997   34.9472    0.9745 N   0  0  0  0  0  0  0  0  0  0  0  0
  -64.6291   34.0386    0.1023 C   0  0  0  0  0  0  0  0  0  0  0  0
  -64.5606   32.6547    0.8720 C   0  0  2  0  0  0  0  0  0  0  0  0
  -64.7018   32.7991    2.3099 O   0  0  0  0  0  0  0  0  0  0  0  0
  -63.2317   31.8356    0.6893 C   0  0  2  0  0  0  0  0  0  0  0  0
  -62.1743   32.5898    1.3281 O   0  0  0  0  0  0  0  0  0  0  0  0
  -62.8528   31.6938   -0.7766 C   0  0  2  0  0  0  0  0  0  0  0  0
  -63.6630   30.7081   -1.4706 O   0  0  0  0  0  0  0  0  0  0  0  0
  -61.3708   31.3398   -0.8797 C   0  0  0  0  0  0  0  0  0  0  0  0
  -61.1223   29.9495   -1.1404 O   0  0  0  0  0  0  0  0  0  0  0  0
  -68.0353   33.2803    0.9914 H   0  0  0  0  0  0  0  0  0  0  0  0
  -68.2964   34.4411   -0.3543 H   0  0  0  0  0  0  0  0  0  0  0  0
  -66.8494   33.3768   -0.3543 H   0  0  0  0  0  0  0  0  0  0  0  0
  -69.2054   36.0867    2.9189 H   0  0  0  0  0  0  0  0  0  0  0  0
  -69.2794   36.9892    1.3676 H   0  0  0  0  0  0  0  0  0  0  0  0
  -69.3630   35.1949    1.3676 H   0  0  0  0  0  0  0  0  0  0  0  0
  -62.6575   38.6003    3.2162 H   0  0  0  0  0  0  0  0  0  0  0  0
  -65.1376   33.9138   -0.8652 H   0  0  0  0  0  0  0  0  0  0  0  0
  -63.6247   34.4347   -0.1079 H   0  0  0  0  0  0  0  0  0  0  0  0
  -65.4010   32.1166    0.4091 H   0  0  0  0  0  0  0  0  0  0  0  0
  -64.0878   32.1709    2.7665 H   0  0  0  0  0  0  0  0  0  0  0  0
  -63.3734   30.8329    1.1186 H   0  0  0  0  0  0  0  0  0  0  0  0
  -62.2686   32.5226    2.3113 H   0  0  0  0  0  0  0  0  0  0  0  0
  -63.0457   32.6577   -1.2703 H   0  0  0  0  0  0  0  0  0  0  0  0
  -64.1302   30.1396   -0.8083 H   0  0  0  0  0  0  0  0  0  0  0  0
  -60.9296   31.9298   -1.6966 H   0  0  0  0  0  0  0  0  0  0  0  0
  -60.9189   31.5677    0.0970 H   0  0  0  0  0  0  0  0  0  0  0  0
  -61.0353   29.4632   -0.2825 H   0  0  0  0  0  0  0  0  0  0  0  0
  1  2  1  0
  2  3  2  0
  2 14  1  0
  3  4  1  0
  3  5  1  0
  5  6  2  0
  6  7  1  0
  6 13  1  0
  7  8  2  0
  7  9  1  0
  9 10  1  0
 10 11  2  0
 10 12  1  0
 12 13  2  0
 13 14  1  0
 14 15  1  0
 15 16  1  0
 16 17  1  0
 16 18  1  0
 18 19  1  0
 18 20  1  0
 20 21  1  0
 20 22  1  0
 22 23  1  0
  1 24  1  0
  1 25  1  0
  1 26  1  0
  4 27  1  0
  4 28  1  0
  4 29  1  0
  9 30  1  0
 15 31  1  0
 15 32  1  0
 16 33  1  6
 17 34  1  0
 18 35  1  1
 19 36  1  0
 20 37  1  6
 21 38  1  0
 22 39  1  0
 22 40  1  0
 23 41  1  0
M  END
>  <filename_input>  (20) 
8A1H_DLZ_docked.sdf

>  <pdb_id>  (20) 
8A1H_DLZ

>  <pose_rank>  (20) 
19

>  <num_atoms_heavy>  (20) 
23

>  <num_torsions>  (20) 
5

>  <pose>  (20) 
[-67.53910764270513, 33.95488947899856, 0.27820001345936096, -5.8867483742572615, -1.3635769719637474, -0.15834177201630792, -3.0709459423933785, 0.17129294525683747, 0.018424885960345007, -0.5160046474354465, -1.2873527396811337]

>  <energy>  (20) 
-182.3652694603929

>  <inter_energy>  (20) 
-185.22663705179218

>  <intra_energy>  (20) 
17.5205074026428

>  <rmsd>  (20) 
9.81956

>  <sdf_rank>  (20) 
0

$$$$

     RDKit          3D

 41 42  0  0  0  0  0  0  0  0999 V2000
  -63.3643   42.6663  -15.0242 C   0  0  0  0  0  0  0  0  0  0  0  0
  -63.3164   44.1950  -14.7592 C   0  0  0  0  0  0  0  0  0  0  0  0
  -64.2754   45.0029  -15.2931 C   0  0  0  0  0  0  0  0  0  0  0  0
  -65.4482   44.5042  -16.1012 C   0  0  0  0  0  0  0  0  0  0  0  0
  -64.1668   46.3680  -15.0685 N   0  0  0  0  0  0  0  0  0  0  0  0
  -63.1328   46.7766  -14.3730 C   0  0  0  0  0  0  0  0  0  0  0  0
  -63.0042   48.2852  -14.1736 C   0  0  0  0  0  0  0  0  0  0  0  0
  -63.7687   49.0145  -14.7583 O   0  0  0  0  0  0  0  0  0  0  0  0
  -61.9722   48.6325  -13.4115 N   0  0  0  0  0  0  0  0  0  0  0  0
  -61.0717   47.8092  -12.7228 C   0  0  0  0  0  0  0  0  0  0  0  0
  -60.2318   48.2286  -11.9883 O   0  0  0  0  0  0  0  0  0  0  0  0
  -61.1434   46.4209  -12.9827 N   0  0  0  0  0  0  0  0  0  0  0  0
  -62.1324   46.0361  -13.7376 C   0  0  0  0  0  0  0  0  0  0  0  0
  -62.2804   44.6268  -14.0104 N   0  0  0  0  0  0  0  0  0  0  0  0
  -61.1224   43.8270  -13.5639 C   0  0  0  0  0  0  0  0  0  0  0  0
  -60.1635   43.7148  -14.8209 C   0  0  2  0  0  0  0  0  0  0  0  0
  -59.9662   42.3456  -15.2620 O   0  0  0  0  0  0  0  0  0  0  0  0
  -58.7087   44.2762  -14.6234 C   0  0  2  0  0  0  0  0  0  0  0  0
  -58.1434   44.4697  -15.9417 O   0  0  0  0  0  0  0  0  0  0  0  0
  -57.8141   43.2834  -13.8980 C   0  0  2  0  0  0  0  0  0  0  0  0
  -57.3883   43.7629  -12.5947 O   0  0  0  0  0  0  0  0  0  0  0  0
  -56.6046   42.9645  -14.7742 C   0  0  0  0  0  0  0  0  0  0  0  0
  -56.5040   41.5804  -15.1445 O   0  0  0  0  0  0  0  0  0  0  0  0
  -63.3811   42.1282  -14.0649 H   0  0  0  0  0  0  0  0  0  0  0  0
  -64.2705   42.4218  -15.5977 H   0  0  0  0  0  0  0  0  0  0  0  0
  -62.4751   42.3655  -15.5977 H   0  0  0  0  0  0  0  0  0  0  0  0
  -66.2442   44.1657  -15.4218 H   0  0  0  0  0  0  0  0  0  0  0  0
  -65.8290   45.3182  -16.7355 H   0  0  0  0  0  0  0  0  0  0  0  0
  -65.1261   43.6652  -16.7355 H   0  0  0  0  0  0  0  0  0  0  0  0
  -61.8126   49.6454  -13.3139 H   0  0  0  0  0  0  0  0  0  0  0  0
  -60.6069   44.3304  -12.7327 H   0  0  0  0  0  0  0  0  0  0  0  0
  -61.4313   42.8356  -13.2010 H   0  0  0  0  0  0  0  0  0  0  0  0
  -60.7075   44.3288  -15.5538 H   0  0  0  0  0  0  0  0  0  0  0  0
  -59.8809   41.7538  -14.4730 H   0  0  0  0  0  0  0  0  0  0  0  0
  -58.7651   45.2021  -14.0323 H   0  0  0  0  0  0  0  0  0  0  0  0
  -57.2102   44.7893  -15.8570 H   0  0  0  0  0  0  0  0  0  0  0  0
  -58.3999   42.3701  -13.7168 H   0  0  0  0  0  0  0  0  0  0  0  0
  -57.8476   43.2456  -11.8865 H   0  0  0  0  0  0  0  0  0  0  0  0
  -56.6747   43.5649  -15.6933 H   0  0  0  0  0  0  0  0  0  0  0  0
  -55.7089   43.2029  -14.1819 H   0  0  0  0  0  0  0  0  0  0  0  0
  -56.4635   41.0224  -14.3278 H   0  0  0  0  0  0  0  0  0  0  0  0
  1  2  1  0
  2  3  2  0
  2 14  1  0
  3  4  1  0
  3  5  1  0
  5  6  2  0
  6  7  1  0
  6 13  1  0
  7  8  2  0
  7  9  1  0
  9 10  1  0
 10 11  2  0
 10 12  1  0
 12 13  2  0
 13 14  1  0
 14 15  1  0
 15 16  1  0
 16 17  1  0
 16 18  1  0
 18 19  1  0
 18 20  1  0
 20 21  1  0
 20 22  1  0
 22 23  1  0
  1 24  1  0
  1 25  1  0
  1 26  1  0
  4 27  1  0
  4 28  1  0
  4 29  1  0
  9 30  1  0
 15 31  1  0
 15 32  1  0
 16 33  1  6
 17 34  1  0
 18 35  1  1
 19 36  1  0
 20 37  1  1
 21 38  1  0
 22 39  1  0
 22 40  1  0
 23 41  1  0
M  END
>  <filename_input>  (21) 
8A1H_DLZ_docked.sdf

>  <pdb_id>  (21) 
8A1H_DLZ

>  <pose_rank>  (21) 
20

>  <num_atoms_heavy>  (21) 
23

>  <num_torsions>  (21) 
5

>  <pose>  (21) 
[-63.364279601326665, 42.66625695288803, -15.024165261997894, -0.38396275519445877, -0.6369974468873281, 0.30431033587227524, -0.25857931198286127, -1.4571646523528892, -3.987036413578865, -1.19020253399785, 1.1492127351303416]

>  <energy>  (21) 
-113.647095187877

>  <inter_energy>  (21) 
-118.70656015842266

>  <intra_energy>  (21) 
9.604660623592306

>  <rmsd>  (21) 
11.2247

>  <sdf_rank>  (21) 
0

$$$$

     RDKit          3D

 41 42  0  0  0  0  0  0  0  0999 V2000
  -61.2852   46.9397  -12.1496 C   0  0  0  0  0  0  0  0  0  0  0  0
  -62.4806   47.1767  -13.1111 C   0  0  0  0  0  0  0  0  0  0  0  0
  -62.7439   48.4352  -13.5631 C   0  0  0  0  0  0  0  0  0  0  0  0
  -61.9040   49.6452  -13.2351 C   0  0  0  0  0  0  0  0  0  0  0  0
  -63.8497   48.6074  -14.3836 N   0  0  0  0  0  0  0  0  0  0  0  0
  -64.5694   47.5425  -14.6443 C   0  0  0  0  0  0  0  0  0  0  0  0
  -65.8078   47.7577  -15.5114 C   0  0  0  0  0  0  0  0  0  0  0  0
  -66.1249   48.8867  -15.7993 O   0  0  0  0  0  0  0  0  0  0  0  0
  -66.4609   46.6342  -15.7902 N   0  0  0  0  0  0  0  0  0  0  0  0
  -66.1162   45.3145  -15.4696 C   0  0  0  0  0  0  0  0  0  0  0  0
  -66.7304   44.3667  -15.8506 O   0  0  0  0  0  0  0  0  0  0  0  0
  -65.0200   45.1317  -14.5948 N   0  0  0  0  0  0  0  0  0  0  0  0
  -64.3582   46.2092  -14.2830 C   0  0  0  0  0  0  0  0  0  0  0  0
  -63.2072   46.0831  -13.4219 N   0  0  0  0  0  0  0  0  0  0  0  0
  -63.0787   44.7402  -12.8216 C   0  0  0  0  0  0  0  0  0  0  0  0
  -62.0544   43.9523  -13.7394 C   0  0  2  0  0  0  0  0  0  0  0  0
  -60.8921   43.4759  -13.0109 O   0  0  0  0  0  0  0  0  0  0  0  0
  -61.4555   44.7612  -14.9465 C   0  0  2  0  0  0  0  0  0  0  0  0
  -61.9282   44.1296  -16.1600 O   0  0  0  0  0  0  0  0  0  0  0  0
  -59.9366   44.6937  -14.9734 C   0  0  2  0  0  0  0  0  0  0  0  0
  -59.3174   46.0063  -14.9141 O   0  0  0  0  0  0  0  0  0  0  0  0
  -59.4898   43.9453  -16.2274 C   0  0  0  0  0  0  0  0  0  0  0  0
  -58.5818   42.8636  -15.9660 O   0  0  0  0  0  0  0  0  0  0  0  0
  -61.6329   47.0086  -11.1083 H   0  0  0  0  0  0  0  0  0  0  0  0
  -60.8624   45.9403  -12.3296 H   0  0  0  0  0  0  0  0  0  0  0  0
  -60.5131   47.7023  -12.3296 H   0  0  0  0  0  0  0  0  0  0  0  0
  -61.8284   49.7540  -12.1431 H   0  0  0  0  0  0  0  0  0  0  0  0
  -60.8978   49.5195  -13.6616 H   0  0  0  0  0  0  0  0  0  0  0  0
  -62.3734   50.5439  -13.6616 H   0  0  0  0  0  0  0  0  0  0  0  0
  -67.3406   46.7493  -16.3133 H   0  0  0  0  0  0  0  0  0  0  0  0
  -62.6929   44.8154  -11.7942 H   0  0  0  0  0  0  0  0  0  0  0  0
  -64.0501   44.2271  -12.7666 H   0  0  0  0  0  0  0  0  0  0  0  0
  -62.6923   43.1373  -14.1120 H   0  0  0  0  0  0  0  0  0  0  0  0
  -61.0613   43.5453  -12.0379 H   0  0  0  0  0  0  0  0  0  0  0  0
  -61.7632   45.8132  -14.8535 H   0  0  0  0  0  0  0  0  0  0  0  0
  -62.5049   43.3591  -15.9279 H   0  0  0  0  0  0  0  0  0  0  0  0
  -59.6063   44.1535  -14.0739 H   0  0  0  0  0  0  0  0  0  0  0  0
  -59.1930   46.2700  -13.9680 H   0  0  0  0  0  0  0  0  0  0  0  0
  -60.3824   43.5363  -16.7234 H   0  0  0  0  0  0  0  0  0  0  0  0
  -58.9518   44.6692  -16.8571 H   0  0  0  0  0  0  0  0  0  0  0  0
  -58.4824   42.7451  -14.9882 H   0  0  0  0  0  0  0  0  0  0  0  0
  1  2  1  0
  2  3  2  0
  2 14  1  0
  3  4  1  0
  3  5  1  0
  5  6  2  0
  6  7  1  0
  6 13  1  0
  7  8  2  0
  7  9  1  0
  9 10  1  0
 10 11  2  0
 10 12  1  0
 12 13  2  0
 13 14  1  0
 14 15  1  0
 15 16  1  0
 16 17  1  0
 16 18  1  0
 18 19  1  0
 18 20  1  0
 20 21  1  0
 20 22  1  0
 22 23  1  0
  1 24  1  0
  1 25  1  0
  1 26  1  0
  4 27  1  0
  4 28  1  0
  4 29  1  0
  9 30  1  0
 15 31  1  0
 15 32  1  0
 16 33  1  6
 17 34  1  0
 18 35  1  1
 19 36  1  0
 20 37  1  1
 21 38  1  0
 22 39  1  0
 22 40  1  0
 23 41  1  0
M  END
>  <filename_input>  (22) 
8A1H_DLZ_docked.sdf

>  <pdb_id>  (22) 
8A1H_DLZ

>  <pose_rank>  (22) 
21

>  <num_atoms_heavy>  (22) 
23

>  <num_torsions>  (22) 
5

>  <pose>  (22) 
[-61.28518339870804, 46.939689958969865, -12.149594704522139, -1.201606503893297, 2.5617971527617645, -0.12624308710941876, -9.506071773980162, -3.5526470571803057, -3.155915537612248, -1.3152719242186361, 0.9908554215067091]

>  <energy>  (22) 
-126.90515737619174

>  <inter_energy>  (22) 
-154.89086771525226

>  <intra_energy>  (22) 
28.337242122125332

>  <rmsd>  (22) 
11.476

>  <sdf_rank>  (22) 
0

$$$$

     RDKit          3D

 41 42  0  0  0  0  0  0  0  0999 V2000
  -64.9601   33.8605    2.6567 C   0  0  0  0  0  0  0  0  0  0  0  0
  -64.0731   35.1060    2.9251 C   0  0  0  0  0  0  0  0  0  0  0  0
  -64.6585   36.3185    3.1362 C   0  0  0  0  0  0  0  0  0  0  0  0
  -66.1502   36.5409    3.1858 C   0  0  0  0  0  0  0  0  0  0  0  0
  -63.8257   37.4122    3.3262 N   0  0  0  0  0  0  0  0  0  0  0  0
  -62.5339   37.1942    3.2671 C   0  0  0  0  0  0  0  0  0  0  0  0
  -61.6327   38.4159    3.4332 C   0  0  0  0  0  0  0  0  0  0  0  0
  -62.1420   39.5098    3.4809 O   0  0  0  0  0  0  0  0  0  0  0  0
  -60.3364   38.1228    3.4245 N   0  0  0  0  0  0  0  0  0  0  0  0
  -59.7198   36.8659    3.3705 C   0  0  0  0  0  0  0  0  0  0  0  0
  -58.5415   36.7105    3.4614 O   0  0  0  0  0  0  0  0  0  0  0  0
  -60.5554   35.7507    3.1287 N   0  0  0  0  0  0  0  0  0  0  0  0
  -61.8347   35.9939    3.1148 C   0  0  0  0  0  0  0  0  0  0  0  0
  -62.7413   34.8904    2.9083 N   0  0  0  0  0  0  0  0  0  0  0  0
  -62.0553   33.6460    2.5071 C   0  0  0  0  0  0  0  0  0  0  0  0
  -61.4801   33.9178    1.0554 C   0  0  2  0  0  0  0  0  0  0  0  0
  -62.4367   33.6242    0.0032 O   0  0  0  0  0  0  0  0  0  0  0  0
  -60.2002   33.0947    0.6618 C   0  0  2  0  0  0  0  0  0  0  0  0
  -59.3286   33.9865   -0.0731 O   0  0  0  0  0  0  0  0  0  0  0  0
  -60.5361   31.9377   -0.2659 C   0  0  2  0  0  0  0  0  0  0  0  0
  -61.3746   30.9365    0.3699 O   0  0  0  0  0  0  0  0  0  0  0  0
  -59.2402   31.3091   -0.7736 C   0  0  0  0  0  0  0  0  0  0  0  0
  -58.6391   30.3894    0.1514 O   0  0  0  0  0  0  0  0  0  0  0  0
  -65.2735   33.4203    3.6148 H   0  0  0  0  0  0  0  0  0  0  0  0
  -65.8492   34.1604    2.0826 H   0  0  0  0  0  0  0  0  0  0  0  0
  -64.3860   33.1184    2.0826 H   0  0  0  0  0  0  0  0  0  0  0  0
  -66.4789   36.5899    4.2344 H   0  0  0  0  0  0  0  0  0  0  0  0
  -66.3971   37.4858    2.6796 H   0  0  0  0  0  0  0  0  0  0  0  0
  -66.6620   35.7092    2.6796 H   0  0  0  0  0  0  0  0  0  0  0  0
  -59.6978   38.9301    3.4627 H   0  0  0  0  0  0  0  0  0  0  0  0
  -61.2376   33.4170    3.2063 H   0  0  0  0  0  0  0  0  0  0  0  0
  -62.7404   32.7854    2.5162 H   0  0  0  0  0  0  0  0  0  0  0  0
  -61.2328   34.9873    1.1258 H   0  0  0  0  0  0  0  0  0  0  0  0
  -63.3007   33.3590    0.4074 H   0  0  0  0  0  0  0  0  0  0  0  0
  -59.7426   32.6943    1.5785 H   0  0  0  0  0  0  0  0  0  0  0  0
  -58.7987   34.5288    0.5635 H   0  0  0  0  0  0  0  0  0  0  0  0
  -61.1168   32.3387   -1.1098 H   0  0  0  0  0  0  0  0  0  0  0  0
  -61.3027   31.0223    1.3536 H   0  0  0  0  0  0  0  0  0  0  0  0
  -59.4592   30.7689   -1.7064 H   0  0  0  0  0  0  0  0  0  0  0  0
  -58.5227   32.1300   -0.9200 H   0  0  0  0  0  0  0  0  0  0  0  0
  -58.8299   30.6813    1.0780 H   0  0  0  0  0  0  0  0  0  0  0  0
  1  2  1  0
  2  3  2  0
  2 14  1  0
  3  4  1  0
  3  5  1  0
  5  6  2  0
  6  7  1  0
  6 13  1  0
  7  8  2  0
  7  9  1  0
  9 10  1  0
 10 11  2  0
 10 12  1  0
 12 13  2  0
 13 14  1  0
 14 15  1  0
 15 16  1  0
 16 17  1  0
 16 18  1  0
 18 19  1  0
 18 20  1  0
 20 21  1  0
 20 22  1  0
 22 23  1  0
  1 24  1  0
  1 25  1  0
  1 26  1  0
  4 27  1  0
  4 28  1  0
  4 29  1  0
  9 30  1  0
 15 31  1  0
 15 32  1  0
 16 33  1  1
 17 34  1  0
 18 35  1  1
 19 36  1  0
 20 37  1  6
 21 38  1  0
 22 39  1  0
 22 40  1  0
 23 41  1  0
M  END
>  <filename_input>  (23) 
8A1H_DLZ_docked.sdf

>  <pdb_id>  (23) 
8A1H_DLZ

>  <pose_rank>  (23) 
22

>  <num_atoms_heavy>  (23) 
23

>  <num_torsions>  (23) 
5

>  <pose>  (23) 
[-64.960062442554, 33.86054017652585, 2.6567191188431054, 5.48038744028879, -1.2754431495305698, 2.2645966242172664, 12.752498703893892, 24.21942093837808, 15.253145753081522, -6.605509052466748, -1.644241966305851]

>  <energy>  (23) 
-141.8312563588032

>  <inter_energy>  (23) 
-168.3420172176185

>  <intra_energy>  (23) 
25.770207170635366

>  <rmsd>  (23) 
11.2397

>  <sdf_rank>  (23) 
0

$$$$

     RDKit          3D

 41 42  0  0  0  0  0  0  0  0999 V2000
  -74.7599   46.7465  -11.2737 C   0  0  0  0  0  0  0  0  0  0  0  0
  -75.1567   45.3465  -11.8141 C   0  0  0  0  0  0  0  0  0  0  0  0
  -75.9071   44.5122  -11.0405 C   0  0  0  0  0  0  0  0  0  0  0  0
  -76.4456   44.8769   -9.6788 C   0  0  0  0  0  0  0  0  0  0  0  0
  -76.1990   43.2531  -11.5456 N   0  0  0  0  0  0  0  0  0  0  0  0
  -75.7099   42.9569  -12.7258 C   0  0  0  0  0  0  0  0  0  0  0  0
  -76.0027   41.5516  -13.2468 C   0  0  0  0  0  0  0  0  0  0  0  0
  -76.5455   40.7621  -12.5117 O   0  0  0  0  0  0  0  0  0  0  0  0
  -75.5333   41.3321  -14.4707 N   0  0  0  0  0  0  0  0  0  0  0  0
  -74.9014   42.2278  -15.3435 C   0  0  0  0  0  0  0  0  0  0  0  0
  -74.6001   41.9486  -16.4624 O   0  0  0  0  0  0  0  0  0  0  0  0
  -74.5565   43.4965  -14.8224 N   0  0  0  0  0  0  0  0  0  0  0  0
  -74.9844   43.7500  -13.6187 C   0  0  0  0  0  0  0  0  0  0  0  0
  -74.6952   45.0421  -13.0449 N   0  0  0  0  0  0  0  0  0  0  0  0
  -73.7345   45.8278  -13.8448 C   0  0  0  0  0  0  0  0  0  0  0  0
  -74.5926   46.5499  -14.9648 C   0  0  2  0  0  0  0  0  0  0  0  0
  -74.0727   46.3342  -16.3033 O   0  0  0  0  0  0  0  0  0  0  0  0
  -74.7084   48.1121  -14.8367 C   0  0  2  0  0  0  0  0  0  0  0  0
  -74.9192   48.6352  -16.1697 O   0  0  0  0  0  0  0  0  0  0  0  0
  -73.4222   48.7327  -14.3143 C   0  0  2  0  0  0  0  0  0  0  0  0
  -73.6635   49.7823  -13.3398 O   0  0  0  0  0  0  0  0  0  0  0  0
  -72.6099   49.2688  -15.4911 C   0  0  0  0  0  0  0  0  0  0  0  0
  -71.2156   49.4521  -15.1992 O   0  0  0  0  0  0  0  0  0  0  0  0
  -74.7646   46.7299  -10.1738 H   0  0  0  0  0  0  0  0  0  0  0  0
  -73.7528   47.0060  -11.6322 H   0  0  0  0  0  0  0  0  0  0  0  0
  -75.4811   47.4958  -11.6322 H   0  0  0  0  0  0  0  0  0  0  0  0
  -75.8015   44.4408   -8.9010 H   0  0  0  0  0  0  0  0  0  0  0  0
  -76.4604   45.9715   -9.5715 H   0  0  0  0  0  0  0  0  0  0  0  0
  -77.4675   44.4841   -9.5715 H   0  0  0  0  0  0  0  0  0  0  0  0
  -75.6500   40.3725  -14.8262 H   0  0  0  0  0  0  0  0  0  0  0  0
  -73.2274   46.5712  -13.2122 H   0  0  0  0  0  0  0  0  0  0  0  0
  -72.9541   45.1881  -14.2826 H   0  0  0  0  0  0  0  0  0  0  0  0
  -75.5769   46.0852  -14.8056 H   0  0  0  0  0  0  0  0  0  0  0  0
  -73.1597   45.9556  -16.2456 H   0  0  0  0  0  0  0  0  0  0  0  0
  -75.5262   48.3493  -14.1403 H   0  0  0  0  0  0  0  0  0  0  0  0
  -75.2885   49.5518  -16.1099 H   0  0  0  0  0  0  0  0  0  0  0  0
  -72.8561   47.9476  -13.7916 H   0  0  0  0  0  0  0  0  0  0  0  0
  -73.5780   49.4105  -12.4262 H   0  0  0  0  0  0  0  0  0  0  0  0
  -72.6986   48.5580  -16.3259 H   0  0  0  0  0  0  0  0  0  0  0  0
  -73.0182   50.2604  -15.7362 H   0  0  0  0  0  0  0  0  0  0  0  0
  -71.0833   49.4695  -14.2183 H   0  0  0  0  0  0  0  0  0  0  0  0
  1  2  1  0
  2  3  2  0
  2 14  1  0
  3  4  1  0
  3  5  1  0
  5  6  2  0
  6  7  1  0
  6 13  1  0
  7  8  2  0
  7  9  1  0
  9 10  1  0
 10 11  2  0
 10 12  1  0
 12 13  2  0
 13 14  1  0
 14 15  1  0
 15 16  1  0
 16 17  1  0
 16 18  1  0
 18 19  1  0
 18 20  1  0
 20 21  1  0
 20 22  1  0
 22 23  1  0
  1 24  1  0
  1 25  1  0
  1 26  1  0
  4 27  1  0
  4 28  1  0
  4 29  1  0
  9 30  1  0
 15 31  1  0
 15 32  1  0
 16 33  1  6
 17 34  1  0
 18 35  1  1
 19 36  1  0
 20 37  1  1
 21 38  1  0
 22 39  1  0
 22 40  1  0
 23 41  1  0
M  END
>  <filename_input>  (24) 
8A1H_DLZ_docked.sdf

>  <pdb_id>  (24) 
8A1H_DLZ

>  <pose_rank>  (24) 
23

>  <num_atoms_heavy>  (24) 
23

>  <num_torsions>  (24) 
5

>  <pose>  (24) 
[-74.7598900702438, 46.74652548611637, -11.273707850774095, 2.4358540237072956, -0.3849955539246849, -1.6689083490785428, 2.839535182509359, -1.6297295353571686, 1.5193074298831097, -1.6052890266317492, 0.43313119240479775]

>  <energy>  (24) 
-138.03799796889783

>  <inter_energy>  (24) 
-135.81263697835368

>  <intra_energy>  (24) 
16.25604178640761

>  <rmsd>  (24) 
13.2377

>  <sdf_rank>  (24) 
0

$$$$

     RDKit          3D

 41 42  0  0  0  0  0  0  0  0999 V2000
  -63.7043   32.4310   -1.3664 C   0  0  0  0  0  0  0  0  0  0  0  0
  -64.9824   32.4539   -0.4857 C   0  0  0  0  0  0  0  0  0  0  0  0
  -65.8582   31.4110   -0.5401 C   0  0  0  0  0  0  0  0  0  0  0  0
  -65.6475   30.1716   -1.3747 C   0  0  0  0  0  0  0  0  0  0  0  0
  -67.0098   31.4954    0.2297 N   0  0  0  0  0  0  0  0  0  0  0  0
  -67.1745   32.5873    0.9370 C   0  0  0  0  0  0  0  0  0  0  0  0
  -68.4682   32.6835    1.7428 C   0  0  0  0  0  0  0  0  0  0  0  0
  -69.3097   31.8307    1.5921 O   0  0  0  0  0  0  0  0  0  0  0  0
  -68.5495   33.7833    2.4846 N   0  0  0  0  0  0  0  0  0  0  0  0
  -67.5905   34.7865    2.6773 C   0  0  0  0  0  0  0  0  0  0  0  0
  -67.7330   35.6898    3.4417 O   0  0  0  0  0  0  0  0  0  0  0  0
  -66.4356   34.7355    1.8626 N   0  0  0  0  0  0  0  0  0  0  0  0
  -66.3209   33.6805    1.1077 C   0  0  0  0  0  0  0  0  0  0  0  0
  -65.1461   33.5531    0.2794 N   0  0  0  0  0  0  0  0  0  0  0  0
  -64.3301   34.7831    0.2405 C   0  0  0  0  0  0  0  0  0  0  0  0
  -62.9805   34.4309    0.9934 C   0  0  2  0  0  0  0  0  0  0  0  0
  -63.0808   34.5794    2.4343 O   0  0  0  0  0  0  0  0  0  0  0  0
  -61.7302   35.2967    0.5965 C   0  0  2  0  0  0  0  0  0  0  0  0
  -60.5526   34.5343    0.9532 O   0  0  0  0  0  0  0  0  0  0  0  0
  -61.6717   36.5974    1.3819 C   0  0  2  0  0  0  0  0  0  0  0  0
  -61.6691   36.3835    2.8186 O   0  0  0  0  0  0  0  0  0  0  0  0
  -62.8465   37.4835    0.9731 C   0  0  0  0  0  0  0  0  0  0  0  0
  -63.8067   37.6951    2.0200 O   0  0  0  0  0  0  0  0  0  0  0  0
  -62.8141   32.4151   -0.7204 H   0  0  0  0  0  0  0  0  0  0  0  0
  -63.7126   31.5329   -2.0014 H   0  0  0  0  0  0  0  0  0  0  0  0
  -63.6805   33.3289   -2.0014 H   0  0  0  0  0  0  0  0  0  0  0  0
  -65.5001   29.3050   -0.7135 H   0  0  0  0  0  0  0  0  0  0  0  0
  -66.5298   30.0027   -2.0095 H   0  0  0  0  0  0  0  0  0  0  0  0
  -64.7589   30.3038   -2.0095 H   0  0  0  0  0  0  0  0  0  0  0  0
  -69.4391   33.9164    2.9864 H   0  0  0  0  0  0  0  0  0  0  0  0
  -64.1236   35.0728   -0.8004 H   0  0  0  0  0  0  0  0  0  0  0  0
  -64.8496   35.6283    0.7155 H   0  0  0  0  0  0  0  0  0  0  0  0
  -62.8315   33.3878    0.6777 H   0  0  0  0  0  0  0  0  0  0  0  0
  -62.5853   33.8455    2.8769 H   0  0  0  0  0  0  0  0  0  0  0  0
  -61.7898   35.5314   -0.4765 H   0  0  0  0  0  0  0  0  0  0  0  0
  -60.4772   34.4854    1.9391 H   0  0  0  0  0  0  0  0  0  0  0  0
  -60.7213   37.0958    1.1403 H   0  0  0  0  0  0  0  0  0  0  0  0
  -61.6799   37.2580    3.2825 H   0  0  0  0  0  0  0  0  0  0  0  0
  -62.4510   38.4619    0.6628 H   0  0  0  0  0  0  0  0  0  0  0  0
  -63.3712   36.9630    0.1584 H   0  0  0  0  0  0  0  0  0  0  0  0
  -63.3629   37.5973    2.8995 H   0  0  0  0  0  0  0  0  0  0  0  0
  1  2  1  0
  2  3  2  0
  2 14  1  0
  3  4  1  0
  3  5  1  0
  5  6  2  0
  6  7  1  0
  6 13  1  0
  7  8  2  0
  7  9  1  0
  9 10  1  0
 10 11  2  0
 10 12  1  0
 12 13  2  0
 13 14  1  0
 14 15  1  0
 15 16  1  0
 16 17  1  0
 16 18  1  0
 18 19  1  0
 18 20  1  0
 20 21  1  0
 20 22  1  0
 22 23  1  0
  1 24  1  0
  1 25  1  0
  1 26  1  0
  4 27  1  0
  4 28  1  0
  4 29  1  0
  9 30  1  0
 15 31  1  0
 15 32  1  0
 16 33  1  1
 17 34  1  0
 18 35  1  6
 19 36  1  0
 20 37  1  6
 21 38  1  0
 22 39  1  0
 22 40  1  0
 23 41  1  0
M  END
>  <filename_input>  (25) 
8A1H_DLZ_docked.sdf

>  <pdb_id>  (25) 
8A1H_DLZ

>  <pose_rank>  (25) 
24

>  <num_atoms_heavy>  (25) 
23

>  <num_torsions>  (25) 
5

>  <pose>  (25) 
[-63.70428652455318, 32.43104025436997, -1.366404959103097, 0.533843097810211, -0.4251794591000432, 1.7521502332130126, -2.9575144201756074, -0.8676651118891021, 2.373615299953306, 1.799837315625796, -1.0824484738591476]

>  <energy>  (25) 
-130.71313578312436

>  <inter_energy>  (25) 
-180.8794944282633

>  <intra_energy>  (25) 
64.44134431632473

>  <rmsd>  (25) 
11.1444

>  <sdf_rank>  (25) 
0

$$$$

     RDKit          3D

 41 42  0  0  0  0  0  0  0  0999 V2000
  -69.6900   38.3000   -6.6890 C   0  0  0  0  0  0  0  0  0  0  0  0
  -68.9230   39.5320   -6.1380 C   0  0  0  0  0  0  0  0  0  0  0  0
  -69.6170   40.6310   -5.7280 C   0  0  0  0  0  0  0  0  0  0  0  0
  -71.1230   40.7250   -5.7160 C   0  0  0  0  0  0  0  0  0  0  0  0
  -68.8880   41.7260   -5.2860 N   0  0  0  0  0  0  0  0  0  0  0  0
  -67.5810   41.6230   -5.3170 C   0  0  0  0  0  0  0  0  0  0  0  0
  -66.7940   42.8530   -4.8700 C   0  0  0  0  0  0  0  0  0  0  0  0
  -67.3960   43.8740   -4.6390 O   0  0  0  0  0  0  0  0  0  0  0  0
  -65.4780   42.6670   -4.8660 N   0  0  0  0  0  0  0  0  0  0  0  0
  -64.7550   41.4960   -5.1290 C   0  0  0  0  0  0  0  0  0  0  0  0
  -63.5720   41.4160   -5.0070 O   0  0  0  0  0  0  0  0  0  0  0  0
  -65.4830   40.3900   -5.6260 N   0  0  0  0  0  0  0  0  0  0  0  0
  -66.7770   40.5330   -5.6610 C   0  0  0  0  0  0  0  0  0  0  0  0
  -67.5780   39.4260   -6.1250 N   0  0  0  0  0  0  0  0  0  0  0  0
  -66.7740   38.3410   -6.7220 C   0  0  0  0  0  0  0  0  0  0  0  0
  -66.4030   38.8310   -8.1830 C   0  0  2  0  0  0  0  0  0  0  0  0
  -67.4550   39.6190   -8.8000 O   0  0  0  0  0  0  0  0  0  0  0  0
  -66.0990   37.6970   -9.2280 C   0  0  2  0  0  0  0  0  0  0  0  0
  -67.3310   36.9660   -9.4350 O   0  0  0  0  0  0  0  0  0  0  0  0
  -65.0760   36.7030   -8.7010 C   0  0  2  0  0  0  0  0  0  0  0  0
  -63.9260   37.3520   -8.0960 O   0  0  0  0  0  0  0  0  0  0  0  0
  -64.6370   35.7840   -9.8390 C   0  0  0  0  0  0  0  0  0  0  0  0
  -63.5920   34.8680   -9.4760 O   0  0  0  0  0  0  0  0  0  0  0  0
  -70.0657   37.6965   -5.8496 H   0  0  0  0  0  0  0  0  0  0  0  0
  -70.5364   38.6399   -7.3039 H   0  0  0  0  0  0  0  0  0  0  0  0
  -69.0114   37.6906   -7.3039 H   0  0  0  0  0  0  0  0  0  0  0  0
  -71.4807   40.7473   -4.6760 H   0  0  0  0  0  0  0  0  0  0  0  0
  -71.4371   41.6445   -6.2316 H   0  0  0  0  0  0  0  0  0  0  0  0
  -71.5490   39.8517   -6.2316 H   0  0  0  0  0  0  0  0  0  0  0  0
  -64.9123   43.4971   -4.6385 H   0  0  0  0  0  0  0  0  0  0  0  0
  -65.8614   38.1714   -6.1317 H   0  0  0  0  0  0  0  0  0  0  0  0
  -67.3283   37.3911   -6.7425 H   0  0  0  0  0  0  0  0  0  0  0  0
  -65.4910   39.4126   -7.9827 H   0  0  0  0  0  0  0  0  0  0  0  0
  -68.0115   40.0359   -8.0953 H   0  0  0  0  0  0  0  0  0  0  0  0
  -65.7061   38.1590  -10.1457 H   0  0  0  0  0  0  0  0  0  0  0  0
  -67.7267   36.7312   -8.5584 H   0  0  0  0  0  0  0  0  0  0  0  0
  -65.5554   36.1148   -7.9047 H   0  0  0  0  0  0  0  0  0  0  0  0
  -64.0033   37.3084   -7.1100 H   0  0  0  0  0  0  0  0  0  0  0  0
  -65.5093   35.2011  -10.1698 H   0  0  0  0  0  0  0  0  0  0  0  0
  -64.2347   36.4292  -10.6339 H   0  0  0  0  0  0  0  0  0  0  0  0
  -63.5293   34.8130   -8.4895 H   0  0  0  0  0  0  0  0  0  0  0  0
  1  2  1  0
  2  3  2  0
  2 14  1  0
  3  4  1  0
  3  5  1  0
  5  6  2  0
  6  7  1  0
  6 13  1  0
  7  8  2  0
  7  9  1  0
  9 10  1  0
 10 11  2  0
 10 12  1  0
 12 13  2  0
 13 14  1  0
 14 15  1  0
 15 16  1  0
 16 17  1  0
 16 18  1  0
 18 19  1  0
 18 20  1  0
 20 21  1  0
 20 22  1  0
 22 23  1  0
  1 24  1  0
  1 25  1  0
  1 26  1  0
  4 27  1  0
  4 28  1  0
  4 29  1  0
  9 30  1  0
 15 31  1  0
 15 32  1  0
 16 33  1  1
 17 34  1  0
 18 35  1  6
 19 36  1  0
 20 37  1  1
 21 38  1  0
 22 39  1  0
 22 40  1  0
 23 41  1  0
M  END
>  <filename_input>  (26) 
8A1H_DLZ_docked.sdf

>  <pdb_id>  (26) 
8A1H_DLZ

>  <pose_rank>  (26) 
25

>  <num_atoms_heavy>  (26) 
23

>  <num_torsions>  (26) 
5

>  <pose>  (26) 
[-69.69, 38.3, -6.689, 1e-06, 1e-06, 1e-06, 0.0, 0.0, 0.0, 0.0, 0.0]

>  <energy>  (26) 
-969.5531163433445

>  <inter_energy>  (26) 
-999.2530464856045

>  <intra_energy>  (26) 
26.154382434752208

>  <rmsd>  (26) 
0.0

>  <sdf_rank>  (26) 
0

$$$$
